CHEMBL272351_69
                    3D
 Schrodinger Suite 2024-2.
 64 69  0  0  1  0            999 V2000
    1.5046   53.4212   22.8822 C   0  0  0  0  0  0
    2.7675   53.7724   23.5183 N   0  0  0  0  0  0
    2.9687   53.8091   24.8856 C   0  0  0  0  0  0
    2.0734   53.5655   25.9382 C   0  0  0  0  0  0
    2.5343   53.6968   27.2543 C   0  0  0  0  0  0
    3.8796   54.0169   27.4796 C   0  0  0  0  0  0
    4.7563   54.2523   26.4500 C   0  0  0  0  0  0
    4.3255   54.1645   25.1135 C   0  0  0  0  0  0
    4.9360   54.3560   23.8498 C   0  0  0  0  0  0
    3.9473   54.0969   22.8670 C   0  0  0  0  0  0
    4.2211   54.2068   21.5022 C   0  0  0  0  0  0
    5.5025   54.6182   21.1006 C   0  0  0  0  0  0
    6.4829   54.8964   22.0651 C   0  0  0  0  0  0
    6.2245   54.7389   23.4273 C   0  0  0  0  0  0
    7.7396   55.3019   21.6818 O   0  0  0  0  0  0
    5.8440   54.7666   19.7619 O   0  0  0  0  0  0
    4.8732   54.5404   18.7305 C   0  0  0  0  0  0
    4.5171   53.0443   18.5508 C   0  0  0  0  0  0
    3.0476   52.8087   18.1332 C   0  0  0  0  0  0
    2.7044   51.2967   18.1022 N   0  3  0  0  0  0
    1.4318   51.0162   17.2731 C   0  0  0  0  0  0
    1.1315   49.5028   17.2915 C   0  0  0  0  0  0
    1.0771   48.9945   18.6232 O   0  0  0  0  0  0
    2.2751   49.1699   19.3743 C   0  0  0  0  0  0
    2.6261   50.6637   19.5113 C   0  0  0  0  0  0
    6.0687   54.5849   27.0493 C   0  0  0  0  0  0
    7.1044   54.8969   26.4823 O   0  0  0  0  0  0
    5.8984   54.4963   28.3774 N   0  0  0  0  0  0
    4.6524   54.1573   28.7493 C   0  0  0  0  0  0
    4.2649   54.0156   29.9065 O   0  0  0  0  0  0
    1.5819   53.4422   28.3678 C   0  0  0  0  0  0
    0.9800   52.1795   28.4469 C   0  0  0  0  0  0
    0.1056   51.8700   29.4821 C   0  0  0  0  0  0
   -0.1505   52.8070   30.4751 C   0  0  0  0  0  0
    0.4100   54.0787   30.3998 C   0  0  0  0  0  0
    1.2562   54.4106   29.3413 C   0  0  0  0  0  0
    1.8519   56.0371   29.2707 Cl  0  0  0  0  0  0
    1.3425   52.3472   22.9761 H   0  0  0  0  0  0
    0.6936   53.9566   23.3753 H   0  0  0  0  0  0
    1.5073   53.6958   21.8287 H   0  0  0  0  0  0
    1.0446   53.2970   25.7473 H   0  0  0  0  0  0
    3.4429   54.0124   20.7851 H   0  0  0  0  0  0
    7.0096   54.9482   24.1330 H   0  0  0  0  0  0
    8.3848   55.3120   22.4012 H   0  0  0  0  0  0
    5.2803   54.9280   17.7957 H   0  0  0  0  0  0
    3.9883   55.1491   18.9256 H   0  0  0  0  0  0
    4.7483   52.5052   19.4661 H   0  0  0  0  0  0
    5.1825   52.6092   17.8036 H   0  0  0  0  0  0
    2.8806   53.1831   17.1212 H   0  0  0  0  0  0
    2.3249   53.2743   18.8071 H   0  0  0  0  0  0
    1.6497   51.3391   16.2533 H   0  0  0  0  0  0
    0.6205   51.6126   17.6946 H   0  0  0  0  0  0
    0.1840   49.2941   16.7933 H   0  0  0  0  0  0
    1.9043   48.9705   16.7324 H   0  0  0  0  0  0
    2.1545   48.7108   20.3569 H   0  0  0  0  0  0
    3.0991   48.6467   18.8810 H   0  0  0  0  0  0
    1.8899   51.2212   20.0931 H   0  0  0  0  0  0
    3.6119   50.7532   19.9648 H   0  0  0  0  0  0
    6.6327   54.7207   29.0350 H   0  0  0  0  0  0
    1.1946   51.4236   27.7043 H   0  0  0  0  0  0
   -0.3628   50.8969   29.5256 H   0  0  0  0  0  0
   -0.8195   52.5493   31.2815 H   0  0  0  0  0  0
    0.1771   54.8117   31.1582 H   0  0  0  0  0  0
    3.4648   50.7994   17.6332 H   0  0  0  0  0  0
  1  2  1  0  0  0
  1 38  1  0  0  0
  1 39  1  0  0  0
  1 40  1  0  0  0
  2 10  1  0  0  0
  2  3  1  0  0  0
  3  8  2  0  0  0
  3  4  1  0  0  0
  4  5  2  0  0  0
  4 41  1  0  0  0
  5  6  1  0  0  0
  5 31  1  0  0  0
  6 29  1  0  0  0
  6  7  2  0  0  0
  7  8  1  0  0  0
  7 26  1  0  0  0
  8  9  1  0  0  0
  9 14  2  0  0  0
  9 10  1  0  0  0
 10 11  2  0  0  0
 11 12  1  0  0  0
 11 42  1  0  0  0
 12 13  2  0  0  0
 12 16  1  0  0  0
 13 14  1  0  0  0
 13 15  1  0  0  0
 14 43  1  0  0  0
 15 44  1  0  0  0
 16 17  1  0  0  0
 17 18  1  0  0  0
 17 45  1  0  0  0
 17 46  1  0  0  0
 18 19  1  0  0  0
 18 47  1  0  0  0
 18 48  1  0  0  0
 19 20  1  0  0  0
 19 49  1  0  0  0
 19 50  1  0  0  0
 20 25  1  0  0  0
 20 21  1  0  0  0
 20 64  1  0  0  0
 21 22  1  0  0  0
 21 51  1  0  0  0
 21 52  1  0  0  0
 22 23  1  0  0  0
 22 53  1  0  0  0
 22 54  1  0  0  0
 23 24  1  0  0  0
 24 25  1  0  0  0
 24 55  1  0  0  0
 24 56  1  0  0  0
 25 57  1  0  0  0
 25 58  1  0  0  0
 26 27  2  0  0  0
 26 28  1  0  0  0
 28 29  1  0  0  0
 28 59  1  0  0  0
 29 30  2  0  0  0
 31 36  2  0  0  0
 31 32  1  0  0  0
 32 33  2  0  0  0
 32 60  1  0  0  0
 33 34  1  0  0  0
 33 61  1  0  0  0
 34 35  2  0  0  0
 34 62  1  0  0  0
 35 36  1  0  0  0
 35 63  1  0  0  0
 36 37  1  0  0  0
M  CHG  1  20   1
M  END
> <i_i_glide_confnum>
98

> <i_i_glide_lignum>
70

> <i_i_glide_posenum>
334

> <i_i_glide_rotatable_bonds>
7

> <i_m_Source_File_Index>
46

> <b_m_subgroup_collapsed>
0

> <r_i_docking_score>
-11.8213

> <r_i_glide_ecoul>
-16.3864

> <r_i_glide_eff_state_penalty>
0

> <r_i_glide_einternal>
2.62536

> <r_i_glide_emodel>
-128.576

> <r_i_glide_energy>
-71.9153

> <r_i_glide_erotb>
0.265051

> <r_i_glide_esite>
-0.0978543

> <r_i_glide_evdw>
-55.5288

> <r_i_glide_gscore>
-11.8213

> <r_i_glide_hbond>
-0.951468

> <r_i_glide_ligand_efficiency>
-0.319496

> <r_i_glide_ligand_efficiency_ln>
-2.56377

> <r_i_glide_ligand_efficiency_sa>
-1.06463

> <r_i_glide_lipo>
-3.80864

> <r_i_glide_metal>
0

> <r_i_glide_rewards>
-1.99403

> <s_i_glide_gridfile>
wee1_glide-grid

> <s_m_Source_File>
wee1_actives_glide_SP.sdf

> <s_m_Source_Path>
/Users/zhangxujun/Desktop

> <s_m_entry_id>
184

> <s_m_entry_name>
wee1_actives_glide_SP.46

> <s_m_subgroup_title>
wee1_actives_glide_SP

> <s_m_subgroupid>
wee1_actives_glide_SP


$$$$
