CHEMBL529897_66
                    3D
 Schrodinger Suite 2024-2.
 50 55  0  0  1  0            999 V2000
    0.1547   51.8823   29.4692 C   0  0  0  0  0  0
   -0.1019   52.8442   30.4397 C   0  0  0  0  0  0
    0.4063   54.1319   30.2981 C   0  0  0  0  0  0
    1.2097   54.4528   29.2038 C   0  0  0  0  0  0
    1.5554   53.4569   28.2685 C   0  0  0  0  0  0
    0.9935   52.1816   28.4011 C   0  0  0  0  0  0
    2.5159   53.6968   27.1610 C   0  0  0  0  0  0
    2.0749   53.5569   25.8404 C   0  0  0  0  0  0
    2.9882   53.7756   24.7971 C   0  0  0  0  0  0
    4.3403   54.1406   25.0518 C   0  0  0  0  0  0
    4.9729   54.3322   23.8027 C   0  0  0  0  0  0
    6.2708   54.7297   23.4197 C   0  0  0  0  0  0
    6.5607   54.8968   22.0686 C   0  0  0  0  0  0
    5.6019   54.6197   21.0989 C   0  0  0  0  0  0
    4.3228   54.1730   21.4292 C   0  0  0  0  0  0
    4.0082   54.0572   22.7920 C   0  0  0  0  0  0
    2.8180   53.7065   23.4212 N   0  0  0  0  0  0
    1.5736   53.3415   22.7335 C   0  0  0  0  0  0
    1.3091   51.8111   22.7115 C   0  0  0  0  0  0
    0.5027   51.3383   23.8344 N   0  0  0  0  0  0
    0.7043   50.2171   24.5985 C   0  0  0  0  0  0
   -0.3412   50.1847   25.5100 C   0  0  0  0  0  0
   -1.1774   51.1902   25.3285 N   0  0  0  0  0  0
   -0.6810   51.8542   24.3121 C   0  0  0  0  0  0
    7.8122   55.3051   21.6817 O   0  0  0  0  0  0
    4.7515   54.2405   26.3950 C   0  0  0  0  0  0
    3.8567   54.0134   27.4090 C   0  0  0  0  0  0
    4.6028   54.1618   28.6943 C   0  0  0  0  0  0
    4.1932   54.0293   29.8457 O   0  0  0  0  0  0
    5.8559   54.4966   28.3455 N   0  0  0  0  0  0
    6.0538   54.5799   27.0208 C   0  0  0  0  0  0
    7.1044   54.8962   26.4815 O   0  0  0  0  0  0
    1.7422   56.0937   29.0357 Cl  0  0  0  0  0  0
   -0.2802   50.8969   29.5571 H   0  0  0  0  0  0
   -0.7302   52.5942   31.2816 H   0  0  0  0  0  0
    0.1667   54.8852   31.0340 H   0  0  0  0  0  0
    1.2195   51.4078   27.6810 H   0  0  0  0  0  0
    1.0472   53.2987   25.6454 H   0  0  0  0  0  0
    7.0362   54.9439   24.1433 H   0  0  0  0  0  0
    5.8599   54.7407   20.0566 H   0  0  0  0  0  0
    3.6022   53.9677   20.6507 H   0  0  0  0  0  0
    0.7588   53.9066   23.1862 H   0  0  0  0  0  0
    1.6313   53.6968   21.7059 H   0  0  0  0  0  0
    0.7712   51.5372   21.8031 H   0  0  0  0  0  0
    2.2463   51.2518   22.6885 H   0  0  0  0  0  0
    1.5490   49.5620   24.4382 H   0  0  0  0  0  0
   -0.5012   49.4438   26.2840 H   0  0  0  0  0  0
   -1.1127   52.7343   23.8622 H   0  0  0  0  0  0
    8.4569   55.3081   22.4027 H   0  0  0  0  0  0
    6.5774   54.7213   29.0165 H   0  0  0  0  0  0
  1  6  2  0  0  0
  1  2  1  0  0  0
  1 34  1  0  0  0
  2  3  2  0  0  0
  2 35  1  0  0  0
  3  4  1  0  0  0
  3 36  1  0  0  0
  4  5  2  0  0  0
  4 33  1  0  0  0
  5  6  1  0  0  0
  5  7  1  0  0  0
  6 37  1  0  0  0
  7 27  2  0  0  0
  7  8  1  0  0  0
  8  9  2  0  0  0
  8 38  1  0  0  0
  9 17  1  0  0  0
  9 10  1  0  0  0
 10 11  1  0  0  0
 10 26  2  0  0  0
 11 16  2  0  0  0
 11 12  1  0  0  0
 12 13  2  0  0  0
 12 39  1  0  0  0
 13 14  1  0  0  0
 13 25  1  0  0  0
 14 15  2  0  0  0
 14 40  1  0  0  0
 15 16  1  0  0  0
 15 41  1  0  0  0
 16 17  1  0  0  0
 17 18  1  0  0  0
 18 19  1  0  0  0
 18 42  1  0  0  0
 18 43  1  0  0  0
 19 20  1  0  0  0
 19 44  1  0  0  0
 19 45  1  0  0  0
 20 24  1  0  0  0
 20 21  1  0  0  0
 21 22  2  0  0  0
 21 46  1  0  0  0
 22 23  1  0  0  0
 22 47  1  0  0  0
 23 24  2  0  0  0
 24 48  1  0  0  0
 25 49  1  0  0  0
 26 31  1  0  0  0
 26 27  1  0  0  0
 27 28  1  0  0  0
 28 29  2  0  0  0
 28 30  1  0  0  0
 30 31  1  0  0  0
 30 50  1  0  0  0
 31 32  2  0  0  0
M  END
> <i_i_glide_confnum>
70

> <i_i_glide_lignum>
67

> <i_i_glide_posenum>
366

> <i_i_glide_rotatable_bonds>
5

> <i_m_Source_File_Index>
28

> <b_m_subgroup_collapsed>
0

> <r_i_docking_score>
-11.6969

> <r_i_glide_ecoul>
-14.3261

> <r_i_glide_eff_state_penalty>
0

> <r_i_glide_einternal>
4.38299

> <r_i_glide_emodel>
-113.332

> <r_i_glide_energy>
-67.5776

> <r_i_glide_erotb>
0.269625

> <r_i_glide_esite>
0

> <r_i_glide_evdw>
-53.2515

> <r_i_glide_gscore>
-11.6969

> <r_i_glide_hbond>
-0.893153

> <r_i_glide_ligand_efficiency>
-0.354451

> <r_i_glide_ligand_efficiency_ln>
-2.60133

> <r_i_glide_ligand_efficiency_sa>
-1.13691

> <r_i_glide_lipo>
-3.8749

> <r_i_glide_metal>
0

> <r_i_glide_rewards>
-2.38696

> <s_i_glide_gridfile>
wee1_glide-grid

> <s_m_Source_File>
wee1_actives_glide_SP.sdf

> <s_m_Source_Path>
/Users/zhangxujun/Desktop

> <s_m_entry_id>
166

> <s_m_entry_name>
wee1_actives_glide_SP.28

> <s_m_subgroup_title>
wee1_actives_glide_SP

> <s_m_subgroupid>
wee1_actives_glide_SP


$$$$
