CHEMBL483953_59
                    3D
 Schrodinger Suite 2024-2.
 54 58  0  0  1  0            999 V2000
   -2.7634   47.0095   24.8747 C   0  0  0  0  0  0
   -1.5379   47.6996   24.4760 N   0  0  0  0  0  0
   -1.0369   48.4925   25.6063 C   0  0  0  0  0  0
    0.2904   49.2019   25.2514 C   0  0  0  0  0  0
    0.1245   50.0665   23.9691 N   0  3  0  0  0  0
   -0.4773   49.2105   22.8257 C   0  0  0  0  0  0
   -1.7817   48.5338   23.2975 C   0  0  0  0  0  0
    1.4931   50.6744   23.5663 C   0  0  0  0  0  0
    1.3869   51.7732   22.4795 C   0  0  0  0  0  0
    1.3273   53.2271   23.0065 C   0  0  0  0  0  0
    2.5656   53.6168   23.6889 N   0  0  0  0  0  0
    3.7445   53.9769   23.0503 C   0  0  0  0  0  0
    4.0447   54.0962   21.6833 C   0  0  0  0  0  0
    5.3238   54.5317   21.3445 C   0  0  0  0  0  0
    6.2824   54.8227   22.3111 C   0  0  0  0  0  0
    6.0068   54.6547   23.6632 C   0  0  0  0  0  0
    4.7182   54.2508   24.0521 C   0  0  0  0  0  0
    4.1053   54.0503   25.3054 C   0  0  0  0  0  0
    2.7547   53.6495   25.0655 C   0  0  0  0  0  0
    1.8703   53.3602   26.1196 C   0  0  0  0  0  0
    2.3387   53.5138   27.4240 C   0  0  0  0  0  0
    3.6515   53.9065   27.6578 C   0  0  0  0  0  0
    4.5387   54.1511   26.6442 C   0  0  0  0  0  0
    5.8441   54.5006   27.2704 C   0  0  0  0  0  0
    6.9178   54.7781   26.7417 O   0  0  0  0  0  0
    5.6108   54.4951   28.5941 N   0  0  0  0  0  0
    4.3526   54.1577   28.9393 C   0  0  0  0  0  0
    3.9043   54.0935   30.0817 O   0  0  0  0  0  0
    7.5052   55.2973   21.9286 O   0  0  0  0  0  0
   -2.5755   46.3501   25.7235 H   0  0  0  0  0  0
   -3.1441   46.3952   24.0578 H   0  0  0  0  0  0
   -3.5488   47.7113   25.1638 H   0  0  0  0  0  0
   -1.7888   49.2459   25.8528 H   0  0  0  0  0  0
   -0.8948   47.8526   26.4777 H   0  0  0  0  0  0
    1.1044   48.4968   25.0846 H   0  0  0  0  0  0
    0.5607   49.8903   26.0535 H   0  0  0  0  0  0
    0.2860   48.4963   22.5173 H   0  0  0  0  0  0
   -0.7084   49.8766   21.9969 H   0  0  0  0  0  0
   -2.1889   47.9314   22.4823 H   0  0  0  0  0  0
   -2.5187   49.2964   23.5628 H   0  0  0  0  0  0
    1.9045   51.0846   24.4818 H   0  0  0  0  0  0
    2.1130   49.8314   23.2502 H   0  0  0  0  0  0
    2.2428   51.6735   21.8080 H   0  0  0  0  0  0
    0.5261   51.6154   21.8337 H   0  0  0  0  0  0
    1.1703   53.9192   22.1797 H   0  0  0  0  0  0
    0.4861   53.3655   23.6839 H   0  0  0  0  0  0
    3.3165   53.8936   20.9115 H   0  0  0  0  0  0
    5.5780   54.6640   20.3029 H   0  0  0  0  0  0
    6.7687   54.8836   24.3865 H   0  0  0  0  0  0
    0.8526   53.0487   25.9431 H   0  0  0  0  0  0
    1.6708   53.3234   28.2524 H   0  0  0  0  0  0
    6.3233   54.7482   29.2652 H   0  0  0  0  0  0
    8.1664   55.2961   22.6341 H   0  0  0  0  0  0
   -0.5330   50.8013   24.1886 H   0  0  0  0  0  0
  1  2  1  0  0  0
  1 30  1  0  0  0
  1 31  1  0  0  0
  1 32  1  0  0  0
  2  7  1  0  0  0
  2  3  1  0  0  0
  3  4  1  0  0  0
  3 33  1  0  0  0
  3 34  1  0  0  0
  4  5  1  0  0  0
  4 35  1  0  0  0
  4 36  1  0  0  0
  5  6  1  0  0  0
  5  8  1  0  0  0
  5 54  1  0  0  0
  6  7  1  0  0  0
  6 37  1  0  0  0
  6 38  1  0  0  0
  7 39  1  0  0  0
  7 40  1  0  0  0
  8  9  1  0  0  0
  8 41  1  0  0  0
  8 42  1  0  0  0
  9 10  1  0  0  0
  9 43  1  0  0  0
  9 44  1  0  0  0
 10 11  1  0  0  0
 10 45  1  0  0  0
 10 46  1  0  0  0
 11 19  1  0  0  0
 11 12  1  0  0  0
 12 17  2  0  0  0
 12 13  1  0  0  0
 13 14  2  0  0  0
 13 47  1  0  0  0
 14 15  1  0  0  0
 14 48  1  0  0  0
 15 16  2  0  0  0
 15 29  1  0  0  0
 16 17  1  0  0  0
 16 49  1  0  0  0
 17 18  1  0  0  0
 18 23  2  0  0  0
 18 19  1  0  0  0
 19 20  2  0  0  0
 20 21  1  0  0  0
 20 50  1  0  0  0
 21 22  2  0  0  0
 21 51  1  0  0  0
 22 27  1  0  0  0
 22 23  1  0  0  0
 23 24  1  0  0  0
 24 25  2  0  0  0
 24 26  1  0  0  0
 26 27  1  0  0  0
 26 52  1  0  0  0
 27 28  2  0  0  0
 29 53  1  0  0  0
M  CHG  1   5   1
M  END
> <i_i_glide_confnum>
23

> <i_i_glide_lignum>
60

> <i_i_glide_posenum>
48

> <i_i_glide_rotatable_bonds>
5

> <i_m_Source_File_Index>
33

> <b_m_subgroup_collapsed>
0

> <r_i_docking_score>
-10.0674

> <r_i_glide_ecoul>
-13.4857

> <r_i_glide_eff_state_penalty>
0

> <r_i_glide_einternal>
4.01592

> <r_i_glide_emodel>
-90.5253

> <r_i_glide_energy>
-55.4332

> <r_i_glide_erotb>
0.504749

> <r_i_glide_esite>
0

> <r_i_glide_evdw>
-41.9474

> <r_i_glide_gscore>
-10.0674

> <r_i_glide_hbond>
-1.13428

> <r_i_glide_ligand_efficiency>
-0.347151

> <r_i_glide_ligand_efficiency_ln>
-2.30517

> <r_i_glide_ligand_efficiency_sa>
-1.06656

> <r_i_glide_lipo>
-2.76237

> <r_i_glide_metal>
0

> <r_i_glide_rewards>
-2.55524

> <s_i_glide_gridfile>
wee1_glide-grid

> <s_m_Source_File>
wee1_actives_glide_SP.sdf

> <s_m_Source_Path>
/Users/zhangxujun/Desktop

> <s_m_entry_id>
171

> <s_m_entry_name>
wee1_actives_glide_SP.33

> <s_m_subgroup_title>
wee1_actives_glide_SP

> <s_m_subgroupid>
wee1_actives_glide_SP


$$$$
