CHEMBL474714_32
                    3D
 Schrodinger Suite 2024-2.
 58 63  0  0  1  0            999 V2000
    1.5215   53.4221   22.8187 C   0  0  0  0  0  0
    2.7805   53.7707   23.4631 N   0  0  0  0  0  0
    2.9736   53.8051   24.8335 C   0  0  0  0  0  0
    2.0722   53.5633   25.8826 C   0  0  0  0  0  0
    2.5267   53.6960   27.2018 C   0  0  0  0  0  0
    3.8713   54.0131   27.4345 C   0  0  0  0  0  0
    4.7545   54.2460   26.4099 C   0  0  0  0  0  0
    4.3301   54.1571   25.0704 C   0  0  0  0  0  0
    4.9486   54.3435   23.8108 C   0  0  0  0  0  0
    3.9629   54.0968   22.8157 C   0  0  0  0  0  0
    4.2494   54.2161   21.4499 C   0  0  0  0  0  0
    5.5223   54.6538   21.0898 C   0  0  0  0  0  0
    6.5144   54.8968   22.0490 C   0  0  0  0  0  0
    6.2463   54.7138   23.4043 C   0  0  0  0  0  0
    7.7762   55.3046   21.6817 O   0  0  0  0  0  0
    5.8470   54.9240   19.3720 S   0  0  0  0  0  0
    5.7182   53.2968   18.5765 C   0  0  0  0  0  0
    6.1528   53.2281   17.0991 C   0  0  0  0  0  0
    7.6782   53.2807   16.8416 C   0  0  0  0  0  0
    8.2562   54.5866   17.1358 N   0  0  0  0  0  0
    8.0371   55.7479   16.4303 C   0  0  0  0  0  0
    8.7488   56.7816   17.0194 C   0  0  0  0  0  0
    9.4268   56.2424   18.1134 C   0  0  0  0  0  0
    9.1101   54.8935   18.1704 C   0  0  0  0  0  0
    6.0632   54.5805   27.0200 C   0  0  0  0  0  0
    7.1044   54.8968   26.4659 O   0  0  0  0  0  0
    5.8825   54.4959   28.3466 N   0  0  0  0  0  0
    4.6362   54.1519   28.7097 C   0  0  0  0  0  0
    4.2438   54.0066   29.8651 O   0  0  0  0  0  0
    1.5744   53.4477   28.3178 C   0  0  0  0  0  0
    0.9801   52.1827   28.4127 C   0  0  0  0  0  0
    0.1257   51.8745   29.4654 C   0  0  0  0  0  0
   -0.1191   52.8161   30.4579 C   0  0  0  0  0  0
    0.4289   54.0916   30.3628 C   0  0  0  0  0  0
    1.2553   54.4216   29.2886 C   0  0  0  0  0  0
    1.8443   56.0498   29.2004 Cl  0  0  0  0  0  0
    1.3594   52.3475   22.9070 H   0  0  0  0  0  0
    0.7050   53.9555   23.3058 H   0  0  0  0  0  0
    1.5354   53.6958   21.7645 H   0  0  0  0  0  0
    1.0448   53.2956   25.6858 H   0  0  0  0  0  0
    3.5015   54.0404   20.6909 H   0  0  0  0  0  0
    7.0284   54.9042   24.1177 H   0  0  0  0  0  0
    8.4090   55.3149   22.4118 H   0  0  0  0  0  0
    4.6842   52.9614   18.6617 H   0  0  0  0  0  0
    6.3040   52.5844   19.1574 H   0  0  0  0  0  0
    5.6482   54.0129   16.5333 H   0  0  0  0  0  0
    5.7761   52.2923   16.6840 H   0  0  0  0  0  0
    7.8971   53.0496   15.7986 H   0  0  0  0  0  0
    8.1955   52.5287   17.4386 H   0  0  0  0  0  0
    7.3836   55.7414   15.5711 H   0  0  0  0  0  0
    8.7698   57.8120   16.6960 H   0  0  0  0  0  0
   10.0721   56.7743   18.7980 H   0  0  0  0  0  0
    9.4147   54.1287   18.8709 H   0  0  0  0  0  0
    6.6118   54.7191   29.0097 H   0  0  0  0  0  0
    1.1904   51.4229   27.6730 H   0  0  0  0  0  0
   -0.3337   50.8976   29.5240 H   0  0  0  0  0  0
   -0.7669   52.5594   31.2817 H   0  0  0  0  0  0
    0.2037   54.8281   31.1206 H   0  0  0  0  0  0
  1  2  1  0  0  0
  1 37  1  0  0  0
  1 38  1  0  0  0
  1 39  1  0  0  0
  2 10  1  0  0  0
  2  3  1  0  0  0
  3  8  2  0  0  0
  3  4  1  0  0  0
  4  5  2  0  0  0
  4 40  1  0  0  0
  5  6  1  0  0  0
  5 30  1  0  0  0
  6 28  1  0  0  0
  6  7  2  0  0  0
  7  8  1  0  0  0
  7 25  1  0  0  0
  8  9  1  0  0  0
  9 14  2  0  0  0
  9 10  1  0  0  0
 10 11  2  0  0  0
 11 12  1  0  0  0
 11 41  1  0  0  0
 12 13  2  0  0  0
 12 16  1  0  0  0
 13 14  1  0  0  0
 13 15  1  0  0  0
 14 42  1  0  0  0
 15 43  1  0  0  0
 16 17  1  0  0  0
 17 18  1  0  0  0
 17 44  1  0  0  0
 17 45  1  0  0  0
 18 19  1  0  0  0
 18 46  1  0  0  0
 18 47  1  0  0  0
 19 20  1  0  0  0
 19 48  1  0  0  0
 19 49  1  0  0  0
 20 24  1  0  0  0
 20 21  1  0  0  0
 21 22  2  0  0  0
 21 50  1  0  0  0
 22 23  1  0  0  0
 22 51  1  0  0  0
 23 24  2  0  0  0
 23 52  1  0  0  0
 24 53  1  0  0  0
 25 26  2  0  0  0
 25 27  1  0  0  0
 27 28  1  0  0  0
 27 54  1  0  0  0
 28 29  2  0  0  0
 30 35  2  0  0  0
 30 31  1  0  0  0
 31 32  2  0  0  0
 31 55  1  0  0  0
 32 33  1  0  0  0
 32 56  1  0  0  0
 33 34  2  0  0  0
 33 57  1  0  0  0
 34 35  1  0  0  0
 34 58  1  0  0  0
 35 36  1  0  0  0
M  END
> <i_i_glide_confnum>
299

> <i_i_glide_lignum>
33

> <i_i_glide_posenum>
309

> <i_i_glide_rotatable_bonds>
7

> <i_m_Source_File_Index>
98

> <b_m_subgroup_collapsed>
0

> <r_i_docking_score>
-11.5872

> <r_i_glide_ecoul>
-13.8904

> <r_i_glide_eff_state_penalty>
0

> <r_i_glide_einternal>
2.87923

> <r_i_glide_emodel>
-121.064

> <r_i_glide_energy>
-71.3979

> <r_i_glide_erotb>
0.269765

> <r_i_glide_esite>
0

> <r_i_glide_evdw>
-57.5074

> <r_i_glide_gscore>
-11.5872

> <r_i_glide_hbond>
-0.884452

> <r_i_glide_ligand_efficiency>
-0.321868

> <r_i_glide_ligand_efficiency_ln>
-2.52802

> <r_i_glide_ligand_efficiency_sa>
-1.06278

> <r_i_glide_lipo>
-3.98037

> <r_i_glide_metal>
0

> <r_i_glide_rewards>
-2.03324

> <s_i_glide_gridfile>
wee1_glide-grid

> <s_m_Source_File>
wee1_actives_glide_SP.sdf

> <s_m_Source_Path>
/Users/zhangxujun/Desktop

> <s_m_entry_id>
236

> <s_m_entry_name>
wee1_actives_glide_SP.98

> <s_m_subgroup_title>
wee1_actives_glide_SP

> <s_m_subgroupid>
wee1_actives_glide_SP


$$$$
