CHEMBL469822_121
                    3D
 Schrodinger Suite 2024-2.
 65 70  0  0  1  0            999 V2000
   -0.2595   50.5781   14.9317 C   0  0  0  0  0  0
   -0.6710   51.8152   14.4409 C   0  0  0  0  0  0
   -1.2475   52.7469   15.3022 C   0  0  0  0  0  0
   -1.4182   52.4466   16.6558 C   0  0  0  0  0  0
   -1.0195   51.1938   17.1587 C   0  0  0  0  0  0
   -0.4318   50.2732   16.2806 C   0  0  0  0  0  0
   -1.1741   50.8223   18.5920 C   0  0  0  0  0  0
   -0.0296   50.6577   19.3827 C   0  0  0  0  0  0
   -0.1381   50.3319   20.7408 C   0  0  0  0  0  0
   -1.3907   50.1123   21.3215 C   0  0  0  0  0  0
   -1.1382   49.7390   22.7271 C   0  0  0  0  0  0
   -1.9391   49.3153   23.7292 C   0  0  0  0  0  0
   -1.4078   48.8832   25.1000 C   0  0  0  0  0  0
    0.0006   49.5394   25.4164 C   0  0  1  0  0  0
    0.8413   49.7705   24.1494 C   0  0  0  0  0  0
    0.2876   49.8863   22.9272 C   0  0  0  0  0  0
    0.8608   50.1457   21.7028 N   0  0  0  0  0  0
    2.2838   50.0505   21.3541 C   0  0  0  0  0  0
    2.9735   51.3679   20.9410 C   0  0  0  0  0  0
    4.3048   51.1991   20.4818 O   0  0  0  0  0  0
   -0.2141   50.7801   26.0950 O   0  0  0  0  0  0
    0.8818   51.4316   26.7217 C   0  0  0  0  0  0
    0.2446   52.4748   27.6578 C   0  0  0  0  0  0
    1.2154   53.5097   28.2623 C   0  0  0  0  0  0
    2.0913   52.9263   29.2692 N   0  0  0  0  0  0
    1.7363   52.5926   30.5567 C   0  0  0  0  0  0
    2.8464   52.0967   31.2216 C   0  0  0  0  0  0
    3.9042   52.0965   30.3121 C   0  0  0  0  0  0
    3.4184   52.5994   29.1140 C   0  0  0  0  0  0
   -2.3776   49.1950   26.0816 O   0  0  0  0  0  0
   -1.2943   47.4759   25.1176 O   0  0  0  0  0  0
   -2.5345   50.2520   20.5223 C   0  0  0  0  0  0
   -2.4257   50.6039   19.1954 C   0  0  0  0  0  0
   -3.8085   50.6683   18.6403 C   0  0  0  0  0  0
   -4.1740   50.9433   17.5011 O   0  0  0  0  0  0
   -4.6195   50.3597   19.6653 N   0  0  0  0  0  0
   -3.9863   50.0979   20.8223 C   0  0  0  0  0  0
   -4.5392   49.8080   21.8780 O   0  0  0  0  0  0
   -2.0985   53.6647   17.6814 Cl  0  0  0  0  0  0
    0.1946   49.8562   14.2687 H   0  0  0  0  0  0
   -0.5380   52.0541   13.3959 H   0  0  0  0  0  0
   -1.5562   53.7078   14.9176 H   0  0  0  0  0  0
   -0.1088   49.3078   16.6445 H   0  0  0  0  0  0
    0.9389   50.7928   18.9254 H   0  0  0  0  0  0
   -2.9880   49.1604   23.5468 H   0  0  0  0  0  0
    0.5471   48.8943   26.1087 H   0  0  0  0  0  0
    1.9055   49.8952   24.2495 H   0  0  0  0  0  0
    2.8648   49.5661   22.1394 H   0  0  0  0  0  0
    2.4155   49.3278   20.5477 H   0  0  0  0  0  0
    2.3690   51.8910   20.2008 H   0  0  0  0  0  0
    2.8561   52.1089   21.7330 H   0  0  0  0  0  0
    4.3373   50.9041   19.5538 H   0  0  0  0  0  0
    1.5031   50.7340   27.2863 H   0  0  0  0  0  0
    1.5028   51.9130   25.9658 H   0  0  0  0  0  0
   -0.5228   53.0080   27.0973 H   0  0  0  0  0  0
   -0.2961   51.9604   28.4545 H   0  0  0  0  0  0
    1.8312   53.9730   27.4896 H   0  0  0  0  0  0
    0.6571   54.3192   28.7339 H   0  0  0  0  0  0
    0.7221   52.7474   30.8999 H   0  0  0  0  0  0
    2.8796   51.7685   32.2528 H   0  0  0  0  0  0
    4.9119   51.7563   30.5033 H   0  0  0  0  0  0
    3.9081   52.7569   28.1631 H   0  0  0  0  0  0
   -2.0586   48.8970   26.9574 H   0  0  0  0  0  0
   -0.9164   47.2314   25.9703 H   0  0  0  0  0  0
   -5.6218   50.3280   19.5733 H   0  0  0  0  0  0
  1  6  2  0  0  0
  1  2  1  0  0  0
  1 40  1  0  0  0
  2  3  2  0  0  0
  2 41  1  0  0  0
  3  4  1  0  0  0
  3 42  1  0  0  0
  4  5  2  0  0  0
  4 39  1  0  0  0
  5  6  1  0  0  0
  5  7  1  0  0  0
  6 43  1  0  0  0
  7 33  2  0  0  0
  7  8  1  0  0  0
  8  9  2  0  0  0
  8 44  1  0  0  0
  9 17  1  0  0  0
  9 10  1  0  0  0
 10 11  1  0  0  0
 10 32  2  0  0  0
 11 16  1  0  0  0
 11 12  2  0  0  0
 12 13  1  0  0  0
 12 45  1  0  0  0
 13 14  1  0  0  0
 13 30  1  0  0  0
 13 31  1  0  0  0
 14 15  1  0  0  0
 14 21  1  0  0  0
 14 46  1  0  0  0
 15 16  2  0  0  0
 15 47  1  0  0  0
 16 17  1  0  0  0
 17 18  1  0  0  0
 18 19  1  0  0  0
 18 48  1  0  0  0
 18 49  1  0  0  0
 19 20  1  0  0  0
 19 50  1  0  0  0
 19 51  1  0  0  0
 20 52  1  0  0  0
 21 22  1  0  0  0
 22 23  1  0  0  0
 22 53  1  0  0  0
 22 54  1  0  0  0
 23 24  1  0  0  0
 23 55  1  0  0  0
 23 56  1  0  0  0
 24 25  1  0  0  0
 24 57  1  0  0  0
 24 58  1  0  0  0
 25 29  1  0  0  0
 25 26  1  0  0  0
 26 27  2  0  0  0
 26 59  1  0  0  0
 27 28  1  0  0  0
 27 60  1  0  0  0
 28 29  2  0  0  0
 28 61  1  0  0  0
 29 62  1  0  0  0
 30 63  1  0  0  0
 31 64  1  0  0  0
 32 37  1  0  0  0
 32 33  1  0  0  0
 33 34  1  0  0  0
 34 35  2  0  0  0
 34 36  1  0  0  0
 36 37  1  0  0  0
 36 65  1  0  0  0
 37 38  2  0  0  0
M  END
> <i_i_glide_confnum>
211

> <i_i_glide_lignum>
122

> <i_i_glide_posenum>
306

> <i_i_glide_rotatable_bonds>
11

> <i_m_Source_File_Index>
38

> <b_m_subgroup_collapsed>
0

> <r_i_docking_score>
-5.03707

> <r_i_glide_ecoul>
-16.644

> <r_i_glide_eff_state_penalty>
0

> <r_i_glide_einternal>
7.71994

> <r_i_glide_emodel>
-61.8188

> <r_i_glide_energy>
-48.629

> <r_i_glide_erotb>
0.48298

> <r_i_glide_esite>
-0.0649331

> <r_i_glide_evdw>
-31.985

> <r_i_glide_gscore>
-5.03707

> <r_i_glide_hbond>
-0.193003

> <r_i_glide_ligand_efficiency>
-0.129156

> <r_i_glide_ligand_efficiency_ln>
-1.08009

> <r_i_glide_ligand_efficiency_sa>
-0.437994

> <r_i_glide_lipo>
-0.889265

> <r_i_glide_metal>
0

> <r_i_glide_rewards>
-0.276993

> <s_i_glide_gridfile>
wee1_glide-grid

> <s_m_Source_File>
wee1_actives_glide_SP.sdf

> <s_m_Source_Path>
/Users/zhangxujun/Desktop

> <s_m_entry_id>
176

> <s_m_entry_name>
wee1_actives_glide_SP.38

> <s_m_subgroup_title>
wee1_actives_glide_SP

> <s_m_subgroupid>
wee1_actives_glide_SP


$$$$
