CHEMBL402093_39
                    3D
 Schrodinger Suite 2024-2.
 64 69  0  0  1  0            999 V2000
    1.5754   53.3540   22.7167 C   0  0  0  0  0  0
    2.8155   53.7487   23.3760 N   0  0  0  0  0  0
    2.9901   53.7882   24.7502 C   0  0  0  0  0  0
    2.0791   53.5357   25.7914 C   0  0  0  0  0  0
    2.5176   53.6798   27.1145 C   0  0  0  0  0  0
    3.8588   54.0057   27.3599 C   0  0  0  0  0  0
    4.7523   54.2413   26.3457 C   0  0  0  0  0  0
    4.3415   54.1515   25.0014 C   0  0  0  0  0  0
    4.9716   54.3447   23.7475 C   0  0  0  0  0  0
    4.0007   54.0964   22.7415 C   0  0  0  0  0  0
    4.3059   54.2167   21.3783 C   0  0  0  0  0  0
    5.5925   54.6411   21.0212 C   0  0  0  0  0  0
    6.5598   54.8975   22.0037 C   0  0  0  0  0  0
    6.2694   54.7215   23.3558 C   0  0  0  0  0  0
    7.8190   55.3380   21.6817 O   0  0  0  0  0  0
    5.9228   54.8371   19.2524 S   0  0  0  0  0  0
    4.9424   54.0104   18.5445 O   0  0  0  0  0  0
    7.3564   54.6698   18.9973 O   0  0  0  0  0  0
    5.5035   56.5026   18.8841 N   0  0  0  0  0  0
    6.5119   57.5853   18.8547 C   0  0  0  0  0  0
    7.0052   57.8654   17.4203 C   0  0  0  0  0  0
    6.0288   58.7957   16.6512 N   0  3  0  0  0  0
    4.6398   58.1841   16.3750 C   0  0  0  0  0  0
    4.0968   58.9459   15.1665 C   0  0  0  0  0  0
    5.2935   59.6068   14.4774 C   0  0  0  0  0  0
    6.5442   59.1812   15.2519 C   0  0  0  0  0  0
    6.0560   54.5786   26.9697 C   0  0  0  0  0  0
    7.1044   54.8970   26.4285 O   0  0  0  0  0  0
    5.8583   54.4952   28.2941 N   0  0  0  0  0  0
    4.6053   54.1606   28.6447 C   0  0  0  0  0  0
    4.1965   54.0313   29.7970 O   0  0  0  0  0  0
    1.5564   53.4469   28.2295 C   0  0  0  0  0  0
    1.0007   52.1726   28.3893 C   0  0  0  0  0  0
    0.1677   51.8895   29.4689 C   0  0  0  0  0  0
   -0.0963   52.8668   30.4229 C   0  0  0  0  0  0
    0.4066   54.1528   30.2534 C   0  0  0  0  0  0
    1.2070   54.4560   29.1503 C   0  0  0  0  0  0
    1.7339   56.0958   28.9523 Cl  0  0  0  0  0  0
    0.7240   53.7852   23.2419 H   0  0  0  0  0  0
    1.5613   53.6966   21.6842 H   0  0  0  0  0  0
    1.4971   52.2668   22.7297 H   0  0  0  0  0  0
    1.0547   53.2600   25.5872 H   0  0  0  0  0  0
    3.5593   54.0247   20.6206 H   0  0  0  0  0  0
    7.0385   54.9185   24.0809 H   0  0  0  0  0  0
    8.4443   55.3006   22.4177 H   0  0  0  0  0  0
    4.5892   56.6691   18.4574 H   0  0  0  0  0  0
    7.3454   57.2831   19.4913 H   0  0  0  0  0  0
    6.0703   58.4853   19.2818 H   0  0  0  0  0  0
    7.1131   56.9578   16.8221 H   0  0  0  0  0  0
    7.9497   58.4130   17.4263 H   0  0  0  0  0  0
    4.0348   58.2804   17.2789 H   0  0  0  0  0  0
    4.8006   57.1275   16.1491 H   0  0  0  0  0  0
    3.3769   59.6964   15.4965 H   0  0  0  0  0  0
    3.5668   58.2699   14.4925 H   0  0  0  0  0  0
    5.3636   59.3002   13.4317 H   0  0  0  0  0  0
    5.1889   60.6948   14.4827 H   0  0  0  0  0  0
    7.0025   58.2850   14.8253 H   0  0  0  0  0  0
    7.3047   59.9569   15.3666 H   0  0  0  0  0  0
    6.5805   54.7205   28.9642 H   0  0  0  0  0  0
    1.2300   51.3845   27.6849 H   0  0  0  0  0  0
   -0.2558   50.9025   29.5788 H   0  0  0  0  0  0
   -0.7115   52.6292   31.2810 H   0  0  0  0  0  0
    0.1705   54.9180   30.9776 H   0  0  0  0  0  0
    5.9063   59.6632   17.1738 H   0  0  0  0  0  0
  1  2  1  0  0  0
  1 39  1  0  0  0
  1 40  1  0  0  0
  1 41  1  0  0  0
  2 10  1  0  0  0
  2  3  1  0  0  0
  3  8  2  0  0  0
  3  4  1  0  0  0
  4  5  2  0  0  0
  4 42  1  0  0  0
  5  6  1  0  0  0
  5 32  1  0  0  0
  6 30  1  0  0  0
  6  7  2  0  0  0
  7  8  1  0  0  0
  7 27  1  0  0  0
  8  9  1  0  0  0
  9 14  2  0  0  0
  9 10  1  0  0  0
 10 11  2  0  0  0
 11 12  1  0  0  0
 11 43  1  0  0  0
 12 13  2  0  0  0
 12 16  1  0  0  0
 13 14  1  0  0  0
 13 15  1  0  0  0
 14 44  1  0  0  0
 15 45  1  0  0  0
 16 17  2  0  0  0
 16 18  2  0  0  0
 16 19  1  0  0  0
 19 20  1  0  0  0
 19 46  1  0  0  0
 20 21  1  0  0  0
 20 47  1  0  0  0
 20 48  1  0  0  0
 21 22  1  0  0  0
 21 49  1  0  0  0
 21 50  1  0  0  0
 22 26  1  0  0  0
 22 23  1  0  0  0
 22 64  1  0  0  0
 23 24  1  0  0  0
 23 51  1  0  0  0
 23 52  1  0  0  0
 24 25  1  0  0  0
 24 53  1  0  0  0
 24 54  1  0  0  0
 25 26  1  0  0  0
 25 55  1  0  0  0
 25 56  1  0  0  0
 26 57  1  0  0  0
 26 58  1  0  0  0
 27 28  2  0  0  0
 27 29  1  0  0  0
 29 30  1  0  0  0
 29 59  1  0  0  0
 30 31  2  0  0  0
 32 37  2  0  0  0
 32 33  1  0  0  0
 33 34  2  0  0  0
 33 60  1  0  0  0
 34 35  1  0  0  0
 34 61  1  0  0  0
 35 36  2  0  0  0
 35 62  1  0  0  0
 36 37  1  0  0  0
 36 63  1  0  0  0
 37 38  1  0  0  0
M  CHG  1  22   1
M  END
> <i_i_glide_confnum>
280

> <i_i_glide_lignum>
40

> <i_i_glide_posenum>
341

> <i_i_glide_rotatable_bonds>
7

> <i_m_Source_File_Index>
127

> <b_m_subgroup_collapsed>
0

> <r_i_docking_score>
-11.4178

> <r_i_glide_ecoul>
-14.0446

> <r_i_glide_eff_state_penalty>
0

> <r_i_glide_einternal>
5.70009

> <r_i_glide_emodel>
-123.705

> <r_i_glide_energy>
-69.9759

> <r_i_glide_erotb>
0.185492

> <r_i_glide_esite>
-0.108816

> <r_i_glide_evdw>
-55.9312

> <r_i_glide_gscore>
-11.4178

> <r_i_glide_hbond>
-0.785051

> <r_i_glide_ligand_efficiency>
-0.300468

> <r_i_glide_ligand_efficiency_ln>
-2.46201

> <r_i_glide_ligand_efficiency_sa>
-1.01017

> <r_i_glide_lipo>
-3.73728

> <r_i_glide_metal>
0

> <r_i_glide_rewards>
-2.06888

> <s_i_glide_gridfile>
wee1_glide-grid

> <s_m_Source_File>
wee1_actives_glide_SP.sdf

> <s_m_Source_Path>
/Users/zhangxujun/Desktop

> <s_m_entry_id>
265

> <s_m_entry_name>
wee1_actives_glide_SP.127

> <s_m_subgroup_title>
wee1_actives_glide_SP

> <s_m_subgroupid>
wee1_actives_glide_SP


$$$$
