CHEMBL271084_10
                    3D
 Schrodinger Suite 2024-2.
 65 70  0  0  1  0            999 V2000
    1.5222   53.4096   22.8176 C   0  0  0  0  0  0
    2.7853   53.7494   23.4629 N   0  0  0  0  0  0
    3.9638   54.0968   22.8216 C   0  0  0  0  0  0
    4.2302   54.2742   21.4612 C   0  0  0  0  0  0
    5.5047   54.7026   21.0754 C   0  0  0  0  0  0
    6.5093   54.8957   22.0403 C   0  0  0  0  0  0
    6.2558   54.6725   23.3949 C   0  0  0  0  0  0
    4.9585   54.3104   23.8107 C   0  0  0  0  0  0
    4.3385   54.1218   25.0700 C   0  0  0  0  0  0
    2.9819   53.7684   24.8313 C   0  0  0  0  0  0
    2.0779   53.5205   25.8755 C   0  0  0  0  0  0
    2.5246   53.6703   27.1931 C   0  0  0  0  0  0
    3.8652   53.9979   27.4320 C   0  0  0  0  0  0
    4.7566   54.2201   26.4112 C   0  0  0  0  0  0
    6.0598   54.5702   27.0261 C   0  0  0  0  0  0
    7.1044   54.8890   26.4759 O   0  0  0  0  0  0
    5.8681   54.4962   28.3530 N   0  0  0  0  0  0
    4.6138   54.1776   28.7121 C   0  0  0  0  0  0
    4.2017   54.0833   29.8664 O   0  0  0  0  0  0
    1.5634   53.4409   28.3026 C   0  0  0  0  0  0
    1.0104   52.1644   28.4559 C   0  0  0  0  0  0
    0.1495   51.8828   29.5118 C   0  0  0  0  0  0
   -0.1402   52.8655   30.4513 C   0  0  0  0  0  0
    0.3617   54.1528   30.2911 C   0  0  0  0  0  0
    1.1935   54.4536   29.2106 C   0  0  0  0  0  0
    1.7232   56.0922   29.0214 Cl  0  0  0  0  0  0
    7.7734   55.2997   21.6817 O   0  0  0  0  0  0
    5.7358   55.0320   19.5908 C   0  0  0  0  0  0
    5.6073   53.8648   18.5765 C   0  0  0  0  0  0
    4.1916   53.2614   18.4160 C   0  0  0  0  0  0
    3.9015   52.6866   17.0164 C   0  0  0  0  0  0
    2.7054   51.7025   17.0543 N   0  3  0  0  0  0
    2.2810   51.2102   15.6619 C   0  0  0  0  0  0
    0.9078   50.5928   15.9126 C   0  0  0  0  0  0
    0.2867   51.3864   17.0664 C   0  0  0  0  0  0
    1.4031   52.2440   17.6760 C   0  0  0  0  0  0
    0.7077   53.9457   23.3039 H   0  0  0  0  0  0
    1.5337   53.6817   21.7636 H   0  0  0  0  0  0
    1.3555   52.3363   22.9077 H   0  0  0  0  0  0
    3.4459   54.1529   20.7364 H   0  0  0  0  0  0
    7.0473   54.8296   24.1071 H   0  0  0  0  0  0
    1.0500   53.2545   25.6759 H   0  0  0  0  0  0
    6.5930   54.7295   29.0201 H   0  0  0  0  0  0
    1.2551   51.3762   27.7574 H   0  0  0  0  0  0
   -0.2819   50.8970   29.6144 H   0  0  0  0  0  0
   -0.7894   52.6298   31.2813 H   0  0  0  0  0  0
    0.0984   54.9216   31.0030 H   0  0  0  0  0  0
    8.4052   55.2973   22.4132 H   0  0  0  0  0  0
    6.7226   55.4768   19.4613 H   0  0  0  0  0  0
    5.0415   55.8254   19.3136 H   0  0  0  0  0  0
    6.3152   53.0710   18.8229 H   0  0  0  0  0  0
    5.9336   54.2483   17.6081 H   0  0  0  0  0  0
    3.4474   54.0381   18.5958 H   0  0  0  0  0  0
    4.0425   52.4929   19.1762 H   0  0  0  0  0  0
    4.7358   52.0957   16.6401 H   0  0  0  0  0  0
    3.6618   53.4718   16.2980 H   0  0  0  0  0  0
    3.0422   50.5248   15.2816 H   0  0  0  0  0  0
    2.2418   52.0879   15.0125 H   0  0  0  0  0  0
    1.0251   49.5427   16.1853 H   0  0  0  0  0  0
    0.2892   50.6242   15.0149 H   0  0  0  0  0  0
   -0.5242   52.0246   16.7096 H   0  0  0  0  0  0
   -0.1399   50.7143   17.8133 H   0  0  0  0  0  0
    1.3283   53.2902   17.3699 H   0  0  0  0  0  0
    1.4955   52.1925   18.7629 H   0  0  0  0  0  0
    3.0282   50.8857   17.5688 H   0  0  0  0  0  0
  1  2  1  0  0  0
  1 37  1  0  0  0
  1 38  1  0  0  0
  1 39  1  0  0  0
  2 10  1  0  0  0
  2  3  1  0  0  0
  3  8  2  0  0  0
  3  4  1  0  0  0
  4  5  2  0  0  0
  4 40  1  0  0  0
  5  6  1  0  0  0
  5 28  1  0  0  0
  6  7  2  0  0  0
  6 27  1  0  0  0
  7  8  1  0  0  0
  7 41  1  0  0  0
  8  9  1  0  0  0
  9 14  2  0  0  0
  9 10  1  0  0  0
 10 11  2  0  0  0
 11 12  1  0  0  0
 11 42  1  0  0  0
 12 13  2  0  0  0
 12 20  1  0  0  0
 13 18  1  0  0  0
 13 14  1  0  0  0
 14 15  1  0  0  0
 15 16  2  0  0  0
 15 17  1  0  0  0
 17 18  1  0  0  0
 17 43  1  0  0  0
 18 19  2  0  0  0
 20 25  2  0  0  0
 20 21  1  0  0  0
 21 22  2  0  0  0
 21 44  1  0  0  0
 22 23  1  0  0  0
 22 45  1  0  0  0
 23 24  2  0  0  0
 23 46  1  0  0  0
 24 25  1  0  0  0
 24 47  1  0  0  0
 25 26  1  0  0  0
 27 48  1  0  0  0
 28 29  1  0  0  0
 28 49  1  0  0  0
 28 50  1  0  0  0
 29 30  1  0  0  0
 29 51  1  0  0  0
 29 52  1  0  0  0
 30 31  1  0  0  0
 30 53  1  0  0  0
 30 54  1  0  0  0
 31 32  1  0  0  0
 31 55  1  0  0  0
 31 56  1  0  0  0
 32 36  1  0  0  0
 32 33  1  0  0  0
 32 65  1  0  0  0
 33 34  1  0  0  0
 33 57  1  0  0  0
 33 58  1  0  0  0
 34 35  1  0  0  0
 34 59  1  0  0  0
 34 60  1  0  0  0
 35 36  1  0  0  0
 35 61  1  0  0  0
 35 62  1  0  0  0
 36 63  1  0  0  0
 36 64  1  0  0  0
M  CHG  1  32   1
M  END
> <i_i_glide_confnum>
115

> <i_i_glide_lignum>
11

> <i_i_glide_posenum>
301

> <i_i_glide_rotatable_bonds>
7

> <i_m_Source_File_Index>
135

> <b_m_subgroup_collapsed>
0

> <r_i_docking_score>
-11.4726

> <r_i_glide_ecoul>
-15.2931

> <r_i_glide_eff_state_penalty>
0

> <r_i_glide_einternal>
6.0732

> <r_i_glide_emodel>
-115.867

> <r_i_glide_energy>
-66.5083

> <r_i_glide_erotb>
0.282703

> <r_i_glide_esite>
-0.0899234

> <r_i_glide_evdw>
-51.2151

> <r_i_glide_gscore>
-11.4726

> <r_i_glide_hbond>
-0.954544

> <r_i_glide_ligand_efficiency>
-0.318684

> <r_i_glide_ligand_efficiency_ln>
-2.50302

> <r_i_glide_ligand_efficiency_sa>
-1.05227

> <r_i_glide_lipo>
-3.8626

> <r_i_glide_metal>
0

> <r_i_glide_rewards>
-1.99353

> <s_i_glide_gridfile>
wee1_glide-grid

> <s_m_Source_File>
wee1_actives_glide_SP.sdf

> <s_m_Source_Path>
/Users/zhangxujun/Desktop

> <s_m_entry_id>
273

> <s_m_entry_name>
wee1_actives_glide_SP.135

> <s_m_subgroup_title>
wee1_actives_glide_SP

> <s_m_subgroupid>
wee1_actives_glide_SP


$$$$
