CHEMBL378756_133
                    3D
 Schrodinger Suite 2024-2.
 36 40  0  0  1  0            999 V2000
   -0.0533   53.1063   30.5596 C   0  0  0  0  0  0
    0.0662   52.0969   29.6093 C   0  0  0  0  0  0
    0.8897   52.2836   28.5031 C   0  0  0  0  0  0
    1.5834   53.4858   28.3310 C   0  0  0  0  0  0
    1.4126   54.5121   29.2709 C   0  0  0  0  0  0
    0.6104   54.3178   30.3917 C   0  0  0  0  0  0
    2.4796   53.6746   27.1543 C   0  0  0  0  0  0
    1.9550   53.4862   25.8784 C   0  0  0  0  0  0
    2.7687   53.6973   24.7608 C   0  0  0  0  0  0
    4.1369   54.0967   24.8672 C   0  0  0  0  0  0
    4.7312   54.2770   23.5800 C   0  0  0  0  0  0
    6.0304   54.7303   23.2459 C   0  0  0  0  0  0
    6.3772   54.8960   21.9046 C   0  0  0  0  0  0
    5.5044   54.5508   20.8794 C   0  0  0  0  0  0
    4.2254   54.0863   21.1616 C   0  0  0  0  0  0
    3.8448   53.9772   22.5027 C   0  0  0  0  0  0
    2.2782   53.5123   23.0998 S   0  0  0  0  0  0
    7.6025   55.4089   21.5793 O   0  0  0  0  0  0
    4.6681   54.2237   26.1855 C   0  0  0  0  0  0
    3.8360   54.0153   27.2753 C   0  0  0  0  0  0
    4.6554   54.1941   28.5073 C   0  0  0  0  0  0
    4.3062   54.1027   29.6819 O   0  0  0  0  0  0
    5.8891   54.4968   28.0819 N   0  0  0  0  0  0
    6.0262   54.5332   26.7462 C   0  0  0  0  0  0
    7.0851   54.7885   26.1842 O   0  0  0  0  0  0
   -0.6668   52.9379   31.4329 H   0  0  0  0  0  0
   -0.4692   51.1672   29.7381 H   0  0  0  0  0  0
    0.9962   51.4821   27.7855 H   0  0  0  0  0  0
    1.9275   55.4532   29.1472 H   0  0  0  0  0  0
    0.5015   55.1032   31.1266 H   0  0  0  0  0  0
    0.9210   53.1991   25.7537 H   0  0  0  0  0  0
    6.7598   55.0260   23.9735 H   0  0  0  0  0  0
    5.7996   54.6727   19.8466 H   0  0  0  0  0  0
    3.5355   53.8485   20.3623 H   0  0  0  0  0  0
    7.7884   55.3718   20.6375 H   0  0  0  0  0  0
    6.6479   54.7057   28.7161 H   0  0  0  0  0  0
  1  6  2  0  0  0
  1  2  1  0  0  0
  1 26  1  0  0  0
  2  3  2  0  0  0
  2 27  1  0  0  0
  3  4  1  0  0  0
  3 28  1  0  0  0
  4  5  2  0  0  0
  4  7  1  0  0  0
  5  6  1  0  0  0
  5 29  1  0  0  0
  6 30  1  0  0  0
  7 20  2  0  0  0
  7  8  1  0  0  0
  8  9  2  0  0  0
  8 31  1  0  0  0
  9 17  1  0  0  0
  9 10  1  0  0  0
 10 11  1  0  0  0
 10 19  2  0  0  0
 11 16  2  0  0  0
 11 12  1  0  0  0
 12 13  2  0  0  0
 12 32  1  0  0  0
 13 14  1  0  0  0
 13 18  1  0  0  0
 14 15  2  0  0  0
 14 33  1  0  0  0
 15 16  1  0  0  0
 15 34  1  0  0  0
 16 17  1  0  0  0
 18 35  1  0  0  0
 19 24  1  0  0  0
 19 20  1  0  0  0
 20 21  1  0  0  0
 21 22  2  0  0  0
 21 23  1  0  0  0
 23 24  1  0  0  0
 23 36  1  0  0  0
 24 25  2  0  0  0
M  END
> <i_i_glide_confnum>
3

> <i_i_glide_lignum>
134

> <i_i_glide_posenum>
124

> <i_i_glide_rotatable_bonds>
2

> <i_m_Source_File_Index>
35

> <b_m_subgroup_collapsed>
0

> <r_i_docking_score>
-10.012

> <r_i_glide_ecoul>
-7.76659

> <r_i_glide_eff_state_penalty>
0

> <r_i_glide_einternal>
0.149148

> <r_i_glide_emodel>
-87.3046

> <r_i_glide_energy>
-53.2867

> <r_i_glide_erotb>
0.111495

> <r_i_glide_esite>
0

> <r_i_glide_evdw>
-45.5201

> <r_i_glide_gscore>
-10.012

> <r_i_glide_hbond>
-0.541829

> <r_i_glide_ligand_efficiency>
-0.400479

> <r_i_glide_ligand_efficiency_ln>
-2.37314

> <r_i_glide_ligand_efficiency_sa>
-1.17101

> <r_i_glide_lipo>
-3.40106

> <r_i_glide_metal>
0

> <r_i_glide_rewards>
-2.73958

> <s_i_glide_gridfile>
wee1_glide-grid

> <s_m_Source_File>
wee1_actives_glide_SP.sdf

> <s_m_Source_Path>
/Users/zhangxujun/Desktop

> <s_m_entry_id>
173

> <s_m_entry_name>
wee1_actives_glide_SP.35

> <s_m_subgroup_title>
wee1_actives_glide_SP

> <s_m_subgroupid>
wee1_actives_glide_SP


$$$$
