CHEMBL483953_58
                    3D
 Schrodinger Suite 2024-2.
 54 58  0  0  1  0            999 V2000
   -2.2922   46.6762   25.8211 C   0  0  0  0  0  0
   -1.4441   47.9549   25.6816 N   0  3  0  0  0  0
   -2.3395   49.1869   25.4719 C   0  0  0  0  0  0
   -1.4351   50.4302   25.4230 C   0  0  0  0  0  0
   -0.4407   50.3381   24.3397 N   0  0  0  0  0  0
    0.4249   49.1546   24.4840 C   0  0  0  0  0  0
   -0.3939   47.8456   24.5526 C   0  0  0  0  0  0
    0.3535   51.5677   24.3404 C   0  0  0  0  0  0
    1.0914   51.8827   23.0239 C   0  0  0  0  0  0
    1.4955   53.3800   22.8887 C   0  0  0  0  0  0
    2.7557   53.7327   23.5616 N   0  0  0  0  0  0
    3.9430   54.0547   22.9121 C   0  0  0  0  0  0
    4.2365   54.1363   21.5427 C   0  0  0  0  0  0
    5.5045   54.5808   21.1781 C   0  0  0  0  0  0
    6.4779   54.8923   22.1217 C   0  0  0  0  0  0
    6.2187   54.7390   23.4858 C   0  0  0  0  0  0
    4.9276   54.3433   23.9024 C   0  0  0  0  0  0
    4.3147   54.1600   25.1657 C   0  0  0  0  0  0
    2.9420   53.8409   24.9349 C   0  0  0  0  0  0
    2.0326   53.6966   25.9981 C   0  0  0  0  0  0
    2.5157   53.7829   27.2995 C   0  0  0  0  0  0
    3.8536   54.0530   27.5293 C   0  0  0  0  0  0
    4.7440   54.2541   26.5082 C   0  0  0  0  0  0
    6.0510   54.5685   27.1336 C   0  0  0  0  0  0
    7.1044   54.8581   26.5835 O   0  0  0  0  0  0
    5.8457   54.4966   28.4629 N   0  0  0  0  0  0
    4.5792   54.2001   28.8127 C   0  0  0  0  0  0
    4.1286   54.0983   29.9523 O   0  0  0  0  0  0
    7.7137   55.2970   21.6821 O   0  0  0  0  0  0
   -2.8354   46.5191   24.8884 H   0  0  0  0  0  0
   -1.6031   45.8611   26.0445 H   0  0  0  0  0  0
   -2.9669   46.8384   26.6661 H   0  0  0  0  0  0
   -2.9911   49.2330   26.3487 H   0  0  0  0  0  0
   -2.9264   49.0416   24.5624 H   0  0  0  0  0  0
   -2.0664   51.3129   25.2991 H   0  0  0  0  0  0
   -0.9043   50.5119   26.3760 H   0  0  0  0  0  0
    0.9713   49.2537   25.4252 H   0  0  0  0  0  0
    1.1453   49.0921   23.6661 H   0  0  0  0  0  0
    0.2594   47.0241   24.8417 H   0  0  0  0  0  0
   -0.9169   47.6245   23.6208 H   0  0  0  0  0  0
   -0.2917   52.4189   24.5642 H   0  0  0  0  0  0
    1.0777   51.4989   25.1527 H   0  0  0  0  0  0
    2.0025   51.2828   22.9767 H   0  0  0  0  0  0
    0.4949   51.5534   22.1718 H   0  0  0  0  0  0
    1.5749   53.6373   21.8334 H   0  0  0  0  0  0
    0.7134   54.0355   23.2774 H   0  0  0  0  0  0
    3.5057   53.9107   20.7795 H   0  0  0  0  0  0
    5.7394   54.6769   20.1288 H   0  0  0  0  0  0
    6.9955   54.9648   24.1974 H   0  0  0  0  0  0
    0.9822   53.5382   25.8424 H   0  0  0  0  0  0
    1.8309   53.6535   28.1271 H   0  0  0  0  0  0
    6.5684   54.7239   29.1323 H   0  0  0  0  0  0
    8.3834   55.3065   22.3786 H   0  0  0  0  0  0
   -0.9758   48.0956   26.5811 H   0  0  0  0  0  0
  1  2  1  0  0  0
  1 30  1  0  0  0
  1 31  1  0  0  0
  1 32  1  0  0  0
  2  7  1  0  0  0
  2  3  1  0  0  0
  2 54  1  0  0  0
  3  4  1  0  0  0
  3 33  1  0  0  0
  3 34  1  0  0  0
  4  5  1  0  0  0
  4 35  1  0  0  0
  4 36  1  0  0  0
  5  6  1  0  0  0
  5  8  1  0  0  0
  6  7  1  0  0  0
  6 37  1  0  0  0
  6 38  1  0  0  0
  7 39  1  0  0  0
  7 40  1  0  0  0
  8  9  1  0  0  0
  8 41  1  0  0  0
  8 42  1  0  0  0
  9 10  1  0  0  0
  9 43  1  0  0  0
  9 44  1  0  0  0
 10 11  1  0  0  0
 10 45  1  0  0  0
 10 46  1  0  0  0
 11 19  1  0  0  0
 11 12  1  0  0  0
 12 17  2  0  0  0
 12 13  1  0  0  0
 13 14  2  0  0  0
 13 47  1  0  0  0
 14 15  1  0  0  0
 14 48  1  0  0  0
 15 16  2  0  0  0
 15 29  1  0  0  0
 16 17  1  0  0  0
 16 49  1  0  0  0
 17 18  1  0  0  0
 18 23  2  0  0  0
 18 19  1  0  0  0
 19 20  2  0  0  0
 20 21  1  0  0  0
 20 50  1  0  0  0
 21 22  2  0  0  0
 21 51  1  0  0  0
 22 27  1  0  0  0
 22 23  1  0  0  0
 23 24  1  0  0  0
 24 25  2  0  0  0
 24 26  1  0  0  0
 26 27  1  0  0  0
 26 52  1  0  0  0
 27 28  2  0  0  0
 29 53  1  0  0  0
M  CHG  1   2   1
M  END
> <i_i_glide_confnum>
11

> <i_i_glide_lignum>
59

> <i_i_glide_posenum>
20

> <i_i_glide_rotatable_bonds>
5

> <i_m_Source_File_Index>
80

> <b_m_subgroup_collapsed>
0

> <r_i_docking_score>
-10.592

> <r_i_glide_ecoul>
-13.711

> <r_i_glide_eff_state_penalty>
0

> <r_i_glide_einternal>
3.12408

> <r_i_glide_emodel>
-96.0859

> <r_i_glide_energy>
-55.3824

> <r_i_glide_erotb>
0.504749

> <r_i_glide_esite>
-0.1

> <r_i_glide_evdw>
-41.6714

> <r_i_glide_gscore>
-10.592

> <r_i_glide_hbond>
-1.10937

> <r_i_glide_ligand_efficiency>
-0.365242

> <r_i_glide_ligand_efficiency_ln>
-2.4253

> <r_i_glide_ligand_efficiency_sa>
-1.12214

> <r_i_glide_lipo>
-2.86876

> <r_i_glide_metal>
0

> <r_i_glide_rewards>
-2.87841

> <s_i_glide_gridfile>
wee1_glide-grid

> <s_m_Source_File>
wee1_actives_glide_SP.sdf

> <s_m_Source_Path>
/Users/zhangxujun/Desktop

> <s_m_entry_id>
218

> <s_m_entry_name>
wee1_actives_glide_SP.80

> <s_m_subgroup_title>
wee1_actives_glide_SP

> <s_m_subgroupid>
wee1_actives_glide_SP


$$$$
