CHEMBL519238_127
                    3D
 Schrodinger Suite 2024-2.
 53 58  0  0  1  0            999 V2000
   -0.2291   52.6096   30.1162 C   0  0  0  0  0  0
   -0.0143   51.6967   29.0887 C   0  0  0  0  0  0
    0.8784   52.0055   28.0694 C   0  0  0  0  0  0
    1.5439   53.2375   28.0605 C   0  0  0  0  0  0
    1.2693   54.1703   29.0685 C   0  0  0  0  0  0
    0.3985   53.8530   30.1055 C   0  0  0  0  0  0
    2.5301   53.5379   26.9871 C   0  0  0  0  0  0
    2.1200   53.4177   25.6514 C   0  0  0  0  0  0
    3.0404   53.7087   24.6285 C   0  0  0  0  0  0
    4.3769   54.0969   24.9205 C   0  0  0  0  0  0
    5.0320   54.3143   23.6906 C   0  0  0  0  0  0
    6.3382   54.7138   23.3509 C   0  0  0  0  0  0
    6.6509   54.9493   22.0178 C   0  0  0  0  0  0
    5.7058   54.7556   21.0180 C   0  0  0  0  0  0
    4.4162   54.3123   21.3040 C   0  0  0  0  0  0
    4.0841   54.0976   22.6512 C   0  0  0  0  0  0
    2.8885   53.7076   23.2448 N   0  0  0  0  0  0
    1.6261   53.4452   22.5414 C   0  0  0  0  0  0
    1.6930   52.3304   21.4722 C   0  0  0  0  0  0
    2.3455   51.0082   21.9257 C   0  0  0  0  0  0
    2.1333   49.9759   20.9234 N   0  0  0  0  0  0
    2.7043   49.8768   19.6820 C   0  0  0  0  0  0
    2.1604   48.7365   19.1115 C   0  0  0  0  0  0
    1.2906   48.1495   19.9149 N   0  0  0  0  0  0
    1.2769   48.9040   20.9892 C   0  0  0  0  0  0
    7.9044   55.3836   21.6818 O   0  0  0  0  0  0
    4.7602   54.1867   26.2746 C   0  0  0  0  0  0
    3.8515   53.9161   27.2683 C   0  0  0  0  0  0
    4.5678   54.0967   28.5705 C   0  0  0  0  0  0
    4.1466   53.9562   29.7165 O   0  0  0  0  0  0
    5.8156   54.4744   28.2494 N   0  0  0  0  0  0
    6.0430   54.5583   26.9305 C   0  0  0  0  0  0
    7.1044   54.8968   26.4221 O   0  0  0  0  0  0
   -0.8954   52.3513   30.9255 H   0  0  0  0  0  0
   -0.5272   50.7487   29.0922 H   0  0  0  0  0  0
    1.0611   51.2741   27.2934 H   0  0  0  0  0  0
    1.7615   55.1334   29.0663 H   0  0  0  0  0  0
    0.2169   54.5613   30.9011 H   0  0  0  0  0  0
    1.1045   53.1231   25.4333 H   0  0  0  0  0  0
    7.0960   54.8824   24.0957 H   0  0  0  0  0  0
    5.9787   54.9488   19.9899 H   0  0  0  0  0  0
    3.7026   54.1889   20.5052 H   0  0  0  0  0  0
    1.3195   54.3841   22.0820 H   0  0  0  0  0  0
    0.8594   53.1878   23.2710 H   0  0  0  0  0  0
    2.1958   52.6928   20.5768 H   0  0  0  0  0  0
    0.6684   52.1312   21.1495 H   0  0  0  0  0  0
    1.9227   50.6682   22.8727 H   0  0  0  0  0  0
    3.4183   51.1227   22.0809 H   0  0  0  0  0  0
    3.4358   50.5878   19.3195 H   0  0  0  0  0  0
    2.3990   48.3471   18.1302 H   0  0  0  0  0  0
    0.6723   48.7556   21.8708 H   0  0  0  0  0  0
    8.5323   55.3571   22.4180 H   0  0  0  0  0  0
    6.5169   54.7111   28.9373 H   0  0  0  0  0  0
  1  6  2  0  0  0
  1  2  1  0  0  0
  1 34  1  0  0  0
  2  3  2  0  0  0
  2 35  1  0  0  0
  3  4  1  0  0  0
  3 36  1  0  0  0
  4  5  2  0  0  0
  4  7  1  0  0  0
  5  6  1  0  0  0
  5 37  1  0  0  0
  6 38  1  0  0  0
  7 28  2  0  0  0
  7  8  1  0  0  0
  8  9  2  0  0  0
  8 39  1  0  0  0
  9 17  1  0  0  0
  9 10  1  0  0  0
 10 11  1  0  0  0
 10 27  2  0  0  0
 11 16  2  0  0  0
 11 12  1  0  0  0
 12 13  2  0  0  0
 12 40  1  0  0  0
 13 14  1  0  0  0
 13 26  1  0  0  0
 14 15  2  0  0  0
 14 41  1  0  0  0
 15 16  1  0  0  0
 15 42  1  0  0  0
 16 17  1  0  0  0
 17 18  1  0  0  0
 18 19  1  0  0  0
 18 43  1  0  0  0
 18 44  1  0  0  0
 19 20  1  0  0  0
 19 45  1  0  0  0
 19 46  1  0  0  0
 20 21  1  0  0  0
 20 47  1  0  0  0
 20 48  1  0  0  0
 21 25  1  0  0  0
 21 22  1  0  0  0
 22 23  2  0  0  0
 22 49  1  0  0  0
 23 24  1  0  0  0
 23 50  1  0  0  0
 24 25  2  0  0  0
 25 51  1  0  0  0
 26 52  1  0  0  0
 27 32  1  0  0  0
 27 28  1  0  0  0
 28 29  1  0  0  0
 29 30  2  0  0  0
 29 31  1  0  0  0
 31 32  1  0  0  0
 31 53  1  0  0  0
 32 33  2  0  0  0
M  END
> <i_i_glide_confnum>
62

> <i_i_glide_lignum>
128

> <i_i_glide_posenum>
220

> <i_i_glide_rotatable_bonds>
6

> <i_m_Source_File_Index>
37

> <b_m_subgroup_collapsed>
0

> <r_i_docking_score>
-11.1764

> <r_i_glide_ecoul>
-13.9577

> <r_i_glide_eff_state_penalty>
0

> <r_i_glide_einternal>
2.71811

> <r_i_glide_emodel>
-107.987

> <r_i_glide_energy>
-64.9009

> <r_i_glide_erotb>
0.29298

> <r_i_glide_esite>
0

> <r_i_glide_evdw>
-50.9432

> <r_i_glide_gscore>
-11.1764

> <r_i_glide_hbond>
-0.816048

> <r_i_glide_ligand_efficiency>
-0.338678

> <r_i_glide_ligand_efficiency_ln>
-2.48557

> <r_i_glide_ligand_efficiency_sa>
-1.08632

> <r_i_glide_lipo>
-3.38964

> <r_i_glide_metal>
0

> <r_i_glide_rewards>
-2.62287

> <s_i_glide_gridfile>
wee1_glide-grid

> <s_m_Source_File>
wee1_actives_glide_SP.sdf

> <s_m_Source_Path>
/Users/zhangxujun/Desktop

> <s_m_entry_id>
175

> <s_m_entry_name>
wee1_actives_glide_SP.37

> <s_m_subgroup_title>
wee1_actives_glide_SP

> <s_m_subgroupid>
wee1_actives_glide_SP


$$$$
