CHEMBL486517_45
                    3D
 Schrodinger Suite 2024-2.
 51 56  0  0  1  0            999 V2000
    0.1198   51.8766   29.4639 C   0  0  0  0  0  0
   -0.1334   52.8150   30.4577 C   0  0  0  0  0  0
    0.4086   54.0934   30.3653 C   0  0  0  0  0  0
    1.2384   54.4286   29.2949 C   0  0  0  0  0  0
    1.5653   53.4588   28.3231 C   0  0  0  0  0  0
    0.9767   52.1909   28.4146 C   0  0  0  0  0  0
    2.5230   53.7142   27.2128 C   0  0  0  0  0  0
    2.0757   53.5932   25.8905 C   0  0  0  0  0  0
    2.9860   53.8298   24.8459 C   0  0  0  0  0  0
    4.3393   54.1809   25.0911 C   0  0  0  0  0  0
    4.9661   54.3683   23.8350 C   0  0  0  0  0  0
    6.2646   54.7502   23.4380 C   0  0  0  0  0  0
    6.5479   54.8967   22.0820 C   0  0  0  0  0  0
    5.5817   54.6156   21.1211 C   0  0  0  0  0  0
    4.2997   54.1896   21.4645 C   0  0  0  0  0  0
    3.9936   54.0966   22.8303 C   0  0  0  0  0  0
    2.8062   53.7735   23.4723 N   0  0  0  0  0  0
    1.5543   53.3875   22.8270 C   0  0  0  0  0  0
    1.3419   51.8664   22.9619 C   0  0  0  0  0  0
   -0.4125   51.4150   22.5479 S   0  0  2  0  0  0
   -1.3269   52.4938   23.1334 O   0  0  0  0  0  0
   -0.4808   49.9997   23.5978 N   0  0  0  0  0  0
   -0.4245   49.9746   24.9682 C   0  0  0  0  0  0
   -0.5153   48.6279   25.2817 C   0  0  0  0  0  0
   -0.6311   47.9064   24.1812 N   0  0  0  0  0  0
   -0.6168   48.7693   23.0980 N   0  0  0  0  0  0
    7.7976   55.2985   21.6817 O   0  0  0  0  0  0
    4.7543   54.2649   26.4331 C   0  0  0  0  0  0
    3.8667   54.0281   27.4527 C   0  0  0  0  0  0
    4.6266   54.1585   28.7317 C   0  0  0  0  0  0
    4.2281   54.0107   29.8848 O   0  0  0  0  0  0
    5.8766   54.4967   28.3746 N   0  0  0  0  0  0
    6.0616   54.5872   27.0487 C   0  0  0  0  0  0
    7.1044   54.8967   26.4947 O   0  0  0  0  0  0
    1.8258   56.0576   29.2138 Cl  0  0  0  0  0  0
   -0.3341   50.8972   29.5202 H   0  0  0  0  0  0
   -0.7820   52.5537   31.2815 H   0  0  0  0  0  0
    0.1792   54.8279   31.1234 H   0  0  0  0  0  0
    1.1961   51.4328   27.6764 H   0  0  0  0  0  0
    1.0485   53.3284   25.6869 H   0  0  0  0  0  0
    7.0367   54.9649   24.1546 H   0  0  0  0  0  0
    5.8339   54.7220   20.0757 H   0  0  0  0  0  0
    3.5694   53.9845   20.6947 H   0  0  0  0  0  0
    1.5696   53.6964   21.7820 H   0  0  0  0  0  0
    0.7552   53.9495   23.3129 H   0  0  0  0  0  0
    1.5625   51.5338   23.9757 H   0  0  0  0  0  0
    2.0106   51.3191   22.2966 H   0  0  0  0  0  0
   -0.3360   50.8736   25.5598 H   0  0  0  0  0  0
   -0.5038   48.1853   26.2704 H   0  0  0  0  0  0
    8.4474   55.3098   22.3982 H   0  0  0  0  0  0
    6.6049   54.7157   29.0406 H   0  0  0  0  0  0
  1  6  2  0  0  0
  1  2  1  0  0  0
  1 36  1  0  0  0
  2  3  2  0  0  0
  2 37  1  0  0  0
  3  4  1  0  0  0
  3 38  1  0  0  0
  4  5  2  0  0  0
  4 35  1  0  0  0
  5  6  1  0  0  0
  5  7  1  0  0  0
  6 39  1  0  0  0
  7 29  2  0  0  0
  7  8  1  0  0  0
  8  9  2  0  0  0
  8 40  1  0  0  0
  9 17  1  0  0  0
  9 10  1  0  0  0
 10 11  1  0  0  0
 10 28  2  0  0  0
 11 16  2  0  0  0
 11 12  1  0  0  0
 12 13  2  0  0  0
 12 41  1  0  0  0
 13 14  1  0  0  0
 13 27  1  0  0  0
 14 15  2  0  0  0
 14 42  1  0  0  0
 15 16  1  0  0  0
 15 43  1  0  0  0
 16 17  1  0  0  0
 17 18  1  0  0  0
 18 19  1  0  0  0
 18 44  1  0  0  0
 18 45  1  0  0  0
 19 20  1  0  0  0
 19 46  1  0  0  0
 19 47  1  0  0  0
 20 21  2  0  0  0
 20 22  1  0  0  0
 22 26  1  0  0  0
 22 23  1  0  0  0
 23 24  2  0  0  0
 23 48  1  0  0  0
 24 25  1  0  0  0
 24 49  1  0  0  0
 25 26  2  0  0  0
 27 50  1  0  0  0
 28 33  1  0  0  0
 28 29  1  0  0  0
 29 30  1  0  0  0
 30 31  2  0  0  0
 30 32  1  0  0  0
 32 33  1  0  0  0
 32 51  1  0  0  0
 33 34  2  0  0  0
M  END
> <i_i_glide_confnum>
11

> <i_i_glide_lignum>
46

> <i_i_glide_posenum>
166

> <i_i_glide_rotatable_bonds>
6

> <i_m_Source_File_Index>
123

> <b_m_subgroup_collapsed>
0

> <r_i_docking_score>
-12.0649

> <r_i_glide_ecoul>
-16.6194

> <r_i_glide_eff_state_penalty>
0

> <r_i_glide_einternal>
5.34453

> <r_i_glide_emodel>
-127.228

> <r_i_glide_energy>
-74.9571

> <r_i_glide_erotb>
0.223772

> <r_i_glide_esite>
-0.045755

> <r_i_glide_evdw>
-58.3377

> <r_i_glide_gscore>
-12.0649

> <r_i_glide_hbond>
-0.895373

> <r_i_glide_ligand_efficiency>
-0.344713

> <r_i_glide_ligand_efficiency_ln>
-2.64852

> <r_i_glide_ligand_efficiency_sa>
-1.12758

> <r_i_glide_lipo>
-3.90754

> <r_i_glide_metal>
0

> <r_i_glide_rewards>
-2.03026

> <s_i_glide_gridfile>
wee1_glide-grid

> <s_m_Source_File>
wee1_actives_glide_SP.sdf

> <s_m_Source_Path>
/Users/zhangxujun/Desktop

> <s_m_entry_id>
261

> <s_m_entry_name>
wee1_actives_glide_SP.123

> <s_m_subgroup_title>
wee1_actives_glide_SP

> <s_m_subgroupid>
wee1_actives_glide_SP


$$$$
