CHEMBL513079_90
                    3D
 Schrodinger Suite 2024-2.
 50 55  0  0  1  0            999 V2000
    0.1315   51.8791   29.4296 C   0  0  0  0  0  0
   -0.0991   52.8014   30.4442 C   0  0  0  0  0  0
    0.4390   54.0830   30.3584 C   0  0  0  0  0  0
    1.2483   54.4346   29.2779 C   0  0  0  0  0  0
    1.5563   53.4771   28.2871 C   0  0  0  0  0  0
    0.9652   52.2103   28.3669 C   0  0  0  0  0  0
    2.5110   53.7351   27.1750 C   0  0  0  0  0  0
    2.0597   53.6225   25.8534 C   0  0  0  0  0  0
    2.9731   53.8090   24.8033 C   0  0  0  0  0  0
    4.3304   54.1559   25.0544 C   0  0  0  0  0  0
    4.9618   54.3399   23.8051 C   0  0  0  0  0  0
    6.2614   54.7320   23.4200 C   0  0  0  0  0  0
    6.5507   54.8967   22.0695 C   0  0  0  0  0  0
    5.5917   54.6165   21.1008 C   0  0  0  0  0  0
    4.3120   54.1710   21.4330 C   0  0  0  0  0  0
    3.9962   54.0618   22.7960 C   0  0  0  0  0  0
    2.8040   53.7168   23.4251 N   0  0  0  0  0  0
    1.5636   53.3598   22.7186 C   0  0  0  0  0  0
    1.2424   51.8470   22.7054 C   0  0  0  0  0  0
    0.7058   51.0052   24.2324 S   0  0  0  0  0  0
   -0.8548   51.7760   24.5379 C   0  0  0  0  0  0
   -1.4881   52.6247   23.7614 N   0  0  0  0  0  0
   -1.3776   50.9458   26.4249 H   0  0  0  0  0  0
   -2.5824   52.8945   24.4560 C   0  0  0  0  0  0
   -2.7233   52.2923   25.6164 N   0  0  0  0  0  0
   -1.6068   51.5648   25.6595 N   0  0  0  0  0  0
    7.8041   55.2975   21.6816 O   0  0  0  0  0  0
    4.7477   54.2555   26.3963 C   0  0  0  0  0  0
    3.8576   54.0331   27.4156 C   0  0  0  0  0  0
    4.6200   54.1545   28.6953 C   0  0  0  0  0  0
    4.2245   53.9987   29.8484 O   0  0  0  0  0  0
    5.8700   54.4947   28.3405 N   0  0  0  0  0  0
    6.0564   54.5844   27.0158 C   0  0  0  0  0  0
    7.1044   54.8967   26.4708 O   0  0  0  0  0  0
    1.8400   56.0627   29.2144 Cl  0  0  0  0  0  0
   -0.3179   50.8973   29.4813 H   0  0  0  0  0  0
   -0.7248   52.5275   31.2817 H   0  0  0  0  0  0
    0.2253   54.8049   31.1331 H   0  0  0  0  0  0
    1.1706   51.4646   27.6123 H   0  0  0  0  0  0
    1.0270   53.3859   25.6569 H   0  0  0  0  0  0
    7.0283   54.9456   24.1411 H   0  0  0  0  0  0
    5.8495   54.7323   20.0594 H   0  0  0  0  0  0
    3.5934   53.9617   20.6536 H   0  0  0  0  0  0
    1.6150   53.7003   21.6835 H   0  0  0  0  0  0
    0.7582   53.9265   23.1840 H   0  0  0  0  0  0
    2.0404   51.2902   22.2121 H   0  0  0  0  0  0
    0.4017   51.7131   22.0233 H   0  0  0  0  0  0
   -3.3316   53.5791   24.0865 H   0  0  0  0  0  0
    8.4480   55.3046   22.4033 H   0  0  0  0  0  0
    6.5980   54.7083   29.0083 H   0  0  0  0  0  0
  1  6  2  0  0  0
  1  2  1  0  0  0
  1 36  1  0  0  0
  2  3  2  0  0  0
  2 37  1  0  0  0
  3  4  1  0  0  0
  3 38  1  0  0  0
  4  5  2  0  0  0
  4 35  1  0  0  0
  5  6  1  0  0  0
  5  7  1  0  0  0
  6 39  1  0  0  0
  7 29  2  0  0  0
  7  8  1  0  0  0
  8  9  2  0  0  0
  8 40  1  0  0  0
  9 17  1  0  0  0
  9 10  1  0  0  0
 10 11  1  0  0  0
 10 28  2  0  0  0
 11 16  2  0  0  0
 11 12  1  0  0  0
 12 13  2  0  0  0
 12 41  1  0  0  0
 13 14  1  0  0  0
 13 27  1  0  0  0
 14 15  2  0  0  0
 14 42  1  0  0  0
 15 16  1  0  0  0
 15 43  1  0  0  0
 16 17  1  0  0  0
 17 18  1  0  0  0
 18 19  1  0  0  0
 18 44  1  0  0  0
 18 45  1  0  0  0
 19 46  1  0  0  0
 19 47  1  0  0  0
 19 20  1  0  0  0
 20 21  1  0  0  0
 21 22  2  0  0  0
 21 26  1  0  0  0
 22 24  1  0  0  0
 23 26  1  0  0  0
 24 48  1  0  0  0
 24 25  2  0  0  0
 25 26  1  0  0  0
 27 49  1  0  0  0
 28 33  1  0  0  0
 28 29  1  0  0  0
 29 30  1  0  0  0
 30 31  2  0  0  0
 30 32  1  0  0  0
 32 33  1  0  0  0
 32 50  1  0  0  0
 33 34  2  0  0  0
M  END
> <i_i_glide_confnum>
53

> <i_i_glide_lignum>
91

> <i_i_glide_posenum>
206

> <i_i_glide_rotatable_bonds>
6

> <i_m_Source_File_Index>
87

> <b_m_subgroup_collapsed>
0

> <r_i_docking_score>
-11.7999

> <r_i_glide_ecoul>
-14.0717

> <r_i_glide_eff_state_penalty>
0

> <r_i_glide_einternal>
2.12664

> <r_i_glide_emodel>
-122.69

> <r_i_glide_energy>
-71.1807

> <r_i_glide_erotb>
0.237346

> <r_i_glide_esite>
-0.020693

> <r_i_glide_evdw>
-57.1091

> <r_i_glide_gscore>
-11.7999

> <r_i_glide_hbond>
-0.878031

> <r_i_glide_ligand_efficiency>
-0.347057

> <r_i_glide_ligand_efficiency_ln>
-2.60694

> <r_i_glide_ligand_efficiency_sa>
-1.12433

> <r_i_glide_lipo>
-3.92911

> <r_i_glide_metal>
0

> <r_i_glide_rewards>
-2.24325

> <s_i_glide_gridfile>
wee1_glide-grid

> <s_m_Source_File>
wee1_actives_glide_SP.sdf

> <s_m_Source_Path>
/Users/zhangxujun/Desktop

> <s_m_entry_id>
225

> <s_m_entry_name>
wee1_actives_glide_SP.87

> <s_m_subgroup_title>
wee1_actives_glide_SP

> <s_m_subgroupid>
wee1_actives_glide_SP


$$$$
