CHEMBL521065_83
                    3D
 Schrodinger Suite 2024-2.
 45 49  0  0  1  0            999 V2000
    5.3299   54.5309   21.3399 C   0  0  0  0  0  0
    4.0573   54.0871   21.6847 C   0  0  0  0  0  0
    3.7611   53.9686   23.0515 C   0  0  0  0  0  0
    4.7289   54.2738   24.0529 C   0  0  0  0  0  0
    6.0123   54.6858   23.6576 C   0  0  0  0  0  0
    6.2846   54.8342   22.3052 C   0  0  0  0  0  0
    7.5045   55.2978   21.9111 O   0  0  0  0  0  0
    4.1191   54.0805   25.3084 C   0  0  0  0  0  0
    2.7768   53.6646   25.0706 C   0  0  0  0  0  0
    2.6019   53.5608   23.6996 N   0  0  0  0  0  0
    1.3890   53.0565   23.0498 C   0  0  0  0  0  0
    1.1278   51.5777   23.4609 C   0  0  0  0  0  0
    0.7034   50.6287   22.3180 C   0  0  0  0  0  0
    1.8097   50.3118   21.2905 C   0  0  0  0  0  0
    2.9037   50.8815   21.3140 O   0  0  0  0  0  0
    1.5140   49.3266   20.3038 N   0  0  0  0  0  0
    2.3033   48.9491   19.2470 C   0  0  0  0  0  0
    1.6021   47.9626   18.5736 C   0  0  0  0  0  0
    0.4400   47.7125   19.1447 N   0  0  0  0  0  0
    0.3923   48.5354   20.1663 C   0  0  0  0  0  0
    1.8837   53.3933   26.1225 C   0  0  0  0  0  0
    2.3479   53.5509   27.4270 C   0  0  0  0  0  0
    3.6616   53.9365   27.6606 C   0  0  0  0  0  0
    4.5497   54.1891   26.6476 C   0  0  0  0  0  0
    5.8555   54.5302   27.2768 C   0  0  0  0  0  0
    6.9279   54.8156   26.7495 O   0  0  0  0  0  0
    5.6229   54.4959   28.6030 N   0  0  0  0  0  0
    4.3612   54.1677   28.9430 C   0  0  0  0  0  0
    3.9045   54.0949   30.0817 O   0  0  0  0  0  0
    5.5784   54.6476   20.2956 H   0  0  0  0  0  0
    3.3365   53.8538   20.9136 H   0  0  0  0  0  0
    6.7728   54.9292   24.3803 H   0  0  0  0  0  0
    8.1625   55.3037   22.6187 H   0  0  0  0  0  0
    1.4951   53.1659   21.9697 H   0  0  0  0  0  0
    0.5614   53.6982   23.3539 H   0  0  0  0  0  0
    0.3471   51.5651   24.2234 H   0  0  0  0  0  0
    2.0004   51.1410   23.9578 H   0  0  0  0  0  0
   -0.1703   51.0293   21.7991 H   0  0  0  0  0  0
    0.4031   49.6842   22.7752 H   0  0  0  0  0  0
    3.2639   49.4109   19.0502 H   0  0  0  0  0  0
    1.9333   47.4516   17.6795 H   0  0  0  0  0  0
   -0.4304   48.6135   20.8616 H   0  0  0  0  0  0
    0.8668   53.0743   25.9454 H   0  0  0  0  0  0
    1.6777   53.3550   28.2521 H   0  0  0  0  0  0
    6.3353   54.7382   29.2768 H   0  0  0  0  0  0
  1  6  2  0  0  0
  1  2  1  0  0  0
  1 30  1  0  0  0
  2  3  2  0  0  0
  2 31  1  0  0  0
  3 10  1  0  0  0
  3  4  1  0  0  0
  4  5  2  0  0  0
  4  8  1  0  0  0
  5  6  1  0  0  0
  5 32  1  0  0  0
  6  7  1  0  0  0
  7 33  1  0  0  0
  8 24  2  0  0  0
  8  9  1  0  0  0
  9 10  1  0  0  0
  9 21  2  0  0  0
 10 11  1  0  0  0
 11 12  1  0  0  0
 11 34  1  0  0  0
 11 35  1  0  0  0
 12 13  1  0  0  0
 12 36  1  0  0  0
 12 37  1  0  0  0
 13 14  1  0  0  0
 13 38  1  0  0  0
 13 39  1  0  0  0
 14 15  2  0  0  0
 14 16  1  0  0  0
 16 20  1  0  0  0
 16 17  1  0  0  0
 17 18  2  0  0  0
 17 40  1  0  0  0
 18 19  1  0  0  0
 18 41  1  0  0  0
 19 20  2  0  0  0
 20 42  1  0  0  0
 21 22  1  0  0  0
 21 43  1  0  0  0
 22 23  2  0  0  0
 22 44  1  0  0  0
 23 28  1  0  0  0
 23 24  1  0  0  0
 24 25  1  0  0  0
 25 26  2  0  0  0
 25 27  1  0  0  0
 27 28  1  0  0  0
 27 45  1  0  0  0
 28 29  2  0  0  0
M  END
> <i_i_glide_confnum>
13

> <i_i_glide_lignum>
84

> <i_i_glide_posenum>
287

> <i_i_glide_rotatable_bonds>
6

> <i_m_Source_File_Index>
45

> <b_m_subgroup_collapsed>
0

> <r_i_docking_score>
-10.0487

> <r_i_glide_ecoul>
-11.7381

> <r_i_glide_eff_state_penalty>
0

> <r_i_glide_einternal>
4.81074

> <r_i_glide_emodel>
-91.0743

> <r_i_glide_energy>
-56.4704

> <r_i_glide_erotb>
0.516677

> <r_i_glide_esite>
-0.0148586

> <r_i_glide_evdw>
-44.7323

> <r_i_glide_gscore>
-10.0487

> <r_i_glide_hbond>
-1.14771

> <r_i_glide_ligand_efficiency>
-0.346506

> <r_i_glide_ligand_efficiency_ln>
-2.30089

> <r_i_glide_ligand_efficiency_sa>
-1.06458

> <r_i_glide_lipo>
-2.73563

> <r_i_glide_metal>
0

> <r_i_glide_rewards>
-2.66983

> <s_i_glide_gridfile>
wee1_glide-grid

> <s_m_Source_File>
wee1_actives_glide_SP.sdf

> <s_m_Source_Path>
/Users/zhangxujun/Desktop

> <s_m_entry_id>
183

> <s_m_entry_name>
wee1_actives_glide_SP.45

> <s_m_subgroup_title>
wee1_actives_glide_SP

> <s_m_subgroupid>
wee1_actives_glide_SP


$$$$
