CHEMBL258067_42
                    3D
 Schrodinger Suite 2024-2.
 69 74  0  0  1  0            999 V2000
    0.0227   51.8543   29.2875 C   0  0  0  0  0  0
   -0.2211   52.7634   30.3106 C   0  0  0  0  0  0
    0.3708   54.0230   30.2779 C   0  0  0  0  0  0
    1.2318   54.3690   29.2359 C   0  0  0  0  0  0
    1.5550   53.4198   28.2424 C   0  0  0  0  0  0
    0.9221   52.1709   28.2765 C   0  0  0  0  0  0
    2.5339   53.6795   27.1514 C   0  0  0  0  0  0
    2.1039   53.5511   25.8257 C   0  0  0  0  0  0
    3.0214   53.7922   24.7908 C   0  0  0  0  0  0
    4.3697   54.1556   25.0453 C   0  0  0  0  0  0
    5.0057   54.3530   23.7914 C   0  0  0  0  0  0
    6.3040   54.7383   23.3975 C   0  0  0  0  0  0
    6.5952   54.8967   22.0421 C   0  0  0  0  0  0
    5.6273   54.6333   21.0623 C   0  0  0  0  0  0
    4.3375   54.2246   21.4187 C   0  0  0  0  0  0
    4.0369   54.0964   22.7835 C   0  0  0  0  0  0
    2.8524   53.7422   23.4193 N   0  0  0  0  0  0
    1.5989   53.3833   22.7602 C   0  0  0  0  0  0
    1.6720   52.0484   21.9929 C   0  0  0  0  0  0
    1.9041   50.9762   22.8846 O   0  0  0  0  0  0
    5.9683   54.7583   19.5743 C   0  0  0  0  0  0
    5.6160   56.1389   18.9813 C   0  0  0  0  0  0
    6.0836   56.3471   17.5254 C   0  0  0  0  0  0
    7.6122   56.4520   17.3135 C   0  0  0  0  0  0
    8.2493   57.5676   18.0268 N   0  0  0  0  0  0
    9.7109   57.4434   17.9362 C   0  0  0  0  0  0
   10.4462   58.6242   18.6064 C   0  0  0  0  0  0
    9.9781   59.8842   18.1301 O   0  0  0  0  0  0
    8.5655   60.0422   18.2283 C   0  0  0  0  0  0
    7.8032   58.8852   17.5449 C   0  0  0  0  0  0
    7.8605   55.2999   21.6818 O   0  0  0  0  0  0
    4.7679   54.2412   26.3935 C   0  0  0  0  0  0
    3.8734   53.9967   27.4058 C   0  0  0  0  0  0
    4.6231   54.1199   28.6916 C   0  0  0  0  0  0
    4.2207   53.9519   29.8405 O   0  0  0  0  0  0
    5.8695   54.4811   28.3468 N   0  0  0  0  0  0
    6.0631   54.5764   27.0229 C   0  0  0  0  0  0
    7.1044   54.8979   26.4782 O   0  0  0  0  0  0
    1.8484   55.9893   29.2095 Cl  0  0  0  0  0  0
   -0.4712   50.8958   29.2963 H   0  0  0  0  0  0
   -0.8949   52.4974   31.1145 H   0  0  0  0  0  0
    0.1451   54.7388   31.0546 H   0  0  0  0  0  0
    1.1309   51.4318   27.5159 H   0  0  0  0  0  0
    1.0808   53.2774   25.6178 H   0  0  0  0  0  0
    7.0736   54.9415   24.1209 H   0  0  0  0  0  0
    3.5934   54.0378   20.6572 H   0  0  0  0  0  0
    0.7474   53.4069   23.4389 H   0  0  0  0  0  0
    1.3957   54.2006   22.0817 H   0  0  0  0  0  0
    0.7714   51.8816   21.4004 H   0  0  0  0  0  0
    2.5116   52.0514   21.2972 H   0  0  0  0  0  0
    2.0253   50.1672   22.3791 H   0  0  0  0  0  0
    5.4465   53.9762   19.0198 H   0  0  0  0  0  0
    7.0275   54.5454   19.4296 H   0  0  0  0  0  0
    6.0198   56.9330   19.6121 H   0  0  0  0  0  0
    4.5335   56.2561   18.9950 H   0  0  0  0  0  0
    5.5891   57.2160   17.0918 H   0  0  0  0  0  0
    5.7185   55.5116   16.9270 H   0  0  0  0  0  0
    7.8324   56.5180   16.2459 H   0  0  0  0  0  0
    8.0638   55.5217   17.6621 H   0  0  0  0  0  0
   10.0133   57.3764   16.8897 H   0  0  0  0  0  0
   10.0252   56.5065   18.3988 H   0  0  0  0  0  0
   10.3059   58.5646   19.6817 H   0  0  0  0  0  0
   11.5178   58.5491   18.4205 H   0  0  0  0  0  0
    8.2668   60.0967   19.2761 H   0  0  0  0  0  0
    8.3045   60.9912   17.7614 H   0  0  0  0  0  0
    6.7340   59.0088   17.7177 H   0  0  0  0  0  0
    7.9386   58.9487   16.4638 H   0  0  0  0  0  0
    8.4851   55.2972   22.4205 H   0  0  0  0  0  0
    6.5912   54.7012   29.0194 H   0  0  0  0  0  0
  1  6  2  0  0  0
  1  2  1  0  0  0
  1 40  1  0  0  0
  2  3  2  0  0  0
  2 41  1  0  0  0
  3  4  1  0  0  0
  3 42  1  0  0  0
  4  5  2  0  0  0
  4 39  1  0  0  0
  5  6  1  0  0  0
  5  7  1  0  0  0
  6 43  1  0  0  0
  7 33  2  0  0  0
  7  8  1  0  0  0
  8  9  2  0  0  0
  8 44  1  0  0  0
  9 17  1  0  0  0
  9 10  1  0  0  0
 10 11  1  0  0  0
 10 32  2  0  0  0
 11 16  2  0  0  0
 11 12  1  0  0  0
 12 13  2  0  0  0
 12 45  1  0  0  0
 13 14  1  0  0  0
 13 31  1  0  0  0
 14 15  2  0  0  0
 14 21  1  0  0  0
 15 16  1  0  0  0
 15 46  1  0  0  0
 16 17  1  0  0  0
 17 18  1  0  0  0
 18 19  1  0  0  0
 18 47  1  0  0  0
 18 48  1  0  0  0
 19 20  1  0  0  0
 19 49  1  0  0  0
 19 50  1  0  0  0
 20 51  1  0  0  0
 21 22  1  0  0  0
 21 52  1  0  0  0
 21 53  1  0  0  0
 22 23  1  0  0  0
 22 54  1  0  0  0
 22 55  1  0  0  0
 23 24  1  0  0  0
 23 56  1  0  0  0
 23 57  1  0  0  0
 24 25  1  0  0  0
 24 58  1  0  0  0
 24 59  1  0  0  0
 25 30  1  0  0  0
 25 26  1  0  0  0
 26 27  1  0  0  0
 26 60  1  0  0  0
 26 61  1  0  0  0
 27 28  1  0  0  0
 27 62  1  0  0  0
 27 63  1  0  0  0
 28 29  1  0  0  0
 29 30  1  0  0  0
 29 64  1  0  0  0
 29 65  1  0  0  0
 30 66  1  0  0  0
 30 67  1  0  0  0
 31 68  1  0  0  0
 32 37  1  0  0  0
 32 33  1  0  0  0
 33 34  1  0  0  0
 34 35  2  0  0  0
 34 36  1  0  0  0
 36 37  1  0  0  0
 36 69  1  0  0  0
 37 38  2  0  0  0
M  END
> <i_i_glide_confnum>
102

> <i_i_glide_lignum>
43

> <i_i_glide_posenum>
371

> <i_i_glide_rotatable_bonds>
10

> <i_m_Source_File_Index>
72

> <b_m_subgroup_collapsed>
0

> <r_i_docking_score>
-11.9594

> <r_i_glide_ecoul>
-17.2135

> <r_i_glide_eff_state_penalty>
0

> <r_i_glide_einternal>
2.47761

> <r_i_glide_emodel>
-128.505

> <r_i_glide_energy>
-74.6012

> <r_i_glide_erotb>
0.338037

> <r_i_glide_esite>
0

> <r_i_glide_evdw>
-57.3878

> <r_i_glide_gscore>
-11.9594

> <r_i_glide_hbond>
-0.884404

> <r_i_glide_ligand_efficiency>
-0.306651

> <r_i_glide_ligand_efficiency_ln>
-2.56443

> <r_i_glide_ligand_efficiency_sa>
-1.03992

> <r_i_glide_lipo>
-3.96421

> <r_i_glide_metal>
0

> <r_i_glide_rewards>
-1.9974

> <s_i_glide_gridfile>
wee1_glide-grid

> <s_m_Source_File>
wee1_actives_glide_SP.sdf

> <s_m_Source_Path>
/Users/zhangxujun/Desktop

> <s_m_entry_id>
210

> <s_m_entry_name>
wee1_actives_glide_SP.72

> <s_m_subgroup_title>
wee1_actives_glide_SP

> <s_m_subgroupid>
wee1_actives_glide_SP


$$$$
