CHEMBL403679_22
                    3D
 Schrodinger Suite 2024-2.
 62 67  0  0  1  0            999 V2000
    0.0673   51.8416   29.2389 C   0  0  0  0  0  0
   -0.1981   52.7812   30.2291 C   0  0  0  0  0  0
    0.3414   54.0600   30.1358 C   0  0  0  0  0  0
    1.1860   54.3924   29.0744 C   0  0  0  0  0  0
    1.5191   53.4222   28.1039 C   0  0  0  0  0  0
    0.9267   52.1566   28.1912 C   0  0  0  0  0  0
    2.4939   53.6797   27.0078 C   0  0  0  0  0  0
    2.0711   53.5674   25.6726 C   0  0  0  0  0  0
    3.0043   53.8129   24.6539 C   0  0  0  0  0  0
    4.3543   54.1597   24.9327 C   0  0  0  0  0  0
    5.0045   54.3552   23.6935 C   0  0  0  0  0  0
    6.3097   54.7310   23.3330 C   0  0  0  0  0  0
    6.6269   54.8999   21.9889 C   0  0  0  0  0  0
    5.6782   54.6637   20.9826 C   0  0  0  0  0  0
    4.3783   54.2534   21.3088 C   0  0  0  0  0  0
    4.0569   54.1160   22.6651 C   0  0  0  0  0  0
    2.8655   53.7867   23.2787 N   0  0  0  0  0  0
    2.0089   53.5705   22.7871 H   0  0  0  0  0  0
    6.0598   54.7925   19.5017 C   0  0  0  0  0  0
    5.9145   56.2077   18.8908 C   0  0  0  0  0  0
    6.7579   57.2993   19.5841 C   0  0  0  0  0  0
    6.9644   58.5865   18.7533 C   0  0  0  0  0  0
    7.9550   58.4400   17.6755 N   0  0  0  0  0  0
    7.8784   59.5988   16.7741 C   0  0  0  0  0  0
    8.9447   59.5552   15.6609 C   0  0  0  0  0  0
   10.2483   59.4164   16.2197 O   0  0  0  0  0  0
   10.3753   58.2537   17.0335 C   0  0  0  0  0  0
    9.3314   58.2551   18.1718 C   0  0  0  0  0  0
    7.9030   55.2968   21.6806 O   0  0  0  0  0  0
    4.7466   54.2389   26.2839 C   0  0  0  0  0  0
    3.8357   53.9890   27.2807 C   0  0  0  0  0  0
    4.5735   54.0961   28.5768 C   0  0  0  0  0  0
    4.1610   53.9105   29.7207 O   0  0  0  0  0  0
    5.8257   54.4578   28.2517 N   0  0  0  0  0  0
    6.0425   54.5676   26.9324 C   0  0  0  0  0  0
    7.1044   54.8920   26.4162 O   0  0  0  0  0  0
    1.7899   56.0141   29.0081 Cl  0  0  0  0  0  0
   -0.3888   50.8658   29.2907 H   0  0  0  0  0  0
   -0.8449   52.5165   31.0549 H   0  0  0  0  0  0
    0.1072   54.7986   30.8899 H   0  0  0  0  0  0
    1.1461   51.3978   27.4530 H   0  0  0  0  0  0
    1.0480   53.3089   25.4423 H   0  0  0  0  0  0
    7.0671   54.9185   24.0710 H   0  0  0  0  0  0
    3.6433   54.0729   20.5359 H   0  0  0  0  0  0
    5.4596   54.0933   18.9166 H   0  0  0  0  0  0
    7.0862   54.4490   19.3652 H   0  0  0  0  0  0
    4.8650   56.5049   18.8815 H   0  0  0  0  0  0
    6.2099   56.1474   17.8414 H   0  0  0  0  0  0
    7.7273   56.8686   19.8051 H   0  0  0  0  0  0
    6.3044   57.5459   20.5436 H   0  0  0  0  0  0
    7.1957   59.4393   19.3927 H   0  0  0  0  0  0
    6.0081   58.8219   18.2804 H   0  0  0  0  0  0
    8.0045   60.5128   17.3529 H   0  0  0  0  0  0
    6.8811   59.6663   16.3345 H   0  0  0  0  0  0
    8.7365   58.7200   14.9895 H   0  0  0  0  0  0
    8.9050   60.4663   15.0626 H   0  0  0  0  0  0
   10.2426   57.3593   16.4230 H   0  0  0  0  0  0
   11.3845   58.2123   17.4452 H   0  0  0  0  0  0
    9.4295   57.3279   18.7343 H   0  0  0  0  0  0
    9.5700   59.0547   18.8745 H   0  0  0  0  0  0
    8.4997   55.3031   22.4429 H   0  0  0  0  0  0
    6.5378   54.6669   28.9389 H   0  0  0  0  0  0
  1  6  2  0  0  0
  1  2  1  0  0  0
  1 38  1  0  0  0
  2  3  2  0  0  0
  2 39  1  0  0  0
  3  4  1  0  0  0
  3 40  1  0  0  0
  4  5  2  0  0  0
  4 37  1  0  0  0
  5  6  1  0  0  0
  5  7  1  0  0  0
  6 41  1  0  0  0
  7 31  2  0  0  0
  7  8  1  0  0  0
  8  9  2  0  0  0
  8 42  1  0  0  0
  9 17  1  0  0  0
  9 10  1  0  0  0
 10 11  1  0  0  0
 10 30  2  0  0  0
 11 16  2  0  0  0
 11 12  1  0  0  0
 12 13  2  0  0  0
 12 43  1  0  0  0
 13 14  1  0  0  0
 13 29  1  0  0  0
 14 15  2  0  0  0
 14 19  1  0  0  0
 15 16  1  0  0  0
 15 44  1  0  0  0
 16 17  1  0  0  0
 17 18  1  0  0  0
 19 20  1  0  0  0
 19 45  1  0  0  0
 19 46  1  0  0  0
 20 21  1  0  0  0
 20 47  1  0  0  0
 20 48  1  0  0  0
 21 22  1  0  0  0
 21 49  1  0  0  0
 21 50  1  0  0  0
 22 23  1  0  0  0
 22 51  1  0  0  0
 22 52  1  0  0  0
 23 28  1  0  0  0
 23 24  1  0  0  0
 24 25  1  0  0  0
 24 53  1  0  0  0
 24 54  1  0  0  0
 25 26  1  0  0  0
 25 55  1  0  0  0
 25 56  1  0  0  0
 26 27  1  0  0  0
 27 28  1  0  0  0
 27 57  1  0  0  0
 27 58  1  0  0  0
 28 59  1  0  0  0
 28 60  1  0  0  0
 29 61  1  0  0  0
 30 35  1  0  0  0
 30 31  1  0  0  0
 31 32  1  0  0  0
 32 33  2  0  0  0
 32 34  1  0  0  0
 34 35  1  0  0  0
 34 62  1  0  0  0
 35 36  2  0  0  0
M  END
> <i_i_glide_confnum>
88

> <i_i_glide_lignum>
23

> <i_i_glide_posenum>
63

> <i_i_glide_rotatable_bonds>
7

> <i_m_Source_File_Index>
22

> <b_m_subgroup_collapsed>
0

> <r_i_docking_score>
-10.7487

> <r_i_glide_ecoul>
-14.2939

> <r_i_glide_eff_state_penalty>
0

> <r_i_glide_einternal>
2.59497

> <r_i_glide_emodel>
-113.589

> <r_i_glide_energy>
-68.1295

> <r_i_glide_erotb>
0.281711

> <r_i_glide_esite>
0

> <r_i_glide_evdw>
-53.8356

> <r_i_glide_gscore>
-10.7487

> <r_i_glide_hbond>
-0.78768

> <r_i_glide_ligand_efficiency>
-0.298576

> <r_i_glide_ligand_efficiency_ln>
-2.34508

> <r_i_glide_ligand_efficiency_sa>
-0.985875

> <r_i_glide_lipo>
-3.70139

> <r_i_glide_metal>
0

> <r_i_glide_rewards>
-1.7055

> <s_i_glide_gridfile>
wee1_glide-grid

> <s_m_Source_File>
wee1_actives_glide_SP.sdf

> <s_m_Source_Path>
/Users/zhangxujun/Desktop

> <s_m_entry_id>
160

> <s_m_entry_name>
wee1_actives_glide_SP.22

> <s_m_subgroup_title>
wee1_actives_glide_SP

> <s_m_subgroupid>
wee1_actives_glide_SP


$$$$
