ZINC33063356_3538
                    3D
 Schrodinger Suite 2024-2.
 57 60  0  0  1  0            999 V2000
    6.3151   55.1058   21.2826 C   0  0  0  0  0  0
    6.7045   55.2208   22.6133 C   0  0  0  0  0  0
    6.0023   54.5570   23.6264 C   0  0  0  0  0  0
    4.8797   53.7935   23.2767 C   0  0  0  0  0  0
    4.4961   53.6654   21.9405 C   0  0  0  0  0  0
    5.2185   54.3138   20.9294 C   0  0  0  0  0  0
    4.8495   54.1975   19.4428 C   0  0  2  0  0  0
    4.8478   55.2374   19.1099 H   0  0  0  0  0  0
    3.5044   53.6967   19.1712 N   0  0  0  0  0  0
    3.1608   53.1376   17.9232 C   0  0  0  0  0  0
    1.8821   52.5900   17.7921 C   0  0  0  0  0  0
    1.4926   51.9425   16.6143 C   0  0  0  0  0  0
    2.4072   51.8460   15.5590 C   0  0  0  0  0  0
    3.6856   52.3893   15.6781 C   0  0  0  0  0  0
    4.0667   53.0372   16.8548 C   0  0  0  0  0  0
    5.7005   53.7364   16.9581 S   0  0  0  0  0  0
    5.6139   55.1687   16.6500 O   0  0  0  0  0  0
    6.6439   52.8931   16.2188 O   0  0  0  0  0  0
    5.9127   53.5263   18.6768 N   0  0  0  0  0  0
    0.0830   51.3601   16.4907 C   0  0  0  0  0  0
    0.0420   50.1775   17.1038 F   0  0  0  0  0  0
   -0.8105   52.1679   17.0653 F   0  0  0  0  0  0
   -0.2790   51.1925   15.2167 F   0  0  0  0  0  0
    6.4549   54.7070   25.0621 C   0  0  0  0  0  0
    7.1007   55.6941   25.4194 O   0  0  0  0  0  0
    6.1621   53.6967   25.9023 N   0  0  0  0  0  0
    6.5578   53.6270   27.3092 C   0  0  0  0  0  0
    5.5430   54.2516   28.2826 C   0  0  0  0  0  0
    4.1563   53.6166   28.3051 C   0  0  0  0  0  0
    3.8171   52.7103   29.2501 C   0  0  0  0  0  0
    2.4362   52.0803   29.4089 C   0  0  0  0  0  0
    1.3688   52.8041   28.5592 C   0  0  0  0  0  0
    1.9081   53.2216   27.1811 C   0  0  0  0  0  0
    3.1225   54.1628   27.3185 C   0  0  0  0  0  0
    6.8818   55.6188   20.5171 H   0  0  0  0  0  0
    7.5651   55.8307   22.8505 H   0  0  0  0  0  0
    4.2909   53.2983   24.0328 H   0  0  0  0  0  0
    3.6343   53.0578   21.7027 H   0  0  0  0  0  0
    2.7787   54.1514   19.7183 H   0  0  0  0  0  0
    1.1913   52.6530   18.6213 H   0  0  0  0  0  0
    2.1376   51.3418   14.6403 H   0  0  0  0  0  0
    4.3820   52.2983   14.8558 H   0  0  0  0  0  0
    6.0096   52.5385   18.9304 H   0  0  0  0  0  0
    5.7072   52.8736   25.5315 H   0  0  0  0  0  0
    7.5349   54.0912   27.4565 H   0  0  0  0  0  0
    6.6871   52.5735   27.5640 H   0  0  0  0  0  0
    5.4492   55.3123   28.0777 H   0  0  0  0  0  0
    5.9716   54.1988   29.2814 H   0  0  0  0  0  0
    4.5880   52.3973   29.9386 H   0  0  0  0  0  0
    2.1305   52.0739   30.4551 H   0  0  0  0  0  0
    2.4988   51.0348   29.1067 H   0  0  0  0  0  0
    1.0248   53.6938   29.0898 H   0  0  0  0  0  0
    0.4929   52.1643   28.4458 H   0  0  0  0  0  0
    2.1965   52.3316   26.6211 H   0  0  0  0  0  0
    1.1186   53.7007   26.6015 H   0  0  0  0  0  0
    3.5696   54.3593   26.3440 H   0  0  0  0  0  0
    2.7929   55.1435   27.6645 H   0  0  0  0  0  0
  1  6  2  0  0  0
  1  2  1  0  0  0
  1 35  1  0  0  0
  2  3  2  0  0  0
  2 36  1  0  0  0
  3  4  1  0  0  0
  3 24  1  0  0  0
  4  5  2  0  0  0
  4 37  1  0  0  0
  5  6  1  0  0  0
  5 38  1  0  0  0
  6  7  1  0  0  0
  7  8  1  0  0  0
  7 19  1  0  0  0
  7  9  1  0  0  0
  9 10  1  0  0  0
  9 39  1  0  0  0
 10 15  2  0  0  0
 10 11  1  0  0  0
 11 12  2  0  0  0
 11 40  1  0  0  0
 12 13  1  0  0  0
 12 20  1  0  0  0
 13 14  2  0  0  0
 13 41  1  0  0  0
 14 15  1  0  0  0
 14 42  1  0  0  0
 15 16  1  0  0  0
 16 17  2  0  0  0
 16 18  2  0  0  0
 16 19  1  0  0  0
 19 43  1  0  0  0
 20 21  1  0  0  0
 20 22  1  0  0  0
 20 23  1  0  0  0
 24 25  2  0  0  0
 24 26  1  0  0  0
 26 27  1  0  0  0
 26 44  1  0  0  0
 27 28  1  0  0  0
 27 45  1  0  0  0
 27 46  1  0  0  0
 28 29  1  0  0  0
 28 47  1  0  0  0
 28 48  1  0  0  0
 29 34  1  0  0  0
 29 30  2  0  0  0
 30 31  1  0  0  0
 30 49  1  0  0  0
 31 32  1  0  0  0
 31 50  1  0  0  0
 31 51  1  0  0  0
 32 33  1  0  0  0
 32 52  1  0  0  0
 32 53  1  0  0  0
 33 34  1  0  0  0
 33 54  1  0  0  0
 33 55  1  0  0  0
 34 56  1  0  0  0
 34 57  1  0  0  0
M  END
> <i_i_glide_confnum>
67

> <i_i_glide_lignum>
3539

> <i_i_glide_posenum>
80

> <i_i_glide_rotatable_bonds>
7

> <i_m_Source_File_Index>
5393

> <b_m_subgroup_collapsed>
0

> <r_i_docking_score>
-6.91742

> <r_i_glide_ecoul>
-8.12162

> <r_i_glide_eff_state_penalty>
0

> <r_i_glide_einternal>
4.56906

> <r_i_glide_emodel>
-61.4701

> <r_i_glide_energy>
-45.1493

> <r_i_glide_erotb>
0.440826

> <r_i_glide_esite>
-0.147692

> <r_i_glide_evdw>
-37.0277

> <r_i_glide_gscore>
-6.91742

> <r_i_glide_hbond>
-0.622399

> <r_i_glide_ligand_efficiency>
-0.209619

> <r_i_glide_ligand_efficiency_ln>
-1.5384

> <r_i_glide_ligand_efficiency_sa>
-0.672359

> <r_i_glide_lipo>
-2.92886

> <r_i_glide_metal>
0

> <r_i_glide_rewards>
-0.589662

> <s_i_glide_gridfile>
wee1_glide-grid

> <s_m_Source_File>
wee1_decoys_glide_SP.sdf

> <s_m_Source_Path>
/Users/zhangxujun/Desktop

> <s_m_entry_id>
5668

> <s_m_entry_name>
wee1_decoys_glide_SP.5393

> <s_m_subgroup_title>
wee1_decoys_glide_SP

> <s_m_subgroupid>
wee1_decoys_glide_SP


$$$$
