ZINC63637695_2485
                    3D
 Schrodinger Suite 2024-2.
 45 49  0  0  1  0            999 V2000
    4.1688   51.8001   20.6781 C   0  0  0  0  0  0
    3.0175   51.0277   20.8388 C   0  0  0  0  0  0
    2.3311   51.5383   21.9324 C   0  0  0  0  0  0
    3.0424   52.5755   22.4563 O   0  0  0  0  0  0
    4.1476   52.7436   21.6861 C   0  0  0  0  0  0
    0.9906   51.2196   22.5706 C   0  0  1  0  0  0
    0.3447   50.8701   21.7605 H   0  0  0  0  0  0
    1.0392   50.0951   23.6332 C   0  0  0  0  0  0
   -0.3591   49.8567   24.2104 C   0  0  0  0  0  0
   -1.3380   50.8148   24.2244 C   0  0  0  0  0  0
   -2.7750   50.4597   24.7062 C   0  0  2  0  0  0
   -3.1686   51.3399   25.2218 H   0  0  0  0  0  0
   -2.7198   49.2859   25.7528 C   0  0  2  0  0  0
   -2.2346   49.6856   26.6453 H   0  0  0  0  0  0
   -1.8041   48.1652   25.2221 C   0  0  0  0  0  0
   -2.0949   46.9213   25.2856 N   0  0  0  0  0  0
   -3.3003   46.4970   25.8634 C   0  0  0  0  0  0
   -3.6957   45.3415   26.0001 O   0  0  0  0  0  0
   -4.1899   47.4245   26.3007 N   0  0  0  0  0  0
   -4.0912   48.7719   26.2783 C   0  0  0  0  0  0
   -5.0037   49.5026   26.6562 O   0  0  0  0  0  0
   -0.6323   48.5595   24.6136 N   0  0  0  0  0  0
   -3.7771   50.2190   23.5610 C   0  0  0  0  0  0
   -5.0753   50.7395   23.6432 C   0  0  0  0  0  0
   -6.0028   50.4912   22.6320 C   0  0  0  0  0  0
   -5.6419   49.7257   21.5239 C   0  0  0  0  0  0
   -4.3498   49.2047   21.4292 C   0  0  0  0  0  0
   -3.4250   49.4498   22.4440 C   0  0  0  0  0  0
   -3.8352   48.1526   19.9270 Br  0  0  0  0  0  0
   -6.5475   49.4964   20.5455 F   0  0  0  0  0  0
   -1.1002   52.1719   23.6881 C   0  0  0  0  0  0
   -1.9676   53.0447   23.6822 O   0  0  0  0  0  0
    0.3156   52.4688   23.1738 C   0  0  0  0  0  0
    4.9170   51.6970   19.9053 H   0  0  0  0  0  0
    2.7056   50.2088   20.2066 H   0  0  0  0  0  0
    4.8071   53.5522   21.9646 H   0  0  0  0  0  0
    1.3739   49.2053   23.0955 H   0  0  0  0  0  0
    1.7372   50.2803   24.4482 H   0  0  0  0  0  0
   -5.0469   47.0534   26.6750 H   0  0  0  0  0  0
    0.0682   47.8454   24.4895 H   0  0  0  0  0  0
   -5.3756   51.3282   24.4984 H   0  0  0  0  0  0
   -7.0005   50.8993   22.7035 H   0  0  0  0  0  0
   -2.4331   49.0307   22.3606 H   0  0  0  0  0  0
    0.9024   52.8127   24.0254 H   0  0  0  0  0  0
    0.3019   53.2959   22.4675 H   0  0  0  0  0  0
  1  5  2  0  0  0
  1  2  1  0  0  0
  1 34  1  0  0  0
  2  3  2  0  0  0
  2 35  1  0  0  0
  3  4  1  0  0  0
  3  6  1  0  0  0
  4  5  1  0  0  0
  5 36  1  0  0  0
  6  7  1  0  0  0
  6 33  1  0  0  0
  6  8  1  0  0  0
  8  9  1  0  0  0
  8 37  1  0  0  0
  8 38  1  0  0  0
  9 22  1  0  0  0
  9 10  2  0  0  0
 10 11  1  0  0  0
 10 31  1  0  0  0
 11 12  1  0  0  0
 11 13  1  0  0  0
 11 23  1  0  0  0
 13 14  1  0  0  0
 13 20  1  0  0  0
 13 15  1  0  0  0
 15 16  2  0  0  0
 15 22  1  0  0  0
 16 17  1  0  0  0
 17 18  2  0  0  0
 17 19  1  0  0  0
 19 20  1  0  0  0
 19 39  1  0  0  0
 20 21  2  0  0  0
 22 40  1  0  0  0
 23 28  2  0  0  0
 23 24  1  0  0  0
 24 25  2  0  0  0
 24 41  1  0  0  0
 25 26  1  0  0  0
 25 42  1  0  0  0
 26 27  2  0  0  0
 26 30  1  0  0  0
 27 28  1  0  0  0
 27 29  1  0  0  0
 28 43  1  0  0  0
 31 32  2  0  0  0
 31 33  1  0  0  0
 33 44  1  0  0  0
 33 45  1  0  0  0
M  END
> <i_i_glide_confnum>
4

> <i_i_glide_lignum>
2486

> <i_i_glide_posenum>
46

> <i_i_glide_rotatable_bonds>
2

> <i_m_Source_File_Index>
724

> <b_m_subgroup_collapsed>
0

> <r_i_docking_score>
-3.2361

> <r_i_glide_ecoul>
-6.46535

> <r_i_glide_eff_state_penalty>
0

> <r_i_glide_einternal>
0.628843

> <r_i_glide_emodel>
-39.7601

> <r_i_glide_energy>
-32.6268

> <r_i_glide_erotb>
0.181307

> <r_i_glide_esite>
-0.333633

> <r_i_glide_evdw>
-26.1615

> <r_i_glide_gscore>
-3.2361

> <r_i_glide_hbond>
-0.16

> <r_i_glide_ligand_efficiency>
-0.10787

> <r_i_glide_ligand_efficiency_ln>
-0.735278

> <r_i_glide_ligand_efficiency_sa>
-0.335178

> <r_i_glide_lipo>
-0.412218

> <r_i_glide_metal>
0

> <r_i_glide_rewards>
-0.233684

> <s_i_glide_gridfile>
wee1_glide-grid

> <s_m_Source_File>
wee1_decoys_glide_SP.sdf

> <s_m_Source_Path>
/Users/zhangxujun/Desktop

> <s_m_entry_id>
999

> <s_m_entry_name>
wee1_decoys_glide_SP.724

> <s_m_subgroup_title>
wee1_decoys_glide_SP

> <s_m_subgroupid>
wee1_decoys_glide_SP


$$$$
