ZINC32911947_3014
                    3D
 Schrodinger Suite 2024-2.
 54 56  0  0  1  0            999 V2000
    2.3033   49.1507   20.7808 C   0  0  0  0  0  0
    2.1536   50.0533   19.7316 C   0  0  0  0  0  0
    1.6177   51.3139   19.9827 C   0  0  0  0  0  0
    1.2421   51.6762   21.2774 C   0  0  0  0  0  0
    1.4284   50.7843   22.3505 C   0  0  0  0  0  0
    1.9569   49.5217   22.0790 C   0  0  0  0  0  0
    1.1067   51.0540   23.6938 N   0  0  0  0  0  0
    0.7412   52.6563   24.3590 S   0  0  0  0  0  0
   -0.6791   52.9039   24.0849 O   0  0  0  0  0  0
    1.7771   53.5810   23.8848 O   0  0  0  0  0  0
    0.9345   52.4805   26.1311 C   0  0  0  0  0  0
   -0.0269   51.8237   26.9021 C   0  0  0  0  0  0
    0.1545   51.6976   28.2804 C   0  0  0  0  0  0
    1.2966   52.2200   28.8939 C   0  0  0  0  0  0
    2.2796   52.8636   28.1280 C   0  0  0  0  0  0
    2.0763   52.9951   26.7453 C   0  0  0  0  0  0
    3.5218   53.4309   28.7714 C   0  0  0  0  0  0
    3.5027   53.9080   29.9083 O   0  0  0  0  0  0
    4.6172   53.3944   27.9946 N   0  0  0  0  0  0
    5.8381   54.1741   28.1691 C   0  0  0  0  0  0
    6.6651   54.2351   26.8662 C   0  0  0  0  0  0
    5.8600   54.4947   25.5716 C   0  0  0  0  0  0
    6.7051   54.7038   24.4005 N   0  0  0  0  0  0
    6.1919   54.6932   23.0965 C   0  0  0  0  0  0
    6.9466   55.2968   22.0852 C   0  0  0  0  0  0
    6.4603   55.2844   20.7770 C   0  0  0  0  0  0
    5.2541   54.6296   20.4937 C   0  0  0  0  0  0
    4.5450   54.0676   21.5642 C   0  0  0  0  0  0
    4.9948   54.0966   22.8450 N   0  0  0  0  0  0
    4.7652   54.5030   19.0532 C   0  0  0  0  0  0
    4.4288   55.7016   18.5797 F   0  0  0  0  0  0
    3.7096   53.6949   18.9485 F   0  0  0  0  0  0
    5.7441   54.0095   18.2942 F   0  0  0  0  0  0
    0.7042   52.8966   21.4579 F   0  0  0  0  0  0
    2.7047   48.1661   20.5892 H   0  0  0  0  0  0
    2.4562   49.7789   18.7282 H   0  0  0  0  0  0
    1.4967   52.0159   19.1707 H   0  0  0  0  0  0
    2.0992   48.8157   22.8816 H   0  0  0  0  0  0
    1.2884   50.3259   24.3675 H   0  0  0  0  0  0
   -0.9111   51.4090   26.4390 H   0  0  0  0  0  0
   -0.5900   51.1840   28.8742 H   0  0  0  0  0  0
    1.4154   52.1100   29.9628 H   0  0  0  0  0  0
    2.8081   53.5081   26.1361 H   0  0  0  0  0  0
    4.5985   52.7786   27.1946 H   0  0  0  0  0  0
    6.4363   53.7330   28.9663 H   0  0  0  0  0  0
    5.5674   55.1897   28.4701 H   0  0  0  0  0  0
    7.2070   53.2953   26.7513 H   0  0  0  0  0  0
    7.4347   54.9958   26.9895 H   0  0  0  0  0  0
    5.2112   55.3634   25.6931 H   0  0  0  0  0  0
    5.1637   53.6741   25.3954 H   0  0  0  0  0  0
    7.5656   55.2191   24.5180 H   0  0  0  0  0  0
    7.8995   55.7599   22.3027 H   0  0  0  0  0  0
    7.0395   55.7307   19.9819 H   0  0  0  0  0  0
    3.5969   53.5691   21.4119 H   0  0  0  0  0  0
  1  6  2  0  0  0
  1  2  1  0  0  0
  1 35  1  0  0  0
  2  3  2  0  0  0
  2 36  1  0  0  0
  3  4  1  0  0  0
  3 37  1  0  0  0
  4  5  2  0  0  0
  4 34  1  0  0  0
  5  6  1  0  0  0
  5  7  1  0  0  0
  6 38  1  0  0  0
  7  8  1  0  0  0
  7 39  1  0  0  0
  8  9  2  0  0  0
  8 10  2  0  0  0
  8 11  1  0  0  0
 11 16  2  0  0  0
 11 12  1  0  0  0
 12 13  2  0  0  0
 12 40  1  0  0  0
 13 14  1  0  0  0
 13 41  1  0  0  0
 14 15  2  0  0  0
 14 42  1  0  0  0
 15 16  1  0  0  0
 15 17  1  0  0  0
 16 43  1  0  0  0
 17 18  2  0  0  0
 17 19  1  0  0  0
 19 20  1  0  0  0
 19 44  1  0  0  0
 20 21  1  0  0  0
 20 45  1  0  0  0
 20 46  1  0  0  0
 21 22  1  0  0  0
 21 47  1  0  0  0
 21 48  1  0  0  0
 22 23  1  0  0  0
 22 49  1  0  0  0
 22 50  1  0  0  0
 23 24  1  0  0  0
 23 51  1  0  0  0
 24 29  2  0  0  0
 24 25  1  0  0  0
 25 26  2  0  0  0
 25 52  1  0  0  0
 26 27  1  0  0  0
 26 53  1  0  0  0
 27 28  2  0  0  0
 27 30  1  0  0  0
 28 29  1  0  0  0
 28 54  1  0  0  0
 30 31  1  0  0  0
 30 32  1  0  0  0
 30 33  1  0  0  0
M  END
> <i_i_glide_confnum>
207

> <i_i_glide_lignum>
3015

> <i_i_glide_posenum>
127

> <i_i_glide_rotatable_bonds>
11

> <i_m_Source_File_Index>
190

> <b_m_subgroup_collapsed>
0

> <r_i_docking_score>
-3.98587

> <r_i_glide_ecoul>
-7.00276

> <r_i_glide_eff_state_penalty>
0

> <r_i_glide_einternal>
16.0592

> <r_i_glide_emodel>
-55.319

> <r_i_glide_energy>
-56.5489

> <r_i_glide_erotb>
0.827314

> <r_i_glide_esite>
-0.0719953

> <r_i_glide_evdw>
-49.5462

> <r_i_glide_gscore>
-3.98587

> <r_i_glide_hbond>
-0.436677

> <r_i_glide_ligand_efficiency>
-0.117232

> <r_i_glide_ligand_efficiency_ln>
-0.880591

> <r_i_glide_ligand_efficiency_sa>
-0.379785

> <r_i_glide_lipo>
-2.65074

> <r_i_glide_metal>
0

> <r_i_glide_rewards>
1.87395

> <s_i_glide_gridfile>
wee1_glide-grid

> <s_m_Source_File>
wee1_decoys_glide_SP.sdf

> <s_m_Source_Path>
/Users/zhangxujun/Desktop

> <s_m_entry_id>
465

> <s_m_entry_name>
wee1_decoys_glide_SP.190

> <s_m_subgroup_title>
wee1_decoys_glide_SP

> <s_m_subgroupid>
wee1_decoys_glide_SP


$$$$
