ZINC40400673_5916
                    3D
 Schrodinger Suite 2024-2.
 54 57  0  0  1  0            999 V2000
   -2.3275   51.2522   27.2872 C   0  0  0  0  0  0
   -0.9873   51.8315   26.8356 C   0  0  0  0  0  0
   -0.6812   52.3684   25.6121 C   0  0  0  0  0  0
    0.7748   52.8703   25.3188 C   0  0  1  0  0  0
    0.7096   53.9198   25.0307 H   0  0  0  0  0  0
    1.6066   52.8333   26.5692 N   0  0  0  0  0  0
    2.8661   53.4032   26.7803 C   0  0  0  0  0  0
    3.3422   53.1073   28.0072 C   0  0  0  0  0  0
    2.2934   52.0982   28.9767 S   0  0  0  0  0  0
    1.0858   52.1797   27.6900 C   0  0  0  0  0  0
   -0.0732   51.6792   27.8318 N   0  0  0  0  0  0
    3.6312   54.2400   25.8518 C   0  0  0  0  0  0
    4.9795   54.3683   25.8137 C   0  0  0  0  0  0
    5.8991   53.7731   26.4881 O   0  5  0  0  0  0
    5.5785   55.2968   24.9973 N   0  0  0  0  0  0
    6.7217   55.1691   24.0965 C   0  0  0  0  0  0
    6.3045   54.8967   22.6722 C   0  0  0  0  0  0
    5.3913   54.0394   22.0797 C   0  0  0  0  0  0
    5.4103   54.3044   20.7092 C   0  0  0  0  0  0
    6.3572   55.2967   20.5204 C   0  0  0  0  0  0
    6.9096   55.6452   21.7103 O   0  0  0  0  0  0
    1.4118   52.1544   24.1230 C   0  0  0  0  0  0
    1.8790   52.8961   23.0323 C   0  0  0  0  0  0
    2.3403   52.2422   21.8930 C   0  0  0  0  0  0
    2.3469   50.8507   21.8485 C   0  0  0  0  0  0
    1.8931   50.1050   22.9322 C   0  0  0  0  0  0
    1.4188   50.7563   24.0682 C   0  0  0  0  0  0
    2.7940   50.2176   20.7424 F   0  0  0  0  0  0
   -1.7025   52.6670   24.5793 C   0  0  0  0  0  0
   -1.4370   52.8114   23.3844 O   0  0  0  0  0  0
   -2.9297   52.8971   25.0948 O   0  0  0  0  0  0
   -3.9921   53.4216   24.3178 C   0  0  0  0  0  0
   -5.0379   53.9975   25.2483 C   0  0  0  0  0  0
   -6.3439   53.6921   25.2144 C   0  0  0  0  0  0
   -2.9647   52.0415   27.6835 H   0  0  0  0  0  0
   -2.8485   50.7660   26.4629 H   0  0  0  0  0  0
   -2.2158   50.4966   28.0665 H   0  0  0  0  0  0
    4.2885   53.4288   28.4155 H   0  0  0  0  0  0
    3.0605   54.8443   25.1638 H   0  0  0  0  0  0
    5.0843   56.1636   24.8616 H   0  0  0  0  0  0
    7.2981   56.0932   24.1497 H   0  0  0  0  0  0
    7.3900   54.3825   24.4494 H   0  0  0  0  0  0
    4.7730   53.3212   22.5967 H   0  0  0  0  0  0
    4.8132   53.8238   19.9467 H   0  0  0  0  0  0
    6.7302   55.8124   19.6477 H   0  0  0  0  0  0
    1.8590   53.9762   23.0492 H   0  0  0  0  0  0
    2.6838   52.8114   21.0413 H   0  0  0  0  0  0
    1.9013   49.0262   22.8872 H   0  0  0  0  0  0
    1.0430   50.1738   24.8975 H   0  0  0  0  0  0
   -4.4178   52.6420   23.6844 H   0  0  0  0  0  0
   -3.6355   54.2258   23.6721 H   0  0  0  0  0  0
   -4.6734   54.6911   25.9925 H   0  0  0  0  0  0
   -6.7389   52.9998   24.4847 H   0  0  0  0  0  0
   -7.0393   54.1302   25.9150 H   0  0  0  0  0  0
  1  2  1  0  0  0
  1 35  1  0  0  0
  1 36  1  0  0  0
  1 37  1  0  0  0
  2 11  1  0  0  0
  2  3  2  0  0  0
  3  4  1  0  0  0
  3 29  1  0  0  0
  4  5  1  0  0  0
  4  6  1  0  0  0
  4 22  1  0  0  0
  6 10  1  0  0  0
  6  7  1  0  0  0
  7  8  2  0  0  0
  7 12  1  0  0  0
  8  9  1  0  0  0
  8 38  1  0  0  0
  9 10  1  0  0  0
 10 11  2  0  0  0
 12 13  2  0  0  0
 12 39  1  0  0  0
 13 14  1  0  0  0
 13 15  1  0  0  0
 15 16  1  0  0  0
 15 40  1  0  0  0
 16 17  1  0  0  0
 16 41  1  0  0  0
 16 42  1  0  0  0
 17 21  1  0  0  0
 17 18  2  0  0  0
 18 19  1  0  0  0
 18 43  1  0  0  0
 19 20  2  0  0  0
 19 44  1  0  0  0
 20 21  1  0  0  0
 20 45  1  0  0  0
 22 27  2  0  0  0
 22 23  1  0  0  0
 23 24  2  0  0  0
 23 46  1  0  0  0
 24 25  1  0  0  0
 24 47  1  0  0  0
 25 26  2  0  0  0
 25 28  1  0  0  0
 26 27  1  0  0  0
 26 48  1  0  0  0
 27 49  1  0  0  0
 29 30  2  0  0  0
 29 31  1  0  0  0
 31 32  1  0  0  0
 32 33  1  0  0  0
 32 50  1  0  0  0
 32 51  1  0  0  0
 33 34  2  0  0  0
 33 52  1  0  0  0
 34 53  1  0  0  0
 34 54  1  0  0  0
M  CHG  1  14  -1
M  END
> <i_i_glide_confnum>
79

> <i_i_glide_lignum>
5917

> <i_i_glide_posenum>
214

> <i_i_glide_rotatable_bonds>
9

> <i_m_Source_File_Index>
467

> <b_m_subgroup_collapsed>
0

> <r_i_docking_score>
-5.67414

> <r_i_glide_ecoul>
-2.62897

> <r_i_glide_eff_state_penalty>
0

> <r_i_glide_einternal>
8.78433

> <r_i_glide_emodel>
-58.8353

> <r_i_glide_energy>
-47.7294

> <r_i_glide_erotb>
0.741643

> <r_i_glide_esite>
0

> <r_i_glide_evdw>
-45.1004

> <r_i_glide_gscore>
-5.67414

> <r_i_glide_hbond>
0

> <r_i_glide_ligand_efficiency>
-0.171944

> <r_i_glide_ligand_efficiency_ln>
-1.2619

> <r_i_glide_ligand_efficiency_sa>
-0.551515

> <r_i_glide_lipo>
-3.02408

> <r_i_glide_metal>
0

> <r_i_glide_rewards>
-0.742334

> <s_i_glide_gridfile>
wee1_glide-grid

> <s_m_Source_File>
wee1_decoys_glide_SP.sdf

> <s_m_Source_Path>
/Users/zhangxujun/Desktop

> <s_m_entry_id>
742

> <s_m_entry_name>
wee1_decoys_glide_SP.467

> <s_m_subgroup_title>
wee1_decoys_glide_SP

> <s_m_subgroupid>
wee1_decoys_glide_SP


$$$$
