ZINC56719765_1385
                    3D
 Schrodinger Suite 2024-2.
 53 56  0  0  1  0            999 V2000
   -5.8742   43.6346   25.6379 C   0  0  0  0  0  0
   -4.9817   44.8615   25.6420 C   0  0  0  0  0  0
   -4.2611   45.2139   26.7854 C   0  0  0  0  0  0
   -3.4458   46.3440   26.7650 C   0  0  0  0  0  0
   -3.3735   47.1123   25.5993 C   0  0  0  0  0  0
   -4.0761   46.7794   24.4788 N   0  0  0  0  0  0
   -4.8667   45.6778   24.5121 C   0  0  0  0  0  0
   -2.6147   48.2912   25.6818 N   0  0  0  0  0  0
   -2.2843   49.1633   24.7010 C   0  0  0  0  0  0
   -2.4933   48.9520   23.5030 O   0  0  0  0  0  0
   -1.7387   50.5430   25.1483 C   0  0  0  0  0  0
   -0.9126   50.4664   26.4552 C   0  0  0  0  0  0
   -0.4897   51.8813   26.8906 C   0  0  0  0  0  0
    0.2752   52.4969   25.7842 N   0  0  0  0  0  0
   -0.4588   52.6310   24.4993 C   0  0  0  0  0  0
   -0.8802   51.2142   24.0440 C   0  0  0  0  0  0
    1.5616   52.8967   25.9911 C   0  0  0  0  0  0
    2.1804   52.5694   27.0056 O   0  0  0  0  0  0
    2.1021   53.6423   24.9977 N   0  0  0  0  0  0
    3.4561   53.9067   24.7122 C   0  0  0  0  0  0
    3.7931   53.8829   23.3519 C   0  0  0  0  0  0
    5.1064   54.0950   22.9319 C   0  0  0  0  0  0
    6.1082   54.3581   23.8639 C   0  0  0  0  0  0
    5.7906   54.4170   25.2192 C   0  0  0  0  0  0
    4.4663   54.2029   25.6547 C   0  0  0  0  0  0
    4.1573   54.3341   26.9935 O   0  0  0  0  0  0
    5.2283   53.9507   27.8537 C   0  0  0  0  0  0
    6.4880   54.7558   27.4694 C   0  0  0  0  0  0
    6.8478   54.5993   26.0915 O   0  0  0  0  0  0
   -6.6403   43.6946   24.8603 H   0  0  0  0  0  0
   -6.3985   43.5433   26.5918 H   0  0  0  0  0  0
   -5.2868   42.7253   25.4928 H   0  0  0  0  0  0
   -4.3267   44.6144   27.6830 H   0  0  0  0  0  0
   -2.8966   46.6228   27.6544 H   0  0  0  0  0  0
   -5.4115   45.4582   23.6058 H   0  0  0  0  0  0
   -2.2609   48.4959   26.6146 H   0  0  0  0  0  0
   -2.6481   51.1244   25.3081 H   0  0  0  0  0  0
   -1.5176   50.1023   27.2814 H   0  0  0  0  0  0
   -0.0038   49.8694   26.3454 H   0  0  0  0  0  0
   -1.3797   52.4959   27.0448 H   0  0  0  0  0  0
    0.0432   51.8780   27.8435 H   0  0  0  0  0  0
   -1.3480   53.2336   24.6949 H   0  0  0  0  0  0
    0.0934   53.1471   23.7145 H   0  0  0  0  0  0
    0.0365   50.6564   23.8404 H   0  0  0  0  0  0
   -1.4556   51.3599   23.1284 H   0  0  0  0  0  0
    1.4905   53.8151   24.2174 H   0  0  0  0  0  0
    3.0382   53.6742   22.6059 H   0  0  0  0  0  0
    5.3477   54.0510   21.8795 H   0  0  0  0  0  0
    7.1310   54.5006   23.5421 H   0  0  0  0  0  0
    5.4270   52.8828   27.7491 H   0  0  0  0  0  0
    4.9502   54.1364   28.8906 H   0  0  0  0  0  0
    7.3362   54.4461   28.0840 H   0  0  0  0  0  0
    6.3058   55.8045   27.6821 H   0  0  0  0  0  0
  1  2  1  0  0  0
  1 30  1  0  0  0
  1 31  1  0  0  0
  1 32  1  0  0  0
  2  7  2  0  0  0
  2  3  1  0  0  0
  3  4  2  0  0  0
  3 33  1  0  0  0
  4  5  1  0  0  0
  4 34  1  0  0  0
  5  6  2  0  0  0
  5  8  1  0  0  0
  6  7  1  0  0  0
  7 35  1  0  0  0
  8  9  1  0  0  0
  8 36  1  0  0  0
  9 10  2  0  0  0
  9 11  1  0  0  0
 11 16  1  0  0  0
 11 12  1  0  0  0
 11 37  1  0  0  0
 12 13  1  0  0  0
 12 38  1  0  0  0
 12 39  1  0  0  0
 13 14  1  0  0  0
 13 40  1  0  0  0
 13 41  1  0  0  0
 14 15  1  0  0  0
 14 17  1  0  0  0
 15 16  1  0  0  0
 15 42  1  0  0  0
 15 43  1  0  0  0
 16 44  1  0  0  0
 16 45  1  0  0  0
 17 18  2  0  0  0
 17 19  1  0  0  0
 19 20  1  0  0  0
 19 46  1  0  0  0
 20 25  2  0  0  0
 20 21  1  0  0  0
 21 22  2  0  0  0
 21 47  1  0  0  0
 22 23  1  0  0  0
 22 48  1  0  0  0
 23 24  2  0  0  0
 23 49  1  0  0  0
 24 29  1  0  0  0
 24 25  1  0  0  0
 25 26  1  0  0  0
 26 27  1  0  0  0
 27 28  1  0  0  0
 27 50  1  0  0  0
 27 51  1  0  0  0
 28 29  1  0  0  0
 28 52  1  0  0  0
 28 53  1  0  0  0
M  END
> <i_i_glide_confnum>
4

> <i_i_glide_lignum>
1386

> <i_i_glide_posenum>
204

> <i_i_glide_rotatable_bonds>
6

> <i_m_Source_File_Index>
5369

> <b_m_subgroup_collapsed>
0

> <r_i_docking_score>
-6.20486

> <r_i_glide_ecoul>
-8.09574

> <r_i_glide_eff_state_penalty>
0

> <r_i_glide_einternal>
10.7548

> <r_i_glide_emodel>
-53.2544

> <r_i_glide_energy>
-41.3411

> <r_i_glide_erotb>
0.746919

> <r_i_glide_esite>
-0.132201

> <r_i_glide_evdw>
-33.2453

> <r_i_glide_gscore>
-6.20486

> <r_i_glide_hbond>
-0.385728

> <r_i_glide_ligand_efficiency>
-0.213961

> <r_i_glide_ligand_efficiency_ln>
-1.42076

> <r_i_glide_ligand_efficiency_sa>
-0.657355

> <r_i_glide_lipo>
-2.22983

> <r_i_glide_metal>
0

> <r_i_glide_rewards>
-1.32739

> <s_i_glide_gridfile>
wee1_glide-grid

> <s_m_Source_File>
wee1_decoys_glide_SP.sdf

> <s_m_Source_Path>
/Users/zhangxujun/Desktop

> <s_m_entry_id>
5644

> <s_m_entry_name>
wee1_decoys_glide_SP.5369

> <s_m_subgroup_title>
wee1_decoys_glide_SP

> <s_m_subgroupid>
wee1_decoys_glide_SP


$$$$
