ZINC13977104_3711
                    3D
 Schrodinger Suite 2024-2.
 39 40  0  0  1  0            999 V2000
    4.6745   53.8802   28.2096 C   0  0  0  0  0  0
    5.0388   54.1279   26.7551 C   0  0  0  0  0  0
    6.3450   54.4977   26.4270 C   0  0  0  0  0  0
    6.7039   54.7282   25.0996 C   0  0  0  0  0  0
    5.7667   54.5930   24.0662 C   0  0  0  0  0  0
    4.4531   54.2269   24.4073 C   0  0  0  0  0  0
    4.0893   53.9934   25.7337 C   0  0  0  0  0  0
    2.1132   53.4065   26.1172 I   0  0  0  0  0  0
    6.1614   54.8966   22.6342 C   0  0  0  0  0  0
    7.1038   55.6571   22.4085 O   0  0  0  0  0  0
    5.4015   54.2919   21.6852 N   0  0  0  0  0  0
    5.4167   54.3115   20.3071 C   0  0  0  0  0  0
    6.4893   55.1134   19.3067 S   0  0  0  0  0  0
    4.4599   53.5614   19.6738 N   0  0  0  0  0  0
    3.3579   52.9556   20.3093 N   0  0  0  0  0  0
    3.5194   51.8877   21.1226 C   0  0  0  0  0  0
    4.5970   51.3095   21.2812 O   0  0  0  0  0  0
    2.2835   51.4211   21.8630 C   0  0  0  0  0  0
    2.2296   50.1178   22.3709 C   0  0  0  0  0  0
    1.1123   49.6791   23.0765 C   0  0  0  0  0  0
    0.0196   50.5295   23.2883 C   0  0  0  0  0  0
    0.0794   51.8377   22.7931 C   0  0  0  0  0  0
    1.1955   52.2791   22.0882 C   0  0  0  0  0  0
   -1.1776   50.0470   24.0168 N   0  3  0  0  0  0
   -2.0666   50.8540   24.2765 O   0  0  0  0  0  0
   -1.2447   48.8566   24.3135 O   0  5  0  0  0  0
    3.8558   54.5371   28.5072 H   0  0  0  0  0  0
    4.3392   52.8501   28.3413 H   0  0  0  0  0  0
    5.5141   54.0585   28.8815 H   0  0  0  0  0  0
    7.0870   54.6102   27.2044 H   0  0  0  0  0  0
    7.7214   55.0158   24.8811 H   0  0  0  0  0  0
    3.6850   54.1240   23.6549 H   0  0  0  0  0  0
    4.7084   53.6726   22.0731 H   0  0  0  0  0  0
    4.6616   53.1233   18.7826 H   0  0  0  0  0  0
    2.5910   53.6091   20.4036 H   0  0  0  0  0  0
    3.0523   49.4323   22.2266 H   0  0  0  0  0  0
    1.1061   48.6678   23.4627 H   0  0  0  0  0  0
   -0.7450   52.5178   22.9528 H   0  0  0  0  0  0
    1.1922   53.2976   21.7280 H   0  0  0  0  0  0
  1  2  1  0  0  0
  1 27  1  0  0  0
  1 28  1  0  0  0
  1 29  1  0  0  0
  2  7  2  0  0  0
  2  3  1  0  0  0
  3  4  2  0  0  0
  3 30  1  0  0  0
  4  5  1  0  0  0
  4 31  1  0  0  0
  5  6  2  0  0  0
  5  9  1  0  0  0
  6  7  1  0  0  0
  6 32  1  0  0  0
  7  8  1  0  0  0
  9 10  2  0  0  0
  9 11  1  0  0  0
 11 12  1  0  0  0
 11 33  1  0  0  0
 12 13  2  0  0  0
 12 14  1  0  0  0
 14 15  1  0  0  0
 14 34  1  0  0  0
 15 16  1  0  0  0
 15 35  1  0  0  0
 16 17  2  0  0  0
 16 18  1  0  0  0
 18 23  2  0  0  0
 18 19  1  0  0  0
 19 20  2  0  0  0
 19 36  1  0  0  0
 20 21  1  0  0  0
 20 37  1  0  0  0
 21 22  2  0  0  0
 21 24  1  0  0  0
 22 23  1  0  0  0
 22 38  1  0  0  0
 23 39  1  0  0  0
 24 25  2  0  0  0
 24 26  1  0  0  0
M  CHG  2  24   1  26  -1
M  END
> <i_i_glide_confnum>
5

> <i_i_glide_lignum>
3712

> <i_i_glide_posenum>
336

> <i_i_glide_rotatable_bonds>
8

> <i_m_Source_File_Index>
2538

> <b_m_subgroup_collapsed>
0

> <r_i_docking_score>
-5.58852

> <r_i_glide_ecoul>
-4.13791

> <r_i_glide_eff_state_penalty>
0

> <r_i_glide_einternal>
1.02402

> <r_i_glide_emodel>
-60.4761

> <r_i_glide_energy>
-44.6364

> <r_i_glide_erotb>
0.606128

> <r_i_glide_esite>
-0.0711033

> <r_i_glide_evdw>
-40.4985

> <r_i_glide_gscore>
-5.58852

> <r_i_glide_hbond>
-0.310477

> <r_i_glide_ligand_efficiency>
-0.214943

> <r_i_glide_ligand_efficiency_ln>
-1.31245

> <r_i_glide_ligand_efficiency_sa>
-0.636768

> <r_i_glide_lipo>
-2.4711

> <r_i_glide_metal>
0

> <r_i_glide_rewards>
-0.69636

> <s_i_glide_gridfile>
wee1_glide-grid

> <s_m_Source_File>
wee1_decoys_glide_SP.sdf

> <s_m_Source_Path>
/Users/zhangxujun/Desktop

> <s_m_entry_id>
2813

> <s_m_entry_name>
wee1_decoys_glide_SP.2538

> <s_m_subgroup_title>
wee1_decoys_glide_SP

> <s_m_subgroupid>
wee1_decoys_glide_SP


$$$$
