ZINC35397150_5272
                    3D
 Schrodinger Suite 2024-2.
 65 68  0  0  1  0            999 V2000
   11.3812   51.2101   14.6151 C   0  0  0  0  0  0
   10.0715   50.5020   15.0343 C   0  0  0  0  0  0
    9.5639   49.6928   13.8102 C   0  0  0  0  0  0
   10.3899   49.4758   16.1504 C   0  0  0  0  0  0
    9.0556   51.5617   15.5391 C   0  0  0  0  0  0
    9.3162   52.2507   16.7321 C   0  0  0  0  0  0
    8.4409   53.2250   17.2050 C   0  0  0  0  0  0
    7.2924   53.5433   16.4758 C   0  0  0  0  0  0
    7.0211   52.8735   15.2814 C   0  0  0  0  0  0
    7.8902   51.8840   14.8241 C   0  0  0  0  0  0
    6.4194   54.6306   16.9336 C   0  0  0  0  0  0
    6.1831   55.7080   16.3127 N   0  0  0  0  0  0
    5.3596   56.4975   17.2026 C   0  0  2  0  0  0
    4.0013   56.8370   16.5369 C   0  0  0  0  0  0
    4.1906   57.6126   15.2203 C   0  0  0  0  0  0
    4.9772   58.9038   15.5486 N   0  3  1  0  0  0
    6.3445   58.6486   16.2346 C   0  0  0  0  0  0
    6.0919   57.8287   17.5206 C   0  0  0  0  0  0
    5.1717   59.7683   14.2858 C   0  0  0  0  0  0
    5.0992   55.7618   18.4091 N   0  0  0  0  0  0
    5.6830   54.6512   18.2382 C   0  0  0  0  0  0
    5.6366   53.1869   19.2847 S   0  0  0  0  0  0
    4.2078   53.5505   20.3772 C   0  0  0  0  0  0
    4.5145   53.5021   21.8789 C   0  0  0  0  0  0
    5.5043   52.8985   22.2917 O   0  0  0  0  0  0
    3.6104   54.0967   22.6842 N   0  0  0  0  0  0
    3.6427   54.0940   24.0895 C   0  0  0  0  0  0
    2.4753   53.7112   24.7574 C   0  0  0  0  0  0
    2.4332   53.6962   26.1503 C   0  0  0  0  0  0
    3.5500   54.0896   26.8896 C   0  0  0  0  0  0
    4.7115   54.4928   26.2322 C   0  0  0  0  0  0
    4.7672   54.4982   24.8393 C   0  0  0  0  0  0
    5.9047   54.9216   24.2371 F   0  0  0  0  0  0
    3.5039   54.0872   28.2405 F   0  0  0  0  0  0
   11.8444   51.7382   15.4498 H   0  0  0  0  0  0
   12.1187   50.4989   14.2361 H   0  0  0  0  0  0
   11.2026   51.9405   13.8226 H   0  0  0  0  0  0
    8.6267   49.1801   14.0215 H   0  0  0  0  0  0
    9.4121   50.3241   12.9346 H   0  0  0  0  0  0
   10.2832   48.9285   13.5118 H   0  0  0  0  0  0
    9.5064   48.9020   16.4302 H   0  0  0  0  0  0
   11.1496   48.7667   15.8276 H   0  0  0  0  0  0
   10.7735   49.9374   17.0568 H   0  0  0  0  0  0
   10.2144   52.0519   17.2966 H   0  0  0  0  0  0
    8.6811   53.7428   18.1239 H   0  0  0  0  0  0
    6.1417   53.1163   14.6999 H   0  0  0  0  0  0
    7.6450   51.3914   13.8959 H   0  0  0  0  0  0
    3.4127   57.4706   17.2021 H   0  0  0  0  0  0
    3.4145   55.9358   16.3587 H   0  0  0  0  0  0
    4.7483   57.0565   14.4637 H   0  0  0  0  0  0
    3.2258   57.9283   14.8191 H   0  0  0  0  0  0
    6.9943   58.1424   15.5166 H   0  0  0  0  0  0
    6.7567   59.6301   16.4836 H   0  0  0  0  0  0
    7.0348   57.6371   18.0343 H   0  0  0  0  0  0
    5.4940   58.4545   18.1798 H   0  0  0  0  0  0
    5.7844   59.2113   13.5736 H   0  0  0  0  0  0
    4.1786   59.9839   13.8868 H   0  0  0  0  0  0
    5.6581   60.6935   14.6076 H   0  0  0  0  0  0
    3.7148   54.4899   20.1220 H   0  0  0  0  0  0
    3.4824   52.7570   20.1985 H   0  0  0  0  0  0
    2.7687   54.4558   22.2531 H   0  0  0  0  0  0
    1.5999   53.4050   24.2005 H   0  0  0  0  0  0
    1.5368   53.3895   26.6649 H   0  0  0  0  0  0
    5.5721   54.8017   26.8096 H   0  0  0  0  0  0
    4.4280   59.4644   16.1985 H   0  0  0  0  0  0
  1  2  1  0  0  0
  1 35  1  0  0  0
  1 36  1  0  0  0
  1 37  1  0  0  0
  2  3  1  0  0  0
  2  4  1  0  0  0
  2  5  1  0  0  0
  3 38  1  0  0  0
  3 39  1  0  0  0
  3 40  1  0  0  0
  4 41  1  0  0  0
  4 42  1  0  0  0
  4 43  1  0  0  0
  5 10  2  0  0  0
  5  6  1  0  0  0
  6  7  2  0  0  0
  6 44  1  0  0  0
  7  8  1  0  0  0
  7 45  1  0  0  0
  8  9  2  0  0  0
  8 11  1  0  0  0
  9 10  1  0  0  0
  9 46  1  0  0  0
 10 47  1  0  0  0
 11 21  1  0  0  0
 11 12  2  0  0  0
 12 13  1  0  0  0
 13 18  1  0  0  0
 13 14  1  0  0  0
 13 20  1  0  0  0
 14 15  1  0  0  0
 14 48  1  0  0  0
 14 49  1  0  0  0
 15 16  1  0  0  0
 15 50  1  0  0  0
 15 51  1  0  0  0
 16 17  1  0  0  0
 16 19  1  0  0  0
 16 65  1  0  0  0
 17 18  1  0  0  0
 17 52  1  0  0  0
 17 53  1  0  0  0
 18 54  1  0  0  0
 18 55  1  0  0  0
 19 56  1  0  0  0
 19 57  1  0  0  0
 19 58  1  0  0  0
 20 21  2  0  0  0
 21 22  1  0  0  0
 22 23  1  0  0  0
 23 24  1  0  0  0
 23 59  1  0  0  0
 23 60  1  0  0  0
 24 25  2  0  0  0
 24 26  1  0  0  0
 26 27  1  0  0  0
 26 61  1  0  0  0
 27 32  2  0  0  0
 27 28  1  0  0  0
 28 29  2  0  0  0
 28 62  1  0  0  0
 29 30  1  0  0  0
 29 63  1  0  0  0
 30 31  2  0  0  0
 30 34  1  0  0  0
 31 32  1  0  0  0
 31 64  1  0  0  0
 32 33  1  0  0  0
M  CHG  1  16   1
M  END
> <i_i_glide_confnum>
6

> <i_i_glide_lignum>
5273

> <i_i_glide_posenum>
319

> <i_i_glide_rotatable_bonds>
7

> <i_m_Source_File_Index>
56

> <b_m_subgroup_collapsed>
0

> <r_i_docking_score>
-5.61313

> <r_i_glide_ecoul>
-6.23245

> <r_i_glide_eff_state_penalty>
0

> <r_i_glide_einternal>
7.53347

> <r_i_glide_emodel>
-56.5467

> <r_i_glide_energy>
-43.0888

> <r_i_glide_erotb>
0.430759

> <r_i_glide_esite>
-0.0882213

> <r_i_glide_evdw>
-36.8564

> <r_i_glide_gscore>
-5.61313

> <r_i_glide_hbond>
-0.0893077

> <r_i_glide_ligand_efficiency>
-0.165092

> <r_i_glide_ligand_efficiency_ln>
-1.2401

> <r_i_glide_ligand_efficiency_sa>
-0.534834

> <r_i_glide_lipo>
-1.94083

> <r_i_glide_metal>
0

> <r_i_glide_rewards>
-1.14785

> <s_i_glide_gridfile>
wee1_glide-grid

> <s_m_Source_File>
wee1_decoys_glide_SP.sdf

> <s_m_Source_Path>
/Users/zhangxujun/Desktop

> <s_m_entry_id>
331

> <s_m_entry_name>
wee1_decoys_glide_SP.56

> <s_m_subgroup_title>
wee1_decoys_glide_SP

> <s_m_subgroupid>
wee1_decoys_glide_SP


$$$$
