ZINC38984760_4954
                    3D
 Schrodinger Suite 2024-2.
 55 59  0  0  1  0            999 V2000
    1.6523   52.6126   31.2842 C   0  0  0  0  0  0
    1.8825   52.8705   29.8054 C   0  0  0  0  0  0
    0.8440   52.6191   28.9036 C   0  0  0  0  0  0
    1.0023   52.8268   27.5324 C   0  0  0  0  0  0
    2.2395   53.2916   27.0657 C   0  0  0  0  0  0
    3.2928   53.5447   27.9817 C   0  0  0  0  0  0
    3.1243   53.3353   29.3586 C   0  0  0  0  0  0
    4.7010   54.0965   27.0860 S   0  0  0  0  0  0
    3.7828   53.8873   25.5970 C   0  0  0  0  0  0
    2.5435   53.5050   25.7569 N   0  0  0  0  0  0
    4.4121   54.0976   24.2421 C   0  0  0  0  0  0
    3.6564   53.8946   23.0753 C   0  0  0  0  0  0
    4.2114   54.1174   21.8165 C   0  0  0  0  0  0
    5.5205   54.5816   21.7127 C   0  0  0  0  0  0
    6.3044   54.7373   22.8619 C   0  0  0  0  0  0
    5.7499   54.4968   24.1159 C   0  0  0  0  0  0
    6.0233   54.8929   20.4391 N   0  0  0  0  0  0
    6.6137   56.0565   20.1088 C   0  0  0  0  0  0
    6.7044   57.0066   20.8817 O   0  0  0  0  0  0
    7.1608   56.2108   18.6875 C   0  0  0  0  0  0
    6.2396   57.4554   17.7272 S   0  0  0  0  0  0
    4.9007   56.4565   16.9815 C   0  0  1  0  0  0
    5.4225   55.8415   16.2460 H   0  0  0  0  0  0
    4.3158   55.5478   17.9231 N   0  0  0  0  0  0
    3.1044   55.3926   17.6678 N   0  0  0  0  0  0
    2.7451   56.1845   16.5150 C   0  0  1  0  0  0
    1.8277   56.7181   16.7760 H   0  0  0  0  0  0
    3.8110   57.1610   16.3073 N   0  0  0  0  0  0
    3.5085   58.4966   16.7954 N   0  0  0  0  0  0
    2.4341   55.2818   15.2729 C   0  0  2  0  0  0
    2.1260   55.9168   14.4418 H   0  0  0  0  0  0
    1.4116   54.2170   15.5417 C   0  0  0  0  0  0
    2.0411   53.0647   15.2939 C   0  0  0  0  0  0
    3.3064   53.2798   14.8688 N   0  0  0  0  0  0
    3.5700   54.5180   14.8341 N   0  0  0  0  0  0
    1.5877   51.6257   15.4169 C   0  0  0  0  0  0
    1.0870   53.4360   31.7254 H   0  0  0  0  0  0
    1.0743   51.6969   31.4368 H   0  0  0  0  0  0
    2.5914   52.4942   31.8303 H   0  0  0  0  0  0
   -0.1026   52.2498   29.2744 H   0  0  0  0  0  0
    0.1941   52.6136   26.8499 H   0  0  0  0  0  0
    3.9356   53.5195   30.0470 H   0  0  0  0  0  0
    2.6258   53.5753   23.1377 H   0  0  0  0  0  0
    3.6003   53.9871   20.9339 H   0  0  0  0  0  0
    7.3288   55.0727   22.7881 H   0  0  0  0  0  0
    6.3723   54.6476   24.9838 H   0  0  0  0  0  0
    5.7578   54.2777   19.6859 H   0  0  0  0  0  0
    8.1964   56.5473   18.7651 H   0  0  0  0  0  0
    7.1840   55.2584   18.1550 H   0  0  0  0  0  0
    4.3755   59.0214   16.7758 H   0  0  0  0  0  0
    2.9520   58.9499   16.0848 H   0  0  0  0  0  0
    0.4049   54.3864   15.8930 H   0  0  0  0  0  0
    1.6214   51.1298   14.4457 H   0  0  0  0  0  0
    2.2356   51.0780   16.1054 H   0  0  0  0  0  0
    0.5660   51.5739   15.7935 H   0  0  0  0  0  0
  1  2  1  0  0  0
  1 37  1  0  0  0
  1 38  1  0  0  0
  1 39  1  0  0  0
  2  7  2  0  0  0
  2  3  1  0  0  0
  3  4  2  0  0  0
  3 40  1  0  0  0
  4  5  1  0  0  0
  4 41  1  0  0  0
  5 10  1  0  0  0
  5  6  2  0  0  0
  6  7  1  0  0  0
  6  8  1  0  0  0
  7 42  1  0  0  0
  8  9  1  0  0  0
  9 10  2  0  0  0
  9 11  1  0  0  0
 11 16  2  0  0  0
 11 12  1  0  0  0
 12 13  2  0  0  0
 12 43  1  0  0  0
 13 14  1  0  0  0
 13 44  1  0  0  0
 14 15  2  0  0  0
 14 17  1  0  0  0
 15 16  1  0  0  0
 15 45  1  0  0  0
 16 46  1  0  0  0
 17 18  1  0  0  0
 17 47  1  0  0  0
 18 19  2  0  0  0
 18 20  1  0  0  0
 20 21  1  0  0  0
 20 48  1  0  0  0
 20 49  1  0  0  0
 21 22  1  0  0  0
 22 23  1  0  0  0
 22 28  1  0  0  0
 22 24  1  0  0  0
 24 25  2  0  0  0
 25 26  1  0  0  0
 26 27  1  0  0  0
 26 28  1  0  0  0
 26 30  1  0  0  0
 28 29  1  0  0  0
 29 50  1  0  0  0
 29 51  1  0  0  0
 30 31  1  0  0  0
 30 35  1  0  0  0
 30 32  1  0  0  0
 32 33  2  0  0  0
 32 52  1  0  0  0
 33 34  1  0  0  0
 33 36  1  0  0  0
 34 35  2  0  0  0
 36 53  1  0  0  0
 36 54  1  0  0  0
 36 55  1  0  0  0
M  END
> <i_i_glide_confnum>
208

> <i_i_glide_lignum>
4955

> <i_i_glide_posenum>
346

> <i_i_glide_rotatable_bonds>
7

> <i_m_Source_File_Index>
4452

> <b_m_subgroup_collapsed>
0

> <r_i_docking_score>
-5.64841

> <r_i_glide_ecoul>
-6.75491

> <r_i_glide_eff_state_penalty>
0

> <r_i_glide_einternal>
1.95218

> <r_i_glide_emodel>
-65.6935

> <r_i_glide_energy>
-48.6999

> <r_i_glide_erotb>
0.619329

> <r_i_glide_esite>
-0.0801032

> <r_i_glide_evdw>
-41.945

> <r_i_glide_gscore>
-5.64841

> <r_i_glide_hbond>
-0.32

> <r_i_glide_ligand_efficiency>
-0.171164

> <r_i_glide_ligand_efficiency_ln>
-1.25618

> <r_i_glide_ligand_efficiency_sa>
-0.549015

> <r_i_glide_lipo>
-2.79899

> <r_i_glide_metal>
0

> <r_i_glide_rewards>
0.0418347

> <s_i_glide_gridfile>
wee1_glide-grid

> <s_m_Source_File>
wee1_decoys_glide_SP.sdf

> <s_m_Source_Path>
/Users/zhangxujun/Desktop

> <s_m_entry_id>
4727

> <s_m_entry_name>
wee1_decoys_glide_SP.4452

> <s_m_subgroup_title>
wee1_decoys_glide_SP

> <s_m_subgroupid>
wee1_decoys_glide_SP


$$$$
