ZINC37053445_3844
                    3D
 Schrodinger Suite 2024-2.
 38 39  0  0  1  0            999 V2000
    1.7471   48.8965   20.8901 C   0  0  0  0  0  0
    1.8595   50.3999   21.1612 C   0  0  2  0  0  0
    0.9866   50.8952   20.7290 H   0  0  0  0  0  0
    3.1261   51.0033   20.5103 C   0  0  0  0  0  0
    3.1433   52.5366   20.6835 C   0  0  1  0  0  0
    2.2157   52.9299   20.2585 H   0  0  0  0  0  0
    3.1514   52.8674   22.1937 C   0  0  0  0  0  0
    2.0276   52.1781   22.8933 N   0  0  0  0  0  0
    1.8782   50.7153   22.6768 C   0  0  0  0  0  0
    0.8958   53.0690   23.9247 S   0  0  0  0  0  0
    1.1044   54.4965   23.6801 O   0  0  0  0  0  0
   -0.4387   52.4868   23.7250 O   0  0  0  0  0  0
    1.4135   52.7614   25.6468 C   0  0  0  0  0  0
    0.7046   51.8778   26.4884 C   0  0  0  0  0  0
    1.0929   51.6995   27.8174 C   0  0  0  0  0  0
    2.1810   52.3896   28.3357 C   0  0  0  0  0  0
    2.8971   53.2559   27.5167 C   0  0  0  0  0  0
    2.5385   53.4310   26.1794 C   0  0  0  0  0  0
    3.5556   54.4741   25.2450 Cl  0  0  0  0  0  0
    2.6649   52.1501   29.9753 Cl  0  0  0  0  0  0
   -0.3890   51.1352   26.0564 N   0  0  0  0  0  0
    4.3300   53.1893   19.9585 C   0  0  0  0  0  0
    2.5796   48.3468   21.3318 H   0  0  0  0  0  0
    1.7455   48.6844   19.8210 H   0  0  0  0  0  0
    0.8183   48.4975   21.2999 H   0  0  0  0  0  0
    4.0340   50.5415   20.8993 H   0  0  0  0  0  0
    3.1506   50.7551   19.4473 H   0  0  0  0  0  0
    4.0820   52.5389   22.6535 H   0  0  0  0  0  0
    3.0810   53.9435   22.3531 H   0  0  0  0  0  0
    0.9669   50.3695   23.1673 H   0  0  0  0  0  0
    2.7060   50.2171   23.1781 H   0  0  0  0  0  0
    0.5452   51.0220   28.4566 H   0  0  0  0  0  0
    3.7556   53.7786   27.9121 H   0  0  0  0  0  0
   -0.8554   50.4884   26.6867 H   0  0  0  0  0  0
   -0.7565   51.3283   25.1307 H   0  0  0  0  0  0
    5.2835   52.8307   20.3471 H   0  0  0  0  0  0
    4.3082   52.9675   18.8892 H   0  0  0  0  0  0
    4.3100   54.2751   20.0673 H   0  0  0  0  0  0
  1  2  1  0  0  0
  1 23  1  0  0  0
  1 24  1  0  0  0
  1 25  1  0  0  0
  2  3  1  0  0  0
  2  9  1  0  0  0
  2  4  1  0  0  0
  4  5  1  0  0  0
  4 26  1  0  0  0
  4 27  1  0  0  0
  5  6  1  0  0  0
  5  7  1  0  0  0
  5 22  1  0  0  0
  7  8  1  0  0  0
  7 28  1  0  0  0
  7 29  1  0  0  0
  8  9  1  0  0  0
  8 10  1  0  0  0
  9 30  1  0  0  0
  9 31  1  0  0  0
 10 11  2  0  0  0
 10 12  2  0  0  0
 10 13  1  0  0  0
 13 18  2  0  0  0
 13 14  1  0  0  0
 14 15  2  0  0  0
 14 21  1  0  0  0
 15 16  1  0  0  0
 15 32  1  0  0  0
 16 17  2  0  0  0
 16 20  1  0  0  0
 17 18  1  0  0  0
 17 33  1  0  0  0
 18 19  1  0  0  0
 21 34  1  0  0  0
 21 35  1  0  0  0
 22 36  1  0  0  0
 22 37  1  0  0  0
 22 38  1  0  0  0
M  END
> <i_i_glide_confnum>
4

> <i_i_glide_lignum>
3845

> <i_i_glide_posenum>
130

> <i_i_glide_rotatable_bonds>
2

> <i_m_Source_File_Index>
302

> <b_m_subgroup_collapsed>
0

> <r_i_docking_score>
-4.40415

> <r_i_glide_ecoul>
-2.75823

> <r_i_glide_eff_state_penalty>
0

> <r_i_glide_einternal>
3.26934

> <r_i_glide_emodel>
-39.2835

> <r_i_glide_energy>
-32.2605

> <r_i_glide_erotb>
0.33226

> <r_i_glide_esite>
-0.0301919

> <r_i_glide_evdw>
-29.5023

> <r_i_glide_gscore>
-4.40415

> <r_i_glide_hbond>
0

> <r_i_glide_ligand_efficiency>
-0.220207

> <r_i_glide_ligand_efficiency_ln>
-1.10221

> <r_i_glide_ligand_efficiency_sa>
-0.597735

> <r_i_glide_lipo>
-1.34388

> <r_i_glide_metal>
0

> <r_i_glide_rewards>
-1.47349

> <s_i_glide_gridfile>
wee1_glide-grid

> <s_m_Source_File>
wee1_decoys_glide_SP.sdf

> <s_m_Source_Path>
/Users/zhangxujun/Desktop

> <s_m_entry_id>
577

> <s_m_entry_name>
wee1_decoys_glide_SP.302

> <s_m_subgroup_title>
wee1_decoys_glide_SP

> <s_m_subgroupid>
wee1_decoys_glide_SP


$$$$
