ZINC00987151_2825
                    3D
 Schrodinger Suite 2024-2.
 52 57  0  0  1  0            999 V2000
   -1.6052   47.8497   23.3429 C   0  0  0  0  0  0
   -2.0654   48.1785   24.6145 C   0  0  0  0  0  0
   -1.4261   49.1802   25.3385 C   0  0  0  0  0  0
   -0.3205   49.8499   24.8017 C   0  0  0  0  0  0
    0.1637   49.4733   23.5472 C   0  0  0  0  0  0
   -0.4956   48.4967   22.8059 C   0  0  0  0  0  0
    0.3044   50.9848   25.5519 C   0  0  0  0  0  0
    0.6995   52.2670   25.0666 C   0  0  0  0  0  0
    1.1471   52.8955   26.2194 C   0  0  0  0  0  0
    0.9936   52.0295   27.2589 N   0  0  0  0  0  0
    0.4781   50.8703   26.8551 N   0  0  0  0  0  0
    1.3323   52.2363   28.6012 C   0  0  0  0  0  0
    0.3228   52.3143   29.5647 C   0  0  0  0  0  0
    0.6686   52.4681   30.9031 C   0  0  0  0  0  0
    2.0114   52.4877   31.2662 C   0  0  0  0  0  0
    3.0196   52.4585   30.3037 C   0  0  0  0  0  0
    2.6787   52.3439   28.9594 C   0  0  0  0  0  0
    0.5356   52.9130   23.6860 C   0  0  1  0  0  0
    0.4744   53.9918   23.8378 H   0  0  0  0  0  0
    1.6444   52.6848   22.6305 C   0  0  0  0  0  0
    3.0333   52.9891   22.4485 C   0  0  0  0  0  0
    3.4783   52.5293   21.2860 N   0  0  0  0  0  0
    2.4325   51.9952   20.6623 N   0  0  0  0  0  0
    2.4891   51.5968   19.7354 H   0  0  0  0  0  0
    1.3135   52.0957   21.4202 C   0  0  0  0  0  0
    0.0909   51.6712   20.9708 O   0  0  0  0  0  0
   -0.9284   51.9396   21.8292 C   0  0  0  0  0  0
   -0.8207   52.4966   23.0622 C   0  0  0  0  0  0
   -2.0082   52.7186   23.8251 C   0  0  0  0  0  0
   -2.9948   52.8967   24.4019 N   0  0  0  0  0  0
   -2.0826   51.5151   21.2302 N   0  0  0  0  0  0
    4.0126   53.6967   23.3039 C   0  0  0  0  0  0
    5.3906   53.8264   23.0803 C   0  0  0  0  0  0
    6.0793   54.4960   24.0955 C   0  0  0  0  0  0
    5.2400   54.8968   25.1186 C   0  0  0  0  0  0
    3.5877   54.4954   24.7872 S   0  0  0  0  0  0
   -2.1083   47.0843   22.7711 H   0  0  0  0  0  0
   -2.9206   47.6729   25.0380 H   0  0  0  0  0  0
   -1.7995   49.4415   26.3197 H   0  0  0  0  0  0
    1.0335   49.9594   23.1328 H   0  0  0  0  0  0
   -0.1383   48.2375   21.8201 H   0  0  0  0  0  0
    1.5062   53.8940   26.4092 H   0  0  0  0  0  0
   -0.7184   52.2310   29.2854 H   0  0  0  0  0  0
   -0.0956   52.4969   31.6671 H   0  0  0  0  0  0
    2.2697   52.4972   32.3148 H   0  0  0  0  0  0
    4.0582   52.4925   30.5995 H   0  0  0  0  0  0
    3.4555   52.2922   28.2085 H   0  0  0  0  0  0
   -2.9401   51.5072   21.7635 H   0  0  0  0  0  0
   -2.0217   50.8529   20.4711 H   0  0  0  0  0  0
    5.8875   53.4250   22.2093 H   0  0  0  0  0  0
    7.1465   54.6675   24.0830 H   0  0  0  0  0  0
    5.5014   55.4225   26.0246 H   0  0  0  0  0  0
  1  6  2  0  0  0
  1  2  1  0  0  0
  1 37  1  0  0  0
  2  3  2  0  0  0
  2 38  1  0  0  0
  3  4  1  0  0  0
  3 39  1  0  0  0
  4  5  2  0  0  0
  4  7  1  0  0  0
  5  6  1  0  0  0
  5 40  1  0  0  0
  6 41  1  0  0  0
  7 11  2  0  0  0
  7  8  1  0  0  0
  8  9  2  0  0  0
  8 18  1  0  0  0
  9 10  1  0  0  0
  9 42  1  0  0  0
 10 11  1  0  0  0
 10 12  1  0  0  0
 12 17  2  0  0  0
 12 13  1  0  0  0
 13 14  2  0  0  0
 13 43  1  0  0  0
 14 15  1  0  0  0
 14 44  1  0  0  0
 15 16  2  0  0  0
 15 45  1  0  0  0
 16 17  1  0  0  0
 16 46  1  0  0  0
 17 47  1  0  0  0
 18 19  1  0  0  0
 18 28  1  0  0  0
 18 20  1  0  0  0
 20 25  2  0  0  0
 20 21  1  0  0  0
 21 22  2  0  0  0
 21 32  1  0  0  0
 22 23  1  0  0  0
 23 24  1  0  0  0
 23 25  1  0  0  0
 25 26  1  0  0  0
 26 27  1  0  0  0
 27 28  2  0  0  0
 27 31  1  0  0  0
 28 29  1  0  0  0
 29 30  3  0  0  0
 31 48  1  0  0  0
 31 49  1  0  0  0
 32 36  1  0  0  0
 32 33  2  0  0  0
 33 34  1  0  0  0
 33 50  1  0  0  0
 34 35  2  0  0  0
 34 51  1  0  0  0
 35 36  1  0  0  0
 35 52  1  0  0  0
M  END
> <i_i_glide_confnum>
19

> <i_i_glide_lignum>
2826

> <i_i_glide_posenum>
167

> <i_i_glide_rotatable_bonds>
5

> <i_m_Source_File_Index>
5415

> <b_m_subgroup_collapsed>
0

> <r_i_docking_score>
-5.25526

> <r_i_glide_ecoul>
-2.17773

> <r_i_glide_eff_state_penalty>
0

> <r_i_glide_einternal>
8.81523

> <r_i_glide_emodel>
-57.6467

> <r_i_glide_energy>
-47.2174

> <r_i_glide_erotb>
0.376657

> <r_i_glide_esite>
-0.0260189

> <r_i_glide_evdw>
-45.0397

> <r_i_glide_gscore>
-5.25526

> <r_i_glide_hbond>
0

> <r_i_glide_ligand_efficiency>
-0.154566

> <r_i_glide_ligand_efficiency_ln>
-1.16103

> <r_i_glide_ligand_efficiency_sa>
-0.500735

> <r_i_glide_lipo>
-2.44625

> <r_i_glide_metal>
0

> <r_i_glide_rewards>
-0.581002

> <s_i_glide_gridfile>
wee1_glide-grid

> <s_m_Source_File>
wee1_decoys_glide_SP.sdf

> <s_m_Source_Path>
/Users/zhangxujun/Desktop

> <s_m_entry_id>
5690

> <s_m_entry_name>
wee1_decoys_glide_SP.5415

> <s_m_subgroup_title>
wee1_decoys_glide_SP

> <s_m_subgroupid>
wee1_decoys_glide_SP


$$$$
