ZINC57381976_3843
                    3D
 Schrodinger Suite 2024-2.
 40 42  0  0  1  0            999 V2000
    4.9115   53.4469   18.4285 C   0  0  0  0  0  0
    6.2602   54.1422   18.4091 C   0  0  0  0  0  0
    7.1202   54.0930   17.2993 C   0  0  0  0  0  0
    8.2703   54.8533   17.4317 C   0  0  0  0  0  0
    8.3103   55.6991   18.9332 S   0  0  0  0  0  0
    6.8010   54.9715   19.4158 C   0  0  0  0  0  0
    6.2658   55.3369   20.7064 C   0  0  0  0  0  0
    6.5396   56.4178   21.2375 O   0  0  0  0  0  0
    5.4815   54.3846   21.2599 N   0  0  0  0  0  0
    5.0410   54.4878   22.5835 N   0  0  0  0  0  0
    5.8797   54.1892   23.6040 C   0  0  0  0  0  0
    7.0463   53.8107   23.4685 O   0  0  0  0  0  0
    5.2862   54.3033   24.9102 C   0  0  0  0  0  0
    3.9553   54.0988   25.2831 C   0  0  0  0  0  0
    3.7621   54.0379   26.6697 C   0  0  0  0  0  0
    4.9566   54.2533   27.3692 C   0  0  0  0  0  0
    6.3045   54.4950   26.3071 S   0  0  0  0  0  0
    5.0816   54.2734   28.8815 C   0  0  0  0  0  0
    3.8764   53.4999   29.4578 C   0  0  0  0  0  0
    2.5320   54.0216   28.8952 C   0  0  2  0  0  0
    1.7615   53.4043   29.3619 H   0  0  0  0  0  0
    2.4284   53.7576   27.3665 C   0  0  0  0  0  0
    2.2093   55.4784   29.2836 C   0  0  0  0  0  0
    4.1367   54.0644   18.8845 H   0  0  0  0  0  0
    4.5513   53.2216   17.4241 H   0  0  0  0  0  0
    4.9442   52.5070   18.9823 H   0  0  0  0  0  0
    6.8996   53.5131   16.4148 H   0  0  0  0  0  0
    9.0732   54.9728   16.7190 H   0  0  0  0  0  0
    5.3005   53.4829   20.8432 H   0  0  0  0  0  0
    4.1267   54.9045   22.6783 H   0  0  0  0  0  0
    3.1530   53.9265   24.5803 H   0  0  0  0  0  0
    6.0209   53.8197   29.1959 H   0  0  0  0  0  0
    5.1003   55.2956   29.2570 H   0  0  0  0  0  0
    3.9862   52.4362   29.2374 H   0  0  0  0  0  0
    3.8951   53.5961   30.5430 H   0  0  0  0  0  0
    1.6319   54.3625   26.9325 H   0  0  0  0  0  0
    2.1335   52.7216   27.1941 H   0  0  0  0  0  0
    2.9442   56.1723   28.8818 H   0  0  0  0  0  0
    1.2317   55.7835   28.9085 H   0  0  0  0  0  0
    2.1947   55.6076   30.3664 H   0  0  0  0  0  0
  1  2  1  0  0  0
  1 24  1  0  0  0
  1 25  1  0  0  0
  1 26  1  0  0  0
  2  6  2  0  0  0
  2  3  1  0  0  0
  3  4  2  0  0  0
  3 27  1  0  0  0
  4  5  1  0  0  0
  4 28  1  0  0  0
  5  6  1  0  0  0
  6  7  1  0  0  0
  7  8  2  0  0  0
  7  9  1  0  0  0
  9 10  1  0  0  0
  9 29  1  0  0  0
 10 11  1  0  0  0
 10 30  1  0  0  0
 11 12  2  0  0  0
 11 13  1  0  0  0
 13 17  1  0  0  0
 13 14  2  0  0  0
 14 15  1  0  0  0
 14 31  1  0  0  0
 15 22  1  0  0  0
 15 16  2  0  0  0
 16 17  1  0  0  0
 16 18  1  0  0  0
 18 19  1  0  0  0
 18 32  1  0  0  0
 18 33  1  0  0  0
 19 20  1  0  0  0
 19 34  1  0  0  0
 19 35  1  0  0  0
 20 21  1  0  0  0
 20 22  1  0  0  0
 20 23  1  0  0  0
 22 36  1  0  0  0
 22 37  1  0  0  0
 23 38  1  0  0  0
 23 39  1  0  0  0
 23 40  1  0  0  0
M  END
> <i_i_glide_confnum>
49

> <i_i_glide_lignum>
3844

> <i_i_glide_posenum>
186

> <i_i_glide_rotatable_bonds>
5

> <i_m_Source_File_Index>
117

> <b_m_subgroup_collapsed>
0

> <r_i_docking_score>
-6.25081

> <r_i_glide_ecoul>
-2.6643

> <r_i_glide_eff_state_penalty>
0

> <r_i_glide_einternal>
1.71579

> <r_i_glide_emodel>
-63.1593

> <r_i_glide_energy>
-45.2597

> <r_i_glide_erotb>
0.843036

> <r_i_glide_esite>
0

> <r_i_glide_evdw>
-42.5954

> <r_i_glide_gscore>
-6.25081

> <r_i_glide_hbond>
-0.096412

> <r_i_glide_ligand_efficiency>
-0.284128

> <r_i_glide_ligand_efficiency_ln>
-1.52793

> <r_i_glide_ligand_efficiency_sa>
-0.796138

> <r_i_glide_lipo>
-2.59221

> <r_i_glide_metal>
0

> <r_i_glide_rewards>
-1.87581

> <s_i_glide_gridfile>
wee1_glide-grid

> <s_m_Source_File>
wee1_decoys_glide_SP.sdf

> <s_m_Source_Path>
/Users/zhangxujun/Desktop

> <s_m_entry_id>
392

> <s_m_entry_name>
wee1_decoys_glide_SP.117

> <s_m_subgroup_title>
wee1_decoys_glide_SP

> <s_m_subgroupid>
wee1_decoys_glide_SP


$$$$
