ZINC39665315_5542
                    3D
 Schrodinger Suite 2024-2.
 73 77  0  0  1  0            999 V2000
    2.0607   54.8975   29.1629 C   0  0  0  0  0  0
    1.9957   54.3997   27.7039 C   0  0  2  0  0  0
    1.1197   54.8960   27.2838 H   0  0  0  0  0  0
    1.7443   52.8867   27.5056 C   0  0  0  0  0  0
    1.5033   52.5482   26.0981 N   0  0  0  0  0  0
    0.2889   52.3653   25.5450 C   0  0  0  0  0  0
   -0.7423   52.4967   26.2014 O   0  0  0  0  0  0
    0.1632   51.9555   24.0557 C   0  0  1  0  0  0
   -0.7143   52.4965   23.6942 H   0  0  0  0  0  0
    1.3556   52.4714   23.2127 C   0  0  0  0  0  0
    1.4068   51.5377   22.0831 N   0  0  0  0  0  0
    0.4073   50.4683   22.2284 C   0  0  0  0  0  0
    0.0554   50.4353   23.7326 C   0  0  0  0  0  0
    1.1049   49.4797   24.3721 C   0  0  0  0  0  0
    0.8978   49.1919   25.8778 C   0  0  0  0  0  0
   -0.5153   48.6242   26.0816 N   0  3  0  0  0  0
   -1.6525   49.4440   25.4310 C   0  0  0  0  0  0
   -1.3235   49.7530   23.9503 C   0  0  0  0  0  0
    2.2551   51.5631   21.0162 C   0  0  0  0  0  0
    2.2009   50.6907   20.1474 O   0  0  0  0  0  0
    3.2885   52.6660   20.8599 C   0  0  0  0  0  0
    4.1222   53.0470   21.9200 C   0  0  0  0  0  0
    5.1061   54.0168   21.7408 C   0  0  0  0  0  0
    5.2531   54.5822   20.4792 C   0  0  0  0  0  0
    4.4750   54.2352   19.4303 N   0  0  0  0  0  0
    3.5045   53.2892   19.6119 C   0  0  0  0  0  0
    2.7090   52.9602   18.5247 O   0  0  0  0  0  0
    2.9117   53.5128   17.2808 C   0  0  0  0  0  0
    2.1577   54.6159   16.8811 C   0  0  0  0  0  0
    2.3501   55.1651   15.6156 C   0  0  0  0  0  0
    3.2959   54.6039   14.7583 C   0  0  0  0  0  0
    4.0496   53.4988   15.1545 C   0  0  0  0  0  0
    3.8526   52.9503   16.4192 C   0  0  0  0  0  0
    3.0593   54.8935   26.8814 O   0  0  0  0  0  0
    4.3711   54.4966   26.9843 C   0  0  0  0  0  0
    5.2112   55.0096   25.9957 C   0  0  0  0  0  0
    6.5830   54.8177   26.0689 C   0  0  0  0  0  0
    7.0983   54.0997   27.1423 C   0  0  0  0  0  0
    6.2670   53.5105   28.0823 C   0  0  0  0  0  0
    4.8975   53.7011   28.0093 C   0  0  0  0  0  0
    1.2131   54.5273   29.7431 H   0  0  0  0  0  0
    2.9666   54.6120   29.6878 H   0  0  0  0  0  0
    2.0154   55.9876   29.1876 H   0  0  0  0  0  0
    2.5932   52.2928   27.8361 H   0  0  0  0  0  0
    0.9147   52.5704   28.1428 H   0  0  0  0  0  0
    2.3233   52.4610   25.5186 H   0  0  0  0  0  0
    1.2240   53.5120   22.9071 H   0  0  0  0  0  0
    2.2790   52.3242   23.7671 H   0  0  0  0  0  0
    0.6939   49.4884   21.8406 H   0  0  0  0  0  0
   -0.4817   50.7746   21.6734 H   0  0  0  0  0  0
    1.0881   48.5206   23.8526 H   0  0  0  0  0  0
    2.1138   49.8426   24.1716 H   0  0  0  0  0  0
    1.5801   48.4278   26.2394 H   0  0  0  0  0  0
    0.9809   50.0378   26.5500 H   0  0  0  0  0  0
   -0.5274   47.6833   25.7177 H   0  0  0  0  0  0
   -2.5494   48.8328   25.5366 H   0  0  0  0  0  0
   -1.7844   50.3255   26.0513 H   0  0  0  0  0  0
   -2.1171   50.3541   23.4992 H   0  0  0  0  0  0
   -1.3490   48.8073   23.4044 H   0  0  0  0  0  0
    4.0547   52.5785   22.8814 H   0  0  0  0  0  0
    5.7533   54.3066   22.5577 H   0  0  0  0  0  0
    6.0120   55.3272   20.2868 H   0  0  0  0  0  0
    1.4319   55.0450   17.5576 H   0  0  0  0  0  0
    1.7739   56.0218   15.2991 H   0  0  0  0  0  0
    3.4471   55.0251   13.7761 H   0  0  0  0  0  0
    4.7822   53.0670   14.4878 H   0  0  0  0  0  0
    4.4304   52.0957   16.7415 H   0  0  0  0  0  0
    4.7986   55.6082   25.1975 H   0  0  0  0  0  0
    7.2321   55.2529   25.3237 H   0  0  0  0  0  0
    8.1563   54.0161   27.2816 H   0  0  0  0  0  0
    6.6861   52.9276   28.8815 H   0  0  0  0  0  0
    4.2894   53.2593   28.7788 H   0  0  0  0  0  0
   -0.7514   48.4980   27.0809 H   0  0  0  0  0  0
  1  2  1  0  0  0
  1 41  1  0  0  0
  1 42  1  0  0  0
  1 43  1  0  0  0
  2  3  1  0  0  0
  2  4  1  0  0  0
  2 34  1  0  0  0
  4  5  1  0  0  0
  4 44  1  0  0  0
  4 45  1  0  0  0
  5  6  1  0  0  0
  5 46  1  0  0  0
  6  7  2  0  0  0
  6  8  1  0  0  0
  8  9  1  0  0  0
  8 13  1  0  0  0
  8 10  1  0  0  0
 10 11  1  0  0  0
 10 47  1  0  0  0
 10 48  1  0  0  0
 11 12  1  0  0  0
 11 19  1  0  0  0
 12 13  1  0  0  0
 12 49  1  0  0  0
 12 50  1  0  0  0
 13 18  1  0  0  0
 13 14  1  0  0  0
 14 15  1  0  0  0
 14 51  1  0  0  0
 14 52  1  0  0  0
 15 16  1  0  0  0
 15 53  1  0  0  0
 15 54  1  0  0  0
 16 17  1  0  0  0
 16 55  1  0  0  0
 16 73  1  0  0  0
 17 18  1  0  0  0
 17 56  1  0  0  0
 17 57  1  0  0  0
 18 58  1  0  0  0
 18 59  1  0  0  0
 19 20  2  0  0  0
 19 21  1  0  0  0
 21 26  2  0  0  0
 21 22  1  0  0  0
 22 23  2  0  0  0
 22 60  1  0  0  0
 23 24  1  0  0  0
 23 61  1  0  0  0
 24 25  2  0  0  0
 24 62  1  0  0  0
 25 26  1  0  0  0
 26 27  1  0  0  0
 27 28  1  0  0  0
 28 33  2  0  0  0
 28 29  1  0  0  0
 29 30  2  0  0  0
 29 63  1  0  0  0
 30 31  1  0  0  0
 30 64  1  0  0  0
 31 32  2  0  0  0
 31 65  1  0  0  0
 32 33  1  0  0  0
 32 66  1  0  0  0
 33 67  1  0  0  0
 34 35  1  0  0  0
 35 40  2  0  0  0
 35 36  1  0  0  0
 36 37  2  0  0  0
 36 68  1  0  0  0
 37 38  1  0  0  0
 37 69  1  0  0  0
 38 39  2  0  0  0
 38 70  1  0  0  0
 39 40  1  0  0  0
 39 71  1  0  0  0
 40 72  1  0  0  0
M  CHG  1  16   1
M  END
> <i_i_glide_confnum>
51

> <i_i_glide_lignum>
5543

> <i_i_glide_posenum>
326

> <i_i_glide_rotatable_bonds>
10

> <i_m_Source_File_Index>
2892

> <b_m_subgroup_collapsed>
0

> <r_i_docking_score>
-5.067

> <r_i_glide_ecoul>
-3.98988

> <r_i_glide_eff_state_penalty>
0

> <r_i_glide_einternal>
8.47833

> <r_i_glide_emodel>
-50.0629

> <r_i_glide_energy>
-39.0646

> <r_i_glide_erotb>
0.694642

> <r_i_glide_esite>
-0.1

> <r_i_glide_evdw>
-35.0747

> <r_i_glide_gscore>
-5.067

> <r_i_glide_hbond>
-0.171512

> <r_i_glide_ligand_efficiency>
-0.133342

> <r_i_glide_ligand_efficiency_ln>
-1.09259

> <r_i_glide_ligand_efficiency_sa>
-0.448293

> <r_i_glide_lipo>
-2.86201

> <r_i_glide_metal>
0

> <r_i_glide_rewards>
-0.2759

> <s_i_glide_gridfile>
wee1_glide-grid

> <s_m_Source_File>
wee1_decoys_glide_SP.sdf

> <s_m_Source_Path>
/Users/zhangxujun/Desktop

> <s_m_entry_id>
3167

> <s_m_entry_name>
wee1_decoys_glide_SP.2892

> <s_m_subgroup_title>
wee1_decoys_glide_SP

> <s_m_subgroupid>
wee1_decoys_glide_SP


$$$$
