ZINC45829534_2123
                    3D
 Schrodinger Suite 2024-2.
 55 58  0  0  1  0            999 V2000
    6.8863   55.3399   22.1918 C   0  0  0  0  0  0
    6.7101   55.0790   23.5471 C   0  0  0  0  0  0
    5.5575   54.4301   23.9955 C   0  0  0  0  0  0
    4.5734   54.0690   23.0730 C   0  0  0  0  0  0
    4.7400   54.3425   21.7168 C   0  0  0  0  0  0
    5.9043   54.9810   21.2644 C   0  0  0  0  0  0
    6.1052   55.3184   19.8058 C   0  0  0  0  0  0
    6.7593   56.3150   19.4977 O   0  0  0  0  0  0
    5.5549   54.4421   18.9379 N   0  0  0  0  0  0
    5.5529   54.4455   17.5336 C   0  0  0  0  0  0
    5.0392   53.2969   16.9286 C   0  0  0  0  0  0
    4.9961   53.1900   15.5420 C   0  0  0  0  0  0
    5.4620   54.2376   14.7426 C   0  0  0  0  0  0
    5.9656   55.3954   15.3453 C   0  0  0  0  0  0
    6.0128   55.5048   16.7341 C   0  0  0  0  0  0
    5.4007   54.1219   13.2191 C   0  0  0  0  0  0
    5.2994   55.3188   12.6387 F   0  0  0  0  0  0
    6.5162   53.5362   12.7871 F   0  0  0  0  0  0
    4.3554   53.3891   12.8314 F   0  0  0  0  0  0
    5.3101   54.0973   25.3333 N   0  0  0  0  0  0
    6.0145   54.3157   26.4627 C   0  0  0  0  0  0
    7.1010   54.8964   26.5144 O   0  0  0  0  0  0
    5.4047   53.7290   27.7572 C   0  0  0  0  0  0
    3.9231   54.1134   28.1054 C   0  0  2  0  0  0
    3.8867   55.1561   28.4232 H   0  0  0  0  0  0
    3.3646   53.2866   29.2776 C   0  0  0  0  0  0
    3.9015   53.2726   30.3842 O   0  0  0  0  0  0
    2.2127   52.5977   28.9725 N   0  0  0  0  0  0
    1.7913   52.7771   27.7910 C   0  0  0  0  0  0
    2.7062   53.9150   26.7824 S   0  0  0  0  0  0
    0.6506   52.1761   27.2625 N   0  0  0  0  0  0
   -0.2712   51.3081   28.0094 C   0  0  0  0  0  0
   -1.1318   50.6836   26.9082 C   0  0  0  0  0  0
   -1.1976   51.7816   25.8717 C   0  0  0  0  0  0
    0.2432   52.2734   25.8507 C   0  0  0  0  0  0
    7.7971   55.8295   21.8734 H   0  0  0  0  0  0
    7.5026   55.3746   24.2157 H   0  0  0  0  0  0
    3.6686   53.5751   23.4020 H   0  0  0  0  0  0
    3.9465   54.0705   21.0335 H   0  0  0  0  0  0
    5.1083   53.6363   19.3488 H   0  0  0  0  0  0
    4.6747   52.4802   17.5322 H   0  0  0  0  0  0
    4.6027   52.2850   15.0982 H   0  0  0  0  0  0
    6.3211   56.2173   14.7398 H   0  0  0  0  0  0
    6.4024   56.4195   17.1513 H   0  0  0  0  0  0
    4.4371   53.6114   25.4819 H   0  0  0  0  0  0
    6.0535   53.9954   28.5938 H   0  0  0  0  0  0
    5.4916   52.6446   27.6605 H   0  0  0  0  0  0
   -0.8714   51.9222   28.6859 H   0  0  0  0  0  0
    0.2666   50.5367   28.5641 H   0  0  0  0  0  0
   -2.1057   50.3648   27.2804 H   0  0  0  0  0  0
   -0.6389   49.7971   26.4978 H   0  0  0  0  0  0
   -1.5365   51.4381   24.8941 H   0  0  0  0  0  0
   -1.8764   52.5759   26.1914 H   0  0  0  0  0  0
    0.8932   51.6242   25.2628 H   0  0  0  0  0  0
    0.3003   53.2966   25.4752 H   0  0  0  0  0  0
  1  6  2  0  0  0
  1  2  1  0  0  0
  1 36  1  0  0  0
  2  3  2  0  0  0
  2 37  1  0  0  0
  3  4  1  0  0  0
  3 20  1  0  0  0
  4  5  2  0  0  0
  4 38  1  0  0  0
  5  6  1  0  0  0
  5 39  1  0  0  0
  6  7  1  0  0  0
  7  8  2  0  0  0
  7  9  1  0  0  0
  9 10  1  0  0  0
  9 40  1  0  0  0
 10 15  2  0  0  0
 10 11  1  0  0  0
 11 12  2  0  0  0
 11 41  1  0  0  0
 12 13  1  0  0  0
 12 42  1  0  0  0
 13 14  2  0  0  0
 13 16  1  0  0  0
 14 15  1  0  0  0
 14 43  1  0  0  0
 15 44  1  0  0  0
 16 17  1  0  0  0
 16 18  1  0  0  0
 16 19  1  0  0  0
 20 21  1  0  0  0
 20 45  1  0  0  0
 21 22  2  0  0  0
 21 23  1  0  0  0
 23 24  1  0  0  0
 23 46  1  0  0  0
 23 47  1  0  0  0
 24 25  1  0  0  0
 24 30  1  0  0  0
 24 26  1  0  0  0
 26 27  2  0  0  0
 26 28  1  0  0  0
 28 29  2  0  0  0
 29 30  1  0  0  0
 29 31  1  0  0  0
 31 35  1  0  0  0
 31 32  1  0  0  0
 32 33  1  0  0  0
 32 48  1  0  0  0
 32 49  1  0  0  0
 33 34  1  0  0  0
 33 50  1  0  0  0
 33 51  1  0  0  0
 34 35  1  0  0  0
 34 52  1  0  0  0
 34 53  1  0  0  0
 35 54  1  0  0  0
 35 55  1  0  0  0
M  END
> <i_i_glide_confnum>
168

> <i_i_glide_lignum>
2124

> <i_i_glide_posenum>
361

> <i_i_glide_rotatable_bonds>
9

> <i_m_Source_File_Index>
1170

> <b_m_subgroup_collapsed>
0

> <r_i_docking_score>
-6.73905

> <r_i_glide_ecoul>
-9.99099

> <r_i_glide_eff_state_penalty>
0

> <r_i_glide_einternal>
2.99006

> <r_i_glide_emodel>
-73.8381

> <r_i_glide_energy>
-52.8499

> <r_i_glide_erotb>
0.676704

> <r_i_glide_esite>
-0.00547737

> <r_i_glide_evdw>
-42.859

> <r_i_glide_gscore>
-6.73905

> <r_i_glide_hbond>
-0.601406

> <r_i_glide_ligand_efficiency>
-0.198207

> <r_i_glide_ligand_efficiency_ln>
-1.48885

> <r_i_glide_ligand_efficiency_sa>
-0.642115

> <r_i_glide_lipo>
-1.95264

> <r_i_glide_metal>
0

> <r_i_glide_rewards>
-1.21464

> <s_i_glide_gridfile>
wee1_glide-grid

> <s_m_Source_File>
wee1_decoys_glide_SP.sdf

> <s_m_Source_Path>
/Users/zhangxujun/Desktop

> <s_m_entry_id>
1445

> <s_m_entry_name>
wee1_decoys_glide_SP.1170

> <s_m_subgroup_title>
wee1_decoys_glide_SP

> <s_m_subgroupid>
wee1_decoys_glide_SP


$$$$
