ZINC66673204_1558
                    3D
 Schrodinger Suite 2024-2.
 52 55  0  0  1  0            999 V2000
   -2.2786   50.8050   20.5229 C   0  0  0  0  0  0
   -1.3222   50.1428   19.5090 C   0  0  0  0  0  0
   -1.8257   50.3022   18.0603 C   0  0  0  0  0  0
    0.0528   50.6547   19.6200 N   0  0  0  0  0  0
    0.5038   51.8124   20.2087 C   0  0  0  0  0  0
    1.8707   51.8409   20.0192 C   0  0  0  0  0  0
    2.1351   50.6730   19.2841 C   0  0  0  0  0  0
    1.0539   49.9636   19.0495 N   0  0  0  0  0  0
    2.7239   52.8377   20.4506 N   0  0  0  0  0  0
    3.9800   52.6276   20.8975 C   0  0  0  0  0  0
    4.5498   51.5332   20.8845 O   0  0  0  0  0  0
    4.6965   53.8538   21.4972 C   0  0  2  0  0  0
    3.9181   54.5532   21.8083 H   0  0  0  0  0  0
    5.5974   54.5396   20.4501 C   0  0  0  0  0  0
    6.4349   55.6525   21.1253 C   0  0  0  0  0  0
    7.1201   55.2356   22.4594 C   0  0  0  0  0  0
    6.0977   54.6203   23.3325 N   0  0  0  0  0  0
    5.4933   53.4115   22.7520 C   0  0  0  0  0  0
    6.0010   54.9448   24.6579 C   0  0  0  0  0  0
    6.8106   55.6969   25.2054 O   0  0  0  0  0  0
    4.8647   54.3921   25.5040 C   0  0  0  0  0  0
    3.5637   54.2527   24.9932 C   0  0  0  0  0  0
    2.5126   53.6968   25.7257 C   0  0  0  0  0  0
    2.7972   53.3179   27.0381 C   0  0  0  0  0  0
    4.0795   53.4856   27.6093 C   0  0  0  0  0  0
    5.1135   54.0446   26.8408 C   0  0  0  0  0  0
    3.9395   52.9704   28.9307 C   0  0  0  0  0  0
    2.7279   52.5403   29.1611 N   0  0  0  0  0  0
    2.0253   52.7450   28.0317 N   0  0  0  0  0  0
    1.0552   52.4723   27.9792 H   0  0  0  0  0  0
   -3.2671   50.3456   20.4827 H   0  0  0  0  0  0
   -2.4083   51.8680   20.3202 H   0  0  0  0  0  0
   -1.9140   50.6974   21.5465 H   0  0  0  0  0  0
   -1.2766   49.0770   19.7466 H   0  0  0  0  0  0
   -2.8309   49.8949   17.9468 H   0  0  0  0  0  0
   -1.8605   51.3507   17.7633 H   0  0  0  0  0  0
   -1.1838   49.7799   17.3510 H   0  0  0  0  0  0
   -0.1636   52.4965   20.7047 H   0  0  0  0  0  0
    3.1043   50.3570   18.9248 H   0  0  0  0  0  0
    2.3397   53.7775   20.4824 H   0  0  0  0  0  0
    6.3047   53.8319   20.0203 H   0  0  0  0  0  0
    5.0056   55.0098   19.6622 H   0  0  0  0  0  0
    7.2033   55.9935   20.4305 H   0  0  0  0  0  0
    5.8066   56.5266   21.2815 H   0  0  0  0  0  0
    7.8979   54.4959   22.2591 H   0  0  0  0  0  0
    7.5941   56.1007   22.9225 H   0  0  0  0  0  0
    4.8523   52.8967   23.4550 H   0  0  0  0  0  0
    6.2937   52.7190   22.4845 H   0  0  0  0  0  0
    3.3446   54.5724   23.9857 H   0  0  0  0  0  0
    1.5303   53.5793   25.2960 H   0  0  0  0  0  0
    6.0990   54.1625   27.2698 H   0  0  0  0  0  0
    4.7041   52.8988   29.6818 H   0  0  0  0  0  0
  1  2  1  0  0  0
  1 31  1  0  0  0
  1 32  1  0  0  0
  1 33  1  0  0  0
  2  3  1  0  0  0
  2  4  1  0  0  0
  2 34  1  0  0  0
  3 35  1  0  0  0
  3 36  1  0  0  0
  3 37  1  0  0  0
  4  8  1  0  0  0
  4  5  1  0  0  0
  5  6  2  0  0  0
  5 38  1  0  0  0
  6  7  1  0  0  0
  6  9  1  0  0  0
  7  8  2  0  0  0
  7 39  1  0  0  0
  9 10  1  0  0  0
  9 40  1  0  0  0
 10 11  2  0  0  0
 10 12  1  0  0  0
 12 13  1  0  0  0
 12 18  1  0  0  0
 12 14  1  0  0  0
 14 15  1  0  0  0
 14 41  1  0  0  0
 14 42  1  0  0  0
 15 16  1  0  0  0
 15 43  1  0  0  0
 15 44  1  0  0  0
 16 17  1  0  0  0
 16 45  1  0  0  0
 16 46  1  0  0  0
 17 18  1  0  0  0
 17 19  1  0  0  0
 18 47  1  0  0  0
 18 48  1  0  0  0
 19 20  2  0  0  0
 19 21  1  0  0  0
 21 26  2  0  0  0
 21 22  1  0  0  0
 22 23  2  0  0  0
 22 49  1  0  0  0
 23 24  1  0  0  0
 23 50  1  0  0  0
 24 29  1  0  0  0
 24 25  2  0  0  0
 25 26  1  0  0  0
 25 27  1  0  0  0
 26 51  1  0  0  0
 27 28  2  0  0  0
 27 52  1  0  0  0
 28 29  1  0  0  0
 29 30  1  0  0  0
M  END
> <i_i_glide_confnum>
18

> <i_i_glide_lignum>
1559

> <i_i_glide_posenum>
27

> <i_i_glide_rotatable_bonds>
6

> <i_m_Source_File_Index>
2939

> <b_m_subgroup_collapsed>
0

> <r_i_docking_score>
-6.59179

> <r_i_glide_ecoul>
-5.90441

> <r_i_glide_eff_state_penalty>
0

> <r_i_glide_einternal>
5.01535

> <r_i_glide_emodel>
-61.1644

> <r_i_glide_energy>
-45.3132

> <r_i_glide_erotb>
0.670199

> <r_i_glide_esite>
-0.0257759

> <r_i_glide_evdw>
-39.4088

> <r_i_glide_gscore>
-6.59179

> <r_i_glide_hbond>
-0.59532

> <r_i_glide_ligand_efficiency>
-0.235421

> <r_i_glide_ligand_efficiency_ln>
-1.52158

> <r_i_glide_ligand_efficiency_sa>
-0.714877

> <r_i_glide_lipo>
-2.25371

> <r_i_glide_metal>
0

> <r_i_glide_rewards>
-1.53108

> <s_i_glide_gridfile>
wee1_glide-grid

> <s_m_Source_File>
wee1_decoys_glide_SP.sdf

> <s_m_Source_Path>
/Users/zhangxujun/Desktop

> <s_m_entry_id>
3214

> <s_m_entry_name>
wee1_decoys_glide_SP.2939

> <s_m_subgroup_title>
wee1_decoys_glide_SP

> <s_m_subgroupid>
wee1_decoys_glide_SP


$$$$
