ZINC09628040_2240
                    3D
 Schrodinger Suite 2024-2.
 48 51  0  0  1  0            999 V2000
   -0.5835   46.4466   16.9470 C   0  0  0  0  0  0
    0.2395   47.4343   17.7546 C   0  0  0  0  0  0
    0.9567   46.9875   18.8677 C   0  0  0  0  0  0
    1.7403   47.8577   19.6286 C   0  0  0  0  0  0
    1.8070   49.2022   19.2462 C   0  0  0  0  0  0
    1.0781   49.6547   18.1150 C   0  0  0  0  0  0
    0.2919   48.7749   17.3586 C   0  0  0  0  0  0
    1.3612   51.3765   17.9054 S   0  0  0  0  0  0
    2.4104   51.3113   19.3015 C   0  0  0  0  0  0
    2.5260   50.1529   19.8960 N   0  0  0  0  0  0
    3.0198   52.4961   19.6701 N   0  0  0  0  0  0
    4.1060   52.6271   20.4595 C   0  0  0  0  0  0
    4.7040   51.6971   21.0054 O   0  0  0  0  0  0
    4.5936   54.0720   20.6526 C   0  0  0  0  0  0
    5.2129   54.3622   22.0109 C   0  0  0  0  0  0
    6.4725   54.8968   22.2754 C   0  0  0  0  0  0
    6.7044   55.0229   23.9895 S   0  0  0  0  0  0
    5.1073   54.3644   24.1959 C   0  0  0  0  0  0
    4.4801   54.0967   23.0819 N   0  0  0  0  0  0
    4.5072   54.0966   25.4130 N   0  0  0  0  0  0
    5.0583   54.1548   26.6426 C   0  0  0  0  0  0
    6.2284   54.4575   26.8857 O   0  0  0  0  0  0
    4.1288   53.7525   27.7582 C   0  0  0  0  0  0
    4.6525   53.1078   28.8809 C   0  0  0  0  0  0
    3.8181   52.7267   29.9280 C   0  0  0  0  0  0
    2.4513   52.9947   29.8772 C   0  0  0  0  0  0
    1.9183   53.6259   28.7446 C   0  0  0  0  0  0
    2.7504   54.0018   27.6947 C   0  0  0  0  0  0
    1.7099   52.6269   30.9813 O   0  0  0  0  0  0
    0.3463   53.0364   31.0685 C   0  0  0  0  0  0
   -1.5916   46.3656   17.3535 H   0  0  0  0  0  0
   -0.6463   46.7502   15.9013 H   0  0  0  0  0  0
   -0.1230   45.4576   16.9538 H   0  0  0  0  0  0
    0.9102   45.9452   19.1487 H   0  0  0  0  0  0
    2.3009   47.5089   20.4820 H   0  0  0  0  0  0
   -0.2512   49.1257   16.4933 H   0  0  0  0  0  0
    2.6839   53.3249   19.2037 H   0  0  0  0  0  0
    5.3017   54.2827   19.8511 H   0  0  0  0  0  0
    3.7525   54.7470   20.4940 H   0  0  0  0  0  0
    7.2469   55.1930   21.5830 H   0  0  0  0  0  0
    3.5792   53.7091   25.3586 H   0  0  0  0  0  0
    5.7113   52.8972   28.9453 H   0  0  0  0  0  0
    4.2369   52.2375   30.7955 H   0  0  0  0  0  0
    0.8632   53.8358   28.6627 H   0  0  0  0  0  0
    2.3064   54.4963   26.8430 H   0  0  0  0  0  0
   -0.0143   52.8832   32.0832 H   0  0  0  0  0  0
    0.2208   54.0995   30.8572 H   0  0  0  0  0  0
   -0.2848   52.4581   30.3921 H   0  0  0  0  0  0
  1  2  1  0  0  0
  1 31  1  0  0  0
  1 32  1  0  0  0
  1 33  1  0  0  0
  2  7  2  0  0  0
  2  3  1  0  0  0
  3  4  2  0  0  0
  3 34  1  0  0  0
  4  5  1  0  0  0
  4 35  1  0  0  0
  5 10  1  0  0  0
  5  6  2  0  0  0
  6  7  1  0  0  0
  6  8  1  0  0  0
  7 36  1  0  0  0
  8  9  1  0  0  0
  9 10  2  0  0  0
  9 11  1  0  0  0
 11 12  1  0  0  0
 11 37  1  0  0  0
 12 13  2  0  0  0
 12 14  1  0  0  0
 14 15  1  0  0  0
 14 38  1  0  0  0
 14 39  1  0  0  0
 15 19  1  0  0  0
 15 16  2  0  0  0
 16 17  1  0  0  0
 16 40  1  0  0  0
 17 18  1  0  0  0
 18 19  2  0  0  0
 18 20  1  0  0  0
 20 21  1  0  0  0
 20 41  1  0  0  0
 21 22  2  0  0  0
 21 23  1  0  0  0
 23 28  2  0  0  0
 23 24  1  0  0  0
 24 25  2  0  0  0
 24 42  1  0  0  0
 25 26  1  0  0  0
 25 43  1  0  0  0
 26 27  2  0  0  0
 26 29  1  0  0  0
 27 28  1  0  0  0
 27 44  1  0  0  0
 28 45  1  0  0  0
 29 30  1  0  0  0
 30 46  1  0  0  0
 30 47  1  0  0  0
 30 48  1  0  0  0
M  END
> <i_i_glide_confnum>
20

> <i_i_glide_lignum>
2241

> <i_i_glide_posenum>
355

> <i_i_glide_rotatable_bonds>
8

> <i_m_Source_File_Index>
3088

> <b_m_subgroup_collapsed>
0

> <r_i_docking_score>
-5.4282

> <r_i_glide_ecoul>
-4.60683

> <r_i_glide_eff_state_penalty>
0

> <r_i_glide_einternal>
4.41851

> <r_i_glide_emodel>
-68.5858

> <r_i_glide_energy>
-52.3838

> <r_i_glide_erotb>
0.726214

> <r_i_glide_esite>
-0.039683

> <r_i_glide_evdw>
-47.777

> <r_i_glide_gscore>
-5.4282

> <r_i_glide_hbond>
-0.0152069

> <r_i_glide_ligand_efficiency>
-0.18094

> <r_i_glide_ligand_efficiency_ln>
-1.23335

> <r_i_glide_ligand_efficiency_sa>
-0.562222

> <r_i_glide_lipo>
-2.2275

> <r_i_glide_metal>
0

> <r_i_glide_rewards>
-0.792147

> <s_i_glide_gridfile>
wee1_glide-grid

> <s_m_Source_File>
wee1_decoys_glide_SP.sdf

> <s_m_Source_Path>
/Users/zhangxujun/Desktop

> <s_m_entry_id>
3363

> <s_m_entry_name>
wee1_decoys_glide_SP.3088

> <s_m_subgroup_title>
wee1_decoys_glide_SP

> <s_m_subgroupid>
wee1_decoys_glide_SP


$$$$
