ZINC43319912_3587
                    3D
 Schrodinger Suite 2024-2.
 32 33  0  0  1  0            999 V2000
    1.7298   53.0646   26.4083 C   0  0  0  0  0  0
    1.0250   52.9120   27.7492 C   0  0  0  0  0  0
    0.1355   51.8495   28.0161 C   0  0  0  0  0  0
   -0.4131   51.7201   29.2934 C   0  0  0  0  0  0
   -0.0963   52.6298   30.2986 C   0  0  0  0  0  0
    0.7501   53.6998   30.0289 C   0  0  0  0  0  0
    1.3097   53.8407   28.7615 C   0  0  0  0  0  0
    2.1424   54.8823   28.5275 F   0  0  0  0  0  0
   -0.1953   50.8523   27.0885 N   0  0  0  0  0  0
   -1.1668   51.1833   25.6430 S   0  0  0  0  0  0
   -2.0340   50.0181   25.4460 O   0  0  0  0  0  0
   -1.7324   52.5293   25.7792 O   0  0  0  0  0  0
   -0.0033   51.1932   24.2742 C   0  0  0  0  0  0
    0.1364   52.3494   23.4960 C   0  0  0  0  0  0
    1.0894   52.4026   22.4778 C   0  0  0  0  0  0
    1.9028   51.2986   22.2277 C   0  0  0  0  0  0
    1.7504   50.1368   22.9806 C   0  0  0  0  0  0
    0.8000   50.0753   24.0003 C   0  0  0  0  0  0
    0.7044   48.8971   24.7385 N   0  0  0  0  0  0
    3.2393   51.3775   20.8752 Br  0  0  0  0  0  0
    1.1446   53.6901   25.7351 H   0  0  0  0  0  0
    2.7159   53.5152   26.5274 H   0  0  0  0  0  0
    1.9045   52.0971   25.9430 H   0  0  0  0  0  0
   -1.0818   50.8995   29.5211 H   0  0  0  0  0  0
   -0.5224   52.5044   31.2823 H   0  0  0  0  0  0
    0.9789   54.4163   30.8034 H   0  0  0  0  0  0
   -0.5087   49.9832   27.5096 H   0  0  0  0  0  0
   -0.4742   53.2190   23.6939 H   0  0  0  0  0  0
    1.2080   53.3013   21.8888 H   0  0  0  0  0  0
    2.3882   49.2889   22.7787 H   0  0  0  0  0  0
    1.4530   48.2145   24.6651 H   0  0  0  0  0  0
    0.0304   48.8327   25.4910 H   0  0  0  0  0  0
  1  2  1  0  0  0
  1 21  1  0  0  0
  1 22  1  0  0  0
  1 23  1  0  0  0
  2  7  2  0  0  0
  2  3  1  0  0  0
  3  4  2  0  0  0
  3  9  1  0  0  0
  4  5  1  0  0  0
  4 24  1  0  0  0
  5  6  2  0  0  0
  5 25  1  0  0  0
  6  7  1  0  0  0
  6 26  1  0  0  0
  7  8  1  0  0  0
  9 10  1  0  0  0
  9 27  1  0  0  0
 10 11  2  0  0  0
 10 12  2  0  0  0
 10 13  1  0  0  0
 13 18  2  0  0  0
 13 14  1  0  0  0
 14 15  2  0  0  0
 14 28  1  0  0  0
 15 16  1  0  0  0
 15 29  1  0  0  0
 16 17  2  0  0  0
 16 20  1  0  0  0
 17 18  1  0  0  0
 17 30  1  0  0  0
 18 19  1  0  0  0
 19 31  1  0  0  0
 19 32  1  0  0  0
M  END
> <i_i_glide_confnum>
10

> <i_i_glide_lignum>
3588

> <i_i_glide_posenum>
267

> <i_i_glide_rotatable_bonds>
3

> <i_m_Source_File_Index>
1932

> <b_m_subgroup_collapsed>
0

> <r_i_docking_score>
-4.13597

> <r_i_glide_ecoul>
-6.13155

> <r_i_glide_eff_state_penalty>
0

> <r_i_glide_einternal>
5.02952

> <r_i_glide_emodel>
-37.0669

> <r_i_glide_energy>
-32.6326

> <r_i_glide_erotb>
0.445571

> <r_i_glide_esite>
-0.194379

> <r_i_glide_evdw>
-26.501

> <r_i_glide_gscore>
-4.13597

> <r_i_glide_hbond>
-0.445349

> <r_i_glide_ligand_efficiency>
-0.206798

> <r_i_glide_ligand_efficiency_ln>
-1.0351

> <r_i_glide_ligand_efficiency_sa>
-0.561337

> <r_i_glide_lipo>
-1.08651

> <r_i_glide_metal>
0

> <r_i_glide_rewards>
-0.610519

> <s_i_glide_gridfile>
wee1_glide-grid

> <s_m_Source_File>
wee1_decoys_glide_SP.sdf

> <s_m_Source_Path>
/Users/zhangxujun/Desktop

> <s_m_entry_id>
2207

> <s_m_entry_name>
wee1_decoys_glide_SP.1932

> <s_m_subgroup_title>
wee1_decoys_glide_SP

> <s_m_subgroupid>
wee1_decoys_glide_SP


$$$$
