ZINC02667945_5229
                    3D
 Schrodinger Suite 2024-2.
 68 72  0  0  1  0            999 V2000
    2.9443   55.4548   15.0801 C   0  0  0  0  0  0
    1.6857   55.1965   15.8930 C   0  0  0  0  0  0
    0.7214   56.1949   16.1003 C   0  0  0  0  0  0
   -0.6582   55.5770   16.9361 S   0  0  0  0  0  0
    0.0413   53.9920   17.0199 C   0  0  0  0  0  0
    1.3148   53.9338   16.4369 C   0  0  0  0  0  0
    2.1704   52.6433   16.3634 C   0  0  2  0  0  0
    2.9279   52.7253   15.5853 H   0  0  0  0  0  0
    1.3741   51.3962   15.9250 C   0  0  0  0  0  0
    0.4978   51.4994   14.8350 C   0  0  0  0  0  0
   -0.2622   50.4061   14.4293 C   0  0  0  0  0  0
   -0.1378   49.1934   15.0996 C   0  0  0  0  0  0
    0.7481   49.0648   16.1639 C   0  0  0  0  0  0
    1.5043   50.1603   16.5707 C   0  0  0  0  0  0
   -0.8750   48.1305   14.7079 F   0  0  0  0  0  0
    2.2740   52.3821   18.9667 C   0  0  0  0  0  0
    3.2694   52.1770   20.1205 C   0  0  0  0  0  0
    4.1889   53.4126   20.2358 C   0  0  2  0  0  0
    5.0348   53.4097   18.9450 C   0  0  0  0  0  0
    4.1472   53.6153   17.7045 C   0  0  0  0  0  0
    5.1027   53.4015   21.4893 C   0  0  0  0  0  0
    4.4938   53.8014   22.8374 C   0  0  0  0  0  0
    5.3708   54.0963   23.8885 C   0  0  0  0  0  0
    4.8788   54.3935   25.1566 C   0  0  0  0  0  0
    3.5044   54.3874   25.3785 C   0  0  0  0  0  0
    2.6198   54.1216   24.3371 C   0  0  0  0  0  0
    3.1118   53.8569   23.0628 C   0  0  0  0  0  0
   -0.6004   52.9062   17.6064 N   0  0  0  0  0  0
   -1.8564   52.8033   18.0814 C   0  0  0  0  0  0
   -2.7026   53.6955   18.0815 O   0  0  0  0  0  0
   -2.1522   51.5140   18.6506 C   0  0  0  0  0  0
   -3.3321   51.0112   19.1883 C   0  0  0  0  0  0
   -3.0607   49.7126   19.6239 C   0  0  0  0  0  0
   -1.7276   49.4743   19.3355 C   0  0  0  0  0  0
   -1.1753   50.5652   18.7476 O   0  0  0  0  0  0
    0.7383   57.6500   15.6837 C   0  0  0  0  0  0
    3.3184   54.5764   14.5568 H   0  0  0  0  0  0
    2.7627   56.1808   14.2869 H   0  0  0  0  0  0
    3.7530   55.8581   15.6901 H   0  0  0  0  0  0
    0.3905   52.4357   14.3059 H   0  0  0  0  0  0
   -0.9454   50.4973   13.5983 H   0  0  0  0  0  0
    0.8622   48.1149   16.6632 H   0  0  0  0  0  0
    2.2113   50.0202   17.3749 H   0  0  0  0  0  0
    1.6924   53.2960   19.0896 H   0  0  0  0  0  0
    1.6098   51.5233   18.8961 H   0  0  0  0  0  0
    2.7113   52.0047   21.0381 H   0  0  0  0  0  0
    3.8528   51.2611   20.0073 H   0  0  0  0  0  0
    3.5891   54.3257   20.2603 H   0  0  0  0  0  0
    5.6379   52.5013   18.8703 H   0  0  0  0  0  0
    5.7652   54.2190   18.9820 H   0  0  0  0  0  0
    4.7493   53.5303   16.7981 H   0  0  0  0  0  0
    3.6346   54.5768   17.7368 H   0  0  0  0  0  0
    5.5515   52.4139   21.6037 H   0  0  0  0  0  0
    5.9219   54.0997   21.3152 H   0  0  0  0  0  0
    6.4396   54.0711   23.7308 H   0  0  0  0  0  0
    5.5604   54.6036   25.9676 H   0  0  0  0  0  0
    3.1203   54.5984   26.3653 H   0  0  0  0  0  0
    1.5542   54.1393   24.5132 H   0  0  0  0  0  0
    2.3987   53.6864   22.2733 H   0  0  0  0  0  0
   -0.0663   52.0488   17.6067 H   0  0  0  0  0  0
   -4.2803   51.5256   19.2550 H   0  0  0  0  0  0
   -3.7531   49.0297   20.0930 H   0  0  0  0  0  0
   -1.0711   48.6276   19.4821 H   0  0  0  0  0  0
    1.7386   58.0065   15.4380 H   0  0  0  0  0  0
    0.1114   57.8239   14.8085 H   0  0  0  0  0  0
    0.3663   58.2998   16.4759 H   0  0  0  0  0  0
    3.0710   52.4942   17.6360 N   0  3  2  0  0  0
    3.5878   51.6228   17.5382 H   0  0  0  0  0  0
  1  2  1  0  0  0
  1 37  1  0  0  0
  1 38  1  0  0  0
  1 39  1  0  0  0
  2  6  1  0  0  0
  2  3  2  0  0  0
  3  4  1  0  0  0
  3 36  1  0  0  0
  4  5  1  0  0  0
  5  6  2  0  0  0
  5 28  1  0  0  0
  6  7  1  0  0  0
  7  8  1  0  0  0
  7  9  1  0  0  0
  7 67  1  0  0  0
  9 14  2  0  0  0
  9 10  1  0  0  0
 10 11  2  0  0  0
 10 40  1  0  0  0
 11 12  1  0  0  0
 11 41  1  0  0  0
 12 13  2  0  0  0
 12 15  1  0  0  0
 13 14  1  0  0  0
 13 42  1  0  0  0
 14 43  1  0  0  0
 16 17  1  0  0  0
 16 44  1  0  0  0
 16 45  1  0  0  0
 16 67  1  0  0  0
 17 18  1  0  0  0
 17 46  1  0  0  0
 17 47  1  0  0  0
 18 19  1  0  0  0
 18 21  1  0  0  0
 18 48  1  0  0  0
 19 20  1  0  0  0
 19 49  1  0  0  0
 19 50  1  0  0  0
 20 51  1  0  0  0
 20 52  1  0  0  0
 20 67  1  0  0  0
 21 22  1  0  0  0
 21 53  1  0  0  0
 21 54  1  0  0  0
 22 27  2  0  0  0
 22 23  1  0  0  0
 23 24  2  0  0  0
 23 55  1  0  0  0
 24 25  1  0  0  0
 24 56  1  0  0  0
 25 26  2  0  0  0
 25 57  1  0  0  0
 26 27  1  0  0  0
 26 58  1  0  0  0
 27 59  1  0  0  0
 28 29  1  0  0  0
 28 60  1  0  0  0
 29 30  2  0  0  0
 29 31  1  0  0  0
 31 35  1  0  0  0
 31 32  2  0  0  0
 32 33  1  0  0  0
 32 61  1  0  0  0
 33 34  2  0  0  0
 33 62  1  0  0  0
 34 35  1  0  0  0
 34 63  1  0  0  0
 36 64  1  0  0  0
 36 65  1  0  0  0
 36 66  1  0  0  0
 67 68  1  0  0  0
M  CHG  1  67   1
M  END
> <i_i_glide_confnum>
42

> <i_i_glide_lignum>
5230

> <i_i_glide_posenum>
379

> <i_i_glide_rotatable_bonds>
8

> <i_m_Source_File_Index>
5559

> <b_m_subgroup_collapsed>
0

> <r_i_docking_score>
-3.45063

> <r_i_glide_ecoul>
-4.75266

> <r_i_glide_eff_state_penalty>
0

> <r_i_glide_einternal>
11.7538

> <r_i_glide_emodel>
-36.2075

> <r_i_glide_energy>
-32.7953

> <r_i_glide_erotb>
0.644673

> <r_i_glide_esite>
-0.103115

> <r_i_glide_evdw>
-28.0426

> <r_i_glide_gscore>
-3.45063

> <r_i_glide_hbond>
-0.201389

> <r_i_glide_ligand_efficiency>
-0.0958509

> <r_i_glide_ligand_efficiency_ln>
-0.752834

> <r_i_glide_ligand_efficiency_sa>
-0.316493

> <r_i_glide_lipo>
-1.6341

> <r_i_glide_metal>
0

> <r_i_glide_rewards>
-0.0416667

> <s_i_glide_gridfile>
wee1_glide-grid

> <s_m_Source_File>
wee1_decoys_glide_SP.sdf

> <s_m_Source_Path>
/Users/zhangxujun/Desktop

> <s_m_entry_id>
5834

> <s_m_entry_name>
wee1_decoys_glide_SP.5559

> <s_m_subgroup_title>
wee1_decoys_glide_SP

> <s_m_subgroupid>
wee1_decoys_glide_SP


$$$$
