ZINC39667097_589
                    3D
 Schrodinger Suite 2024-2.
 74 77  0  0  1  0            999 V2000
   11.6099   60.9600   18.1741 C   0  0  0  0  0  0
   11.2832   59.6243   18.8705 C   0  0  0  0  0  0
   11.4042   58.3430   17.9964 C   0  0  2  0  0  0
   11.3004   57.5186   18.6973 H   0  0  0  0  0  0
   12.8151   58.1501   17.3896 C   0  0  0  0  0  0
   13.2516   58.8698   16.2665 C   0  0  0  0  0  0
   14.5369   58.7000   15.7659 C   0  0  0  0  0  0
   15.4067   57.8117   16.3918 C   0  0  0  0  0  0
   14.9978   57.0955   17.5116 C   0  0  0  0  0  0
   13.7087   57.2668   18.0098 C   0  0  0  0  0  0
   10.2260   58.1966   16.9802 C   0  0  0  0  0  0
   10.3156   58.7336   15.8718 O   0  0  0  0  0  0
    9.1080   57.5073   17.3230 N   0  0  0  0  0  0
    8.8356   56.8853   18.6196 C   0  0  0  0  0  0
    7.5890   56.0192   18.3556 C   0  0  2  0  0  0
    7.9141   55.0288   18.0296 H   0  0  0  0  0  0
    6.8326   56.7391   17.1980 C   0  0  0  0  0  0
    8.0082   57.3135   16.3714 C   0  0  0  0  0  0
    5.8785   57.8792   17.6877 C   0  0  0  0  0  0
    5.2025   58.6483   16.5370 C   0  0  0  0  0  0
    4.4714   57.6514   15.6129 N   0  3  0  0  0  0
    5.3294   56.4550   15.1453 C   0  0  0  0  0  0
    5.9223   55.7736   16.3979 C   0  0  0  0  0  0
    6.7774   55.8765   19.6729 C   0  0  0  0  0  0
    6.7044   56.8063   20.4812 O   0  0  0  0  0  0
    6.2058   54.6776   19.8737 N   0  0  0  0  0  0
    5.3058   54.3044   20.9695 C   0  0  0  0  0  0
    5.8825   54.4259   22.4020 C   0  0  0  0  0  0
    4.9110   54.2118   23.5736 C   0  0  0  0  0  0
    3.5720   53.8566   23.3518 C   0  0  0  0  0  0
    2.7001   53.6703   24.4194 C   0  0  0  0  0  0
    3.1471   53.8321   25.7301 C   0  0  0  0  0  0
    4.4741   54.2006   25.9617 C   0  0  0  0  0  0
    5.3578   54.3979   24.8954 C   0  0  0  0  0  0
    6.7966   54.7972   25.2037 C   0  0  0  0  0  0
    2.2153   53.5659   26.8959 C   0  0  0  0  0  0
   11.5052   61.8002   18.8586 H   0  0  0  0  0  0
   12.6403   60.9864   17.8186 H   0  0  0  0  0  0
   10.9547   61.1367   17.3182 H   0  0  0  0  0  0
   10.2769   59.6852   19.2919 H   0  0  0  0  0  0
   11.9419   59.5200   19.7336 H   0  0  0  0  0  0
   12.6023   59.5772   15.7770 H   0  0  0  0  0  0
   14.8607   59.2566   14.8999 H   0  0  0  0  0  0
   16.4057   57.6814   16.0080 H   0  0  0  0  0  0
   15.6778   56.4107   17.9950 H   0  0  0  0  0  0
   13.4171   56.7051   18.8822 H   0  0  0  0  0  0
    9.6493   56.2704   19.0040 H   0  0  0  0  0  0
    8.6083   57.7245   19.2816 H   0  0  0  0  0  0
    7.7419   58.1800   15.7649 H   0  0  0  0  0  0
    8.3426   56.5349   15.6826 H   0  0  0  0  0  0
    5.1091   57.5034   18.3617 H   0  0  0  0  0  0
    6.4447   58.6023   18.2765 H   0  0  0  0  0  0
    4.4150   59.2969   16.9172 H   0  0  0  0  0  0
    5.8845   59.2401   15.9254 H   0  0  0  0  0  0
    3.6695   57.2862   16.1169 H   0  0  0  0  0  0
    4.6577   55.7962   14.5911 H   0  0  0  0  0  0
    6.0834   56.8547   14.4652 H   0  0  0  0  0  0
    6.5146   54.9257   16.0499 H   0  0  0  0  0  0
    5.1428   55.3436   17.0302 H   0  0  0  0  0  0
    6.3606   53.9604   19.1806 H   0  0  0  0  0  0
    4.3988   54.8973   20.8840 H   0  0  0  0  0  0
    4.9385   53.2881   20.8141 H   0  0  0  0  0  0
    6.7070   53.7239   22.5096 H   0  0  0  0  0  0
    6.3084   55.4193   22.5316 H   0  0  0  0  0  0
    3.1834   53.7108   22.3575 H   0  0  0  0  0  0
    1.6781   53.3836   24.2231 H   0  0  0  0  0  0
    4.8205   54.3241   26.9759 H   0  0  0  0  0  0
    7.0165   54.7584   26.2708 H   0  0  0  0  0  0
    7.4945   54.1241   24.7048 H   0  0  0  0  0  0
    6.9976   55.8066   24.8408 H   0  0  0  0  0  0
    1.3747   52.9347   26.6034 H   0  0  0  0  0  0
    2.7414   53.0347   27.6892 H   0  0  0  0  0  0
    1.8312   54.4980   27.3095 H   0  0  0  0  0  0
    4.0938   58.1534   14.8165 H   0  0  0  0  0  0
  1  2  1  0  0  0
  1 37  1  0  0  0
  1 38  1  0  0  0
  1 39  1  0  0  0
  2  3  1  0  0  0
  2 40  1  0  0  0
  2 41  1  0  0  0
  3  4  1  0  0  0
  3  5  1  0  0  0
  3 11  1  0  0  0
  5 10  2  0  0  0
  5  6  1  0  0  0
  6  7  2  0  0  0
  6 42  1  0  0  0
  7  8  1  0  0  0
  7 43  1  0  0  0
  8  9  2  0  0  0
  8 44  1  0  0  0
  9 10  1  0  0  0
  9 45  1  0  0  0
 10 46  1  0  0  0
 11 12  2  0  0  0
 11 13  1  0  0  0
 13 18  1  0  0  0
 13 14  1  0  0  0
 14 15  1  0  0  0
 14 47  1  0  0  0
 14 48  1  0  0  0
 15 16  1  0  0  0
 15 17  1  0  0  0
 15 24  1  0  0  0
 17 23  1  0  0  0
 17 18  1  0  0  0
 17 19  1  0  0  0
 18 49  1  0  0  0
 18 50  1  0  0  0
 19 20  1  0  0  0
 19 51  1  0  0  0
 19 52  1  0  0  0
 20 21  1  0  0  0
 20 53  1  0  0  0
 20 54  1  0  0  0
 21 22  1  0  0  0
 21 55  1  0  0  0
 21 74  1  0  0  0
 22 23  1  0  0  0
 22 56  1  0  0  0
 22 57  1  0  0  0
 23 58  1  0  0  0
 23 59  1  0  0  0
 24 25  2  0  0  0
 24 26  1  0  0  0
 26 27  1  0  0  0
 26 60  1  0  0  0
 27 28  1  0  0  0
 27 61  1  0  0  0
 27 62  1  0  0  0
 28 29  1  0  0  0
 28 63  1  0  0  0
 28 64  1  0  0  0
 29 34  2  0  0  0
 29 30  1  0  0  0
 30 31  2  0  0  0
 30 65  1  0  0  0
 31 32  1  0  0  0
 31 66  1  0  0  0
 32 33  2  0  0  0
 32 36  1  0  0  0
 33 34  1  0  0  0
 33 67  1  0  0  0
 34 35  1  0  0  0
 35 68  1  0  0  0
 35 69  1  0  0  0
 35 70  1  0  0  0
 36 71  1  0  0  0
 36 72  1  0  0  0
 36 73  1  0  0  0
M  CHG  1  21   1
M  END
> <i_i_glide_confnum>
373

> <i_i_glide_lignum>
590

> <i_i_glide_posenum>
367

> <i_i_glide_rotatable_bonds>
9

> <i_m_Source_File_Index>
4171

> <b_m_subgroup_collapsed>
0

> <r_i_docking_score>
-4.87628

> <r_i_glide_ecoul>
-7.32421

> <r_i_glide_eff_state_penalty>
0

> <r_i_glide_einternal>
4.88028

> <r_i_glide_emodel>
-50.0196

> <r_i_glide_energy>
-38.5341

> <r_i_glide_erotb>
0.752958

> <r_i_glide_esite>
-0.0165024

> <r_i_glide_evdw>
-31.2099

> <r_i_glide_gscore>
-4.87628

> <r_i_glide_hbond>
-0.32

> <r_i_glide_ligand_efficiency>
-0.14342

> <r_i_glide_ligand_efficiency_ln>
-1.07731

> <r_i_glide_ligand_efficiency_sa>
-0.464625

> <r_i_glide_lipo>
-2.1583

> <r_i_glide_metal>
0

> <r_i_glide_rewards>
-0.475312

> <s_i_glide_gridfile>
wee1_glide-grid

> <s_m_Source_File>
wee1_decoys_glide_SP.sdf

> <s_m_Source_Path>
/Users/zhangxujun/Desktop

> <s_m_entry_id>
4446

> <s_m_entry_name>
wee1_decoys_glide_SP.4171

> <s_m_subgroup_title>
wee1_decoys_glide_SP

> <s_m_subgroupid>
wee1_decoys_glide_SP


$$$$
