ZINC04063778_6081
                    3D
 Schrodinger Suite 2024-2.
 58 62  0  0  1  0            999 V2000
    7.7710   55.6965   20.6395 C   0  0  0  0  0  0
    6.6119   55.2967   21.5468 C   0  0  0  0  0  0
    5.5047   55.1118   21.0497 O   0  0  0  0  0  0
    6.9036   55.1941   22.8574 N   0  0  0  0  0  0
    6.0638   54.8964   23.9471 C   0  0  0  0  0  0
    6.5917   55.1737   25.2030 C   0  0  0  0  0  0
    5.8731   54.8967   26.3583 C   0  0  0  0  0  0
    4.5934   54.3566   26.2695 C   0  0  0  0  0  0
    4.0293   54.0531   25.0117 C   0  0  0  0  0  0
    4.7768   54.3428   23.8592 C   0  0  0  0  0  0
    2.7052   53.2969   24.9619 C   0  0  1  0  0  0
    3.0239   52.2605   24.9385 H   0  0  0  0  0  0
    1.8851   53.4829   26.2346 C   0  0  1  0  0  0
    1.5094   54.4967   26.2546 H   0  0  0  0  0  0
    0.6852   52.5779   25.9333 C   0  0  0  0  0  0
    0.3813   52.8633   24.4390 C   0  0  1  0  0  0
   -0.3898   53.6320   24.3857 H   0  0  0  0  0  0
    1.6904   53.4445   23.8169 C   0  0  2  0  0  0
    1.5565   54.4964   23.5600 H   0  0  0  0  0  0
    2.2577   52.5147   22.3922 Cl  0  0  0  0  0  0
   -0.4459   51.4405   23.6497 S   0  0  0  0  0  0
   -1.7822   50.9945   24.7262 C   0  0  0  0  0  0
   -2.7542   51.9636   24.9942 C   0  0  0  0  0  0
   -3.8475   51.6651   25.8038 C   0  0  0  0  0  0
   -3.9789   50.3903   26.3469 C   0  0  0  0  0  0
   -3.0160   49.4187   26.0816 C   0  0  0  0  0  0
   -1.9007   49.7012   25.2797 C   0  0  0  0  0  0
   -0.8870   48.6397   25.0765 N   0  3  0  0  0  0
    0.3028   48.9345   25.1399 O   0  0  0  0  0  0
   -1.2914   47.4951   24.8811 O   0  5  0  0  0  0
    2.6981   53.2781   27.5332 C   0  0  1  0  0  0
    3.0099   52.2343   27.6005 H   0  0  0  0  0  0
    3.9320   54.0760   27.4821 N   0  0  0  0  0  0
    1.8472   53.5736   28.7762 C   0  0  0  0  0  0
    1.7673   54.8692   29.3129 C   0  0  0  0  0  0
    1.0066   55.1190   30.4563 C   0  0  0  0  0  0
    0.3046   54.0799   31.0661 C   0  0  0  0  0  0
    0.3593   52.7950   30.5296 C   0  0  0  0  0  0
    1.1269   52.5441   29.3920 C   0  0  0  0  0  0
    1.1690   51.2967   28.8820 F   0  0  0  0  0  0
    8.6472   56.0120   21.2077 H   0  0  0  0  0  0
    7.4688   56.5166   19.9885 H   0  0  0  0  0  0
    8.0603   54.8582   20.0066 H   0  0  0  0  0  0
    7.8660   55.3757   23.1121 H   0  0  0  0  0  0
    7.5632   55.6201   25.2811 H   0  0  0  0  0  0
    6.3088   55.1181   27.3225 H   0  0  0  0  0  0
    4.3654   54.0887   22.8965 H   0  0  0  0  0  0
    0.9710   51.5336   26.0777 H   0  0  0  0  0  0
   -0.1453   52.7816   26.6106 H   0  0  0  0  0  0
   -2.6698   52.9507   24.5648 H   0  0  0  0  0  0
   -4.5935   52.4193   26.0069 H   0  0  0  0  0  0
   -4.8193   50.1541   26.9832 H   0  0  0  0  0  0
   -3.1150   48.4432   26.5387 H   0  0  0  0  0  0
    4.4331   54.1357   28.3560 H   0  0  0  0  0  0
    2.3003   55.6864   28.8480 H   0  0  0  0  0  0
    0.9618   56.1170   30.8689 H   0  0  0  0  0  0
   -0.2788   54.2633   31.9568 H   0  0  0  0  0  0
   -0.1920   51.9929   31.0012 H   0  0  0  0  0  0
  1  2  1  0  0  0
  1 41  1  0  0  0
  1 42  1  0  0  0
  1 43  1  0  0  0
  2  3  2  0  0  0
  2  4  1  0  0  0
  4  5  1  0  0  0
  4 44  1  0  0  0
  5 10  2  0  0  0
  5  6  1  0  0  0
  6  7  2  0  0  0
  6 45  1  0  0  0
  7  8  1  0  0  0
  7 46  1  0  0  0
  8 33  1  0  0  0
  8  9  2  0  0  0
  9 10  1  0  0  0
  9 11  1  0  0  0
 10 47  1  0  0  0
 11 12  1  0  0  0
 11 18  1  0  0  0
 11 13  1  0  0  0
 13 14  1  0  0  0
 13 15  1  0  0  0
 13 31  1  0  0  0
 15 16  1  0  0  0
 15 48  1  0  0  0
 15 49  1  0  0  0
 16 17  1  0  0  0
 16 18  1  0  0  0
 16 21  1  0  0  0
 18 19  1  0  0  0
 18 20  1  0  0  0
 21 22  1  0  0  0
 22 27  2  0  0  0
 22 23  1  0  0  0
 23 24  2  0  0  0
 23 50  1  0  0  0
 24 25  1  0  0  0
 24 51  1  0  0  0
 25 26  2  0  0  0
 25 52  1  0  0  0
 26 27  1  0  0  0
 26 53  1  0  0  0
 27 28  1  0  0  0
 28 29  2  0  0  0
 28 30  1  0  0  0
 31 32  1  0  0  0
 31 33  1  0  0  0
 31 34  1  0  0  0
 33 54  1  0  0  0
 34 39  2  0  0  0
 34 35  1  0  0  0
 35 36  2  0  0  0
 35 55  1  0  0  0
 36 37  1  0  0  0
 36 56  1  0  0  0
 37 38  2  0  0  0
 37 57  1  0  0  0
 38 39  1  0  0  0
 38 58  1  0  0  0
 39 40  1  0  0  0
M  CHG  2  28   1  30  -1
M  END
> <i_i_glide_confnum>
55

> <i_i_glide_lignum>
6082

> <i_i_glide_posenum>
218

> <i_i_glide_rotatable_bonds>
6

> <i_m_Source_File_Index>
5582

> <b_m_subgroup_collapsed>
0

> <r_i_docking_score>
-7.13632

> <r_i_glide_ecoul>
-1.01604

> <r_i_glide_eff_state_penalty>
0

> <r_i_glide_einternal>
3.22291

> <r_i_glide_emodel>
-70.7605

> <r_i_glide_energy>
-52.2262

> <r_i_glide_erotb>
0.31276

> <r_i_glide_esite>
-0.196398

> <r_i_glide_evdw>
-51.2102

> <r_i_glide_gscore>
-7.13632

> <r_i_glide_hbond>
-0.32

> <r_i_glide_ligand_efficiency>
-0.203895

> <r_i_glide_ligand_efficiency_ln>
-1.56658

> <r_i_glide_ligand_efficiency_sa>
-0.666954

> <r_i_glide_lipo>
-3.88383

> <r_i_glide_metal>
0

> <r_i_glide_rewards>
-0.335937

> <s_i_glide_gridfile>
wee1_glide-grid

> <s_m_Source_File>
wee1_decoys_glide_SP.sdf

> <s_m_Source_Path>
/Users/zhangxujun/Desktop

> <s_m_entry_id>
5857

> <s_m_entry_name>
wee1_decoys_glide_SP.5582

> <s_m_subgroup_title>
wee1_decoys_glide_SP

> <s_m_subgroupid>
wee1_decoys_glide_SP


$$$$
