ZINC09595252_2747
                    3D
 Schrodinger Suite 2024-2.
 49 53  0  0  1  0            999 V2000
    6.6032   54.9730   23.7846 C   0  0  0  0  0  0
    6.2771   55.3836   25.0718 C   0  0  0  0  0  0
    5.0853   54.9564   25.6498 C   0  0  0  0  0  0
    4.1994   54.1222   24.9427 C   0  0  0  0  0  0
    4.5754   53.6969   23.6570 C   0  0  0  0  0  0
    5.7655   54.1195   23.0801 C   0  0  0  0  0  0
    2.9688   53.6948   25.5501 N   0  0  0  0  0  0
    1.8040   53.1474   25.0030 C   0  0  0  0  0  0
    0.9891   52.8966   26.1025 C   0  0  0  0  0  0
    1.6907   53.2974   27.2268 C   0  0  0  0  0  0
    2.8647   53.7742   26.8969 N   0  0  0  0  0  0
    1.1985   53.2706   28.5809 C   0  0  0  0  0  0
    0.4230   52.2797   29.1785 C   0  0  0  0  0  0
    0.0869   52.5686   30.5015 C   0  0  0  0  0  0
    0.5769   53.7962   30.9162 C   0  0  0  0  0  0
    1.5029   54.5847   29.6821 S   0  0  0  0  0  0
    1.4843   53.0098   23.5911 C   0  0  0  0  0  0
    1.6797   53.9966   22.8821 O   0  0  0  0  0  0
    1.1194   51.7681   23.1127 N   0  0  0  0  0  0
    0.5498   50.7877   24.0746 C   0  0  0  0  0  0
    0.4771   49.3565   23.5067 C   0  0  2  0  0  0
    1.4630   48.8952   23.5670 H   0  0  0  0  0  0
    0.0268   49.3405   22.1524 O   0  0  0  0  0  0
    0.8225   50.1100   21.3368 C   0  0  0  0  0  0
    1.3606   51.3438   21.7599 C   0  0  0  0  0  0
    2.1999   52.0150   20.8414 C   0  0  0  0  0  0
    2.4666   51.4866   19.5776 C   0  0  0  0  0  0
    1.9048   50.2747   19.1898 C   0  0  0  0  0  0
    1.0728   49.5879   20.0684 C   0  0  0  0  0  0
   -0.4956   48.4911   24.3502 C   0  0  0  0  0  0
   -1.3154   47.7396   23.8257 O   0  0  0  0  0  0
   -0.4193   48.5831   25.6816 N   0  0  0  0  0  0
    7.5044   55.3295   23.3167 H   0  0  0  0  0  0
    6.9326   56.0492   25.6111 H   0  0  0  0  0  0
    4.8557   55.2953   26.6495 H   0  0  0  0  0  0
    3.9844   53.0099   23.0780 H   0  0  0  0  0  0
    6.0279   53.7942   22.0847 H   0  0  0  0  0  0
   -0.0226   52.5172   26.1017 H   0  0  0  0  0  0
    0.1137   51.3739   28.6758 H   0  0  0  0  0  0
   -0.4965   51.9121   31.1330 H   0  0  0  0  0  0
    0.4484   54.2574   31.8848 H   0  0  0  0  0  0
   -0.4372   51.1596   24.3549 H   0  0  0  0  0  0
    1.1058   50.7440   25.0073 H   0  0  0  0  0  0
    2.6933   52.9436   21.0772 H   0  0  0  0  0  0
    3.1282   52.0071   18.8992 H   0  0  0  0  0  0
    2.1316   49.8645   18.2151 H   0  0  0  0  0  0
    0.6431   48.6410   19.7779 H   0  0  0  0  0  0
    0.3305   49.0827   26.1305 H   0  0  0  0  0  0
   -1.0522   48.0622   26.2786 H   0  0  0  0  0  0
  1  6  2  0  0  0
  1  2  1  0  0  0
  1 33  1  0  0  0
  2  3  2  0  0  0
  2 34  1  0  0  0
  3  4  1  0  0  0
  3 35  1  0  0  0
  4  5  2  0  0  0
  4  7  1  0  0  0
  5  6  1  0  0  0
  5 36  1  0  0  0
  6 37  1  0  0  0
  7 11  1  0  0  0
  7  8  1  0  0  0
  8  9  2  0  0  0
  8 17  1  0  0  0
  9 10  1  0  0  0
  9 38  1  0  0  0
 10 11  2  0  0  0
 10 12  1  0  0  0
 12 16  1  0  0  0
 12 13  2  0  0  0
 13 14  1  0  0  0
 13 39  1  0  0  0
 14 15  2  0  0  0
 14 40  1  0  0  0
 15 16  1  0  0  0
 15 41  1  0  0  0
 17 18  2  0  0  0
 17 19  1  0  0  0
 19 25  1  0  0  0
 19 20  1  0  0  0
 20 21  1  0  0  0
 20 42  1  0  0  0
 20 43  1  0  0  0
 21 22  1  0  0  0
 21 23  1  0  0  0
 21 30  1  0  0  0
 23 24  1  0  0  0
 24 29  2  0  0  0
 24 25  1  0  0  0
 25 26  2  0  0  0
 26 27  1  0  0  0
 26 44  1  0  0  0
 27 28  2  0  0  0
 27 45  1  0  0  0
 28 29  1  0  0  0
 28 46  1  0  0  0
 29 47  1  0  0  0
 30 31  2  0  0  0
 30 32  1  0  0  0
 32 48  1  0  0  0
 32 49  1  0  0  0
M  END
> <i_i_glide_confnum>
50

> <i_i_glide_lignum>
2748

> <i_i_glide_posenum>
372

> <i_i_glide_rotatable_bonds>
5

> <i_m_Source_File_Index>
3000

> <b_m_subgroup_collapsed>
0

> <r_i_docking_score>
-7.02124

> <r_i_glide_ecoul>
-5.2484

> <r_i_glide_eff_state_penalty>
0

> <r_i_glide_einternal>
13.7052

> <r_i_glide_emodel>
-69.0056

> <r_i_glide_energy>
-51.6045

> <r_i_glide_erotb>
0.429145

> <r_i_glide_esite>
-0.138763

> <r_i_glide_evdw>
-46.3561

> <r_i_glide_gscore>
-7.02124

> <r_i_glide_hbond>
-0.0667797

> <r_i_glide_ligand_efficiency>
-0.226492

> <r_i_glide_ligand_efficiency_ln>
-1.58351

> <r_i_glide_ligand_efficiency_sa>
-0.711497

> <r_i_glide_lipo>
-2.95724

> <r_i_glide_metal>
0

> <r_i_glide_rewards>
-1.18255

> <s_i_glide_gridfile>
wee1_glide-grid

> <s_m_Source_File>
wee1_decoys_glide_SP.sdf

> <s_m_Source_Path>
/Users/zhangxujun/Desktop

> <s_m_entry_id>
3275

> <s_m_entry_name>
wee1_decoys_glide_SP.3000

> <s_m_subgroup_title>
wee1_decoys_glide_SP

> <s_m_subgroupid>
wee1_decoys_glide_SP


$$$$
