ZINC03997137_4781
                    3D
 Schrodinger Suite 2024-2.
 28 29  0  0  1  0            999 V2000
    4.9580   52.9913   28.8160 C   0  0  0  0  0  0
    3.5933   52.9942   28.5736 C   0  0  0  0  0  0
    3.0807   53.6351   27.4435 C   0  0  0  0  0  0
    3.9815   54.2010   26.5127 C   0  0  0  0  0  0
    5.3480   54.2118   26.7816 C   0  0  0  0  0  0
    5.8306   53.6310   27.9463 C   0  0  0  0  0  0
    7.5044   53.6966   28.3137 Cl  0  0  0  0  0  0
    3.4774   54.8967   25.0117 Cl  0  0  0  0  0  0
    1.5626   53.7224   27.2704 C   0  0  2  0  0  0
    1.4485   54.4926   26.5163 H   0  0  0  0  0  0
    0.7641   54.3181   28.4816 C   0  0  1  0  0  0
   -0.1967   54.6348   28.0817 H   0  0  0  0  0  0
    0.4420   53.3351   29.6094 C   0  0  0  0  0  0
    0.4838   53.5756   30.8494 N   0  0  0  0  0  0
   -0.0930   51.7003   29.1431 S   0  0  0  0  0  0
    0.1749   51.5951   27.3956 C   0  0  0  0  0  0
    0.9101   52.4721   26.6797 C   0  0  0  0  0  0
    1.0713   52.2733   25.2731 C   0  0  0  0  0  0
    1.1788   52.1296   24.1305 N   0  0  0  0  0  0
   -0.4526   50.4967   26.8781 N   0  0  0  0  0  0
    1.4081   55.5368   29.0089 C   0  0  0  0  0  0
    1.9046   56.4930   29.4268 N   0  0  0  0  0  0
    5.3387   52.4901   29.6817 H   0  0  0  0  0  0
    2.9478   52.4986   29.2807 H   0  0  0  0  0  0
    6.0332   54.6717   26.0854 H   0  0  0  0  0  0
    0.7570   54.5204   31.0805 H   0  0  0  0  0  0
   -0.3804   50.2603   25.8995 H   0  0  0  0  0  0
   -0.8954   49.8075   27.4857 H   0  0  0  0  0  0
  1  6  2  0  0  0
  1  2  1  0  0  0
  1 23  1  0  0  0
  2  3  2  0  0  0
  2 24  1  0  0  0
  3  4  1  0  0  0
  3  9  1  0  0  0
  4  5  2  0  0  0
  4  8  1  0  0  0
  5  6  1  0  0  0
  5 25  1  0  0  0
  6  7  1  0  0  0
  9 10  1  0  0  0
  9 17  1  0  0  0
  9 11  1  0  0  0
 11 12  1  0  0  0
 11 13  1  0  0  0
 11 21  1  0  0  0
 13 14  2  0  0  0
 13 15  1  0  0  0
 14 26  1  0  0  0
 15 16  1  0  0  0
 16 17  2  0  0  0
 16 20  1  0  0  0
 17 18  1  0  0  0
 18 19  3  0  0  0
 20 27  1  0  0  0
 20 28  1  0  0  0
 21 22  3  0  0  0
M  END
> <i_i_glide_confnum>
3

> <i_i_glide_lignum>
4782

> <i_i_glide_posenum>
153

> <i_i_glide_rotatable_bonds>
3

> <i_m_Source_File_Index>
3349

> <b_m_subgroup_collapsed>
0

> <r_i_docking_score>
-6.05078

> <r_i_glide_ecoul>
-1.08455

> <r_i_glide_eff_state_penalty>
0

> <r_i_glide_einternal>
3.26886

> <r_i_glide_emodel>
-43.6366

> <r_i_glide_energy>
-33.3185

> <r_i_glide_erotb>
0.179121

> <r_i_glide_esite>
-0.0972333

> <r_i_glide_evdw>
-32.2339

> <r_i_glide_gscore>
-6.05078

> <r_i_glide_hbond>
-0.16

> <r_i_glide_ligand_efficiency>
-0.302539

> <r_i_glide_ligand_efficiency_ln>
-1.51431

> <r_i_glide_ligand_efficiency_sa>
-0.821217

> <r_i_glide_lipo>
-2.13186

> <r_i_glide_metal>
0

> <r_i_glide_rewards>
-2.06643

> <s_i_glide_gridfile>
wee1_glide-grid

> <s_m_Source_File>
wee1_decoys_glide_SP.sdf

> <s_m_Source_Path>
/Users/zhangxujun/Desktop

> <s_m_entry_id>
3624

> <s_m_entry_name>
wee1_decoys_glide_SP.3349

> <s_m_subgroup_title>
wee1_decoys_glide_SP

> <s_m_subgroupid>
wee1_decoys_glide_SP


$$$$
