ZINC32738597_1475
                    3D
 Schrodinger Suite 2024-2.
 39 40  0  0  1  0            999 V2000
    5.2398   54.1357   28.5639 C   0  0  0  0  0  0
    4.3543   53.8875   27.3391 C   0  0  0  0  0  0
    4.7736   54.2802   26.0440 C   0  0  0  0  0  0
    3.8978   54.0966   24.9600 C   0  0  0  0  0  0
    2.6376   53.5237   25.1369 C   0  0  0  0  0  0
    2.2432   53.1200   26.4107 C   0  0  0  0  0  0
    3.0870   53.2966   27.5051 C   0  0  0  0  0  0
    2.5265   52.7380   29.0471 Cl  0  0  0  0  0  0
    1.5201   53.3373   23.7420 S   0  0  0  0  0  0
    1.7633   54.4967   22.8827 O   0  0  0  0  0  0
    0.1906   53.0682   24.3008 O   0  0  0  0  0  0
    2.0250   51.8911   22.8454 N   0  0  0  0  0  0
    2.9958   51.9636   21.7325 C   0  0  0  0  0  0
    2.4877   51.1236   20.5357 C   0  0  0  0  0  0
    2.0524   49.6870   20.9798 C   0  0  0  0  0  0
    1.1471   49.6744   22.2553 C   0  0  0  0  0  0
    1.7623   50.5370   23.3679 C   0  0  0  0  0  0
    1.3978   48.8909   19.8206 C   0  0  0  0  0  0
    0.4347   48.1508   20.0181 O   0  0  0  0  0  0
    1.9046   48.9931   18.5915 N   0  0  0  0  0  0
    6.1125   54.8666   25.7791 N   0  3  0  0  0  0
    6.2121   55.6956   24.8818 O   0  0  0  0  0  0
    7.0786   54.4965   26.4385 O   0  5  0  0  0  0
    5.7433   55.1004   28.4942 H   0  0  0  0  0  0
    4.6786   54.1867   29.4959 H   0  0  0  0  0  0
    6.0000   53.3579   28.6504 H   0  0  0  0  0  0
    4.1976   54.4031   23.9663 H   0  0  0  0  0  0
    1.2722   52.6658   26.5603 H   0  0  0  0  0  0
    3.9547   51.5802   22.0815 H   0  0  0  0  0  0
    3.1498   53.0053   21.4448 H   0  0  0  0  0  0
    3.2980   51.0958   19.8039 H   0  0  0  0  0  0
    1.6332   51.6784   20.1428 H   0  0  0  0  0  0
    2.9523   49.1175   21.2092 H   0  0  0  0  0  0
    0.1704   50.1162   22.0474 H   0  0  0  0  0  0
    1.0375   48.6707   22.6690 H   0  0  0  0  0  0
    2.7044   50.0963   23.6848 H   0  0  0  0  0  0
    1.1089   50.6008   24.2396 H   0  0  0  0  0  0
    1.4645   48.4855   17.8405 H   0  0  0  0  0  0
    2.7727   49.4801   18.3955 H   0  0  0  0  0  0
  1  2  1  0  0  0
  1 24  1  0  0  0
  1 25  1  0  0  0
  1 26  1  0  0  0
  2  7  2  0  0  0
  2  3  1  0  0  0
  3  4  2  0  0  0
  3 21  1  0  0  0
  4  5  1  0  0  0
  4 27  1  0  0  0
  5  6  2  0  0  0
  5  9  1  0  0  0
  6  7  1  0  0  0
  6 28  1  0  0  0
  7  8  1  0  0  0
  9 10  2  0  0  0
  9 11  2  0  0  0
  9 12  1  0  0  0
 12 17  1  0  0  0
 12 13  1  0  0  0
 13 14  1  0  0  0
 13 29  1  0  0  0
 13 30  1  0  0  0
 14 15  1  0  0  0
 14 31  1  0  0  0
 14 32  1  0  0  0
 15 16  1  0  0  0
 15 18  1  0  0  0
 15 33  1  0  0  0
 16 17  1  0  0  0
 16 34  1  0  0  0
 16 35  1  0  0  0
 17 36  1  0  0  0
 17 37  1  0  0  0
 18 19  2  0  0  0
 18 20  1  0  0  0
 20 38  1  0  0  0
 20 39  1  0  0  0
 21 22  2  0  0  0
 21 23  1  0  0  0
M  CHG  2  21   1  23  -1
M  END
> <i_i_glide_confnum>
3

> <i_i_glide_lignum>
1476

> <i_i_glide_posenum>
225

> <i_i_glide_rotatable_bonds>
4

> <i_m_Source_File_Index>
3688

> <b_m_subgroup_collapsed>
0

> <r_i_docking_score>
-5.90778

> <r_i_glide_ecoul>
-4.58981

> <r_i_glide_eff_state_penalty>
0

> <r_i_glide_einternal>
1.40365

> <r_i_glide_emodel>
-53.5137

> <r_i_glide_energy>
-39.0593

> <r_i_glide_erotb>
0.293271

> <r_i_glide_esite>
-0.115483

> <r_i_glide_evdw>
-34.4695

> <r_i_glide_gscore>
-5.90778

> <r_i_glide_hbond>
-0.0381545

> <r_i_glide_ligand_efficiency>
-0.25686

> <r_i_glide_ligand_efficiency_ln>
-1.42856

> <r_i_glide_ligand_efficiency_sa>
-0.730476

> <r_i_glide_lipo>
-1.88909

> <r_i_glide_metal>
0

> <r_i_glide_rewards>
-1.74638

> <s_i_glide_gridfile>
wee1_glide-grid

> <s_m_Source_File>
wee1_decoys_glide_SP.sdf

> <s_m_Source_Path>
/Users/zhangxujun/Desktop

> <s_m_entry_id>
3963

> <s_m_entry_name>
wee1_decoys_glide_SP.3688

> <s_m_subgroup_title>
wee1_decoys_glide_SP

> <s_m_subgroupid>
wee1_decoys_glide_SP


$$$$
