ZINC37334558_1893
                    3D
 Schrodinger Suite 2024-2.
 39 40  0  0  1  0            999 V2000
   -0.6875   52.4673   26.4318 C   0  0  0  0  0  0
    0.6129   52.1187   27.1796 C   0  0  2  0  0  0
    1.1539   51.4175   26.5440 H   0  0  0  0  0  0
    0.3380   51.3531   28.4935 C   0  0  0  0  0  0
   -0.2792   52.2414   29.5832 C   0  0  0  0  0  0
    0.6058   53.4775   29.8011 C   0  0  0  0  0  0
    1.0067   54.1742   28.4822 C   0  0  0  0  0  0
    1.5336   53.2343   27.4717 N   0  0  0  0  0  0
    2.6648   53.5238   26.7108 C   0  0  0  0  0  0
    2.5215   53.6972   25.3281 C   0  0  0  0  0  0
    3.6045   54.0489   24.5243 C   0  0  0  0  0  0
    4.8753   54.2053   25.0842 C   0  0  0  0  0  0
    5.0305   54.0214   26.4584 C   0  0  0  0  0  0
    3.9503   53.6794   27.2921 C   0  0  0  0  0  0
    4.2315   53.4156   28.7227 C   0  0  0  0  0  0
    3.8544   52.3012   29.2236 N   0  0  0  0  0  0
    4.1671   52.0982   30.5790 O   0  0  0  0  0  0
    4.8856   54.4967   29.2817 N   0  0  0  0  0  0
    6.0976   54.5429   24.2281 C   0  0  0  0  0  0
    5.8322   54.4964   22.9220 F   0  0  0  0  0  0
    7.0969   53.6968   24.4785 F   0  0  0  0  0  0
    6.5094   55.7710   24.5360 F   0  0  0  0  0  0
   -1.2874   51.5728   26.2663 H   0  0  0  0  0  0
   -1.3003   53.1724   26.9907 H   0  0  0  0  0  0
   -0.4852   52.8959   25.4524 H   0  0  0  0  0  0
    1.2811   50.9727   28.8891 H   0  0  0  0  0  0
   -0.3045   50.4967   28.2988 H   0  0  0  0  0  0
   -0.3833   51.6953   30.5231 H   0  0  0  0  0  0
   -1.2905   52.5173   29.2912 H   0  0  0  0  0  0
    1.5032   53.2156   30.3623 H   0  0  0  0  0  0
    0.0772   54.1895   30.4352 H   0  0  0  0  0  0
    1.7695   54.9216   28.7091 H   0  0  0  0  0  0
    0.1574   54.7221   28.0814 H   0  0  0  0  0  0
    1.5529   53.5860   24.8665 H   0  0  0  0  0  0
    3.4494   54.1843   23.4631 H   0  0  0  0  0  0
    6.0252   54.1165   26.8753 H   0  0  0  0  0  0
    4.6777   52.8803   30.7952 H   0  0  0  0  0  0
    5.2360   54.5018   30.2248 H   0  0  0  0  0  0
    5.1412   55.2790   28.6950 H   0  0  0  0  0  0
  1  2  1  0  0  0
  1 23  1  0  0  0
  1 24  1  0  0  0
  1 25  1  0  0  0
  2  3  1  0  0  0
  2  8  1  0  0  0
  2  4  1  0  0  0
  4  5  1  0  0  0
  4 26  1  0  0  0
  4 27  1  0  0  0
  5  6  1  0  0  0
  5 28  1  0  0  0
  5 29  1  0  0  0
  6  7  1  0  0  0
  6 30  1  0  0  0
  6 31  1  0  0  0
  7  8  1  0  0  0
  7 32  1  0  0  0
  7 33  1  0  0  0
  8  9  1  0  0  0
  9 14  2  0  0  0
  9 10  1  0  0  0
 10 11  2  0  0  0
 10 34  1  0  0  0
 11 12  1  0  0  0
 11 35  1  0  0  0
 12 13  2  0  0  0
 12 19  1  0  0  0
 13 14  1  0  0  0
 13 36  1  0  0  0
 14 15  1  0  0  0
 15 16  2  0  0  0
 15 18  1  0  0  0
 16 17  1  0  0  0
 17 37  1  0  0  0
 18 38  1  0  0  0
 18 39  1  0  0  0
 19 20  1  0  0  0
 19 21  1  0  0  0
 19 22  1  0  0  0
M  END
> <i_i_glide_confnum>
45

> <i_i_glide_lignum>
1894

> <i_i_glide_posenum>
372

> <i_i_glide_rotatable_bonds>
4

> <i_m_Source_File_Index>
581

> <b_m_subgroup_collapsed>
0

> <r_i_docking_score>
-6.41221

> <r_i_glide_ecoul>
-1.89429

> <r_i_glide_eff_state_penalty>
0

> <r_i_glide_einternal>
1.4715

> <r_i_glide_emodel>
-50.6275

> <r_i_glide_energy>
-35.8252

> <r_i_glide_erotb>
0.607855

> <r_i_glide_esite>
0

> <r_i_glide_evdw>
-33.9309

> <r_i_glide_gscore>
-6.41221

> <r_i_glide_hbond>
0

> <r_i_glide_ligand_efficiency>
-0.305344

> <r_i_glide_ligand_efficiency_ln>
-1.58541

> <r_i_glide_ligand_efficiency_sa>
-0.84242

> <r_i_glide_lipo>
-2.13564

> <r_i_glide_metal>
0

> <r_i_glide_rewards>
-2.90374

> <s_i_glide_gridfile>
wee1_glide-grid

> <s_m_Source_File>
wee1_decoys_glide_SP.sdf

> <s_m_Source_Path>
/Users/zhangxujun/Desktop

> <s_m_entry_id>
856

> <s_m_entry_name>
wee1_decoys_glide_SP.581

> <s_m_subgroup_title>
wee1_decoys_glide_SP

> <s_m_subgroupid>
wee1_decoys_glide_SP


$$$$
