ZINC02749050_4768
                    3D
 Schrodinger Suite 2024-2.
 43 45  0  0  1  0            999 V2000
    0.7339   54.3501   30.3605 C   0  0  0  0  0  0
    0.4714   53.6682   29.0063 C   0  0  2  0  0  0
   -0.4538   54.0963   28.6154 H   0  0  0  0  0  0
    0.3282   52.1456   29.1672 C   0  0  0  0  0  0
   -0.1927   51.4896   27.8741 C   0  0  0  0  0  0
    0.5754   52.0034   26.6433 C   0  0  0  0  0  0
    1.4011   53.1413   26.7473 C   0  0  0  0  0  0
    2.2192   53.5057   25.2715 S   0  0  0  0  0  0
    1.4602   52.1686   24.4864 C   0  0  0  0  0  0
    0.6212   51.4098   25.3396 C   0  0  0  0  0  0
    0.0063   50.1378   24.9496 C   0  0  0  0  0  0
    0.3896   49.4863   23.9809 O   0  0  0  0  0  0
   -1.0176   49.6979   25.6815 N   0  0  0  0  0  0
    1.8229   51.9989   23.1608 N   0  0  0  0  0  0
    0.9588   51.9468   22.1274 C   0  0  0  0  0  0
   -0.2610   52.0969   22.2427 O   0  0  0  0  0  0
    1.6147   51.7382   20.7419 C   0  0  0  0  0  0
    2.0203   50.2579   20.5489 C   0  0  0  0  0  0
    1.8504   50.0042   19.0512 C   0  0  0  0  0  0
    0.6066   50.8147   18.6899 C   0  0  0  0  0  0
    0.7163   52.0967   19.5268 C   0  0  0  0  0  0
    1.6200   53.9658   28.0150 C   0  0  0  0  0  0
    1.6297   53.9528   30.8358 H   0  0  0  0  0  0
    0.8614   55.4275   30.2483 H   0  0  0  0  0  0
   -0.0957   54.1918   31.0504 H   0  0  0  0  0  0
   -0.3790   51.9262   29.9698 H   0  0  0  0  0  0
    1.2650   51.7022   29.5093 H   0  0  0  0  0  0
   -0.0962   50.4117   27.9849 H   0  0  0  0  0  0
   -1.2575   51.6982   27.7620 H   0  0  0  0  0  0
   -1.2664   50.1331   26.5573 H   0  0  0  0  0  0
   -1.4271   48.8058   25.4543 H   0  0  0  0  0  0
    2.8039   52.0694   22.9427 H   0  0  0  0  0  0
    2.5056   52.3690   20.7171 H   0  0  0  0  0  0
    3.0437   50.0610   20.8726 H   0  0  0  0  0  0
    1.3640   49.5749   21.0950 H   0  0  0  0  0  0
    2.7178   50.3739   18.4995 H   0  0  0  0  0  0
    1.7434   48.9448   18.8153 H   0  0  0  0  0  0
    0.5463   51.0203   17.6201 H   0  0  0  0  0  0
   -0.2914   50.2604   18.9688 H   0  0  0  0  0  0
   -0.2801   52.4578   19.7843 H   0  0  0  0  0  0
    1.1925   52.8827   18.9372 H   0  0  0  0  0  0
    1.6596   55.0319   27.7879 H   0  0  0  0  0  0
    2.5801   53.6978   28.4590 H   0  0  0  0  0  0
  1  2  1  0  0  0
  1 23  1  0  0  0
  1 24  1  0  0  0
  1 25  1  0  0  0
  2  3  1  0  0  0
  2 22  1  0  0  0
  2  4  1  0  0  0
  4  5  1  0  0  0
  4 26  1  0  0  0
  4 27  1  0  0  0
  5  6  1  0  0  0
  5 28  1  0  0  0
  5 29  1  0  0  0
  6 10  1  0  0  0
  6  7  2  0  0  0
  7  8  1  0  0  0
  7 22  1  0  0  0
  8  9  1  0  0  0
  9 10  2  0  0  0
  9 14  1  0  0  0
 10 11  1  0  0  0
 11 12  2  0  0  0
 11 13  1  0  0  0
 13 30  1  0  0  0
 13 31  1  0  0  0
 14 15  1  0  0  0
 14 32  1  0  0  0
 15 16  2  0  0  0
 15 17  1  0  0  0
 17 21  1  0  0  0
 17 18  1  0  0  0
 17 33  1  0  0  0
 18 19  1  0  0  0
 18 34  1  0  0  0
 18 35  1  0  0  0
 19 20  1  0  0  0
 19 36  1  0  0  0
 19 37  1  0  0  0
 20 21  1  0  0  0
 20 38  1  0  0  0
 20 39  1  0  0  0
 21 40  1  0  0  0
 21 41  1  0  0  0
 22 42  1  0  0  0
 22 43  1  0  0  0
M  END
> <i_i_glide_confnum>
15

> <i_i_glide_lignum>
4769

> <i_i_glide_posenum>
350

> <i_i_glide_rotatable_bonds>
4

> <i_m_Source_File_Index>
4800

> <b_m_subgroup_collapsed>
0

> <r_i_docking_score>
-3.99608

> <r_i_glide_ecoul>
-1.56981

> <r_i_glide_eff_state_penalty>
0

> <r_i_glide_einternal>
8.87997

> <r_i_glide_emodel>
-37.9066

> <r_i_glide_energy>
-31.3306

> <r_i_glide_erotb>
0.590181

> <r_i_glide_esite>
-0.102187

> <r_i_glide_evdw>
-29.7608

> <r_i_glide_gscore>
-3.99608

> <r_i_glide_hbond>
0

> <r_i_glide_ligand_efficiency>
-0.190289

> <r_i_glide_ligand_efficiency_ln>
-0.988022

> <r_i_glide_ligand_efficiency_sa>
-0.524994

> <r_i_glide_lipo>
-1.36274

> <r_i_glide_metal>
0

> <r_i_glide_rewards>
-1.39782

> <s_i_glide_gridfile>
wee1_glide-grid

> <s_m_Source_File>
wee1_decoys_glide_SP.sdf

> <s_m_Source_Path>
/Users/zhangxujun/Desktop

> <s_m_entry_id>
5075

> <s_m_entry_name>
wee1_decoys_glide_SP.4800

> <s_m_subgroup_title>
wee1_decoys_glide_SP

> <s_m_subgroupid>
wee1_decoys_glide_SP


$$$$
