ZINC21246093_4432
                    3D
 Schrodinger Suite 2024-2.
 47 50  0  0  1  0            999 V2000
    3.3664   52.7716   19.2875 C   0  0  0  0  0  0
    2.8857   52.6176   20.7434 C   0  0  2  0  0  0
    2.0326   53.2820   20.8759 H   0  0  0  0  0  0
    3.9922   52.9834   21.7484 C   0  0  0  0  0  0
    5.1040   52.4655   21.6338 O   0  0  0  0  0  0
    3.6434   53.7902   22.7734 N   0  0  0  0  0  0
    4.4437   54.0968   23.8933 C   0  0  0  0  0  0
    3.7963   53.9753   25.1286 C   0  0  0  0  0  0
    4.4899   54.1804   26.3196 C   0  0  0  0  0  0
    5.8361   54.5325   26.2904 C   0  0  0  0  0  0
    6.4773   54.7196   25.0688 C   0  0  0  0  0  0
    5.7942   54.5286   23.8616 C   0  0  0  0  0  0
    6.4937   54.9406   22.6448 C   0  0  0  0  0  0
    7.0432   55.2941   21.6872 N   0  0  0  0  0  0
    2.3340   50.9219   21.0905 S   0  0  0  0  0  0
    1.2135   50.9786   22.4511 C   0  0  0  0  0  0
    1.3361   49.9692   23.3423 N   0  0  0  0  0  0
    0.4282   49.9060   24.3453 C   0  0  0  0  0  0
   -0.6549   50.8127   24.4211 C   0  0  0  0  0  0
   -1.7880   50.9198   25.2936 C   0  0  0  0  0  0
   -2.5803   52.0207   24.9812 C   0  0  0  0  0  0
   -2.0202   52.8967   23.5848 S   0  0  0  0  0  0
   -0.6447   51.8312   23.4266 C   0  0  0  0  0  0
    0.2737   51.9599   22.4625 N   0  0  0  0  0  0
   -3.8710   52.3962   25.7003 C   0  0  0  0  0  0
   -3.9522   51.6444   27.0479 C   0  0  0  0  0  0
   -3.5771   50.1625   26.9054 C   0  0  0  0  0  0
   -2.1165   49.9821   26.4466 C   0  0  0  0  0  0
    0.6352   48.8970   25.2830 N   0  0  0  0  0  0
    3.6938   53.7922   19.0790 H   0  0  0  0  0  0
    4.1965   52.1003   19.0630 H   0  0  0  0  0  0
    2.5636   52.5407   18.5886 H   0  0  0  0  0  0
    2.6504   53.9108   22.9026 H   0  0  0  0  0  0
    2.7587   53.6745   25.1789 H   0  0  0  0  0  0
    3.9872   54.0480   27.2648 H   0  0  0  0  0  0
    6.3714   54.6893   27.2157 H   0  0  0  0  0  0
    7.5052   55.0458   25.0639 H   0  0  0  0  0  0
   -3.9360   53.4705   25.8672 H   0  0  0  0  0  0
   -4.7262   52.1171   25.0834 H   0  0  0  0  0  0
   -3.2747   52.0970   27.7713 H   0  0  0  0  0  0
   -4.9530   51.7409   27.4690 H   0  0  0  0  0  0
   -3.7174   49.6456   27.8571 H   0  0  0  0  0  0
   -4.2526   49.6805   26.1980 H   0  0  0  0  0  0
   -1.9717   48.9429   26.1489 H   0  0  0  0  0  0
   -1.4401   50.1760   27.2797 H   0  0  0  0  0  0
   -0.0017   48.7666   26.0599 H   0  0  0  0  0  0
    1.4383   48.2869   25.1636 H   0  0  0  0  0  0
  1  2  1  0  0  0
  1 30  1  0  0  0
  1 31  1  0  0  0
  1 32  1  0  0  0
  2  3  1  0  0  0
  2  4  1  0  0  0
  2 15  1  0  0  0
  4  5  2  0  0  0
  4  6  1  0  0  0
  6  7  1  0  0  0
  6 33  1  0  0  0
  7 12  2  0  0  0
  7  8  1  0  0  0
  8  9  2  0  0  0
  8 34  1  0  0  0
  9 10  1  0  0  0
  9 35  1  0  0  0
 10 11  2  0  0  0
 10 36  1  0  0  0
 11 12  1  0  0  0
 11 37  1  0  0  0
 12 13  1  0  0  0
 13 14  3  0  0  0
 15 16  1  0  0  0
 16 24  2  0  0  0
 16 17  1  0  0  0
 17 18  2  0  0  0
 18 19  1  0  0  0
 18 29  1  0  0  0
 19 23  2  0  0  0
 19 20  1  0  0  0
 20 28  1  0  0  0
 20 21  2  0  0  0
 21 22  1  0  0  0
 21 25  1  0  0  0
 22 23  1  0  0  0
 23 24  1  0  0  0
 25 26  1  0  0  0
 25 38  1  0  0  0
 25 39  1  0  0  0
 26 27  1  0  0  0
 26 40  1  0  0  0
 26 41  1  0  0  0
 27 28  1  0  0  0
 27 42  1  0  0  0
 27 43  1  0  0  0
 28 44  1  0  0  0
 28 45  1  0  0  0
 29 46  1  0  0  0
 29 47  1  0  0  0
M  END
> <i_i_glide_confnum>
53

> <i_i_glide_lignum>
4433

> <i_i_glide_posenum>
309

> <i_i_glide_rotatable_bonds>
6

> <i_m_Source_File_Index>
2748

> <b_m_subgroup_collapsed>
0

> <r_i_docking_score>
-5.95115

> <r_i_glide_ecoul>
-5.98359

> <r_i_glide_eff_state_penalty>
0

> <r_i_glide_einternal>
11.5824

> <r_i_glide_emodel>
-57.0693

> <r_i_glide_energy>
-45.6838

> <r_i_glide_erotb>
0.587058

> <r_i_glide_esite>
-0.0558318

> <r_i_glide_evdw>
-39.7003

> <r_i_glide_gscore>
-5.95115

> <r_i_glide_hbond>
-0.32

> <r_i_glide_ligand_efficiency>
-0.212541

> <r_i_glide_ligand_efficiency_ln>
-1.3737

> <r_i_glide_ligand_efficiency_sa>
-0.645399

> <r_i_glide_lipo>
-1.86618

> <r_i_glide_metal>
0

> <r_i_glide_rewards>
-1.41364

> <s_i_glide_gridfile>
wee1_glide-grid

> <s_m_Source_File>
wee1_decoys_glide_SP.sdf

> <s_m_Source_Path>
/Users/zhangxujun/Desktop

> <s_m_entry_id>
3023

> <s_m_entry_name>
wee1_decoys_glide_SP.2748

> <s_m_subgroup_title>
wee1_decoys_glide_SP

> <s_m_subgroupid>
wee1_decoys_glide_SP


$$$$
