ZINC39662565_284
                    3D
 Schrodinger Suite 2024-2.
 64 68  0  0  1  0            999 V2000
   -6.7003   46.8962   30.2138 C   0  0  0  0  0  0
   -7.3395   46.7893   28.9819 C   0  0  0  0  0  0
   -6.6686   47.1666   27.8221 C   0  0  0  0  0  0
   -5.3553   47.6517   27.8874 C   0  0  0  0  0  0
   -4.7170   47.7370   29.1326 C   0  0  0  0  0  0
   -5.3893   47.3569   30.2904 C   0  0  0  0  0  0
   -4.6730   48.1194   26.6007 C   0  0  2  0  0  0
   -5.4676   48.4760   25.9416 H   0  0  0  0  0  0
   -4.0733   46.9868   25.8658 C   0  0  0  0  0  0
   -3.6023   46.0984   25.2829 N   0  0  0  0  0  0
   -3.6958   49.1985   26.7887 N   0  0  0  0  0  0
   -3.5164   50.2449   25.9560 C   0  0  0  0  0  0
   -4.2134   50.4041   24.9555 O   0  0  0  0  0  0
   -2.3439   51.2439   26.1885 C   0  0  1  0  0  0
   -2.7069   52.2294   25.8893 H   0  0  0  0  0  0
   -2.0400   51.3680   27.6922 C   0  0  0  0  0  0
   -0.6242   51.7485   27.7436 N   0  0  0  0  0  0
    0.0272   51.6279   26.4377 C   0  0  0  0  0  0
   -0.9849   50.8917   25.5169 C   0  0  0  0  0  0
   -0.7238   49.3548   25.4752 C   0  0  0  0  0  0
    0.6541   48.9795   24.9247 C   0  0  0  0  0  0
    0.8400   49.6241   23.5297 N   0  3  0  0  0  0
    0.5091   51.1330   23.4630 C   0  0  0  0  0  0
   -0.9080   51.3417   24.0374 C   0  0  0  0  0  0
   -0.0507   52.0948   28.9291 C   0  0  0  0  0  0
   -0.6885   52.0970   29.9834 O   0  0  0  0  0  0
    1.3413   52.4955   28.9857 C   0  0  0  0  0  0
    2.1587   52.6542   30.0974 C   0  0  0  0  0  0
    3.3870   53.1252   29.6382 C   0  0  0  0  0  0
    3.2712   53.2974   28.2654 C   0  0  0  0  0  0
    2.0214   52.9118   27.8794 O   0  0  0  0  0  0
    4.2228   53.7988   27.2238 C   0  0  0  0  0  0
    5.5497   54.0374   27.6088 C   0  0  0  0  0  0
    6.4899   54.4943   26.6884 C   0  0  0  0  0  0
    6.1173   54.7243   25.3665 C   0  0  0  0  0  0
    4.8001   54.4968   24.9687 C   0  0  0  0  0  0
    3.8561   54.0358   25.8870 C   0  0  0  0  0  0
    2.5929   53.8064   25.4575 F   0  0  0  0  0  0
   -7.2239   46.6114   31.1132 H   0  0  0  0  0  0
   -8.3526   46.4256   28.9279 H   0  0  0  0  0  0
   -7.1763   47.0928   26.8725 H   0  0  0  0  0  0
   -3.6970   48.0950   29.2155 H   0  0  0  0  0  0
   -4.8964   47.4304   31.2494 H   0  0  0  0  0  0
   -2.9918   49.0185   27.5019 H   0  0  0  0  0  0
   -2.6944   52.0950   28.1688 H   0  0  0  0  0  0
   -2.0962   50.4209   28.2177 H   0  0  0  0  0  0
    1.0147   51.1714   26.4382 H   0  0  0  0  0  0
    0.1280   52.6469   26.0605 H   0  0  0  0  0  0
   -0.7774   48.9458   26.4817 H   0  0  0  0  0  0
   -1.4906   48.8223   24.9104 H   0  0  0  0  0  0
    1.5016   49.2870   25.5395 H   0  0  0  0  0  0
    0.7042   47.8997   24.7763 H   0  0  0  0  0  0
    1.7849   49.4554   23.2095 H   0  0  0  0  0  0
    1.2914   51.6540   24.0178 H   0  0  0  0  0  0
    0.5800   51.4150   22.4106 H   0  0  0  0  0  0
   -1.6725   50.8540   23.4306 H   0  0  0  0  0  0
   -1.1298   52.4099   23.9788 H   0  0  0  0  0  0
    1.8879   52.4427   31.1221 H   0  0  0  0  0  0
    4.2560   53.3447   30.2408 H   0  0  0  0  0  0
    5.8704   53.8652   28.6258 H   0  0  0  0  0  0
    7.5046   54.6569   27.0124 H   0  0  0  0  0  0
    6.8470   55.0705   24.6489 H   0  0  0  0  0  0
    4.5100   54.6694   23.9431 H   0  0  0  0  0  0
    0.2337   49.1438   22.8794 H   0  0  0  0  0  0
  1  6  2  0  0  0
  1  2  1  0  0  0
  1 39  1  0  0  0
  2  3  2  0  0  0
  2 40  1  0  0  0
  3  4  1  0  0  0
  3 41  1  0  0  0
  4  5  2  0  0  0
  4  7  1  0  0  0
  5  6  1  0  0  0
  5 42  1  0  0  0
  6 43  1  0  0  0
  7  8  1  0  0  0
  7  9  1  0  0  0
  7 11  1  0  0  0
  9 10  3  0  0  0
 11 12  1  0  0  0
 11 44  1  0  0  0
 12 13  2  0  0  0
 12 14  1  0  0  0
 14 15  1  0  0  0
 14 19  1  0  0  0
 14 16  1  0  0  0
 16 17  1  0  0  0
 16 45  1  0  0  0
 16 46  1  0  0  0
 17 18  1  0  0  0
 17 25  1  0  0  0
 18 19  1  0  0  0
 18 47  1  0  0  0
 18 48  1  0  0  0
 19 24  1  0  0  0
 19 20  1  0  0  0
 20 21  1  0  0  0
 20 49  1  0  0  0
 20 50  1  0  0  0
 21 22  1  0  0  0
 21 51  1  0  0  0
 21 52  1  0  0  0
 22 23  1  0  0  0
 22 53  1  0  0  0
 22 64  1  0  0  0
 23 24  1  0  0  0
 23 54  1  0  0  0
 23 55  1  0  0  0
 24 56  1  0  0  0
 24 57  1  0  0  0
 25 26  2  0  0  0
 25 27  1  0  0  0
 27 31  1  0  0  0
 27 28  2  0  0  0
 28 29  1  0  0  0
 28 58  1  0  0  0
 29 30  2  0  0  0
 29 59  1  0  0  0
 30 31  1  0  0  0
 30 32  1  0  0  0
 32 37  2  0  0  0
 32 33  1  0  0  0
 33 34  2  0  0  0
 33 60  1  0  0  0
 34 35  1  0  0  0
 34 61  1  0  0  0
 35 36  2  0  0  0
 35 62  1  0  0  0
 36 37  1  0  0  0
 36 63  1  0  0  0
 37 38  1  0  0  0
M  CHG  1  22   1
M  END
> <i_i_glide_confnum>
189

> <i_i_glide_lignum>
285

> <i_i_glide_posenum>
222

> <i_i_glide_rotatable_bonds>
8

> <i_m_Source_File_Index>
4423

> <b_m_subgroup_collapsed>
0

> <r_i_docking_score>
-6.14807

> <r_i_glide_ecoul>
-7.75505

> <r_i_glide_eff_state_penalty>
0

> <r_i_glide_einternal>
6.39061

> <r_i_glide_emodel>
-69.0687

> <r_i_glide_energy>
-51.0452

> <r_i_glide_erotb>
0.51317

> <r_i_glide_esite>
-0.226594

> <r_i_glide_evdw>
-43.2901

> <r_i_glide_gscore>
-6.14807

> <r_i_glide_hbond>
-0.256407

> <r_i_glide_ligand_efficiency>
-0.17078

> <r_i_glide_ligand_efficiency_ln>
-1.34134

> <r_i_glide_ligand_efficiency_sa>
-0.563902

> <r_i_glide_lipo>
-2.32266

> <r_i_glide_metal>
0

> <r_i_glide_rewards>
-0.527814

> <s_i_glide_gridfile>
wee1_glide-grid

> <s_m_Source_File>
wee1_decoys_glide_SP.sdf

> <s_m_Source_Path>
/Users/zhangxujun/Desktop

> <s_m_entry_id>
4698

> <s_m_entry_name>
wee1_decoys_glide_SP.4423

> <s_m_subgroup_title>
wee1_decoys_glide_SP

> <s_m_subgroupid>
wee1_decoys_glide_SP


$$$$
