ZINC62827303_1662
                    3D
 Schrodinger Suite 2024-2.
 34 35  0  0  1  0            999 V2000
    6.1284   54.8967   27.0874 C   0  0  0  0  0  0
    5.5776   54.3278   28.2322 C   0  0  0  0  0  0
    4.3485   53.6523   28.1894 C   0  0  0  0  0  0
    3.6488   53.6022   26.9562 C   0  0  0  0  0  0
    4.2058   54.1928   25.8091 C   0  0  0  0  0  0
    5.4406   54.8358   25.8809 C   0  0  0  0  0  0
    3.3327   54.0975   24.1110 Br  0  0  0  0  0  0
    2.4494   52.8967   26.7805 N   0  0  0  0  0  0
    1.2707   53.0963   27.3970 C   0  0  0  0  0  0
    1.0517   54.0974   28.0840 O   0  0  0  0  0  0
    0.3962   52.0548   27.2759 N   0  0  0  0  0  0
   -0.7871   51.9439   28.1402 C   0  0  0  0  0  0
   -0.4954   51.5327   29.5957 C   0  0  0  0  0  0
   -0.4955   52.6276   30.4822 O   0  0  0  0  0  0
    0.5854   50.8792   26.4023 C   0  0  0  0  0  0
   -0.5029   50.4962   25.4184 C   0  0  0  0  0  0
    0.7994   51.0571   24.9074 C   0  0  0  0  0  0
    3.8623   52.9956   29.4465 C   0  0  0  0  0  0
    3.5031   51.7956   29.4030 O   0  0  0  0  0  0
    3.8772   53.6961   30.4817 O   0  5  0  0  0  0
    7.0856   55.3927   27.1482 H   0  0  0  0  0  0
    6.1330   54.3980   29.1583 H   0  0  0  0  0  0
    5.8688   55.2785   24.9935 H   0  0  0  0  0  0
    2.5194   52.0786   26.1954 H   0  0  0  0  0  0
   -1.2954   52.8967   28.1156 H   0  0  0  0  0  0
   -1.4875   51.2209   27.7206 H   0  0  0  0  0  0
   -1.3117   50.8966   29.9350 H   0  0  0  0  0  0
    0.4030   50.9244   29.6786 H   0  0  0  0  0  0
   -0.6514   52.2945   31.3790 H   0  0  0  0  0  0
    1.1041   50.0602   26.9031 H   0  0  0  0  0  0
   -0.7189   49.4353   25.2940 H   0  0  0  0  0  0
   -1.4024   51.1083   25.3616 H   0  0  0  0  0  0
    0.8082   52.0643   24.4882 H   0  0  0  0  0  0
    1.4985   50.3910   24.3992 H   0  0  0  0  0  0
  1  6  2  0  0  0
  1  2  1  0  0  0
  1 21  1  0  0  0
  2  3  2  0  0  0
  2 22  1  0  0  0
  3  4  1  0  0  0
  3 18  1  0  0  0
  4  5  2  0  0  0
  4  8  1  0  0  0
  5  6  1  0  0  0
  5  7  1  0  0  0
  6 23  1  0  0  0
  8  9  1  0  0  0
  8 24  1  0  0  0
  9 10  2  0  0  0
  9 11  1  0  0  0
 11 12  1  0  0  0
 11 15  1  0  0  0
 12 13  1  0  0  0
 12 25  1  0  0  0
 12 26  1  0  0  0
 13 14  1  0  0  0
 13 27  1  0  0  0
 13 28  1  0  0  0
 14 29  1  0  0  0
 15 17  1  0  0  0
 15 16  1  0  0  0
 15 30  1  0  0  0
 16 17  1  0  0  0
 16 31  1  0  0  0
 16 32  1  0  0  0
 17 33  1  0  0  0
 17 34  1  0  0  0
 18 19  2  0  0  0
 18 20  1  0  0  0
M  CHG  1  20  -1
M  END
> <i_i_glide_confnum>
36

> <i_i_glide_lignum>
1663

> <i_i_glide_posenum>
378

> <i_i_glide_rotatable_bonds>
8

> <i_m_Source_File_Index>
2066

> <b_m_subgroup_collapsed>
0

> <r_i_docking_score>
-5.9352

> <r_i_glide_ecoul>
-10.0293

> <r_i_glide_eff_state_penalty>
0

> <r_i_glide_einternal>
9.47183

> <r_i_glide_emodel>
-50.5152

> <r_i_glide_energy>
-38.919

> <r_i_glide_erotb>
0.809684

> <r_i_glide_esite>
0

> <r_i_glide_evdw>
-28.8897

> <r_i_glide_gscore>
-5.9352

> <r_i_glide_hbond>
-0.226068

> <r_i_glide_ligand_efficiency>
-0.29676

> <r_i_glide_ligand_efficiency_ln>
-1.48539

> <r_i_glide_ligand_efficiency_sa>
-0.805531

> <r_i_glide_lipo>
-1.84553

> <r_i_glide_metal>
0

> <r_i_glide_rewards>
-1.7244

> <s_i_glide_gridfile>
wee1_glide-grid

> <s_m_Source_File>
wee1_decoys_glide_SP.sdf

> <s_m_Source_Path>
/Users/zhangxujun/Desktop

> <s_m_entry_id>
2341

> <s_m_entry_name>
wee1_decoys_glide_SP.2066

> <s_m_subgroup_title>
wee1_decoys_glide_SP

> <s_m_subgroupid>
wee1_decoys_glide_SP


$$$$
