ZINC33113369_28
                    3D
 Schrodinger Suite 2024-2.
 59 62  0  0  1  0            999 V2000
   10.7681   57.8951   13.4854 C   0  0  0  0  0  0
   10.1036   57.4006   14.7582 C   0  0  0  0  0  0
    8.7132   57.4518   14.8780 C   0  0  0  0  0  0
    8.0970   57.0124   16.0471 C   0  0  0  0  0  0
    8.8765   56.5138   17.1036 C   0  0  0  0  0  0
   10.2704   56.4838   16.9884 C   0  0  0  0  0  0
   10.8826   56.9205   15.8153 C   0  0  0  0  0  0
    8.3426   56.0677   18.3235 N   0  0  0  0  0  0
    7.0919   55.6345   18.5988 C   0  0  0  0  0  0
    6.1922   55.4860   17.7717 O   0  0  0  0  0  0
    6.8867   55.3586   19.9978 C   0  0  0  0  0  0
    7.6302   55.6968   21.0262 N   0  0  0  0  0  0
    7.1045   55.2975   22.2411 N   0  0  0  0  0  0
    5.9708   54.6499   22.1513 C   0  0  0  0  0  0
    5.4453   54.4970   20.4928 S   0  0  0  0  0  0
    5.2213   54.1350   23.3741 C   0  0  2  0  0  0
    5.4390   53.0732   23.4944 H   0  0  0  0  0  0
    3.6885   54.2505   23.2075 C   0  0  0  0  0  0
    2.9628   53.8658   24.5018 C   0  0  0  0  0  0
    3.5265   54.6287   25.7112 C   0  0  0  0  0  0
    4.9508   54.2634   25.8546 N   0  0  0  0  0  0
    5.7321   54.7786   24.7024 C   0  0  0  0  0  0
    5.6098   54.1047   27.0502 C   0  0  0  0  0  0
    6.7973   54.4104   27.1744 O   0  0  0  0  0  0
    5.0473   53.4856   28.1147 N   0  0  0  0  0  0
    3.6614   53.3250   28.5568 C   0  0  0  0  0  0
    3.4733   52.2291   29.6253 C   0  0  0  0  0  0
    1.9833   51.9947   29.9542 C   0  0  0  0  0  0
    1.2188   53.2819   30.3142 C   0  0  0  0  0  0
    1.4712   54.4275   29.3179 C   0  0  0  0  0  0
    2.9732   54.6327   29.0388 C   0  0  0  0  0  0
   11.7928   58.2209   13.6708 H   0  0  0  0  0  0
   10.2323   58.7583   13.0872 H   0  0  0  0  0  0
   10.7744   57.1141   12.7243 H   0  0  0  0  0  0
    8.1067   57.8375   14.0704 H   0  0  0  0  0  0
    7.0223   57.0851   16.1211 H   0  0  0  0  0  0
   10.8844   56.1106   17.7997 H   0  0  0  0  0  0
   11.9610   56.8866   15.7294 H   0  0  0  0  0  0
    8.9968   56.0488   19.0918 H   0  0  0  0  0  0
    3.4157   55.2869   23.0019 H   0  0  0  0  0  0
    3.3259   53.6130   22.3992 H   0  0  0  0  0  0
    1.8997   54.0910   24.3990 H   0  0  0  0  0  0
    3.0188   52.7919   24.6758 H   0  0  0  0  0  0
    3.5040   55.6969   25.5245 H   0  0  0  0  0  0
    2.8672   54.4590   26.5439 H   0  0  0  0  0  0
    6.7888   54.5217   24.8047 H   0  0  0  0  0  0
    5.5888   55.8601   24.6818 H   0  0  0  0  0  0
    5.7093   53.3596   28.8649 H   0  0  0  0  0  0
    3.1459   52.9061   27.6925 H   0  0  0  0  0  0
    3.9259   51.2971   29.2907 H   0  0  0  0  0  0
    3.9976   52.5146   30.5380 H   0  0  0  0  0  0
    1.4958   51.5121   29.1059 H   0  0  0  0  0  0
    1.9035   51.3017   30.7876 H   0  0  0  0  0  0
    0.1500   53.0690   30.3745 H   0  0  0  0  0  0
    1.5038   53.6026   31.3108 H   0  0  0  0  0  0
    0.9539   54.2083   28.3818 H   0  0  0  0  0  0
    1.0355   55.3530   29.6948 H   0  0  0  0  0  0
    3.4751   54.9856   29.9397 H   0  0  0  0  0  0
    3.0972   55.4486   28.3282 H   0  0  0  0  0  0
  1  2  1  0  0  0
  1 32  1  0  0  0
  1 33  1  0  0  0
  1 34  1  0  0  0
  2  7  2  0  0  0
  2  3  1  0  0  0
  3  4  2  0  0  0
  3 35  1  0  0  0
  4  5  1  0  0  0
  4 36  1  0  0  0
  5  6  2  0  0  0
  5  8  1  0  0  0
  6  7  1  0  0  0
  6 37  1  0  0  0
  7 38  1  0  0  0
  8  9  1  0  0  0
  8 39  1  0  0  0
  9 10  2  0  0  0
  9 11  1  0  0  0
 11 15  1  0  0  0
 11 12  2  0  0  0
 12 13  1  0  0  0
 13 14  2  0  0  0
 14 15  1  0  0  0
 14 16  1  0  0  0
 16 17  1  0  0  0
 16 22  1  0  0  0
 16 18  1  0  0  0
 18 19  1  0  0  0
 18 40  1  0  0  0
 18 41  1  0  0  0
 19 20  1  0  0  0
 19 42  1  0  0  0
 19 43  1  0  0  0
 20 21  1  0  0  0
 20 44  1  0  0  0
 20 45  1  0  0  0
 21 22  1  0  0  0
 21 23  1  0  0  0
 22 46  1  0  0  0
 22 47  1  0  0  0
 23 24  2  0  0  0
 23 25  1  0  0  0
 25 26  1  0  0  0
 25 48  1  0  0  0
 26 31  1  0  0  0
 26 27  1  0  0  0
 26 49  1  0  0  0
 27 28  1  0  0  0
 27 50  1  0  0  0
 27 51  1  0  0  0
 28 29  1  0  0  0
 28 52  1  0  0  0
 28 53  1  0  0  0
 29 30  1  0  0  0
 29 54  1  0  0  0
 29 55  1  0  0  0
 30 31  1  0  0  0
 30 56  1  0  0  0
 30 57  1  0  0  0
 31 58  1  0  0  0
 31 59  1  0  0  0
M  END
> <i_i_glide_confnum>
94

> <i_i_glide_lignum>
29

> <i_i_glide_posenum>
164

> <i_i_glide_rotatable_bonds>
7

> <i_m_Source_File_Index>
2042

> <b_m_subgroup_collapsed>
0

> <r_i_docking_score>
-4.4228

> <r_i_glide_ecoul>
-0.723007

> <r_i_glide_eff_state_penalty>
0

> <r_i_glide_einternal>
4.91911

> <r_i_glide_emodel>
-47.9394

> <r_i_glide_energy>
-41.4616

> <r_i_glide_erotb>
0.760305

> <r_i_glide_esite>
0

> <r_i_glide_evdw>
-40.7386

> <r_i_glide_gscore>
-4.4228

> <r_i_glide_hbond>
0

> <r_i_glide_ligand_efficiency>
-0.147427

> <r_i_glide_ligand_efficiency_ln>
-1.00491

> <r_i_glide_ligand_efficiency_sa>
-0.458088

> <r_i_glide_lipo>
-2.64942

> <r_i_glide_metal>
0

> <r_i_glide_rewards>
-0.388303

> <s_i_glide_gridfile>
wee1_glide-grid

> <s_m_Source_File>
wee1_decoys_glide_SP.sdf

> <s_m_Source_Path>
/Users/zhangxujun/Desktop

> <s_m_entry_id>
2317

> <s_m_entry_name>
wee1_decoys_glide_SP.2042

> <s_m_subgroup_title>
wee1_decoys_glide_SP

> <s_m_subgroupid>
wee1_decoys_glide_SP


$$$$
