ZINC35754032_1037
                    3D
 Schrodinger Suite 2024-2.
 65 69  0  0  1  0            999 V2000
   -5.7460   44.0459   25.4481 C   0  0  0  0  0  0
   -4.8959   44.0934   26.5498 C   0  0  0  0  0  0
   -4.7058   45.2964   27.2257 C   0  0  0  0  0  0
   -5.3665   46.4509   26.7974 C   0  0  0  0  0  0
   -6.2281   46.3925   25.6980 C   0  0  0  0  0  0
   -6.4107   45.1914   25.0169 C   0  0  0  0  0  0
   -5.2238   47.7489   27.5899 C   0  0  0  0  0  0
   -4.0939   48.5734   27.1709 N   0  0  0  0  0  0
   -4.0394   49.3380   26.0695 C   0  0  0  0  0  0
   -4.9898   49.4746   25.2984 O   0  0  0  0  0  0
   -2.6964   50.0712   25.8290 C   0  0  2  0  0  0
   -1.8954   49.4427   26.2253 H   0  0  0  0  0  0
   -2.7155   51.4348   26.5110 C   0  0  2  0  0  0
   -3.6573   51.6179   27.0323 H   0  0  0  0  0  0
   -2.6739   52.3636   25.4426 O   0  0  0  0  0  0
   -2.4751   51.8026   24.2350 C   0  0  0  0  0  0
   -2.3397   52.4709   23.2115 O   0  0  0  0  0  0
   -2.4703   50.4192   24.4339 N   0  0  0  0  0  0
   -1.9888   49.4539   23.4401 C   0  0  0  0  0  0
   -2.6271   49.5386   22.0560 C   0  0  0  0  0  0
   -4.0178   49.6159   21.9212 C   0  0  0  0  0  0
   -4.5909   49.7020   20.6551 C   0  0  0  0  0  0
   -3.7735   49.7078   19.5266 C   0  0  0  0  0  0
   -2.3873   49.6259   19.6537 C   0  0  0  0  0  0
   -1.8145   49.5407   20.9202 C   0  0  0  0  0  0
   -1.6073   51.6401   27.5424 C   0  0  0  0  0  0
   -1.8464   51.3072   28.8766 C   0  0  0  0  0  0
   -0.8956   51.6077   29.8488 C   0  0  0  0  0  0
    0.3340   52.1551   29.4964 C   0  0  0  0  0  0
    0.6173   52.4197   28.1493 C   0  0  0  0  0  0
   -0.3624   52.1694   27.1826 C   0  0  0  0  0  0
    1.8308   52.9330   27.6753 N   0  0  0  0  0  0
    2.9503   53.3079   28.3373 C   0  0  0  0  0  0
    3.1037   53.2244   29.5609 O   0  0  0  0  0  0
    4.0597   53.8541   27.4627 C   0  0  0  0  0  0
    5.3233   54.0975   28.0209 C   0  0  0  0  0  0
    6.3509   54.6171   27.2417 C   0  0  0  0  0  0
    6.1248   54.8992   25.8978 C   0  0  0  0  0  0
    4.8843   54.6552   25.3237 C   0  0  0  0  0  0
    3.8541   54.1378   26.0992 C   0  0  0  0  0  0
    7.1044   55.4430   25.1487 F   0  0  0  0  0  0
   -5.8991   43.1083   24.9308 H   0  0  0  0  0  0
   -4.3844   43.2018   26.8849 H   0  0  0  0  0  0
   -4.0469   45.3229   28.0838 H   0  0  0  0  0  0
   -6.7525   47.2788   25.3668 H   0  0  0  0  0  0
   -7.0747   45.1466   24.1660 H   0  0  0  0  0  0
   -6.1538   48.3210   27.5330 H   0  0  0  0  0  0
   -5.0937   47.5065   28.6454 H   0  0  0  0  0  0
   -3.2228   48.4699   27.7007 H   0  0  0  0  0  0
   -0.9078   49.5700   23.3521 H   0  0  0  0  0  0
   -2.1486   48.4436   23.8197 H   0  0  0  0  0  0
   -4.6539   49.6152   22.7934 H   0  0  0  0  0  0
   -5.6655   49.7657   20.5508 H   0  0  0  0  0  0
   -4.2184   49.7709   18.5435 H   0  0  0  0  0  0
   -1.7598   49.6268   18.7721 H   0  0  0  0  0  0
   -0.7376   49.4817   21.0140 H   0  0  0  0  0  0
   -2.7801   50.8495   29.1738 H   0  0  0  0  0  0
   -1.1041   51.3702   30.8816 H   0  0  0  0  0  0
    1.0436   52.3408   30.2881 H   0  0  0  0  0  0
   -0.1641   52.3981   26.1441 H   0  0  0  0  0  0
    1.8687   53.0370   26.6723 H   0  0  0  0  0  0
    5.5180   53.8990   29.0662 H   0  0  0  0  0  0
    7.3161   54.8208   27.6822 H   0  0  0  0  0  0
    4.7201   54.8795   24.2798 H   0  0  0  0  0  0
    2.9012   53.9764   25.6135 H   0  0  0  0  0  0
  1  6  2  0  0  0
  1  2  1  0  0  0
  1 42  1  0  0  0
  2  3  2  0  0  0
  2 43  1  0  0  0
  3  4  1  0  0  0
  3 44  1  0  0  0
  4  5  2  0  0  0
  4  7  1  0  0  0
  5  6  1  0  0  0
  5 45  1  0  0  0
  6 46  1  0  0  0
  7  8  1  0  0  0
  7 47  1  0  0  0
  7 48  1  0  0  0
  8  9  1  0  0  0
  8 49  1  0  0  0
  9 10  2  0  0  0
  9 11  1  0  0  0
 11 12  1  0  0  0
 11 18  1  0  0  0
 11 13  1  0  0  0
 13 14  1  0  0  0
 13 15  1  0  0  0
 13 26  1  0  0  0
 15 16  1  0  0  0
 16 17  2  0  0  0
 16 18  1  0  0  0
 18 19  1  0  0  0
 19 20  1  0  0  0
 19 50  1  0  0  0
 19 51  1  0  0  0
 20 25  2  0  0  0
 20 21  1  0  0  0
 21 22  2  0  0  0
 21 52  1  0  0  0
 22 23  1  0  0  0
 22 53  1  0  0  0
 23 24  2  0  0  0
 23 54  1  0  0  0
 24 25  1  0  0  0
 24 55  1  0  0  0
 25 56  1  0  0  0
 26 31  2  0  0  0
 26 27  1  0  0  0
 27 28  2  0  0  0
 27 57  1  0  0  0
 28 29  1  0  0  0
 28 58  1  0  0  0
 29 30  2  0  0  0
 29 59  1  0  0  0
 30 31  1  0  0  0
 30 32  1  0  0  0
 31 60  1  0  0  0
 32 33  1  0  0  0
 32 61  1  0  0  0
 33 34  2  0  0  0
 33 35  1  0  0  0
 35 40  2  0  0  0
 35 36  1  0  0  0
 36 37  2  0  0  0
 36 62  1  0  0  0
 37 38  1  0  0  0
 37 63  1  0  0  0
 38 39  2  0  0  0
 38 41  1  0  0  0
 39 40  1  0  0  0
 39 64  1  0  0  0
 40 65  1  0  0  0
M  END
> <i_i_glide_confnum>
165

> <i_i_glide_lignum>
1038

> <i_i_glide_posenum>
252

> <i_i_glide_rotatable_bonds>
10

> <i_m_Source_File_Index>
4745

> <b_m_subgroup_collapsed>
0

> <r_i_docking_score>
-5.21012

> <r_i_glide_ecoul>
-9.67554

> <r_i_glide_eff_state_penalty>
0

> <r_i_glide_einternal>
3.12729

> <r_i_glide_emodel>
-65.3481

> <r_i_glide_energy>
-49.4996

> <r_i_glide_erotb>
0.675418

> <r_i_glide_esite>
-0.15158

> <r_i_glide_evdw>
-39.8241

> <r_i_glide_gscore>
-5.21012

> <r_i_glide_hbond>
-0.16

> <r_i_glide_ligand_efficiency>
-0.133593

> <r_i_glide_ligand_efficiency_ln>
-1.1172

> <r_i_glide_ligand_efficiency_sa>
-0.453041

> <r_i_glide_lipo>
-1.86813

> <r_i_glide_metal>
0

> <r_i_glide_rewards>
-0.263288

> <s_i_glide_gridfile>
wee1_glide-grid

> <s_m_Source_File>
wee1_decoys_glide_SP.sdf

> <s_m_Source_Path>
/Users/zhangxujun/Desktop

> <s_m_entry_id>
5020

> <s_m_entry_name>
wee1_decoys_glide_SP.4745

> <s_m_subgroup_title>
wee1_decoys_glide_SP

> <s_m_subgroupid>
wee1_decoys_glide_SP


$$$$
