ZINC66109719_4918
                    3D
 Schrodinger Suite 2024-2.
 65 67  0  0  1  0            999 V2000
    6.0936   54.2587   28.2401 C   0  0  0  0  0  0
    5.2995   53.2035   27.4483 C   0  0  0  0  0  0
    3.8395   53.4663   27.4035 N   0  0  0  0  0  0
    3.0897   53.2529   28.6283 C   0  0  0  0  0  0
    1.8302   53.8485   28.8581 C   0  0  0  0  0  0
    1.0722   53.5385   29.9826 C   0  0  0  0  0  0
    1.5704   52.6496   30.9264 C   0  0  0  0  0  0
    2.8421   52.1075   30.7794 C   0  0  0  0  0  0
    3.5918   52.4101   29.6455 C   0  0  0  0  0  0
    3.2147   53.7529   26.2000 C   0  0  0  0  0  0
    1.9876   53.6959   26.0728 O   0  0  0  0  0  0
    3.9776   54.0695   24.9115 C   0  0  0  0  0  0
    5.2189   54.7249   24.8706 C   0  0  0  0  0  0
    5.9045   54.8966   23.6706 C   0  0  0  0  0  0
    5.3093   54.4966   22.4621 C   0  0  0  0  0  0
    4.0511   53.9011   22.4827 C   0  0  0  0  0  0
    3.3955   53.6968   23.6893 C   0  0  0  0  0  0
    5.8788   54.6659   21.1876 N   0  0  0  0  0  0
    6.9565   55.3864   20.8284 C   0  0  0  0  0  0
    7.6062   56.0967   21.5904 O   0  0  0  0  0  0
    7.3573   55.2627   19.3542 C   0  0  0  0  0  0
    8.7054   55.8906   19.1578 N   0  3  0  0  0  0
    9.1071   56.0120   17.6769 C   0  0  0  0  0  0
    9.2319   54.6676   16.9842 C   0  0  0  0  0  0
   10.4464   53.9819   17.0149 C   0  0  0  0  0  0
   10.5560   52.7426   16.3921 C   0  0  0  0  0  0
    9.4498   52.1756   15.7410 C   0  0  0  0  0  0
    8.2469   52.8773   15.7052 C   0  0  0  0  0  0
    8.1359   54.1226   16.3133 C   0  0  0  0  0  0
    9.4511   50.9501   15.1057 O   0  0  0  0  0  0
   10.6117   50.1206   15.1146 C   0  0  0  0  0  0
   10.7968   49.4542   16.4896 C   0  0  0  0  0  0
   10.4076   49.0866   14.0037 C   0  0  0  0  0  0
    7.1618   54.0398   28.2168 H   0  0  0  0  0  0
    5.9536   55.2727   27.8660 H   0  0  0  0  0  0
    5.7941   54.2664   29.2821 H   0  0  0  0  0  0
    5.4811   52.2308   27.8941 H   0  0  0  0  0  0
    5.7458   53.0414   26.4706 H   0  0  0  0  0  0
    1.4038   54.5603   28.1695 H   0  0  0  0  0  0
    0.0984   53.9852   30.1217 H   0  0  0  0  0  0
    0.9804   52.4142   31.8017 H   0  0  0  0  0  0
    3.2496   51.4733   31.5534 H   0  0  0  0  0  0
    4.5578   51.9374   29.5864 H   0  0  0  0  0  0
    5.6855   55.1098   25.7589 H   0  0  0  0  0  0
    6.8754   55.3657   23.7083 H   0  0  0  0  0  0
    3.5666   53.5940   21.5670 H   0  0  0  0  0  0
    2.4287   53.2126   23.6620 H   0  0  0  0  0  0
    5.3971   54.1780   20.4472 H   0  0  0  0  0  0
    6.6624   55.8056   18.7111 H   0  0  0  0  0  0
    7.4437   54.2203   19.0426 H   0  0  0  0  0  0
    9.4210   55.3437   19.6204 H   0  0  0  0  0  0
   10.0609   56.5442   17.6997 H   0  0  0  0  0  0
    8.3609   56.6607   17.2119 H   0  0  0  0  0  0
   11.3048   54.3995   17.5245 H   0  0  0  0  0  0
   11.5068   52.2361   16.4339 H   0  0  0  0  0  0
    7.3927   52.4458   15.2036 H   0  0  0  0  0  0
    7.1920   54.6476   16.2781 H   0  0  0  0  0  0
   11.5003   50.6984   14.8524 H   0  0  0  0  0  0
   11.6442   48.7680   16.4799 H   0  0  0  0  0  0
    9.9056   48.8968   16.7749 H   0  0  0  0  0  0
   10.9816   50.1786   17.2817 H   0  0  0  0  0  0
   11.2551   48.4031   13.9330 H   0  0  0  0  0  0
    9.5060   48.4969   14.1670 H   0  0  0  0  0  0
   10.3040   49.5767   13.0345 H   0  0  0  0  0  0
    8.7369   56.8085   19.5815 H   0  0  0  0  0  0
  1  2  1  0  0  0
  1 34  1  0  0  0
  1 35  1  0  0  0
  1 36  1  0  0  0
  2  3  1  0  0  0
  2 37  1  0  0  0
  2 38  1  0  0  0
  3  4  1  0  0  0
  3 10  1  0  0  0
  4  9  2  0  0  0
  4  5  1  0  0  0
  5  6  2  0  0  0
  5 39  1  0  0  0
  6  7  1  0  0  0
  6 40  1  0  0  0
  7  8  2  0  0  0
  7 41  1  0  0  0
  8  9  1  0  0  0
  8 42  1  0  0  0
  9 43  1  0  0  0
 10 11  2  0  0  0
 10 12  1  0  0  0
 12 17  2  0  0  0
 12 13  1  0  0  0
 13 14  2  0  0  0
 13 44  1  0  0  0
 14 15  1  0  0  0
 14 45  1  0  0  0
 15 16  2  0  0  0
 15 18  1  0  0  0
 16 17  1  0  0  0
 16 46  1  0  0  0
 17 47  1  0  0  0
 18 19  1  0  0  0
 18 48  1  0  0  0
 19 20  2  0  0  0
 19 21  1  0  0  0
 21 22  1  0  0  0
 21 49  1  0  0  0
 21 50  1  0  0  0
 22 23  1  0  0  0
 22 51  1  0  0  0
 22 65  1  0  0  0
 23 24  1  0  0  0
 23 52  1  0  0  0
 23 53  1  0  0  0
 24 29  2  0  0  0
 24 25  1  0  0  0
 25 26  2  0  0  0
 25 54  1  0  0  0
 26 27  1  0  0  0
 26 55  1  0  0  0
 27 28  2  0  0  0
 27 30  1  0  0  0
 28 29  1  0  0  0
 28 56  1  0  0  0
 29 57  1  0  0  0
 30 31  1  0  0  0
 31 32  1  0  0  0
 31 33  1  0  0  0
 31 58  1  0  0  0
 32 59  1  0  0  0
 32 60  1  0  0  0
 32 61  1  0  0  0
 33 62  1  0  0  0
 33 63  1  0  0  0
 33 64  1  0  0  0
M  CHG  1  22   1
M  END
> <i_i_glide_confnum>
225

> <i_i_glide_lignum>
4919

> <i_i_glide_posenum>
379

> <i_i_glide_rotatable_bonds>
12

> <i_m_Source_File_Index>
3901

> <b_m_subgroup_collapsed>
0

> <r_i_docking_score>
-6.14442

> <r_i_glide_ecoul>
-5.1891

> <r_i_glide_eff_state_penalty>
0

> <r_i_glide_einternal>
6.25603

> <r_i_glide_emodel>
-70.8732

> <r_i_glide_energy>
-50.0592

> <r_i_glide_erotb>
1.0038

> <r_i_glide_esite>
0

> <r_i_glide_evdw>
-44.8701

> <r_i_glide_gscore>
-6.14442

> <r_i_glide_hbond>
-0.0684827

> <r_i_glide_ligand_efficiency>
-0.186195

> <r_i_glide_ligand_efficiency_ln>
-1.36649

> <r_i_glide_ligand_efficiency_sa>
-0.597226

> <r_i_glide_lipo>
-2.93541

> <r_i_glide_metal>
0

> <r_i_glide_rewards>
-1.12245

> <s_i_glide_gridfile>
wee1_glide-grid

> <s_m_Source_File>
wee1_decoys_glide_SP.sdf

> <s_m_Source_Path>
/Users/zhangxujun/Desktop

> <s_m_entry_id>
4176

> <s_m_entry_name>
wee1_decoys_glide_SP.3901

> <s_m_subgroup_title>
wee1_decoys_glide_SP

> <s_m_subgroupid>
wee1_decoys_glide_SP


$$$$
