ZINC39836533_1049
                    3D
 Schrodinger Suite 2024-2.
 69 72  0  0  1  0            999 V2000
    4.6948   53.7943   15.3554 C   0  0  0  0  0  0
    5.6675   54.5485   16.2672 C   0  0  0  0  0  0
    5.2103   54.4062   17.6068 O   0  0  0  0  0  0
    6.0043   54.8471   18.6459 C   0  0  0  0  0  0
    7.1967   55.5688   18.4937 C   0  0  0  0  0  0
    7.9369   55.9527   19.6104 C   0  0  0  0  0  0
    7.4930   55.6233   20.8895 C   0  0  0  0  0  0
    6.3058   54.8984   21.0692 C   0  0  0  0  0  0
    5.5674   54.5290   19.9307 C   0  0  0  0  0  0
    5.8734   54.4966   22.4615 C   0  0  0  0  0  0
    6.7021   54.4049   23.3696 O   0  0  0  0  0  0
    4.5517   54.2597   22.5953 N   0  0  0  0  0  0
    3.8568   53.9249   23.7524 C   0  0  0  0  0  0
    2.6627   53.1722   23.8277 C   0  0  0  0  0  0
    2.1717   53.1237   25.1634 C   0  0  0  0  0  0
    3.0209   53.7764   26.0719 C   0  0  0  0  0  0
    4.3839   54.4967   25.3092 S   0  0  0  0  0  0
    2.8630   53.7993   27.5846 C   0  0  0  0  0  0
    1.4323   53.3340   27.9868 C   0  0  1  0  0  0
    0.7626   54.1418   27.6839 H   0  0  0  0  0  0
    1.0872   52.0543   27.1790 C   0  0  0  0  0  0
    0.9533   52.3394   25.6657 C   0  0  0  0  0  0
    1.2716   53.2066   29.5541 C   0  0  0  0  0  0
    2.3301   52.2720   30.1929 C   0  0  0  0  0  0
   -0.1195   52.6399   29.9232 C   0  0  0  0  0  0
    1.3745   54.6103   30.2049 C   0  0  0  0  0  0
    1.9764   52.5717   22.6850 C   0  0  0  0  0  0
    0.7533   52.4368   22.6602 O   0  0  0  0  0  0
    2.7946   52.1868   21.6788 N   0  0  0  0  0  0
    2.4690   51.6258   20.3598 C   0  0  1  0  0  0
    3.3811   51.5214   19.7647 H   0  0  0  0  0  0
    1.8895   50.1959   20.4726 C   0  0  0  0  0  0
    1.3817   49.7767   19.0872 C   0  0  0  0  0  0
    0.5261   51.3141   18.4544 S   0  0  0  0  0  0
   -0.8780   51.3154   18.8782 O   0  0  0  0  0  0
    0.8751   51.5277   17.0473 O   0  0  0  0  0  0
    1.4826   52.4964   19.5489 C   0  0  0  0  0  0
    4.9972   53.8688   14.3099 H   0  0  0  0  0  0
    4.6566   52.7364   15.6177 H   0  0  0  0  0  0
    3.6854   54.1972   15.4428 H   0  0  0  0  0  0
    5.7057   55.6021   15.9883 H   0  0  0  0  0  0
    6.6681   54.1281   16.1498 H   0  0  0  0  0  0
    7.5656   55.8360   17.5158 H   0  0  0  0  0  0
    8.8628   56.4953   19.4832 H   0  0  0  0  0  0
    8.0962   55.9120   21.7404 H   0  0  0  0  0  0
    4.6552   53.9565   20.0112 H   0  0  0  0  0  0
    4.0282   54.1582   21.7385 H   0  0  0  0  0  0
    3.6143   53.1271   27.9944 H   0  0  0  0  0  0
    3.0711   54.7974   27.9683 H   0  0  0  0  0  0
    1.7922   51.2532   27.4032 H   0  0  0  0  0  0
    0.1246   51.6526   27.4909 H   0  0  0  0  0  0
    0.0399   52.8961   25.4599 H   0  0  0  0  0  0
    0.8415   51.3957   25.1331 H   0  0  0  0  0  0
    3.3384   52.6861   30.1494 H   0  0  0  0  0  0
    2.1177   52.0973   31.2477 H   0  0  0  0  0  0
    2.3500   51.2983   29.6974 H   0  0  0  0  0  0
   -0.8953   53.2064   29.4132 H   0  0  0  0  0  0
   -0.2356   51.5900   29.6502 H   0  0  0  0  0  0
   -0.3207   52.7012   30.9929 H   0  0  0  0  0  0
    0.7044   55.3261   29.7257 H   0  0  0  0  0  0
    1.1043   54.5874   31.2618 H   0  0  0  0  0  0
    2.3821   55.0207   30.1362 H   0  0  0  0  0  0
    3.7794   52.1938   21.8932 H   0  0  0  0  0  0
    1.0705   50.1733   21.1952 H   0  0  0  0  0  0
    2.6361   49.4991   20.8585 H   0  0  0  0  0  0
    0.7355   48.9042   19.0027 H   0  0  0  0  0  0
    2.2509   49.6165   18.4442 H   0  0  0  0  0  0
    1.9256   53.2941   18.9533 H   0  0  0  0  0  0
    0.7053   52.9088   20.1853 H   0  0  0  0  0  0
  1  2  1  0  0  0
  1 38  1  0  0  0
  1 39  1  0  0  0
  1 40  1  0  0  0
  2  3  1  0  0  0
  2 41  1  0  0  0
  2 42  1  0  0  0
  3  4  1  0  0  0
  4  9  2  0  0  0
  4  5  1  0  0  0
  5  6  2  0  0  0
  5 43  1  0  0  0
  6  7  1  0  0  0
  6 44  1  0  0  0
  7  8  2  0  0  0
  7 45  1  0  0  0
  8  9  1  0  0  0
  8 10  1  0  0  0
  9 46  1  0  0  0
 10 11  2  0  0  0
 10 12  1  0  0  0
 12 13  1  0  0  0
 12 47  1  0  0  0
 13 17  1  0  0  0
 13 14  2  0  0  0
 14 15  1  0  0  0
 14 27  1  0  0  0
 15 22  1  0  0  0
 15 16  2  0  0  0
 16 17  1  0  0  0
 16 18  1  0  0  0
 18 19  1  0  0  0
 18 48  1  0  0  0
 18 49  1  0  0  0
 19 20  1  0  0  0
 19 21  1  0  0  0
 19 23  1  0  0  0
 21 22  1  0  0  0
 21 50  1  0  0  0
 21 51  1  0  0  0
 22 52  1  0  0  0
 22 53  1  0  0  0
 23 24  1  0  0  0
 23 25  1  0  0  0
 23 26  1  0  0  0
 24 54  1  0  0  0
 24 55  1  0  0  0
 24 56  1  0  0  0
 25 57  1  0  0  0
 25 58  1  0  0  0
 25 59  1  0  0  0
 26 60  1  0  0  0
 26 61  1  0  0  0
 26 62  1  0  0  0
 27 28  2  0  0  0
 27 29  1  0  0  0
 29 30  1  0  0  0
 29 63  1  0  0  0
 30 31  1  0  0  0
 30 37  1  0  0  0
 30 32  1  0  0  0
 32 33  1  0  0  0
 32 64  1  0  0  0
 32 65  1  0  0  0
 33 34  1  0  0  0
 33 66  1  0  0  0
 33 67  1  0  0  0
 34 35  2  0  0  0
 34 36  2  0  0  0
 34 37  1  0  0  0
 37 68  1  0  0  0
 37 69  1  0  0  0
M  END
> <i_i_glide_confnum>
7

> <i_i_glide_lignum>
1050

> <i_i_glide_posenum>
332

> <i_i_glide_rotatable_bonds>
9

> <i_m_Source_File_Index>
4364

> <b_m_subgroup_collapsed>
0

> <r_i_docking_score>
-5.12773

> <r_i_glide_ecoul>
-2.70583

> <r_i_glide_eff_state_penalty>
0

> <r_i_glide_einternal>
4.27297

> <r_i_glide_emodel>
-60.2589

> <r_i_glide_energy>
-45.9158

> <r_i_glide_erotb>
0.534419

> <r_i_glide_esite>
-0.0449295

> <r_i_glide_evdw>
-43.2099

> <r_i_glide_gscore>
-5.12773

> <r_i_glide_hbond>
0

> <r_i_glide_ligand_efficiency>
-0.146506

> <r_i_glide_ligand_efficiency_ln>
-1.12565

> <r_i_glide_ligand_efficiency_sa>
-0.479232

> <r_i_glide_lipo>
-2.6252

> <r_i_glide_metal>
0

> <r_i_glide_rewards>
-0.425646

> <s_i_glide_gridfile>
wee1_glide-grid

> <s_m_Source_File>
wee1_decoys_glide_SP.sdf

> <s_m_Source_Path>
/Users/zhangxujun/Desktop

> <s_m_entry_id>
4639

> <s_m_entry_name>
wee1_decoys_glide_SP.4364

> <s_m_subgroup_title>
wee1_decoys_glide_SP

> <s_m_subgroupid>
wee1_decoys_glide_SP


$$$$
