ZINC12138047_5076
                    3D
 Schrodinger Suite 2024-2.
 72 75  0  0  1  0            999 V2000
    2.1815   47.6504   15.3387 C   0  0  0  0  0  0
    0.8554   48.2880   14.8404 C   0  0  0  0  0  0
    0.7135   47.9805   13.3286 C   0  0  0  0  0  0
   -0.3210   47.6223   15.5988 C   0  0  0  0  0  0
    0.7766   49.8340   15.0536 C   0  0  0  0  0  0
   -0.2229   50.4258   14.6337 O   0  0  0  0  0  0
    1.7946   50.4376   15.7249 N   0  0  0  0  0  0
    2.0403   51.7411   16.0762 C   0  0  0  0  0  0
    1.2024   53.1144   15.5641 S   0  0  0  0  0  0
    3.1022   51.7955   16.9338 N   0  0  0  0  0  0
    3.7251   52.8981   17.5371 C   0  0  0  0  0  0
    4.6875   53.5615   16.7688 C   0  0  0  0  0  0
    5.4316   54.6021   17.3117 C   0  0  0  0  0  0
    5.2247   54.9826   18.6320 C   0  0  0  0  0  0
    4.2770   54.3181   19.4067 C   0  0  0  0  0  0
    3.5057   53.2570   18.8928 C   0  0  0  0  0  0
    2.4253   52.5944   19.7562 C   0  0  0  0  0  0
    1.4392   52.0800   19.2229 O   0  0  0  0  0  0
    2.5275   52.6397   21.1140 N   0  0  0  0  0  0
    3.8171   52.3887   21.7784 C   0  0  0  0  0  0
    3.8901   53.2970   23.0288 C   0  0  0  0  0  0
    1.4114   53.3156   23.1906 C   0  0  0  0  0  0
    1.3301   52.3952   21.9476 C   0  0  0  0  0  0
    2.7590   53.7696   25.3590 C   0  0  0  0  0  0
    4.1697   53.9702   25.9737 C   0  0  0  0  0  0
    4.5660   53.2973   27.1428 C   0  0  0  0  0  0
    5.8010   53.5539   27.7294 C   0  0  0  0  0  0
    6.6647   54.4763   27.1486 C   0  0  0  0  0  0
    6.3007   55.1432   25.9825 C   0  0  0  0  0  0
    5.0536   54.9006   25.4134 C   0  0  0  0  0  0
    1.7135   53.2971   26.4044 C   0  0  0  0  0  0
    0.9957   52.0972   26.2647 C   0  0  0  0  0  0
    0.1153   51.6744   27.2575 C   0  0  0  0  0  0
   -0.0671   52.4523   28.3963 C   0  0  0  0  0  0
    0.6236   53.6510   28.5502 C   0  0  0  0  0  0
    1.5087   54.0669   27.5597 C   0  0  0  0  0  0
    2.2174   46.5822   15.1298 H   0  0  0  0  0  0
    2.3039   47.7598   16.4175 H   0  0  0  0  0  0
    3.0581   48.0959   14.8637 H   0  0  0  0  0  0
   -0.2182   48.3713   12.9144 H   0  0  0  0  0  0
    1.5323   48.4105   12.7515 H   0  0  0  0  0  0
    0.7157   46.9065   13.1399 H   0  0  0  0  0  0
   -1.2891   48.0063   15.2767 H   0  0  0  0  0  0
   -0.3407   46.5438   15.4367 H   0  0  0  0  0  0
   -0.2544   47.7840   16.6753 H   0  0  0  0  0  0
    2.5273   49.7959   16.0118 H   0  0  0  0  0  0
    3.5570   50.9131   17.1518 H   0  0  0  0  0  0
    4.8691   53.2604   15.7467 H   0  0  0  0  0  0
    6.1668   55.1154   16.7095 H   0  0  0  0  0  0
    5.7882   55.8018   19.0539 H   0  0  0  0  0  0
    4.1128   54.6778   20.4100 H   0  0  0  0  0  0
    3.8377   51.3429   22.0811 H   0  0  0  0  0  0
    4.6887   52.5257   21.1358 H   0  0  0  0  0  0
    3.8829   54.3598   22.7779 H   0  0  0  0  0  0
    4.8165   53.0668   23.5544 H   0  0  0  0  0  0
    1.3980   54.3785   22.9344 H   0  0  0  0  0  0
    0.5617   53.1067   23.8414 H   0  0  0  0  0  0
    0.4068   52.6021   21.4025 H   0  0  0  0  0  0
    1.3081   51.3518   22.2705 H   0  0  0  0  0  0
    2.4309   54.7552   25.0288 H   0  0  0  0  0  0
    3.9182   52.5690   27.6122 H   0  0  0  0  0  0
    6.0890   53.0372   28.6332 H   0  0  0  0  0  0
    7.6177   54.6731   27.6173 H   0  0  0  0  0  0
    6.9676   55.8603   25.5268 H   0  0  0  0  0  0
    4.7790   55.4549   24.5306 H   0  0  0  0  0  0
    1.1174   51.4581   25.4059 H   0  0  0  0  0  0
   -0.4205   50.7392   27.1531 H   0  0  0  0  0  0
   -0.7460   52.1165   29.1670 H   0  0  0  0  0  0
    0.4773   54.2501   29.4381 H   0  0  0  0  0  0
    2.0502   54.9925   27.6961 H   0  0  0  0  0  0
    2.7047   53.0034   23.9900 N   0  3  0  0  0  0
    2.7134   52.0220   24.2297 H   0  0  0  0  0  0
  1  2  1  0  0  0
  1 37  1  0  0  0
  1 38  1  0  0  0
  1 39  1  0  0  0
  2  3  1  0  0  0
  2  4  1  0  0  0
  2  5  1  0  0  0
  3 40  1  0  0  0
  3 41  1  0  0  0
  3 42  1  0  0  0
  4 43  1  0  0  0
  4 44  1  0  0  0
  4 45  1  0  0  0
  5  6  2  0  0  0
  5  7  1  0  0  0
  7  8  1  0  0  0
  7 46  1  0  0  0
  8  9  2  0  0  0
  8 10  1  0  0  0
 10 11  1  0  0  0
 10 47  1  0  0  0
 11 16  2  0  0  0
 11 12  1  0  0  0
 12 13  2  0  0  0
 12 48  1  0  0  0
 13 14  1  0  0  0
 13 49  1  0  0  0
 14 15  2  0  0  0
 14 50  1  0  0  0
 15 16  1  0  0  0
 15 51  1  0  0  0
 16 17  1  0  0  0
 17 18  2  0  0  0
 17 19  1  0  0  0
 19 23  1  0  0  0
 19 20  1  0  0  0
 20 21  1  0  0  0
 20 52  1  0  0  0
 20 53  1  0  0  0
 21 54  1  0  0  0
 21 55  1  0  0  0
 21 71  1  0  0  0
 22 23  1  0  0  0
 22 56  1  0  0  0
 22 57  1  0  0  0
 22 71  1  0  0  0
 23 58  1  0  0  0
 23 59  1  0  0  0
 24 25  1  0  0  0
 24 31  1  0  0  0
 24 60  1  0  0  0
 24 71  1  0  0  0
 25 30  2  0  0  0
 25 26  1  0  0  0
 26 27  2  0  0  0
 26 61  1  0  0  0
 27 28  1  0  0  0
 27 62  1  0  0  0
 28 29  2  0  0  0
 28 63  1  0  0  0
 29 30  1  0  0  0
 29 64  1  0  0  0
 30 65  1  0  0  0
 31 36  2  0  0  0
 31 32  1  0  0  0
 32 33  2  0  0  0
 32 66  1  0  0  0
 33 34  1  0  0  0
 33 67  1  0  0  0
 34 35  2  0  0  0
 34 68  1  0  0  0
 35 36  1  0  0  0
 35 69  1  0  0  0
 36 70  1  0  0  0
 71 72  1  0  0  0
M  CHG  1  71   1
M  END
> <i_i_glide_confnum>
151

> <i_i_glide_lignum>
5077

> <i_i_glide_posenum>
111

> <i_i_glide_rotatable_bonds>
10

> <i_m_Source_File_Index>
4808

> <b_m_subgroup_collapsed>
0

> <r_i_docking_score>
-4.32454

> <r_i_glide_ecoul>
-2.49375

> <r_i_glide_eff_state_penalty>
0

> <r_i_glide_einternal>
8.63559

> <r_i_glide_emodel>
-42.0595

> <r_i_glide_energy>
-35.3533

> <r_i_glide_erotb>
0.694476

> <r_i_glide_esite>
-0.301387

> <r_i_glide_evdw>
-32.8596

> <r_i_glide_gscore>
-4.32454

> <r_i_glide_hbond>
-0.376406

> <r_i_glide_ligand_efficiency>
-0.11688

> <r_i_glide_ligand_efficiency_ln>
-0.937892

> <r_i_glide_ligand_efficiency_sa>
-0.389469

> <r_i_glide_lipo>
-2.80513

> <r_i_glide_metal>
0

> <r_i_glide_rewards>
0.480947

> <s_i_glide_gridfile>
wee1_glide-grid

> <s_m_Source_File>
wee1_decoys_glide_SP.sdf

> <s_m_Source_Path>
/Users/zhangxujun/Desktop

> <s_m_entry_id>
5083

> <s_m_entry_name>
wee1_decoys_glide_SP.4808

> <s_m_subgroup_title>
wee1_decoys_glide_SP

> <s_m_subgroupid>
wee1_decoys_glide_SP


$$$$
