ZINC14268117_5139
                    3D
 Schrodinger Suite 2024-2.
 51 53  0  0  1  0            999 V2000
    4.5668   54.0748   29.2746 C   0  0  0  0  0  0
    3.6738   54.6107   28.1369 C   0  0  1  0  0  0
    3.5040   55.6732   28.3243 H   0  0  0  0  0  0
    4.3361   54.5289   26.7430 C   0  0  0  0  0  0
    5.6813   54.8962   26.5786 C   0  0  0  0  0  0
    6.2720   54.8755   25.3171 C   0  0  0  0  0  0
    5.5232   54.4852   24.2126 C   0  0  0  0  0  0
    4.1974   54.0978   24.3563 C   0  0  0  0  0  0
    3.6060   54.1191   25.6137 C   0  0  0  0  0  0
    6.3047   54.4968   22.4823 Br  0  0  0  0  0  0
    2.3658   53.9586   28.1751 N   0  0  0  0  0  0
    1.2657   54.3116   28.8620 C   0  0  0  0  0  0
    1.2417   55.2920   29.6030 O   0  0  0  0  0  0
   -0.0207   53.4523   28.7132 C   0  0  0  0  0  0
    0.0662   52.3732   27.6916 N   0  0  0  0  0  0
   -0.8567   52.2099   26.7150 C   0  0  0  0  0  0
   -1.8544   52.8965   26.4815 O   0  0  0  0  0  0
   -0.3956   51.0108   25.8865 C   0  0  1  0  0  0
    0.4605   50.4338   26.8808 N   0  0  0  0  0  0
    0.8820   51.2967   27.8082 C   0  0  0  0  0  0
    1.9043   51.1911   28.4824 O   0  0  0  0  0  0
   -1.6236   50.1044   25.6237 C   0  0  0  0  0  0
    0.3860   51.3499   24.5873 C   0  0  0  0  0  0
    1.1033   50.3359   23.9371 C   0  0  0  0  0  0
    1.8184   50.5988   22.7693 C   0  0  0  0  0  0
    1.8146   51.8865   22.2144 C   0  0  0  0  0  0
    1.1009   52.8948   22.8548 C   0  0  0  0  0  0
    0.3880   52.6354   24.0211 C   0  0  0  0  0  0
    2.4503   52.2512   21.0422 O   0  0  0  0  0  0
    3.4588   51.4207   20.4715 C   0  0  0  0  0  0
    4.5097   51.2968   21.2817 F   0  0  0  0  0  0
    2.9920   50.2342   20.0815 F   0  0  0  0  0  0
    5.4731   54.6684   29.3935 H   0  0  0  0  0  0
    4.0470   54.1057   30.2322 H   0  0  0  0  0  0
    4.8597   53.0393   29.0939 H   0  0  0  0  0  0
    6.2740   55.2263   27.4195 H   0  0  0  0  0  0
    7.3017   55.1697   25.1841 H   0  0  0  0  0  0
    3.6296   53.7944   23.4899 H   0  0  0  0  0  0
    2.5686   53.8298   25.6870 H   0  0  0  0  0  0
    2.3627   53.0191   27.8001 H   0  0  0  0  0  0
   -0.2706   53.0210   29.6834 H   0  0  0  0  0  0
   -0.8223   54.1377   28.4463 H   0  0  0  0  0  0
    0.5688   49.4324   26.9666 H   0  0  0  0  0  0
   -2.3476   50.5881   24.9663 H   0  0  0  0  0  0
   -1.3277   49.1710   25.1442 H   0  0  0  0  0  0
   -2.1469   49.8285   26.5417 H   0  0  0  0  0  0
    1.1226   49.3345   24.3450 H   0  0  0  0  0  0
    2.3627   49.7882   22.3108 H   0  0  0  0  0  0
    1.1044   53.8893   22.4329 H   0  0  0  0  0  0
   -0.1585   53.4508   24.4707 H   0  0  0  0  0  0
    3.8352   51.9005   19.5674 H   0  0  0  0  0  0
  1  2  1  0  0  0
  1 33  1  0  0  0
  1 34  1  0  0  0
  1 35  1  0  0  0
  2  3  1  0  0  0
  2  4  1  0  0  0
  2 11  1  0  0  0
  4  9  2  0  0  0
  4  5  1  0  0  0
  5  6  2  0  0  0
  5 36  1  0  0  0
  6  7  1  0  0  0
  6 37  1  0  0  0
  7  8  2  0  0  0
  7 10  1  0  0  0
  8  9  1  0  0  0
  8 38  1  0  0  0
  9 39  1  0  0  0
 11 12  1  0  0  0
 11 40  1  0  0  0
 12 13  2  0  0  0
 12 14  1  0  0  0
 14 15  1  0  0  0
 14 41  1  0  0  0
 14 42  1  0  0  0
 15 20  1  0  0  0
 15 16  1  0  0  0
 16 17  2  0  0  0
 16 18  1  0  0  0
 18 19  1  0  0  0
 18 22  1  0  0  0
 18 23  1  0  0  0
 19 20  1  0  0  0
 19 43  1  0  0  0
 20 21  2  0  0  0
 22 44  1  0  0  0
 22 45  1  0  0  0
 22 46  1  0  0  0
 23 28  2  0  0  0
 23 24  1  0  0  0
 24 25  2  0  0  0
 24 47  1  0  0  0
 25 26  1  0  0  0
 25 48  1  0  0  0
 26 27  2  0  0  0
 26 29  1  0  0  0
 27 28  1  0  0  0
 27 49  1  0  0  0
 28 50  1  0  0  0
 29 30  1  0  0  0
 30 31  1  0  0  0
 30 32  1  0  0  0
 30 51  1  0  0  0
M  END
> <i_i_glide_confnum>
149

> <i_i_glide_lignum>
5140

> <i_i_glide_posenum>
337

> <i_i_glide_rotatable_bonds>
8

> <i_m_Source_File_Index>
203

> <b_m_subgroup_collapsed>
0

> <r_i_docking_score>
-5.91662

> <r_i_glide_ecoul>
-4.22675

> <r_i_glide_eff_state_penalty>
0

> <r_i_glide_einternal>
11.6107

> <r_i_glide_emodel>
-60.2715

> <r_i_glide_energy>
-48.8006

> <r_i_glide_erotb>
0.496712

> <r_i_glide_esite>
-0.145223

> <r_i_glide_evdw>
-44.5738

> <r_i_glide_gscore>
-5.91662

> <r_i_glide_hbond>
0

> <r_i_glide_ligand_efficiency>
-0.190859

> <r_i_glide_ligand_efficiency_ln>
-1.33438

> <r_i_glide_ligand_efficiency_sa>
-0.59956

> <r_i_glide_lipo>
-2.95129

> <r_i_glide_metal>
0

> <r_i_glide_rewards>
-0.45411

> <s_i_glide_gridfile>
wee1_glide-grid

> <s_m_Source_File>
wee1_decoys_glide_SP.sdf

> <s_m_Source_Path>
/Users/zhangxujun/Desktop

> <s_m_entry_id>
478

> <s_m_entry_name>
wee1_decoys_glide_SP.203

> <s_m_subgroup_title>
wee1_decoys_glide_SP

> <s_m_subgroupid>
wee1_decoys_glide_SP


$$$$
