ZINC52095085_3788
                    3D
 Schrodinger Suite 2024-2.
 30 32  0  0  1  0            999 V2000
    3.3817   53.9465   25.8495 C   0  0  0  0  0  0
    3.5196   54.1208   27.2393 C   0  0  0  0  0  0
    4.7901   54.4968   27.7483 C   0  0  0  0  0  0
    5.8850   54.6621   26.8882 C   0  0  0  0  0  0
    5.6979   54.4962   25.5211 C   0  0  0  0  0  0
    4.4778   54.1538   25.0190 C   0  0  0  0  0  0
    4.6240   54.0967   23.6552 N   0  0  0  0  0  0
    3.8880   53.8883   22.9971 H   0  0  0  0  0  0
    5.8794   54.4146   23.2810 C   0  0  0  0  0  0
    6.3129   54.4997   22.1389 O   0  0  0  0  0  0
    6.5395   54.6287   24.4384 N   0  0  0  0  0  0
    7.5182   54.8759   24.4705 H   0  0  0  0  0  0
    5.1043   54.8966   29.5819 Br  0  0  0  0  0  0
    2.2603   53.8885   28.1006 C   0  0  1  0  0  0
    1.4287   53.9684   27.3990 H   0  0  0  0  0  0
    2.1535   52.4570   28.7208 C   0  0  1  0  0  0
    2.6217   51.7642   28.0190 H   0  0  0  0  0  0
    2.7373   52.2560   30.1175 C   0  0  0  0  0  0
    1.5394   52.2294   31.0798 C   0  0  0  0  0  0
    0.3898   52.3807   30.2518 O   0  0  0  0  0  0
    0.7109   51.9767   28.9313 C   0  0  0  0  0  0
    1.8859   55.2094   29.2529 Cl  0  0  0  0  0  0
    2.4306   53.6638   25.4222 H   0  0  0  0  0  0
    6.8441   54.9492   27.2921 H   0  0  0  0  0  0
    3.4834   52.9889   30.3994 H   0  0  0  0  0  0
    3.2536   51.2971   30.1500 H   0  0  0  0  0  0
    1.5541   53.0541   31.7898 H   0  0  0  0  0  0
    1.5074   51.2971   31.6512 H   0  0  0  0  0  0
    0.6002   50.8964   28.8285 H   0  0  0  0  0  0
   -0.0013   52.3887   28.2154 H   0  0  0  0  0  0
  1  6  2  0  0  0
  1  2  1  0  0  0
  1 23  1  0  0  0
  2  3  2  0  0  0
  2 14  1  0  0  0
  3  4  1  0  0  0
  3 13  1  0  0  0
  4  5  2  0  0  0
  4 24  1  0  0  0
  5 11  1  0  0  0
  5  6  1  0  0  0
  6  7  1  0  0  0
  7  8  1  0  0  0
  7  9  1  0  0  0
  9 10  2  0  0  0
  9 11  1  0  0  0
 11 12  1  0  0  0
 14 15  1  0  0  0
 14 16  1  0  0  0
 14 22  1  0  0  0
 16 17  1  0  0  0
 16 21  1  0  0  0
 16 18  1  0  0  0
 18 19  1  0  0  0
 18 25  1  0  0  0
 18 26  1  0  0  0
 19 20  1  0  0  0
 19 27  1  0  0  0
 19 28  1  0  0  0
 20 21  1  0  0  0
 21 29  1  0  0  0
 21 30  1  0  0  0
M  END
> <i_i_glide_confnum>
18

> <i_i_glide_lignum>
3789

> <i_i_glide_posenum>
83

> <i_i_glide_rotatable_bonds>
2

> <i_m_Source_File_Index>
2675

> <b_m_subgroup_collapsed>
0

> <r_i_docking_score>
-5.43365

> <r_i_glide_ecoul>
0.482796

> <r_i_glide_eff_state_penalty>
0

> <r_i_glide_einternal>
3.22059

> <r_i_glide_emodel>
-43.4164

> <r_i_glide_energy>
-33.7506

> <r_i_glide_erotb>
0.342387

> <r_i_glide_esite>
0

> <r_i_glide_evdw>
-34.2334

> <r_i_glide_gscore>
-5.43365

> <r_i_glide_hbond>
-0.119356

> <r_i_glide_ligand_efficiency>
-0.30187

> <r_i_glide_ligand_efficiency_ln>
-1.39669

> <r_i_glide_ligand_efficiency_sa>
-0.791122

> <r_i_glide_lipo>
-2.4404

> <r_i_glide_metal>
0

> <r_i_glide_rewards>
-1.57704

> <s_i_glide_gridfile>
wee1_glide-grid

> <s_m_Source_File>
wee1_decoys_glide_SP.sdf

> <s_m_Source_Path>
/Users/zhangxujun/Desktop

> <s_m_entry_id>
2950

> <s_m_entry_name>
wee1_decoys_glide_SP.2675

> <s_m_subgroup_title>
wee1_decoys_glide_SP

> <s_m_subgroupid>
wee1_decoys_glide_SP


$$$$
