ZINC35711910_4948
                    3D
 Schrodinger Suite 2024-2.
 57 59  0  0  1  0            999 V2000
    6.1995   53.9926   27.6587 C   0  0  0  0  0  0
    4.7605   54.3987   27.3058 C   0  0  0  0  0  0
    4.6031   55.2342   26.0068 C   0  0  0  0  0  0
    4.8505   54.5000   24.7371 N   0  0  0  0  0  0
    3.8369   53.9258   23.9713 C   0  0  0  0  0  0
    4.1019   53.3695   22.7513 C   0  0  0  0  0  0
    5.5040   53.5435   22.1259 C   0  0  2  0  0  0
    5.7963   52.6173   21.6273 H   0  0  0  0  0  0
    6.4548   53.7716   23.2403 N   0  0  0  0  0  0
    6.1730   54.4968   24.3499 C   0  0  0  0  0  0
    7.1008   55.1096   24.8849 O   0  0  0  0  0  0
    5.5999   54.5685   20.9635 C   0  0  0  0  0  0
    6.2404   55.8038   21.1245 C   0  0  0  0  0  0
    6.3051   56.7153   20.0687 C   0  0  0  0  0  0
    5.7831   56.3937   18.8187 C   0  0  0  0  0  0
    5.1931   55.1361   18.6310 C   0  0  0  0  0  0
    5.1180   54.2344   19.6902 C   0  0  0  0  0  0
    5.8607   57.4022   17.8288 N   0  0  0  0  0  0
    5.7113   57.2917   16.4938 C   0  0  0  0  0  0
    5.5236   56.2274   15.9048 O   0  0  0  0  0  0
    5.8129   58.4970   15.8876 N   0  0  0  0  0  0
    5.8395   58.7857   14.5046 C   0  0  0  0  0  0
    5.6662   60.1246   14.1410 C   0  0  0  0  0  0
    5.6866   60.5042   12.8014 C   0  0  0  0  0  0
    5.8922   59.5443   11.8156 C   0  0  0  0  0  0
    6.0857   58.2097   12.1595 C   0  0  0  0  0  0
    6.0619   57.8306   13.4987 C   0  0  0  0  0  0
    5.9174   60.0604    9.9840 Br  0  0  0  0  0  0
    3.0987   52.6973   21.8810 C   0  0  0  0  0  0
    3.4280   51.8648   21.0327 O   0  0  0  0  0  0
    1.8107   53.0694   22.0810 O   0  0  0  0  0  0
    0.7617   52.4975   21.3157 C   0  0  0  0  0  0
    2.4830   53.7909   24.6956 C   0  0  0  0  0  0
    6.2413   53.5202   28.6396 H   0  0  0  0  0  0
    6.8645   54.8578   27.6826 H   0  0  0  0  0  0
    6.6038   53.2770   26.9424 H   0  0  0  0  0  0
    4.1351   53.5061   27.2741 H   0  0  0  0  0  0
    4.3778   54.9924   28.1350 H   0  0  0  0  0  0
    3.6159   55.6962   25.9834 H   0  0  0  0  0  0
    5.2873   56.0779   26.0804 H   0  0  0  0  0  0
    7.4329   53.8043   22.9934 H   0  0  0  0  0  0
    6.6514   56.0967   22.0769 H   0  0  0  0  0  0
    6.7298   57.6905   20.2310 H   0  0  0  0  0  0
    4.7703   54.8383   17.6847 H   0  0  0  0  0  0
    4.6728   53.2720   19.4982 H   0  0  0  0  0  0
    6.1003   58.3199   18.1742 H   0  0  0  0  0  0
    5.8176   59.3167   16.4819 H   0  0  0  0  0  0
    5.5043   60.8896   14.8865 H   0  0  0  0  0  0
    5.5404   61.5400   12.5293 H   0  0  0  0  0  0
    6.2537   57.4690   11.3914 H   0  0  0  0  0  0
    6.2302   56.7907   13.7264 H   0  0  0  0  0  0
   -0.1964   52.7491   21.7712 H   0  0  0  0  0  0
    0.7737   52.8933   20.2974 H   0  0  0  0  0  0
    0.8358   51.4062   21.2764 H   0  0  0  0  0  0
    1.9751   52.8607   24.4472 H   0  0  0  0  0  0
    2.5496   53.7459   25.7775 H   0  0  0  0  0  0
    1.8311   54.6218   24.4259 H   0  0  0  0  0  0
  1  2  1  0  0  0
  1 34  1  0  0  0
  1 35  1  0  0  0
  1 36  1  0  0  0
  2  3  1  0  0  0
  2 37  1  0  0  0
  2 38  1  0  0  0
  3  4  1  0  0  0
  3 39  1  0  0  0
  3 40  1  0  0  0
  4 10  1  0  0  0
  4  5  1  0  0  0
  5  6  2  0  0  0
  5 33  1  0  0  0
  6  7  1  0  0  0
  6 29  1  0  0  0
  7  8  1  0  0  0
  7  9  1  0  0  0
  7 12  1  0  0  0
  9 10  1  0  0  0
  9 41  1  0  0  0
 10 11  2  0  0  0
 12 17  2  0  0  0
 12 13  1  0  0  0
 13 14  2  0  0  0
 13 42  1  0  0  0
 14 15  1  0  0  0
 14 43  1  0  0  0
 15 16  2  0  0  0
 15 18  1  0  0  0
 16 17  1  0  0  0
 16 44  1  0  0  0
 17 45  1  0  0  0
 18 19  1  0  0  0
 18 46  1  0  0  0
 19 20  2  0  0  0
 19 21  1  0  0  0
 21 22  1  0  0  0
 21 47  1  0  0  0
 22 27  2  0  0  0
 22 23  1  0  0  0
 23 24  2  0  0  0
 23 48  1  0  0  0
 24 25  1  0  0  0
 24 49  1  0  0  0
 25 26  2  0  0  0
 25 28  1  0  0  0
 26 27  1  0  0  0
 26 50  1  0  0  0
 27 51  1  0  0  0
 29 30  2  0  0  0
 29 31  1  0  0  0
 31 32  1  0  0  0
 32 52  1  0  0  0
 32 53  1  0  0  0
 32 54  1  0  0  0
 33 55  1  0  0  0
 33 56  1  0  0  0
 33 57  1  0  0  0
M  END
> <i_i_glide_confnum>
29

> <i_i_glide_lignum>
4949

> <i_i_glide_posenum>
232

> <i_i_glide_rotatable_bonds>
9

> <i_m_Source_File_Index>
1332

> <b_m_subgroup_collapsed>
0

> <r_i_docking_score>
-5.19147

> <r_i_glide_ecoul>
-0.767995

> <r_i_glide_eff_state_penalty>
0

> <r_i_glide_einternal>
3.41243

> <r_i_glide_emodel>
-51.4829

> <r_i_glide_energy>
-36.6961

> <r_i_glide_erotb>
0.487542

> <r_i_glide_esite>
-0.071535

> <r_i_glide_evdw>
-35.9281

> <r_i_glide_gscore>
-5.19147

> <r_i_glide_hbond>
-0.272487

> <r_i_glide_ligand_efficiency>
-0.162233

> <r_i_glide_ligand_efficiency_ln>
-1.16251

> <r_i_glide_ligand_efficiency_sa>
-0.515059

> <r_i_glide_lipo>
-2.11383

> <r_i_glide_metal>
0

> <r_i_glide_rewards>
-1.30956

> <s_i_glide_gridfile>
wee1_glide-grid

> <s_m_Source_File>
wee1_decoys_glide_SP.sdf

> <s_m_Source_Path>
/Users/zhangxujun/Desktop

> <s_m_entry_id>
1607

> <s_m_entry_name>
wee1_decoys_glide_SP.1332

> <s_m_subgroup_title>
wee1_decoys_glide_SP

> <s_m_subgroupid>
wee1_decoys_glide_SP


$$$$
