ZINC27856295_4453
                    3D
 Schrodinger Suite 2024-2.
 46 48  0  0  1  0            999 V2000
    4.1190   54.0812   24.3695 C   0  0  0  0  0  0
    4.9673   54.2781   23.2872 C   0  0  0  0  0  0
    6.2079   54.8965   23.4868 C   0  0  0  0  0  0
    6.6117   55.2501   24.7730 C   0  0  0  0  0  0
    5.7823   55.0119   25.8632 C   0  0  0  0  0  0
    4.5225   54.4354   25.6572 C   0  0  0  0  0  0
    3.5989   54.1519   26.6691 N   0  0  0  0  0  0
    3.6685   54.3461   28.0001 C   0  0  0  0  0  0
    4.5797   54.8904   28.6200 O   0  0  0  0  0  0
    2.4738   53.7972   28.7184 C   0  0  0  0  0  0
    2.1544   52.4429   28.5453 C   0  0  0  0  0  0
    1.0176   51.9073   29.1345 C   0  0  0  0  0  0
    0.2024   52.7053   29.9227 C   0  0  0  0  0  0
    0.5073   54.0515   30.1103 C   0  0  0  0  0  0
    1.6262   54.6127   29.4939 C   0  0  0  0  0  0
    1.9044   56.4933   29.6978 Br  0  0  0  0  0  0
   -0.8955   52.1653   30.4815 F   0  0  0  0  0  0
    7.1047   55.2142   22.4617 N   0  0  0  0  0  0
    6.8941   55.3070   21.1375 C   0  0  0  0  0  0
    5.8340   55.0788   20.5597 O   0  0  0  0  0  0
    8.0159   55.6966   20.5131 N   0  0  0  0  0  0
    8.2274   55.7050   19.0654 C   0  0  0  0  0  0
    7.3843   56.7535   18.3057 C   0  0  1  0  0  0
    6.3202   56.6355   18.5206 H   0  0  0  0  0  0
    7.8965   58.1932   18.3482 C   0  0  0  0  0  0
    7.4533   58.7859   17.0307 C   0  0  0  0  0  0
    7.2842   57.5782   16.1116 C   0  0  0  0  0  0
    7.5675   56.4438   16.9268 O   0  0  0  0  0  0
    3.1545   53.6255   24.1958 H   0  0  0  0  0  0
    4.6302   53.9732   22.3085 H   0  0  0  0  0  0
    7.5632   55.7343   24.9180 H   0  0  0  0  0  0
    6.1275   55.2966   26.8445 H   0  0  0  0  0  0
    2.7548   53.7049   26.3483 H   0  0  0  0  0  0
    2.7733   51.7963   27.9397 H   0  0  0  0  0  0
    0.7547   50.8746   28.9764 H   0  0  0  0  0  0
   -0.1401   54.6659   30.7165 H   0  0  0  0  0  0
    8.0381   55.4299   22.7881 H   0  0  0  0  0  0
    8.8110   55.9631   21.0742 H   0  0  0  0  0  0
    9.2877   55.9118   18.9155 H   0  0  0  0  0  0
    8.0558   54.7051   18.6594 H   0  0  0  0  0  0
    7.5219   58.7317   19.2186 H   0  0  0  0  0  0
    8.9828   58.2083   18.4385 H   0  0  0  0  0  0
    6.4969   59.2973   17.1476 H   0  0  0  0  0  0
    8.1689   59.5099   16.6418 H   0  0  0  0  0  0
    6.2664   57.5172   15.7247 H   0  0  0  0  0  0
    7.9744   57.6094   15.2685 H   0  0  0  0  0  0
  1  6  2  0  0  0
  1  2  1  0  0  0
  1 29  1  0  0  0
  2  3  2  0  0  0
  2 30  1  0  0  0
  3  4  1  0  0  0
  3 18  1  0  0  0
  4  5  2  0  0  0
  4 31  1  0  0  0
  5  6  1  0  0  0
  5 32  1  0  0  0
  6  7  1  0  0  0
  7  8  1  0  0  0
  7 33  1  0  0  0
  8  9  2  0  0  0
  8 10  1  0  0  0
 10 15  2  0  0  0
 10 11  1  0  0  0
 11 12  2  0  0  0
 11 34  1  0  0  0
 12 13  1  0  0  0
 12 35  1  0  0  0
 13 14  2  0  0  0
 13 17  1  0  0  0
 14 15  1  0  0  0
 14 36  1  0  0  0
 15 16  1  0  0  0
 18 19  1  0  0  0
 18 37  1  0  0  0
 19 20  2  0  0  0
 19 21  1  0  0  0
 21 22  1  0  0  0
 21 38  1  0  0  0
 22 23  1  0  0  0
 22 39  1  0  0  0
 22 40  1  0  0  0
 23 24  1  0  0  0
 23 28  1  0  0  0
 23 25  1  0  0  0
 25 26  1  0  0  0
 25 41  1  0  0  0
 25 42  1  0  0  0
 26 27  1  0  0  0
 26 43  1  0  0  0
 26 44  1  0  0  0
 27 28  1  0  0  0
 27 45  1  0  0  0
 27 46  1  0  0  0
M  END
> <i_i_glide_confnum>
59

> <i_i_glide_lignum>
4454

> <i_i_glide_posenum>
395

> <i_i_glide_rotatable_bonds>
8

> <i_m_Source_File_Index>
1063

> <b_m_subgroup_collapsed>
0

> <r_i_docking_score>
-6.15125

> <r_i_glide_ecoul>
-1.33354

> <r_i_glide_eff_state_penalty>
0

> <r_i_glide_einternal>
8.08127

> <r_i_glide_emodel>
-60.1013

> <r_i_glide_energy>
-45.2489

> <r_i_glide_erotb>
0.733021

> <r_i_glide_esite>
-0.0880889

> <r_i_glide_evdw>
-43.9153

> <r_i_glide_gscore>
-6.15125

> <r_i_glide_hbond>
-0.32

> <r_i_glide_ligand_efficiency>
-0.227824

> <r_i_glide_ligand_efficiency_ln>
-1.43191

> <r_i_glide_ligand_efficiency_sa>
-0.683472

> <r_i_glide_lipo>
-3.09731

> <r_i_glide_metal>
0

> <r_i_glide_rewards>
-0.983076

> <s_i_glide_gridfile>
wee1_glide-grid

> <s_m_Source_File>
wee1_decoys_glide_SP.sdf

> <s_m_Source_Path>
/Users/zhangxujun/Desktop

> <s_m_entry_id>
1338

> <s_m_entry_name>
wee1_decoys_glide_SP.1063

> <s_m_subgroup_title>
wee1_decoys_glide_SP

> <s_m_subgroupid>
wee1_decoys_glide_SP


$$$$
