ZINC49546823_555
                    3D
 Schrodinger Suite 2024-2.
 52 55  0  0  1  0            999 V2000
   -3.9820   53.3780   24.2584 C   0  0  0  0  0  0
   -3.7220   52.1040   23.6847 O   0  0  0  0  0  0
   -2.3912   51.8055   23.5675 C   0  0  0  0  0  0
   -1.7447   52.0957   22.3696 C   0  0  0  0  0  0
   -0.3873   51.8339   22.2236 C   0  0  0  0  0  0
    0.3388   51.2470   23.2654 C   0  0  0  0  0  0
   -0.3260   50.8913   24.4538 C   0  0  0  0  0  0
   -1.6878   51.2044   24.6200 C   0  0  0  0  0  0
   -2.3677   50.9004   25.7780 O   0  0  0  0  0  0
   -1.9423   51.5942   26.9475 C   0  0  0  0  0  0
    0.3808   50.3027   25.4742 O   0  0  0  0  0  0
    0.1408   48.9131   25.6592 C   0  0  0  0  0  0
    1.8418   50.9875   23.0934 C   0  0  1  0  0  0
    2.2471   50.7843   24.0815 H   0  0  0  0  0  0
    2.1094   49.7073   22.2353 C   0  0  0  0  0  0
    2.0966   49.9314   20.6988 C   0  0  0  0  0  0
    1.6837   49.0955   19.8998 O   0  0  0  0  0  0
    2.6879   51.0846   20.3126 N   0  0  0  0  0  0
    3.0046   52.1461   21.1421 C   0  0  0  0  0  0
    2.6261   52.1521   22.4799 C   0  0  0  0  0  0
    3.1514   53.2784   23.1008 N   0  0  0  0  0  0
    3.7982   53.9753   22.1067 C   0  0  0  0  0  0
    3.7387   53.3141   20.8834 C   0  0  0  0  0  0
    4.3314   53.7591   19.6215 C   0  0  0  0  0  0
    5.2858   54.5675   19.7063 O   0  0  0  0  0  0
    3.8253   53.3095   18.5685 O   0  5  0  0  0  0
    3.1055   53.6461   24.4710 C   0  0  0  0  0  0
    1.9500   53.4633   25.2389 C   0  0  0  0  0  0
    1.9764   53.6965   26.6123 C   0  0  0  0  0  0
    3.1393   54.1718   27.2131 C   0  0  0  0  0  0
    4.2836   54.4029   26.4517 C   0  0  0  0  0  0
    4.2683   54.1371   25.0862 C   0  0  0  0  0  0
    3.1594   54.4953   28.9112 Cl  0  0  0  0  0  0
   -5.0555   53.5596   24.2497 H   0  0  0  0  0  0
   -3.6408   53.4302   25.2935 H   0  0  0  0  0  0
   -3.5069   54.1805   23.6901 H   0  0  0  0  0  0
   -2.3018   52.5201   21.5521 H   0  0  0  0  0  0
    0.0968   52.0869   21.2907 H   0  0  0  0  0  0
   -2.6982   51.4798   27.7257 H   0  0  0  0  0  0
   -1.0067   51.1907   27.3462 H   0  0  0  0  0  0
   -1.8107   52.6678   26.7671 H   0  0  0  0  0  0
    0.8107   48.5400   26.4346 H   0  0  0  0  0  0
   -0.8825   48.7139   25.9824 H   0  0  0  0  0  0
    0.3376   48.3479   24.7478 H   0  0  0  0  0  0
    3.1042   49.3213   22.4527 H   0  0  0  0  0  0
    1.3947   48.9185   22.4742 H   0  0  0  0  0  0
    2.7832   51.1962   19.3095 H   0  0  0  0  0  0
    4.2980   54.8970   22.3453 H   0  0  0  0  0  0
    1.0302   53.1343   24.7907 H   0  0  0  0  0  0
    1.0889   53.5305   27.2017 H   0  0  0  0  0  0
    5.1841   54.7668   26.9229 H   0  0  0  0  0  0
    5.1766   54.2764   24.5165 H   0  0  0  0  0  0
  1  2  1  0  0  0
  1 34  1  0  0  0
  1 35  1  0  0  0
  1 36  1  0  0  0
  2  3  1  0  0  0
  3  8  2  0  0  0
  3  4  1  0  0  0
  4  5  2  0  0  0
  4 37  1  0  0  0
  5  6  1  0  0  0
  5 38  1  0  0  0
  6  7  2  0  0  0
  6 13  1  0  0  0
  7  8  1  0  0  0
  7 11  1  0  0  0
  8  9  1  0  0  0
  9 10  1  0  0  0
 10 39  1  0  0  0
 10 40  1  0  0  0
 10 41  1  0  0  0
 11 12  1  0  0  0
 12 42  1  0  0  0
 12 43  1  0  0  0
 12 44  1  0  0  0
 13 14  1  0  0  0
 13 20  1  0  0  0
 13 15  1  0  0  0
 15 16  1  0  0  0
 15 45  1  0  0  0
 15 46  1  0  0  0
 16 17  2  0  0  0
 16 18  1  0  0  0
 18 19  1  0  0  0
 18 47  1  0  0  0
 19 23  1  0  0  0
 19 20  2  0  0  0
 20 21  1  0  0  0
 21 22  1  0  0  0
 21 27  1  0  0  0
 22 23  2  0  0  0
 22 48  1  0  0  0
 23 24  1  0  0  0
 24 25  2  0  0  0
 24 26  1  0  0  0
 27 32  2  0  0  0
 27 28  1  0  0  0
 28 29  2  0  0  0
 28 49  1  0  0  0
 29 30  1  0  0  0
 29 50  1  0  0  0
 30 31  2  0  0  0
 30 33  1  0  0  0
 31 32  1  0  0  0
 31 51  1  0  0  0
 32 52  1  0  0  0
M  CHG  1  26  -1
M  END
> <i_i_glide_confnum>
2

> <i_i_glide_lignum>
556

> <i_i_glide_posenum>
61

> <i_i_glide_rotatable_bonds>
6

> <i_m_Source_File_Index>
2333

> <b_m_subgroup_collapsed>
0

> <r_i_docking_score>
-4.5112

> <r_i_glide_ecoul>
0.150517

> <r_i_glide_eff_state_penalty>
0

> <r_i_glide_einternal>
3.63627

> <r_i_glide_emodel>
-46.0234

> <r_i_glide_energy>
-38.9821

> <r_i_glide_erotb>
0.193369

> <r_i_glide_esite>
-0.0376857

> <r_i_glide_evdw>
-39.1326

> <r_i_glide_gscore>
-4.5112

> <r_i_glide_hbond>
0

> <r_i_glide_ligand_efficiency>
-0.140975

> <r_i_glide_ligand_efficiency_ln>
-1.01018

> <r_i_glide_ligand_efficiency_sa>
-0.447568

> <r_i_glide_lipo>
-2.18754

> <r_i_glide_metal>
0

> <r_i_glide_rewards>
-0.545293

> <s_i_glide_gridfile>
wee1_glide-grid

> <s_m_Source_File>
wee1_decoys_glide_SP.sdf

> <s_m_Source_Path>
/Users/zhangxujun/Desktop

> <s_m_entry_id>
2608

> <s_m_entry_name>
wee1_decoys_glide_SP.2333

> <s_m_subgroup_title>
wee1_decoys_glide_SP

> <s_m_subgroupid>
wee1_decoys_glide_SP


$$$$
