ZINC63383778_1256
                    3D
 Schrodinger Suite 2024-2.
 71 75  0  0  1  0            999 V2000
    2.3100   48.6045   14.3960 C   0  0  0  0  0  0
    1.7187   47.7981   15.5673 C   0  0  0  0  0  0
    0.7738   48.5986   16.4922 C   0  0  2  0  0  0
    0.3839   47.8808   17.2184 H   0  0  0  0  0  0
   -0.4355   49.1754   15.7189 C   0  0  0  0  0  0
    1.5041   49.6084   17.2677 N   0  0  0  0  0  0
    0.9766   50.3398   18.2677 C   0  0  0  0  0  0
   -0.1934   50.2514   18.6400 O   0  0  0  0  0  0
    1.8879   51.3227   19.0180 C   0  0  2  0  0  0
    1.2355   52.1248   19.3533 H   0  0  0  0  0  0
    3.0070   51.9999   18.1816 C   0  0  0  0  0  0
    2.5590   53.2502   17.3853 C   0  0  0  0  0  0
    3.7734   54.0828   16.9249 C   0  0  0  0  0  0
    1.6301   52.9245   16.2006 C   0  0  0  0  0  0
    2.4715   50.6015   20.1554 N   0  0  0  0  0  0
    2.1824   50.7495   21.4642 C   0  0  0  0  0  0
    2.7029   50.0105   22.2954 O   0  0  0  0  0  0
    1.2040   51.8685   21.9128 C   0  0  2  0  0  0
    0.3762   51.7732   21.2083 H   0  0  0  0  0  0
    1.8962   53.2567   21.7876 C   0  0  0  0  0  0
    2.7314   53.5954   23.0056 C   0  0  0  0  0  0
    4.0074   53.9578   23.1914 C   0  0  0  0  0  0
    5.1043   54.1874   22.2427 C   0  0  0  0  0  0
    6.3227   54.5518   22.6891 C   0  0  0  0  0  0
    6.5147   54.7039   24.1247 C   0  0  0  0  0  0
    5.5089   54.4864   25.0144 C   0  0  0  0  0  0
    4.2391   54.0969   24.5637 C   0  0  0  0  0  0
    3.1493   53.8109   25.2478 N   0  3  0  0  0  0
    2.0410   53.4522   24.3369 C   0  0  2  0  0  0
    1.2519   54.1930   24.4664 H   0  0  0  0  0  0
    1.4864   52.0126   24.4613 C   0  0  2  0  0  0
    2.3040   51.2968   24.4737 H   0  0  0  0  0  0
    0.6421   51.7395   23.2845 N   0  0  0  0  0  0
   -0.6691   51.5612   23.5638 C   0  0  0  0  0  0
   -1.5910   51.4446   22.7562 O   0  0  0  0  0  0
   -0.7346   51.5374   25.0582 C   0  0  0  0  0  0
    0.5201   51.7907   25.5876 C   0  0  0  0  0  0
    0.7050   51.7906   26.9720 C   0  0  0  0  0  0
   -0.3833   51.5454   27.8135 C   0  0  0  0  0  0
   -1.6479   51.3015   27.2728 C   0  0  0  0  0  0
   -1.8332   51.3043   25.8880 C   0  0  0  0  0  0
    1.5444   48.8744   13.6669 H   0  0  0  0  0  0
    2.7735   49.5298   14.7399 H   0  0  0  0  0  0
    3.0735   48.0285   13.8727 H   0  0  0  0  0  0
    1.1912   46.9316   15.1653 H   0  0  0  0  0  0
    2.5355   47.3830   16.1611 H   0  0  0  0  0  0
   -0.1506   50.0206   15.0917 H   0  0  0  0  0  0
   -0.8706   48.4216   15.0622 H   0  0  0  0  0  0
   -1.2356   49.4899   16.3888 H   0  0  0  0  0  0
    2.4980   49.6948   17.0513 H   0  0  0  0  0  0
    3.7847   52.3132   18.8794 H   0  0  0  0  0  0
    3.5043   51.2967   17.5156 H   0  0  0  0  0  0
    2.0027   53.8899   18.0722 H   0  0  0  0  0  0
    4.0498   53.8626   15.8912 H   0  0  0  0  0  0
    3.5576   55.1517   16.9875 H   0  0  0  0  0  0
    4.6603   53.8980   17.5354 H   0  0  0  0  0  0
    0.5869   53.0916   16.4680 H   0  0  0  0  0  0
    1.8399   53.5481   15.3328 H   0  0  0  0  0  0
    1.7285   51.8904   15.8734 H   0  0  0  0  0  0
    3.1066   49.8608   19.8947 H   0  0  0  0  0  0
    2.4892   53.3368   20.8768 H   0  0  0  0  0  0
    1.1065   53.9936   21.6995 H   0  0  0  0  0  0
    4.9624   54.0757   21.1764 H   0  0  0  0  0  0
    7.1395   54.7318   22.0052 H   0  0  0  0  0  0
    7.4944   54.9915   24.4827 H   0  0  0  0  0  0
    5.7118   54.6074   26.0688 H   0  0  0  0  0  0
    1.6780   51.9658   27.4064 H   0  0  0  0  0  0
   -0.2452   51.5200   28.8853 H   0  0  0  0  0  0
   -2.4778   51.0838   27.9305 H   0  0  0  0  0  0
   -2.8123   51.0984   25.4797 H   0  0  0  0  0  0
    3.0671   53.8298   26.2604 H   0  0  0  0  0  0
  1  2  1  0  0  0
  1 42  1  0  0  0
  1 43  1  0  0  0
  1 44  1  0  0  0
  2  3  1  0  0  0
  2 45  1  0  0  0
  2 46  1  0  0  0
  3  4  1  0  0  0
  3  5  1  0  0  0
  3  6  1  0  0  0
  5 47  1  0  0  0
  5 48  1  0  0  0
  5 49  1  0  0  0
  6  7  1  0  0  0
  6 50  1  0  0  0
  7  8  2  0  0  0
  7  9  1  0  0  0
  9 10  1  0  0  0
  9 11  1  0  0  0
  9 15  1  0  0  0
 11 12  1  0  0  0
 11 51  1  0  0  0
 11 52  1  0  0  0
 12 13  1  0  0  0
 12 14  1  0  0  0
 12 53  1  0  0  0
 13 54  1  0  0  0
 13 55  1  0  0  0
 13 56  1  0  0  0
 14 57  1  0  0  0
 14 58  1  0  0  0
 14 59  1  0  0  0
 15 16  1  0  0  0
 15 60  1  0  0  0
 16 17  2  0  0  0
 16 18  1  0  0  0
 18 19  1  0  0  0
 18 33  1  0  0  0
 18 20  1  0  0  0
 20 21  1  0  0  0
 20 61  1  0  0  0
 20 62  1  0  0  0
 21 29  1  0  0  0
 21 22  2  0  0  0
 22 27  1  0  0  0
 22 23  1  0  0  0
 23 24  2  0  0  0
 23 63  1  0  0  0
 24 25  1  0  0  0
 24 64  1  0  0  0
 25 26  2  0  0  0
 25 65  1  0  0  0
 26 27  1  0  0  0
 26 66  1  0  0  0
 27 28  2  0  0  0
 28 29  1  0  0  0
 28 71  1  0  0  0
 29 30  1  0  0  0
 29 31  1  0  0  0
 31 32  1  0  0  0
 31 37  1  0  0  0
 31 33  1  0  0  0
 33 34  1  0  0  0
 34 35  2  0  0  0
 34 36  1  0  0  0
 36 41  2  0  0  0
 36 37  1  0  0  0
 37 38  2  0  0  0
 38 39  1  0  0  0
 38 67  1  0  0  0
 39 40  2  0  0  0
 39 68  1  0  0  0
 40 41  1  0  0  0
 40 69  1  0  0  0
 41 70  1  0  0  0
M  CHG  1  28   1
M  END
> <i_i_glide_confnum>
58

> <i_i_glide_lignum>
1257

> <i_i_glide_posenum>
214

> <i_i_glide_rotatable_bonds>
9

> <i_m_Source_File_Index>
5310

> <b_m_subgroup_collapsed>
0

> <r_i_docking_score>
-3.54845

> <r_i_glide_ecoul>
-5.58677

> <r_i_glide_eff_state_penalty>
0

> <r_i_glide_einternal>
8.67663

> <r_i_glide_emodel>
-41.1007

> <r_i_glide_energy>
-39.6484

> <r_i_glide_erotb>
0.513039

> <r_i_glide_esite>
-0.170458

> <r_i_glide_evdw>
-34.0616

> <r_i_glide_gscore>
-3.54845

> <r_i_glide_hbond>
-0.16

> <r_i_glide_ligand_efficiency>
-0.0985679

> <r_i_glide_ligand_efficiency_ln>
-0.774175

> <r_i_glide_ligand_efficiency_sa>
-0.325464

> <r_i_glide_lipo>
-2.22958

> <r_i_glide_metal>
0

> <r_i_glide_rewards>
1.03965

> <s_i_glide_gridfile>
wee1_glide-grid

> <s_m_Source_File>
wee1_decoys_glide_SP.sdf

> <s_m_Source_Path>
/Users/zhangxujun/Desktop

> <s_m_entry_id>
5585

> <s_m_entry_name>
wee1_decoys_glide_SP.5310

> <s_m_subgroup_title>
wee1_decoys_glide_SP

> <s_m_subgroupid>
wee1_decoys_glide_SP


$$$$
