ZINC39695995_182
                    3D
 Schrodinger Suite 2024-2.
 73 76  0  0  1  0            999 V2000
    4.7545   54.5594   28.3935 C   0  0  0  0  0  0
    5.8656   54.7109   27.3390 C   0  0  0  0  0  0
    5.4591   54.4937   25.8799 C   0  0  0  0  0  0
    6.4712   54.3855   24.9258 C   0  0  0  0  0  0
    6.1650   54.0969   23.6001 C   0  0  0  0  0  0
    4.8353   53.9294   23.1965 C   0  0  0  0  0  0
    3.8163   54.0967   24.1452 C   0  0  0  0  0  0
    4.1246   54.3725   25.4761 C   0  0  0  0  0  0
    4.5480   53.5320   21.7349 C   0  0  2  0  0  0
    5.0215   52.5560   21.5945 H   0  0  0  0  0  0
    5.2311   54.4828   20.7280 C   0  0  0  0  0  0
    3.1409   53.3251   21.3552 N   0  0  0  0  0  0
    2.3556   52.2895   21.6965 C   0  0  0  0  0  0
    2.7052   51.4116   22.4818 O   0  0  0  0  0  0
    0.9296   52.2804   21.1024 C   0  0  2  0  0  0
    0.6713   53.2966   20.8109 H   0  0  0  0  0  0
   -0.0550   51.8023   22.1900 C   0  0  0  0  0  0
   -1.1336   51.1781   21.4209 N   0  0  0  0  0  0
   -0.8051   51.0880   19.9922 C   0  0  0  0  0  0
    0.7269   51.3049   19.9063 C   0  0  0  0  0  0
    1.2339   51.8968   18.5668 C   0  0  0  0  0  0
    0.8582   51.0074   17.3632 C   0  0  0  0  0  0
    1.5044   49.6151   17.5555 N   0  3  0  0  0  0
    1.1817   48.9498   18.9139 C   0  0  0  0  0  0
    1.4988   49.9484   20.0478 C   0  0  0  0  0  0
   -2.3489   50.8236   21.9179 C   0  0  0  0  0  0
   -3.2827   50.4979   21.1815 O   0  0  0  0  0  0
   -2.5770   50.8323   23.4179 C   0  0  0  0  0  0
   -3.6850   51.5210   23.9313 C   0  0  0  0  0  0
   -3.9613   51.5242   25.2953 C   0  0  0  0  0  0
   -3.1325   50.8355   26.1866 C   0  0  0  0  0  0
   -2.0324   50.1477   25.6819 C   0  0  0  0  0  0
   -1.7544   50.1074   24.3052 C   0  0  0  0  0  0
   -0.7307   49.3402   23.7813 O   0  0  0  0  0  0
    0.2975   48.8660   24.6422 C   0  0  0  0  0  0
   -3.3339   50.7787   27.5493 O   0  0  0  0  0  0
   -4.6292   51.0570   28.0660 C   0  0  0  0  0  0
    5.1590   54.7040   29.3959 H   0  0  0  0  0  0
    4.3068   53.5655   28.3591 H   0  0  0  0  0  0
    3.9617   55.2949   28.2550 H   0  0  0  0  0  0
    6.3191   55.6968   27.4294 H   0  0  0  0  0  0
    6.6531   53.9936   27.5765 H   0  0  0  0  0  0
    7.5049   54.4865   25.2159 H   0  0  0  0  0  0
    6.9765   53.9767   22.8968 H   0  0  0  0  0  0
    2.7780   53.9904   23.8716 H   0  0  0  0  0  0
    3.3171   54.4640   26.1860 H   0  0  0  0  0  0
    6.3046   54.3130   20.6897 H   0  0  0  0  0  0
    4.8622   54.3354   19.7106 H   0  0  0  0  0  0
    5.1044   55.5318   20.9917 H   0  0  0  0  0  0
    2.7336   54.0468   20.7728 H   0  0  0  0  0  0
    0.4038   51.0116   22.7780 H   0  0  0  0  0  0
   -0.3880   52.6341   22.8113 H   0  0  0  0  0  0
   -1.2976   51.9295   19.5029 H   0  0  0  0  0  0
   -1.1679   50.1969   19.4820 H   0  0  0  0  0  0
    0.7712   52.8727   18.4083 H   0  0  0  0  0  0
    2.3088   52.0915   18.5980 H   0  0  0  0  0  0
   -0.2168   50.8490   17.2601 H   0  0  0  0  0  0
    1.2562   51.3921   16.4223 H   0  0  0  0  0  0
    1.2279   48.9998   16.8032 H   0  0  0  0  0  0
    0.1388   48.6374   18.8779 H   0  0  0  0  0  0
    1.8102   48.0585   18.9666 H   0  0  0  0  0  0
    2.5782   50.0990   20.1015 H   0  0  0  0  0  0
    1.2317   49.4741   20.9940 H   0  0  0  0  0  0
   -4.3544   52.0622   23.2817 H   0  0  0  0  0  0
   -4.8250   52.0688   25.6437 H   0  0  0  0  0  0
   -1.4284   49.6003   26.3912 H   0  0  0  0  0  0
    1.1043   48.4955   24.0154 H   0  0  0  0  0  0
    0.7089   49.6584   25.2691 H   0  0  0  0  0  0
   -0.0504   48.0490   25.2747 H   0  0  0  0  0  0
   -4.6327   50.8644   29.1389 H   0  0  0  0  0  0
   -4.9119   52.0975   27.9164 H   0  0  0  0  0  0
   -5.3873   50.4159   27.6116 H   0  0  0  0  0  0
    2.5163   49.6968   17.4531 H   0  0  0  0  0  0
  1  2  1  0  0  0
  1 38  1  0  0  0
  1 39  1  0  0  0
  1 40  1  0  0  0
  2  3  1  0  0  0
  2 41  1  0  0  0
  2 42  1  0  0  0
  3  8  2  0  0  0
  3  4  1  0  0  0
  4  5  2  0  0  0
  4 43  1  0  0  0
  5  6  1  0  0  0
  5 44  1  0  0  0
  6  7  2  0  0  0
  6  9  1  0  0  0
  7  8  1  0  0  0
  7 45  1  0  0  0
  8 46  1  0  0  0
  9 10  1  0  0  0
  9 11  1  0  0  0
  9 12  1  0  0  0
 11 47  1  0  0  0
 11 48  1  0  0  0
 11 49  1  0  0  0
 12 13  1  0  0  0
 12 50  1  0  0  0
 13 14  2  0  0  0
 13 15  1  0  0  0
 15 16  1  0  0  0
 15 20  1  0  0  0
 15 17  1  0  0  0
 17 18  1  0  0  0
 17 51  1  0  0  0
 17 52  1  0  0  0
 18 19  1  0  0  0
 18 26  1  0  0  0
 19 20  1  0  0  0
 19 53  1  0  0  0
 19 54  1  0  0  0
 20 25  1  0  0  0
 20 21  1  0  0  0
 21 22  1  0  0  0
 21 55  1  0  0  0
 21 56  1  0  0  0
 22 23  1  0  0  0
 22 57  1  0  0  0
 22 58  1  0  0  0
 23 24  1  0  0  0
 23 59  1  0  0  0
 23 73  1  0  0  0
 24 25  1  0  0  0
 24 60  1  0  0  0
 24 61  1  0  0  0
 25 62  1  0  0  0
 25 63  1  0  0  0
 26 27  2  0  0  0
 26 28  1  0  0  0
 28 33  2  0  0  0
 28 29  1  0  0  0
 29 30  2  0  0  0
 29 64  1  0  0  0
 30 31  1  0  0  0
 30 65  1  0  0  0
 31 32  2  0  0  0
 31 36  1  0  0  0
 32 33  1  0  0  0
 32 66  1  0  0  0
 33 34  1  0  0  0
 34 35  1  0  0  0
 35 67  1  0  0  0
 35 68  1  0  0  0
 35 69  1  0  0  0
 36 37  1  0  0  0
 37 70  1  0  0  0
 37 71  1  0  0  0
 37 72  1  0  0  0
M  CHG  1  23   1
M  END
> <i_i_glide_confnum>
26

> <i_i_glide_lignum>
183

> <i_i_glide_posenum>
170

> <i_i_glide_rotatable_bonds>
9

> <i_m_Source_File_Index>
1858

> <b_m_subgroup_collapsed>
0

> <r_i_docking_score>
-5.66791

> <r_i_glide_ecoul>
-6.53533

> <r_i_glide_eff_state_penalty>
0

> <r_i_glide_einternal>
8.12182

> <r_i_glide_emodel>
-55.0275

> <r_i_glide_energy>
-42.5947

> <r_i_glide_erotb>
0.526775

> <r_i_glide_esite>
-0.102005

> <r_i_glide_evdw>
-36.0593

> <r_i_glide_gscore>
-5.66791

> <r_i_glide_hbond>
-0.52

> <r_i_glide_ligand_efficiency>
-0.16194

> <r_i_glide_ligand_efficiency_ln>
-1.24423

> <r_i_glide_ligand_efficiency_sa>
-0.529718

> <r_i_glide_lipo>
-2.55434

> <r_i_glide_metal>
0

> <r_i_glide_rewards>
-0.235079

> <s_i_glide_gridfile>
wee1_glide-grid

> <s_m_Source_File>
wee1_decoys_glide_SP.sdf

> <s_m_Source_Path>
/Users/zhangxujun/Desktop

> <s_m_entry_id>
2133

> <s_m_entry_name>
wee1_decoys_glide_SP.1858

> <s_m_subgroup_title>
wee1_decoys_glide_SP

> <s_m_subgroupid>
wee1_decoys_glide_SP


$$$$
