ZINC19848268_4624
                    3D
 Schrodinger Suite 2024-2.
 63 66  0  0  1  0            999 V2000
    0.8776   48.9275   26.2532 C   0  0  0  0  0  0
    0.3030   49.7776   25.1351 C   0  0  0  0  0  0
   -0.4659   50.8999   25.2425 C   0  0  0  0  0  0
   -1.0949   51.5492   23.9704 C   0  0  1  0  0  0
   -0.8685   52.6184   23.9702 H   0  0  0  0  0  0
   -0.5099   50.9375   22.6614 C   0  0  0  0  0  0
    0.2607   49.8165   22.6958 C   0  0  0  0  0  0
    0.6411   49.2819   23.9001 N   0  0  0  0  0  0
    0.8870   49.1680   21.4611 C   0  0  0  0  0  0
    1.0566   50.2037   20.3220 C   0  0  1  0  0  0
    1.2539   49.6284   19.4148 H   0  0  0  0  0  0
   -0.2756   50.9493   20.0884 C   0  0  0  0  0  0
   -0.8670   51.5610   21.3689 C   0  0  0  0  0  0
   -1.6959   52.4629   21.2866 O   0  0  0  0  0  0
    2.2461   51.1504   20.4615 C   0  0  0  0  0  0
    3.1062   51.3757   21.5390 C   0  0  0  0  0  0
    4.1009   52.3287   21.3032 C   0  0  0  0  0  0
    4.0170   52.8711   20.0350 C   0  0  0  0  0  0
    2.7061   52.1877   19.1368 S   0  0  0  0  0  0
   -2.6372   51.5468   24.0189 C   0  0  0  0  0  0
   -3.3314   50.3456   23.8822 C   0  0  0  0  0  0
   -4.7257   50.2671   24.0158 C   0  0  0  0  0  0
   -5.4291   51.4554   24.3372 C   0  0  0  0  0  0
   -4.7283   52.6747   24.4862 C   0  0  0  0  0  0
   -3.3539   52.7141   24.2796 C   0  0  0  0  0  0
   -5.3169   53.8751   24.8391 O   0  0  0  0  0  0
   -5.9068   53.9069   26.1341 C   0  0  0  0  0  0
   -6.6921   51.4628   24.4820 O   0  5  0  0  0  0
   -5.3826   48.9394   23.8221 N   0  3  0  0  0  0
   -6.5985   48.8100   23.9207 O   0  0  0  0  0  0
   -4.6670   47.9777   23.5495 O   0  5  0  0  0  0
   -0.7704   51.5824   26.5439 C   0  0  0  0  0  0
   -1.5861   52.4987   26.6390 O   0  0  0  0  0  0
   -0.0437   51.1699   27.6082 O   0  0  0  0  0  0
   -0.1559   51.7589   28.9044 C   0  0  0  0  0  0
    0.9690   52.7827   29.1976 C   0  0  0  0  0  0
    2.3727   52.1591   29.0952 C   0  0  0  0  0  0
    0.8803   54.0475   28.3268 C   0  0  0  0  0  0
    1.5053   49.5354   26.8838 H   0  0  0  0  0  0
    0.0806   48.5262   26.8742 H   0  0  0  0  0  0
    1.4925   48.0998   25.9072 H   0  0  0  0  0  0
    1.3220   48.5331   23.8872 H   0  0  0  0  0  0
    1.8969   48.8278   21.7044 H   0  0  0  0  0  0
    0.3052   48.2946   21.1622 H   0  0  0  0  0  0
   -0.2133   51.7052   19.3068 H   0  0  0  0  0  0
   -1.0111   50.2172   19.7559 H   0  0  0  0  0  0
    3.0122   50.8503   22.4771 H   0  0  0  0  0  0
    4.8481   52.6122   22.0305 H   0  0  0  0  0  0
    4.6519   53.6193   19.5863 H   0  0  0  0  0  0
   -2.7560   49.4516   23.6813 H   0  0  0  0  0  0
   -2.8340   53.6523   24.4000 H   0  0  0  0  0  0
   -6.0575   54.9415   26.4445 H   0  0  0  0  0  0
   -5.2650   53.4342   26.8813 H   0  0  0  0  0  0
   -6.8838   53.4216   26.1543 H   0  0  0  0  0  0
   -1.1373   52.2057   29.0662 H   0  0  0  0  0  0
   -0.0943   50.9512   29.6330 H   0  0  0  0  0  0
    0.8304   53.0999   30.2323 H   0  0  0  0  0  0
    2.5912   51.8274   28.0796 H   0  0  0  0  0  0
    3.1467   52.8707   29.3826 H   0  0  0  0  0  0
    2.4662   51.2970   29.7475 H   0  0  0  0  0  0
    1.0895   53.8268   27.2790 H   0  0  0  0  0  0
   -0.1106   54.4948   28.3861 H   0  0  0  0  0  0
    1.6008   54.8001   28.6500 H   0  0  0  0  0  0
  1  2  1  0  0  0
  1 39  1  0  0  0
  1 40  1  0  0  0
  1 41  1  0  0  0
  2  8  1  0  0  0
  2  3  2  0  0  0
  3  4  1  0  0  0
  3 32  1  0  0  0
  4  5  1  0  0  0
  4  6  1  0  0  0
  4 20  1  0  0  0
  6 13  1  0  0  0
  6  7  2  0  0  0
  7  8  1  0  0  0
  7  9  1  0  0  0
  8 42  1  0  0  0
  9 10  1  0  0  0
  9 43  1  0  0  0
  9 44  1  0  0  0
 10 11  1  0  0  0
 10 12  1  0  0  0
 10 15  1  0  0  0
 12 13  1  0  0  0
 12 45  1  0  0  0
 12 46  1  0  0  0
 13 14  2  0  0  0
 15 19  1  0  0  0
 15 16  2  0  0  0
 16 17  1  0  0  0
 16 47  1  0  0  0
 17 18  2  0  0  0
 17 48  1  0  0  0
 18 19  1  0  0  0
 18 49  1  0  0  0
 20 25  2  0  0  0
 20 21  1  0  0  0
 21 22  2  0  0  0
 21 50  1  0  0  0
 22 23  1  0  0  0
 22 29  1  0  0  0
 23 24  2  0  0  0
 23 28  1  0  0  0
 24 25  1  0  0  0
 24 26  1  0  0  0
 25 51  1  0  0  0
 26 27  1  0  0  0
 27 52  1  0  0  0
 27 53  1  0  0  0
 27 54  1  0  0  0
 29 30  2  0  0  0
 29 31  1  0  0  0
 32 33  2  0  0  0
 32 34  1  0  0  0
 34 35  1  0  0  0
 35 36  1  0  0  0
 35 55  1  0  0  0
 35 56  1  0  0  0
 36 37  1  0  0  0
 36 38  1  0  0  0
 36 57  1  0  0  0
 37 58  1  0  0  0
 37 59  1  0  0  0
 37 60  1  0  0  0
 38 61  1  0  0  0
 38 62  1  0  0  0
 38 63  1  0  0  0
M  CHG  3  28  -1  29   1  31  -1
M  END
> <i_i_glide_confnum>
140

> <i_i_glide_lignum>
4625

> <i_i_glide_posenum>
361

> <i_i_glide_rotatable_bonds>
8

> <i_m_Source_File_Index>
3305

> <b_m_subgroup_collapsed>
0

> <r_i_docking_score>
-3.37492

> <r_i_glide_ecoul>
-4.56557

> <r_i_glide_eff_state_penalty>
0

> <r_i_glide_einternal>
8.69303

> <r_i_glide_emodel>
-40.6073

> <r_i_glide_energy>
-37.051

> <r_i_glide_erotb>
0.391551

> <r_i_glide_esite>
-0.0549291

> <r_i_glide_evdw>
-32.4854

> <r_i_glide_gscore>
-3.37492

> <r_i_glide_hbond>
-0.42208

> <r_i_glide_ligand_efficiency>
-0.0937478

> <r_i_glide_ligand_efficiency_ln>
-0.736316

> <r_i_glide_ligand_efficiency_sa>
-0.309548

> <r_i_glide_lipo>
-0.980356

> <r_i_glide_metal>
0

> <r_i_glide_rewards>
8.61738e-09

> <s_i_glide_gridfile>
wee1_glide-grid

> <s_m_Source_File>
wee1_decoys_glide_SP.sdf

> <s_m_Source_Path>
/Users/zhangxujun/Desktop

> <s_m_entry_id>
3580

> <s_m_entry_name>
wee1_decoys_glide_SP.3305

> <s_m_subgroup_title>
wee1_decoys_glide_SP

> <s_m_subgroupid>
wee1_decoys_glide_SP


$$$$
