ZINC39666195_3071
                    3D
 Schrodinger Suite 2024-2.
 78 81  0  0  1  0            999 V2000
    1.6263   44.0960   13.8177 C   0  0  0  0  0  0
    1.4274   44.8265   15.1327 C   0  0  0  0  0  0
    1.7331   46.1831   15.2438 C   0  0  0  0  0  0
    1.5084   46.8517   16.4452 C   0  0  0  0  0  0
    0.9750   46.1682   17.5492 C   0  0  0  0  0  0
    0.7011   44.8049   17.4304 C   0  0  0  0  0  0
    0.9209   44.1342   16.2309 C   0  0  0  0  0  0
    0.6830   46.7230   18.7845 O   0  0  0  0  0  0
    0.7172   48.1312   19.0560 C   0  0  2  0  0  0
    0.3080   48.1990   20.0649 H   0  0  0  0  0  0
   -0.2591   48.9513   18.1813 C   0  0  0  0  0  0
    2.1630   48.6827   19.1623 C   0  0  0  0  0  0
    2.2637   50.1058   19.5054 N   0  0  0  0  0  0
    2.0058   50.6218   20.7194 C   0  0  0  0  0  0
    1.6301   49.9188   21.6586 O   0  0  0  0  0  0
    2.0782   52.1713   20.8678 C   0  0  1  0  0  0
    2.1303   52.6195   19.8762 H   0  0  0  0  0  0
    0.8562   52.6964   21.6461 C   0  0  0  0  0  0
    1.2822   52.7609   23.0486 N   0  0  0  0  0  0
    2.7045   52.4556   23.1549 C   0  0  0  0  0  0
    3.2867   52.6481   21.7386 C   0  0  0  0  0  0
    4.6506   51.9492   21.5411 C   0  0  0  0  0  0
    5.1056   52.0964   20.0817 C   0  0  0  0  0  0
    5.3827   53.5759   19.7927 N   0  3  0  0  0  0
    4.2169   54.5055   20.1576 C   0  0  0  0  0  0
    3.6712   54.1570   21.5735 C   0  0  0  0  0  0
    0.3881   52.8256   24.0699 C   0  0  0  0  0  0
   -0.8201   52.8956   23.8538 O   0  0  0  0  0  0
    0.9064   52.8967   25.4316 C   0  0  0  0  0  0
    1.9727   53.6800   25.8802 C   0  0  0  0  0  0
    2.0326   53.5752   27.2610 C   0  0  0  0  0  0
    1.0441   52.8413   27.6947 N   0  0  0  0  0  0
    0.3169   52.4525   26.6200 N   0  0  0  0  0  0
   -0.9187   51.6274   26.8634 C   0  0  0  0  0  0
   -0.7950   50.2873   26.1011 C   0  0  0  0  0  0
   -2.1979   52.4009   26.4462 C   0  0  0  0  0  0
   -1.0913   51.2959   28.3783 C   0  0  0  0  0  0
    3.0076   54.2022   28.2275 C   0  0  0  0  0  0
    2.0294   44.7435   13.0389 H   0  0  0  0  0  0
    2.3022   43.2513   13.9515 H   0  0  0  0  0  0
    0.6757   43.6937   13.4680 H   0  0  0  0  0  0
    2.1342   46.7281   14.4015 H   0  0  0  0  0  0
    1.7573   47.8984   16.4800 H   0  0  0  0  0  0
    0.2983   44.2686   18.2760 H   0  0  0  0  0  0
    0.6876   43.0826   16.1528 H   0  0  0  0  0  0
   -0.3306   49.9795   18.5364 H   0  0  0  0  0  0
    0.0275   48.9981   17.1331 H   0  0  0  0  0  0
   -1.2630   48.5268   18.2283 H   0  0  0  0  0  0
    2.7048   48.5328   18.2346 H   0  0  0  0  0  0
    2.7051   48.0906   19.9006 H   0  0  0  0  0  0
    2.5793   50.7107   18.7606 H   0  0  0  0  0  0
   -0.0265   52.0831   21.4507 H   0  0  0  0  0  0
    0.7044   53.6966   21.2814 H   0  0  0  0  0  0
    3.2937   52.9563   23.9166 H   0  0  0  0  0  0
    2.7044   51.4007   23.4308 H   0  0  0  0  0  0
    5.4090   52.3003   22.2441 H   0  0  0  0  0  0
    4.5412   50.8967   21.7516 H   0  0  0  0  0  0
    6.0511   51.6157   19.8593 H   0  0  0  0  0  0
    4.3513   51.7842   19.3578 H   0  0  0  0  0  0
    6.1983   53.8616   20.3158 H   0  0  0  0  0  0
    4.7043   55.4802   20.0860 H   0  0  0  0  0  0
    3.4866   54.3997   19.3564 H   0  0  0  0  0  0
    2.8002   54.7818   21.7721 H   0  0  0  0  0  0
    4.3887   54.4626   22.3376 H   0  0  0  0  0  0
    2.6261   54.2977   25.2839 H   0  0  0  0  0  0
   -1.6534   49.6443   26.3003 H   0  0  0  0  0  0
    0.0946   49.7340   26.4061 H   0  0  0  0  0  0
   -0.7434   50.4189   25.0211 H   0  0  0  0  0  0
   -2.0976   53.4737   26.5957 H   0  0  0  0  0  0
   -2.4766   52.2297   25.4103 H   0  0  0  0  0  0
   -3.0713   52.0842   27.0178 H   0  0  0  0  0  0
   -1.2209   52.1911   28.9863 H   0  0  0  0  0  0
   -1.9642   50.6644   28.5562 H   0  0  0  0  0  0
   -0.2272   50.7614   28.7743 H   0  0  0  0  0  0
    3.7596   54.8023   27.7142 H   0  0  0  0  0  0
    2.5046   54.8592   28.9376 H   0  0  0  0  0  0
    3.5422   53.4473   28.8049 H   0  0  0  0  0  0
    5.6159   53.6847   18.8133 H   0  0  0  0  0  0
  1  2  1  0  0  0
  1 39  1  0  0  0
  1 40  1  0  0  0
  1 41  1  0  0  0
  2  7  2  0  0  0
  2  3  1  0  0  0
  3  4  2  0  0  0
  3 42  1  0  0  0
  4  5  1  0  0  0
  4 43  1  0  0  0
  5  6  2  0  0  0
  5  8  1  0  0  0
  6  7  1  0  0  0
  6 44  1  0  0  0
  7 45  1  0  0  0
  8  9  1  0  0  0
  9 10  1  0  0  0
  9 11  1  0  0  0
  9 12  1  0  0  0
 11 46  1  0  0  0
 11 47  1  0  0  0
 11 48  1  0  0  0
 12 13  1  0  0  0
 12 49  1  0  0  0
 12 50  1  0  0  0
 13 14  1  0  0  0
 13 51  1  0  0  0
 14 15  2  0  0  0
 14 16  1  0  0  0
 16 17  1  0  0  0
 16 21  1  0  0  0
 16 18  1  0  0  0
 18 19  1  0  0  0
 18 52  1  0  0  0
 18 53  1  0  0  0
 19 20  1  0  0  0
 19 27  1  0  0  0
 20 21  1  0  0  0
 20 54  1  0  0  0
 20 55  1  0  0  0
 21 26  1  0  0  0
 21 22  1  0  0  0
 22 23  1  0  0  0
 22 56  1  0  0  0
 22 57  1  0  0  0
 23 24  1  0  0  0
 23 58  1  0  0  0
 23 59  1  0  0  0
 24 25  1  0  0  0
 24 60  1  0  0  0
 24 78  1  0  0  0
 25 26  1  0  0  0
 25 61  1  0  0  0
 25 62  1  0  0  0
 26 63  1  0  0  0
 26 64  1  0  0  0
 27 28  2  0  0  0
 27 29  1  0  0  0
 29 33  1  0  0  0
 29 30  2  0  0  0
 30 31  1  0  0  0
 30 65  1  0  0  0
 31 32  2  0  0  0
 31 38  1  0  0  0
 32 33  1  0  0  0
 33 34  1  0  0  0
 34 35  1  0  0  0
 34 36  1  0  0  0
 34 37  1  0  0  0
 35 66  1  0  0  0
 35 67  1  0  0  0
 35 68  1  0  0  0
 36 69  1  0  0  0
 36 70  1  0  0  0
 36 71  1  0  0  0
 37 72  1  0  0  0
 37 73  1  0  0  0
 37 74  1  0  0  0
 38 75  1  0  0  0
 38 76  1  0  0  0
 38 77  1  0  0  0
M  CHG  1  24   1
M  END
> <i_i_glide_confnum>
179

> <i_i_glide_lignum>
3072

> <i_i_glide_posenum>
173

> <i_i_glide_rotatable_bonds>
9

> <i_m_Source_File_Index>
2913

> <b_m_subgroup_collapsed>
0

> <r_i_docking_score>
-3.03782

> <r_i_glide_ecoul>
-3.80909

> <r_i_glide_eff_state_penalty>
0

> <r_i_glide_einternal>
6.88091

> <r_i_glide_emodel>
-42.4548

> <r_i_glide_energy>
-36.4558

> <r_i_glide_erotb>
0.661397

> <r_i_glide_esite>
-0.0956144

> <r_i_glide_evdw>
-32.6467

> <r_i_glide_gscore>
-3.03782

> <r_i_glide_hbond>
0

> <r_i_glide_ligand_efficiency>
-0.084384

> <r_i_glide_ligand_efficiency_ln>
-0.662771

> <r_i_glide_ligand_efficiency_sa>
-0.27863

> <r_i_glide_lipo>
-0.924374

> <r_i_glide_metal>
0

> <r_i_glide_rewards>
-0.475535

> <s_i_glide_gridfile>
wee1_glide-grid

> <s_m_Source_File>
wee1_decoys_glide_SP.sdf

> <s_m_Source_Path>
/Users/zhangxujun/Desktop

> <s_m_entry_id>
3188

> <s_m_entry_name>
wee1_decoys_glide_SP.2913

> <s_m_subgroup_title>
wee1_decoys_glide_SP

> <s_m_subgroupid>
wee1_decoys_glide_SP


$$$$
