ZINC04739811_3558
                    3D
 Schrodinger Suite 2024-2.
 38 39  0  0  1  0            999 V2000
    7.6641   55.6429   21.5271 C   0  0  0  0  0  0
    6.6432   55.0780   22.5039 C   0  0  0  0  0  0
    6.7044   55.4551   23.8457 C   0  0  0  0  0  0
    5.7243   55.0573   24.7464 C   0  0  0  0  0  0
    4.6766   54.2224   24.3367 C   0  0  0  0  0  0
    4.6494   53.7953   22.9987 C   0  0  0  0  0  0
    5.6032   54.2391   22.0817 C   0  0  0  0  0  0
    5.4444   53.6967   20.2599 Br  0  0  0  0  0  0
    3.6560   53.8425   25.2592 N   0  0  0  0  0  0
    2.2991   53.6999   24.9764 C   0  0  0  0  0  0
    1.6782   53.2967   26.1399 C   0  0  0  0  0  0
    2.5898   53.2766   27.1907 C   0  0  0  0  0  0
    3.8301   53.5523   26.6164 C   0  0  0  0  0  0
    5.1964   53.5014   27.2974 C   0  0  0  0  0  0
    2.3251   52.9870   28.5914 C   0  0  0  0  0  0
    1.1548   52.6942   29.0166 N   0  0  0  0  0  0
    0.9140   52.3793   30.3416 N   0  0  0  0  0  0
    1.7577   52.0967   31.3662 C   0  0  0  0  0  0
    2.9867   52.0967   31.3404 O   0  0  0  0  0  0
    1.1044   51.8137   32.4817 N   0  0  0  0  0  0
    1.6491   53.9933   23.6353 C   0  0  0  0  0  0
    8.3038   54.8656   21.1182 H   0  0  0  0  0  0
    7.1568   56.1184   20.6875 H   0  0  0  0  0  0
    8.3045   56.3889   21.9968 H   0  0  0  0  0  0
    7.5034   56.0967   24.1857 H   0  0  0  0  0  0
    5.7766   55.4456   25.7509 H   0  0  0  0  0  0
    3.8841   53.1243   22.6427 H   0  0  0  0  0  0
    0.6226   53.0890   26.2372 H   0  0  0  0  0  0
    5.2106   52.7856   28.1192 H   0  0  0  0  0  0
    5.9932   53.1729   26.6303 H   0  0  0  0  0  0
    5.4822   54.4628   27.7241 H   0  0  0  0  0  0
    3.2154   53.0642   29.2046 H   0  0  0  0  0  0
   -0.0677   52.2424   30.5316 H   0  0  0  0  0  0
    0.0873   51.7241   32.5199 H   0  0  0  0  0  0
    1.6207   51.8205   33.3606 H   0  0  0  0  0  0
    0.5900   54.2212   23.7541 H   0  0  0  0  0  0
    2.0884   54.8558   23.1334 H   0  0  0  0  0  0
    1.7024   53.1439   22.9548 H   0  0  0  0  0  0
  1  2  1  0  0  0
  1 22  1  0  0  0
  1 23  1  0  0  0
  1 24  1  0  0  0
  2  7  2  0  0  0
  2  3  1  0  0  0
  3  4  2  0  0  0
  3 25  1  0  0  0
  4  5  1  0  0  0
  4 26  1  0  0  0
  5  6  2  0  0  0
  5  9  1  0  0  0
  6  7  1  0  0  0
  6 27  1  0  0  0
  7  8  1  0  0  0
  9 13  1  0  0  0
  9 10  1  0  0  0
 10 11  2  0  0  0
 10 21  1  0  0  0
 11 12  1  0  0  0
 11 28  1  0  0  0
 12 13  2  0  0  0
 12 15  1  0  0  0
 13 14  1  0  0  0
 14 29  1  0  0  0
 14 30  1  0  0  0
 14 31  1  0  0  0
 15 16  2  0  0  0
 15 32  1  0  0  0
 16 17  1  0  0  0
 17 18  1  0  0  0
 17 33  1  0  0  0
 18 19  2  0  0  0
 18 20  1  0  0  0
 20 34  1  0  0  0
 20 35  1  0  0  0
 21 36  1  0  0  0
 21 37  1  0  0  0
 21 38  1  0  0  0
M  END
> <i_i_glide_confnum>
4

> <i_i_glide_lignum>
3559

> <i_i_glide_posenum>
92

> <i_i_glide_rotatable_bonds>
4

> <i_m_Source_File_Index>
4277

> <b_m_subgroup_collapsed>
0

> <r_i_docking_score>
-7.613

> <r_i_glide_ecoul>
-9.40537

> <r_i_glide_eff_state_penalty>
0

> <r_i_glide_einternal>
1.46021

> <r_i_glide_emodel>
-57.8451

> <r_i_glide_energy>
-38.8185

> <r_i_glide_erotb>
0.468508

> <r_i_glide_esite>
-0.185658

> <r_i_glide_evdw>
-29.4131

> <r_i_glide_gscore>
-7.613

> <r_i_glide_hbond>
-0.730907

> <r_i_glide_ligand_efficiency>
-0.362524

> <r_i_glide_ligand_efficiency_ln>
-1.8823

> <r_i_glide_ligand_efficiency_sa>
-1.00018

> <r_i_glide_lipo>
-2.63349

> <r_i_glide_metal>
0

> <r_i_glide_rewards>
-1.64999

> <s_i_glide_gridfile>
wee1_glide-grid

> <s_m_Source_File>
wee1_decoys_glide_SP.sdf

> <s_m_Source_Path>
/Users/zhangxujun/Desktop

> <s_m_entry_id>
4552

> <s_m_entry_name>
wee1_decoys_glide_SP.4277

> <s_m_subgroup_title>
wee1_decoys_glide_SP

> <s_m_subgroupid>
wee1_decoys_glide_SP


$$$$
