ZINC38546567_4848
                    3D
 Schrodinger Suite 2024-2.
 68 72  0  0  1  0            999 V2000
   -6.8068   53.2011   26.4478 C   0  0  0  0  0  0
   -5.6892   53.3286   25.4008 C   0  0  0  0  0  0
   -4.7207   52.1225   25.4638 N   0  3  0  0  0  0
   -3.7600   52.1563   24.2543 C   0  0  0  0  0  0
   -2.8202   50.9367   24.3255 C   0  0  0  0  0  0
   -2.0539   50.8296   25.5829 N   0  0  0  0  0  0
   -2.9304   50.8734   26.7659 C   0  0  0  0  0  0
   -3.9065   52.0749   26.7796 C   0  0  0  0  0  0
   -0.8408   51.6830   25.6021 C   0  0  1  0  0  0
   -1.1839   52.6839   25.3383 H   0  0  0  0  0  0
   -0.1551   51.8295   26.9702 C   0  0  0  0  0  0
    0.8786   50.9857   27.3673 C   0  0  0  0  0  0
    1.6445   51.2968   28.4914 C   0  0  0  0  0  0
    1.3513   52.4231   29.2686 C   0  0  0  0  0  0
    0.2427   53.1946   28.9339 C   0  0  0  0  0  0
   -0.4955   52.8964   27.7913 C   0  0  0  0  0  0
    2.0974   52.8297   30.3578 O   0  0  0  0  0  0
    3.4386   52.3604   30.4843 C   0  0  0  0  0  0
    0.1921   51.3074   24.5192 C   0  0  0  0  0  0
    1.1083   52.2349   23.9759 C   0  0  0  0  0  0
    1.8854   51.7091   22.9325 C   0  0  0  0  0  0
    1.5755   50.0217   22.6885 S   0  0  0  0  0  0
    0.3857   50.0375   23.9578 C   0  0  0  0  0  0
   -0.2742   48.8890   24.3615 N   0  0  0  0  0  0
   -0.9904   48.0997   23.5393 C   0  0  0  0  0  0
   -0.9119   48.0970   22.3088 O   0  0  0  0  0  0
   -1.9582   47.2905   24.2386 C   0  0  0  0  0  0
   -2.0957   46.9280   25.5799 C   0  0  0  0  0  0
   -3.2730   46.1849   25.6848 C   0  0  0  0  0  0
   -3.7898   46.0973   24.4023 C   0  0  0  0  0  0
   -2.9731   46.7330   23.5223 O   0  0  0  0  0  0
    2.9287   52.4926   22.1376 C   0  0  0  0  0  0
    2.9198   53.9787   22.5732 C   0  0  0  0  0  0
    2.7103   54.1654   24.0804 C   0  0  0  0  0  0
    1.3096   53.6626   24.4861 C   0  0  0  0  0  0
   -7.5516   53.9853   26.3086 H   0  0  0  0  0  0
   -7.3243   52.2452   26.3674 H   0  0  0  0  0  0
   -6.4337   53.2982   27.4675 H   0  0  0  0  0  0
   -5.0877   54.2295   25.5262 H   0  0  0  0  0  0
   -6.1134   53.3170   24.3939 H   0  0  0  0  0  0
   -4.3799   52.0855   23.3559 H   0  0  0  0  0  0
   -3.2236   53.1062   24.2590 H   0  0  0  0  0  0
   -2.1806   50.8754   23.4436 H   0  0  0  0  0  0
   -3.4457   50.0412   24.2998 H   0  0  0  0  0  0
   -3.5398   49.9715   26.6802 H   0  0  0  0  0  0
   -2.3806   50.7525   27.7012 H   0  0  0  0  0  0
   -4.6278   51.9326   27.5834 H   0  0  0  0  0  0
   -3.3997   53.0325   26.8819 H   0  0  0  0  0  0
    1.1047   50.1081   26.7833 H   0  0  0  0  0  0
    2.4557   50.6438   28.7582 H   0  0  0  0  0  0
   -0.0081   54.0583   29.5315 H   0  0  0  0  0  0
   -1.2816   53.5618   27.4854 H   0  0  0  0  0  0
    3.9273   52.8912   31.2994 H   0  0  0  0  0  0
    3.4892   51.2976   30.7139 H   0  0  0  0  0  0
    4.0177   52.5510   29.5787 H   0  0  0  0  0  0
   -0.5748   48.8915   25.3278 H   0  0  0  0  0  0
   -1.4454   47.2059   26.4012 H   0  0  0  0  0  0
   -3.6961   45.7791   26.5936 H   0  0  0  0  0  0
   -4.6764   45.6425   23.9830 H   0  0  0  0  0  0
    3.9281   52.0935   22.2974 H   0  0  0  0  0  0
    2.7291   52.4315   21.0667 H   0  0  0  0  0  0
    3.8350   54.4729   22.2430 H   0  0  0  0  0  0
    2.1011   54.4957   22.0816 H   0  0  0  0  0  0
    3.4828   53.6306   24.6358 H   0  0  0  0  0  0
    2.8148   55.2179   24.3466 H   0  0  0  0  0  0
    0.5399   54.3172   24.0791 H   0  0  0  0  0  0
    1.2190   53.7150   25.5700 H   0  0  0  0  0  0
   -5.2581   51.2673   25.3981 H   0  0  0  0  0  0
  1  2  1  0  0  0
  1 36  1  0  0  0
  1 37  1  0  0  0
  1 38  1  0  0  0
  2  3  1  0  0  0
  2 39  1  0  0  0
  2 40  1  0  0  0
  3  8  1  0  0  0
  3  4  1  0  0  0
  3 68  1  0  0  0
  4  5  1  0  0  0
  4 41  1  0  0  0
  4 42  1  0  0  0
  5  6  1  0  0  0
  5 43  1  0  0  0
  5 44  1  0  0  0
  6  7  1  0  0  0
  6  9  1  0  0  0
  7  8  1  0  0  0
  7 45  1  0  0  0
  7 46  1  0  0  0
  8 47  1  0  0  0
  8 48  1  0  0  0
  9 10  1  0  0  0
  9 11  1  0  0  0
  9 19  1  0  0  0
 11 16  2  0  0  0
 11 12  1  0  0  0
 12 13  2  0  0  0
 12 49  1  0  0  0
 13 14  1  0  0  0
 13 50  1  0  0  0
 14 15  2  0  0  0
 14 17  1  0  0  0
 15 16  1  0  0  0
 15 51  1  0  0  0
 16 52  1  0  0  0
 17 18  1  0  0  0
 18 53  1  0  0  0
 18 54  1  0  0  0
 18 55  1  0  0  0
 19 23  2  0  0  0
 19 20  1  0  0  0
 20 35  1  0  0  0
 20 21  2  0  0  0
 21 22  1  0  0  0
 21 32  1  0  0  0
 22 23  1  0  0  0
 23 24  1  0  0  0
 24 25  1  0  0  0
 24 56  1  0  0  0
 25 26  2  0  0  0
 25 27  1  0  0  0
 27 31  1  0  0  0
 27 28  2  0  0  0
 28 29  1  0  0  0
 28 57  1  0  0  0
 29 30  2  0  0  0
 29 58  1  0  0  0
 30 31  1  0  0  0
 30 59  1  0  0  0
 32 33  1  0  0  0
 32 60  1  0  0  0
 32 61  1  0  0  0
 33 34  1  0  0  0
 33 62  1  0  0  0
 33 63  1  0  0  0
 34 35  1  0  0  0
 34 64  1  0  0  0
 34 65  1  0  0  0
 35 66  1  0  0  0
 35 67  1  0  0  0
M  CHG  1   3   1
M  END
> <i_i_glide_confnum>
149

> <i_i_glide_lignum>
4849

> <i_i_glide_posenum>
153

> <i_i_glide_rotatable_bonds>
8

> <i_m_Source_File_Index>
1082

> <b_m_subgroup_collapsed>
0

> <r_i_docking_score>
-3.1814

> <r_i_glide_ecoul>
-0.040211

> <r_i_glide_eff_state_penalty>
0

> <r_i_glide_einternal>
12.4279

> <r_i_glide_emodel>
-36.4479

> <r_i_glide_energy>
-35.5398

> <r_i_glide_erotb>
0.526727

> <r_i_glide_esite>
-0.0481794

> <r_i_glide_evdw>
-35.4996

> <r_i_glide_gscore>
-3.1814

> <r_i_glide_hbond>
-0.0399474

> <r_i_glide_ligand_efficiency>
-0.0935707

> <r_i_glide_ligand_efficiency_ln>
-0.702861

> <r_i_glide_ligand_efficiency_sa>
-0.303133

> <r_i_glide_lipo>
-1.77751

> <r_i_glide_metal>
0

> <r_i_glide_rewards>
-0.0614864

> <s_i_glide_gridfile>
wee1_glide-grid

> <s_m_Source_File>
wee1_decoys_glide_SP.sdf

> <s_m_Source_Path>
/Users/zhangxujun/Desktop

> <s_m_entry_id>
1357

> <s_m_entry_name>
wee1_decoys_glide_SP.1082

> <s_m_subgroup_title>
wee1_decoys_glide_SP

> <s_m_subgroupid>
wee1_decoys_glide_SP


$$$$
