ZINC24434376_1669
                    3D
 Schrodinger Suite 2024-2.
 32 33  0  0  1  0            999 V2000
    1.4696   56.4849   30.8576 C   0  0  0  0  0  0
    1.3161   55.5224   30.1250 C   0  0  0  0  0  0
    1.1753   54.3788   29.2399 C   0  0  0  0  0  0
    0.4158   53.2692   29.6249 C   0  0  0  0  0  0
    0.2614   52.1948   28.7484 C   0  0  0  0  0  0
    0.8664   52.2266   27.4915 C   0  0  0  0  0  0
    1.6439   53.3225   27.1009 C   0  0  0  0  0  0
    1.7927   54.4024   27.9868 C   0  0  0  0  0  0
    2.1866   53.2823   25.8021 N   0  0  0  0  0  0
    3.1788   54.0253   25.2576 C   0  0  0  0  0  0
    3.8381   54.8648   25.8735 O   0  0  0  0  0  0
    3.5009   53.7284   23.8071 C   0  0  0  0  0  0
    4.7492   54.0961   23.2921 C   0  0  0  0  0  0
    5.0846   53.8164   21.9725 C   0  0  0  0  0  0
    4.1902   53.1509   21.1379 C   0  0  0  0  0  0
    2.9141   52.7769   21.6151 C   0  0  0  0  0  0
    2.5905   53.0887   22.9495 C   0  0  0  0  0  0
    1.8957   52.0882   20.7686 N   0  3  0  0  0  0
    0.7844   51.8805   21.2512 O   0  0  0  0  0  0
    2.1789   51.7380   19.6268 O   0  5  0  0  0  0
    4.6217   52.8956   19.8360 N   0  0  0  0  0  0
    1.6280   57.2974   31.5281 H   0  0  0  0  0  0
   -0.0691   53.2337   30.5912 H   0  0  0  0  0  0
   -0.3401   51.3421   29.0350 H   0  0  0  0  0  0
    0.7167   51.3908   26.8224 H   0  0  0  0  0  0
    2.3548   55.2797   27.7012 H   0  0  0  0  0  0
    1.8014   52.5587   25.2174 H   0  0  0  0  0  0
    5.4776   54.6036   23.9119 H   0  0  0  0  0  0
    6.0523   54.1246   21.6055 H   0  0  0  0  0  0
    1.6105   52.8170   23.3162 H   0  0  0  0  0  0
    5.5411   53.1675   19.5277 H   0  0  0  0  0  0
    4.0216   52.3532   19.2225 H   0  0  0  0  0  0
  1  2  3  0  0  0
  1 22  1  0  0  0
  2  3  1  0  0  0
  3  8  2  0  0  0
  3  4  1  0  0  0
  4  5  2  0  0  0
  4 23  1  0  0  0
  5  6  1  0  0  0
  5 24  1  0  0  0
  6  7  2  0  0  0
  6 25  1  0  0  0
  7  8  1  0  0  0
  7  9  1  0  0  0
  8 26  1  0  0  0
  9 10  1  0  0  0
  9 27  1  0  0  0
 10 11  2  0  0  0
 10 12  1  0  0  0
 12 17  2  0  0  0
 12 13  1  0  0  0
 13 14  2  0  0  0
 13 28  1  0  0  0
 14 15  1  0  0  0
 14 29  1  0  0  0
 15 16  2  0  0  0
 15 21  1  0  0  0
 16 17  1  0  0  0
 16 18  1  0  0  0
 17 30  1  0  0  0
 18 19  2  0  0  0
 18 20  1  0  0  0
 21 31  1  0  0  0
 21 32  1  0  0  0
M  CHG  2  18   1  20  -1
M  END
> <i_i_glide_confnum>
1

> <i_i_glide_lignum>
1670

> <i_i_glide_posenum>
351

> <i_i_glide_rotatable_bonds>
5

> <i_m_Source_File_Index>
2778

> <b_m_subgroup_collapsed>
0

> <r_i_docking_score>
-5.56232

> <r_i_glide_ecoul>
-2.21686

> <r_i_glide_eff_state_penalty>
0

> <r_i_glide_einternal>
0.692793

> <r_i_glide_emodel>
-48.9046

> <r_i_glide_energy>
-35.8264

> <r_i_glide_erotb>
0.913862

> <r_i_glide_esite>
-0.092371

> <r_i_glide_evdw>
-33.6095

> <r_i_glide_gscore>
-5.56232

> <r_i_glide_hbond>
0

> <r_i_glide_ligand_efficiency>
-0.264873

> <r_i_glide_ligand_efficiency_ln>
-1.37527

> <r_i_glide_ligand_efficiency_sa>
-0.730763

> <r_i_glide_lipo>
-2.56249

> <r_i_glide_metal>
0

> <r_i_glide_rewards>
-1.80832

> <s_i_glide_gridfile>
wee1_glide-grid

> <s_m_Source_File>
wee1_decoys_glide_SP.sdf

> <s_m_Source_Path>
/Users/zhangxujun/Desktop

> <s_m_entry_id>
3053

> <s_m_entry_name>
wee1_decoys_glide_SP.2778

> <s_m_subgroup_title>
wee1_decoys_glide_SP

> <s_m_subgroupid>
wee1_decoys_glide_SP


$$$$
