ZINC49424220_3784
                    3D
 Schrodinger Suite 2024-2.
 29 31  0  0  1  0            999 V2000
   -0.4384   51.5607   28.8007 C   0  0  0  0  0  0
    0.5306   51.9967   27.9005 C   0  0  0  0  0  0
    1.4181   52.9980   28.2964 C   0  0  0  0  0  0
    1.3524   53.5724   29.5352 N   0  0  0  0  0  0
    0.4095   53.1258   30.4076 C   0  0  0  0  0  0
   -0.4899   52.1115   30.0779 C   0  0  0  0  0  0
    0.3039   53.9099   32.1353 Br  0  0  0  0  0  0
    2.3646   53.3793   27.3380 N   0  0  0  0  0  0
    3.4440   54.1773   27.4703 C   0  0  0  0  0  0
    3.7690   54.7356   28.5207 O   0  0  0  0  0  0
    4.2878   54.3288   26.2203 C   0  0  0  0  0  0
    5.6347   54.6906   26.3515 C   0  0  0  0  0  0
    6.4718   54.8207   25.2474 C   0  0  0  0  0  0
    5.9564   54.5846   23.9709 C   0  0  0  0  0  0
    6.5060   54.6366   22.6506 C   0  0  0  0  0  0
    5.4919   54.3070   21.7724 C   0  0  0  0  0  0
    4.3467   54.0601   22.4874 N   0  0  0  0  0  0
    3.4721   53.8071   22.0434 H   0  0  0  0  0  0
    4.5865   54.2202   23.8383 C   0  0  0  0  0  0
    3.7363   54.1001   24.9421 C   0  0  0  0  0  0
   -1.1229   50.7749   28.5158 H   0  0  0  0  0  0
    0.5920   51.5442   26.9206 H   0  0  0  0  0  0
   -1.2053   51.7500   30.8055 H   0  0  0  0  0  0
    2.2575   52.9322   26.4407 H   0  0  0  0  0  0
    6.0500   54.8722   27.3351 H   0  0  0  0  0  0
    7.5038   55.0926   25.3625 H   0  0  0  0  0  0
    7.5212   54.8893   22.3812 H   0  0  0  0  0  0
    5.4822   54.2300   20.6927 H   0  0  0  0  0  0
    2.6979   53.8433   24.7959 H   0  0  0  0  0  0
  1  6  2  0  0  0
  1  2  1  0  0  0
  1 21  1  0  0  0
  2  3  2  0  0  0
  2 22  1  0  0  0
  3  4  1  0  0  0
  3  8  1  0  0  0
  4  5  2  0  0  0
  5  6  1  0  0  0
  5  7  1  0  0  0
  6 23  1  0  0  0
  8  9  1  0  0  0
  8 24  1  0  0  0
  9 10  2  0  0  0
  9 11  1  0  0  0
 11 20  2  0  0  0
 11 12  1  0  0  0
 12 13  2  0  0  0
 12 25  1  0  0  0
 13 14  1  0  0  0
 13 26  1  0  0  0
 14 19  2  0  0  0
 14 15  1  0  0  0
 15 16  2  0  0  0
 15 27  1  0  0  0
 16 17  1  0  0  0
 16 28  1  0  0  0
 17 18  1  0  0  0
 17 19  1  0  0  0
 19 20  1  0  0  0
 20 29  1  0  0  0
M  END
> <i_i_glide_confnum>
5

> <i_i_glide_lignum>
3785

> <i_i_glide_posenum>
193

> <i_i_glide_rotatable_bonds>
3

> <i_m_Source_File_Index>
4572

> <b_m_subgroup_collapsed>
0

> <r_i_docking_score>
-5.71474

> <r_i_glide_ecoul>
-2.85841

> <r_i_glide_eff_state_penalty>
0

> <r_i_glide_einternal>
0.499337

> <r_i_glide_emodel>
-51.6097

> <r_i_glide_energy>
-38.1417

> <r_i_glide_erotb>
0.558647

> <r_i_glide_esite>
0

> <r_i_glide_evdw>
-35.2833

> <r_i_glide_gscore>
-5.71474

> <r_i_glide_hbond>
0

> <r_i_glide_ligand_efficiency>
-0.300776

> <r_i_glide_ligand_efficiency_ln>
-1.44881

> <r_i_glide_ligand_efficiency_sa>
-0.802591

> <r_i_glide_lipo>
-2.4271

> <r_i_glide_metal>
0

> <r_i_glide_rewards>
-1.65336

> <s_i_glide_gridfile>
wee1_glide-grid

> <s_m_Source_File>
wee1_decoys_glide_SP.sdf

> <s_m_Source_Path>
/Users/zhangxujun/Desktop

> <s_m_entry_id>
4847

> <s_m_entry_name>
wee1_decoys_glide_SP.4572

> <s_m_subgroup_title>
wee1_decoys_glide_SP

> <s_m_subgroupid>
wee1_decoys_glide_SP


$$$$
