ZINC51634170_1706
                    3D
 Schrodinger Suite 2024-2.
 37 39  0  0  1  0            999 V2000
    6.2558   54.6595   22.5307 C   0  0  0  0  0  0
    6.5523   54.8967   23.8662 C   0  0  0  0  0  0
    5.6180   54.5988   24.8498 C   0  0  0  0  0  0
    4.3510   54.0967   24.5241 C   0  0  0  0  0  0
    4.0355   53.8852   23.1585 C   0  0  0  0  0  0
    5.0071   54.1501   22.1852 C   0  0  0  0  0  0
    2.6453   53.4180   22.7261 C   0  0  0  0  0  0
    1.8812   52.6953   23.8466 C   0  0  0  0  0  0
    1.9253   53.5308   25.1301 C   0  0  0  0  0  0
    3.3768   53.6967   25.6397 C   0  0  2  0  0  0
    3.7096   52.7318   26.0111 H   0  0  0  0  0  0
    3.3535   54.6443   26.7723 N   0  0  0  0  0  0
    3.5206   54.1037   28.4323 S   0  0  0  0  0  0
    4.6135   53.1284   28.4976 O   0  0  0  0  0  0
    3.5046   55.2967   29.2817 O   0  0  0  0  0  0
    2.0163   53.2286   28.7672 C   0  0  0  0  0  0
    1.8003   51.9489   28.2564 C   0  0  0  0  0  0
    0.6201   51.2999   28.4059 N   0  0  0  0  0  0
   -0.3287   51.9437   29.1272 C   0  0  0  0  0  0
   -0.1972   53.1625   29.7082 N   0  0  0  0  0  0
    0.9809   53.8032   29.5071 C   0  0  0  0  0  0
   -1.5433   51.2967   29.2814 N   0  0  0  0  0  0
    6.9837   54.8886   21.7660 H   0  0  0  0  0  0
    7.5044   55.3118   24.1444 H   0  0  0  0  0  0
    5.8846   54.7565   25.8851 H   0  0  0  0  0  0
    4.7770   53.9909   21.1412 H   0  0  0  0  0  0
    2.0770   54.2992   22.4241 H   0  0  0  0  0  0
    2.7090   52.7800   21.8432 H   0  0  0  0  0  0
    0.8471   52.5309   23.5403 H   0  0  0  0  0  0
    2.3044   51.7059   24.0247 H   0  0  0  0  0  0
    1.4748   54.4967   24.9154 H   0  0  0  0  0  0
    1.2942   53.0702   25.8882 H   0  0  0  0  0  0
    2.9263   55.5586   26.6148 H   0  0  0  0  0  0
    2.5589   51.4417   27.6817 H   0  0  0  0  0  0
    1.0708   54.7912   29.9366 H   0  0  0  0  0  0
   -2.1474   51.6138   30.0201 H   0  0  0  0  0  0
   -1.6185   50.3338   28.9562 H   0  0  0  0  0  0
  1  6  2  0  0  0
  1  2  1  0  0  0
  1 23  1  0  0  0
  2  3  2  0  0  0
  2 24  1  0  0  0
  3  4  1  0  0  0
  3 25  1  0  0  0
  4 10  1  0  0  0
  4  5  2  0  0  0
  5  6  1  0  0  0
  5  7  1  0  0  0
  6 26  1  0  0  0
  7  8  1  0  0  0
  7 27  1  0  0  0
  7 28  1  0  0  0
  8  9  1  0  0  0
  8 29  1  0  0  0
  8 30  1  0  0  0
  9 10  1  0  0  0
  9 31  1  0  0  0
  9 32  1  0  0  0
 10 11  1  0  0  0
 10 12  1  0  0  0
 12 13  1  0  0  0
 12 33  1  0  0  0
 13 14  2  0  0  0
 13 15  2  0  0  0
 13 16  1  0  0  0
 16 21  2  0  0  0
 16 17  1  0  0  0
 17 18  2  0  0  0
 17 34  1  0  0  0
 18 19  1  0  0  0
 19 20  2  0  0  0
 19 22  1  0  0  0
 20 21  1  0  0  0
 21 35  1  0  0  0
 22 36  1  0  0  0
 22 37  1  0  0  0
M  END
> <i_i_glide_confnum>
1

> <i_i_glide_lignum>
1707

> <i_i_glide_posenum>
376

> <i_i_glide_rotatable_bonds>
3

> <i_m_Source_File_Index>
6066

> <b_m_subgroup_collapsed>
0

> <r_i_docking_score>
-6.03428

> <r_i_glide_ecoul>
-2.57294

> <r_i_glide_eff_state_penalty>
0

> <r_i_glide_einternal>
0.312345

> <r_i_glide_emodel>
-49.9464

> <r_i_glide_energy>
-35.0608

> <r_i_glide_erotb>
0.597187

> <r_i_glide_esite>
-0.129499

> <r_i_glide_evdw>
-32.4879

> <r_i_glide_gscore>
-6.03428

> <r_i_glide_hbond>
-0.16

> <r_i_glide_ligand_efficiency>
-0.287347

> <r_i_glide_ligand_efficiency_ln>
-1.49196

> <r_i_glide_ligand_efficiency_sa>
-0.792768

> <r_i_glide_lipo>
-2.78293

> <r_i_glide_metal>
0

> <r_i_glide_rewards>
-1.5487

> <s_i_glide_gridfile>
wee1_glide-grid

> <s_m_Source_File>
wee1_decoys_glide_SP.sdf

> <s_m_Source_Path>
/Users/zhangxujun/Desktop

> <s_m_entry_id>
6341

> <s_m_entry_name>
wee1_decoys_glide_SP.6066

> <s_m_subgroup_title>
wee1_decoys_glide_SP

> <s_m_subgroupid>
wee1_decoys_glide_SP


$$$$
