ZINC09065186_2183
                    3D
 Schrodinger Suite 2024-2.
 55 59  0  0  1  0            999 V2000
    6.6319   55.3833   21.3904 C   0  0  0  0  0  0
    7.1041   55.1872   22.8356 C   0  0  0  0  0  0
    5.9986   54.8565   23.6618 O   0  0  0  0  0  0
    6.0871   54.8891   25.0169 C   0  0  0  0  0  0
    7.1031   55.2278   25.6299 O   0  0  0  0  0  0
    4.8331   54.4185   25.6907 C   0  0  0  0  0  0
    4.8272   54.1947   27.0761 C   0  0  0  0  0  0
    3.6839   53.7076   27.7097 C   0  0  0  0  0  0
    2.5326   53.4389   26.9677 C   0  0  0  0  0  0
    2.5245   53.6929   25.5936 C   0  0  0  0  0  0
    3.6610   54.1768   24.9595 C   0  0  0  0  0  0
    1.3157   52.8545   27.6004 C   0  0  0  0  0  0
    0.8084   52.7602   28.8915 C   0  0  0  0  0  0
   -0.4215   52.0960   28.8016 C   0  0  0  0  0  0
   -0.6041   51.7664   27.4651 C   0  0  0  0  0  0
    0.4516   52.2392   26.7558 O   0  0  0  0  0  0
   -1.7134   51.1311   26.6375 C   0  0  2  0  0  0
   -2.5435   50.8757   27.2988 H   0  0  0  0  0  0
   -1.2427   49.8429   26.0817 N   0  0  0  0  0  0
   -0.7297   49.9066   24.7984 C   0  0  0  0  0  0
   -0.9439   50.9897   23.9437 C   0  0  0  0  0  0
   -0.2133   50.8681   22.7384 C   0  0  0  0  0  0
    0.5748   49.7073   22.7098 C   0  0  0  0  0  0
    0.3043   48.7173   24.1152 S   0  0  0  0  0  0
    1.6463   49.3942   21.6628 C   0  0  0  0  0  0
    1.1880   51.7618   20.8265 C   0  0  0  0  0  0
   -0.1338   51.8980   21.6187 C   0  0  0  0  0  0
    2.5252   50.1354   19.4084 C   0  0  0  0  0  0
   -1.8228   52.0339   24.4667 C   0  0  0  0  0  0
   -2.1960   52.1507   25.6782 N   0  0  0  0  0  0
   -2.3675   52.9885   23.6593 O   0  0  0  0  0  0
    7.4784   55.5816   20.7326 H   0  0  0  0  0  0
    5.9418   56.2231   21.3003 H   0  0  0  0  0  0
    6.1239   54.4953   21.0150 H   0  0  0  0  0  0
    7.8316   54.3752   22.8788 H   0  0  0  0  0  0
    7.5895   56.0967   23.1902 H   0  0  0  0  0  0
    5.7120   54.3754   27.6718 H   0  0  0  0  0  0
    3.7058   53.5176   28.7721 H   0  0  0  0  0  0
    1.6402   53.4977   25.0041 H   0  0  0  0  0  0
    3.6147   54.3457   23.8921 H   0  0  0  0  0  0
    1.2622   53.1455   29.7914 H   0  0  0  0  0  0
   -1.0969   51.8702   29.6152 H   0  0  0  0  0  0
   -1.2375   49.0457   26.7225 H   0  0  0  0  0  0
    2.6458   49.6425   22.0275 H   0  0  0  0  0  0
    1.6276   48.3737   21.2818 H   0  0  0  0  0  0
    2.0703   52.0445   21.4064 H   0  0  0  0  0  0
    1.1469   52.3555   19.9108 H   0  0  0  0  0  0
   -0.9947   51.7754   20.9599 H   0  0  0  0  0  0
   -0.2021   52.8966   22.0322 H   0  0  0  0  0  0
    3.4456   50.5123   19.8583 H   0  0  0  0  0  0
    2.6260   49.0805   19.1461 H   0  0  0  0  0  0
    2.2705   50.7143   18.5189 H   0  0  0  0  0  0
   -3.2887   53.0775   23.9093 H   0  0  0  0  0  0
    1.3631   50.2805   20.4233 N   0  3  1  0  0  0
    0.5164   49.9688   19.9647 H   0  0  0  0  0  0
  1  2  1  0  0  0
  1 32  1  0  0  0
  1 33  1  0  0  0
  1 34  1  0  0  0
  2  3  1  0  0  0
  2 35  1  0  0  0
  2 36  1  0  0  0
  3  4  1  0  0  0
  4  5  2  0  0  0
  4  6  1  0  0  0
  6 11  2  0  0  0
  6  7  1  0  0  0
  7  8  2  0  0  0
  7 37  1  0  0  0
  8  9  1  0  0  0
  8 38  1  0  0  0
  9 10  2  0  0  0
  9 12  1  0  0  0
 10 11  1  0  0  0
 10 39  1  0  0  0
 11 40  1  0  0  0
 12 16  1  0  0  0
 12 13  2  0  0  0
 13 14  1  0  0  0
 13 41  1  0  0  0
 14 15  2  0  0  0
 14 42  1  0  0  0
 15 16  1  0  0  0
 15 17  1  0  0  0
 17 18  1  0  0  0
 17 30  1  0  0  0
 17 19  1  0  0  0
 19 20  1  0  0  0
 19 43  1  0  0  0
 20 24  1  0  0  0
 20 21  2  0  0  0
 21 22  1  0  0  0
 21 29  1  0  0  0
 22 27  1  0  0  0
 22 23  2  0  0  0
 23 24  1  0  0  0
 23 25  1  0  0  0
 25 44  1  0  0  0
 25 45  1  0  0  0
 25 54  1  0  0  0
 26 27  1  0  0  0
 26 46  1  0  0  0
 26 47  1  0  0  0
 26 54  1  0  0  0
 27 48  1  0  0  0
 27 49  1  0  0  0
 28 50  1  0  0  0
 28 51  1  0  0  0
 28 52  1  0  0  0
 28 54  1  0  0  0
 29 30  2  0  0  0
 29 31  1  0  0  0
 31 53  1  0  0  0
 54 55  1  0  0  0
M  CHG  1  54   1
M  END
> <i_i_glide_confnum>
27

> <i_i_glide_lignum>
2184

> <i_i_glide_posenum>
352

> <i_i_glide_rotatable_bonds>
6

> <i_m_Source_File_Index>
3678

> <b_m_subgroup_collapsed>
0

> <r_i_docking_score>
-7.03259

> <r_i_glide_ecoul>
-8.56419

> <r_i_glide_eff_state_penalty>
0

> <r_i_glide_einternal>
12.1764

> <r_i_glide_emodel>
-67.7046

> <r_i_glide_energy>
-49.8927

> <r_i_glide_erotb>
0.414987

> <r_i_glide_esite>
-0.172747

> <r_i_glide_evdw>
-41.3285

> <r_i_glide_gscore>
-7.03259

> <r_i_glide_hbond>
-0.456

> <r_i_glide_ligand_efficiency>
-0.226858

> <r_i_glide_ligand_efficiency_ln>
-1.58607

> <r_i_glide_ligand_efficiency_sa>
-0.712647

> <r_i_glide_lipo>
-2.0417

> <r_i_glide_metal>
0

> <r_i_glide_rewards>
-1.42609

> <s_i_glide_gridfile>
wee1_glide-grid

> <s_m_Source_File>
wee1_decoys_glide_SP.sdf

> <s_m_Source_Path>
/Users/zhangxujun/Desktop

> <s_m_entry_id>
3953

> <s_m_entry_name>
wee1_decoys_glide_SP.3678

> <s_m_subgroup_title>
wee1_decoys_glide_SP

> <s_m_subgroupid>
wee1_decoys_glide_SP


$$$$
