ZINC04235451_1418
                    3D
 Schrodinger Suite 2024-2.
 47 50  0  0  1  0            999 V2000
    1.0662   51.7752   17.7675 C   0  0  0  0  0  0
    2.5645   52.7526   17.2043 S   0  0  0  0  0  0
    3.0945   52.0983   16.0057 O   0  0  0  0  0  0
    2.2006   54.1725   17.1797 O   0  0  0  0  0  0
    3.7138   52.4967   18.5098 N   0  0  0  0  0  0
    3.7309   53.3643   19.7153 C   0  0  1  0  0  0
    3.3543   54.3222   19.3573 H   0  0  0  0  0  0
    2.8967   52.8725   20.8992 C   0  0  0  0  0  0
    3.7960   52.1023   21.6817 O   0  0  0  0  0  0
    5.1044   52.6643   21.5739 C   0  0  1  0  0  0
    5.8003   51.8391   21.4347 H   0  0  0  0  0  0
    5.1042   53.5507   20.3252 C   0  0  2  0  0  0
    5.8963   53.2811   19.6225 H   0  0  0  0  0  0
    5.3478   54.8778   20.8035 O   0  0  0  0  0  0
    6.1502   54.7876   21.9757 C   0  0  0  0  0  0
    5.5730   53.5779   22.7060 C   0  0  1  0  0  0
    6.3365   53.0710   23.2991 H   0  0  0  0  0  0
    4.4958   53.9689   23.5631 O   0  0  0  0  0  0
    4.7133   54.2355   24.8667 C   0  0  0  0  0  0
    5.8199   54.4933   25.3465 O   0  0  0  0  0  0
    3.5089   54.0931   25.5417 N   0  0  0  0  0  0
    3.2981   53.9252   26.9241 C   0  0  0  0  0  0
    4.1837   54.4460   27.8778 C   0  0  0  0  0  0
    3.9922   54.2240   29.2345 C   0  0  0  0  0  0
    2.9039   53.4863   29.6819 C   0  0  0  0  0  0
    1.9619   52.9663   28.7666 C   0  0  0  0  0  0
    2.1516   53.1809   27.3634 C   0  0  0  0  0  0
    1.1914   52.6169   26.4695 C   0  0  0  0  0  0
    0.1067   51.8880   26.9491 C   0  0  0  0  0  0
   -0.0689   51.6967   28.3129 C   0  0  0  0  0  0
    0.8406   52.2265   29.2208 C   0  0  0  0  0  0
    0.3146   51.8190   16.9816 H   0  0  0  0  0  0
    0.6826   52.2212   18.6824 H   0  0  0  0  0  0
    1.3751   50.7444   17.9382 H   0  0  0  0  0  0
    4.2477   51.6103   18.5011 H   0  0  0  0  0  0
    2.5221   53.6958   21.5101 H   0  0  0  0  0  0
    2.0271   52.2835   20.6104 H   0  0  0  0  0  0
    6.1244   55.6967   22.5678 H   0  0  0  0  0  0
    7.2015   54.6743   21.7082 H   0  0  0  0  0  0
    2.7185   53.8800   24.9550 H   0  0  0  0  0  0
    5.0446   55.0259   27.5823 H   0  0  0  0  0  0
    4.7044   54.6232   29.9420 H   0  0  0  0  0  0
    2.7691   53.2968   30.7357 H   0  0  0  0  0  0
    1.3021   52.7409   25.4030 H   0  0  0  0  0  0
   -0.6032   51.4586   26.2571 H   0  0  0  0  0  0
   -0.9106   51.1174   28.6682 H   0  0  0  0  0  0
    0.6952   52.0677   30.2803 H   0  0  0  0  0  0
  1  2  1  0  0  0
  1 32  1  0  0  0
  1 33  1  0  0  0
  1 34  1  0  0  0
  2  3  2  0  0  0
  2  4  2  0  0  0
  2  5  1  0  0  0
  5  6  1  0  0  0
  5 35  1  0  0  0
  6  7  1  0  0  0
  6 12  1  0  0  0
  6  8  1  0  0  0
  8  9  1  0  0  0
  8 36  1  0  0  0
  8 37  1  0  0  0
  9 10  1  0  0  0
 10 11  1  0  0  0
 10 16  1  0  0  0
 10 12  1  0  0  0
 12 13  1  0  0  0
 12 14  1  0  0  0
 14 15  1  0  0  0
 15 16  1  0  0  0
 15 38  1  0  0  0
 15 39  1  0  0  0
 16 17  1  0  0  0
 16 18  1  0  0  0
 18 19  1  0  0  0
 19 20  2  0  0  0
 19 21  1  0  0  0
 21 22  1  0  0  0
 21 40  1  0  0  0
 22 27  2  0  0  0
 22 23  1  0  0  0
 23 24  2  0  0  0
 23 41  1  0  0  0
 24 25  1  0  0  0
 24 42  1  0  0  0
 25 26  2  0  0  0
 25 43  1  0  0  0
 26 31  1  0  0  0
 26 27  1  0  0  0
 27 28  1  0  0  0
 28 29  2  0  0  0
 28 44  1  0  0  0
 29 30  1  0  0  0
 29 45  1  0  0  0
 30 31  2  0  0  0
 30 46  1  0  0  0
 31 47  1  0  0  0
M  END
> <i_i_glide_confnum>
209

> <i_i_glide_lignum>
1419

> <i_i_glide_posenum>
397

> <i_i_glide_rotatable_bonds>
6

> <i_m_Source_File_Index>
1192

> <b_m_subgroup_collapsed>
0

> <r_i_docking_score>
-4.68218

> <r_i_glide_ecoul>
-1.45358

> <r_i_glide_eff_state_penalty>
0

> <r_i_glide_einternal>
2.5415

> <r_i_glide_emodel>
-49.8967

> <r_i_glide_energy>
-36.9338

> <r_i_glide_erotb>
0.507137

> <r_i_glide_esite>
-0.181332

> <r_i_glide_evdw>
-35.4802

> <r_i_glide_gscore>
-4.68218

> <r_i_glide_hbond>
-0.16

> <r_i_glide_ligand_efficiency>
-0.173414

> <r_i_glide_ligand_efficiency_ln>
-1.08993

> <r_i_glide_ligand_efficiency_sa>
-0.520242

> <r_i_glide_lipo>
-1.86091

> <r_i_glide_metal>
0

> <r_i_glide_rewards>
-0.995025

> <s_i_glide_gridfile>
wee1_glide-grid

> <s_m_Source_File>
wee1_decoys_glide_SP.sdf

> <s_m_Source_Path>
/Users/zhangxujun/Desktop

> <s_m_entry_id>
1467

> <s_m_entry_name>
wee1_decoys_glide_SP.1192

> <s_m_subgroup_title>
wee1_decoys_glide_SP

> <s_m_subgroupid>
wee1_decoys_glide_SP


$$$$
