ZINC16100718_18
                    3D
 Schrodinger Suite 2024-2.
 50 53  0  0  1  0            999 V2000
   -0.7449   51.2940   21.6648 C   0  0  0  0  0  0
   -1.5983   51.7358   22.6784 C   0  0  0  0  0  0
   -1.2808   51.4777   24.0118 C   0  0  0  0  0  0
   -0.1246   50.7481   24.3318 C   0  0  0  0  0  0
    0.7235   50.3023   23.3247 C   0  0  0  0  0  0
    0.4177   50.5859   21.9886 C   0  0  0  0  0  0
    1.5587   50.0997   20.6976 S   0  0  0  0  0  0
    0.7863   49.3809   19.6771 O   0  0  0  0  0  0
    2.7033   49.4541   21.3498 O   0  0  0  0  0  0
    2.1128   51.6166   19.9797 N   0  0  0  0  0  0
    2.5226   52.5430   20.9242 N   0  0  0  0  0  0
    3.7509   52.5444   21.4696 C   0  0  0  0  0  0
    4.7116   51.9056   21.0426 O   0  0  0  0  0  0
    3.8594   53.3106   22.6785 C   0  0  0  0  0  0
    4.9702   53.9940   23.1464 C   0  0  0  0  0  0
    4.8109   54.5226   24.4355 C   0  0  0  0  0  0
    3.6130   54.1299   25.0386 C   0  0  0  0  0  0
    2.6065   53.3009   23.8851 S   0  0  0  0  0  0
    3.1031   54.4280   26.4402 C   0  0  0  0  0  0
    3.7843   53.6948   27.6124 C   0  0  0  0  0  0
    5.2032   54.1833   27.9723 C   0  0  0  0  0  0
    6.2836   53.6999   26.9930 C   0  0  0  0  0  0
    6.8149   54.7356   26.0006 C   0  0  0  0  0  0
    5.8029   55.4430   25.1040 C   0  0  0  0  0  0
    0.2540   50.5101   25.6350 O   0  0  0  0  0  0
   -0.8252   50.5940   26.5662 C   0  0  0  0  0  0
   -1.6526   51.8768   26.3130 C   0  0  0  0  0  0
   -2.1723   51.9026   24.9760 O   0  0  0  0  0  0
   -0.9806   51.5032   20.6307 H   0  0  0  0  0  0
   -2.4999   52.2768   22.4366 H   0  0  0  0  0  0
    1.6230   49.7626   23.5895 H   0  0  0  0  0  0
    2.8564   51.4826   19.2867 H   0  0  0  0  0  0
    1.9192   53.3529   21.0141 H   0  0  0  0  0  0
    5.8698   54.1313   22.5638 H   0  0  0  0  0  0
    2.0416   54.1866   26.4869 H   0  0  0  0  0  0
    3.1560   55.4929   26.6350 H   0  0  0  0  0  0
    3.7838   52.6191   27.4371 H   0  0  0  0  0  0
    3.1595   53.8390   28.4943 H   0  0  0  0  0  0
    5.4475   53.7971   28.9621 H   0  0  0  0  0  0
    5.2263   55.2667   28.0771 H   0  0  0  0  0  0
    5.8821   52.8924   26.4018 H   0  0  0  0  0  0
    7.1201   53.2783   27.5486 H   0  0  0  0  0  0
    7.5043   54.2255   25.3339 H   0  0  0  0  0  0
    7.3824   55.4832   26.5489 H   0  0  0  0  0  0
    5.2540   56.1800   25.6811 H   0  0  0  0  0  0
    6.3349   56.0365   24.3576 H   0  0  0  0  0  0
   -0.4302   50.5808   27.5812 H   0  0  0  0  0  0
   -1.4672   49.7147   26.4582 H   0  0  0  0  0  0
   -1.0123   52.7461   26.4632 H   0  0  0  0  0  0
   -2.4760   51.9449   27.0242 H   0  0  0  0  0  0
  1  6  2  0  0  0
  1  2  1  0  0  0
  1 29  1  0  0  0
  2  3  2  0  0  0
  2 30  1  0  0  0
  3 28  1  0  0  0
  3  4  1  0  0  0
  4  5  2  0  0  0
  4 25  1  0  0  0
  5  6  1  0  0  0
  5 31  1  0  0  0
  6  7  1  0  0  0
  7  8  2  0  0  0
  7  9  2  0  0  0
  7 10  1  0  0  0
 10 11  1  0  0  0
 10 32  1  0  0  0
 11 12  1  0  0  0
 11 33  1  0  0  0
 12 13  2  0  0  0
 12 14  1  0  0  0
 14 18  1  0  0  0
 14 15  2  0  0  0
 15 16  1  0  0  0
 15 34  1  0  0  0
 16 24  1  0  0  0
 16 17  2  0  0  0
 17 18  1  0  0  0
 17 19  1  0  0  0
 19 20  1  0  0  0
 19 35  1  0  0  0
 19 36  1  0  0  0
 20 21  1  0  0  0
 20 37  1  0  0  0
 20 38  1  0  0  0
 21 22  1  0  0  0
 21 39  1  0  0  0
 21 40  1  0  0  0
 22 23  1  0  0  0
 22 41  1  0  0  0
 22 42  1  0  0  0
 23 24  1  0  0  0
 23 43  1  0  0  0
 23 44  1  0  0  0
 24 45  1  0  0  0
 24 46  1  0  0  0
 25 26  1  0  0  0
 26 27  1  0  0  0
 26 47  1  0  0  0
 26 48  1  0  0  0
 27 28  1  0  0  0
 27 49  1  0  0  0
 27 50  1  0  0  0
M  END
> <i_i_glide_confnum>
49

> <i_i_glide_lignum>
19

> <i_i_glide_posenum>
116

> <i_i_glide_rotatable_bonds>
5

> <i_m_Source_File_Index>
769

> <b_m_subgroup_collapsed>
0

> <r_i_docking_score>
-4.60435

> <r_i_glide_ecoul>
-1.63624

> <r_i_glide_eff_state_penalty>
0

> <r_i_glide_einternal>
9.53522

> <r_i_glide_emodel>
-46.5053

> <r_i_glide_energy>
-40.0133

> <r_i_glide_erotb>
0.332917

> <r_i_glide_esite>
-0.0518937

> <r_i_glide_evdw>
-38.3771

> <r_i_glide_gscore>
-4.60435

> <r_i_glide_hbond>
-0.199452

> <r_i_glide_ligand_efficiency>
-0.164441

> <r_i_glide_ligand_efficiency_ln>
-1.06282

> <r_i_glide_ligand_efficiency_sa>
-0.49934

> <r_i_glide_lipo>
-2.58013

> <r_i_glide_metal>
0

> <r_i_glide_rewards>
0.0585005

> <s_i_glide_gridfile>
wee1_glide-grid

> <s_m_Source_File>
wee1_decoys_glide_SP.sdf

> <s_m_Source_Path>
/Users/zhangxujun/Desktop

> <s_m_entry_id>
1044

> <s_m_entry_name>
wee1_decoys_glide_SP.769

> <s_m_subgroup_title>
wee1_decoys_glide_SP

> <s_m_subgroupid>
wee1_decoys_glide_SP


$$$$
