ZINC12615192_1023
                    3D
 Schrodinger Suite 2024-2.
 69 73  0  0  1  0            999 V2000
    7.3049   55.8520   20.3413 C   0  0  0  0  0  0
    6.1321   54.8852   20.4200 C   0  0  0  0  0  0
    5.4555   54.7271   21.6327 C   0  0  0  0  0  0
    4.3746   53.8440   21.7677 C   0  0  0  0  0  0
    4.0492   53.0389   20.6706 C   0  0  0  0  0  0
    4.7356   53.1645   19.4646 C   0  0  0  0  0  0
    5.7725   54.1009   19.3131 C   0  0  0  0  0  0
    6.4963   54.2809   18.1465 O   0  0  0  0  0  0
    6.1861   53.5500   16.9605 C   0  0  0  0  0  0
    4.9345   54.1289   16.2778 C   0  0  0  0  0  0
    7.4179   53.6469   16.0528 C   0  0  0  0  0  0
    3.6180   53.7654   23.0709 C   0  0  0  0  0  0
    2.2753   53.3725   23.3244 C   0  0  0  0  0  0
    2.1625   53.5168   24.7009 C   0  0  0  0  0  0
    3.3726   53.9280   25.1915 N   0  0  0  0  0  0
    4.2402   54.0943   24.1872 N   0  0  0  0  0  0
    3.7516   54.1307   26.5433 C   0  0  0  0  0  0
    5.1055   54.0945   26.9188 C   0  0  0  0  0  0
    5.4678   54.2757   28.2490 C   0  0  0  0  0  0
    4.4826   54.4968   29.2064 C   0  0  0  0  0  0
    3.1374   54.5352   28.8508 C   0  0  0  0  0  0
    2.7723   54.3506   27.5218 C   0  0  0  0  0  0
    1.2400   52.9367   22.3904 C   0  0  0  0  0  0
    0.1445   52.1787   22.6427 C   0  0  0  0  0  0
   -0.7471   51.7551   21.5789 C   0  0  0  0  0  0
   -0.6311   52.0450   20.3900 O   0  0  0  0  0  0
   -1.7834   50.9796   22.0521 N   0  0  0  0  0  0
   -1.8109   50.8152   23.3049 C   0  0  0  0  0  0
   -0.4461   51.5313   24.1822 S   0  0  0  0  0  0
   -2.7681   50.0457   23.9710 N   0  0  0  0  0  0
   -3.0513   50.1593   25.4110 C   0  0  0  0  0  0
   -2.9550   48.7784   26.0903 C   0  0  0  0  0  0
   -3.8137   47.7024   25.3813 C   0  0  0  0  0  0
   -3.6555   47.7437   23.8367 C   0  0  0  0  0  0
   -3.7531   49.1895   23.2868 C   0  0  0  0  0  0
   -3.6250   46.2698   25.9537 C   0  0  0  0  0  0
   -4.0958   45.2985   25.3586 O   0  0  0  0  0  0
   -2.9698   46.0966   27.1064 N   0  0  0  0  0  0
    8.1431   55.3842   19.8214 H   0  0  0  0  0  0
    7.0232   56.7479   19.7850 H   0  0  0  0  0  0
    7.6695   56.1294   21.3334 H   0  0  0  0  0  0
    5.7797   55.2967   22.4879 H   0  0  0  0  0  0
    3.2715   52.2930   20.7428 H   0  0  0  0  0  0
    4.4527   52.4977   18.6607 H   0  0  0  0  0  0
    6.0406   52.4964   17.1865 H   0  0  0  0  0  0
    4.7028   53.5859   15.3604 H   0  0  0  0  0  0
    4.0577   54.0701   16.9218 H   0  0  0  0  0  0
    5.0803   55.1781   16.0136 H   0  0  0  0  0  0
    7.2703   53.0956   15.1233 H   0  0  0  0  0  0
    7.6438   54.6817   15.7943 H   0  0  0  0  0  0
    8.2984   53.2304   16.5434 H   0  0  0  0  0  0
    1.3379   53.3247   25.3659 H   0  0  0  0  0  0
    5.8815   53.9131   26.1891 H   0  0  0  0  0  0
    6.5100   54.2507   28.5400 H   0  0  0  0  0  0
    4.7676   54.6462   30.2357 H   0  0  0  0  0  0
    2.3789   54.7120   29.6012 H   0  0  0  0  0  0
    1.7224   54.3886   27.2702 H   0  0  0  0  0  0
    1.4235   53.2771   21.3789 H   0  0  0  0  0  0
   -2.4455   50.9074   25.9223 H   0  0  0  0  0  0
   -4.0852   50.5031   25.4799 H   0  0  0  0  0  0
   -1.8954   48.5124   26.0603 H   0  0  0  0  0  0
   -3.2951   48.9209   27.1196 H   0  0  0  0  0  0
   -4.8589   47.9259   25.6001 H   0  0  0  0  0  0
   -4.4300   47.1586   23.3369 H   0  0  0  0  0  0
   -2.6629   47.3915   23.5476 H   0  0  0  0  0  0
   -4.7341   49.5968   23.5346 H   0  0  0  0  0  0
   -3.6681   49.2199   22.1992 H   0  0  0  0  0  0
   -2.5203   46.8821   27.5758 H   0  0  0  0  0  0
   -2.8962   45.1752   27.5247 H   0  0  0  0  0  0
  1  2  1  0  0  0
  1 39  1  0  0  0
  1 40  1  0  0  0
  1 41  1  0  0  0
  2  7  2  0  0  0
  2  3  1  0  0  0
  3  4  2  0  0  0
  3 42  1  0  0  0
  4  5  1  0  0  0
  4 12  1  0  0  0
  5  6  2  0  0  0
  5 43  1  0  0  0
  6  7  1  0  0  0
  6 44  1  0  0  0
  7  8  1  0  0  0
  8  9  1  0  0  0
  9 10  1  0  0  0
  9 11  1  0  0  0
  9 45  1  0  0  0
 10 46  1  0  0  0
 10 47  1  0  0  0
 10 48  1  0  0  0
 11 49  1  0  0  0
 11 50  1  0  0  0
 11 51  1  0  0  0
 12 16  2  0  0  0
 12 13  1  0  0  0
 13 14  2  0  0  0
 13 23  1  0  0  0
 14 15  1  0  0  0
 14 52  1  0  0  0
 15 16  1  0  0  0
 15 17  1  0  0  0
 17 22  2  0  0  0
 17 18  1  0  0  0
 18 19  2  0  0  0
 18 53  1  0  0  0
 19 20  1  0  0  0
 19 54  1  0  0  0
 20 21  2  0  0  0
 20 55  1  0  0  0
 21 22  1  0  0  0
 21 56  1  0  0  0
 22 57  1  0  0  0
 23 24  2  0  0  0
 23 58  1  0  0  0
 24 29  1  0  0  0
 24 25  1  0  0  0
 25 26  2  0  0  0
 25 27  1  0  0  0
 27 28  2  0  0  0
 28 29  1  0  0  0
 28 30  1  0  0  0
 30 35  1  0  0  0
 30 31  1  0  0  0
 31 32  1  0  0  0
 31 59  1  0  0  0
 31 60  1  0  0  0
 32 33  1  0  0  0
 32 61  1  0  0  0
 32 62  1  0  0  0
 33 34  1  0  0  0
 33 36  1  0  0  0
 33 63  1  0  0  0
 34 35  1  0  0  0
 34 64  1  0  0  0
 34 65  1  0  0  0
 35 66  1  0  0  0
 35 67  1  0  0  0
 36 37  2  0  0  0
 36 38  1  0  0  0
 38 68  1  0  0  0
 38 69  1  0  0  0
M  END
> <i_i_glide_confnum>
70

> <i_i_glide_lignum>
1024

> <i_i_glide_posenum>
100

> <i_i_glide_rotatable_bonds>
7

> <i_m_Source_File_Index>
2027

> <b_m_subgroup_collapsed>
0

> <r_i_docking_score>
-7.32002

> <r_i_glide_ecoul>
-10.681

> <r_i_glide_eff_state_penalty>
0

> <r_i_glide_einternal>
4.15221

> <r_i_glide_emodel>
-78.3234

> <r_i_glide_energy>
-54.2076

> <r_i_glide_erotb>
0.367318

> <r_i_glide_esite>
-0.18819

> <r_i_glide_evdw>
-43.5266

> <r_i_glide_gscore>
-7.32002

> <r_i_glide_hbond>
-0.436407

> <r_i_glide_ligand_efficiency>
-0.192632

> <r_i_glide_ligand_efficiency_ln>
-1.57841

> <r_i_glide_ligand_efficiency_sa>
-0.647624

> <r_i_glide_lipo>
-2.95148

> <r_i_glide_metal>
0

> <r_i_glide_rewards>
-0.332768

> <s_i_glide_gridfile>
wee1_glide-grid

> <s_m_Source_File>
wee1_decoys_glide_SP.sdf

> <s_m_Source_Path>
/Users/zhangxujun/Desktop

> <s_m_entry_id>
2302

> <s_m_entry_name>
wee1_decoys_glide_SP.2027

> <s_m_subgroup_title>
wee1_decoys_glide_SP

> <s_m_subgroupid>
wee1_decoys_glide_SP


$$$$
