ZINC34733137_839
                    3D
 Schrodinger Suite 2024-2.
 66 69  0  0  1  0            999 V2000
    4.9293   52.8966   19.3465 C   0  0  0  0  0  0
    4.1547   53.3092   20.4655 O   0  0  0  0  0  0
    3.3000   52.4051   21.0725 C   0  0  0  0  0  0
    3.0410   51.1137   20.5731 C   0  0  0  0  0  0
    2.1935   50.2388   21.2567 C   0  0  0  0  0  0
    1.5914   50.6479   22.4501 C   0  0  0  0  0  0
    1.8303   51.9284   22.9349 C   0  0  0  0  0  0
    2.6784   52.8185   22.2620 C   0  0  0  0  0  0
    2.9563   54.0894   22.7364 O   0  0  0  0  0  0
    2.3905   54.4978   23.9775 C   0  0  0  0  0  0
    0.8372   49.8045   23.2699 N   0  0  0  0  0  0
   -0.0935   48.8969   22.9172 C   0  0  0  0  0  0
   -0.4684   48.7263   21.7558 O   0  0  0  0  0  0
   -0.6546   47.9859   24.0495 C   0  0  2  0  0  0
   -0.0976   47.0628   23.9173 H   0  0  0  0  0  0
   -2.1662   47.7435   23.8959 C   0  0  0  0  0  0
   -2.9852   49.0183   24.1517 C   0  0  0  0  0  0
   -2.5864   49.8446   25.4159 C   0  0  1  0  0  0
   -3.0087   49.3314   26.2824 H   0  0  0  0  0  0
   -1.1148   49.7846   25.6871 N   0  0  0  0  0  0
   -0.4066   48.5009   25.4891 C   0  0  0  0  0  0
   -0.4188   50.7817   26.2905 C   0  0  0  0  0  0
    0.7036   51.1145   25.9139 O   0  0  0  0  0  0
   -0.9588   51.2201   27.4424 N   0  0  0  0  0  0
   -0.6274   52.4494   28.1646 C   0  0  0  0  0  0
    0.8002   52.6052   28.6814 C   0  0  0  0  0  0
    1.0949   52.2911   30.0109 C   0  0  0  0  0  0
    2.3791   52.4962   30.5093 C   0  0  0  0  0  0
    3.3631   53.0318   29.6817 C   0  0  0  0  0  0
    3.0697   53.3795   28.3651 C   0  0  0  0  0  0
    1.7840   53.1787   27.8702 C   0  0  0  0  0  0
   -3.3189   51.1920   25.4472 C   0  0  0  0  0  0
   -4.3757   51.3960   26.3384 C   0  0  0  0  0  0
   -5.0867   52.5930   26.3113 C   0  0  0  0  0  0
   -4.7442   53.5793   25.3892 C   0  0  0  0  0  0
   -3.6959   53.3823   24.4928 C   0  0  0  0  0  0
   -2.9817   52.1880   24.5235 C   0  0  0  0  0  0
    5.5295   53.7351   18.9933 H   0  0  0  0  0  0
    4.3059   52.5633   18.5155 H   0  0  0  0  0  0
    5.6160   52.0978   19.6295 H   0  0  0  0  0  0
    3.4999   50.7653   19.6584 H   0  0  0  0  0  0
    2.0352   49.2414   20.8736 H   0  0  0  0  0  0
    1.3575   52.2230   23.8561 H   0  0  0  0  0  0
    2.7045   55.5108   24.2048 H   0  0  0  0  0  0
    1.2996   54.4982   23.9443 H   0  0  0  0  0  0
    2.7283   53.8621   24.7980 H   0  0  0  0  0  0
    0.9338   49.9870   24.2619 H   0  0  0  0  0  0
   -2.4023   47.2537   22.9496 H   0  0  0  0  0  0
   -2.4576   46.9812   24.6214 H   0  0  0  0  0  0
   -2.9411   49.6550   23.2670 H   0  0  0  0  0  0
   -4.0352   48.7367   24.2389 H   0  0  0  0  0  0
   -0.8269   47.7811   26.1930 H   0  0  0  0  0  0
    0.6656   48.5501   25.6929 H   0  0  0  0  0  0
   -1.6965   50.6527   27.8390 H   0  0  0  0  0  0
   -0.8914   53.2971   27.5353 H   0  0  0  0  0  0
   -1.2955   52.4965   29.0230 H   0  0  0  0  0  0
    0.3283   51.8895   30.6598 H   0  0  0  0  0  0
    2.6068   52.2424   31.5352 H   0  0  0  0  0  0
    4.3600   53.1875   30.0636 H   0  0  0  0  0  0
    3.8339   53.8038   27.7306 H   0  0  0  0  0  0
    1.5562   53.4531   26.8506 H   0  0  0  0  0  0
   -4.6543   50.6284   27.0453 H   0  0  0  0  0  0
   -5.9083   52.7522   26.9949 H   0  0  0  0  0  0
   -5.3061   54.5007   25.3636 H   0  0  0  0  0  0
   -3.4404   54.1496   23.7768 H   0  0  0  0  0  0
   -2.1727   52.0268   23.8252 H   0  0  0  0  0  0
  1  2  1  0  0  0
  1 38  1  0  0  0
  1 39  1  0  0  0
  1 40  1  0  0  0
  2  3  1  0  0  0
  3  8  2  0  0  0
  3  4  1  0  0  0
  4  5  2  0  0  0
  4 41  1  0  0  0
  5  6  1  0  0  0
  5 42  1  0  0  0
  6  7  2  0  0  0
  6 11  1  0  0  0
  7  8  1  0  0  0
  7 43  1  0  0  0
  8  9  1  0  0  0
  9 10  1  0  0  0
 10 44  1  0  0  0
 10 45  1  0  0  0
 10 46  1  0  0  0
 11 12  1  0  0  0
 11 47  1  0  0  0
 12 13  2  0  0  0
 12 14  1  0  0  0
 14 15  1  0  0  0
 14 21  1  0  0  0
 14 16  1  0  0  0
 16 17  1  0  0  0
 16 48  1  0  0  0
 16 49  1  0  0  0
 17 18  1  0  0  0
 17 50  1  0  0  0
 17 51  1  0  0  0
 18 19  1  0  0  0
 18 20  1  0  0  0
 18 32  1  0  0  0
 20 21  1  0  0  0
 20 22  1  0  0  0
 21 52  1  0  0  0
 21 53  1  0  0  0
 22 23  2  0  0  0
 22 24  1  0  0  0
 24 25  1  0  0  0
 24 54  1  0  0  0
 25 26  1  0  0  0
 25 55  1  0  0  0
 25 56  1  0  0  0
 26 31  2  0  0  0
 26 27  1  0  0  0
 27 28  2  0  0  0
 27 57  1  0  0  0
 28 29  1  0  0  0
 28 58  1  0  0  0
 29 30  2  0  0  0
 29 59  1  0  0  0
 30 31  1  0  0  0
 30 60  1  0  0  0
 31 61  1  0  0  0
 32 37  2  0  0  0
 32 33  1  0  0  0
 33 34  2  0  0  0
 33 62  1  0  0  0
 34 35  1  0  0  0
 34 63  1  0  0  0
 35 36  2  0  0  0
 35 64  1  0  0  0
 36 37  1  0  0  0
 36 65  1  0  0  0
 37 66  1  0  0  0
M  END
> <i_i_glide_confnum>
102

> <i_i_glide_lignum>
840

> <i_i_glide_posenum>
326

> <i_i_glide_rotatable_bonds>
10

> <i_m_Source_File_Index>
5864

> <b_m_subgroup_collapsed>
0

> <r_i_docking_score>
-3.78426

> <r_i_glide_ecoul>
-2.48856

> <r_i_glide_eff_state_penalty>
0

> <r_i_glide_einternal>
9.71862

> <r_i_glide_emodel>
-49.2335

> <r_i_glide_energy>
-44.2451

> <r_i_glide_erotb>
0.6314

> <r_i_glide_esite>
-0.218635

> <r_i_glide_evdw>
-41.7566

> <r_i_glide_gscore>
-3.78426

> <r_i_glide_hbond>
-0.0149329

> <r_i_glide_ligand_efficiency>
-0.108122

> <r_i_glide_ligand_efficiency_ln>
-0.830729

> <r_i_glide_ligand_efficiency_sa>
-0.353673

> <r_i_glide_lipo>
-1.69511

> <r_i_glide_metal>
0

> <r_i_glide_rewards>
-0.0258725

> <s_i_glide_gridfile>
wee1_glide-grid

> <s_m_Source_File>
wee1_decoys_glide_SP.sdf

> <s_m_Source_Path>
/Users/zhangxujun/Desktop

> <s_m_entry_id>
6139

> <s_m_entry_name>
wee1_decoys_glide_SP.5864

> <s_m_subgroup_title>
wee1_decoys_glide_SP

> <s_m_subgroupid>
wee1_decoys_glide_SP


$$$$
