ZINC20830460_3419
                    3D
 Schrodinger Suite 2024-2.
 53 55  0  0  1  0            999 V2000
    6.4724   52.9684   18.1528 C   0  0  0  0  0  0
    6.7198   54.4785   18.2922 C   0  0  0  0  0  0
    5.6237   55.2547   19.0648 C   0  0  1  0  0  0
    5.8791   56.3129   18.9822 H   0  0  0  0  0  0
    4.2364   55.1391   18.3943 C   0  0  0  0  0  0
    5.6469   54.9445   20.5709 C   0  0  0  0  0  0
    4.7407   54.0634   21.1731 C   0  0  0  0  0  0
    4.8368   53.7758   22.5355 C   0  0  0  0  0  0
    5.8234   54.3819   23.3200 C   0  0  0  0  0  0
    6.7083   55.2846   22.7204 C   0  0  0  0  0  0
    6.6297   55.5513   21.3575 C   0  0  0  0  0  0
    5.9227   53.9790   24.6683 N   0  0  0  0  0  0
    6.5584   54.5757   25.6991 C   0  0  0  0  0  0
    7.0599   55.6961   25.6510 O   0  0  0  0  0  0
    6.7100   53.7527   26.9894 C   0  0  0  0  0  0
    5.4031   53.2421   27.6295 C   0  0  0  0  0  0
    4.2633   54.4965   28.2959 S   0  0  0  0  0  0
    2.7582   53.6133   28.0521 C   0  0  0  0  0  0
    1.9481   53.2897   29.0284 N   0  0  0  0  0  0
    0.8634   52.6295   28.4634 N   0  0  0  0  0  0
    1.0154   52.6468   27.1570 C   0  0  0  0  0  0
    2.1913   53.2998   26.8348 N   0  0  0  0  0  0
    2.7093   53.5784   25.5810 N   0  0  0  0  0  0
    0.0472   52.0103   26.1992 C   0  0  0  0  0  0
   -0.1476   52.4964   24.8993 C   0  0  0  0  0  0
   -1.0527   51.8767   24.0416 C   0  0  0  0  0  0
   -1.7654   50.7633   24.4768 C   0  0  0  0  0  0
   -1.5850   50.2718   25.7664 C   0  0  0  0  0  0
   -0.6862   50.8969   26.6253 C   0  0  0  0  0  0
   -2.9982   49.9135   23.2995 Br  0  0  0  0  0  0
    7.3204   52.4706   17.6812 H   0  0  0  0  0  0
    5.5984   52.7641   17.5332 H   0  0  0  0  0  0
    6.3044   52.4943   19.1198 H   0  0  0  0  0  0
    7.6865   54.6373   18.7723 H   0  0  0  0  0  0
    6.8255   54.9074   17.2949 H   0  0  0  0  0  0
    3.5038   55.7766   18.8817 H   0  0  0  0  0  0
    4.2847   55.4530   17.3524 H   0  0  0  0  0  0
    3.8511   54.1198   18.4021 H   0  0  0  0  0  0
    3.9762   53.5732   20.5883 H   0  0  0  0  0  0
    4.1408   53.0722   22.9654 H   0  0  0  0  0  0
    7.5028   55.7522   23.2809 H   0  0  0  0  0  0
    7.3472   56.2217   20.9089 H   0  0  0  0  0  0
    5.5318   53.0697   24.8621 H   0  0  0  0  0  0
    7.4499   52.9603   26.8801 H   0  0  0  0  0  0
    7.1449   54.4499   27.7090 H   0  0  0  0  0  0
    4.9016   52.5484   26.9570 H   0  0  0  0  0  0
    5.6760   52.6224   28.4855 H   0  0  0  0  0  0
    2.8538   54.5657   25.4373 H   0  0  0  0  0  0
    3.5210   53.0200   25.3808 H   0  0  0  0  0  0
    0.3844   53.3645   24.5457 H   0  0  0  0  0  0
   -1.2032   52.2562   23.0425 H   0  0  0  0  0  0
   -2.1344   49.4053   26.1079 H   0  0  0  0  0  0
   -0.5580   50.4974   27.6227 H   0  0  0  0  0  0
  1  2  1  0  0  0
  1 31  1  0  0  0
  1 32  1  0  0  0
  1 33  1  0  0  0
  2  3  1  0  0  0
  2 34  1  0  0  0
  2 35  1  0  0  0
  3  4  1  0  0  0
  3  5  1  0  0  0
  3  6  1  0  0  0
  5 36  1  0  0  0
  5 37  1  0  0  0
  5 38  1  0  0  0
  6 11  2  0  0  0
  6  7  1  0  0  0
  7  8  2  0  0  0
  7 39  1  0  0  0
  8  9  1  0  0  0
  8 40  1  0  0  0
  9 10  2  0  0  0
  9 12  1  0  0  0
 10 11  1  0  0  0
 10 41  1  0  0  0
 11 42  1  0  0  0
 12 13  1  0  0  0
 12 43  1  0  0  0
 13 14  2  0  0  0
 13 15  1  0  0  0
 15 16  1  0  0  0
 15 44  1  0  0  0
 15 45  1  0  0  0
 16 17  1  0  0  0
 16 46  1  0  0  0
 16 47  1  0  0  0
 17 18  1  0  0  0
 18 22  1  0  0  0
 18 19  2  0  0  0
 19 20  1  0  0  0
 20 21  2  0  0  0
 21 22  1  0  0  0
 21 24  1  0  0  0
 22 23  1  0  0  0
 23 48  1  0  0  0
 23 49  1  0  0  0
 24 29  2  0  0  0
 24 25  1  0  0  0
 25 26  2  0  0  0
 25 50  1  0  0  0
 26 27  1  0  0  0
 26 51  1  0  0  0
 27 28  2  0  0  0
 27 30  1  0  0  0
 28 29  1  0  0  0
 28 52  1  0  0  0
 29 53  1  0  0  0
M  END
> <i_i_glide_confnum>
198

> <i_i_glide_lignum>
3420

> <i_i_glide_posenum>
368

> <i_i_glide_rotatable_bonds>
9

> <i_m_Source_File_Index>
5475

> <b_m_subgroup_collapsed>
0

> <r_i_docking_score>
-6.16465

> <r_i_glide_ecoul>
-7.36877

> <r_i_glide_eff_state_penalty>
0

> <r_i_glide_einternal>
6.31789

> <r_i_glide_emodel>
-65.4208

> <r_i_glide_energy>
-50.5085

> <r_i_glide_erotb>
0.719228

> <r_i_glide_esite>
0

> <r_i_glide_evdw>
-43.1397

> <r_i_glide_gscore>
-6.16465

> <r_i_glide_hbond>
-0.32

> <r_i_glide_ligand_efficiency>
-0.212574

> <r_i_glide_ligand_efficiency_ln>
-1.41155

> <r_i_glide_ligand_efficiency_sa>
-0.653096

> <r_i_glide_lipo>
-2.00986

> <r_i_glide_metal>
0

> <r_i_glide_rewards>
-1.29172

> <s_i_glide_gridfile>
wee1_glide-grid

> <s_m_Source_File>
wee1_decoys_glide_SP.sdf

> <s_m_Source_Path>
/Users/zhangxujun/Desktop

> <s_m_entry_id>
5750

> <s_m_entry_name>
wee1_decoys_glide_SP.5475

> <s_m_subgroup_title>
wee1_decoys_glide_SP

> <s_m_subgroupid>
wee1_decoys_glide_SP


$$$$
