ZINC60386545_859
                    3D
 Schrodinger Suite 2024-2.
 61 64  0  0  1  0            999 V2000
    6.0119   52.5676   14.5453 C   0  0  0  0  0  0
    6.3455   54.0282   14.8933 C   0  0  0  0  0  0
    7.3383   54.1877   16.0649 C   0  0  0  0  0  0
    6.8634   53.6860   17.4540 C   0  0  0  0  0  0
    5.8640   54.6112   18.2321 C   0  0  1  0  0  0
    5.7444   54.0655   19.6502 C   0  0  0  0  0  0
    5.4775   52.9007   19.9524 O   0  0  0  0  0  0
    6.1010   55.0650   20.4878 N   0  0  0  0  0  0
    6.5087   56.1830   19.8469 C   0  0  0  0  0  0
    6.7044   57.2967   20.3293 O   0  0  0  0  0  0
    6.4982   55.8716   18.5474 N   0  0  0  0  0  0
    6.3257   54.8906   21.9434 C   0  0  0  0  0  0
    5.0591   54.4967   22.7308 C   0  0  0  0  0  0
    3.9631   54.3841   22.1815 O   0  0  0  0  0  0
    5.2780   54.3684   24.0533 N   0  0  0  0  0  0
    4.3659   54.0964   25.0752 C   0  0  0  0  0  0
    4.6702   54.0645   26.4350 C   0  0  0  0  0  0
    3.5580   53.7513   27.2589 C   0  0  0  0  0  0
    2.3982   53.5016   26.5083 C   0  0  0  0  0  0
    2.6999   53.6969   24.8079 S   0  0  0  0  0  0
    1.0379   53.1040   27.0397 C   0  0  0  0  0  0
    1.0411   51.7944   27.8429 C   0  0  0  0  0  0
    1.6659   51.8848   29.2433 C   0  0  0  0  0  0
    3.1582   52.2747   29.3439 C   0  0  0  0  0  0
    3.5566   53.6577   28.7827 C   0  0  0  0  0  0
    6.0240   54.3063   26.9196 C   0  0  0  0  0  0
    7.1039   54.4966   27.2817 N   0  0  0  0  0  0
    4.4618   54.7516   17.5896 C   0  0  0  0  0  0
    3.7639   53.5980   17.1975 C   0  0  0  0  0  0
    2.4928   53.6926   16.6387 C   0  0  0  0  0  0
    1.9011   54.9417   16.4766 C   0  0  0  0  0  0
    2.5665   56.0961   16.8800 C   0  0  0  0  0  0
    3.8374   56.0014   17.4405 C   0  0  0  0  0  0
    5.3693   52.5161   13.6663 H   0  0  0  0  0  0
    6.9139   51.9965   14.3273 H   0  0  0  0  0  0
    5.4884   52.0623   15.3562 H   0  0  0  0  0  0
    5.4287   54.5820   15.0866 H   0  0  0  0  0  0
    6.7793   54.4990   14.0096 H   0  0  0  0  0  0
    7.6366   55.2337   16.1357 H   0  0  0  0  0  0
    8.2531   53.6525   15.8036 H   0  0  0  0  0  0
    7.7712   53.5582   18.0499 H   0  0  0  0  0  0
    6.4644   52.6748   17.3586 H   0  0  0  0  0  0
    7.0934   56.3319   17.8745 H   0  0  0  0  0  0
    6.6974   55.8178   22.3829 H   0  0  0  0  0  0
    7.0969   54.1429   22.1156 H   0  0  0  0  0  0
    6.2256   54.5263   24.3626 H   0  0  0  0  0  0
    0.3282   52.9909   26.2187 H   0  0  0  0  0  0
    0.6471   53.8930   27.6829 H   0  0  0  0  0  0
    1.5175   50.9953   27.2780 H   0  0  0  0  0  0
    0.0060   51.4695   27.9660 H   0  0  0  0  0  0
    1.5361   50.8971   29.6817 H   0  0  0  0  0  0
    1.0721   52.5628   29.8581 H   0  0  0  0  0  0
    3.7753   51.5072   28.8818 H   0  0  0  0  0  0
    3.4284   52.2520   30.4007 H   0  0  0  0  0  0
    2.8815   54.4097   29.1927 H   0  0  0  0  0  0
    4.5342   53.9186   29.1902 H   0  0  0  0  0  0
    4.1984   52.6169   17.3348 H   0  0  0  0  0  0
    1.9700   52.7961   16.3384 H   0  0  0  0  0  0
    0.9142   55.0146   16.0428 H   0  0  0  0  0  0
    2.0983   57.0629   16.7621 H   0  0  0  0  0  0
    4.3250   56.9137   17.7522 H   0  0  0  0  0  0
  1  2  1  0  0  0
  1 34  1  0  0  0
  1 35  1  0  0  0
  1 36  1  0  0  0
  2  3  1  0  0  0
  2 37  1  0  0  0
  2 38  1  0  0  0
  3  4  1  0  0  0
  3 39  1  0  0  0
  3 40  1  0  0  0
  4  5  1  0  0  0
  4 41  1  0  0  0
  4 42  1  0  0  0
  5 11  1  0  0  0
  5  6  1  0  0  0
  5 28  1  0  0  0
  6  7  2  0  0  0
  6  8  1  0  0  0
  8  9  1  0  0  0
  8 12  1  0  0  0
  9 10  2  0  0  0
  9 11  1  0  0  0
 11 43  1  0  0  0
 12 13  1  0  0  0
 12 44  1  0  0  0
 12 45  1  0  0  0
 13 14  2  0  0  0
 13 15  1  0  0  0
 15 16  1  0  0  0
 15 46  1  0  0  0
 16 20  1  0  0  0
 16 17  2  0  0  0
 17 18  1  0  0  0
 17 26  1  0  0  0
 18 25  1  0  0  0
 18 19  2  0  0  0
 19 20  1  0  0  0
 19 21  1  0  0  0
 21 22  1  0  0  0
 21 47  1  0  0  0
 21 48  1  0  0  0
 22 23  1  0  0  0
 22 49  1  0  0  0
 22 50  1  0  0  0
 23 24  1  0  0  0
 23 51  1  0  0  0
 23 52  1  0  0  0
 24 25  1  0  0  0
 24 53  1  0  0  0
 24 54  1  0  0  0
 25 55  1  0  0  0
 25 56  1  0  0  0
 26 27  3  0  0  0
 28 33  2  0  0  0
 28 29  1  0  0  0
 29 30  2  0  0  0
 29 57  1  0  0  0
 30 31  1  0  0  0
 30 58  1  0  0  0
 31 32  2  0  0  0
 31 59  1  0  0  0
 32 33  1  0  0  0
 32 60  1  0  0  0
 33 61  1  0  0  0
M  END
> <i_i_glide_confnum>
132

> <i_i_glide_lignum>
860

> <i_i_glide_posenum>
399

> <i_i_glide_rotatable_bonds>
9

> <i_m_Source_File_Index>
6

> <b_m_subgroup_collapsed>
0

> <r_i_docking_score>
-6.01172

> <r_i_glide_ecoul>
-5.05726

> <r_i_glide_eff_state_penalty>
0

> <r_i_glide_einternal>
7.07069

> <r_i_glide_emodel>
-58.3991

> <r_i_glide_energy>
-44.5798

> <r_i_glide_erotb>
0.653848

> <r_i_glide_esite>
-0.00987387

> <r_i_glide_evdw>
-39.5226

> <r_i_glide_gscore>
-6.01172

> <r_i_glide_hbond>
-0.405203

> <r_i_glide_ligand_efficiency>
-0.182173

> <r_i_glide_ligand_efficiency_ln>
-1.33698

> <r_i_glide_ligand_efficiency_sa>
-0.584327

> <r_i_glide_lipo>
-2.33702

> <r_i_glide_metal>
0

> <r_i_glide_rewards>
-1.17875

> <s_i_glide_gridfile>
wee1_glide-grid

> <s_m_Source_File>
wee1_decoys_glide_SP.sdf

> <s_m_Source_Path>
/Users/zhangxujun/Desktop

> <s_m_entry_id>
281

> <s_m_entry_name>
wee1_decoys_glide_SP.6

> <s_m_subgroup_title>
wee1_decoys_glide_SP

> <s_m_subgroupid>
wee1_decoys_glide_SP


$$$$
