ZINC59931891_4758
                    3D
 Schrodinger Suite 2024-2.
 35 36  0  0  1  0            999 V2000
    0.8918   52.6140   31.5041 C   0  0  0  0  0  0
    1.6030   53.0265   30.2938 N   0  0  0  0  0  0
    2.8824   52.7314   29.9987 C   0  0  0  0  0  0
    3.6087   52.0956   30.7654 O   0  0  0  0  0  0
    3.4106   53.2443   28.6733 C   0  0  0  0  0  0
    2.5461   53.5946   27.6244 C   0  0  0  0  0  0
    3.0535   54.0146   26.3974 C   0  0  0  0  0  0
    4.4292   54.0966   26.1876 C   0  0  0  0  0  0
    5.3027   53.7723   27.2367 C   0  0  0  0  0  0
    4.7934   53.3457   28.4630 C   0  0  0  0  0  0
    4.8225   54.4610   24.8846 N   0  0  0  0  0  0
    6.0448   54.4723   24.3112 C   0  0  0  0  0  0
    7.1041   54.3574   24.9263 O   0  0  0  0  0  0
    6.0564   54.6781   22.8066 C   0  0  0  0  0  0
    7.1043   55.4302   22.2498 C   0  0  0  0  0  0
    7.1615   55.6967   20.8838 C   0  0  0  0  0  0
    6.1641   55.2187   20.0429 C   0  0  0  0  0  0
    5.1222   54.4587   20.5640 C   0  0  0  0  0  0
    5.0636   54.1710   21.9294 C   0  0  0  0  0  0
    3.9998   53.3653   22.3431 N   0  0  0  0  0  0
    6.2117   55.4865   18.7192 F   0  0  0  0  0  0
   -0.0297   52.0937   31.2384 H   0  0  0  0  0  0
    0.6184   53.4867   32.0990 H   0  0  0  0  0  0
    1.4764   51.9468   32.1390 H   0  0  0  0  0  0
    1.0775   53.5773   29.6344 H   0  0  0  0  0  0
    1.4740   53.5157   27.7286 H   0  0  0  0  0  0
    2.3610   54.2458   25.6011 H   0  0  0  0  0  0
    6.3740   53.8146   27.1244 H   0  0  0  0  0  0
    5.4905   53.0765   29.2439 H   0  0  0  0  0  0
    4.0611   54.6375   24.2456 H   0  0  0  0  0  0
    7.8833   55.8390   22.8775 H   0  0  0  0  0  0
    7.9810   56.2668   20.4708 H   0  0  0  0  0  0
    4.3655   54.0849   19.8889 H   0  0  0  0  0  0
    3.3805   53.0066   21.6293 H   0  0  0  0  0  0
    4.0685   52.8969   23.2341 H   0  0  0  0  0  0
  1  2  1  0  0  0
  1 22  1  0  0  0
  1 23  1  0  0  0
  1 24  1  0  0  0
  2  3  1  0  0  0
  2 25  1  0  0  0
  3  4  2  0  0  0
  3  5  1  0  0  0
  5 10  2  0  0  0
  5  6  1  0  0  0
  6  7  2  0  0  0
  6 26  1  0  0  0
  7  8  1  0  0  0
  7 27  1  0  0  0
  8  9  2  0  0  0
  8 11  1  0  0  0
  9 10  1  0  0  0
  9 28  1  0  0  0
 10 29  1  0  0  0
 11 12  1  0  0  0
 11 30  1  0  0  0
 12 13  2  0  0  0
 12 14  1  0  0  0
 14 19  2  0  0  0
 14 15  1  0  0  0
 15 16  2  0  0  0
 15 31  1  0  0  0
 16 17  1  0  0  0
 16 32  1  0  0  0
 17 18  2  0  0  0
 17 21  1  0  0  0
 18 19  1  0  0  0
 18 33  1  0  0  0
 19 20  1  0  0  0
 20 34  1  0  0  0
 20 35  1  0  0  0
M  END
> <i_i_glide_confnum>
13

> <i_i_glide_lignum>
4759

> <i_i_glide_posenum>
94

> <i_i_glide_rotatable_bonds>
5

> <i_m_Source_File_Index>
5250

> <b_m_subgroup_collapsed>
0

> <r_i_docking_score>
-6.33674

> <r_i_glide_ecoul>
-4.27421

> <r_i_glide_eff_state_penalty>
0

> <r_i_glide_einternal>
1.50561

> <r_i_glide_emodel>
-57.7508

> <r_i_glide_energy>
-42.4842

> <r_i_glide_erotb>
0.880789

> <r_i_glide_esite>
0

> <r_i_glide_evdw>
-38.21

> <r_i_glide_gscore>
-6.33674

> <r_i_glide_hbond>
-0.286593

> <r_i_glide_ligand_efficiency>
-0.301749

> <r_i_glide_ligand_efficiency_ln>
-1.56675

> <r_i_glide_ligand_efficiency_sa>
-0.832504

> <r_i_glide_lipo>
-2.2216

> <r_i_glide_metal>
0

> <r_i_glide_rewards>
-2.15771

> <s_i_glide_gridfile>
wee1_glide-grid

> <s_m_Source_File>
wee1_decoys_glide_SP.sdf

> <s_m_Source_Path>
/Users/zhangxujun/Desktop

> <s_m_entry_id>
5525

> <s_m_entry_name>
wee1_decoys_glide_SP.5250

> <s_m_subgroup_title>
wee1_decoys_glide_SP

> <s_m_subgroupid>
wee1_decoys_glide_SP


$$$$
