ZINC22429094_3262
                    3D
 Schrodinger Suite 2024-2.
 70 75  0  0  1  0            999 V2000
   -2.7632   51.3715   19.7593 C   0  0  0  0  0  0
   -1.9482   50.7441   20.9152 C   0  0  1  0  0  0
   -2.4047   49.7709   21.1178 H   0  0  0  0  0  0
   -0.4373   50.4646   20.5898 C   0  0  0  0  0  0
    0.2068   49.6304   21.7523 C   0  0  0  0  0  0
    1.7005   49.3196   21.4662 C   0  0  1  0  0  0
    1.8058   48.5016   20.1534 C   0  0  0  0  0  0
    1.2182   49.3226   18.9815 C   0  0  1  0  0  0
   -0.2723   49.6350   19.2728 C   0  0  0  0  0  0
    2.0011   50.6528   18.8333 C   0  0  0  0  0  0
    1.8852   51.4749   20.1440 C   0  0  2  0  0  0
    2.4781   50.6536   21.3184 C   0  0  0  0  0  0
    0.3929   51.7848   20.4291 C   0  0  0  0  0  0
   -2.0939   51.5774   22.1122 N   0  0  0  0  0  0
   -3.0696   51.4986   23.0319 C   0  0  0  0  0  0
   -3.9697   50.6644   23.0017 O   0  0  0  0  0  0
   -3.0574   52.5840   24.1194 C   0  0  0  0  0  0
   -2.1484   52.2335   25.2307 N   0  0  0  0  0  0
   -0.8083   52.1623   25.1006 C   0  0  0  0  0  0
   -0.1334   52.4824   24.1139 O   0  0  0  0  0  0
   -0.2885   51.5037   26.3720 C   0  0  1  0  0  0
   -1.5422   51.2904   27.0510 N   0  0  0  0  0  0
   -2.6113   51.7840   26.4211 C   0  0  0  0  0  0
   -3.7206   51.9921   26.9133 O   0  0  0  0  0  0
    0.3211   50.1310   25.9997 C   0  0  0  0  0  0
    0.7113   52.4170   27.1241 C   0  0  0  0  0  0
    0.5031   52.8178   28.4521 C   0  0  0  0  0  0
    1.4200   53.6497   29.0953 C   0  0  0  0  0  0
    2.5710   54.0891   28.4368 C   0  0  0  0  0  0
    2.7889   53.7040   27.1037 C   0  0  0  0  0  0
    1.8625   52.8846   26.4683 C   0  0  0  0  0  0
    3.8804   54.1390   26.3912 O   0  0  0  0  0  0
    5.1441   53.6634   26.8391 C   0  0  0  0  0  0
    5.6761   54.4353   28.0486 C   0  0  0  0  0  0
    4.7672   54.3667   29.2826 C   0  0  0  0  0  0
    3.4611   54.8985   29.1002 O   0  0  0  0  0  0
   -2.7436   50.7498   18.8659 H   0  0  0  0  0  0
   -3.8125   51.4773   20.0288 H   0  0  0  0  0  0
   -2.3748   52.3480   19.4727 H   0  0  0  0  0  0
   -0.3390   48.6982   21.8939 H   0  0  0  0  0  0
    0.1297   50.1626   22.7000 H   0  0  0  0  0  0
    2.1223   48.7474   22.2925 H   0  0  0  0  0  0
    2.8407   48.2434   19.9382 H   0  0  0  0  0  0
    1.2753   47.5530   20.2498 H   0  0  0  0  0  0
    1.3034   48.7497   18.0568 H   0  0  0  0  0  0
   -0.6741   50.1756   18.4136 H   0  0  0  0  0  0
   -0.8406   48.7047   19.3340 H   0  0  0  0  0  0
    1.6189   51.2274   17.9900 H   0  0  0  0  0  0
    3.0490   50.4506   18.6048 H   0  0  0  0  0  0
    2.4376   52.4079   20.0348 H   0  0  0  0  0  0
    3.5355   50.4584   21.1437 H   0  0  0  0  0  0
    2.4256   51.2271   22.2459 H   0  0  0  0  0  0
    0.3262   52.3986   21.3280 H   0  0  0  0  0  0
   -0.0100   52.3969   19.6228 H   0  0  0  0  0  0
   -1.3092   52.1763   22.3282 H   0  0  0  0  0  0
   -2.7133   53.5182   23.6735 H   0  0  0  0  0  0
   -4.0744   52.7896   24.4553 H   0  0  0  0  0  0
   -1.6295   50.5646   27.7510 H   0  0  0  0  0  0
    1.1043   50.2153   25.2462 H   0  0  0  0  0  0
    0.7558   49.6479   26.8784 H   0  0  0  0  0  0
   -0.4232   49.4392   25.6012 H   0  0  0  0  0  0
   -0.3673   52.4861   28.9991 H   0  0  0  0  0  0
    1.2365   53.9525   30.1178 H   0  0  0  0  0  0
    2.0556   52.6016   25.4426 H   0  0  0  0  0  0
    5.8429   53.7789   26.0077 H   0  0  0  0  0  0
    5.1118   52.5897   27.0361 H   0  0  0  0  0  0
    5.8365   55.4776   27.7728 H   0  0  0  0  0  0
    6.6608   54.0475   28.3156 H   0  0  0  0  0  0
    5.2319   54.9443   30.0817 H   0  0  0  0  0  0
    4.7012   53.3477   29.6698 H   0  0  0  0  0  0
  1  2  1  0  0  0
  1 37  1  0  0  0
  1 38  1  0  0  0
  1 39  1  0  0  0
  2  3  1  0  0  0
  2  4  1  0  0  0
  2 14  1  0  0  0
  4  9  1  0  0  0
  4 13  1  0  0  0
  4  5  1  0  0  0
  5  6  1  0  0  0
  5 40  1  0  0  0
  5 41  1  0  0  0
  6 12  1  0  0  0
  6  7  1  0  0  0
  6 42  1  0  0  0
  7  8  1  0  0  0
  7 43  1  0  0  0
  7 44  1  0  0  0
  8  9  1  0  0  0
  8 10  1  0  0  0
  8 45  1  0  0  0
  9 46  1  0  0  0
  9 47  1  0  0  0
 10 11  1  0  0  0
 10 48  1  0  0  0
 10 49  1  0  0  0
 11 12  1  0  0  0
 11 13  1  0  0  0
 11 50  1  0  0  0
 12 51  1  0  0  0
 12 52  1  0  0  0
 13 53  1  0  0  0
 13 54  1  0  0  0
 14 15  1  0  0  0
 14 55  1  0  0  0
 15 16  2  0  0  0
 15 17  1  0  0  0
 17 18  1  0  0  0
 17 56  1  0  0  0
 17 57  1  0  0  0
 18 23  1  0  0  0
 18 19  1  0  0  0
 19 20  2  0  0  0
 19 21  1  0  0  0
 21 22  1  0  0  0
 21 25  1  0  0  0
 21 26  1  0  0  0
 22 23  1  0  0  0
 22 58  1  0  0  0
 23 24  2  0  0  0
 25 59  1  0  0  0
 25 60  1  0  0  0
 25 61  1  0  0  0
 26 31  2  0  0  0
 26 27  1  0  0  0
 27 28  2  0  0  0
 27 62  1  0  0  0
 28 29  1  0  0  0
 28 63  1  0  0  0
 29 36  1  0  0  0
 29 30  2  0  0  0
 30 31  1  0  0  0
 30 32  1  0  0  0
 31 64  1  0  0  0
 32 33  1  0  0  0
 33 34  1  0  0  0
 33 65  1  0  0  0
 33 66  1  0  0  0
 34 35  1  0  0  0
 34 67  1  0  0  0
 34 68  1  0  0  0
 35 36  1  0  0  0
 35 69  1  0  0  0
 35 70  1  0  0  0
M  END
> <i_i_glide_confnum>
172

> <i_i_glide_lignum>
3263

> <i_i_glide_posenum>
396

> <i_i_glide_rotatable_bonds>
6

> <i_m_Source_File_Index>
4189

> <b_m_subgroup_collapsed>
0

> <r_i_docking_score>
-4.14924

> <r_i_glide_ecoul>
-2.69117

> <r_i_glide_eff_state_penalty>
0

> <r_i_glide_einternal>
6.01459

> <r_i_glide_emodel>
-48.61

> <r_i_glide_energy>
-41.1054

> <r_i_glide_erotb>
0.437373

> <r_i_glide_esite>
-0.115009

> <r_i_glide_evdw>
-38.4142

> <r_i_glide_gscore>
-4.14924

> <r_i_glide_hbond>
-0.0569857

> <r_i_glide_ligand_efficiency>
-0.11855

> <r_i_glide_ligand_efficiency_ln>
-0.91085

> <r_i_glide_ligand_efficiency_sa>
-0.387784

> <r_i_glide_lipo>
-1.95536

> <r_i_glide_metal>
0

> <r_i_glide_rewards>
-0.134872

> <s_i_glide_gridfile>
wee1_glide-grid

> <s_m_Source_File>
wee1_decoys_glide_SP.sdf

> <s_m_Source_Path>
/Users/zhangxujun/Desktop

> <s_m_entry_id>
4464

> <s_m_entry_name>
wee1_decoys_glide_SP.4189

> <s_m_subgroup_title>
wee1_decoys_glide_SP

> <s_m_subgroupid>
wee1_decoys_glide_SP


$$$$
