ZINC08914333_5323
                    3D
 Schrodinger Suite 2024-2.
 63 69  0  0  1  0            999 V2000
   -5.8569   48.0670   21.7993 C   0  0  0  0  0  0
   -5.6117   49.4031   22.0973 C   0  0  0  0  0  0
   -4.3042   49.8481   22.2693 C   0  0  0  0  0  0
   -3.2251   48.9549   22.1558 C   0  0  0  0  0  0
   -3.4919   47.6128   21.8421 C   0  0  0  0  0  0
   -4.8013   47.1686   21.6671 C   0  0  0  0  0  0
   -1.7938   49.3807   22.3369 C   0  0  0  0  0  0
   -0.8509   48.6356   22.0598 O   0  0  0  0  0  0
   -1.4698   50.8058   22.8974 C   0  0  2  0  0  0
   -2.2443   51.4736   22.5283 H   0  0  0  0  0  0
   -0.1078   51.3515   22.4016 C   0  0  1  0  0  0
    0.7094   50.6623   22.6160 H   0  0  0  0  0  0
    1.4517   53.1793   23.3603 C   0  0  0  0  0  0
    2.1036   53.3545   24.5176 C   0  0  0  0  0  0
    1.5536   53.0138   25.8252 C   0  0  0  0  0  0
    2.3310   53.2264   26.9677 C   0  0  0  0  0  0
    1.8196   52.9312   28.2297 C   0  0  0  0  0  0
    0.5247   52.4365   28.3512 C   0  0  0  0  0  0
   -0.2491   52.2380   27.2101 C   0  0  0  0  0  0
    0.2543   52.4958   25.9231 C   0  0  0  0  0  0
   -0.6178   52.2855   24.6552 C   0  0  2  0  0  0
   -1.3153   53.1231   24.6765 H   0  0  0  0  0  0
   -1.4217   50.9572   24.4491 C   0  0  1  0  0  0
   -2.7615   50.9681   25.1375 C   0  0  0  0  0  0
   -3.8725   51.8028   24.9924 C   0  0  0  0  0  0
   -5.0012   51.5900   25.7884 C   0  0  0  0  0  0
   -5.0124   50.5576   26.7306 C   0  0  0  0  0  0
   -3.8949   49.7349   26.8828 C   0  0  0  0  0  0
   -2.7813   49.9586   26.0760 C   0  0  0  0  0  0
   -1.5619   49.3071   26.0763 N   0  0  0  0  0  0
   -0.7021   49.7711   25.1574 C   0  0  0  0  0  0
    0.4407   49.3736   24.9376 O   0  0  0  0  0  0
   -0.1411   51.8123   20.9167 C   0  0  0  0  0  0
   -1.2349   52.0874   20.4112 O   0  0  0  0  0  0
    1.1452   51.9611   20.1596 C   0  0  0  0  0  0
    2.3896   51.6216   20.7130 C   0  0  0  0  0  0
    3.5621   51.9096   20.0236 C   0  0  0  0  0  0
    3.5009   52.4965   18.7624 C   0  0  0  0  0  0
    2.2751   52.7661   18.1662 C   0  0  0  0  0  0
    1.0997   52.4966   18.8624 C   0  0  0  0  0  0
   -6.8727   47.7229   21.6655 H   0  0  0  0  0  0
   -6.4356   50.0956   22.1975 H   0  0  0  0  0  0
   -4.1689   50.8926   22.4863 H   0  0  0  0  0  0
   -2.6873   46.8961   21.7329 H   0  0  0  0  0  0
   -4.9978   46.1334   21.4285 H   0  0  0  0  0  0
    1.8845   53.4901   22.4183 H   0  0  0  0  0  0
    3.0886   53.7992   24.4694 H   0  0  0  0  0  0
    3.3364   53.6134   26.8857 H   0  0  0  0  0  0
    2.4255   53.0868   29.1104 H   0  0  0  0  0  0
    0.1169   52.2082   29.3259 H   0  0  0  0  0  0
   -1.2557   51.8692   27.3343 H   0  0  0  0  0  0
   -3.8760   52.6093   24.2744 H   0  0  0  0  0  0
   -5.8656   52.2282   25.6794 H   0  0  0  0  0  0
   -5.8814   50.3995   27.3509 H   0  0  0  0  0  0
   -3.8903   48.9491   27.6266 H   0  0  0  0  0  0
   -1.3004   48.6355   26.8024 H   0  0  0  0  0  0
    2.4912   51.1705   21.6880 H   0  0  0  0  0  0
    4.5241   51.6633   20.4478 H   0  0  0  0  0  0
    4.4167   52.6901   18.2209 H   0  0  0  0  0  0
    2.2372   53.1890   17.1728 H   0  0  0  0  0  0
    0.1598   52.7420   18.3887 H   0  0  0  0  0  0
    0.0989   52.5967   23.2958 N   0  3  2  0  0  0
   -0.4864   53.3089   22.8848 H   0  0  0  0  0  0
  1  6  2  0  0  0
  1  2  1  0  0  0
  1 41  1  0  0  0
  2  3  2  0  0  0
  2 42  1  0  0  0
  3  4  1  0  0  0
  3 43  1  0  0  0
  4  5  2  0  0  0
  4  7  1  0  0  0
  5  6  1  0  0  0
  5 44  1  0  0  0
  6 45  1  0  0  0
  7  8  2  0  0  0
  7  9  1  0  0  0
  9 10  1  0  0  0
  9 23  1  0  0  0
  9 11  1  0  0  0
 11 12  1  0  0  0
 11 33  1  0  0  0
 11 62  1  0  0  0
 13 14  2  0  0  0
 13 46  1  0  0  0
 13 62  1  0  0  0
 14 15  1  0  0  0
 14 47  1  0  0  0
 15 20  2  0  0  0
 15 16  1  0  0  0
 16 17  2  0  0  0
 16 48  1  0  0  0
 17 18  1  0  0  0
 17 49  1  0  0  0
 18 19  2  0  0  0
 18 50  1  0  0  0
 19 20  1  0  0  0
 19 51  1  0  0  0
 20 21  1  0  0  0
 21 22  1  0  0  0
 21 23  1  0  0  0
 21 62  1  0  0  0
 23 31  1  0  0  0
 23 24  1  0  0  0
 24 29  2  0  0  0
 24 25  1  0  0  0
 25 26  2  0  0  0
 25 52  1  0  0  0
 26 27  1  0  0  0
 26 53  1  0  0  0
 27 28  2  0  0  0
 27 54  1  0  0  0
 28 29  1  0  0  0
 28 55  1  0  0  0
 29 30  1  0  0  0
 30 31  1  0  0  0
 30 56  1  0  0  0
 31 32  2  0  0  0
 33 34  2  0  0  0
 33 35  1  0  0  0
 35 40  2  0  0  0
 35 36  1  0  0  0
 36 37  2  0  0  0
 36 57  1  0  0  0
 37 38  1  0  0  0
 37 58  1  0  0  0
 38 39  2  0  0  0
 38 59  1  0  0  0
 39 40  1  0  0  0
 39 60  1  0  0  0
 40 61  1  0  0  0
 62 63  1  0  0  0
M  CHG  1  62   1
M  END
> <i_i_glide_confnum>
5

> <i_i_glide_lignum>
5324

> <i_i_glide_posenum>
122

> <i_i_glide_rotatable_bonds>
4

> <i_m_Source_File_Index>
4671

> <b_m_subgroup_collapsed>
0

> <r_i_docking_score>
-3.29172

> <r_i_glide_ecoul>
-4.6676

> <r_i_glide_eff_state_penalty>
0

> <r_i_glide_einternal>
7.33609

> <r_i_glide_emodel>
-38.9827

> <r_i_glide_energy>
-33.6892

> <r_i_glide_erotb>
0.329605

> <r_i_glide_esite>
-0.151143

> <r_i_glide_evdw>
-29.0216

> <r_i_glide_gscore>
-3.29172

> <r_i_glide_hbond>
-0.136221

> <r_i_glide_ligand_efficiency>
-0.0866243

> <r_i_glide_ligand_efficiency_ln>
-0.709792

> <r_i_glide_ligand_efficiency_sa>
-0.291229

> <r_i_glide_lipo>
-1.16613

> <r_i_glide_metal>
0

> <r_i_glide_rewards>
-0.0166145

> <s_i_glide_gridfile>
wee1_glide-grid

> <s_m_Source_File>
wee1_decoys_glide_SP.sdf

> <s_m_Source_Path>
/Users/zhangxujun/Desktop

> <s_m_entry_id>
4946

> <s_m_entry_name>
wee1_decoys_glide_SP.4671

> <s_m_subgroup_title>
wee1_decoys_glide_SP

> <s_m_subgroupid>
wee1_decoys_glide_SP


$$$$
