ZINC39595348_2150
                    3D
 Schrodinger Suite 2024-2.
 66 69  0  0  1  0            999 V2000
    0.3957   53.6483   30.3289 C   0  0  0  0  0  0
    1.1930   53.6703   29.0360 C   0  0  0  0  0  0
    2.2288   54.5863   28.8663 C   0  0  0  0  0  0
    2.9650   54.5893   27.6842 C   0  0  0  0  0  0
    2.6700   53.7059   26.6346 C   0  0  0  0  0  0
    1.6486   52.7624   26.8457 C   0  0  0  0  0  0
    0.9149   52.7471   28.0300 C   0  0  0  0  0  0
    3.5178   53.7724   25.3650 C   0  0  0  0  0  0
    4.6475   54.2645   25.4470 O   0  0  0  0  0  0
    3.0665   53.2966   24.1686 N   0  0  0  0  0  0
    1.6951   52.9510   23.8339 C   0  0  0  0  0  0
    1.6339   53.0555   22.2892 C   0  0  1  0  0  0
    1.3862   54.0967   22.0818 H   0  0  0  0  0  0
    3.0735   52.6962   21.8050 C   0  0  0  0  0  0
    3.9095   53.2986   22.9653 C   0  0  0  0  0  0
    3.3813   51.1662   21.6656 C   0  0  0  0  0  0
    2.7564   50.4897   20.4078 C   0  0  0  0  0  0
    3.1044   51.2868   19.1304 N   0  3  0  0  0  0
    2.8783   52.8100   19.2297 C   0  0  0  0  0  0
    3.5964   53.3280   20.4848 C   0  0  0  0  0  0
    0.4424   52.1952   21.7892 C   0  0  0  0  0  0
   -0.0948   52.4967   20.7269 O   0  0  0  0  0  0
    0.0139   51.1464   22.5157 N   0  0  0  0  0  0
   -1.1632   50.3368   22.2092 C   0  0  0  0  0  0
   -2.3244   50.5502   23.2202 C   0  0  1  0  0  0
   -2.0256   50.2212   24.2172 H   0  0  0  0  0  0
   -2.7259   52.0293   23.3588 C   0  0  0  0  0  0
   -3.4932   49.8373   22.8021 O   0  0  0  0  0  0
   -3.4586   48.4589   22.7004 C   0  0  0  0  0  0
   -2.5126   47.6526   23.3513 C   0  0  0  0  0  0
   -2.4944   46.2814   23.1343 C   0  0  0  0  0  0
   -3.4409   45.6988   22.2965 C   0  0  0  0  0  0
   -4.4150   46.4815   21.6818 C   0  0  0  0  0  0
   -4.4223   47.8602   21.8877 C   0  0  0  0  0  0
   -3.4085   44.3644   22.0802 F   0  0  0  0  0  0
    0.0851   52.6341   30.5803 H   0  0  0  0  0  0
    0.9878   54.0089   31.1695 H   0  0  0  0  0  0
   -0.4930   54.2694   30.2374 H   0  0  0  0  0  0
    2.4712   55.2937   29.6462 H   0  0  0  0  0  0
    3.7762   55.2951   27.5904 H   0  0  0  0  0  0
    1.4178   51.9921   26.1332 H   0  0  0  0  0  0
    0.1368   52.0086   28.1651 H   0  0  0  0  0  0
    0.9447   53.5968   24.2954 H   0  0  0  0  0  0
    1.6112   51.9056   24.1262 H   0  0  0  0  0  0
    4.9191   52.8977   23.0651 H   0  0  0  0  0  0
    4.0644   54.3559   22.7394 H   0  0  0  0  0  0
    4.4616   51.0211   21.6142 H   0  0  0  0  0  0
    3.0755   50.6260   22.5630 H   0  0  0  0  0  0
    3.1100   49.4717   20.2467 H   0  0  0  0  0  0
    1.6731   50.4232   20.4099 H   0  0  0  0  0  0
    4.0759   51.0883   18.8677 H   0  0  0  0  0  0
    3.2898   53.2343   18.3125 H   0  0  0  0  0  0
    1.8042   52.9829   19.2391 H   0  0  0  0  0  0
    3.5045   54.4145   20.5230 H   0  0  0  0  0  0
    4.6701   53.1565   20.3800 H   0  0  0  0  0  0
    0.5428   50.8678   23.3278 H   0  0  0  0  0  0
   -0.8380   49.2975   22.1906 H   0  0  0  0  0  0
   -1.5394   50.5212   21.1993 H   0  0  0  0  0  0
   -1.9426   52.6067   23.8513 H   0  0  0  0  0  0
   -2.8961   52.4845   22.3845 H   0  0  0  0  0  0
   -3.6312   52.1389   23.9554 H   0  0  0  0  0  0
   -1.7706   48.0713   24.0135 H   0  0  0  0  0  0
   -1.7322   45.6866   23.6111 H   0  0  0  0  0  0
   -5.1515   46.0242   21.0385 H   0  0  0  0  0  0
   -5.1631   48.4740   21.3971 H   0  0  0  0  0  0
    2.5751   50.9154   18.3523 H   0  0  0  0  0  0
  1  2  1  0  0  0
  1 36  1  0  0  0
  1 37  1  0  0  0
  1 38  1  0  0  0
  2  7  2  0  0  0
  2  3  1  0  0  0
  3  4  2  0  0  0
  3 39  1  0  0  0
  4  5  1  0  0  0
  4 40  1  0  0  0
  5  6  2  0  0  0
  5  8  1  0  0  0
  6  7  1  0  0  0
  6 41  1  0  0  0
  7 42  1  0  0  0
  8  9  2  0  0  0
  8 10  1  0  0  0
 10 15  1  0  0  0
 10 11  1  0  0  0
 11 12  1  0  0  0
 11 43  1  0  0  0
 11 44  1  0  0  0
 12 13  1  0  0  0
 12 14  1  0  0  0
 12 21  1  0  0  0
 14 20  1  0  0  0
 14 15  1  0  0  0
 14 16  1  0  0  0
 15 45  1  0  0  0
 15 46  1  0  0  0
 16 17  1  0  0  0
 16 47  1  0  0  0
 16 48  1  0  0  0
 17 18  1  0  0  0
 17 49  1  0  0  0
 17 50  1  0  0  0
 18 19  1  0  0  0
 18 51  1  0  0  0
 18 66  1  0  0  0
 19 20  1  0  0  0
 19 52  1  0  0  0
 19 53  1  0  0  0
 20 54  1  0  0  0
 20 55  1  0  0  0
 21 22  2  0  0  0
 21 23  1  0  0  0
 23 24  1  0  0  0
 23 56  1  0  0  0
 24 25  1  0  0  0
 24 57  1  0  0  0
 24 58  1  0  0  0
 25 26  1  0  0  0
 25 27  1  0  0  0
 25 28  1  0  0  0
 27 59  1  0  0  0
 27 60  1  0  0  0
 27 61  1  0  0  0
 28 29  1  0  0  0
 29 34  2  0  0  0
 29 30  1  0  0  0
 30 31  2  0  0  0
 30 62  1  0  0  0
 31 32  1  0  0  0
 31 63  1  0  0  0
 32 33  2  0  0  0
 32 35  1  0  0  0
 33 34  1  0  0  0
 33 64  1  0  0  0
 34 65  1  0  0  0
M  CHG  1  18   1
M  END
> <i_i_glide_confnum>
276

> <i_i_glide_lignum>
2151

> <i_i_glide_posenum>
389

> <i_i_glide_rotatable_bonds>
8

> <i_m_Source_File_Index>
5192

> <b_m_subgroup_collapsed>
0

> <r_i_docking_score>
-4.62384

> <r_i_glide_ecoul>
-5.49993

> <r_i_glide_eff_state_penalty>
0

> <r_i_glide_einternal>
8.7001

> <r_i_glide_emodel>
-39.4512

> <r_i_glide_energy>
-34.9525

> <r_i_glide_erotb>
0.680346

> <r_i_glide_esite>
-0.163354

> <r_i_glide_evdw>
-29.4526

> <r_i_glide_gscore>
-4.62384

> <r_i_glide_hbond>
-0.2

> <r_i_glide_ligand_efficiency>
-0.140116

> <r_i_glide_ligand_efficiency_ln>
-1.02832

> <r_i_glide_ligand_efficiency_sa>
-0.449428

> <r_i_glide_lipo>
-1.80976

> <r_i_glide_metal>
0

> <r_i_glide_rewards>
-0.833448

> <s_i_glide_gridfile>
wee1_glide-grid

> <s_m_Source_File>
wee1_decoys_glide_SP.sdf

> <s_m_Source_Path>
/Users/zhangxujun/Desktop

> <s_m_entry_id>
5467

> <s_m_entry_name>
wee1_decoys_glide_SP.5192

> <s_m_subgroup_title>
wee1_decoys_glide_SP

> <s_m_subgroupid>
wee1_decoys_glide_SP


$$$$
