ZINC00673749_2073
                    3D
 Schrodinger Suite 2024-2.
 53 56  0  0  1  0            999 V2000
    2.8522   52.5015   30.8781 C   0  0  0  0  0  0
    3.9040   53.3774   30.4808 O   0  0  0  0  0  0
    4.0669   53.6518   29.1362 C   0  0  0  0  0  0
    5.2621   54.2534   28.7481 C   0  0  0  0  0  0
    5.5435   54.4966   27.4082 C   0  0  0  0  0  0
    4.6063   54.1613   26.4226 C   0  0  0  0  0  0
    3.3661   53.6139   26.7942 C   0  0  0  0  0  0
    3.1139   53.3566   28.1520 C   0  0  0  0  0  0
    2.4558   53.3328   25.7860 O   0  0  0  0  0  0
    1.2220   52.6991   26.1082 C   0  0  0  0  0  0
    4.8312   54.3382   25.0461 N   0  0  0  0  0  0
    5.9827   54.4970   24.3570 C   0  0  0  0  0  0
    7.1009   54.6496   24.8545 O   0  0  0  0  0  0
    5.7674   54.4967   22.9240 C   0  0  0  0  0  0
    4.7249   53.8310   22.2504 C   0  0  0  0  0  0
    4.8217   54.1944   20.9281 C   0  0  0  0  0  0
    5.9936   54.9210   20.8264 N   0  0  0  0  0  0
    6.5463   55.1025   22.0462 N   0  0  0  0  0  0
    6.4519   55.6473   19.6261 C   0  0  2  0  0  0
    6.1193   56.6782   19.7570 H   0  0  0  0  0  0
    5.7001   55.0609   18.4020 C   0  0  0  0  0  0
    4.2040   54.7796   18.6570 C   0  0  2  0  0  0
    3.6912   55.7162   18.8817 H   0  0  0  0  0  0
    4.0327   53.9160   19.8311 N   0  0  0  0  0  0
    3.5191   54.2568   17.3952 C   0  0  0  0  0  0
    3.5681   52.8970   17.0662 C   0  0  0  0  0  0
    2.9525   52.4342   15.9074 C   0  0  0  0  0  0
    2.2878   53.3303   15.0742 C   0  0  0  0  0  0
    2.2372   54.6862   15.3898 C   0  0  0  0  0  0
    2.8553   55.1509   16.5484 C   0  0  0  0  0  0
    1.6872   52.8822   13.9487 F   0  0  0  0  0  0
    7.9875   55.6967   19.3993 C   0  0  0  0  0  0
    8.2815   56.5522   18.4201 F   0  0  0  0  0  0
    8.6614   56.0922   20.4770 F   0  0  0  0  0  0
    8.4750   54.5124   19.0318 F   0  0  0  0  0  0
    2.9809   52.2243   31.9248 H   0  0  0  0  0  0
    2.8579   51.5839   30.2898 H   0  0  0  0  0  0
    1.8764   52.9799   30.7772 H   0  0  0  0  0  0
    6.0011   54.5175   29.4881 H   0  0  0  0  0  0
    6.4917   54.9484   27.1633 H   0  0  0  0  0  0
    2.1757   52.9173   28.4461 H   0  0  0  0  0  0
    0.6329   52.5715   25.2003 H   0  0  0  0  0  0
    1.3828   51.7102   26.5401 H   0  0  0  0  0  0
    0.6321   53.2966   26.8036 H   0  0  0  0  0  0
    3.9987   54.2149   24.4897 H   0  0  0  0  0  0
    3.9456   53.2179   22.6788 H   0  0  0  0  0  0
    5.8196   55.7329   17.5506 H   0  0  0  0  0  0
    6.1818   54.1349   18.0798 H   0  0  0  0  0  0
    3.0434   53.7857   19.9994 H   0  0  0  0  0  0
    4.0864   52.1920   17.7019 H   0  0  0  0  0  0
    2.9979   51.3826   15.6607 H   0  0  0  0  0  0
    1.7226   55.3734   14.7348 H   0  0  0  0  0  0
    2.8167   56.2049   16.7843 H   0  0  0  0  0  0
  1  2  1  0  0  0
  1 36  1  0  0  0
  1 37  1  0  0  0
  1 38  1  0  0  0
  2  3  1  0  0  0
  3  8  2  0  0  0
  3  4  1  0  0  0
  4  5  2  0  0  0
  4 39  1  0  0  0
  5  6  1  0  0  0
  5 40  1  0  0  0
  6  7  2  0  0  0
  6 11  1  0  0  0
  7  8  1  0  0  0
  7  9  1  0  0  0
  8 41  1  0  0  0
  9 10  1  0  0  0
 10 42  1  0  0  0
 10 43  1  0  0  0
 10 44  1  0  0  0
 11 12  1  0  0  0
 11 45  1  0  0  0
 12 13  2  0  0  0
 12 14  1  0  0  0
 14 18  2  0  0  0
 14 15  1  0  0  0
 15 16  2  0  0  0
 15 46  1  0  0  0
 16 24  1  0  0  0
 16 17  1  0  0  0
 17 18  1  0  0  0
 17 19  1  0  0  0
 19 20  1  0  0  0
 19 21  1  0  0  0
 19 32  1  0  0  0
 21 22  1  0  0  0
 21 47  1  0  0  0
 21 48  1  0  0  0
 22 23  1  0  0  0
 22 24  1  0  0  0
 22 25  1  0  0  0
 24 49  1  0  0  0
 25 30  2  0  0  0
 25 26  1  0  0  0
 26 27  2  0  0  0
 26 50  1  0  0  0
 27 28  1  0  0  0
 27 51  1  0  0  0
 28 29  2  0  0  0
 28 31  1  0  0  0
 29 30  1  0  0  0
 29 52  1  0  0  0
 30 53  1  0  0  0
 32 33  1  0  0  0
 32 34  1  0  0  0
 32 35  1  0  0  0
M  END
> <i_i_glide_confnum>
6

> <i_i_glide_lignum>
2074

> <i_i_glide_posenum>
341

> <i_i_glide_rotatable_bonds>
7

> <i_m_Source_File_Index>
5682

> <b_m_subgroup_collapsed>
0

> <r_i_docking_score>
-6.23269

> <r_i_glide_ecoul>
-3.49237

> <r_i_glide_eff_state_penalty>
0

> <r_i_glide_einternal>
7.62665

> <r_i_glide_emodel>
-56.6494

> <r_i_glide_energy>
-43.9251

> <r_i_glide_erotb>
0.373874

> <r_i_glide_esite>
-0.0120689

> <r_i_glide_evdw>
-40.4327

> <r_i_glide_gscore>
-6.23269

> <r_i_glide_hbond>
-0.514102

> <r_i_glide_ligand_efficiency>
-0.188869

> <r_i_glide_ligand_efficiency_ln>
-1.38612

> <r_i_glide_ligand_efficiency_sa>
-0.605805

> <r_i_glide_lipo>
-2.18398

> <r_i_glide_metal>
0

> <r_i_glide_rewards>
-1.35093

> <s_i_glide_gridfile>
wee1_glide-grid

> <s_m_Source_File>
wee1_decoys_glide_SP.sdf

> <s_m_Source_Path>
/Users/zhangxujun/Desktop

> <s_m_entry_id>
5957

> <s_m_entry_name>
wee1_decoys_glide_SP.5682

> <s_m_subgroup_title>
wee1_decoys_glide_SP

> <s_m_subgroupid>
wee1_decoys_glide_SP


$$$$
