ZINC12576372_4910
                    3D
 Schrodinger Suite 2024-2.
 60 64  0  0  1  0            999 V2000
    2.2570   49.1521   14.3468 C   0  0  0  0  0  0
    1.9678   50.2851   13.5298 O   0  0  0  0  0  0
    2.3946   51.5406   13.9314 C   0  0  0  0  0  0
    2.2274   52.6089   13.0368 C   0  0  0  0  0  0
    2.6479   53.8920   13.3810 C   0  0  0  0  0  0
    3.2379   54.1262   14.6215 C   0  0  0  0  0  0
    3.4110   53.0837   15.5441 C   0  0  0  0  0  0
    2.9787   51.8000   15.1848 C   0  0  0  0  0  0
    4.0348   53.2979   16.8578 C   0  0  0  0  0  0
    4.5249   54.4160   17.2301 N   0  0  0  0  0  0
    5.0936   54.5611   18.4999 C   0  0  0  0  0  0
    4.4314   54.1946   19.6816 C   0  0  0  0  0  0
    5.0301   54.4383   20.9354 C   0  0  0  0  0  0
    4.3977   54.0972   22.1087 N   0  3  0  0  0  0
    4.8962   54.3037   23.3751 C   0  0  0  0  0  0
    6.1834   54.8966   23.4839 C   0  0  0  0  0  0
    6.8674   55.2705   22.3047 C   0  0  0  0  0  0
    6.3045   55.0628   21.0267 C   0  0  0  0  0  0
    6.9491   55.4428   19.8268 C   0  0  0  0  0  0
    6.3320   55.2024   18.5997 C   0  0  0  0  0  0
    6.7046   55.1165   24.7753 C   0  0  0  0  0  0
    5.9735   54.7506   25.9012 C   0  0  0  0  0  0
    4.6938   54.2013   25.8056 C   0  0  0  0  0  0
    4.1560   53.9678   24.5283 C   0  0  0  0  0  0
    4.0781   53.7983   26.9940 N   0  0  0  0  0  0
    2.8395   54.0015   27.2060 C   0  0  0  0  0  0
    2.1638   53.6144   28.4460 C   0  0  0  0  0  0
    2.7781   52.7939   29.4041 C   0  0  0  0  0  0
    2.1487   52.4970   30.6221 C   0  0  0  0  0  0
    0.8715   53.0178   30.8658 C   0  0  0  0  0  0
    0.2313   53.7852   29.9000 C   0  0  0  0  0  0
    0.8758   54.0892   28.7064 C   0  0  0  0  0  0
    0.3044   52.8967   32.1046 O   0  0  0  0  0  0
    2.7211   51.7021   31.5959 O   0  0  0  0  0  0
    4.1331   51.6968   31.7310 C   0  0  0  0  0  0
    1.6567   52.4095   11.8030 O   0  0  0  0  0  0
    1.8778   48.2540   13.8601 H   0  0  0  0  0  0
    3.3323   49.0219   14.4817 H   0  0  0  0  0  0
    1.7774   49.2237   15.3242 H   0  0  0  0  0  0
    2.5280   54.7156   12.6902 H   0  0  0  0  0  0
    3.5619   55.1303   14.8609 H   0  0  0  0  0  0
    3.1044   50.9921   15.8915 H   0  0  0  0  0  0
    4.0587   52.4216   17.5027 H   0  0  0  0  0  0
    3.4511   53.7419   19.6380 H   0  0  0  0  0  0
    7.8411   55.7352   22.3830 H   0  0  0  0  0  0
    7.9192   55.9204   19.8603 H   0  0  0  0  0  0
    6.8303   55.5172   17.6934 H   0  0  0  0  0  0
    7.6804   55.5646   24.8820 H   0  0  0  0  0  0
    6.4044   54.9038   26.8814 H   0  0  0  0  0  0
    3.1872   53.5032   24.4182 H   0  0  0  0  0  0
    2.2078   54.4961   26.4731 H   0  0  0  0  0  0
    3.7596   52.3984   29.1891 H   0  0  0  0  0  0
   -0.7465   54.1985   30.0869 H   0  0  0  0  0  0
    0.3672   54.7370   28.0107 H   0  0  0  0  0  0
   -0.5511   52.4338   32.2336 H   0  0  0  0  0  0
    4.3839   50.9557   32.4835 H   0  0  0  0  0  0
    4.6687   51.4172   30.8273 H   0  0  0  0  0  0
    4.4879   52.6650   32.0808 H   0  0  0  0  0  0
    1.6116   53.2045   11.2679 H   0  0  0  0  0  0
    3.4839   53.6772   22.0260 H   0  0  0  0  0  0
  1  2  1  0  0  0
  1 37  1  0  0  0
  1 38  1  0  0  0
  1 39  1  0  0  0
  2  3  1  0  0  0
  3  8  2  0  0  0
  3  4  1  0  0  0
  4  5  2  0  0  0
  4 36  1  0  0  0
  5  6  1  0  0  0
  5 40  1  0  0  0
  6  7  2  0  0  0
  6 41  1  0  0  0
  7  8  1  0  0  0
  7  9  1  0  0  0
  8 42  1  0  0  0
  9 10  2  0  0  0
  9 43  1  0  0  0
 10 11  1  0  0  0
 11 20  2  0  0  0
 11 12  1  0  0  0
 12 13  2  0  0  0
 12 44  1  0  0  0
 13 18  1  0  0  0
 13 14  1  0  0  0
 14 15  2  0  0  0
 14 60  1  0  0  0
 15 24  1  0  0  0
 15 16  1  0  0  0
 16 17  2  0  0  0
 16 21  1  0  0  0
 17 18  1  0  0  0
 17 45  1  0  0  0
 18 19  2  0  0  0
 19 20  1  0  0  0
 19 46  1  0  0  0
 20 47  1  0  0  0
 21 22  2  0  0  0
 21 48  1  0  0  0
 22 23  1  0  0  0
 22 49  1  0  0  0
 23 24  2  0  0  0
 23 25  1  0  0  0
 24 50  1  0  0  0
 25 26  2  0  0  0
 26 27  1  0  0  0
 26 51  1  0  0  0
 27 32  2  0  0  0
 27 28  1  0  0  0
 28 29  2  0  0  0
 28 52  1  0  0  0
 29 30  1  0  0  0
 29 34  1  0  0  0
 30 31  2  0  0  0
 30 33  1  0  0  0
 31 32  1  0  0  0
 31 53  1  0  0  0
 32 54  1  0  0  0
 33 55  1  0  0  0
 34 35  1  0  0  0
 35 56  1  0  0  0
 35 57  1  0  0  0
 35 58  1  0  0  0
 36 59  1  0  0  0
M  CHG  1  14   1
M  END
> <i_i_glide_confnum>
38

> <i_i_glide_lignum>
4911

> <i_i_glide_posenum>
251

> <i_i_glide_rotatable_bonds>
8

> <i_m_Source_File_Index>
1572

> <b_m_subgroup_collapsed>
0

> <r_i_docking_score>
-6.4517

> <r_i_glide_ecoul>
-8.062

> <r_i_glide_eff_state_penalty>
0

> <r_i_glide_einternal>
6.49135

> <r_i_glide_emodel>
-64.3875

> <r_i_glide_energy>
-47.3502

> <r_i_glide_erotb>
0.354005

> <r_i_glide_esite>
-0.03982

> <r_i_glide_evdw>
-39.2882

> <r_i_glide_gscore>
-6.4517

> <r_i_glide_hbond>
-0.281083

> <r_i_glide_ligand_efficiency>
-0.179214

> <r_i_glide_ligand_efficiency_ln>
-1.40759

> <r_i_glide_ligand_efficiency_sa>
-0.591752

> <r_i_glide_lipo>
-2.89224

> <r_i_glide_metal>
0

> <r_i_glide_rewards>
-0.418851

> <s_i_glide_gridfile>
wee1_glide-grid

> <s_m_Source_File>
wee1_decoys_glide_SP.sdf

> <s_m_Source_Path>
/Users/zhangxujun/Desktop

> <s_m_entry_id>
1847

> <s_m_entry_name>
wee1_decoys_glide_SP.1572

> <s_m_subgroup_title>
wee1_decoys_glide_SP

> <s_m_subgroupid>
wee1_decoys_glide_SP


$$$$
