ZINC22058344_4231
                    3D
 Schrodinger Suite 2024-2.
 76 78  0  0  1  0            999 V2000
    4.9527   54.4259   24.4669 C   0  0  0  0  0  0
    3.6257   53.9985   25.0463 C   0  0  0  0  0  0
    2.5527   53.8132   24.3137 N   0  0  0  0  0  0
    1.5010   53.4285   25.0176 C   0  0  0  0  0  0
    1.7334   53.2919   26.3848 C   0  0  0  0  0  0
    3.3817   53.6981   26.7379 S   0  0  0  0  0  0
    0.2370   53.3161   24.2909 C   0  0  0  0  0  0
   -0.8881   52.6162   24.5746 C   0  0  0  0  0  0
   -0.9761   51.6601   25.7563 C   0  0  0  0  0  0
   -2.1239   52.7204   23.6625 C   0  0  2  0  0  0
   -1.8323   53.4142   22.8782 H   0  0  0  0  0  0
   -3.4323   53.3220   24.2355 C   0  0  0  0  0  0
   -4.0876   52.6067   25.4343 C   0  0  2  0  0  0
   -3.4619   52.5663   26.3230 H   0  0  0  0  0  0
   -5.2245   51.6234   25.2906 C   0  0  2  0  0  0
   -5.4250   52.9531   25.6995 O   0  0  0  0  0  0
   -5.3750   50.5432   26.3863 C   0  0  0  0  0  0
   -4.3704   49.3705   26.3423 C   0  0  0  0  0  0
   -4.3369   48.6061   25.0002 C   0  0  0  0  0  0
   -3.5331   47.2869   24.9608 C   0  0  1  0  0  0
   -3.7155   46.8457   23.9807 H   0  0  0  0  0  0
   -1.9973   47.5155   25.1088 C   0  0  2  0  0  0
   -1.8614   48.0368   26.0603 H   0  0  0  0  0  0
   -1.2533   48.3264   23.9777 C   0  0  2  0  0  0
   -1.7228   49.3009   23.9040 H   0  0  0  0  0  0
   -1.2999   47.6844   22.5476 C   0  0  0  0  0  0
   -1.7544   46.5443   22.4171 O   0  0  0  0  0  0
   -0.8625   48.4580   21.2445 C   0  0  0  0  0  0
   -2.1436   49.0513   20.5300 C   0  0  2  0  0  0
   -1.8195   49.6107   19.6488 H   0  0  0  0  0  0
   -3.0896   49.9519   21.3460 C   0  0  0  0  0  0
   -2.4964   51.2973   21.7421 C   0  0  0  0  0  0
   -2.0975   52.0965   20.8938 O   0  0  0  0  0  0
   -2.4641   51.4664   23.0806 O   0  0  0  0  0  0
   -2.9918   48.0332   20.0285 O   0  0  0  0  0  0
   -0.1862   47.4817   20.2269 C   0  0  0  0  0  0
    0.1662   49.5965   21.4864 C   0  0  0  0  0  0
    0.1965   48.5299   24.4775 C   0  0  0  0  0  0
   -1.3323   46.2763   25.2817 O   0  0  0  0  0  0
   -4.1034   46.2741   25.9845 C   0  0  0  0  0  0
   -5.8373   51.2458   23.9203 C   0  0  0  0  0  0
    5.2716   55.3878   24.8703 H   0  0  0  0  0  0
    4.9235   54.5174   23.3806 H   0  0  0  0  0  0
    5.7370   53.7051   24.6982 H   0  0  0  0  0  0
    1.0458   53.0233   27.1720 H   0  0  0  0  0  0
    0.2378   53.9184   23.3958 H   0  0  0  0  0  0
   -1.6858   50.8584   25.5648 H   0  0  0  0  0  0
   -0.0119   51.1940   25.9594 H   0  0  0  0  0  0
   -1.2872   52.1907   26.6556 H   0  0  0  0  0  0
   -3.2956   54.3701   24.4816 H   0  0  0  0  0  0
   -4.1412   53.3696   23.4164 H   0  0  0  0  0  0
   -5.2871   51.0194   27.3648 H   0  0  0  0  0  0
   -6.3918   50.1480   26.3614 H   0  0  0  0  0  0
   -4.6324   48.6883   27.1509 H   0  0  0  0  0  0
   -3.3744   49.7360   26.5868 H   0  0  0  0  0  0
   -3.9039   49.2655   24.2601 H   0  0  0  0  0  0
   -5.3581   48.4049   24.6735 H   0  0  0  0  0  0
   -3.4349   49.4202   22.2278 H   0  0  0  0  0  0
   -3.9851   50.1656   20.7630 H   0  0  0  0  0  0
   -2.4460   47.3455   19.6418 H   0  0  0  0  0  0
   -0.1659   47.9035   19.2194 H   0  0  0  0  0  0
    0.8565   47.2920   20.4811 H   0  0  0  0  0  0
   -0.6778   46.5095   20.1579 H   0  0  0  0  0  0
    0.3221   50.1855   20.5820 H   0  0  0  0  0  0
   -0.1181   50.2989   22.2662 H   0  0  0  0  0  0
    1.1488   49.2034   21.7536 H   0  0  0  0  0  0
    0.7779   49.2790   23.9521 H   0  0  0  0  0  0
    0.2265   48.8224   25.5278 H   0  0  0  0  0  0
    0.7127   47.5798   24.4083 H   0  0  0  0  0  0
   -0.6163   46.4239   25.9212 H   0  0  0  0  0  0
   -3.8529   46.5532   27.0093 H   0  0  0  0  0  0
   -5.1883   46.1967   25.9125 H   0  0  0  0  0  0
   -3.7039   45.2749   25.8255 H   0  0  0  0  0  0
   -5.1817   50.6293   23.3171 H   0  0  0  0  0  0
   -6.7726   50.7018   24.0456 H   0  0  0  0  0  0
   -6.0759   52.0989   23.2998 H   0  0  0  0  0  0
  1  2  1  0  0  0
  1 42  1  0  0  0
  1 43  1  0  0  0
  1 44  1  0  0  0
  2  6  1  0  0  0
  2  3  2  0  0  0
  3  4  1  0  0  0
  4  5  2  0  0  0
  4  7  1  0  0  0
  5  6  1  0  0  0
  5 45  1  0  0  0
  7  8  2  0  0  0
  7 46  1  0  0  0
  8  9  1  0  0  0
  8 10  1  0  0  0
  9 47  1  0  0  0
  9 48  1  0  0  0
  9 49  1  0  0  0
 10 11  1  0  0  0
 10 34  1  0  0  0
 10 12  1  0  0  0
 12 13  1  0  0  0
 12 50  1  0  0  0
 12 51  1  0  0  0
 13 14  1  0  0  0
 13 16  1  0  0  0
 13 15  1  0  0  0
 15 16  1  0  0  0
 15 17  1  0  0  0
 15 41  1  0  0  0
 17 18  1  0  0  0
 17 52  1  0  0  0
 17 53  1  0  0  0
 18 19  1  0  0  0
 18 54  1  0  0  0
 18 55  1  0  0  0
 19 20  1  0  0  0
 19 56  1  0  0  0
 19 57  1  0  0  0
 20 21  1  0  0  0
 20 22  1  0  0  0
 20 40  1  0  0  0
 22 23  1  0  0  0
 22 24  1  0  0  0
 22 39  1  0  0  0
 24 25  1  0  0  0
 24 26  1  0  0  0
 24 38  1  0  0  0
 26 27  2  0  0  0
 26 28  1  0  0  0
 28 29  1  0  0  0
 28 36  1  0  0  0
 28 37  1  0  0  0
 29 30  1  0  0  0
 29 31  1  0  0  0
 29 35  1  0  0  0
 31 32  1  0  0  0
 31 58  1  0  0  0
 31 59  1  0  0  0
 32 33  2  0  0  0
 32 34  1  0  0  0
 35 60  1  0  0  0
 36 61  1  0  0  0
 36 62  1  0  0  0
 36 63  1  0  0  0
 37 64  1  0  0  0
 37 65  1  0  0  0
 37 66  1  0  0  0
 38 67  1  0  0  0
 38 68  1  0  0  0
 38 69  1  0  0  0
 39 70  1  0  0  0
 40 71  1  0  0  0
 40 72  1  0  0  0
 40 73  1  0  0  0
 41 74  1  0  0  0
 41 75  1  0  0  0
 41 76  1  0  0  0
M  END
> <i_i_glide_confnum>
59

> <i_i_glide_lignum>
4232

> <i_i_glide_posenum>
346

> <i_i_glide_rotatable_bonds>
4

> <i_m_Source_File_Index>
4894

> <b_m_subgroup_collapsed>
0

> <r_i_docking_score>
-4.13503

> <r_i_glide_ecoul>
-8.44047

> <r_i_glide_eff_state_penalty>
0

> <r_i_glide_einternal>
8.14575

> <r_i_glide_emodel>
-33.5001

> <r_i_glide_energy>
-33.2585

> <r_i_glide_erotb>
0.158827

> <r_i_glide_esite>
-0.0114531

> <r_i_glide_evdw>
-24.8181

> <r_i_glide_gscore>
-4.13503

> <r_i_glide_hbond>
-0.195719

> <r_i_glide_ligand_efficiency>
-0.118144

> <r_i_glide_ligand_efficiency_ln>
-0.907731

> <r_i_glide_ligand_efficiency_sa>
-0.386456

> <r_i_glide_lipo>
-1.57828

> <r_i_glide_metal>
0

> <r_i_glide_rewards>
-0.00143302

> <s_i_glide_gridfile>
wee1_glide-grid

> <s_m_Source_File>
wee1_decoys_glide_SP.sdf

> <s_m_Source_Path>
/Users/zhangxujun/Desktop

> <s_m_entry_id>
5169

> <s_m_entry_name>
wee1_decoys_glide_SP.4894

> <s_m_subgroup_title>
wee1_decoys_glide_SP

> <s_m_subgroupid>
wee1_decoys_glide_SP


$$$$
