ZINC39930424_3828
                    3D
 Schrodinger Suite 2024-2.
 26 28  0  0  1  0            999 V2000
    0.6856   53.1443   30.2818 C   0  0  0  0  0  0
    0.5079   54.3847   30.8814 C   0  0  0  0  0  0
    1.4586   55.5756   30.0360 S   0  0  0  0  0  0
    1.9816   54.3099   28.9761 C   0  0  0  0  0  0
    1.4972   53.1190   29.2446 N   0  0  0  0  0  0
    2.8428   54.6127   27.9564 N   0  0  0  0  0  0
    3.3723   53.6634   27.0348 C   0  0  1  0  0  0
    3.5729   52.7001   27.5095 H   0  0  0  0  0  0
    2.4112   53.4568   25.8484 C   0  0  0  0  0  0
    3.2923   53.7893   24.6789 C   0  0  0  0  0  0
    4.5329   54.1447   25.1596 C   0  0  0  0  0  0
    5.5882   54.4961   24.3254 C   0  0  0  0  0  0
    5.3778   54.4749   22.9385 C   0  0  0  0  0  0
    4.1173   54.1071   22.4252 C   0  0  0  0  0  0
    3.0688   53.7731   23.3004 C   0  0  0  0  0  0
    1.5051   53.3412   22.6962 Cl  0  0  0  0  0  0
    3.9040   54.0960   21.0673 O   0  0  0  0  0  0
    6.6603   54.9303   21.8635 Cl  0  0  0  0  0  0
    7.1045   54.9586   25.0176 Cl  0  0  0  0  0  0
    4.6007   54.0751   26.5206 O   0  0  0  0  0  0
    0.2137   52.2268   30.6077 H   0  0  0  0  0  0
   -0.0935   54.6241   31.7430 H   0  0  0  0  0  0
    2.8523   55.5539   27.5928 H   0  0  0  0  0  0
    1.5308   54.0969   25.9120 H   0  0  0  0  0  0
    2.0656   52.4237   25.8383 H   0  0  0  0  0  0
    3.0102   54.3565   20.8110 H   0  0  0  0  0  0
  1  5  1  0  0  0
  1  2  2  0  0  0
  1 21  1  0  0  0
  2  3  1  0  0  0
  2 22  1  0  0  0
  3  4  1  0  0  0
  4  5  2  0  0  0
  4  6  1  0  0  0
  6  7  1  0  0  0
  6 23  1  0  0  0
  7  8  1  0  0  0
  7 20  1  0  0  0
  7  9  1  0  0  0
  9 10  1  0  0  0
  9 24  1  0  0  0
  9 25  1  0  0  0
 10 15  2  0  0  0
 10 11  1  0  0  0
 11 12  2  0  0  0
 11 20  1  0  0  0
 12 13  1  0  0  0
 12 19  1  0  0  0
 13 14  2  0  0  0
 13 18  1  0  0  0
 14 15  1  0  0  0
 14 17  1  0  0  0
 15 16  1  0  0  0
 17 26  1  0  0  0
M  END
> <i_i_glide_confnum>
2

> <i_i_glide_lignum>
3829

> <i_i_glide_posenum>
71

> <i_i_glide_rotatable_bonds>
3

> <i_m_Source_File_Index>
5324

> <b_m_subgroup_collapsed>
0

> <r_i_docking_score>
-6.48945

> <r_i_glide_ecoul>
-3.84699

> <r_i_glide_eff_state_penalty>
0

> <r_i_glide_einternal>
4.17658

> <r_i_glide_emodel>
-52.0845

> <r_i_glide_energy>
-38.7669

> <r_i_glide_erotb>
0.331661

> <r_i_glide_esite>
0

> <r_i_glide_evdw>
-34.9199

> <r_i_glide_gscore>
-6.48945

> <r_i_glide_hbond>
-0.32

> <r_i_glide_ligand_efficiency>
-0.34155

> <r_i_glide_ligand_efficiency_ln>
-1.64521

> <r_i_glide_ligand_efficiency_sa>
-0.911393

> <r_i_glide_lipo>
-2.78098

> <r_i_glide_metal>
0

> <r_i_glide_rewards>
-1.39708

> <s_i_glide_gridfile>
wee1_glide-grid

> <s_m_Source_File>
wee1_decoys_glide_SP.sdf

> <s_m_Source_Path>
/Users/zhangxujun/Desktop

> <s_m_entry_id>
5599

> <s_m_entry_name>
wee1_decoys_glide_SP.5324

> <s_m_subgroup_title>
wee1_decoys_glide_SP

> <s_m_subgroupid>
wee1_decoys_glide_SP


$$$$
