ZINC34899773_2472
                    3D
 Schrodinger Suite 2024-2.
 70 73  0  0  1  0            999 V2000
    3.7776   57.7797   16.4176 C   0  0  0  0  0  0
    4.9334   57.2094   17.2324 C   0  0  0  0  0  0
    5.9108   58.1012   17.6845 C   0  0  0  0  0  0
    6.9685   57.6638   18.4774 C   0  0  0  0  0  0
    7.0629   56.3205   18.8283 C   0  0  0  0  0  0
    6.1048   55.4154   18.3768 C   0  0  0  0  0  0
    5.0312   55.8378   17.5714 C   0  0  0  0  0  0
    4.0418   54.8122   17.0624 C   0  0  0  0  0  0
    3.6452   54.8187   15.8986 O   0  0  0  0  0  0
    3.6575   53.8967   17.9696 N   0  0  0  0  0  0
    2.7532   52.7631   17.7570 C   0  0  2  0  0  0
    3.1939   52.2006   16.9276 H   0  0  0  0  0  0
    1.3119   53.1541   17.3174 C   0  0  0  0  0  0
    0.3834   51.9352   17.1200 C   0  0  0  0  0  0
    0.4027   50.9705   18.3194 C   0  0  0  0  0  0
    1.8455   50.5617   18.6690 C   0  0  0  0  0  0
    2.7338   51.7896   18.9666 C   0  0  2  0  0  0
    3.7531   51.4225   19.1104 H   0  0  0  0  0  0
    2.3834   52.4974   20.2021 N   0  0  0  0  0  0
    2.7108   52.1193   21.4448 C   0  0  0  0  0  0
    3.3222   51.0751   21.6813 O   0  0  0  0  0  0
    2.3332   53.0996   22.5761 C   0  0  0  0  0  0
    1.5377   52.3675   23.6844 C   0  0  0  0  0  0
    1.2051   53.3625   24.8197 C   0  0  0  0  0  0
    2.4855   53.8528   25.3730 N   0  0  0  0  0  0
    3.3353   54.5762   24.4011 C   0  0  0  0  0  0
    3.6372   53.6741   23.1862 C   0  0  0  0  0  0
    2.8565   53.7994   26.6886 C   0  0  0  0  0  0
    3.9548   54.2042   27.0799 O   0  0  0  0  0  0
    1.8580   53.3472   27.7373 C   0  0  0  0  0  0
    1.2677   52.0769   27.6657 C   0  0  0  0  0  0
    0.3392   51.6681   28.6158 C   0  0  0  0  0  0
    0.0140   52.5004   29.6798 C   0  0  0  0  0  0
    0.6002   53.7605   29.7763 C   0  0  0  0  0  0
    1.5228   54.2047   28.8101 C   0  0  0  0  0  0
    2.1134   55.4584   28.8628 O   0  0  0  0  0  0
    1.7433   56.3802   29.8807 C   0  0  0  0  0  0
    3.8418   57.4575   15.3777 H   0  0  0  0  0  0
    2.8235   57.4342   16.8173 H   0  0  0  0  0  0
    3.7517   58.8711   16.4460 H   0  0  0  0  0  0
    5.8510   59.1502   17.4255 H   0  0  0  0  0  0
    7.7163   58.3691   18.8128 H   0  0  0  0  0  0
    7.8872   55.9750   19.4393 H   0  0  0  0  0  0
    6.2159   54.3722   18.6451 H   0  0  0  0  0  0
    3.9540   54.0380   18.9222 H   0  0  0  0  0  0
    0.8718   53.8005   18.0799 H   0  0  0  0  0  0
    1.3336   53.7322   16.3936 H   0  0  0  0  0  0
    0.6955   51.3961   16.2210 H   0  0  0  0  0  0
   -0.6373   52.2723   16.9265 H   0  0  0  0  0  0
   -0.1906   50.0850   18.0909 H   0  0  0  0  0  0
   -0.0683   51.4422   19.1805 H   0  0  0  0  0  0
    2.2799   49.9927   17.8460 H   0  0  0  0  0  0
    1.8458   49.8832   19.5263 H   0  0  0  0  0  0
    1.9024   53.3813   20.0828 H   0  0  0  0  0  0
    1.7297   53.8980   22.1352 H   0  0  0  0  0  0
    0.5804   52.0146   23.2989 H   0  0  0  0  0  0
    2.1021   51.5448   24.1338 H   0  0  0  0  0  0
    0.6874   54.2238   24.4047 H   0  0  0  0  0  0
    0.5226   52.9372   25.5510 H   0  0  0  0  0  0
    2.7456   55.4336   24.0770 H   0  0  0  0  0  0
    4.2640   54.9539   24.8318 H   0  0  0  0  0  0
    4.3130   52.9050   23.5530 H   0  0  0  0  0  0
    4.1559   54.3102   22.4656 H   0  0  0  0  0  0
    1.5037   51.4042   26.8543 H   0  0  0  0  0  0
   -0.1229   50.6917   28.5345 H   0  0  0  0  0  0
   -0.6891   52.1695   30.4300 H   0  0  0  0  0  0
    0.3148   54.3812   30.6123 H   0  0  0  0  0  0
    2.3159   57.2959   29.7740 H   0  0  0  0  0  0
    0.7006   56.6620   29.7906 H   0  0  0  0  0  0
    1.9151   55.9891   30.8817 H   0  0  0  0  0  0
  1  2  1  0  0  0
  1 38  1  0  0  0
  1 39  1  0  0  0
  1 40  1  0  0  0
  2  7  2  0  0  0
  2  3  1  0  0  0
  3  4  2  0  0  0
  3 41  1  0  0  0
  4  5  1  0  0  0
  4 42  1  0  0  0
  5  6  2  0  0  0
  5 43  1  0  0  0
  6  7  1  0  0  0
  6 44  1  0  0  0
  7  8  1  0  0  0
  8  9  2  0  0  0
  8 10  1  0  0  0
 10 11  1  0  0  0
 10 45  1  0  0  0
 11 12  1  0  0  0
 11 17  1  0  0  0
 11 13  1  0  0  0
 13 14  1  0  0  0
 13 46  1  0  0  0
 13 47  1  0  0  0
 14 15  1  0  0  0
 14 48  1  0  0  0
 14 49  1  0  0  0
 15 16  1  0  0  0
 15 50  1  0  0  0
 15 51  1  0  0  0
 16 17  1  0  0  0
 16 52  1  0  0  0
 16 53  1  0  0  0
 17 18  1  0  0  0
 17 19  1  0  0  0
 19 20  1  0  0  0
 19 54  1  0  0  0
 20 21  2  0  0  0
 20 22  1  0  0  0
 22 27  1  0  0  0
 22 23  1  0  0  0
 22 55  1  0  0  0
 23 24  1  0  0  0
 23 56  1  0  0  0
 23 57  1  0  0  0
 24 25  1  0  0  0
 24 58  1  0  0  0
 24 59  1  0  0  0
 25 26  1  0  0  0
 25 28  1  0  0  0
 26 27  1  0  0  0
 26 60  1  0  0  0
 26 61  1  0  0  0
 27 62  1  0  0  0
 27 63  1  0  0  0
 28 29  2  0  0  0
 28 30  1  0  0  0
 30 35  2  0  0  0
 30 31  1  0  0  0
 31 32  2  0  0  0
 31 64  1  0  0  0
 32 33  1  0  0  0
 32 65  1  0  0  0
 33 34  2  0  0  0
 33 66  1  0  0  0
 34 35  1  0  0  0
 34 67  1  0  0  0
 35 36  1  0  0  0
 36 37  1  0  0  0
 37 68  1  0  0  0
 37 69  1  0  0  0
 37 70  1  0  0  0
M  END
> <i_i_glide_confnum>
209

> <i_i_glide_lignum>
2473

> <i_i_glide_posenum>
395

> <i_i_glide_rotatable_bonds>
9

> <i_m_Source_File_Index>
1985

> <b_m_subgroup_collapsed>
0

> <r_i_docking_score>
-5.43055

> <r_i_glide_ecoul>
-5.90328

> <r_i_glide_eff_state_penalty>
0

> <r_i_glide_einternal>
4.47297

> <r_i_glide_emodel>
-61.6676

> <r_i_glide_energy>
-46.765

> <r_i_glide_erotb>
0.710514

> <r_i_glide_esite>
-0.0355646

> <r_i_glide_evdw>
-40.8617

> <r_i_glide_gscore>
-5.43055

> <r_i_glide_hbond>
-0.32

> <r_i_glide_ligand_efficiency>
-0.155159

> <r_i_glide_ligand_efficiency_ln>
-1.19213

> <r_i_glide_ligand_efficiency_sa>
-0.507534

> <r_i_glide_lipo>
-2.06723

> <r_i_glide_metal>
0

> <r_i_glide_rewards>
-0.789691

> <s_i_glide_gridfile>
wee1_glide-grid

> <s_m_Source_File>
wee1_decoys_glide_SP.sdf

> <s_m_Source_Path>
/Users/zhangxujun/Desktop

> <s_m_entry_id>
2260

> <s_m_entry_name>
wee1_decoys_glide_SP.1985

> <s_m_subgroup_title>
wee1_decoys_glide_SP

> <s_m_subgroupid>
wee1_decoys_glide_SP


$$$$
