ZINC25596978_1531
                    3D
 Schrodinger Suite 2024-2.
 46 49  0  0  1  0            999 V2000
    3.8700   53.4558   22.3670 C   0  0  0  0  0  0
    5.1176   54.1923   21.8938 C   0  0  0  0  0  0
    5.3759   54.3484   20.4806 C   0  0  0  0  0  0
    4.7457   53.8451   19.3078 C   0  0  0  0  0  0
    5.1717   54.2030   18.0667 N   0  0  0  0  0  0
    6.2292   55.0427   17.9914 C   0  0  0  0  0  0
    6.9388   55.5604   19.0213 N   0  0  0  0  0  0
    6.4956   55.1934   20.2261 C   0  0  0  0  0  0
    7.2864   55.6967   21.6828 S   0  0  0  0  0  0
    6.1339   54.8005   22.6710 C   0  0  0  0  0  0
    6.3046   54.8973   24.1234 C   0  0  0  0  0  0
    7.0927   55.6966   24.6353 O   0  0  0  0  0  0
    5.5138   54.0933   24.8537 N   0  0  0  0  0  0
    5.6252   54.0958   26.2478 N   0  0  0  0  0  0
    4.5326   54.4332   26.9673 C   0  0  0  0  0  0
    3.5048   54.8930   26.4607 O   0  0  0  0  0  0
    4.6341   54.2407   28.5066 C   0  0  2  0  0  0
    5.5468   54.7547   28.8126 H   0  0  0  0  0  0
    4.6624   52.7356   28.8950 C   0  0  0  0  0  0
    3.4561   52.0967   28.4853 O   0  0  0  0  0  0
    2.3382   52.7551   28.9425 C   0  0  0  0  0  0
    1.1658   52.0155   29.0700 C   0  0  0  0  0  0
    0.0033   52.6457   29.5077 C   0  0  0  0  0  0
    0.0185   54.0113   29.7997 C   0  0  0  0  0  0
    1.1905   54.7590   29.6689 C   0  0  0  0  0  0
    2.3555   54.1316   29.2342 C   0  0  0  0  0  0
    3.5148   54.8888   29.1572 O   0  0  0  0  0  0
    6.6853   55.4319   16.5989 C   0  0  0  0  0  0
    3.5936   52.8514   19.2769 C   0  0  0  0  0  0
    3.6078   53.5870   23.4123 H   0  0  0  0  0  0
    2.9893   53.8187   21.8386 H   0  0  0  0  0  0
    3.9387   52.3853   22.1821 H   0  0  0  0  0  0
    5.1356   53.2313   24.4894 H   0  0  0  0  0  0
    6.3597   53.4953   26.5956 H   0  0  0  0  0  0
    5.5294   52.2213   28.4816 H   0  0  0  0  0  0
    4.7244   52.6467   29.9800 H   0  0  0  0  0  0
    1.1534   50.9602   28.8310 H   0  0  0  0  0  0
   -0.9092   52.0763   29.6103 H   0  0  0  0  0  0
   -0.8941   54.4953   30.1066 H   0  0  0  0  0  0
    1.1965   55.8147   29.8979 H   0  0  0  0  0  0
    7.1310   56.4268   16.5918 H   0  0  0  0  0  0
    7.4254   54.7201   16.2351 H   0  0  0  0  0  0
    5.8486   55.4479   15.8977 H   0  0  0  0  0  0
    3.8429   51.9637   19.8582 H   0  0  0  0  0  0
    3.3708   52.5069   18.2641 H   0  0  0  0  0  0
    2.6845   53.2968   19.6758 H   0  0  0  0  0  0
  1  2  1  0  0  0
  1 30  1  0  0  0
  1 31  1  0  0  0
  1 32  1  0  0  0
  2 10  2  0  0  0
  2  3  1  0  0  0
  3  8  2  0  0  0
  3  4  1  0  0  0
  4  5  2  0  0  0
  4 29  1  0  0  0
  5  6  1  0  0  0
  6  7  2  0  0  0
  6 28  1  0  0  0
  7  8  1  0  0  0
  8  9  1  0  0  0
  9 10  1  0  0  0
 10 11  1  0  0  0
 11 12  2  0  0  0
 11 13  1  0  0  0
 13 14  1  0  0  0
 13 33  1  0  0  0
 14 15  1  0  0  0
 14 34  1  0  0  0
 15 16  2  0  0  0
 15 17  1  0  0  0
 17 18  1  0  0  0
 17 27  1  0  0  0
 17 19  1  0  0  0
 19 20  1  0  0  0
 19 35  1  0  0  0
 19 36  1  0  0  0
 20 21  1  0  0  0
 21 26  2  0  0  0
 21 22  1  0  0  0
 22 23  2  0  0  0
 22 37  1  0  0  0
 23 24  1  0  0  0
 23 38  1  0  0  0
 24 25  2  0  0  0
 24 39  1  0  0  0
 25 26  1  0  0  0
 25 40  1  0  0  0
 26 27  1  0  0  0
 28 41  1  0  0  0
 28 42  1  0  0  0
 28 43  1  0  0  0
 29 44  1  0  0  0
 29 45  1  0  0  0
 29 46  1  0  0  0
M  END
> <i_i_glide_confnum>
22

> <i_i_glide_lignum>
1532

> <i_i_glide_posenum>
3

> <i_i_glide_rotatable_bonds>
5

> <i_m_Source_File_Index>
604

> <b_m_subgroup_collapsed>
0

> <r_i_docking_score>
-6.18064

> <r_i_glide_ecoul>
-3.7671

> <r_i_glide_eff_state_penalty>
0

> <r_i_glide_einternal>
2.61671

> <r_i_glide_emodel>
-64.578

> <r_i_glide_energy>
-46.37

> <r_i_glide_erotb>
0.493466

> <r_i_glide_esite>
0

> <r_i_glide_evdw>
-42.6029

> <r_i_glide_gscore>
-6.18064

> <r_i_glide_hbond>
-0.208012

> <r_i_glide_ligand_efficiency>
-0.220737

> <r_i_glide_ligand_efficiency_ln>
-1.42667

> <r_i_glide_ligand_efficiency_sa>
-0.670288

> <r_i_glide_lipo>
-2.3018

> <r_i_glide_metal>
0

> <r_i_glide_rewards>
-1.46909

> <s_i_glide_gridfile>
wee1_glide-grid

> <s_m_Source_File>
wee1_decoys_glide_SP.sdf

> <s_m_Source_Path>
/Users/zhangxujun/Desktop

> <s_m_entry_id>
879

> <s_m_entry_name>
wee1_decoys_glide_SP.604

> <s_m_subgroup_title>
wee1_decoys_glide_SP

> <s_m_subgroupid>
wee1_decoys_glide_SP


$$$$
