ZINC00626669_5986
                    3D
 Schrodinger Suite 2024-2.
 62 65  0  0  1  0            999 V2000
   -1.6348   51.2585   30.0818 C   0  0  0  0  0  0
   -1.8382   51.4580   28.5874 C   0  0  0  0  0  0
   -0.9904   52.0606   27.7070 C   0  0  0  0  0  0
   -1.4228   52.2661   26.2231 C   0  0  2  0  0  0
   -1.2900   53.2967   25.9288 H   0  0  0  0  0  0
   -2.9321   51.9647   26.0051 C   0  0  0  0  0  0
   -3.6772   51.3911   26.9849 C   0  0  0  0  0  0
   -3.1049   51.0850   28.1968 N   0  0  0  0  0  0
   -5.1319   50.9527   26.8014 C   0  0  0  0  0  0
   -5.4508   50.6551   25.3064 C   0  0  0  0  0  0
   -4.9980   51.8826   24.4670 C   0  0  0  0  0  0
   -3.5345   52.3082   24.6952 C   0  0  0  0  0  0
   -2.9667   53.0400   23.8845 O   0  0  0  0  0  0
   -4.7126   49.3778   24.8260 C   0  0  0  0  0  0
   -6.9818   50.5298   25.1600 C   0  0  0  0  0  0
   -0.5258   51.5451   25.2120 C   0  0  0  0  0  0
    0.4279   52.2178   24.4367 C   0  0  0  0  0  0
    1.2198   51.5249   23.5037 C   0  0  0  0  0  0
    1.0079   50.1463   23.3356 C   0  0  0  0  0  0
    0.0080   49.4946   24.0656 C   0  0  0  0  0  0
   -0.7103   50.1784   25.0301 C   0  0  0  0  0  0
   -0.4956   47.6958   23.7319 Br  0  0  0  0  0  0
    1.7663   49.4300   22.4451 O   0  0  0  0  0  0
    2.1988   52.1291   22.7326 O   0  0  0  0  0  0
    2.4011   53.5360   22.8227 C   0  0  0  0  0  0
    0.3754   52.5115   28.1191 C   0  0  0  0  0  0
    0.9040   52.2284   29.1973 O   0  0  0  0  0  0
    0.9862   53.2964   27.1923 O   0  0  0  0  0  0
    2.2254   53.9852   27.3810 C   0  0  0  0  0  0
    2.2384   55.0398   28.5063 C   0  0  0  0  0  0
    3.5212   54.7626   29.3020 C   0  0  0  0  0  0
    4.4355   53.9845   28.3528 C   0  0  0  0  0  0
    3.4800   53.1136   27.5337 C   0  0  0  0  0  0
   -0.8956   50.4967   30.2501 H   0  0  0  0  0  0
   -1.2952   52.1660   30.5761 H   0  0  0  0  0  0
   -2.5263   50.8967   30.6001 H   0  0  0  0  0  0
   -3.5488   50.3745   28.7609 H   0  0  0  0  0  0
   -5.3184   50.0222   27.3420 H   0  0  0  0  0  0
   -5.7628   51.7313   27.2335 H   0  0  0  0  0  0
   -5.1688   51.7409   23.4004 H   0  0  0  0  0  0
   -5.5927   52.7451   24.7692 H   0  0  0  0  0  0
   -4.9124   49.1818   23.7717 H   0  0  0  0  0  0
   -3.6315   49.4383   24.9412 H   0  0  0  0  0  0
   -5.0430   48.5005   25.3834 H   0  0  0  0  0  0
   -7.2689   50.3497   24.1231 H   0  0  0  0  0  0
   -7.3698   49.6988   25.7506 H   0  0  0  0  0  0
   -7.5003   51.4321   25.4881 H   0  0  0  0  0  0
    0.5500   53.2803   24.5772 H   0  0  0  0  0  0
   -1.4513   49.6495   25.6132 H   0  0  0  0  0  0
    1.7894   48.4996   22.6798 H   0  0  0  0  0  0
    3.1955   53.8291   22.1369 H   0  0  0  0  0  0
    1.5048   54.0898   22.5387 H   0  0  0  0  0  0
    2.7064   53.8349   23.8266 H   0  0  0  0  0  0
    2.3398   54.4967   26.4271 H   0  0  0  0  0  0
    1.3664   54.9760   29.1589 H   0  0  0  0  0  0
    2.2506   56.0438   28.0827 H   0  0  0  0  0  0
    3.2904   54.1412   30.1679 H   0  0  0  0  0  0
    3.9869   55.6802   29.6633 H   0  0  0  0  0  0
    5.1833   53.3939   28.8847 H   0  0  0  0  0  0
    4.9700   54.6760   27.6982 H   0  0  0  0  0  0
    3.9230   52.8966   26.5620 H   0  0  0  0  0  0
    3.2709   52.1702   28.0391 H   0  0  0  0  0  0
  1  2  1  0  0  0
  1 34  1  0  0  0
  1 35  1  0  0  0
  1 36  1  0  0  0
  2  8  1  0  0  0
  2  3  2  0  0  0
  3  4  1  0  0  0
  3 26  1  0  0  0
  4  5  1  0  0  0
  4  6  1  0  0  0
  4 16  1  0  0  0
  6 12  1  0  0  0
  6  7  2  0  0  0
  7  8  1  0  0  0
  7  9  1  0  0  0
  8 37  1  0  0  0
  9 10  1  0  0  0
  9 38  1  0  0  0
  9 39  1  0  0  0
 10 11  1  0  0  0
 10 14  1  0  0  0
 10 15  1  0  0  0
 11 12  1  0  0  0
 11 40  1  0  0  0
 11 41  1  0  0  0
 12 13  2  0  0  0
 14 42  1  0  0  0
 14 43  1  0  0  0
 14 44  1  0  0  0
 15 45  1  0  0  0
 15 46  1  0  0  0
 15 47  1  0  0  0
 16 21  2  0  0  0
 16 17  1  0  0  0
 17 18  2  0  0  0
 17 48  1  0  0  0
 18 19  1  0  0  0
 18 24  1  0  0  0
 19 20  2  0  0  0
 19 23  1  0  0  0
 20 21  1  0  0  0
 20 22  1  0  0  0
 21 49  1  0  0  0
 23 50  1  0  0  0
 24 25  1  0  0  0
 25 51  1  0  0  0
 25 52  1  0  0  0
 25 53  1  0  0  0
 26 27  2  0  0  0
 26 28  1  0  0  0
 28 29  1  0  0  0
 29 33  1  0  0  0
 29 30  1  0  0  0
 29 54  1  0  0  0
 30 31  1  0  0  0
 30 55  1  0  0  0
 30 56  1  0  0  0
 31 32  1  0  0  0
 31 57  1  0  0  0
 31 58  1  0  0  0
 32 33  1  0  0  0
 32 59  1  0  0  0
 32 60  1  0  0  0
 33 61  1  0  0  0
 33 62  1  0  0  0
M  END
> <i_i_glide_confnum>
88

> <i_i_glide_lignum>
5987

> <i_i_glide_posenum>
177

> <i_i_glide_rotatable_bonds>
6

> <i_m_Source_File_Index>
5285

> <b_m_subgroup_collapsed>
0

> <r_i_docking_score>
-3.4008

> <r_i_glide_ecoul>
-3.11041

> <r_i_glide_eff_state_penalty>
0

> <r_i_glide_einternal>
8.88098

> <r_i_glide_emodel>
-34.1939

> <r_i_glide_energy>
-32.7363

> <r_i_glide_erotb>
0.321444

> <r_i_glide_esite>
-0.08953

> <r_i_glide_evdw>
-29.6259

> <r_i_glide_gscore>
-3.4008

> <r_i_glide_hbond>
0

> <r_i_glide_ligand_efficiency>
-0.106275

> <r_i_glide_ligand_efficiency_ln>
-0.761531

> <r_i_glide_ligand_efficiency_sa>
-0.337402

> <r_i_glide_lipo>
-1.47312

> <r_i_glide_metal>
0

> <r_i_glide_rewards>
-0.211733

> <s_i_glide_gridfile>
wee1_glide-grid

> <s_m_Source_File>
wee1_decoys_glide_SP.sdf

> <s_m_Source_Path>
/Users/zhangxujun/Desktop

> <s_m_entry_id>
5560

> <s_m_entry_name>
wee1_decoys_glide_SP.5285

> <s_m_subgroup_title>
wee1_decoys_glide_SP

> <s_m_subgroupid>
wee1_decoys_glide_SP


$$$$
