ZINC14849231_3612
                    3D
 Schrodinger Suite 2024-2.
 57 60  0  0  1  0            999 V2000
    2.0811   56.5170   15.9161 C   0  0  0  0  0  0
    2.3326   57.8846   15.8222 C   0  0  0  0  0  0
    3.5280   58.4072   16.3113 C   0  0  0  0  0  0
    4.4764   57.5601   16.8893 C   0  0  0  0  0  0
    4.2390   56.1814   16.9698 C   0  0  0  0  0  0
    3.0305   55.6710   16.4897 C   0  0  0  0  0  0
    5.3269   55.3205   17.5948 C   0  0  0  0  0  0
    6.0320   56.0727   18.7632 C   0  0  2  0  0  0
    5.2862   56.2128   19.5451 H   0  0  0  0  0  0
    6.4478   57.5281   18.3719 C   0  0  0  0  0  0
    7.3773   58.1476   18.8814 O   0  0  0  0  0  0
    5.6358   58.0969   17.4561 N   0  0  0  0  0  0
    7.2375   55.2597   19.3363 C   0  0  0  0  0  0
    7.5153   55.4306   20.8571 C   0  0  0  0  0  0
    6.4162   54.8972   21.7951 C   0  0  0  0  0  0
    5.3773   54.4472   21.3150 O   0  0  0  0  0  0
    6.7042   54.9211   23.1156 N   0  0  0  0  0  0
    5.8703   54.5775   24.2027 C   0  0  0  0  0  0
    6.4542   54.5817   25.4714 C   0  0  0  0  0  0
    5.6942   54.3147   26.6084 C   0  0  0  0  0  0
    4.3324   54.0381   26.4903 C   0  0  0  0  0  0
    3.7185   54.0124   25.2273 C   0  0  0  0  0  0
    4.4975   54.2955   24.0984 C   0  0  0  0  0  0
    2.2523   53.6969   25.0446 C   0  0  0  0  0  0
    1.6486   54.1661   24.0778 O   0  0  0  0  0  0
    1.6984   52.8958   25.9816 N   0  0  0  0  0  0
    0.3806   52.4065   26.0658 C   0  0  0  0  0  0
    0.0187   51.7921   27.2679 C   0  0  0  0  0  0
   -1.2723   51.2977   27.4475 C   0  0  0  0  0  0
   -2.2159   51.4051   26.4283 C   0  0  0  0  0  0
   -1.8774   52.0120   25.2126 C   0  0  0  0  0  0
   -0.5745   52.4968   25.0355 C   0  0  0  0  0  0
   -2.9086   52.1534   24.0931 C   0  0  0  0  0  0
   -3.8337   51.1931   24.1554 F   0  0  0  0  0  0
   -3.5154   53.3343   24.2108 F   0  0  0  0  0  0
   -2.3353   52.0962   22.8889 F   0  0  0  0  0  0
    1.1515   56.1108   15.5443 H   0  0  0  0  0  0
    1.5967   58.5449   15.3908 H   0  0  0  0  0  0
    3.7012   59.4712   16.2612 H   0  0  0  0  0  0
    2.8285   54.6113   16.5562 H   0  0  0  0  0  0
    4.9049   54.3775   17.9493 H   0  0  0  0  0  0
    6.0548   55.0656   16.8224 H   0  0  0  0  0  0
    5.8526   59.0709   17.2821 H   0  0  0  0  0  0
    7.0781   54.1946   19.1506 H   0  0  0  0  0  0
    8.1467   55.4912   18.7746 H   0  0  0  0  0  0
    8.4355   54.8986   21.0998 H   0  0  0  0  0  0
    7.7003   56.4772   21.0879 H   0  0  0  0  0  0
    7.6451   55.2007   23.3612 H   0  0  0  0  0  0
    7.5044   54.7898   25.5771 H   0  0  0  0  0  0
    6.1558   54.3248   27.5861 H   0  0  0  0  0  0
    3.7634   53.8458   27.3896 H   0  0  0  0  0  0
    4.0004   54.3017   23.1414 H   0  0  0  0  0  0
    2.3129   52.5975   26.7210 H   0  0  0  0  0  0
    0.7298   51.6937   28.0758 H   0  0  0  0  0  0
   -1.5397   50.8189   28.3773 H   0  0  0  0  0  0
   -3.2099   51.0122   26.5911 H   0  0  0  0  0  0
   -0.3296   52.9462   24.0873 H   0  0  0  0  0  0
  1  6  2  0  0  0
  1  2  1  0  0  0
  1 37  1  0  0  0
  2  3  2  0  0  0
  2 38  1  0  0  0
  3  4  1  0  0  0
  3 39  1  0  0  0
  4 12  1  0  0  0
  4  5  2  0  0  0
  5  6  1  0  0  0
  5  7  1  0  0  0
  6 40  1  0  0  0
  7  8  1  0  0  0
  7 41  1  0  0  0
  7 42  1  0  0  0
  8  9  1  0  0  0
  8 10  1  0  0  0
  8 13  1  0  0  0
 10 11  2  0  0  0
 10 12  1  0  0  0
 12 43  1  0  0  0
 13 14  1  0  0  0
 13 44  1  0  0  0
 13 45  1  0  0  0
 14 15  1  0  0  0
 14 46  1  0  0  0
 14 47  1  0  0  0
 15 16  2  0  0  0
 15 17  1  0  0  0
 17 18  1  0  0  0
 17 48  1  0  0  0
 18 23  2  0  0  0
 18 19  1  0  0  0
 19 20  2  0  0  0
 19 49  1  0  0  0
 20 21  1  0  0  0
 20 50  1  0  0  0
 21 22  2  0  0  0
 21 51  1  0  0  0
 22 23  1  0  0  0
 22 24  1  0  0  0
 23 52  1  0  0  0
 24 25  2  0  0  0
 24 26  1  0  0  0
 26 27  1  0  0  0
 26 53  1  0  0  0
 27 32  2  0  0  0
 27 28  1  0  0  0
 28 29  2  0  0  0
 28 54  1  0  0  0
 29 30  1  0  0  0
 29 55  1  0  0  0
 30 31  2  0  0  0
 30 56  1  0  0  0
 31 32  1  0  0  0
 31 33  1  0  0  0
 32 57  1  0  0  0
 33 34  1  0  0  0
 33 35  1  0  0  0
 33 36  1  0  0  0
M  END
> <i_i_glide_confnum>
48

> <i_i_glide_lignum>
3613

> <i_i_glide_posenum>
243

> <i_i_glide_rotatable_bonds>
9

> <i_m_Source_File_Index>
3420

> <b_m_subgroup_collapsed>
0

> <r_i_docking_score>
-5.91122

> <r_i_glide_ecoul>
-4.00136

> <r_i_glide_eff_state_penalty>
0

> <r_i_glide_einternal>
5.16867

> <r_i_glide_emodel>
-63.7469

> <r_i_glide_energy>
-47.0943

> <r_i_glide_erotb>
0.612595

> <r_i_glide_esite>
-0.063554

> <r_i_glide_evdw>
-43.093

> <r_i_glide_gscore>
-5.91122

> <r_i_glide_hbond>
-0.375729

> <r_i_glide_ligand_efficiency>
-0.168892

> <r_i_glide_ligand_efficiency_ln>
-1.29764

> <r_i_glide_ligand_efficiency_sa>
-0.552457

> <r_i_glide_lipo>
-2.12388

> <r_i_glide_metal>
0

> <r_i_glide_rewards>
-1.2058

> <s_i_glide_gridfile>
wee1_glide-grid

> <s_m_Source_File>
wee1_decoys_glide_SP.sdf

> <s_m_Source_Path>
/Users/zhangxujun/Desktop

> <s_m_entry_id>
3695

> <s_m_entry_name>
wee1_decoys_glide_SP.3420

> <s_m_subgroup_title>
wee1_decoys_glide_SP

> <s_m_subgroupid>
wee1_decoys_glide_SP


$$$$
