ZINC10840899_2656
                    3D
 Schrodinger Suite 2024-2.
 52 55  0  0  1  0            999 V2000
    5.6126   54.9562   20.5156 C   0  0  0  0  0  0
    4.5867   53.8344   20.8028 C   0  0  0  0  0  0
    5.1948   52.4330   20.5610 C   0  0  0  0  0  0
    3.8011   53.9697   22.1498 C   0  0  2  0  0  0
    3.2203   54.8929   22.0632 H   0  0  0  0  0  0
    4.6607   54.1003   23.4176 C   0  0  0  0  0  0
    6.0441   54.0192   23.6183 C   0  0  0  0  0  0
    6.4699   54.2832   24.9201 C   0  0  0  0  0  0
    5.4281   54.5558   25.7791 C   0  0  0  0  0  0
    3.9114   54.4965   24.9543 S   0  0  0  0  0  0
    2.8775   52.8398   22.2791 N   0  0  0  0  0  0
    1.6651   52.8250   22.8487 C   0  0  0  0  0  0
    1.1056   53.8249   23.3021 O   0  0  0  0  0  0
    1.0391   51.4211   22.9162 C   0  0  0  0  0  0
   -0.2112   51.3820   23.6985 N   0  0  0  0  0  0
   -1.4297   51.5663   23.1480 C   0  0  0  0  0  0
   -1.7070   51.7611   21.9595 O   0  0  0  0  0  0
   -2.4220   51.5297   24.3088 C   0  0  1  0  0  0
   -3.2637   52.8302   24.2742 C   0  0  0  0  0  0
   -4.4621   52.7101   25.2246 C   0  0  0  0  0  0
   -5.3209   51.6650   24.7654 O   0  0  0  0  0  0
   -4.7143   50.4381   24.5515 C   0  0  0  0  0  0
   -3.3353   50.2875   24.2869 C   0  0  0  0  0  0
   -2.8565   48.9801   24.0853 C   0  0  0  0  0  0
   -3.7142   47.8811   24.1077 C   0  0  0  0  0  0
   -5.0734   48.0604   24.3437 C   0  0  0  0  0  0
   -5.5732   49.3410   24.5643 C   0  0  0  0  0  0
   -1.4911   51.4971   25.4064 N   0  0  0  0  0  0
   -0.2152   51.3099   25.0530 C   0  0  0  0  0  0
    0.7022   50.9471   25.7885 O   0  0  0  0  0  0
    6.5706   54.7989   21.0059 H   0  0  0  0  0  0
    5.8259   55.0173   19.4477 H   0  0  0  0  0  0
    5.2533   55.9325   20.8268 H   0  0  0  0  0  0
    3.8291   53.9488   20.0234 H   0  0  0  0  0  0
    5.7802   52.0964   21.4154 H   0  0  0  0  0  0
    4.4191   51.6848   20.3858 H   0  0  0  0  0  0
    5.8374   52.4226   19.6800 H   0  0  0  0  0  0
    6.7506   53.7699   22.8436 H   0  0  0  0  0  0
    7.5041   54.2605   25.2218 H   0  0  0  0  0  0
    5.4720   54.7810   26.8335 H   0  0  0  0  0  0
    3.2896   51.9414   22.0767 H   0  0  0  0  0  0
    0.8478   51.0828   21.8967 H   0  0  0  0  0  0
    1.7610   50.7227   23.3474 H   0  0  0  0  0  0
   -2.6594   53.6969   24.5270 H   0  0  0  0  0  0
   -3.6867   52.9977   23.2818 H   0  0  0  0  0  0
   -5.0253   53.6422   25.2510 H   0  0  0  0  0  0
   -4.1253   52.5027   26.2423 H   0  0  0  0  0  0
   -1.8029   48.8102   23.9151 H   0  0  0  0  0  0
   -3.3203   46.8892   23.9412 H   0  0  0  0  0  0
   -5.7393   47.2109   24.3595 H   0  0  0  0  0  0
   -6.6258   49.4838   24.7538 H   0  0  0  0  0  0
   -1.7543   51.8084   26.3298 H   0  0  0  0  0  0
  1  2  1  0  0  0
  1 31  1  0  0  0
  1 32  1  0  0  0
  1 33  1  0  0  0
  2  3  1  0  0  0
  2  4  1  0  0  0
  2 34  1  0  0  0
  3 35  1  0  0  0
  3 36  1  0  0  0
  3 37  1  0  0  0
  4  5  1  0  0  0
  4  6  1  0  0  0
  4 11  1  0  0  0
  6 10  1  0  0  0
  6  7  2  0  0  0
  7  8  1  0  0  0
  7 38  1  0  0  0
  8  9  2  0  0  0
  8 39  1  0  0  0
  9 10  1  0  0  0
  9 40  1  0  0  0
 11 12  1  0  0  0
 11 41  1  0  0  0
 12 13  2  0  0  0
 12 14  1  0  0  0
 14 15  1  0  0  0
 14 42  1  0  0  0
 14 43  1  0  0  0
 15 29  1  0  0  0
 15 16  1  0  0  0
 16 17  2  0  0  0
 16 18  1  0  0  0
 18 23  1  0  0  0
 18 19  1  0  0  0
 18 28  1  0  0  0
 19 20  1  0  0  0
 19 44  1  0  0  0
 19 45  1  0  0  0
 20 21  1  0  0  0
 20 46  1  0  0  0
 20 47  1  0  0  0
 21 22  1  0  0  0
 22 27  2  0  0  0
 22 23  1  0  0  0
 23 24  2  0  0  0
 24 25  1  0  0  0
 24 48  1  0  0  0
 25 26  2  0  0  0
 25 49  1  0  0  0
 26 27  1  0  0  0
 26 50  1  0  0  0
 27 51  1  0  0  0
 28 29  1  0  0  0
 28 52  1  0  0  0
 29 30  2  0  0  0
M  END
> <i_i_glide_confnum>
5

> <i_i_glide_lignum>
2657

> <i_i_glide_posenum>
131

> <i_i_glide_rotatable_bonds>
6

> <i_m_Source_File_Index>
4847

> <b_m_subgroup_collapsed>
0

> <r_i_docking_score>
-4.34648

> <r_i_glide_ecoul>
-0.220649

> <r_i_glide_eff_state_penalty>
0

> <r_i_glide_einternal>
7.00896

> <r_i_glide_emodel>
-40.424

> <r_i_glide_energy>
-33.4862

> <r_i_glide_erotb>
0.346169

> <r_i_glide_esite>
-0.017128

> <r_i_glide_evdw>
-33.2656

> <r_i_glide_gscore>
-4.34648

> <r_i_glide_hbond>
0

> <r_i_glide_ligand_efficiency>
-0.149879

> <r_i_glide_ligand_efficiency_ln>
-0.995234

> <r_i_glide_ligand_efficiency_sa>
-0.460475

> <r_i_glide_lipo>
-2.08278

> <r_i_glide_metal>
0

> <r_i_glide_rewards>
-0.89636

> <s_i_glide_gridfile>
wee1_glide-grid

> <s_m_Source_File>
wee1_decoys_glide_SP.sdf

> <s_m_Source_Path>
/Users/zhangxujun/Desktop

> <s_m_entry_id>
5122

> <s_m_entry_name>
wee1_decoys_glide_SP.4847

> <s_m_subgroup_title>
wee1_decoys_glide_SP

> <s_m_subgroupid>
wee1_decoys_glide_SP


$$$$
