ZINC00664544_2494
                    3D
 Schrodinger Suite 2024-2.
 46 48  0  0  1  0            999 V2000
   -3.6069   53.2562   24.1735 C   0  0  0  0  0  0
   -2.9609   52.3558   25.0587 O   0  0  0  0  0  0
   -1.7437   51.7968   24.7111 C   0  0  0  0  0  0
   -1.0203   52.1498   23.5580 C   0  0  0  0  0  0
    0.2225   51.5669   23.2864 C   0  0  0  0  0  0
    0.7197   50.5809   24.1439 C   0  0  0  0  0  0
    0.0115   50.2157   25.2821 C   0  0  0  0  0  0
   -1.1940   50.8434   25.5857 C   0  0  0  0  0  0
   -1.7985   50.5007   26.7696 O   0  0  0  0  0  0
   -1.9325   51.5230   27.7633 C   0  0  0  0  0  0
   -0.6038   52.0371   28.3382 C   0  0  0  0  0  0
    0.3185   52.7308   27.5460 C   0  0  0  0  0  0
    1.4984   53.2283   28.0936 C   0  0  0  0  0  0
    1.7725   53.0552   29.4480 C   0  0  0  0  0  0
    0.8495   52.3838   30.2585 C   0  0  0  0  0  0
   -0.3287   51.8785   29.7002 C   0  0  0  0  0  0
    1.1438   52.1371   31.9438 Cl  0  0  0  0  0  0
    3.2567   53.6786   30.0817 Cl  0  0  0  0  0  0
    1.0643   52.0156   22.0856 C   0  0  0  0  0  0
    1.4185   50.8842   21.1087 C   0  0  0  0  0  0
    2.3984   50.9814   20.1861 C   0  0  0  0  0  0
    3.5027   52.3673   20.0157 S   0  0  0  0  0  0
    3.3421   53.0656   21.6385 C   0  0  0  0  0  0
    2.3120   52.8271   22.4790 C   0  0  0  0  0  0
    2.3378   53.4409   23.7708 C   0  0  0  0  0  0
    2.3908   53.9629   24.8015 N   0  0  0  0  0  0
    4.4272   53.8509   21.9313 N   0  0  0  0  0  0
    2.7046   50.0077   19.2759 N   0  0  0  0  0  0
    0.5928   49.7136   21.1085 C   0  0  0  0  0  0
   -0.0944   48.7827   21.0751 N   0  0  0  0  0  0
   -4.5018   53.6555   24.6492 H   0  0  0  0  0  0
   -2.9749   54.0990   23.8940 H   0  0  0  0  0  0
   -3.9177   52.7218   23.2817 H   0  0  0  0  0  0
   -1.4011   52.8966   22.8806 H   0  0  0  0  0  0
    1.6719   50.1087   23.9413 H   0  0  0  0  0  0
    0.4097   49.4679   25.9537 H   0  0  0  0  0  0
   -2.5115   52.3623   27.3816 H   0  0  0  0  0  0
   -2.5364   51.0975   28.5652 H   0  0  0  0  0  0
    0.1308   52.8965   26.4968 H   0  0  0  0  0  0
    2.2048   53.7506   27.4659 H   0  0  0  0  0  0
   -1.0272   51.3526   30.3400 H   0  0  0  0  0  0
    0.4445   52.7037   21.5077 H   0  0  0  0  0  0
    4.5088   54.3205   22.8219 H   0  0  0  0  0  0
    5.1502   54.0097   21.2439 H   0  0  0  0  0  0
    2.1711   49.1538   19.2051 H   0  0  0  0  0  0
    3.5211   50.0975   18.6703 H   0  0  0  0  0  0
  1  2  1  0  0  0
  1 31  1  0  0  0
  1 32  1  0  0  0
  1 33  1  0  0  0
  2  3  1  0  0  0
  3  8  2  0  0  0
  3  4  1  0  0  0
  4  5  2  0  0  0
  4 34  1  0  0  0
  5  6  1  0  0  0
  5 19  1  0  0  0
  6  7  2  0  0  0
  6 35  1  0  0  0
  7  8  1  0  0  0
  7 36  1  0  0  0
  8  9  1  0  0  0
  9 10  1  0  0  0
 10 11  1  0  0  0
 10 37  1  0  0  0
 10 38  1  0  0  0
 11 16  2  0  0  0
 11 12  1  0  0  0
 12 13  2  0  0  0
 12 39  1  0  0  0
 13 14  1  0  0  0
 13 40  1  0  0  0
 14 15  2  0  0  0
 14 18  1  0  0  0
 15 16  1  0  0  0
 15 17  1  0  0  0
 16 41  1  0  0  0
 19 24  1  0  0  0
 19 20  1  0  0  0
 19 42  1  0  0  0
 20 21  2  0  0  0
 20 29  1  0  0  0
 21 22  1  0  0  0
 21 28  1  0  0  0
 22 23  1  0  0  0
 23 24  2  0  0  0
 23 27  1  0  0  0
 24 25  1  0  0  0
 25 26  3  0  0  0
 27 43  1  0  0  0
 27 44  1  0  0  0
 28 45  1  0  0  0
 28 46  1  0  0  0
 29 30  3  0  0  0
M  END
> <i_i_glide_confnum>
66

> <i_i_glide_lignum>
2495

> <i_i_glide_posenum>
201

> <i_i_glide_rotatable_bonds>
7

> <i_m_Source_File_Index>
3638

> <b_m_subgroup_collapsed>
0

> <r_i_docking_score>
-3.63265

> <r_i_glide_ecoul>
-1.93591

> <r_i_glide_eff_state_penalty>
0

> <r_i_glide_einternal>
10.1195

> <r_i_glide_emodel>
-44.703

> <r_i_glide_energy>
-39.8989

> <r_i_glide_erotb>
0.381418

> <r_i_glide_esite>
-0.0978334

> <r_i_glide_evdw>
-37.9629

> <r_i_glide_gscore>
-3.63265

> <r_i_glide_hbond>
-0.198998

> <r_i_glide_ligand_efficiency>
-0.121088

> <r_i_glide_ligand_efficiency_ln>
-0.825378

> <r_i_glide_ligand_efficiency_sa>
-0.37625

> <r_i_glide_lipo>
-0.922865

> <r_i_glide_metal>
0

> <r_i_glide_rewards>
-0.60584

> <s_i_glide_gridfile>
wee1_glide-grid

> <s_m_Source_File>
wee1_decoys_glide_SP.sdf

> <s_m_Source_Path>
/Users/zhangxujun/Desktop

> <s_m_entry_id>
3913

> <s_m_entry_name>
wee1_decoys_glide_SP.3638

> <s_m_subgroup_title>
wee1_decoys_glide_SP

> <s_m_subgroupid>
wee1_decoys_glide_SP


$$$$
