ZINC35229947_5047
                    3D
 Schrodinger Suite 2024-2.
 72 76  0  0  1  0            999 V2000
   -4.6407   51.8284   26.4935 C   0  0  0  0  0  0
   -4.0977   52.2989   25.1374 C   0  0  0  0  0  0
   -2.6972   51.7403   24.8398 C   0  0  0  0  0  0
   -2.1574   52.1989   23.4747 C   0  0  0  0  0  0
   -0.8271   51.6776   23.1521 N   0  0  0  0  0  0
    0.4257   52.4262   23.4464 C   0  0  2  0  0  0
    0.3028   53.4961   23.2791 H   0  0  0  0  0  0
    1.3322   51.7936   22.3905 C   0  0  1  0  0  0
    1.3245   52.4933   21.0333 C   0  0  0  0  0  0
    2.2753   51.8950   20.3066 C   0  0  0  0  0  0
    2.8189   50.8136   21.2174 C   0  0  1  0  0  0
    3.8394   50.4980   20.9997 H   0  0  0  0  0  0
    2.7044   51.4913   22.4820 O   0  0  0  0  0  0
    1.7775   49.6537   21.4177 C   0  0  1  0  0  0
    2.2733   48.7951   21.8739 H   0  0  0  0  0  0
    0.8810   50.3481   22.4789 C   0  0  2  0  0  0
    1.1556   49.8768   23.4283 H   0  0  0  0  0  0
   -0.6445   50.4589   22.5600 C   0  0  0  0  0  0
   -1.4791   49.6223   22.2185 O   0  0  0  0  0  0
    1.1182   49.1441   20.1075 C   0  0  0  0  0  0
    0.0735   49.6430   19.6888 O   0  0  0  0  0  0
    1.7801   48.1588   19.4651 N   0  0  0  0  0  0
    1.3369   47.4376   18.3427 C   0  0  0  0  0  0
    2.3045   46.9999   17.4379 C   0  0  0  0  0  0
    1.9383   46.2471   16.3266 C   0  0  0  0  0  0
    0.5994   45.9230   16.1251 C   0  0  0  0  0  0
   -0.3762   46.3509   17.0234 C   0  0  0  0  0  0
   -0.0102   47.1052   18.1354 C   0  0  0  0  0  0
    0.1470   44.9786   14.7527 Cl  0  0  0  0  0  0
    0.9528   52.2783   24.8967 C   0  0  0  0  0  0
    0.4819   51.4410   25.6655 O   0  0  0  0  0  0
    1.9345   53.1168   25.2630 N   0  0  0  0  0  0
    2.5953   53.1288   26.5739 C   0  0  2  0  0  0
    2.6728   52.0993   26.9351 H   0  0  0  0  0  0
    1.7540   53.8406   27.6703 C   0  0  0  0  0  0
    2.4530   53.9229   29.0432 C   0  0  0  0  0  0
    3.8781   54.4855   28.9245 C   0  0  0  0  0  0
    4.7205   53.6462   27.9426 C   0  0  1  0  0  0
    4.7054   52.6127   28.2968 H   0  0  0  0  0  0
    4.0676   53.6516   26.5298 C   0  0  2  0  0  0
    4.6357   52.8967   25.9896 H   0  0  0  0  0  0
    4.2006   54.9544   25.7106 C   0  0  0  0  0  0
    6.1972   54.0935   27.9255 C   0  0  0  0  0  0
   -5.6261   52.2515   26.6898 H   0  0  0  0  0  0
   -4.7330   50.7414   26.5254 H   0  0  0  0  0  0
   -3.9845   52.1298   27.3104 H   0  0  0  0  0  0
   -4.0695   53.3904   25.1232 H   0  0  0  0  0  0
   -4.7912   51.9978   24.3491 H   0  0  0  0  0  0
   -2.7261   50.6486   24.8701 H   0  0  0  0  0  0
   -2.0192   52.0588   25.6320 H   0  0  0  0  0  0
   -2.1359   53.2894   23.4366 H   0  0  0  0  0  0
   -2.8640   51.9005   22.6975 H   0  0  0  0  0  0
    0.6592   53.2927   20.7475 H   0  0  0  0  0  0
    2.5784   52.0665   19.2829 H   0  0  0  0  0  0
    2.7370   47.9930   19.7436 H   0  0  0  0  0  0
    3.3459   47.2578   17.5831 H   0  0  0  0  0  0
    2.6931   45.9180   15.6278 H   0  0  0  0  0  0
   -1.4140   46.0996   16.8608 H   0  0  0  0  0  0
   -0.7744   47.4188   18.8325 H   0  0  0  0  0  0
    2.3618   53.6854   24.5484 H   0  0  0  0  0  0
    0.7939   53.3368   27.7908 H   0  0  0  0  0  0
    1.5330   54.8576   27.3469 H   0  0  0  0  0  0
    2.4864   52.9295   29.4924 H   0  0  0  0  0  0
    1.8635   54.5419   29.7210 H   0  0  0  0  0  0
    4.3531   54.4846   29.9065 H   0  0  0  0  0  0
    3.8621   55.5316   28.6243 H   0  0  0  0  0  0
    3.5045   55.6981   26.0821 H   0  0  0  0  0  0
    3.9627   54.7914   24.6585 H   0  0  0  0  0  0
    5.2048   55.3736   25.7388 H   0  0  0  0  0  0
    6.3049   55.1567   27.7064 H   0  0  0  0  0  0
    6.6748   53.9175   28.8878 H   0  0  0  0  0  0
    6.7694   53.5367   27.1820 H   0  0  0  0  0  0
  1  2  1  0  0  0
  1 44  1  0  0  0
  1 45  1  0  0  0
  1 46  1  0  0  0
  2  3  1  0  0  0
  2 47  1  0  0  0
  2 48  1  0  0  0
  3  4  1  0  0  0
  3 49  1  0  0  0
  3 50  1  0  0  0
  4  5  1  0  0  0
  4 51  1  0  0  0
  4 52  1  0  0  0
  5 18  1  0  0  0
  5  6  1  0  0  0
  6  7  1  0  0  0
  6  8  1  0  0  0
  6 30  1  0  0  0
  8 13  1  0  0  0
  8 16  1  0  0  0
  8  9  1  0  0  0
  9 10  2  0  0  0
  9 53  1  0  0  0
 10 11  1  0  0  0
 10 54  1  0  0  0
 11 12  1  0  0  0
 11 13  1  0  0  0
 11 14  1  0  0  0
 14 15  1  0  0  0
 14 16  1  0  0  0
 14 20  1  0  0  0
 16 17  1  0  0  0
 16 18  1  0  0  0
 18 19  2  0  0  0
 20 21  2  0  0  0
 20 22  1  0  0  0
 22 23  1  0  0  0
 22 55  1  0  0  0
 23 28  2  0  0  0
 23 24  1  0  0  0
 24 25  2  0  0  0
 24 56  1  0  0  0
 25 26  1  0  0  0
 25 57  1  0  0  0
 26 27  2  0  0  0
 26 29  1  0  0  0
 27 28  1  0  0  0
 27 58  1  0  0  0
 28 59  1  0  0  0
 30 31  2  0  0  0
 30 32  1  0  0  0
 32 33  1  0  0  0
 32 60  1  0  0  0
 33 34  1  0  0  0
 33 40  1  0  0  0
 33 35  1  0  0  0
 35 36  1  0  0  0
 35 61  1  0  0  0
 35 62  1  0  0  0
 36 37  1  0  0  0
 36 63  1  0  0  0
 36 64  1  0  0  0
 37 38  1  0  0  0
 37 65  1  0  0  0
 37 66  1  0  0  0
 38 39  1  0  0  0
 38 40  1  0  0  0
 38 43  1  0  0  0
 40 41  1  0  0  0
 40 42  1  0  0  0
 42 67  1  0  0  0
 42 68  1  0  0  0
 42 69  1  0  0  0
 43 70  1  0  0  0
 43 71  1  0  0  0
 43 72  1  0  0  0
M  END
> <i_i_glide_confnum>
219

> <i_i_glide_lignum>
5048

> <i_i_glide_posenum>
329

> <i_i_glide_rotatable_bonds>
9

> <i_m_Source_File_Index>
3074

> <b_m_subgroup_collapsed>
0

> <r_i_docking_score>
-3.75683

> <r_i_glide_ecoul>
-1.00984

> <r_i_glide_eff_state_penalty>
0

> <r_i_glide_einternal>
6.14482

> <r_i_glide_emodel>
-42.1589

> <r_i_glide_energy>
-36.0589

> <r_i_glide_erotb>
0.620923

> <r_i_glide_esite>
-0.0568736

> <r_i_glide_evdw>
-35.049

> <r_i_glide_gscore>
-3.75683

> <r_i_glide_hbond>
0

> <r_i_glide_ligand_efficiency>
-0.104356

> <r_i_glide_ligand_efficiency_ln>
-0.819639

> <r_i_glide_ligand_efficiency_sa>
-0.344577

> <r_i_glide_lipo>
-2.30961

> <r_i_glide_metal>
0

> <r_i_glide_rewards>
-0.107347

> <s_i_glide_gridfile>
wee1_glide-grid

> <s_m_Source_File>
wee1_decoys_glide_SP.sdf

> <s_m_Source_Path>
/Users/zhangxujun/Desktop

> <s_m_entry_id>
3349

> <s_m_entry_name>
wee1_decoys_glide_SP.3074

> <s_m_subgroup_title>
wee1_decoys_glide_SP

> <s_m_subgroupid>
wee1_decoys_glide_SP


$$$$
