ZINC40321251_3334
                    3D
 Schrodinger Suite 2024-2.
 46 49  0  0  1  0            999 V2000
    6.4962   54.7178   24.3341 C   0  0  0  0  0  0
    6.0718   54.4954   23.0278 C   0  0  0  0  0  0
    4.7637   54.0817   22.7912 C   0  0  0  0  0  0
    3.8963   53.8653   23.8659 C   0  0  0  0  0  0
    4.3291   54.0968   25.1738 C   0  0  0  0  0  0
    5.6336   54.5197   25.4086 C   0  0  0  0  0  0
    2.2093   53.3088   23.6160 S   0  0  0  0  0  0
    1.8437   52.4942   24.7795 O   0  0  0  0  0  0
    1.4255   54.4967   23.2809 O   0  0  0  0  0  0
    2.1520   52.2190   22.1562 C   0  0  0  0  0  0
    2.5000   52.4099   20.8243 C   0  0  0  0  0  0
    2.1183   51.2554   20.1368 C   0  0  0  0  0  0
    1.5056   50.4186   21.0661 C   0  0  0  0  0  0
    1.5265   51.0200   22.2901 O   0  0  0  0  0  0
    0.7477   49.2021   20.9280 C   0  0  0  0  0  0
   -0.0805   48.8995   21.7882 O   0  0  0  0  0  0
    1.0360   48.4766   19.8201 N   0  0  0  0  0  0
    0.5159   47.2224   19.4175 C   0  0  0  0  0  0
   -0.5162   46.5372   20.0811 C   0  0  0  0  0  0
   -0.8937   45.2598   19.6759 C   0  0  0  0  0  0
   -0.2745   44.6558   18.5814 C   0  0  0  0  0  0
    0.7043   45.3619   17.8729 C   0  0  0  0  0  0
    1.1039   46.6322   18.2950 C   0  0  0  0  0  0
   -0.7758   42.9927   18.0721 S   0  0  0  0  0  0
   -2.1059   42.8001   18.6579 O   0  0  0  0  0  0
   -0.6841   42.9978   16.6085 O   0  0  0  0  0  0
    0.3064   42.0983   18.7806 N   0  5  0  0  0  0
    1.5697   41.9498   18.3391 C   0  0  0  0  0  0
    2.1619   42.4633   17.2820 N   0  0  0  0  0  0
    3.4262   42.0951   17.1768 C   0  0  0  0  0  0
    3.8986   41.2389   18.1643 C   0  0  0  0  0  0
    2.6037   40.9181   19.2817 S   0  0  0  0  0  0
    7.5028   55.0553   24.5104 H   0  0  0  0  0  0
    6.7514   54.6611   22.2024 H   0  0  0  0  0  0
    4.4459   53.9396   21.7729 H   0  0  0  0  0  0
    3.6601   53.9362   26.0066 H   0  0  0  0  0  0
    5.9715   54.6945   26.4185 H   0  0  0  0  0  0
    2.9387   53.2914   20.3808 H   0  0  0  0  0  0
    2.2280   51.0837   19.0763 H   0  0  0  0  0  0
    1.7570   48.8449   19.2165 H   0  0  0  0  0  0
   -1.0267   46.9494   20.9341 H   0  0  0  0  0  0
   -1.6679   44.7411   20.2227 H   0  0  0  0  0  0
    1.1686   44.9211   17.0010 H   0  0  0  0  0  0
    1.8898   47.1409   17.7521 H   0  0  0  0  0  0
    4.0109   42.4722   16.3501 H   0  0  0  0  0  0
    4.8826   40.8079   18.2822 H   0  0  0  0  0  0
  1  6  2  0  0  0
  1  2  1  0  0  0
  1 33  1  0  0  0
  2  3  2  0  0  0
  2 34  1  0  0  0
  3  4  1  0  0  0
  3 35  1  0  0  0
  4  5  2  0  0  0
  4  7  1  0  0  0
  5  6  1  0  0  0
  5 36  1  0  0  0
  6 37  1  0  0  0
  7  8  2  0  0  0
  7  9  2  0  0  0
  7 10  1  0  0  0
 10 14  1  0  0  0
 10 11  2  0  0  0
 11 12  1  0  0  0
 11 38  1  0  0  0
 12 13  2  0  0  0
 12 39  1  0  0  0
 13 14  1  0  0  0
 13 15  1  0  0  0
 15 16  2  0  0  0
 15 17  1  0  0  0
 17 18  1  0  0  0
 17 40  1  0  0  0
 18 23  2  0  0  0
 18 19  1  0  0  0
 19 20  2  0  0  0
 19 41  1  0  0  0
 20 21  1  0  0  0
 20 42  1  0  0  0
 21 22  2  0  0  0
 21 24  1  0  0  0
 22 23  1  0  0  0
 22 43  1  0  0  0
 23 44  1  0  0  0
 24 25  2  0  0  0
 24 26  2  0  0  0
 24 27  1  0  0  0
 27 28  1  0  0  0
 28 32  1  0  0  0
 28 29  2  0  0  0
 29 30  1  0  0  0
 30 31  2  0  0  0
 30 45  1  0  0  0
 31 32  1  0  0  0
 31 46  1  0  0  0
M  CHG  1  27  -1
M  END
> <i_i_glide_confnum>
107

> <i_i_glide_lignum>
3335

> <i_i_glide_posenum>
114

> <i_i_glide_rotatable_bonds>
8

> <i_m_Source_File_Index>
2636

> <b_m_subgroup_collapsed>
0

> <r_i_docking_score>
-4.92788

> <r_i_glide_ecoul>
-3.14039

> <r_i_glide_eff_state_penalty>
0

> <r_i_glide_einternal>
5.45941

> <r_i_glide_emodel>
-59.7813

> <r_i_glide_energy>
-43.8831

> <r_i_glide_erotb>
0.68168

> <r_i_glide_esite>
-0.0895292

> <r_i_glide_evdw>
-40.7427

> <r_i_glide_gscore>
-4.92788

> <r_i_glide_hbond>
-0.2

> <r_i_glide_ligand_efficiency>
-0.153996

> <r_i_glide_ligand_efficiency_ln>
-1.10349

> <r_i_glide_ligand_efficiency_sa>
-0.488907

> <r_i_glide_lipo>
-2.34629

> <r_i_glide_metal>
0

> <r_i_glide_rewards>
-0.465548

> <s_i_glide_gridfile>
wee1_glide-grid

> <s_m_Source_File>
wee1_decoys_glide_SP.sdf

> <s_m_Source_Path>
/Users/zhangxujun/Desktop

> <s_m_entry_id>
2911

> <s_m_entry_name>
wee1_decoys_glide_SP.2636

> <s_m_subgroup_title>
wee1_decoys_glide_SP

> <s_m_subgroupid>
wee1_decoys_glide_SP


$$$$
