ZINC02411878_2647
                    3D
 Schrodinger Suite 2024-2.
 42 46  0  0  1  0            999 V2000
    5.8485   54.4967   22.9595 C   0  0  0  0  0  0
    6.4522   54.7251   24.1935 C   0  0  0  0  0  0
    5.7350   54.5440   25.3774 C   0  0  0  0  0  0
    4.3924   54.0962   25.3257 C   0  0  0  0  0  0
    3.7703   53.8750   24.0573 C   0  0  0  0  0  0
    4.5141   54.0962   22.8733 C   0  0  0  0  0  0
    2.4932   53.3929   23.9945 N   0  0  0  0  0  0
    1.8484   53.0755   25.1250 C   0  0  0  0  0  0
    0.5556   52.5166   25.4019 C   0  0  0  0  0  0
    0.4533   52.4377   26.7836 C   0  0  0  0  0  0
    1.6428   52.8487   27.3694 N   0  0  0  0  0  0
    2.4897   53.2970   26.3675 C   0  0  0  0  0  0
    3.7180   53.8161   26.4753 N   0  0  0  0  0  0
    1.9452   52.8635   28.8021 C   0  0  0  0  0  0
    1.6704   54.2200   29.4048 C   0  0  0  0  0  0
    0.9205   54.6808   30.4781 C   0  0  0  0  0  0
    1.1046   56.0645   30.5232 C   0  0  0  0  0  0
    1.9045   56.3831   29.4489 C   0  0  0  0  0  0
    2.2746   55.2675   28.7890 O   0  0  0  0  0  0
   -0.6115   52.0499   27.5470 N   0  0  0  0  0  0
   -0.7312   52.0687   24.2147 S   0  0  0  0  0  0
   -2.0037   52.5255   24.7852 O   0  0  0  0  0  0
   -0.2861   52.4965   22.8838 O   0  0  0  0  0  0
   -0.7980   50.2607   24.2172 C   0  0  0  0  0  0
   -1.0951   49.4574   25.3148 C   0  0  0  0  0  0
   -1.1339   48.0982   24.9994 C   0  0  0  0  0  0
   -0.8988   47.8623   23.6540 C   0  0  0  0  0  0
   -0.5586   49.3200   22.7793 S   0  0  0  0  0  0
    6.4211   54.6414   22.0536 H   0  0  0  0  0  0
    7.4895   55.0365   24.2335 H   0  0  0  0  0  0
    6.2088   54.7016   26.3351 H   0  0  0  0  0  0
    4.0512   53.9209   21.9131 H   0  0  0  0  0  0
    1.3729   52.0795   29.2991 H   0  0  0  0  0  0
    2.9921   52.5867   28.9261 H   0  0  0  0  0  0
    0.3298   54.0841   31.1599 H   0  0  0  0  0  0
    0.7046   56.7593   31.2442 H   0  0  0  0  0  0
    2.3060   57.2970   29.0593 H   0  0  0  0  0  0
   -1.5123   51.8774   27.1197 H   0  0  0  0  0  0
   -0.5399   51.9036   28.5427 H   0  0  0  0  0  0
   -1.2873   49.8198   26.3116 H   0  0  0  0  0  0
   -1.3383   47.3275   25.7320 H   0  0  0  0  0  0
   -0.8965   46.9096   23.1447 H   0  0  0  0  0  0
  1  6  2  0  0  0
  1  2  1  0  0  0
  1 29  1  0  0  0
  2  3  2  0  0  0
  2 30  1  0  0  0
  3  4  1  0  0  0
  3 31  1  0  0  0
  4 13  2  0  0  0
  4  5  1  0  0  0
  5  6  1  0  0  0
  5  7  2  0  0  0
  6 32  1  0  0  0
  7  8  1  0  0  0
  8 12  2  0  0  0
  8  9  1  0  0  0
  9 10  2  0  0  0
  9 21  1  0  0  0
 10 11  1  0  0  0
 10 20  1  0  0  0
 11 12  1  0  0  0
 11 14  1  0  0  0
 12 13  1  0  0  0
 14 15  1  0  0  0
 14 33  1  0  0  0
 14 34  1  0  0  0
 15 19  1  0  0  0
 15 16  2  0  0  0
 16 17  1  0  0  0
 16 35  1  0  0  0
 17 18  2  0  0  0
 17 36  1  0  0  0
 18 19  1  0  0  0
 18 37  1  0  0  0
 20 38  1  0  0  0
 20 39  1  0  0  0
 21 22  2  0  0  0
 21 23  2  0  0  0
 21 24  1  0  0  0
 24 28  1  0  0  0
 24 25  2  0  0  0
 25 26  1  0  0  0
 25 40  1  0  0  0
 26 27  2  0  0  0
 26 41  1  0  0  0
 27 28  1  0  0  0
 27 42  1  0  0  0
M  END
> <i_i_glide_confnum>
4

> <i_i_glide_lignum>
2648

> <i_i_glide_posenum>
349

> <i_i_glide_rotatable_bonds>
4

> <i_m_Source_File_Index>
1312

> <b_m_subgroup_collapsed>
0

> <r_i_docking_score>
-6.42189

> <r_i_glide_ecoul>
-3.27849

> <r_i_glide_eff_state_penalty>
0

> <r_i_glide_einternal>
2.63516

> <r_i_glide_emodel>
-63.5175

> <r_i_glide_energy>
-46.1044

> <r_i_glide_erotb>
0.467705

> <r_i_glide_esite>
-0.0296369

> <r_i_glide_evdw>
-42.8259

> <r_i_glide_gscore>
-6.42189

> <r_i_glide_hbond>
0

> <r_i_glide_ligand_efficiency>
-0.229353

> <r_i_glide_ligand_efficiency_ln>
-1.48236

> <r_i_glide_ligand_efficiency_sa>
-0.696452

> <r_i_glide_lipo>
-3.03391

> <r_i_glide_metal>
0

> <r_i_glide_rewards>
-1.19298

> <s_i_glide_gridfile>
wee1_glide-grid

> <s_m_Source_File>
wee1_decoys_glide_SP.sdf

> <s_m_Source_Path>
/Users/zhangxujun/Desktop

> <s_m_entry_id>
1587

> <s_m_entry_name>
wee1_decoys_glide_SP.1312

> <s_m_subgroup_title>
wee1_decoys_glide_SP

> <s_m_subgroupid>
wee1_decoys_glide_SP


$$$$
