ZINC00886031_998
                    3D
 Schrodinger Suite 2024-2.
 62 65  0  0  1  0            999 V2000
    2.7084   52.6930   19.7607 C   0  0  0  0  0  0
    3.0914   51.7286   20.9111 C   0  0  0  0  0  0
    2.3099   52.1085   22.2041 C   0  0  0  0  0  0
    0.8551   51.6555   22.1569 C   0  0  0  0  0  0
    0.3464   50.6871   21.3510 C   0  0  0  0  0  0
   -1.1674   50.3384   21.4080 C   0  0  0  0  0  0
   -1.8715   51.1214   22.5448 C   0  0  0  0  0  0
   -1.1787   52.0096   23.3000 C   0  0  0  0  0  0
    0.1283   52.3012   23.1014 O   0  0  0  0  0  0
   -1.7497   52.7862   24.4778 C   0  0  0  0  0  0
   -2.9341   52.0113   25.1273 C   0  0  0  0  0  0
   -3.9377   51.6117   24.0114 C   0  0  0  0  0  0
   -3.3117   50.8970   22.7993 C   0  0  0  0  0  0
   -4.0333   50.3156   21.9890 O   0  0  0  0  0  0
   -3.6684   52.9737   26.0815 C   0  0  0  0  0  0
   -2.4151   50.7420   25.8546 C   0  0  0  0  0  0
   -1.5050   48.8350   21.3972 C   0  0  0  0  0  0
   -1.4138   48.1397   22.6085 C   0  0  0  0  0  0
   -1.7604   46.7860   22.7055 C   0  0  0  0  0  0
   -2.0964   46.0834   21.5382 C   0  0  0  0  0  0
   -2.2222   46.7878   20.3304 C   0  0  0  0  0  0
   -1.9571   48.1520   20.2564 C   0  0  0  0  0  0
   -2.2376   49.0188   18.5768 Br  0  0  0  0  0  0
   -2.3014   44.7171   21.6456 O   0  0  0  0  0  0
   -2.2899   43.8584   20.4892 C   0  0  0  0  0  0
   -0.8645   43.6763   19.9128 C   0  0  0  0  0  0
   -0.4956   42.4980   19.6869 O   0  0  0  0  0  0
   -0.1649   44.6835   19.6814 O   0  5  0  0  0  0
   -1.7869   46.0968   23.9070 O   0  0  0  0  0  0
   -1.5965   46.8055   25.1287 C   0  0  0  0  0  0
    1.2322   49.9947   20.3866 C   0  0  0  0  0  0
    0.8111   49.2727   19.4893 O   0  0  0  0  0  0
    2.7418   50.2713   20.5074 C   0  0  0  0  0  0
    4.6046   51.7688   21.2141 C   0  0  0  0  0  0
    3.1239   52.3565   18.8101 H   0  0  0  0  0  0
    1.6320   52.7913   19.6283 H   0  0  0  0  0  0
    3.1042   53.6932   19.9377 H   0  0  0  0  0  0
    2.3806   53.1843   22.3706 H   0  0  0  0  0  0
    2.7045   51.6225   23.0956 H   0  0  0  0  0  0
   -1.6006   50.7275   20.4880 H   0  0  0  0  0  0
   -2.0636   53.7492   24.0799 H   0  0  0  0  0  0
   -0.9831   52.9534   25.2347 H   0  0  0  0  0  0
   -4.3710   52.5267   23.6098 H   0  0  0  0  0  0
   -4.7657   51.0116   24.3893 H   0  0  0  0  0  0
   -3.0070   53.3015   26.8808 H   0  0  0  0  0  0
   -4.0305   53.8676   25.5698 H   0  0  0  0  0  0
   -4.5258   52.4924   26.5509 H   0  0  0  0  0  0
   -1.7577   51.0026   26.6846 H   0  0  0  0  0  0
   -3.2346   50.1571   26.2716 H   0  0  0  0  0  0
   -1.8505   50.0772   25.2014 H   0  0  0  0  0  0
   -1.0923   48.6818   23.4819 H   0  0  0  0  0  0
   -2.5184   46.2845   19.4240 H   0  0  0  0  0  0
   -2.9581   44.2081   19.7021 H   0  0  0  0  0  0
   -2.6993   42.8969   20.7936 H   0  0  0  0  0  0
   -1.6950   46.1137   25.9658 H   0  0  0  0  0  0
   -0.6024   47.2517   25.1854 H   0  0  0  0  0  0
   -2.3471   47.5868   25.2557 H   0  0  0  0  0  0
    3.2298   49.9742   19.5775 H   0  0  0  0  0  0
    3.1023   49.5877   21.2768 H   0  0  0  0  0  0
    5.1866   51.6341   20.3014 H   0  0  0  0  0  0
    4.9016   52.7244   21.6474 H   0  0  0  0  0  0
    4.9022   50.9797   21.9052 H   0  0  0  0  0  0
  1  2  1  0  0  0
  1 35  1  0  0  0
  1 36  1  0  0  0
  1 37  1  0  0  0
  2 33  1  0  0  0
  2  3  1  0  0  0
  2 34  1  0  0  0
  3  4  1  0  0  0
  3 38  1  0  0  0
  3 39  1  0  0  0
  4  9  1  0  0  0
  4  5  2  0  0  0
  5  6  1  0  0  0
  5 31  1  0  0  0
  6  7  1  0  0  0
  6 17  1  0  0  0
  6 40  1  0  0  0
  7 13  1  0  0  0
  7  8  2  0  0  0
  8  9  1  0  0  0
  8 10  1  0  0  0
 10 11  1  0  0  0
 10 41  1  0  0  0
 10 42  1  0  0  0
 11 12  1  0  0  0
 11 15  1  0  0  0
 11 16  1  0  0  0
 12 13  1  0  0  0
 12 43  1  0  0  0
 12 44  1  0  0  0
 13 14  2  0  0  0
 15 45  1  0  0  0
 15 46  1  0  0  0
 15 47  1  0  0  0
 16 48  1  0  0  0
 16 49  1  0  0  0
 16 50  1  0  0  0
 17 22  2  0  0  0
 17 18  1  0  0  0
 18 19  2  0  0  0
 18 51  1  0  0  0
 19 20  1  0  0  0
 19 29  1  0  0  0
 20 21  2  0  0  0
 20 24  1  0  0  0
 21 22  1  0  0  0
 21 52  1  0  0  0
 22 23  1  0  0  0
 24 25  1  0  0  0
 25 26  1  0  0  0
 25 53  1  0  0  0
 25 54  1  0  0  0
 26 27  2  0  0  0
 26 28  1  0  0  0
 29 30  1  0  0  0
 30 55  1  0  0  0
 30 56  1  0  0  0
 30 57  1  0  0  0
 31 32  2  0  0  0
 31 33  1  0  0  0
 33 58  1  0  0  0
 33 59  1  0  0  0
 34 60  1  0  0  0
 34 61  1  0  0  0
 34 62  1  0  0  0
M  CHG  1  28  -1
M  END
> <i_i_glide_confnum>
28

> <i_i_glide_lignum>
999

> <i_i_glide_posenum>
322

> <i_i_glide_rotatable_bonds>
5

> <i_m_Source_File_Index>
236

> <b_m_subgroup_collapsed>
0

> <r_i_docking_score>
-2.61038

> <r_i_glide_ecoul>
-5.00588

> <r_i_glide_eff_state_penalty>
0

> <r_i_glide_einternal>
4.4952

> <r_i_glide_emodel>
-34.4006

> <r_i_glide_energy>
-29.0075

> <r_i_glide_erotb>
0.218302

> <r_i_glide_esite>
-0.059141

> <r_i_glide_evdw>
-24.0016

> <r_i_glide_gscore>
-2.61038

> <r_i_glide_hbond>
-0.373523

> <r_i_glide_ligand_efficiency>
-0.0767758

> <r_i_glide_ligand_efficiency_ln>
-0.576706

> <r_i_glide_ligand_efficiency_sa>
-0.248724

> <r_i_glide_lipo>
-0.445052

> <r_i_glide_metal>
0

> <r_i_glide_rewards>
0

> <s_i_glide_gridfile>
wee1_glide-grid

> <s_m_Source_File>
wee1_decoys_glide_SP.sdf

> <s_m_Source_Path>
/Users/zhangxujun/Desktop

> <s_m_entry_id>
511

> <s_m_entry_name>
wee1_decoys_glide_SP.236

> <s_m_subgroup_title>
wee1_decoys_glide_SP

> <s_m_subgroupid>
wee1_decoys_glide_SP


$$$$
