ZINC44176508_4249
                    3D
 Schrodinger Suite 2024-2.
 75 79  0  0  1  0            999 V2000
    0.3389   42.3414   15.0670 C   0  0  0  0  0  0
    0.6271   43.5616   15.7358 O   0  0  0  0  0  0
    0.1287   43.8114   16.9718 C   0  0  0  0  0  0
   -0.5972   43.0218   17.5871 O   0  0  0  0  0  0
    0.5373   45.1521   17.5115 C   0  0  0  0  0  0
   -0.0395   45.6175   18.6994 C   0  0  0  0  0  0
    0.3587   46.8305   19.2559 C   0  0  0  0  0  0
    1.3640   47.6023   18.6496 C   0  0  0  0  0  0
    1.9144   47.1484   17.4495 C   0  0  0  0  0  0
    1.5046   45.9467   16.8787 C   0  0  0  0  0  0
    1.8600   48.8315   19.1533 N   0  0  0  0  0  0
    1.5580   49.4569   20.3213 C   0  0  0  0  0  0
    0.9054   48.9042   21.2086 O   0  0  0  0  0  0
    1.9466   50.7634   20.4344 N   0  0  0  0  0  0
    3.1260   51.2865   19.7066 C   0  0  0  0  0  0
    3.2455   52.8099   19.9718 C   0  0  0  0  0  0
    3.5253   52.9795   21.4181 N   0  0  0  0  0  0
    2.6123   52.2329   22.3556 C   0  0  2  0  0  0
    3.1045   51.4240   22.8812 H   0  0  0  0  0  0
    1.4405   51.5576   21.5868 C   0  0  0  0  0  0
    1.9188   53.1042   23.4368 C   0  0  0  0  0  0
    1.5050   54.2332   23.1717 O   0  0  0  0  0  0
    1.8349   52.5692   24.6762 N   0  0  0  0  0  0
    1.2781   53.2116   25.8806 C   0  0  1  0  0  0
    1.1047   54.2352   25.5703 H   0  0  0  0  0  0
   -0.0181   52.4953   26.3285 C   0  0  0  0  0  0
    0.3196   51.1627   27.0233 C   0  0  0  0  0  0
    1.1340   51.4139   28.3058 C   0  0  0  0  0  0
    2.2559   52.4304   28.1344 C   0  0  0  0  0  0
    2.2398   53.3618   27.0718 C   0  0  0  0  0  0
    3.1350   54.4365   27.1307 C   0  0  0  0  0  0
    4.1368   54.4970   28.0926 C   0  0  0  0  0  0
    4.2586   53.4794   29.0182 C   0  0  0  0  0  0
    3.2942   52.4818   29.0727 C   0  0  0  0  0  0
    4.5961   53.7688   21.7811 C   0  0  0  0  0  0
    5.1274   54.5484   20.9874 O   0  0  0  0  0  0
    5.3131   53.5515   23.1456 C   0  0  0  0  0  0
    6.8316   53.8051   23.1963 C   0  0  0  0  0  0
    7.1484   54.0553   24.6757 C   0  0  0  0  0  0
    5.8661   54.4693   25.3592 C   0  0  0  0  0  0
    4.7506   54.3318   24.3311 C   0  0  0  0  0  0
    0.8142   42.3323   14.0862 H   0  0  0  0  0  0
   -0.7344   42.2159   14.9206 H   0  0  0  0  0  0
    0.7108   41.4881   15.6340 H   0  0  0  0  0  0
   -0.7985   45.0408   19.2097 H   0  0  0  0  0  0
   -0.1314   47.1314   20.1679 H   0  0  0  0  0  0
    2.7021   47.6982   16.9557 H   0  0  0  0  0  0
    1.9803   45.6344   15.9603 H   0  0  0  0  0  0
    2.4908   49.3119   18.5250 H   0  0  0  0  0  0
    4.0465   50.8180   20.0613 H   0  0  0  0  0  0
    3.0096   51.1708   18.6289 H   0  0  0  0  0  0
    4.0359   53.2056   19.3295 H   0  0  0  0  0  0
    2.3136   53.3070   19.7040 H   0  0  0  0  0  0
    0.6959   52.2836   21.2549 H   0  0  0  0  0  0
    0.9447   50.9093   22.3117 H   0  0  0  0  0  0
    2.2400   51.6592   24.8289 H   0  0  0  0  0  0
   -0.5738   53.1114   27.0375 H   0  0  0  0  0  0
   -0.6769   52.3263   25.4761 H   0  0  0  0  0  0
   -0.5927   50.6193   27.2703 H   0  0  0  0  0  0
    0.8736   50.5140   26.3465 H   0  0  0  0  0  0
    0.4576   51.7847   29.0781 H   0  0  0  0  0  0
    1.5589   50.4970   28.6974 H   0  0  0  0  0  0
    3.1058   55.2074   26.3762 H   0  0  0  0  0  0
    4.8633   55.2942   28.0726 H   0  0  0  0  0  0
    5.1025   53.4860   29.6819 H   0  0  0  0  0  0
    3.3596   51.7351   29.8466 H   0  0  0  0  0  0
    5.1943   52.4970   23.2803 H   0  0  0  0  0  0
    7.3804   52.9122   22.8815 H   0  0  0  0  0  0
    7.1393   54.6610   22.5928 H   0  0  0  0  0  0
    7.5040   53.1258   25.1196 H   0  0  0  0  0  0
    7.9041   54.8083   24.8762 H   0  0  0  0  0  0
    5.7070   53.7773   26.1884 H   0  0  0  0  0  0
    5.9165   55.4793   25.7727 H   0  0  0  0  0  0
    4.3346   55.2968   24.0729 H   0  0  0  0  0  0
    3.9769   53.7616   24.8068 H   0  0  0  0  0  0
  1  2  1  0  0  0
  1 42  1  0  0  0
  1 43  1  0  0  0
  1 44  1  0  0  0
  2  3  1  0  0  0
  3  4  2  0  0  0
  3  5  1  0  0  0
  5 10  2  0  0  0
  5  6  1  0  0  0
  6  7  2  0  0  0
  6 45  1  0  0  0
  7  8  1  0  0  0
  7 46  1  0  0  0
  8  9  2  0  0  0
  8 11  1  0  0  0
  9 10  1  0  0  0
  9 47  1  0  0  0
 10 48  1  0  0  0
 11 12  1  0  0  0
 11 49  1  0  0  0
 12 13  2  0  0  0
 12 14  1  0  0  0
 14 20  1  0  0  0
 14 15  1  0  0  0
 15 16  1  0  0  0
 15 50  1  0  0  0
 15 51  1  0  0  0
 16 17  1  0  0  0
 16 52  1  0  0  0
 16 53  1  0  0  0
 17 18  1  0  0  0
 17 35  1  0  0  0
 18 19  1  0  0  0
 18 20  1  0  0  0
 18 21  1  0  0  0
 20 54  1  0  0  0
 20 55  1  0  0  0
 21 22  2  0  0  0
 21 23  1  0  0  0
 23 24  1  0  0  0
 23 56  1  0  0  0
 24 25  1  0  0  0
 24 30  1  0  0  0
 24 26  1  0  0  0
 26 27  1  0  0  0
 26 57  1  0  0  0
 26 58  1  0  0  0
 27 28  1  0  0  0
 27 59  1  0  0  0
 27 60  1  0  0  0
 28 29  1  0  0  0
 28 61  1  0  0  0
 28 62  1  0  0  0
 29 34  2  0  0  0
 29 30  1  0  0  0
 30 31  2  0  0  0
 31 32  1  0  0  0
 31 63  1  0  0  0
 32 33  2  0  0  0
 32 64  1  0  0  0
 33 34  1  0  0  0
 33 65  1  0  0  0
 34 66  1  0  0  0
 35 36  2  0  0  0
 35 37  1  0  0  0
 37 41  1  0  0  0
 37 38  1  0  0  0
 37 67  1  0  0  0
 38 39  1  0  0  0
 38 68  1  0  0  0
 38 69  1  0  0  0
 39 40  1  0  0  0
 39 70  1  0  0  0
 39 71  1  0  0  0
 40 41  1  0  0  0
 40 72  1  0  0  0
 40 73  1  0  0  0
 41 74  1  0  0  0
 41 75  1  0  0  0
M  END
> <i_i_glide_confnum>
1644

> <i_i_glide_lignum>
4250

> <i_i_glide_posenum>
383

> <i_i_glide_rotatable_bonds>
10

> <i_m_Source_File_Index>
1632

> <b_m_subgroup_collapsed>
0

> <r_i_docking_score>
-4.85106

> <r_i_glide_ecoul>
-1.68101

> <r_i_glide_eff_state_penalty>
0

> <r_i_glide_einternal>
6.8832

> <r_i_glide_emodel>
-47.1098

> <r_i_glide_energy>
-41.1098

> <r_i_glide_erotb>
0.654383

> <r_i_glide_esite>
-0.0831034

> <r_i_glide_evdw>
-39.4287

> <r_i_glide_gscore>
-4.85106

> <r_i_glide_hbond>
0

> <r_i_glide_ligand_efficiency>
-0.124386

> <r_i_glide_ligand_efficiency_ln>
-1.0402

> <r_i_glide_ligand_efficiency_sa>
-0.421819

> <r_i_glide_lipo>
-2.60553

> <r_i_glide_metal>
0

> <r_i_glide_rewards>
-0.593215

> <s_i_glide_gridfile>
wee1_glide-grid

> <s_m_Source_File>
wee1_decoys_glide_SP.sdf

> <s_m_Source_Path>
/Users/zhangxujun/Desktop

> <s_m_entry_id>
1907

> <s_m_entry_name>
wee1_decoys_glide_SP.1632

> <s_m_subgroup_title>
wee1_decoys_glide_SP

> <s_m_subgroupid>
wee1_decoys_glide_SP


$$$$
