ZINC40476489_2068
                    3D
 Schrodinger Suite 2024-2.
 62 65  0  0  1  0            999 V2000
    2.0018   52.1254   16.3430 C   0  0  0  0  0  0
    2.9868   52.6727   17.3912 C   0  0  0  0  0  0
    3.3309   54.1484   17.1083 C   0  0  0  0  0  0
    2.4582   52.4553   18.8232 C   0  0  0  0  0  0
    3.5927   52.8961   20.1879 S   0  0  0  0  0  0
    2.4864   52.7583   21.6031 C   0  0  0  0  0  0
    1.2105   52.2809   21.4879 N   0  0  0  0  0  0
    0.8478   52.0501   20.5817 H   0  0  0  0  0  0
    0.3154   52.1440   22.4863 C   0  0  0  0  0  0
   -0.8417   51.8306   22.2293 O   0  0  0  0  0  0
    0.8662   52.4497   23.8014 C   0  0  0  0  0  0
    2.1208   52.9659   23.8498 C   0  0  0  0  0  0
    2.9249   53.1194   22.7588 N   0  0  0  0  0  0
    2.7044   53.2966   25.0368 N   0  0  0  0  0  0
    2.1560   53.0123   26.2662 C   0  0  0  0  0  0
    0.8876   52.5151   26.3590 C   0  0  0  0  0  0
    0.0268   52.2356   25.0847 C   0  0  2  0  0  0
   -0.7466   53.0063   25.0793 H   0  0  0  0  0  0
   -0.7492   50.9102   25.1231 C   0  0  0  0  0  0
   -2.1430   50.9092   25.2202 C   0  0  0  0  0  0
   -2.8354   49.7071   25.3040 C   0  0  0  0  0  0
   -2.1428   48.4883   25.2818 C   0  0  0  0  0  0
   -0.7489   48.4968   25.1448 C   0  0  0  0  0  0
   -0.0552   49.6992   25.0732 C   0  0  0  0  0  0
   -2.8571   47.1820   25.4223 C   0  0  0  0  0  0
   -2.3435   46.0968   25.1343 O   0  0  0  0  0  0
   -4.1019   47.3078   25.9498 O   0  0  0  0  0  0
   -4.8909   46.1633   26.2362 C   0  0  0  0  0  0
    0.2679   52.3076   27.6886 C   0  0  0  0  0  0
   -0.9314   52.0967   27.8480 O   0  0  0  0  0  0
    1.1811   52.4923   28.9072 C   0  0  0  0  0  0
    2.2029   53.6502   28.7416 C   0  0  0  0  0  0
    3.0427   53.3649   27.4655 C   0  0  0  0  0  0
    1.4748   55.0150   28.6130 C   0  0  0  0  0  0
    3.1364   53.5877   29.9657 C   0  0  0  0  0  0
    1.0460   52.6495   16.3770 H   0  0  0  0  0  0
    1.8072   51.0642   16.5029 H   0  0  0  0  0  0
    2.4040   52.2281   15.3340 H   0  0  0  0  0  0
    3.9041   52.0932   17.2936 H   0  0  0  0  0  0
    2.4539   54.7899   17.2080 H   0  0  0  0  0  0
    4.0926   54.5199   17.7936 H   0  0  0  0  0  0
    3.7214   54.2749   16.0974 H   0  0  0  0  0  0
    1.5374   53.0318   18.9333 H   0  0  0  0  0  0
    2.1948   51.4029   18.9450 H   0  0  0  0  0  0
    3.6556   53.6210   24.9835 H   0  0  0  0  0  0
   -2.6937   51.8370   25.2594 H   0  0  0  0  0  0
   -3.9112   49.7383   25.4058 H   0  0  0  0  0  0
   -0.1826   47.5759   25.1292 H   0  0  0  0  0  0
    1.0222   49.6876   24.9935 H   0  0  0  0  0  0
   -5.8380   46.4707   26.6800 H   0  0  0  0  0  0
   -5.1101   45.5993   25.3289 H   0  0  0  0  0  0
   -4.3817   45.5064   26.9433 H   0  0  0  0  0  0
    0.5622   52.6033   29.7989 H   0  0  0  0  0  0
    1.7143   51.5473   29.0152 H   0  0  0  0  0  0
    3.7408   52.5340   27.5876 H   0  0  0  0  0  0
    3.6257   54.2676   27.2689 H   0  0  0  0  0  0
    2.1848   55.8434   28.6314 H   0  0  0  0  0  0
    0.9121   55.1041   27.6831 H   0  0  0  0  0  0
    0.7775   55.1715   29.4368 H   0  0  0  0  0  0
    3.8446   54.4186   29.9788 H   0  0  0  0  0  0
    2.5507   53.6233   30.8817 H   0  0  0  0  0  0
    3.7164   52.6624   29.9959 H   0  0  0  0  0  0
  1  2  1  0  0  0
  1 36  1  0  0  0
  1 37  1  0  0  0
  1 38  1  0  0  0
  2  3  1  0  0  0
  2  4  1  0  0  0
  2 39  1  0  0  0
  3 40  1  0  0  0
  3 41  1  0  0  0
  3 42  1  0  0  0
  4  5  1  0  0  0
  4 43  1  0  0  0
  4 44  1  0  0  0
  5  6  1  0  0  0
  6 13  2  0  0  0
  6  7  1  0  0  0
  7  8  1  0  0  0
  7  9  1  0  0  0
  9 10  2  0  0  0
  9 11  1  0  0  0
 11 17  1  0  0  0
 11 12  2  0  0  0
 12 13  1  0  0  0
 12 14  1  0  0  0
 14 15  1  0  0  0
 14 45  1  0  0  0
 15 33  1  0  0  0
 15 16  2  0  0  0
 16 17  1  0  0  0
 16 29  1  0  0  0
 17 18  1  0  0  0
 17 19  1  0  0  0
 19 24  2  0  0  0
 19 20  1  0  0  0
 20 21  2  0  0  0
 20 46  1  0  0  0
 21 22  1  0  0  0
 21 47  1  0  0  0
 22 23  2  0  0  0
 22 25  1  0  0  0
 23 24  1  0  0  0
 23 48  1  0  0  0
 24 49  1  0  0  0
 25 26  2  0  0  0
 25 27  1  0  0  0
 27 28  1  0  0  0
 28 50  1  0  0  0
 28 51  1  0  0  0
 28 52  1  0  0  0
 29 30  2  0  0  0
 29 31  1  0  0  0
 31 32  1  0  0  0
 31 53  1  0  0  0
 31 54  1  0  0  0
 32 33  1  0  0  0
 32 34  1  0  0  0
 32 35  1  0  0  0
 33 55  1  0  0  0
 33 56  1  0  0  0
 34 57  1  0  0  0
 34 58  1  0  0  0
 34 59  1  0  0  0
 35 60  1  0  0  0
 35 61  1  0  0  0
 35 62  1  0  0  0
M  END
> <i_i_glide_confnum>
14

> <i_i_glide_lignum>
2069

> <i_i_glide_posenum>
41

> <i_i_glide_rotatable_bonds>
6

> <i_m_Source_File_Index>
1013

> <b_m_subgroup_collapsed>
0

> <r_i_docking_score>
-3.79218

> <r_i_glide_ecoul>
-2.58645

> <r_i_glide_eff_state_penalty>
0

> <r_i_glide_einternal>
3.97359

> <r_i_glide_emodel>
-46.4547

> <r_i_glide_energy>
-39.1663

> <r_i_glide_erotb>
0.369267

> <r_i_glide_esite>
-0.0859226

> <r_i_glide_evdw>
-36.5799

> <r_i_glide_gscore>
-3.79218

> <r_i_glide_hbond>
-0.0401276

> <r_i_glide_ligand_efficiency>
-0.114914

> <r_i_glide_ligand_efficiency_ln>
-0.843361

> <r_i_glide_ligand_efficiency_sa>
-0.368592

> <r_i_glide_lipo>
-1.51683

> <r_i_glide_metal>
0

> <r_i_glide_rewards>
-0.301606

> <s_i_glide_gridfile>
wee1_glide-grid

> <s_m_Source_File>
wee1_decoys_glide_SP.sdf

> <s_m_Source_Path>
/Users/zhangxujun/Desktop

> <s_m_entry_id>
1288

> <s_m_entry_name>
wee1_decoys_glide_SP.1013

> <s_m_subgroup_title>
wee1_decoys_glide_SP

> <s_m_subgroupid>
wee1_decoys_glide_SP


$$$$
