ZINC09846918_4167
                    3D
 Schrodinger Suite 2024-2.
 68 72  0  0  1  0            999 V2000
   -7.8240   51.2943   23.1545 C   0  0  0  0  0  0
   -6.9121   50.6624   24.2173 C   0  0  0  0  0  0
   -5.5939   51.2078   24.1926 O   0  0  0  0  0  0
   -4.6654   50.8022   23.2819 C   0  0  0  0  0  0
   -4.9195   49.9644   22.4136 O   0  0  0  0  0  0
   -3.2955   51.3972   23.4357 C   0  0  0  0  0  0
   -3.0995   52.5218   24.1803 C   0  0  0  0  0  0
   -1.8935   53.0847   24.3991 O   0  0  0  0  0  0
   -0.7513   52.4963   23.9860 C   0  0  0  0  0  0
   -0.7219   51.3603   23.2472 C   0  0  0  0  0  0
   -2.0586   50.7141   22.7570 C   0  0  1  0  0  0
   -2.0706   49.2204   22.9185 C   0  0  0  0  0  0
   -2.0596   48.3934   24.0401 C   0  0  0  0  0  0
   -2.0845   46.9975   23.8707 C   0  0  0  0  0  0
   -2.0971   46.4638   22.5716 C   0  0  0  0  0  0
   -2.1055   47.2985   21.4442 C   0  0  0  0  0  0
   -2.1055   48.6680   21.6636 C   0  0  0  0  0  0
   -2.1453   49.6402   20.6631 N   0  0  0  0  0  0
   -2.1477   50.8905   21.2088 C   0  0  0  0  0  0
   -2.1960   51.9745   20.6172 O   0  0  0  0  0  0
   -2.1725   49.2908   19.2031 C   0  0  0  0  0  0
   -2.1519   47.7499   19.0389 C   0  0  0  0  0  0
   -2.1220   46.8425   20.0416 C   0  0  0  0  0  0
   -2.0915   45.3454   19.7718 C   0  0  0  0  0  0
   -0.8832   49.8372   18.5473 C   0  0  0  0  0  0
   -3.5018   49.8003   18.6003 C   0  0  0  0  0  0
   -2.0965   46.0967   24.9141 O   0  0  0  0  0  0
   -2.1409   46.5742   26.2557 C   0  0  0  0  0  0
    0.5956   50.7782   22.8667 C   0  0  0  0  0  0
    0.7277   49.8580   22.0618 O   0  0  0  0  0  0
    1.8386   51.4105   23.5074 C   0  0  0  0  0  0
    1.7449   52.9456   23.7051 C   0  0  0  0  0  0
    0.4634   53.2548   24.5159 C   0  0  0  0  0  0
    1.6718   53.6563   22.3371 C   0  0  0  0  0  0
    2.9561   53.4263   24.5332 C   0  0  0  0  0  0
   -4.0030   53.3127   24.8422 N   0  0  0  0  0  0
   -8.8281   50.8732   23.2069 H   0  0  0  0  0  0
   -7.4447   51.1213   22.1464 H   0  0  0  0  0  0
   -7.9089   52.3720   23.2966 H   0  0  0  0  0  0
   -7.3322   50.8498   25.2059 H   0  0  0  0  0  0
   -6.8794   49.5774   24.0990 H   0  0  0  0  0  0
   -2.0404   48.8378   25.0239 H   0  0  0  0  0  0
   -2.1015   45.3925   22.4506 H   0  0  0  0  0  0
   -2.1574   47.3658   18.0290 H   0  0  0  0  0  0
   -2.9720   44.8644   20.1988 H   0  0  0  0  0  0
   -2.0869   45.1293   18.7027 H   0  0  0  0  0  0
   -1.1933   44.8988   20.2001 H   0  0  0  0  0  0
   -0.8112   49.5409   17.5003 H   0  0  0  0  0  0
   -0.8475   50.9266   18.5692 H   0  0  0  0  0  0
    0.0132   49.4758   19.0553 H   0  0  0  0  0  0
   -3.6073   49.4969   17.5578 H   0  0  0  0  0  0
   -4.3649   49.4168   19.1476 H   0  0  0  0  0  0
   -3.5627   50.8886   18.6202 H   0  0  0  0  0  0
   -2.0989   45.7322   26.9464 H   0  0  0  0  0  0
   -1.2957   47.2222   26.4804 H   0  0  0  0  0  0
   -3.0638   47.1211   26.4545 H   0  0  0  0  0  0
    2.7050   51.1104   22.9215 H   0  0  0  0  0  0
    1.9051   50.9292   24.4812 H   0  0  0  0  0  0
    0.3023   54.3305   24.4799 H   0  0  0  0  0  0
    0.5544   52.9668   25.5645 H   0  0  0  0  0  0
    2.5931   53.5244   21.7683 H   0  0  0  0  0  0
    0.8543   53.2966   21.7104 H   0  0  0  0  0  0
    1.5294   54.7281   22.4817 H   0  0  0  0  0  0
    3.8913   53.2966   23.9879 H   0  0  0  0  0  0
    2.8753   54.4893   24.7643 H   0  0  0  0  0  0
    3.0470   52.8969   25.4824 H   0  0  0  0  0  0
   -4.9842   53.0708   24.8408 H   0  0  0  0  0  0
   -3.6995   54.1094   25.3809 H   0  0  0  0  0  0
  1  2  1  0  0  0
  1 37  1  0  0  0
  1 38  1  0  0  0
  1 39  1  0  0  0
  2  3  1  0  0  0
  2 40  1  0  0  0
  2 41  1  0  0  0
  3  4  1  0  0  0
  4  5  2  0  0  0
  4  6  1  0  0  0
  6 11  1  0  0  0
  6  7  2  0  0  0
  7  8  1  0  0  0
  7 36  1  0  0  0
  8  9  1  0  0  0
  9 33  1  0  0  0
  9 10  2  0  0  0
 10 11  1  0  0  0
 10 29  1  0  0  0
 11 19  1  0  0  0
 11 12  1  0  0  0
 12 17  2  0  0  0
 12 13  1  0  0  0
 13 14  2  0  0  0
 13 42  1  0  0  0
 14 15  1  0  0  0
 14 27  1  0  0  0
 15 16  2  0  0  0
 15 43  1  0  0  0
 16 23  1  0  0  0
 16 17  1  0  0  0
 17 18  1  0  0  0
 18 19  1  0  0  0
 18 21  1  0  0  0
 19 20  2  0  0  0
 21 22  1  0  0  0
 21 25  1  0  0  0
 21 26  1  0  0  0
 22 23  2  0  0  0
 22 44  1  0  0  0
 23 24  1  0  0  0
 24 45  1  0  0  0
 24 46  1  0  0  0
 24 47  1  0  0  0
 25 48  1  0  0  0
 25 49  1  0  0  0
 25 50  1  0  0  0
 26 51  1  0  0  0
 26 52  1  0  0  0
 26 53  1  0  0  0
 27 28  1  0  0  0
 28 54  1  0  0  0
 28 55  1  0  0  0
 28 56  1  0  0  0
 29 30  2  0  0  0
 29 31  1  0  0  0
 31 32  1  0  0  0
 31 57  1  0  0  0
 31 58  1  0  0  0
 32 33  1  0  0  0
 32 34  1  0  0  0
 32 35  1  0  0  0
 33 59  1  0  0  0
 33 60  1  0  0  0
 34 61  1  0  0  0
 34 62  1  0  0  0
 34 63  1  0  0  0
 35 64  1  0  0  0
 35 65  1  0  0  0
 35 66  1  0  0  0
 36 67  1  0  0  0
 36 68  1  0  0  0
M  END
> <i_i_glide_confnum>
9

> <i_i_glide_lignum>
4168

> <i_i_glide_posenum>
398

> <i_i_glide_rotatable_bonds>
4

> <i_m_Source_File_Index>
4973

> <b_m_subgroup_collapsed>
0

> <r_i_docking_score>
-3.08974

> <r_i_glide_ecoul>
-5.45413

> <r_i_glide_eff_state_penalty>
0

> <r_i_glide_einternal>
6.63123

> <r_i_glide_emodel>
-32.9769

> <r_i_glide_energy>
-30.7518

> <r_i_glide_erotb>
0.16788

> <r_i_glide_esite>
-0.00118567

> <r_i_glide_evdw>
-25.2977

> <r_i_glide_gscore>
-3.08974

> <r_i_glide_hbond>
-0.260482

> <r_i_glide_ligand_efficiency>
-0.085826

> <r_i_glide_ligand_efficiency_ln>
-0.674097

> <r_i_glide_ligand_efficiency_sa>
-0.283391

> <r_i_glide_lipo>
-0.806358

> <r_i_glide_metal>
0

> <r_i_glide_rewards>
-0.106587

> <s_i_glide_gridfile>
wee1_glide-grid

> <s_m_Source_File>
wee1_decoys_glide_SP.sdf

> <s_m_Source_Path>
/Users/zhangxujun/Desktop

> <s_m_entry_id>
5248

> <s_m_entry_name>
wee1_decoys_glide_SP.4973

> <s_m_subgroup_title>
wee1_decoys_glide_SP

> <s_m_subgroupid>
wee1_decoys_glide_SP


$$$$
