ZINC33113247_2723
                    3D
 Schrodinger Suite 2024-2.
 59 62  0  0  1  0            999 V2000
   11.9806   49.2506   14.2551 C   0  0  0  0  0  0
   10.9066   50.1696   14.8082 C   0  0  0  0  0  0
   10.4902   50.0430   16.1332 C   0  0  0  0  0  0
    9.5042   50.8865   16.6410 C   0  0  0  0  0  0
    8.9102   51.8582   15.8301 C   0  0  0  0  0  0
    9.3614   52.0243   14.5011 C   0  0  0  0  0  0
   10.3488   51.1651   14.0034 C   0  0  0  0  0  0
    8.8717   53.1453   13.5924 C   0  0  0  0  0  0
    7.9008   52.6294   16.4326 N   0  0  0  0  0  0
    6.6209   52.7363   16.0040 C   0  0  0  0  0  0
    6.2728   52.3790   14.8753 O   0  0  0  0  0  0
    5.7479   53.2971   16.8907 N   0  0  0  0  0  0
    4.3380   53.5116   16.4875 C   0  0  0  0  0  0
    3.8759   54.8745   17.0596 C   0  0  0  0  0  0
    4.1329   55.0133   18.5725 C   0  0  0  0  0  0
    5.6144   54.7166   18.8666 C   0  0  2  0  0  0
    6.2110   55.4192   18.2781 H   0  0  0  0  0  0
    5.9589   53.2966   18.3595 C   0  0  0  0  0  0
    5.9789   54.8967   20.3301 C   0  0  0  0  0  0
    7.0137   55.6033   20.7095 N   0  0  0  0  0  0
    7.1994   55.6113   22.0815 N   0  0  0  0  0  0
    6.3083   54.9240   22.7586 C   0  0  0  0  0  0
    5.1418   54.1664   21.6819 S   0  0  0  0  0  0
    6.2194   54.8111   24.2021 C   0  0  0  0  0  0
    7.1043   55.2919   24.9127 O   0  0  0  0  0  0
    5.0951   54.2277   24.6731 N   0  0  0  0  0  0
    4.6479   54.0974   26.0066 C   0  0  0  0  0  0
    5.5021   54.2046   27.1195 C   0  0  0  0  0  0
    5.0010   54.0905   28.4136 C   0  0  0  0  0  0
    3.6456   53.8499   28.6183 C   0  0  0  0  0  0
    2.7901   53.7219   27.5260 C   0  0  0  0  0  0
    3.2784   53.8420   26.2200 C   0  0  0  0  0  0
    2.2997   53.6963   25.0582 C   0  0  0  0  0  0
   12.8031   49.1573   14.9641 H   0  0  0  0  0  0
   11.5755   48.2532   14.0798 H   0  0  0  0  0  0
   12.4007   49.6301   13.3200 H   0  0  0  0  0  0
   10.9248   49.2884   16.7721 H   0  0  0  0  0  0
    9.1906   50.7611   17.6684 H   0  0  0  0  0  0
   10.6948   51.2741   12.9845 H   0  0  0  0  0  0
    9.6757   53.4972   12.9451 H   0  0  0  0  0  0
    8.0528   52.8000   12.9612 H   0  0  0  0  0  0
    8.5423   54.0127   14.1649 H   0  0  0  0  0  0
    8.0788   52.9040   17.3850 H   0  0  0  0  0  0
    3.7350   52.7025   16.9037 H   0  0  0  0  0  0
    4.2138   53.5401   15.4032 H   0  0  0  0  0  0
    2.8139   55.0111   16.8534 H   0  0  0  0  0  0
    4.3808   55.6799   16.5228 H   0  0  0  0  0  0
    3.4894   54.3098   19.1022 H   0  0  0  0  0  0
    3.8734   56.0282   18.8749 H   0  0  0  0  0  0
    6.9732   53.0299   18.6484 H   0  0  0  0  0  0
    5.2721   52.5607   18.7819 H   0  0  0  0  0  0
    4.4319   53.9192   23.9799 H   0  0  0  0  0  0
    6.5624   54.3679   27.0137 H   0  0  0  0  0  0
    5.6712   54.1895   29.2541 H   0  0  0  0  0  0
    3.2583   53.7571   29.6216 H   0  0  0  0  0  0
    1.7415   53.5284   27.7002 H   0  0  0  0  0  0
    2.5854   52.8540   24.4276 H   0  0  0  0  0  0
    1.2751   53.5356   25.3952 H   0  0  0  0  0  0
    2.3108   54.5930   24.4373 H   0  0  0  0  0  0
  1  2  1  0  0  0
  1 34  1  0  0  0
  1 35  1  0  0  0
  1 36  1  0  0  0
  2  7  2  0  0  0
  2  3  1  0  0  0
  3  4  2  0  0  0
  3 37  1  0  0  0
  4  5  1  0  0  0
  4 38  1  0  0  0
  5  6  2  0  0  0
  5  9  1  0  0  0
  6  7  1  0  0  0
  6  8  1  0  0  0
  7 39  1  0  0  0
  8 40  1  0  0  0
  8 41  1  0  0  0
  8 42  1  0  0  0
  9 10  1  0  0  0
  9 43  1  0  0  0
 10 11  2  0  0  0
 10 12  1  0  0  0
 12 18  1  0  0  0
 12 13  1  0  0  0
 13 14  1  0  0  0
 13 44  1  0  0  0
 13 45  1  0  0  0
 14 15  1  0  0  0
 14 46  1  0  0  0
 14 47  1  0  0  0
 15 16  1  0  0  0
 15 48  1  0  0  0
 15 49  1  0  0  0
 16 17  1  0  0  0
 16 18  1  0  0  0
 16 19  1  0  0  0
 18 50  1  0  0  0
 18 51  1  0  0  0
 19 23  1  0  0  0
 19 20  2  0  0  0
 20 21  1  0  0  0
 21 22  2  0  0  0
 22 23  1  0  0  0
 22 24  1  0  0  0
 24 25  2  0  0  0
 24 26  1  0  0  0
 26 27  1  0  0  0
 26 52  1  0  0  0
 27 32  2  0  0  0
 27 28  1  0  0  0
 28 29  2  0  0  0
 28 53  1  0  0  0
 29 30  1  0  0  0
 29 54  1  0  0  0
 30 31  2  0  0  0
 30 55  1  0  0  0
 31 32  1  0  0  0
 31 56  1  0  0  0
 32 33  1  0  0  0
 33 57  1  0  0  0
 33 58  1  0  0  0
 33 59  1  0  0  0
M  END
> <i_i_glide_confnum>
273

> <i_i_glide_lignum>
2724

> <i_i_glide_posenum>
374

> <i_i_glide_rotatable_bonds>
7

> <i_m_Source_File_Index>
4712

> <b_m_subgroup_collapsed>
0

> <r_i_docking_score>
-5.75693

> <r_i_glide_ecoul>
-2.61712

> <r_i_glide_eff_state_penalty>
0

> <r_i_glide_einternal>
8.5532

> <r_i_glide_emodel>
-60.9926

> <r_i_glide_energy>
-47.6893

> <r_i_glide_erotb>
0.694136

> <r_i_glide_esite>
-0.083446

> <r_i_glide_evdw>
-45.0721

> <r_i_glide_gscore>
-5.75693

> <r_i_glide_hbond>
-0.32

> <r_i_glide_ligand_efficiency>
-0.179904

> <r_i_glide_ligand_efficiency_ln>
-1.28913

> <r_i_glide_ligand_efficiency_sa>
-0.571159

> <r_i_glide_lipo>
-2.62413

> <r_i_glide_metal>
0

> <r_i_glide_rewards>
-0.77731

> <s_i_glide_gridfile>
wee1_glide-grid

> <s_m_Source_File>
wee1_decoys_glide_SP.sdf

> <s_m_Source_Path>
/Users/zhangxujun/Desktop

> <s_m_entry_id>
4987

> <s_m_entry_name>
wee1_decoys_glide_SP.4712

> <s_m_subgroup_title>
wee1_decoys_glide_SP

> <s_m_subgroupid>
wee1_decoys_glide_SP


$$$$
