ZINC15946760_570
                    3D
 Schrodinger Suite 2024-2.
 71 74  0  0  1  0            999 V2000
    1.0353   53.0585   28.6475 C   0  0  0  0  0  0
    1.1636   51.8295   27.7304 C   0  0  0  0  0  0
    0.1024   51.8055   26.6283 C   0  0  0  0  0  0
   -1.1275   51.2133   26.9406 C   0  0  0  0  0  0
   -2.1586   51.1679   26.0082 C   0  0  0  0  0  0
   -1.9726   51.7175   24.7458 C   0  0  0  0  0  0
   -0.7508   52.2956   24.4119 C   0  0  0  0  0  0
    0.3084   52.3497   25.3397 C   0  0  0  0  0  0
    1.5784   52.9008   25.0340 N   0  0  0  0  0  0
    2.0221   53.4771   23.8900 C   0  0  0  0  0  0
    1.3269   53.6839   22.8956 O   0  0  0  0  0  0
    3.4513   53.7813   23.8527 C   0  0  0  0  0  0
    4.2477   54.2472   24.9489 C   0  0  0  0  0  0
    5.5962   54.4319   24.6001 C   0  0  0  0  0  0
    5.8570   54.1065   22.9181 S   0  0  0  0  0  0
    4.1793   53.7645   22.6470 C   0  0  0  0  0  0
    3.6515   53.5201   21.3724 N   0  0  0  0  0  0
    4.2908   53.3392   20.1985 C   0  0  0  0  0  0
    5.5050   53.2468   20.0705 O   0  0  0  0  0  0
    3.3827   53.2545   18.9604 C   0  0  0  0  0  0
    3.5551   52.2514   16.6640 C   0  0  0  0  0  0
    4.4290   52.1152   15.4077 C   0  0  0  0  0  0
    4.6087   53.4698   14.7096 C   0  0  0  0  0  0
    5.1835   54.5157   15.6785 C   0  0  0  0  0  0
    4.3474   54.6709   16.9761 C   0  0  2  0  0  0
    3.3266   54.9804   16.7355 H   0  0  0  0  0  0
    4.9884   55.6740   17.9773 C   0  0  0  0  0  0
    5.1845   57.0983   17.4254 C   0  0  0  0  0  0
    6.7255   54.9052   25.4974 C   0  0  0  0  0  0
    6.9429   54.0487   26.7633 C   0  0  0  0  0  0
    5.8828   54.2243   27.8639 C   0  0  0  0  0  0
    4.4516   53.7919   27.4924 C   0  0  0  0  0  0
    3.7833   54.5998   26.3581 C   0  0  0  0  0  0
    1.8048   53.0469   29.4209 H   0  0  0  0  0  0
    1.1280   53.9913   28.0917 H   0  0  0  0  0  0
    0.0695   53.0766   29.1534 H   0  0  0  0  0  0
    1.0499   50.9318   28.3418 H   0  0  0  0  0  0
    2.1641   51.7506   27.3084 H   0  0  0  0  0  0
   -1.2900   50.7689   27.9132 H   0  0  0  0  0  0
   -3.0967   50.6977   26.2656 H   0  0  0  0  0  0
   -2.7689   51.6819   24.0180 H   0  0  0  0  0  0
   -0.6703   52.6789   23.4101 H   0  0  0  0  0  0
    2.2593   52.8100   25.7713 H   0  0  0  0  0  0
    2.6395   53.4713   21.3567 H   0  0  0  0  0  0
    2.7050   54.0974   18.8820 H   0  0  0  0  0  0
    2.7988   52.3370   19.0158 H   0  0  0  0  0  0
    2.5455   52.5991   16.4421 H   0  0  0  0  0  0
    3.5042   51.2953   17.1801 H   0  0  0  0  0  0
    3.9760   51.3918   14.7271 H   0  0  0  0  0  0
    5.3988   51.6955   15.6795 H   0  0  0  0  0  0
    3.6464   53.8141   14.3272 H   0  0  0  0  0  0
    5.2599   53.3621   13.8412 H   0  0  0  0  0  0
    5.2468   55.4696   15.1552 H   0  0  0  0  0  0
    6.2046   54.2345   15.9376 H   0  0  0  0  0  0
    5.9506   55.2920   18.3225 H   0  0  0  0  0  0
    4.3631   55.7731   18.8637 H   0  0  0  0  0  0
    5.5375   57.7735   18.2051 H   0  0  0  0  0  0
    4.2522   57.5110   17.0377 H   0  0  0  0  0  0
    5.9236   57.1260   16.6249 H   0  0  0  0  0  0
    7.6537   54.9255   24.9277 H   0  0  0  0  0  0
    6.5398   55.9335   25.8106 H   0  0  0  0  0  0
    7.0284   52.9947   26.4940 H   0  0  0  0  0  0
    7.9031   54.3185   27.2040 H   0  0  0  0  0  0
    6.1969   53.6497   28.7381 H   0  0  0  0  0  0
    5.8764   55.2634   28.1972 H   0  0  0  0  0  0
    4.4333   52.7269   27.2575 H   0  0  0  0  0  0
    3.8430   53.9029   28.3896 H   0  0  0  0  0  0
    3.9987   55.6590   26.5021 H   0  0  0  0  0  0
    2.7052   54.5541   26.4777 H   0  0  0  0  0  0
    4.2106   53.2605   17.6412 N   0  3  1  0  0  0
    5.1290   52.8953   17.8698 H   0  0  0  0  0  0
  1  2  1  0  0  0
  1 34  1  0  0  0
  1 35  1  0  0  0
  1 36  1  0  0  0
  2  3  1  0  0  0
  2 37  1  0  0  0
  2 38  1  0  0  0
  3  8  2  0  0  0
  3  4  1  0  0  0
  4  5  2  0  0  0
  4 39  1  0  0  0
  5  6  1  0  0  0
  5 40  1  0  0  0
  6  7  2  0  0  0
  6 41  1  0  0  0
  7  8  1  0  0  0
  7 42  1  0  0  0
  8  9  1  0  0  0
  9 10  1  0  0  0
  9 43  1  0  0  0
 10 11  2  0  0  0
 10 12  1  0  0  0
 12 16  2  0  0  0
 12 13  1  0  0  0
 13 33  1  0  0  0
 13 14  2  0  0  0
 14 15  1  0  0  0
 14 29  1  0  0  0
 15 16  1  0  0  0
 16 17  1  0  0  0
 17 18  1  0  0  0
 17 44  1  0  0  0
 18 19  2  0  0  0
 18 20  1  0  0  0
 20 45  1  0  0  0
 20 46  1  0  0  0
 20 70  1  0  0  0
 21 22  1  0  0  0
 21 47  1  0  0  0
 21 48  1  0  0  0
 21 70  1  0  0  0
 22 23  1  0  0  0
 22 49  1  0  0  0
 22 50  1  0  0  0
 23 24  1  0  0  0
 23 51  1  0  0  0
 23 52  1  0  0  0
 24 25  1  0  0  0
 24 53  1  0  0  0
 24 54  1  0  0  0
 25 26  1  0  0  0
 25 27  1  0  0  0
 25 70  1  0  0  0
 27 28  1  0  0  0
 27 55  1  0  0  0
 27 56  1  0  0  0
 28 57  1  0  0  0
 28 58  1  0  0  0
 28 59  1  0  0  0
 29 30  1  0  0  0
 29 60  1  0  0  0
 29 61  1  0  0  0
 30 31  1  0  0  0
 30 62  1  0  0  0
 30 63  1  0  0  0
 31 32  1  0  0  0
 31 64  1  0  0  0
 31 65  1  0  0  0
 32 33  1  0  0  0
 32 66  1  0  0  0
 32 67  1  0  0  0
 33 68  1  0  0  0
 33 69  1  0  0  0
 70 71  1  0  0  0
M  CHG  1  70   1
M  END
> <i_i_glide_confnum>
232

> <i_i_glide_lignum>
571

> <i_i_glide_posenum>
361

> <i_i_glide_rotatable_bonds>
9

> <i_m_Source_File_Index>
2725

> <b_m_subgroup_collapsed>
0

> <r_i_docking_score>
-5.72106

> <r_i_glide_ecoul>
-4.37056

> <r_i_glide_eff_state_penalty>
0

> <r_i_glide_einternal>
4.85858

> <r_i_glide_emodel>
-62.4617

> <r_i_glide_energy>
-45.5503

> <r_i_glide_erotb>
0.643469

> <r_i_glide_esite>
-0.0665999

> <r_i_glide_evdw>
-41.1798

> <r_i_glide_gscore>
-5.72106

> <r_i_glide_hbond>
0

> <r_i_glide_ligand_efficiency>
-0.173365

> <r_i_glide_ligand_efficiency_ln>
-1.27233

> <r_i_glide_ligand_efficiency_sa>
-0.556075

> <r_i_glide_lipo>
-2.93983

> <r_i_glide_metal>
0

> <r_i_glide_rewards>
-0.643525

> <s_i_glide_gridfile>
wee1_glide-grid

> <s_m_Source_File>
wee1_decoys_glide_SP.sdf

> <s_m_Source_Path>
/Users/zhangxujun/Desktop

> <s_m_entry_id>
3000

> <s_m_entry_name>
wee1_decoys_glide_SP.2725

> <s_m_subgroup_title>
wee1_decoys_glide_SP

> <s_m_subgroupid>
wee1_decoys_glide_SP


$$$$
