ZINC06922965_1724
                    3D
 Schrodinger Suite 2024-2.
 35 36  0  0  1  0            999 V2000
    5.8208   54.5389   20.0006 C   0  0  0  0  0  0
    5.6534   54.5032   21.5098 C   0  0  0  0  0  0
    6.7039   54.8968   22.3440 C   0  0  0  0  0  0
    6.5396   54.8879   23.7257 C   0  0  0  0  0  0
    5.3141   54.4890   24.2764 C   0  0  0  0  0  0
    4.2663   54.0972   23.4387 C   0  0  0  0  0  0
    4.4358   54.0995   22.0588 C   0  0  0  0  0  0
    5.0341   54.4575   25.6502 N   0  0  0  0  0  0
    5.8717   54.4431   26.7072 C   0  0  0  0  0  0
    7.0954   54.5170   26.6389 O   0  0  0  0  0  0
    5.2584   54.3149   27.9003 N   0  0  0  0  0  0
    3.8108   54.2896   28.1957 C   0  0  1  0  0  0
    3.3683   55.2342   27.8638 H   0  0  0  0  0  0
    3.0718   53.0765   27.5678 C   0  0  0  0  0  0
    2.5641   52.1968   28.7187 C   0  0  0  0  0  0
    3.3485   52.6600   29.9444 C   0  0  0  0  0  0
    3.5804   54.1576   29.7183 C   0  0  2  0  0  0
    4.4223   54.5120   30.3147 H   0  0  0  0  0  0
    2.4168   54.8794   30.0792 O   0  0  0  0  0  0
    6.5977   55.2479   19.7060 H   0  0  0  0  0  0
    6.0757   53.5495   19.6138 H   0  0  0  0  0  0
    4.8977   54.8628   19.5166 H   0  0  0  0  0  0
    7.6472   55.2155   21.9227 H   0  0  0  0  0  0
    7.3649   55.2111   24.3401 H   0  0  0  0  0  0
    3.3161   53.7877   23.8485 H   0  0  0  0  0  0
    3.6179   53.8046   21.4166 H   0  0  0  0  0  0
    4.0642   54.3170   25.8736 H   0  0  0  0  0  0
    5.8729   54.3435   28.7039 H   0  0  0  0  0  0
    3.7247   52.4970   26.9173 H   0  0  0  0  0  0
    2.2226   53.4058   26.9650 H   0  0  0  0  0  0
    1.4987   52.3598   28.8736 H   0  0  0  0  0  0
    2.7035   51.1336   28.5200 H   0  0  0  0  0  0
    2.8398   52.4461   30.8865 H   0  0  0  0  0  0
    4.3102   52.1482   29.9852 H   0  0  0  0  0  0
    1.6701   54.5134   29.5987 H   0  0  0  0  0  0
  1  2  1  0  0  0
  1 20  1  0  0  0
  1 21  1  0  0  0
  1 22  1  0  0  0
  2  7  2  0  0  0
  2  3  1  0  0  0
  3  4  2  0  0  0
  3 23  1  0  0  0
  4  5  1  0  0  0
  4 24  1  0  0  0
  5  6  2  0  0  0
  5  8  1  0  0  0
  6  7  1  0  0  0
  6 25  1  0  0  0
  7 26  1  0  0  0
  8  9  1  0  0  0
  8 27  1  0  0  0
  9 10  2  0  0  0
  9 11  1  0  0  0
 11 12  1  0  0  0
 11 28  1  0  0  0
 12 13  1  0  0  0
 12 17  1  0  0  0
 12 14  1  0  0  0
 14 15  1  0  0  0
 14 29  1  0  0  0
 14 30  1  0  0  0
 15 16  1  0  0  0
 15 31  1  0  0  0
 15 32  1  0  0  0
 16 17  1  0  0  0
 16 33  1  0  0  0
 16 34  1  0  0  0
 17 18  1  0  0  0
 17 19  1  0  0  0
 19 35  1  0  0  0
M  END
> <i_i_glide_confnum>
120

> <i_i_glide_lignum>
1725

> <i_i_glide_posenum>
303

> <i_i_glide_rotatable_bonds>
5

> <i_m_Source_File_Index>
65

> <b_m_subgroup_collapsed>
0

> <r_i_docking_score>
-5.30207

> <r_i_glide_ecoul>
-5.47181

> <r_i_glide_eff_state_penalty>
0

> <r_i_glide_einternal>
2.8841

> <r_i_glide_emodel>
-42.9394

> <r_i_glide_energy>
-34.5396

> <r_i_glide_erotb>
1.25123

> <r_i_glide_esite>
0

> <r_i_glide_evdw>
-29.0678

> <r_i_glide_gscore>
-5.30207

> <r_i_glide_hbond>
-0.535715

> <r_i_glide_ligand_efficiency>
-0.311886

> <r_i_glide_ligand_efficiency_ln>
-1.38319

> <r_i_glide_ligand_efficiency_sa>
-0.801947

> <r_i_glide_lipo>
-2.19522

> <r_i_glide_metal>
0

> <r_i_glide_rewards>
-1.54819

> <s_i_glide_gridfile>
wee1_glide-grid

> <s_m_Source_File>
wee1_decoys_glide_SP.sdf

> <s_m_Source_Path>
/Users/zhangxujun/Desktop

> <s_m_entry_id>
340

> <s_m_entry_name>
wee1_decoys_glide_SP.65

> <s_m_subgroup_title>
wee1_decoys_glide_SP

> <s_m_subgroupid>
wee1_decoys_glide_SP


$$$$
