ZINC36050016_5654
                    3D
 Schrodinger Suite 2024-2.
 63 67  0  0  1  0            999 V2000
    0.1986   51.4465   26.4194 C   0  0  0  0  0  0
    0.5099   51.0884   24.9583 C   0  0  0  0  0  0
    1.6575   51.7860   24.4822 O   0  0  0  0  0  0
    1.5892   53.0481   24.0229 C   0  0  0  0  0  0
    0.5503   53.6995   23.9208 O   0  0  0  0  0  0
    2.8872   53.5571   23.5812 C   0  0  0  0  0  0
    3.9049   53.8970   24.4466 C   0  0  0  0  0  0
    5.0954   54.3775   23.9709 N   0  0  0  0  0  0
    5.2973   54.4968   22.7203 C   0  0  0  0  0  0
    4.4211   54.1878   21.6828 N   0  0  0  0  0  0
    3.0491   53.6915   22.0266 C   0  0  1  0  0  0
    2.4205   54.5196   21.7122 H   0  0  0  0  0  0
    2.5064   52.4973   21.1925 C   0  0  0  0  0  0
    1.1360   52.4962   20.8897 C   0  0  0  0  0  0
    0.5541   51.4954   20.1175 C   0  0  0  0  0  0
    1.3434   50.4655   19.6220 C   0  0  0  0  0  0
    2.7036   50.4410   19.9118 C   0  0  0  0  0  0
    3.2932   51.4413   20.6968 C   0  0  0  0  0  0
    4.7772   51.3410   20.9735 C   0  0  0  0  0  0
    4.8708   54.5690   20.4169 C   0  0  0  0  0  0
    6.0676   55.1829   20.4685 C   0  0  0  0  0  0
    6.7414   55.2971   22.0816 S   0  0  0  0  0  0
    4.1856   54.2856   19.1619 C   0  0  0  0  0  0
    4.7439   54.0698   17.9515 C   0  0  0  0  0  0
    5.9743   54.0980   17.5855 O   0  5  0  0  0  0
    4.0190   53.7562   16.8307 N   0  0  0  0  0  0
    2.5880   53.4916   16.7070 C   0  0  0  0  0  0
    1.7020   54.7096   16.3581 C   0  0  0  0  0  0
    1.9939   56.0940   16.8854 C   0  0  0  0  0  0
    2.1809   55.7827   15.4094 C   0  0  0  0  0  0
    3.8914   53.8964   25.9669 C   0  0  0  0  0  0
    5.0886   53.6966   26.6873 C   0  0  0  0  0  0
    5.1212   53.6985   28.0783 C   0  0  0  0  0  0
    3.9460   53.9008   28.7911 C   0  0  0  0  0  0
    2.7464   54.0998   28.1180 C   0  0  0  0  0  0
    2.7245   54.0961   26.7250 C   0  0  0  0  0  0
   -0.6224   50.8381   26.8008 H   0  0  0  0  0  0
    1.0635   51.2711   27.0587 H   0  0  0  0  0  0
   -0.0893   52.4931   26.5201 H   0  0  0  0  0  0
   -0.3550   51.2706   24.3183 H   0  0  0  0  0  0
    0.7213   50.0209   24.8916 H   0  0  0  0  0  0
    0.5111   53.2950   21.2516 H   0  0  0  0  0  0
   -0.5020   51.5255   19.8956 H   0  0  0  0  0  0
    0.9082   49.6913   19.0073 H   0  0  0  0  0  0
    3.3050   49.6432   19.4990 H   0  0  0  0  0  0
    5.1720   50.4806   20.4818 H   0  0  0  0  0  0
    5.3539   52.1385   20.5249 H   0  0  0  0  0  0
    4.9975   51.2984   22.0391 H   0  0  0  0  0  0
    6.6275   55.5513   19.6210 H   0  0  0  0  0  0
    3.1108   54.2311   19.2159 H   0  0  0  0  0  0
    4.5072   53.8338   15.9526 H   0  0  0  0  0  0
    2.2273   53.0188   17.6216 H   0  0  0  0  0  0
    2.4708   52.7329   15.9326 H   0  0  0  0  0  0
    0.6527   54.4218   16.2898 H   0  0  0  0  0  0
    2.8747   56.2522   17.5082 H   0  0  0  0  0  0
    1.1525   56.7135   17.1987 H   0  0  0  0  0  0
    1.4724   56.1885   14.6870 H   0  0  0  0  0  0
    3.1923   55.7200   15.0057 H   0  0  0  0  0  0
    6.0171   53.5221   26.1626 H   0  0  0  0  0  0
    6.0547   53.5409   28.5988 H   0  0  0  0  0  0
    3.9688   53.9038   29.8704 H   0  0  0  0  0  0
    1.8333   54.2628   28.6716 H   0  0  0  0  0  0
    1.7736   54.2808   26.2565 H   0  0  0  0  0  0
  1  2  1  0  0  0
  1 37  1  0  0  0
  1 38  1  0  0  0
  1 39  1  0  0  0
  2  3  1  0  0  0
  2 40  1  0  0  0
  2 41  1  0  0  0
  3  4  1  0  0  0
  4  5  2  0  0  0
  4  6  1  0  0  0
  6 11  1  0  0  0
  6  7  2  0  0  0
  7  8  1  0  0  0
  7 31  1  0  0  0
  8  9  2  0  0  0
  9 22  1  0  0  0
  9 10  1  0  0  0
 10 11  1  0  0  0
 10 20  1  0  0  0
 11 12  1  0  0  0
 11 13  1  0  0  0
 13 18  2  0  0  0
 13 14  1  0  0  0
 14 15  2  0  0  0
 14 42  1  0  0  0
 15 16  1  0  0  0
 15 43  1  0  0  0
 16 17  2  0  0  0
 16 44  1  0  0  0
 17 18  1  0  0  0
 17 45  1  0  0  0
 18 19  1  0  0  0
 19 46  1  0  0  0
 19 47  1  0  0  0
 19 48  1  0  0  0
 20 21  2  0  0  0
 20 23  1  0  0  0
 21 22  1  0  0  0
 21 49  1  0  0  0
 23 24  2  0  0  0
 23 50  1  0  0  0
 24 25  1  0  0  0
 24 26  1  0  0  0
 26 27  1  0  0  0
 26 51  1  0  0  0
 27 28  1  0  0  0
 27 52  1  0  0  0
 27 53  1  0  0  0
 28 30  1  0  0  0
 28 29  1  0  0  0
 28 54  1  0  0  0
 29 30  1  0  0  0
 29 55  1  0  0  0
 29 56  1  0  0  0
 30 57  1  0  0  0
 30 58  1  0  0  0
 31 36  2  0  0  0
 31 32  1  0  0  0
 32 33  2  0  0  0
 32 59  1  0  0  0
 33 34  1  0  0  0
 33 60  1  0  0  0
 34 35  2  0  0  0
 34 61  1  0  0  0
 35 36  1  0  0  0
 35 62  1  0  0  0
 36 63  1  0  0  0
M  CHG  1  25  -1
M  END
> <i_i_glide_confnum>
149

> <i_i_glide_lignum>
5655

> <i_i_glide_posenum>
242

> <i_i_glide_rotatable_bonds>
9

> <i_m_Source_File_Index>
4116

> <b_m_subgroup_collapsed>
0

> <r_i_docking_score>
-4.41866

> <r_i_glide_ecoul>
-0.0100977

> <r_i_glide_eff_state_penalty>
0

> <r_i_glide_einternal>
12.1674

> <r_i_glide_emodel>
-45.0789

> <r_i_glide_energy>
-38.6012

> <r_i_glide_erotb>
0.600814

> <r_i_glide_esite>
-0.0169979

> <r_i_glide_evdw>
-38.5911

> <r_i_glide_gscore>
-4.41866

> <r_i_glide_hbond>
0

> <r_i_glide_ligand_efficiency>
-0.126247

> <r_i_glide_ligand_efficiency_ln>
-0.969994

> <r_i_glide_ligand_efficiency_sa>
-0.412964

> <r_i_glide_lipo>
-2.3671

> <r_i_glide_metal>
0

> <r_i_glide_rewards>
-0.704303

> <s_i_glide_gridfile>
wee1_glide-grid

> <s_m_Source_File>
wee1_decoys_glide_SP.sdf

> <s_m_Source_Path>
/Users/zhangxujun/Desktop

> <s_m_entry_id>
4391

> <s_m_entry_name>
wee1_decoys_glide_SP.4116

> <s_m_subgroup_title>
wee1_decoys_glide_SP

> <s_m_subgroupid>
wee1_decoys_glide_SP


$$$$
