ZINC08800966_2854
                    3D
 Schrodinger Suite 2024-2.
 62 66  0  0  1  0            999 V2000
    4.9554   56.0421   16.5444 C   0  0  0  0  0  0
    5.1931   56.9526   17.7579 C   0  0  0  0  0  0
    6.4580   56.5851   18.5188 C   0  0  0  0  0  0
    6.5998   55.7782   19.6606 C   0  0  0  0  0  0
    8.2926   55.6967   20.0853 S   0  0  0  0  0  0
    8.6235   56.7350   18.7460 C   0  0  0  0  0  0
    7.5818   57.1034   18.0523 N   0  0  0  0  0  0
    9.9045   57.1095   18.4816 N   0  0  0  0  0  0
    5.5970   55.0095   20.3481 C   0  0  0  0  0  0
    4.6228   54.5801   19.7311 O   0  0  0  0  0  0
    5.8231   54.8767   21.6840 N   0  0  0  0  0  0
    5.0301   54.3897   22.7090 N   0  0  0  0  0  0
    3.7640   54.2252   22.5787 C   0  0  0  0  0  0
    2.8773   53.7909   23.6644 C   0  0  0  0  0  0
    1.5590   53.4386   23.3693 C   0  0  0  0  0  0
    0.7019   52.9957   24.3730 C   0  0  0  0  0  0
    1.1281   52.8967   25.7132 C   0  0  0  0  0  0
    2.4391   53.2967   25.9981 C   0  0  0  0  0  0
    3.3025   53.7257   24.9949 C   0  0  0  0  0  0
    0.2334   52.4012   26.7300 N   0  0  0  0  0  0
    0.2811   52.4002   28.1307 C   0  0  0  0  0  0
   -0.8955   51.7698   28.5064 C   0  0  0  0  0  0
   -1.6413   51.5255   27.3580 C   0  0  0  0  0  0
   -0.9305   51.8538   26.3082 N   0  0  0  0  0  0
   -3.0478   51.0099   27.2513 C   0  0  0  0  0  0
   -3.7420   51.0593   26.0342 C   0  0  0  0  0  0
   -5.0566   50.6074   25.9515 C   0  0  0  0  0  0
   -5.6847   50.1016   27.0867 C   0  0  0  0  0  0
   -5.0082   50.0429   28.3022 C   0  0  0  0  0  0
   -3.6952   50.4975   28.3834 C   0  0  0  0  0  0
    1.3224   52.9842   29.0827 C   0  0  2  0  0  0
    0.9025   52.8581   30.0827 H   0  0  0  0  0  0
    1.5544   54.5327   28.9433 C   0  0  0  0  0  0
    2.9872   54.9780   29.2314 C   0  0  0  0  0  0
    4.0024   54.1164   29.4186 C   0  0  0  0  0  0
    3.8150   52.6844   29.3495 C   0  0  0  0  0  0
    2.5976   52.1404   29.1781 C   0  0  0  0  0  0
    4.0384   56.3179   16.0224 H   0  0  0  0  0  0
    4.8631   54.9990   16.8484 H   0  0  0  0  0  0
    5.7779   56.1072   15.8316 H   0  0  0  0  0  0
    5.2233   57.9928   17.4286 H   0  0  0  0  0  0
    4.3248   56.8996   18.4150 H   0  0  0  0  0  0
   10.1308   57.6994   17.6951 H   0  0  0  0  0  0
   10.6815   56.7004   18.9937 H   0  0  0  0  0  0
    6.7585   55.0912   21.9959 H   0  0  0  0  0  0
    3.2374   54.4183   21.6493 H   0  0  0  0  0  0
    1.1912   53.4871   22.3529 H   0  0  0  0  0  0
   -0.3010   52.7224   24.0803 H   0  0  0  0  0  0
    2.8453   53.2514   26.9844 H   0  0  0  0  0  0
    4.3136   53.9969   25.2634 H   0  0  0  0  0  0
   -1.2130   51.5771   29.5216 H   0  0  0  0  0  0
   -3.2667   51.4513   25.1473 H   0  0  0  0  0  0
   -5.5854   50.6476   25.0108 H   0  0  0  0  0  0
   -6.7025   49.7455   27.0228 H   0  0  0  0  0  0
   -5.4934   49.6371   29.1780 H   0  0  0  0  0  0
   -3.1756   50.4203   29.3282 H   0  0  0  0  0  0
    1.2910   54.8798   27.9441 H   0  0  0  0  0  0
    0.8764   55.0625   29.6143 H   0  0  0  0  0  0
    3.1971   56.0370   29.2806 H   0  0  0  0  0  0
    4.9912   54.5061   29.6169 H   0  0  0  0  0  0
    4.6799   52.0385   29.4078 H   0  0  0  0  0  0
    2.5160   51.0648   29.1249 H   0  0  0  0  0  0
  1  2  1  0  0  0
  1 38  1  0  0  0
  1 39  1  0  0  0
  1 40  1  0  0  0
  2  3  1  0  0  0
  2 41  1  0  0  0
  2 42  1  0  0  0
  3  7  1  0  0  0
  3  4  2  0  0  0
  4  5  1  0  0  0
  4  9  1  0  0  0
  5  6  1  0  0  0
  6  7  2  0  0  0
  6  8  1  0  0  0
  8 43  1  0  0  0
  8 44  1  0  0  0
  9 10  2  0  0  0
  9 11  1  0  0  0
 11 12  1  0  0  0
 11 45  1  0  0  0
 12 13  2  0  0  0
 13 14  1  0  0  0
 13 46  1  0  0  0
 14 19  2  0  0  0
 14 15  1  0  0  0
 15 16  2  0  0  0
 15 47  1  0  0  0
 16 17  1  0  0  0
 16 48  1  0  0  0
 17 18  2  0  0  0
 17 20  1  0  0  0
 18 19  1  0  0  0
 18 49  1  0  0  0
 19 50  1  0  0  0
 20 24  1  0  0  0
 20 21  1  0  0  0
 21 22  2  0  0  0
 21 31  1  0  0  0
 22 23  1  0  0  0
 22 51  1  0  0  0
 23 24  2  0  0  0
 23 25  1  0  0  0
 25 30  2  0  0  0
 25 26  1  0  0  0
 26 27  2  0  0  0
 26 52  1  0  0  0
 27 28  1  0  0  0
 27 53  1  0  0  0
 28 29  2  0  0  0
 28 54  1  0  0  0
 29 30  1  0  0  0
 29 55  1  0  0  0
 30 56  1  0  0  0
 31 32  1  0  0  0
 31 37  1  0  0  0
 31 33  1  0  0  0
 33 34  1  0  0  0
 33 57  1  0  0  0
 33 58  1  0  0  0
 34 35  2  0  0  0
 34 59  1  0  0  0
 35 36  1  0  0  0
 35 60  1  0  0  0
 36 37  2  0  0  0
 36 61  1  0  0  0
 37 62  1  0  0  0
M  END
> <i_i_glide_confnum>
28

> <i_i_glide_lignum>
2855

> <i_i_glide_posenum>
277

> <i_i_glide_rotatable_bonds>
8

> <i_m_Source_File_Index>
4121

> <b_m_subgroup_collapsed>
0

> <r_i_docking_score>
-5.61323

> <r_i_glide_ecoul>
-1.89343

> <r_i_glide_eff_state_penalty>
0

> <r_i_glide_einternal>
4.31018

> <r_i_glide_emodel>
-64.8727

> <r_i_glide_energy>
-49.2348

> <r_i_glide_erotb>
0.583131

> <r_i_glide_esite>
-0.017338

> <r_i_glide_evdw>
-47.3414

> <r_i_glide_gscore>
-5.61323

> <r_i_glide_hbond>
-0.32

> <r_i_glide_ligand_efficiency>
-0.155923

> <r_i_glide_ligand_efficiency_ln>
-1.22466

> <r_i_glide_ligand_efficiency_sa>
-0.514847

> <r_i_glide_lipo>
-2.79773

> <r_i_glide_metal>
0

> <r_i_glide_rewards>
-0.410215

> <s_i_glide_gridfile>
wee1_glide-grid

> <s_m_Source_File>
wee1_decoys_glide_SP.sdf

> <s_m_Source_Path>
/Users/zhangxujun/Desktop

> <s_m_entry_id>
4396

> <s_m_entry_name>
wee1_decoys_glide_SP.4121

> <s_m_subgroup_title>
wee1_decoys_glide_SP

> <s_m_subgroupid>
wee1_decoys_glide_SP


$$$$
