ZINC33813830_989
                    3D
 Schrodinger Suite 2024-2.
 57 61  0  0  1  0            999 V2000
    9.7581   54.3282   17.6813 C   0  0  0  0  0  0
    8.5519   55.2421   17.4120 C   0  0  0  0  0  0
    7.4637   54.9472   18.2826 O   0  0  0  0  0  0
    7.4405   55.3897   19.5581 C   0  0  0  0  0  0
    8.3056   56.0951   20.0813 O   0  0  0  0  0  0
    6.2678   54.8972   20.2713 C   0  0  0  0  0  0
    5.0499   54.3456   19.8456 C   0  0  0  0  0  0
    4.2238   53.9911   20.8129 N   0  0  0  0  0  0
    4.6897   54.1933   22.0193 C   0  0  0  0  0  0
    6.2931   54.8966   22.0105 S   0  0  0  0  0  0
    3.9703   53.9060   23.1993 N   0  0  0  0  0  0
    2.5633   53.4370   23.2084 C   0  0  2  0  0  0
    1.9662   54.2358   22.7623 H   0  0  0  0  0  0
    2.2393   53.3507   24.6884 C   0  0  0  0  0  0
    3.3527   53.6967   25.3523 C   0  0  0  0  0  0
    4.4325   54.0968   24.4717 C   0  0  0  0  0  0
    5.5494   54.5109   24.8084 O   0  0  0  0  0  0
    3.5935   53.7213   26.6165 O   0  5  0  0  0  0
    0.9160   52.8964   25.1499 C   0  0  0  0  0  0
   -0.0358   52.9011   24.3706 O   0  0  0  0  0  0
    0.7054   52.3376   26.4867 C   0  0  0  0  0  0
    0.2538   51.0515   26.7976 C   0  0  0  0  0  0
    0.0397   50.8979   28.0817 N   0  0  0  0  0  0
    0.3461   52.0769   28.6610 C   0  0  0  0  0  0
    0.7759   53.0109   27.7019 N   0  0  0  0  0  0
    1.1178   54.2876   28.0817 C   0  0  0  0  0  0
    1.0914   54.6571   29.4245 C   0  0  0  0  0  0
    0.6550   53.7467   30.3814 C   0  0  0  0  0  0
    0.2694   52.4570   30.0153 C   0  0  0  0  0  0
   -0.0191   49.8758   25.8843 C   0  0  0  0  0  0
    2.2360   52.1708   22.3574 C   0  0  0  0  0  0
    1.7468   52.3175   21.0536 C   0  0  0  0  0  0
    1.4093   51.2118   20.2760 C   0  0  0  0  0  0
    1.5257   49.9334   20.8105 C   0  0  0  0  0  0
    1.9665   49.7608   22.1164 C   0  0  0  0  0  0
    2.3040   50.8728   22.8818 C   0  0  0  0  0  0
    1.1908   48.8545   20.0670 F   0  0  0  0  0  0
    4.5282   54.1031   18.4428 C   0  0  0  0  0  0
   10.5561   54.5148   16.9636 H   0  0  0  0  0  0
   10.1678   54.4974   18.6766 H   0  0  0  0  0  0
    9.4806   53.2763   17.6087 H   0  0  0  0  0  0
    8.2088   55.0912   16.3884 H   0  0  0  0  0  0
    8.8382   56.2931   17.4905 H   0  0  0  0  0  0
    1.4418   54.9407   27.2917 H   0  0  0  0  0  0
    1.3867   55.6546   29.7197 H   0  0  0  0  0  0
    0.6061   54.0418   31.4205 H   0  0  0  0  0  0
   -0.0896   51.7599   30.7607 H   0  0  0  0  0  0
    0.1315   50.1148   24.8326 H   0  0  0  0  0  0
    0.6308   49.0321   26.1173 H   0  0  0  0  0  0
   -1.0444   49.5208   25.9888 H   0  0  0  0  0  0
    1.6417   53.2966   20.6246 H   0  0  0  0  0  0
    1.0575   51.3447   19.2637 H   0  0  0  0  0  0
    2.0393   48.7704   22.5382 H   0  0  0  0  0  0
    2.6060   50.7123   23.9020 H   0  0  0  0  0  0
    4.7019   53.0722   18.1298 H   0  0  0  0  0  0
    3.4555   54.2865   18.3620 H   0  0  0  0  0  0
    4.9998   54.7481   17.7026 H   0  0  0  0  0  0
  1  2  1  0  0  0
  1 39  1  0  0  0
  1 40  1  0  0  0
  1 41  1  0  0  0
  2  3  1  0  0  0
  2 42  1  0  0  0
  2 43  1  0  0  0
  3  4  1  0  0  0
  4  5  2  0  0  0
  4  6  1  0  0  0
  6 10  1  0  0  0
  6  7  2  0  0  0
  7  8  1  0  0  0
  7 38  1  0  0  0
  8  9  2  0  0  0
  9 10  1  0  0  0
  9 11  1  0  0  0
 11 16  1  0  0  0
 11 12  1  0  0  0
 12 13  1  0  0  0
 12 14  1  0  0  0
 12 31  1  0  0  0
 14 15  2  0  0  0
 14 19  1  0  0  0
 15 16  1  0  0  0
 15 18  1  0  0  0
 16 17  2  0  0  0
 19 20  2  0  0  0
 19 21  1  0  0  0
 21 25  1  0  0  0
 21 22  2  0  0  0
 22 23  1  0  0  0
 22 30  1  0  0  0
 23 24  2  0  0  0
 24 29  1  0  0  0
 24 25  1  0  0  0
 25 26  1  0  0  0
 26 27  2  0  0  0
 26 44  1  0  0  0
 27 28  1  0  0  0
 27 45  1  0  0  0
 28 29  2  0  0  0
 28 46  1  0  0  0
 29 47  1  0  0  0
 30 48  1  0  0  0
 30 49  1  0  0  0
 30 50  1  0  0  0
 31 36  2  0  0  0
 31 32  1  0  0  0
 32 33  2  0  0  0
 32 51  1  0  0  0
 33 34  1  0  0  0
 33 52  1  0  0  0
 34 35  2  0  0  0
 34 37  1  0  0  0
 35 36  1  0  0  0
 35 53  1  0  0  0
 36 54  1  0  0  0
 38 55  1  0  0  0
 38 56  1  0  0  0
 38 57  1  0  0  0
M  CHG  1  18  -1
M  END
> <i_i_glide_confnum>
31

> <i_i_glide_lignum>
990

> <i_i_glide_posenum>
395

> <i_i_glide_rotatable_bonds>
7

> <i_m_Source_File_Index>
6009

> <b_m_subgroup_collapsed>
0

> <r_i_docking_score>
-5.9507

> <r_i_glide_ecoul>
-2.99632

> <r_i_glide_eff_state_penalty>
0

> <r_i_glide_einternal>
11.78

> <r_i_glide_emodel>
-62.3184

> <r_i_glide_energy>
-49.1503

> <r_i_glide_erotb>
0.456722

> <r_i_glide_esite>
-0.0164192

> <r_i_glide_evdw>
-46.154

> <r_i_glide_gscore>
-5.9507

> <r_i_glide_hbond>
-0.0130223

> <r_i_glide_ligand_efficiency>
-0.16083

> <r_i_glide_ligand_efficiency_ln>
-1.29057

> <r_i_glide_ligand_efficiency_sa>
-0.53592

> <r_i_glide_lipo>
-2.33096

> <r_i_glide_metal>
0

> <r_i_glide_rewards>
-1.28987

> <s_i_glide_gridfile>
wee1_glide-grid

> <s_m_Source_File>
wee1_decoys_glide_SP.sdf

> <s_m_Source_Path>
/Users/zhangxujun/Desktop

> <s_m_entry_id>
6284

> <s_m_entry_name>
wee1_decoys_glide_SP.6009

> <s_m_subgroup_title>
wee1_decoys_glide_SP

> <s_m_subgroupid>
wee1_decoys_glide_SP


$$$$
