ZINC20414216_5194
                    3D
 Schrodinger Suite 2024-2.
 46 49  0  0  1  0            999 V2000
   -3.9862   47.0812   24.6376 C   0  0  0  0  0  0
   -2.7750   47.4009   25.2471 C   0  0  0  0  0  0
   -2.2467   48.6791   25.0971 C   0  0  0  0  0  0
   -2.9309   49.6467   24.3459 C   0  0  0  0  0  0
   -4.1473   49.3121   23.7411 C   0  0  0  0  0  0
   -4.6718   48.0295   23.8822 C   0  0  0  0  0  0
   -2.3953   51.0857   24.2114 C   0  0  1  0  0  0
   -3.0545   51.6174   23.5236 H   0  0  0  0  0  0
   -2.3238   51.8263   25.5361 C   0  0  0  0  0  0
   -0.8534   51.6958   25.8746 C   0  0  0  0  0  0
   -0.1674   51.4083   24.8419 N   0  0  0  0  0  0
   -1.0137   51.1123   23.7465 N   0  0  0  0  0  0
   -0.4853   50.5812   22.5538 C   0  0  0  0  0  0
    0.8893   50.3464   22.3916 C   0  0  0  0  0  0
    1.3874   49.8272   21.2015 C   0  0  0  0  0  0
    0.5146   49.5577   20.1489 C   0  0  0  0  0  0
   -0.8512   49.7975   20.2840 C   0  0  0  0  0  0
   -1.3432   50.3086   21.4801 C   0  0  0  0  0  0
    1.1684   48.8961   18.6283 S   0  0  0  0  0  0
    1.9267   47.6969   18.9941 O   0  0  0  0  0  0
    0.0825   48.8235   17.6452 O   0  0  0  0  0  0
    2.3044   50.0968   18.0818 N   0  0  0  0  0  0
   -0.3176   51.9642   27.2134 C   0  0  0  0  0  0
    0.9962   52.4264   27.3737 C   0  0  0  0  0  0
    1.5196   52.6084   28.6504 C   0  0  0  0  0  0
    0.7303   52.3190   29.7597 C   0  0  0  0  0  0
   -0.5747   51.8693   29.6142 C   0  0  0  0  0  0
   -1.1012   51.6966   28.3416 C   0  0  0  0  0  0
    1.5045   52.4967   31.6817 I   0  0  0  0  0  0
   -4.4069   46.0953   24.7624 H   0  0  0  0  0  0
   -2.2502   46.6755   25.8520 H   0  0  0  0  0  0
   -1.3138   48.9143   25.5896 H   0  0  0  0  0  0
   -4.6947   50.0457   23.1677 H   0  0  0  0  0  0
   -5.6145   47.7758   23.4194 H   0  0  0  0  0  0
   -3.0085   51.4015   26.2692 H   0  0  0  0  0  0
   -2.5512   52.8866   25.4214 H   0  0  0  0  0  0
    1.5821   50.5494   23.1945 H   0  0  0  0  0  0
    2.4463   49.6342   21.1010 H   0  0  0  0  0  0
   -1.5311   49.5899   19.4701 H   0  0  0  0  0  0
   -2.4039   50.4886   21.5648 H   0  0  0  0  0  0
    3.0018   50.2975   18.8006 H   0  0  0  0  0  0
    2.9134   49.7083   17.3306 H   0  0  0  0  0  0
    1.6215   52.6292   26.5153 H   0  0  0  0  0  0
    2.5361   52.9503   28.7763 H   0  0  0  0  0  0
   -1.1652   51.6202   30.4864 H   0  0  0  0  0  0
   -2.0998   51.2929   28.2591 H   0  0  0  0  0  0
  1  6  2  0  0  0
  1  2  1  0  0  0
  1 30  1  0  0  0
  2  3  2  0  0  0
  2 31  1  0  0  0
  3  4  1  0  0  0
  3 32  1  0  0  0
  4  5  2  0  0  0
  4  7  1  0  0  0
  5  6  1  0  0  0
  5 33  1  0  0  0
  6 34  1  0  0  0
  7  8  1  0  0  0
  7 12  1  0  0  0
  7  9  1  0  0  0
  9 10  1  0  0  0
  9 35  1  0  0  0
  9 36  1  0  0  0
 10 11  2  0  0  0
 10 23  1  0  0  0
 11 12  1  0  0  0
 12 13  1  0  0  0
 13 18  2  0  0  0
 13 14  1  0  0  0
 14 15  2  0  0  0
 14 37  1  0  0  0
 15 16  1  0  0  0
 15 38  1  0  0  0
 16 17  2  0  0  0
 16 19  1  0  0  0
 17 18  1  0  0  0
 17 39  1  0  0  0
 18 40  1  0  0  0
 19 20  2  0  0  0
 19 21  2  0  0  0
 19 22  1  0  0  0
 22 41  1  0  0  0
 22 42  1  0  0  0
 23 28  2  0  0  0
 23 24  1  0  0  0
 24 25  2  0  0  0
 24 43  1  0  0  0
 25 26  1  0  0  0
 25 44  1  0  0  0
 26 27  2  0  0  0
 26 29  1  0  0  0
 27 28  1  0  0  0
 27 45  1  0  0  0
 28 46  1  0  0  0
M  END
> <i_i_glide_confnum>
7

> <i_i_glide_lignum>
5195

> <i_i_glide_posenum>
379

> <i_i_glide_rotatable_bonds>
4

> <i_m_Source_File_Index>
2117

> <b_m_subgroup_collapsed>
0

> <r_i_docking_score>
-2.15735

> <r_i_glide_ecoul>
-6.72883

> <r_i_glide_eff_state_penalty>
0

> <r_i_glide_einternal>
0.929848

> <r_i_glide_emodel>
-35.8432

> <r_i_glide_energy>
-33.2501

> <r_i_glide_erotb>
0.242012

> <r_i_glide_esite>
-0.225964

> <r_i_glide_evdw>
-26.5212

> <r_i_glide_gscore>
-2.15735

> <r_i_glide_hbond>
-0.16

> <r_i_glide_ligand_efficiency>
-0.0770483

> <r_i_glide_ligand_efficiency_ln>
-0.49798

> <r_i_glide_ligand_efficiency_sa>
-0.233964

> <r_i_glide_lipo>
-0.443784

> <r_i_glide_metal>
0

> <r_i_glide_rewards>
0.765769

> <s_i_glide_gridfile>
wee1_glide-grid

> <s_m_Source_File>
wee1_decoys_glide_SP.sdf

> <s_m_Source_Path>
/Users/zhangxujun/Desktop

> <s_m_entry_id>
2392

> <s_m_entry_name>
wee1_decoys_glide_SP.2117

> <s_m_subgroup_title>
wee1_decoys_glide_SP

> <s_m_subgroupid>
wee1_decoys_glide_SP


$$$$
