ZINC34791550_5750
                    3D
 Schrodinger Suite 2024-2.
 73 76  0  0  1  0            999 V2000
    6.3128   55.0196   21.2615 C   0  0  0  0  0  0
    5.4158   53.8710   20.7649 C   0  0  0  0  0  0
    5.1046   52.8384   21.8640 C   0  0  0  0  0  0
    4.3227   51.6369   21.2840 C   0  0  0  0  0  0
    3.0730   52.1884   20.7105 N   0  0  0  0  0  0
    3.2494   53.1977   19.6415 C   0  0  0  0  0  0
    4.0623   54.3678   20.2359 C   0  0  0  0  0  0
    1.8172   51.8025   21.0679 C   0  0  0  0  0  0
    0.7961   52.4124   20.7418 O   0  0  0  0  0  0
    1.6040   50.4893   21.8574 C   0  0  2  0  0  0
    2.5484   50.0719   22.1806 H   0  0  0  0  0  0
    0.9920   49.3881   20.9340 C   0  0  0  0  0  0
    1.8435   48.9783   19.6982 C   0  0  0  0  0  0
    1.5050   47.5511   19.2390 C   0  0  0  0  0  0
    1.7552   49.9423   18.4943 C   0  0  0  0  0  0
    0.8927   50.7528   23.1402 N   0  0  0  0  0  0
    1.3593   51.7558   24.0841 C   0  0  0  0  0  0
    0.5295   51.5130   25.2984 C   0  0  0  0  0  0
   -0.4092   50.6219   24.9673 C   0  0  0  0  0  0
   -0.2440   50.1656   23.6021 C   0  0  0  0  0  0
   -0.9865   49.3845   23.0095 O   0  0  0  0  0  0
   -1.4075   50.1471   26.0189 C   0  0  1  0  0  0
   -1.0582   49.1462   26.2787 H   0  0  0  0  0  0
   -1.2055   50.8975   27.2819 N   0  0  0  0  0  0
   -0.3095   51.8914   27.5229 C   0  0  0  0  0  0
   -0.4533   52.5770   28.5338 O   0  0  0  0  0  0
    0.6283   52.1037   26.5378 N   0  0  0  0  0  0
    1.6321   53.1782   26.7411 C   0  0  0  0  0  0
    2.6302   53.0675   27.8976 C   0  0  0  0  0  0
    2.7236   52.0965   28.8232 C   0  0  0  0  0  0
   -2.8680   49.9671   25.5563 C   0  0  0  0  0  0
   -3.4362   48.6948   25.7441 C   0  0  0  0  0  0
   -4.7328   48.4094   25.3280 C   0  0  0  0  0  0
   -5.4909   49.3957   24.7125 C   0  0  0  0  0  0
   -4.9541   50.6662   24.5202 C   0  0  0  0  0  0
   -3.6487   50.9801   24.9369 C   0  0  0  0  0  0
   -3.1592   52.4249   24.7233 C   0  0  0  0  0  0
   -2.5390   52.8962   25.8007 F   0  0  0  0  0  0
   -2.3325   52.4865   23.6783 F   0  0  0  0  0  0
   -4.1668   53.2668   24.4811 F   0  0  0  0  0  0
    5.8570   55.5689   22.0802 H   0  0  0  0  0  0
    7.2719   54.6536   21.6266 H   0  0  0  0  0  0
    6.5188   55.7289   20.4606 H   0  0  0  0  0  0
    5.9132   53.3617   19.9394 H   0  0  0  0  0  0
    4.5714   53.2996   22.6964 H   0  0  0  0  0  0
    6.0256   52.4811   22.3207 H   0  0  0  0  0  0
    4.1999   50.9014   22.0751 H   0  0  0  0  0  0
    4.8881   51.1713   20.4743 H   0  0  0  0  0  0
    3.8264   52.7214   18.8466 H   0  0  0  0  0  0
    2.3143   53.5189   19.1796 H   0  0  0  0  0  0
    4.2237   55.1215   19.4649 H   0  0  0  0  0  0
    3.5051   54.8849   21.0181 H   0  0  0  0  0  0
    0.8708   48.4975   21.5486 H   0  0  0  0  0  0
   -0.0121   49.6662   20.6097 H   0  0  0  0  0  0
    2.8839   48.9519   20.0210 H   0  0  0  0  0  0
    0.5816   47.5301   18.6569 H   0  0  0  0  0  0
    2.3042   47.1567   18.6101 H   0  0  0  0  0  0
    1.3807   46.8727   20.0810 H   0  0  0  0  0  0
    0.9533   50.6748   18.5999 H   0  0  0  0  0  0
    2.6942   50.4843   18.3693 H   0  0  0  0  0  0
    1.5843   49.4160   17.5541 H   0  0  0  0  0  0
    1.2305   52.7681   23.6962 H   0  0  0  0  0  0
    2.4192   51.6317   24.2908 H   0  0  0  0  0  0
   -1.7565   50.5958   28.0739 H   0  0  0  0  0  0
    2.2206   53.3438   25.8381 H   0  0  0  0  0  0
    1.1044   54.1205   26.8836 H   0  0  0  0  0  0
    3.3376   53.8846   27.9586 H   0  0  0  0  0  0
    3.4815   52.1441   29.5928 H   0  0  0  0  0  0
    2.0565   51.2444   28.8344 H   0  0  0  0  0  0
   -2.8697   47.9149   26.2339 H   0  0  0  0  0  0
   -5.1480   47.4252   25.4898 H   0  0  0  0  0  0
   -6.4982   49.1799   24.3868 H   0  0  0  0  0  0
   -5.5750   51.4096   24.0422 H   0  0  0  0  0  0
  1  2  1  0  0  0
  1 41  1  0  0  0
  1 42  1  0  0  0
  1 43  1  0  0  0
  2  7  1  0  0  0
  2  3  1  0  0  0
  2 44  1  0  0  0
  3  4  1  0  0  0
  3 45  1  0  0  0
  3 46  1  0  0  0
  4  5  1  0  0  0
  4 47  1  0  0  0
  4 48  1  0  0  0
  5  6  1  0  0  0
  5  8  1  0  0  0
  6  7  1  0  0  0
  6 49  1  0  0  0
  6 50  1  0  0  0
  7 51  1  0  0  0
  7 52  1  0  0  0
  8  9  2  0  0  0
  8 10  1  0  0  0
 10 11  1  0  0  0
 10 12  1  0  0  0
 10 16  1  0  0  0
 12 13  1  0  0  0
 12 53  1  0  0  0
 12 54  1  0  0  0
 13 14  1  0  0  0
 13 15  1  0  0  0
 13 55  1  0  0  0
 14 56  1  0  0  0
 14 57  1  0  0  0
 14 58  1  0  0  0
 15 59  1  0  0  0
 15 60  1  0  0  0
 15 61  1  0  0  0
 16 20  1  0  0  0
 16 17  1  0  0  0
 17 18  1  0  0  0
 17 62  1  0  0  0
 17 63  1  0  0  0
 18 27  1  0  0  0
 18 19  2  0  0  0
 19 20  1  0  0  0
 19 22  1  0  0  0
 20 21  2  0  0  0
 22 23  1  0  0  0
 22 24  1  0  0  0
 22 31  1  0  0  0
 24 25  1  0  0  0
 24 64  1  0  0  0
 25 26  2  0  0  0
 25 27  1  0  0  0
 27 28  1  0  0  0
 28 29  1  0  0  0
 28 65  1  0  0  0
 28 66  1  0  0  0
 29 30  2  0  0  0
 29 67  1  0  0  0
 30 68  1  0  0  0
 30 69  1  0  0  0
 31 36  2  0  0  0
 31 32  1  0  0  0
 32 33  2  0  0  0
 32 70  1  0  0  0
 33 34  1  0  0  0
 33 71  1  0  0  0
 34 35  2  0  0  0
 34 72  1  0  0  0
 35 36  1  0  0  0
 35 73  1  0  0  0
 36 37  1  0  0  0
 37 38  1  0  0  0
 37 39  1  0  0  0
 37 40  1  0  0  0
M  END
> <i_i_glide_confnum>
16

> <i_i_glide_lignum>
5751

> <i_i_glide_posenum>
87

> <i_i_glide_rotatable_bonds>
9

> <i_m_Source_File_Index>
2377

> <b_m_subgroup_collapsed>
0

> <r_i_docking_score>
-3.69823

> <r_i_glide_ecoul>
-2.38971

> <r_i_glide_eff_state_penalty>
0

> <r_i_glide_einternal>
13.2373

> <r_i_glide_emodel>
-40.4343

> <r_i_glide_energy>
-37.6163

> <r_i_glide_erotb>
0.509023

> <r_i_glide_esite>
-0.138236

> <r_i_glide_evdw>
-35.2266

> <r_i_glide_gscore>
-3.69823

> <r_i_glide_hbond>
-0.0141233

> <r_i_glide_ligand_efficiency>
-0.0973218

> <r_i_glide_ligand_efficiency_ln>
-0.797447

> <r_i_glide_ligand_efficiency_sa>
-0.327194

> <r_i_glide_lipo>
-1.38227

> <r_i_glide_metal>
0

> <r_i_glide_rewards>
-0.552839

> <s_i_glide_gridfile>
wee1_glide-grid

> <s_m_Source_File>
wee1_decoys_glide_SP.sdf

> <s_m_Source_Path>
/Users/zhangxujun/Desktop

> <s_m_entry_id>
2652

> <s_m_entry_name>
wee1_decoys_glide_SP.2377

> <s_m_subgroup_title>
wee1_decoys_glide_SP

> <s_m_subgroupid>
wee1_decoys_glide_SP


$$$$
