ZINC27299634_2051
                    3D
 Schrodinger Suite 2024-2.
 61 65  0  0  1  0            999 V2000
    6.7519   54.7211   24.8352 C   0  0  0  0  0  0
    5.3123   54.3781   24.4817 C   0  0  0  0  0  0
    4.3165   54.0969   25.4472 C   0  0  0  0  0  0
    3.1077   53.6980   24.8943 C   0  0  0  0  0  0
    2.0062   53.3252   25.5949 N   0  0  0  0  0  0
    2.0668   53.3808   26.8818 C   0  0  0  0  0  0
    3.2094   53.8714   27.5366 N   0  0  0  0  0  0
    4.4201   54.1703   26.9119 C   0  0  0  0  0  0
    5.4327   54.4921   27.5410 O   0  0  0  0  0  0
    3.1923   54.0910   29.0054 C   0  0  0  0  0  0
    3.2049   52.7975   29.8422 C   0  0  0  0  0  0
    1.8136   52.1731   30.0044 C   0  0  0  0  0  0
    1.1173   51.7626   28.6927 C   0  0  0  0  0  0
    0.8598   52.9221   27.7072 C   0  0  0  0  0  0
    3.1281   53.7182   23.1699 S   0  0  0  0  0  0
    4.8116   54.2136   23.1676 C   0  0  0  0  0  0
    5.5066   54.4966   21.9176 C   0  0  0  0  0  0
    6.5847   55.0935   21.9172 O   0  0  0  0  0  0
    4.9101   54.0813   20.7824 N   0  0  0  0  0  0
    5.4554   54.1364   19.4160 C   0  0  1  0  0  0
    6.2550   53.3934   19.3654 H   0  0  0  0  0  0
    4.3845   53.6383   18.4273 C   0  0  0  0  0  0
    6.0852   55.4826   18.9998 C   0  0  0  0  0  0
    7.4721   55.6606   19.1048 C   0  0  0  0  0  0
    8.0690   56.8608   18.7250 C   0  0  0  0  0  0
    7.2825   57.9000   18.2056 C   0  0  0  0  0  0
    5.9042   57.7164   18.0801 C   0  0  0  0  0  0
    5.3089   56.5167   18.4668 C   0  0  0  0  0  0
    7.7806   59.1558   17.8025 N   0  0  0  0  0  0
    9.0463   59.5114   17.4973 C   0  0  0  0  0  0
   10.0241   58.7643   17.5721 O   0  0  0  0  0  0
    9.2139   60.9619   17.0003 C   0  0  0  0  0  0
   10.5497   61.6299   17.2802 C   0  0  0  0  0  0
   10.2128   61.1707   15.8778 C   0  0  0  0  0  0
    7.0955   54.2041   25.7317 H   0  0  0  0  0  0
    7.4766   54.4036   24.0822 H   0  0  0  0  0  0
    6.8837   55.7913   25.0047 H   0  0  0  0  0  0
    4.0088   54.7324   29.3474 H   0  0  0  0  0  0
    2.2989   54.6623   29.2647 H   0  0  0  0  0  0
    3.9092   52.0757   29.4205 H   0  0  0  0  0  0
    3.5808   53.0259   30.8396 H   0  0  0  0  0  0
    1.9015   51.3013   30.6494 H   0  0  0  0  0  0
    1.1664   52.8646   30.5479 H   0  0  0  0  0  0
    1.6885   50.9727   28.2018 H   0  0  0  0  0  0
    0.1592   51.3006   28.9442 H   0  0  0  0  0  0
    0.4206   53.7726   28.2291 H   0  0  0  0  0  0
    0.0778   52.5936   27.0216 H   0  0  0  0  0  0
    4.0762   53.5230   20.8857 H   0  0  0  0  0  0
    4.7516   53.6543   17.4018 H   0  0  0  0  0  0
    4.1054   52.6070   18.6481 H   0  0  0  0  0  0
    3.4759   54.2373   18.4728 H   0  0  0  0  0  0
    8.0904   54.8721   19.5090 H   0  0  0  0  0  0
    9.1330   56.9596   18.8559 H   0  0  0  0  0  0
    5.2845   58.5069   17.6815 H   0  0  0  0  0  0
    4.2388   56.4069   18.3679 H   0  0  0  0  0  0
    7.0791   59.8844   17.6793 H   0  0  0  0  0  0
    8.3075   61.5681   16.9955 H   0  0  0  0  0  0
   11.3233   61.0940   17.8328 H   0  0  0  0  0  0
   10.5622   62.7005   17.4811 H   0  0  0  0  0  0
    9.9762   61.9163   15.1183 H   0  0  0  0  0  0
   10.7421   60.3129   15.4579 H   0  0  0  0  0  0
  1  2  1  0  0  0
  1 35  1  0  0  0
  1 36  1  0  0  0
  1 37  1  0  0  0
  2 16  2  0  0  0
  2  3  1  0  0  0
  3  8  1  0  0  0
  3  4  2  0  0  0
  4  5  1  0  0  0
  4 15  1  0  0  0
  5  6  2  0  0  0
  6 14  1  0  0  0
  6  7  1  0  0  0
  7  8  1  0  0  0
  7 10  1  0  0  0
  8  9  2  0  0  0
 10 11  1  0  0  0
 10 38  1  0  0  0
 10 39  1  0  0  0
 11 12  1  0  0  0
 11 40  1  0  0  0
 11 41  1  0  0  0
 12 13  1  0  0  0
 12 42  1  0  0  0
 12 43  1  0  0  0
 13 14  1  0  0  0
 13 44  1  0  0  0
 13 45  1  0  0  0
 14 46  1  0  0  0
 14 47  1  0  0  0
 15 16  1  0  0  0
 16 17  1  0  0  0
 17 18  2  0  0  0
 17 19  1  0  0  0
 19 20  1  0  0  0
 19 48  1  0  0  0
 20 21  1  0  0  0
 20 22  1  0  0  0
 20 23  1  0  0  0
 22 49  1  0  0  0
 22 50  1  0  0  0
 22 51  1  0  0  0
 23 28  2  0  0  0
 23 24  1  0  0  0
 24 25  2  0  0  0
 24 52  1  0  0  0
 25 26  1  0  0  0
 25 53  1  0  0  0
 26 27  2  0  0  0
 26 29  1  0  0  0
 27 28  1  0  0  0
 27 54  1  0  0  0
 28 55  1  0  0  0
 29 30  1  0  0  0
 29 56  1  0  0  0
 30 31  2  0  0  0
 30 32  1  0  0  0
 32 34  1  0  0  0
 32 33  1  0  0  0
 32 57  1  0  0  0
 33 34  1  0  0  0
 33 58  1  0  0  0
 33 59  1  0  0  0
 34 60  1  0  0  0
 34 61  1  0  0  0
M  END
> <i_i_glide_confnum>
72

> <i_i_glide_lignum>
2052

> <i_i_glide_posenum>
298

> <i_i_glide_rotatable_bonds>
7

> <i_m_Source_File_Index>
3344

> <b_m_subgroup_collapsed>
0

> <r_i_docking_score>
-6.13426

> <r_i_glide_ecoul>
-3.07505

> <r_i_glide_eff_state_penalty>
0

> <r_i_glide_einternal>
3.32314

> <r_i_glide_emodel>
-73.8251

> <r_i_glide_energy>
-52.8847

> <r_i_glide_erotb>
0.653848

> <r_i_glide_esite>
-0.119596

> <r_i_glide_evdw>
-49.8097

> <r_i_glide_gscore>
-6.13426

> <r_i_glide_hbond>
-0.16

> <r_i_glide_ligand_efficiency>
-0.185887

> <r_i_glide_ligand_efficiency_ln>
-1.36423

> <r_i_glide_ligand_efficiency_sa>
-0.596238

> <r_i_glide_lipo>
-2.49821

> <r_i_glide_metal>
0

> <r_i_glide_rewards>
-1.05856

> <s_i_glide_gridfile>
wee1_glide-grid

> <s_m_Source_File>
wee1_decoys_glide_SP.sdf

> <s_m_Source_Path>
/Users/zhangxujun/Desktop

> <s_m_entry_id>
3619

> <s_m_entry_name>
wee1_decoys_glide_SP.3344

> <s_m_subgroup_title>
wee1_decoys_glide_SP

> <s_m_subgroupid>
wee1_decoys_glide_SP


$$$$
