ZINC14240891_4173
                    3D
 Schrodinger Suite 2024-2.
 65 69  0  0  1  0            999 V2000
    1.7776   56.5422   29.4240 C   0  0  0  0  0  0
    2.3254   55.1882   29.9097 C   0  0  0  0  0  0
    2.0488   53.9319   29.0346 C   0  0  0  0  0  0
    2.7182   52.7105   29.7208 C   0  0  0  0  0  0
    0.5141   53.6761   29.0442 C   0  0  0  0  0  0
    2.5818   54.1455   27.5667 C   0  0  2  0  0  0
    2.1489   55.0952   27.2817 H   0  0  0  0  0  0
    2.1517   53.0416   26.5718 C   0  0  0  0  0  0
    2.3689   53.4509   25.1019 C   0  0  0  0  0  0
    3.7869   53.9966   24.9041 C   0  0  0  0  0  0
    4.5641   54.4117   25.9935 C   0  0  0  0  0  0
    6.1510   54.9037   25.4898 S   0  0  0  0  0  0
    5.7857   54.5884   23.8210 C   0  0  0  0  0  0
    4.4971   54.0265   23.6780 C   0  0  0  0  0  0
    3.9246   53.4738   22.4535 C   0  0  0  0  0  0
    3.4695   53.0259   21.4890 N   0  0  0  0  0  0
    6.8104   54.8966   22.9194 N   0  0  0  0  0  0
    6.6751   55.2961   21.6343 C   0  0  0  0  0  0
    5.5999   55.3736   21.0462 O   0  0  0  0  0  0
    7.9857   55.6680   20.9007 C   0  0  0  0  0  0
    7.7818   56.0104   19.4659 N   0  0  0  0  0  0
    7.0941   57.0904   19.0230 C   0  0  0  0  0  0
    6.7044   58.0558   19.6816 O   0  0  0  0  0  0
    6.8545   56.8623   17.5377 C   0  0  2  0  0  0
    7.3124   58.0448   16.6545 C   0  0  0  0  0  0
    6.0639   58.7028   16.0576 C   0  0  0  0  0  0
    4.9267   57.7779   16.4221 C   0  0  0  0  0  0
    5.3615   56.7386   17.2522 C   0  0  0  0  0  0
    4.4489   55.7638   17.6750 C   0  0  0  0  0  0
    3.1126   55.8411   17.2816 C   0  0  0  0  0  0
    2.6777   56.8985   16.4816 C   0  0  0  0  0  0
    3.5823   57.8730   16.0601 C   0  0  0  0  0  0
    7.5803   55.6342   17.3682 N   0  0  0  0  0  0
    8.1756   55.1763   18.4712 C   0  0  0  0  0  0
    9.1041   54.3752   18.4817 O   0  0  0  0  0  0
    4.1321   54.3380   27.4629 C   0  0  0  0  0  0
    1.9041   57.2968   30.1999 H   0  0  0  0  0  0
    0.7152   56.4985   29.1913 H   0  0  0  0  0  0
    2.3030   56.9007   28.5416 H   0  0  0  0  0  0
    3.3960   55.2849   30.0815 H   0  0  0  0  0  0
    1.8739   55.0216   30.8817 H   0  0  0  0  0  0
    2.6000   51.7988   29.1348 H   0  0  0  0  0  0
    3.7856   52.8584   29.8836 H   0  0  0  0  0  0
    2.2783   52.5142   30.7000 H   0  0  0  0  0  0
    0.2594   52.6743   28.6960 H   0  0  0  0  0  0
    0.0925   53.7585   30.0473 H   0  0  0  0  0  0
   -0.0196   54.3852   28.4119 H   0  0  0  0  0  0
    2.6212   52.0967   26.8359 H   0  0  0  0  0  0
    1.0848   52.8430   26.6576 H   0  0  0  0  0  0
    2.1738   52.5915   24.4591 H   0  0  0  0  0  0
    1.6417   54.2089   24.8081 H   0  0  0  0  0  0
    7.7347   55.0045   23.3187 H   0  0  0  0  0  0
    8.4487   56.4967   21.4259 H   0  0  0  0  0  0
    8.7046   54.8593   20.9967 H   0  0  0  0  0  0
    7.9218   58.7789   17.1866 H   0  0  0  0  0  0
    7.9425   57.6800   15.8409 H   0  0  0  0  0  0
    6.1754   58.8162   14.9788 H   0  0  0  0  0  0
    5.9197   59.6953   16.4818 H   0  0  0  0  0  0
    4.7632   54.9496   18.3136 H   0  0  0  0  0  0
    2.4118   55.0898   17.6172 H   0  0  0  0  0  0
    1.6375   56.9703   16.1985 H   0  0  0  0  0  0
    3.2364   58.6963   15.4517 H   0  0  0  0  0  0
    7.4991   55.0842   16.5252 H   0  0  0  0  0  0
    4.4511   55.2313   27.9992 H   0  0  0  0  0  0
    4.6458   53.4911   27.9165 H   0  0  0  0  0  0
  1  2  1  0  0  0
  1 37  1  0  0  0
  1 38  1  0  0  0
  1 39  1  0  0  0
  2  3  1  0  0  0
  2 40  1  0  0  0
  2 41  1  0  0  0
  3  4  1  0  0  0
  3  5  1  0  0  0
  3  6  1  0  0  0
  4 42  1  0  0  0
  4 43  1  0  0  0
  4 44  1  0  0  0
  5 45  1  0  0  0
  5 46  1  0  0  0
  5 47  1  0  0  0
  6  7  1  0  0  0
  6 36  1  0  0  0
  6  8  1  0  0  0
  8  9  1  0  0  0
  8 48  1  0  0  0
  8 49  1  0  0  0
  9 10  1  0  0  0
  9 50  1  0  0  0
  9 51  1  0  0  0
 10 14  1  0  0  0
 10 11  2  0  0  0
 11 12  1  0  0  0
 11 36  1  0  0  0
 12 13  1  0  0  0
 13 14  2  0  0  0
 13 17  1  0  0  0
 14 15  1  0  0  0
 15 16  3  0  0  0
 17 18  1  0  0  0
 17 52  1  0  0  0
 18 19  2  0  0  0
 18 20  1  0  0  0
 20 21  1  0  0  0
 20 53  1  0  0  0
 20 54  1  0  0  0
 21 34  1  0  0  0
 21 22  1  0  0  0
 22 23  2  0  0  0
 22 24  1  0  0  0
 24 28  1  0  0  0
 24 25  1  0  0  0
 24 33  1  0  0  0
 25 26  1  0  0  0
 25 55  1  0  0  0
 25 56  1  0  0  0
 26 27  1  0  0  0
 26 57  1  0  0  0
 26 58  1  0  0  0
 27 32  2  0  0  0
 27 28  1  0  0  0
 28 29  2  0  0  0
 29 30  1  0  0  0
 29 59  1  0  0  0
 30 31  2  0  0  0
 30 60  1  0  0  0
 31 32  1  0  0  0
 31 61  1  0  0  0
 32 62  1  0  0  0
 33 34  1  0  0  0
 33 63  1  0  0  0
 34 35  2  0  0  0
 36 64  1  0  0  0
 36 65  1  0  0  0
M  END
> <i_i_glide_confnum>
10

> <i_i_glide_lignum>
4174

> <i_i_glide_posenum>
142

> <i_i_glide_rotatable_bonds>
7

> <i_m_Source_File_Index>
5951

> <b_m_subgroup_collapsed>
0

> <r_i_docking_score>
-7.38511

> <r_i_glide_ecoul>
-2.80283

> <r_i_glide_eff_state_penalty>
0

> <r_i_glide_einternal>
13.7662

> <r_i_glide_emodel>
-63.8815

> <r_i_glide_energy>
-50.0163

> <r_i_glide_erotb>
0.338202

> <r_i_glide_esite>
-0.0138371

> <r_i_glide_evdw>
-47.2135

> <r_i_glide_gscore>
-7.38511

> <r_i_glide_hbond>
-0.58445

> <r_i_glide_ligand_efficiency>
-0.211003

> <r_i_glide_ligand_efficiency_ln>
-1.6212

> <r_i_glide_ligand_efficiency_sa>
-0.690205

> <r_i_glide_lipo>
-3.47177

> <r_i_glide_metal>
0

> <r_i_glide_rewards>
-0.872161

> <s_i_glide_gridfile>
wee1_glide-grid

> <s_m_Source_File>
wee1_decoys_glide_SP.sdf

> <s_m_Source_Path>
/Users/zhangxujun/Desktop

> <s_m_entry_id>
6226

> <s_m_entry_name>
wee1_decoys_glide_SP.5951

> <s_m_subgroup_title>
wee1_decoys_glide_SP

> <s_m_subgroupid>
wee1_decoys_glide_SP


$$$$
