ZINC41078040_1105
                    3D
 Schrodinger Suite 2024-2.
 79 83  0  0  1  0            999 V2000
   -5.6806   53.4753   24.9310 C   0  0  0  0  0  0
   -6.1462   52.8789   26.1856 N   0  0  0  0  0  0
   -7.5768   52.9555   26.4884 C   0  0  0  0  0  0
   -5.2864   52.0645   26.9691 C   0  0  0  0  0  0
   -3.9261   51.9123   26.6498 C   0  0  0  0  0  0
   -3.1249   51.0967   27.4582 C   0  0  0  0  0  0
   -3.6956   50.4833   28.5062 N   0  3  0  0  0  0
   -4.9927   50.6465   28.8210 C   0  0  0  0  0  0
   -5.8078   51.4341   28.0657 N   0  0  0  0  0  0
   -5.5569   50.0069   29.9804 N   0  0  0  0  0  0
   -6.9708   50.2187   30.3455 C   0  0  0  0  0  0
   -4.6917   49.2158   30.8722 C   0  0  0  0  0  0
   -1.7330   50.8967   27.2816 N   0  0  0  0  0  0
   -1.0424   51.6698   26.4019 N   0  0  0  0  0  0
    0.1984   51.7268   26.6499 C   0  0  0  0  0  0
    1.1009   52.4976   25.8129 C   0  0  0  0  0  0
    1.0166   52.7190   24.4510 C   0  0  0  0  0  0
    2.0735   53.4705   23.9919 N   0  0  0  0  0  0
    2.8954   53.7707   25.0687 C   0  0  0  0  0  0
    2.3007   53.1732   26.2272 C   0  0  0  0  0  0
    2.9421   53.3294   27.4710 C   0  0  0  0  0  0
    4.1351   54.0445   27.5402 C   0  0  0  0  0  0
    4.6948   54.6091   26.3980 C   0  0  0  0  0  0
    4.0889   54.4971   25.1484 C   0  0  0  0  0  0
    2.2697   53.8355   22.5888 C   0  0  0  0  0  0
    3.3804   53.0103   21.9108 C   0  0  0  0  0  0
    4.6540   53.4859   22.3536 O   0  0  0  0  0  0
    5.4749   54.2436   21.5375 C   0  0  0  0  0  0
    6.5327   54.8964   22.1743 C   0  0  0  0  0  0
    7.4644   55.6317   21.4454 C   0  0  0  0  0  0
    7.3536   55.7158   20.0569 C   0  0  0  0  0  0
    6.2797   55.0916   19.4151 C   0  0  0  0  0  0
    5.3451   54.3626   20.1462 C   0  0  0  0  0  0
    8.4118   56.4662   19.2433 C   0  0  0  0  0  0
    9.1704   55.5265   18.2741 C   0  0  0  0  0  0
   10.2181   56.2844   17.4333 C   0  0  0  0  0  0
    9.6060   57.4945   16.6998 C   0  0  0  0  0  0
    8.8793   58.4390   17.6772 C   0  0  0  0  0  0
    7.8169   57.6966   18.5127 C   0  0  0  0  0  0
   -4.8150   54.1171   25.1005 H   0  0  0  0  0  0
   -6.4537   54.0706   24.4448 H   0  0  0  0  0  0
   -5.3827   52.6938   24.2304 H   0  0  0  0  0  0
   -7.7438   53.1404   27.5527 H   0  0  0  0  0  0
   -8.0763   53.7478   25.9260 H   0  0  0  0  0  0
   -8.0605   52.0069   26.2448 H   0  0  0  0  0  0
   -3.4857   52.4078   25.7998 H   0  0  0  0  0  0
   -7.0958   51.2521   30.6751 H   0  0  0  0  0  0
   -7.5998   50.0314   29.4737 H   0  0  0  0  0  0
   -7.2636   49.5405   31.1482 H   0  0  0  0  0  0
   -4.0955   48.5163   30.2858 H   0  0  0  0  0  0
   -4.0300   49.8900   31.4184 H   0  0  0  0  0  0
   -5.2962   48.6506   31.5765 H   0  0  0  0  0  0
   -1.2786   50.0916   27.6979 H   0  0  0  0  0  0
    0.6952   51.2347   27.4851 H   0  0  0  0  0  0
    0.2715   52.3712   23.7498 H   0  0  0  0  0  0
    2.5248   52.8916   28.3647 H   0  0  0  0  0  0
    4.6376   54.1647   28.4889 H   0  0  0  0  0  0
    5.6158   55.1656   26.4903 H   0  0  0  0  0  0
    4.5312   54.9632   24.2812 H   0  0  0  0  0  0
    1.3253   53.6965   22.0632 H   0  0  0  0  0  0
    2.4972   54.8968   22.5313 H   0  0  0  0  0  0
    3.2883   51.9595   22.1896 H   0  0  0  0  0  0
    3.2296   53.0279   20.8365 H   0  0  0  0  0  0
    6.6554   54.8063   23.2416 H   0  0  0  0  0  0
    8.2923   56.0962   21.9644 H   0  0  0  0  0  0
    6.1752   55.1499   18.3411 H   0  0  0  0  0  0
    4.5632   53.8736   19.5872 H   0  0  0  0  0  0
    9.1513   56.8304   19.9576 H   0  0  0  0  0  0
    9.6955   54.7548   18.8413 H   0  0  0  0  0  0
    8.4766   55.0299   17.5952 H   0  0  0  0  0  0
   11.0269   56.6251   18.0801 H   0  0  0  0  0  0
   10.6771   55.6048   16.7128 H   0  0  0  0  0  0
   10.3846   58.0388   16.1636 H   0  0  0  0  0  0
    8.9040   57.1400   15.9448 H   0  0  0  0  0  0
    9.6114   58.8976   18.3444 H   0  0  0  0  0  0
    8.4116   59.2567   17.1272 H   0  0  0  0  0  0
    7.0050   57.3908   17.8498 H   0  0  0  0  0  0
    7.4050   58.4024   19.2350 H   0  0  0  0  0  0
   -3.1226   49.8597   29.0654 H   0  0  0  0  0  0
  1  2  1  0  0  0
  1 40  1  0  0  0
  1 41  1  0  0  0
  1 42  1  0  0  0
  2  3  1  0  0  0
  2  4  1  0  0  0
  3 43  1  0  0  0
  3 44  1  0  0  0
  3 45  1  0  0  0
  4  9  2  0  0  0
  4  5  1  0  0  0
  5  6  2  0  0  0
  5 46  1  0  0  0
  6  7  1  0  0  0
  6 13  1  0  0  0
  7  8  2  0  0  0
  7 79  1  0  0  0
  8  9  1  0  0  0
  8 10  1  0  0  0
 10 11  1  0  0  0
 10 12  1  0  0  0
 11 47  1  0  0  0
 11 48  1  0  0  0
 11 49  1  0  0  0
 12 50  1  0  0  0
 12 51  1  0  0  0
 12 52  1  0  0  0
 13 14  1  0  0  0
 13 53  1  0  0  0
 14 15  2  0  0  0
 15 16  1  0  0  0
 15 54  1  0  0  0
 16 20  1  0  0  0
 16 17  2  0  0  0
 17 18  1  0  0  0
 17 55  1  0  0  0
 18 19  1  0  0  0
 18 25  1  0  0  0
 19 24  2  0  0  0
 19 20  1  0  0  0
 20 21  2  0  0  0
 21 22  1  0  0  0
 21 56  1  0  0  0
 22 23  2  0  0  0
 22 57  1  0  0  0
 23 24  1  0  0  0
 23 58  1  0  0  0
 24 59  1  0  0  0
 25 26  1  0  0  0
 25 60  1  0  0  0
 25 61  1  0  0  0
 26 27  1  0  0  0
 26 62  1  0  0  0
 26 63  1  0  0  0
 27 28  1  0  0  0
 28 33  2  0  0  0
 28 29  1  0  0  0
 29 30  2  0  0  0
 29 64  1  0  0  0
 30 31  1  0  0  0
 30 65  1  0  0  0
 31 32  2  0  0  0
 31 34  1  0  0  0
 32 33  1  0  0  0
 32 66  1  0  0  0
 33 67  1  0  0  0
 34 39  1  0  0  0
 34 35  1  0  0  0
 34 68  1  0  0  0
 35 36  1  0  0  0
 35 69  1  0  0  0
 35 70  1  0  0  0
 36 37  1  0  0  0
 36 71  1  0  0  0
 36 72  1  0  0  0
 37 38  1  0  0  0
 37 73  1  0  0  0
 37 74  1  0  0  0
 38 39  1  0  0  0
 38 75  1  0  0  0
 38 76  1  0  0  0
 39 77  1  0  0  0
 39 78  1  0  0  0
M  CHG  1   7   1
M  END
> <i_i_glide_confnum>
164

> <i_i_glide_lignum>
1106

> <i_i_glide_posenum>
19

> <i_i_glide_rotatable_bonds>
10

> <i_m_Source_File_Index>
3336

> <b_m_subgroup_collapsed>
0

> <r_i_docking_score>
-5.88127

> <r_i_glide_ecoul>
-4.83376

> <r_i_glide_eff_state_penalty>
0

> <r_i_glide_einternal>
9.7073

> <r_i_glide_emodel>
-65.1051

> <r_i_glide_energy>
-48.622

> <r_i_glide_erotb>
0.593799

> <r_i_glide_esite>
-0.268944

> <r_i_glide_evdw>
-43.7883

> <r_i_glide_gscore>
-5.88127

> <r_i_glide_hbond>
-0.236034

> <r_i_glide_ligand_efficiency>
-0.150802

> <r_i_glide_ligand_efficiency_ln>
-1.26111

> <r_i_glide_ligand_efficiency_sa>
-0.511401

> <r_i_glide_lipo>
-2.6709

> <r_i_glide_metal>
0

> <r_i_glide_rewards>
-0.384712

> <s_i_glide_gridfile>
wee1_glide-grid

> <s_m_Source_File>
wee1_decoys_glide_SP.sdf

> <s_m_Source_Path>
/Users/zhangxujun/Desktop

> <s_m_entry_id>
3611

> <s_m_entry_name>
wee1_decoys_glide_SP.3336

> <s_m_subgroup_title>
wee1_decoys_glide_SP

> <s_m_subgroupid>
wee1_decoys_glide_SP


$$$$
