ZINC27563802_2884
                    3D
 Schrodinger Suite 2024-2.
 57 60  0  0  1  0            999 V2000
   -3.9176   50.1682   20.4748 C   0  0  0  0  0  0
   -2.6174   49.9888   21.2605 C   0  0  0  0  0  0
   -1.4170   50.6110   21.0086 C   0  0  0  0  0  0
   -0.1807   50.2247   21.8781 C   0  0  2  0  0  0
    0.4386   49.6028   21.2307 H   0  0  0  0  0  0
   -0.5828   49.3346   22.9713 N   0  0  0  0  0  0
   -1.8224   48.6698   22.9670 C   0  0  0  0  0  0
   -2.7867   48.9997   22.1937 N   0  0  0  0  0  0
   -1.7551   47.6607   23.9018 N   0  0  0  0  0  0
   -0.5539   47.5917   24.3204 N   0  0  0  0  0  0
    0.3038   48.4969   23.6814 N   0  0  0  0  0  0
    0.7173   51.4024   22.3196 C   0  0  0  0  0  0
    1.9729   51.5322   21.7048 C   0  0  0  0  0  0
    2.7931   52.6269   21.9681 C   0  0  0  0  0  0
    2.3579   53.6304   22.8275 C   0  0  0  0  0  0
    1.1237   53.5089   23.4606 C   0  0  0  0  0  0
    0.3268   52.3767   23.2706 C   0  0  0  0  0  0
   -0.8212   52.2993   24.0297 O   0  0  0  0  0  0
   -0.7808   51.4026   25.1535 C   0  0  0  0  0  0
   -0.2493   52.0013   26.4441 C   0  0  0  0  0  0
   -1.0175   51.9230   27.6067 C   0  0  0  0  0  0
   -0.4919   52.3504   28.8210 C   0  0  0  0  0  0
    0.8057   52.8797   28.8858 C   0  0  0  0  0  0
    1.5734   52.9327   27.7167 C   0  0  0  0  0  0
    1.0581   52.4817   26.5130 C   0  0  0  0  0  0
    1.4162   53.4167   30.1958 C   0  0  0  0  0  0
    2.8565   52.8526   30.3744 C   0  0  0  0  0  0
    0.6068   53.0071   31.4568 C   0  0  0  0  0  0
    1.4223   54.9618   30.0711 C   0  0  0  0  0  0
    4.5066   52.7507   21.1491 Br  0  0  0  0  0  0
   -1.2641   51.5876   19.9404 C   0  0  0  0  0  0
   -2.0966   52.4554   19.6833 O   0  0  0  0  0  0
   -0.1576   51.4755   19.2069 N   0  0  0  0  0  0
   -4.5608   50.8951   20.9728 H   0  0  0  0  0  0
   -3.7450   50.5138   19.4525 H   0  0  0  0  0  0
   -4.4757   49.2327   20.3839 H   0  0  0  0  0  0
    0.7481   49.0342   24.4133 H   0  0  0  0  0  0
    2.3164   50.7899   20.9980 H   0  0  0  0  0  0
    2.9798   54.4944   23.0132 H   0  0  0  0  0  0
    0.8023   54.2788   24.1474 H   0  0  0  0  0  0
   -0.1133   50.5654   25.0108 H   0  0  0  0  0  0
   -1.7791   50.9870   25.2954 H   0  0  0  0  0  0
   -2.0108   51.4988   27.5822 H   0  0  0  0  0  0
   -1.1108   52.2615   29.7014 H   0  0  0  0  0  0
    2.5835   53.3138   27.7295 H   0  0  0  0  0  0
    1.7084   52.4739   25.6559 H   0  0  0  0  0  0
    3.2175   52.8964   31.4004 H   0  0  0  0  0  0
    3.5851   53.3829   29.7593 H   0  0  0  0  0  0
    2.9011   51.7996   30.0919 H   0  0  0  0  0  0
   -0.3843   53.4618   31.4787 H   0  0  0  0  0  0
    0.4697   51.9261   31.5177 H   0  0  0  0  0  0
    1.1008   53.3020   32.3825 H   0  0  0  0  0  0
    0.4037   55.3479   30.0407 H   0  0  0  0  0  0
    1.9154   55.4723   30.8848 H   0  0  0  0  0  0
    1.9200   55.2975   29.1604 H   0  0  0  0  0  0
    0.5220   50.7559   19.3917 H   0  0  0  0  0  0
   -0.0035   52.1259   18.4508 H   0  0  0  0  0  0
  1  2  1  0  0  0
  1 34  1  0  0  0
  1 35  1  0  0  0
  1 36  1  0  0  0
  2  8  1  0  0  0
  2  3  2  0  0  0
  3  4  1  0  0  0
  3 31  1  0  0  0
  4  5  1  0  0  0
  4  6  1  0  0  0
  4 12  1  0  0  0
  6 11  1  0  0  0
  6  7  1  0  0  0
  7  8  2  0  0  0
  7  9  1  0  0  0
  9 10  2  0  0  0
 10 11  1  0  0  0
 11 37  1  0  0  0
 12 17  2  0  0  0
 12 13  1  0  0  0
 13 14  2  0  0  0
 13 38  1  0  0  0
 14 15  1  0  0  0
 14 30  1  0  0  0
 15 16  2  0  0  0
 15 39  1  0  0  0
 16 17  1  0  0  0
 16 40  1  0  0  0
 17 18  1  0  0  0
 18 19  1  0  0  0
 19 20  1  0  0  0
 19 41  1  0  0  0
 19 42  1  0  0  0
 20 25  2  0  0  0
 20 21  1  0  0  0
 21 22  2  0  0  0
 21 43  1  0  0  0
 22 23  1  0  0  0
 22 44  1  0  0  0
 23 24  2  0  0  0
 23 26  1  0  0  0
 24 25  1  0  0  0
 24 45  1  0  0  0
 25 46  1  0  0  0
 26 27  1  0  0  0
 26 28  1  0  0  0
 26 29  1  0  0  0
 27 47  1  0  0  0
 27 48  1  0  0  0
 27 49  1  0  0  0
 28 50  1  0  0  0
 28 51  1  0  0  0
 28 52  1  0  0  0
 29 53  1  0  0  0
 29 54  1  0  0  0
 29 55  1  0  0  0
 31 32  2  0  0  0
 31 33  1  0  0  0
 33 56  1  0  0  0
 33 57  1  0  0  0
M  END
> <i_i_glide_confnum>
8

> <i_i_glide_lignum>
2885

> <i_i_glide_posenum>
140

> <i_i_glide_rotatable_bonds>
6

> <i_m_Source_File_Index>
3213

> <b_m_subgroup_collapsed>
0

> <r_i_docking_score>
-4.62778

> <r_i_glide_ecoul>
-6.84513

> <r_i_glide_eff_state_penalty>
0

> <r_i_glide_einternal>
7.75513

> <r_i_glide_emodel>
-52.0343

> <r_i_glide_energy>
-42.8133

> <r_i_glide_erotb>
0.329818

> <r_i_glide_esite>
-0.132882

> <r_i_glide_evdw>
-35.9682

> <r_i_glide_gscore>
-4.62778

> <r_i_glide_hbond>
-0.32

> <r_i_glide_ligand_efficiency>
-0.144618

> <r_i_glide_ligand_efficiency_ln>
-1.03629

> <r_i_glide_ligand_efficiency_sa>
-0.459134

> <r_i_glide_lipo>
-1.59665

> <r_i_glide_metal>
0

> <r_i_glide_rewards>
-0.0828885

> <s_i_glide_gridfile>
wee1_glide-grid

> <s_m_Source_File>
wee1_decoys_glide_SP.sdf

> <s_m_Source_Path>
/Users/zhangxujun/Desktop

> <s_m_entry_id>
3488

> <s_m_entry_name>
wee1_decoys_glide_SP.3213

> <s_m_subgroup_title>
wee1_decoys_glide_SP

> <s_m_subgroupid>
wee1_decoys_glide_SP


$$$$
