ZINC39273147_2067
                    3D
 Schrodinger Suite 2024-2.
 49 52  0  0  1  0            999 V2000
   -2.9000   53.6998   23.6828 C   0  0  0  0  0  0
   -2.3427   52.8106   24.7637 C   0  0  0  0  0  0
   -1.1498   52.2273   24.8783 C   0  0  0  0  0  0
    0.0396   52.0343   23.9452 C   0  0  2  0  0  0
   -0.2834   52.2917   22.9347 H   0  0  0  0  0  0
    0.3297   50.5286   23.9390 C   0  0  0  0  0  0
   -0.2208   49.6742   24.8371 C   0  0  0  0  0  0
   -1.0666   49.9992   25.8560 O   0  0  0  0  0  0
   -1.2360   51.4018   26.1252 C   0  0  2  0  0  0
   -0.5174   51.6794   26.8957 H   0  0  0  0  0  0
   -2.5485   51.6967   26.6118 N   0  0  0  0  0  0
   -3.1305   52.5079   25.8223 N   0  0  0  0  0  0
   -0.0466   48.3213   24.8817 N   0  0  0  0  0  0
    1.2055   50.0313   22.9250 C   0  0  0  0  0  0
    1.8971   49.6380   22.0849 N   0  0  0  0  0  0
    1.2725   52.8990   24.2350 C   0  0  0  0  0  0
    1.8473   53.6609   23.2118 C   0  0  0  0  0  0
    3.0492   54.3349   23.4216 C   0  0  0  0  0  0
    3.7033   54.2508   24.6517 C   0  0  0  0  0  0
    3.1264   53.5174   25.6952 C   0  0  0  0  0  0
    1.9038   52.8666   25.4823 C   0  0  0  0  0  0
    3.8856   53.3171   27.0067 C   0  0  0  0  0  0
    2.9979   52.9556   28.0633 O   0  0  0  0  0  0
    2.3529   53.9323   28.7954 C   0  0  0  0  0  0
    2.6732   55.2967   28.7374 C   0  0  0  0  0  0
    2.0423   56.2122   29.5690 C   0  0  0  0  0  0
    1.0991   55.7751   30.4819 C   0  0  0  0  0  0
    0.7059   54.4366   30.5048 C   0  0  0  0  0  0
    1.3298   53.5195   29.6568 C   0  0  0  0  0  0
    0.7785   51.6970   29.6816 Br  0  0  0  0  0  0
    4.9038   54.8960   24.8214 O   0  0  0  0  0  0
    6.0411   54.1408   24.4240 C   0  0  0  0  0  0
   -3.6816   54.3637   24.0557 H   0  0  0  0  0  0
   -2.0960   54.3098   23.2819 H   0  0  0  0  0  0
   -3.2970   53.0822   22.8819 H   0  0  0  0  0  0
    0.6613   47.9085   24.2934 H   0  0  0  0  0  0
   -0.2069   47.8463   25.7628 H   0  0  0  0  0  0
    1.3935   53.7013   22.2314 H   0  0  0  0  0  0
    3.4926   54.8975   22.6133 H   0  0  0  0  0  0
    1.4955   52.2482   26.2659 H   0  0  0  0  0  0
    4.5897   52.4970   26.8813 H   0  0  0  0  0  0
    4.5219   54.1659   27.2493 H   0  0  0  0  0  0
    3.4308   55.6805   28.0806 H   0  0  0  0  0  0
    2.3088   57.2575   29.5390 H   0  0  0  0  0  0
    0.7036   56.4938   31.1786 H   0  0  0  0  0  0
   -0.0531   54.1023   31.1989 H   0  0  0  0  0  0
    6.2063   53.2987   25.0967 H   0  0  0  0  0  0
    5.9506   53.7628   23.4039 H   0  0  0  0  0  0
    6.9297   54.7712   24.4658 H   0  0  0  0  0  0
  1  2  1  0  0  0
  1 33  1  0  0  0
  1 34  1  0  0  0
  1 35  1  0  0  0
  2 12  1  0  0  0
  2  3  2  0  0  0
  3  9  1  0  0  0
  3  4  1  0  0  0
  4  5  1  0  0  0
  4  6  1  0  0  0
  4 16  1  0  0  0
  6  7  2  0  0  0
  6 14  1  0  0  0
  7  8  1  0  0  0
  7 13  1  0  0  0
  8  9  1  0  0  0
  9 10  1  0  0  0
  9 11  1  0  0  0
 11 12  2  0  0  0
 13 36  1  0  0  0
 13 37  1  0  0  0
 14 15  3  0  0  0
 16 21  2  0  0  0
 16 17  1  0  0  0
 17 18  2  0  0  0
 17 38  1  0  0  0
 18 19  1  0  0  0
 18 39  1  0  0  0
 19 20  2  0  0  0
 19 31  1  0  0  0
 20 21  1  0  0  0
 20 22  1  0  0  0
 21 40  1  0  0  0
 22 23  1  0  0  0
 22 41  1  0  0  0
 22 42  1  0  0  0
 23 24  1  0  0  0
 24 29  2  0  0  0
 24 25  1  0  0  0
 25 26  2  0  0  0
 25 43  1  0  0  0
 26 27  1  0  0  0
 26 44  1  0  0  0
 27 28  2  0  0  0
 27 45  1  0  0  0
 28 29  1  0  0  0
 28 46  1  0  0  0
 29 30  1  0  0  0
 31 32  1  0  0  0
 32 47  1  0  0  0
 32 48  1  0  0  0
 32 49  1  0  0  0
M  END
> <i_i_glide_confnum>
12

> <i_i_glide_lignum>
2068

> <i_i_glide_posenum>
325

> <i_i_glide_rotatable_bonds>
6

> <i_m_Source_File_Index>
1146

> <b_m_subgroup_collapsed>
0

> <r_i_docking_score>
-6.08848

> <r_i_glide_ecoul>
-2.94811

> <r_i_glide_eff_state_penalty>
0

> <r_i_glide_einternal>
8.03041

> <r_i_glide_emodel>
-56.747

> <r_i_glide_energy>
-43.7855

> <r_i_glide_erotb>
0.369651

> <r_i_glide_esite>
-0.131244

> <r_i_glide_evdw>
-40.8374

> <r_i_glide_gscore>
-6.08848

> <r_i_glide_hbond>
-0.236914

> <r_i_glide_ligand_efficiency>
-0.202949

> <r_i_glide_ligand_efficiency_ln>
-1.38337

> <r_i_glide_ligand_efficiency_sa>
-0.630611

> <r_i_glide_lipo>
-3.24732

> <r_i_glide_metal>
0

> <r_i_glide_rewards>
-0.358567

> <s_i_glide_gridfile>
wee1_glide-grid

> <s_m_Source_File>
wee1_decoys_glide_SP.sdf

> <s_m_Source_Path>
/Users/zhangxujun/Desktop

> <s_m_entry_id>
1421

> <s_m_entry_name>
wee1_decoys_glide_SP.1146

> <s_m_subgroup_title>
wee1_decoys_glide_SP

> <s_m_subgroupid>
wee1_decoys_glide_SP


$$$$
