ZINC37201062_1890
                    3D
 Schrodinger Suite 2024-2.
 39 41  0  0  1  0            999 V2000
    0.5772   53.1870   31.3695 C   0  0  0  0  0  0
    0.3516   54.4798   30.9184 C   0  0  0  0  0  0
    1.2479   55.0739   30.0387 C   0  0  0  0  0  0
    2.3893   54.3943   29.6034 C   0  0  0  0  0  0
    2.6331   53.0840   30.0824 C   0  0  0  0  0  0
    1.7067   52.4968   30.9493 C   0  0  0  0  0  0
    3.9192   52.3377   29.7443 C   0  0  0  0  0  0
    4.5334   52.8372   28.4351 C   0  0  0  0  0  0
    4.6839   54.3569   28.4708 C   0  0  2  0  0  0
    5.2777   54.5861   29.3574 H   0  0  0  0  0  0
    3.3256   55.0768   28.6091 C   0  0  0  0  0  0
    5.5005   54.8352   27.3482 N   0  0  0  0  0  0
    5.2745   54.5640   25.9810 C   0  0  0  0  0  0
    6.3352   54.7880   25.0983 C   0  0  0  0  0  0
    6.1970   54.5452   23.7311 C   0  0  0  0  0  0
    4.9795   54.0963   23.2203 C   0  0  0  0  0  0
    3.9035   53.8761   24.0846 C   0  0  0  0  0  0
    4.0597   54.0976   25.4561 C   0  0  0  0  0  0
    2.3152   53.3016   23.4864 S   0  0  0  0  0  0
    1.8802   52.2367   24.3938 O   0  0  0  0  0  0
    1.4971   54.4966   23.2836 O   0  0  0  0  0  0
    2.5848   52.5786   21.9196 N   0  0  0  0  0  0
   -0.0958   52.7344   32.0808 H   0  0  0  0  0  0
   -0.4956   55.0328   31.2793 H   0  0  0  0  0  0
    1.0599   56.0810   29.6945 H   0  0  0  0  0  0
    1.8882   51.5161   31.3571 H   0  0  0  0  0  0
    4.6285   52.4666   30.5604 H   0  0  0  0  0  0
    3.7286   51.2688   29.6761 H   0  0  0  0  0  0
    5.5016   52.3611   28.2802 H   0  0  0  0  0  0
    3.8889   52.5122   27.6206 H   0  0  0  0  0  0
    2.8020   55.1763   27.6628 H   0  0  0  0  0  0
    3.5041   56.0954   28.9529 H   0  0  0  0  0  0
    6.4564   55.0426   27.6007 H   0  0  0  0  0  0
    7.2838   55.1441   25.4647 H   0  0  0  0  0  0
    7.0328   54.7195   23.0685 H   0  0  0  0  0  0
    4.8814   53.9283   22.1583 H   0  0  0  0  0  0
    3.2135   53.8980   26.0901 H   0  0  0  0  0  0
    2.7924   53.2435   21.1698 H   0  0  0  0  0  0
    3.1638   51.7368   21.9138 H   0  0  0  0  0  0
  1  6  2  0  0  0
  1  2  1  0  0  0
  1 23  1  0  0  0
  2  3  2  0  0  0
  2 24  1  0  0  0
  3  4  1  0  0  0
  3 25  1  0  0  0
  4 11  1  0  0  0
  4  5  2  0  0  0
  5  6  1  0  0  0
  5  7  1  0  0  0
  6 26  1  0  0  0
  7  8  1  0  0  0
  7 27  1  0  0  0
  7 28  1  0  0  0
  8  9  1  0  0  0
  8 29  1  0  0  0
  8 30  1  0  0  0
  9 10  1  0  0  0
  9 11  1  0  0  0
  9 12  1  0  0  0
 11 31  1  0  0  0
 11 32  1  0  0  0
 12 13  1  0  0  0
 12 33  1  0  0  0
 13 18  2  0  0  0
 13 14  1  0  0  0
 14 15  2  0  0  0
 14 34  1  0  0  0
 15 16  1  0  0  0
 15 35  1  0  0  0
 16 17  2  0  0  0
 16 36  1  0  0  0
 17 18  1  0  0  0
 17 19  1  0  0  0
 18 37  1  0  0  0
 19 20  2  0  0  0
 19 21  2  0  0  0
 19 22  1  0  0  0
 22 38  1  0  0  0
 22 39  1  0  0  0
M  END
> <i_i_glide_confnum>
3

> <i_i_glide_lignum>
1891

> <i_i_glide_posenum>
136

> <i_i_glide_rotatable_bonds>
3

> <i_m_Source_File_Index>
3176

> <b_m_subgroup_collapsed>
0

> <r_i_docking_score>
-5.65661

> <r_i_glide_ecoul>
-0.979782

> <r_i_glide_eff_state_penalty>
0

> <r_i_glide_einternal>
3.25238

> <r_i_glide_emodel>
-47.5622

> <r_i_glide_energy>
-37.062

> <r_i_glide_erotb>
0.402694

> <r_i_glide_esite>
0

> <r_i_glide_evdw>
-36.0822

> <r_i_glide_gscore>
-5.65661

> <r_i_glide_hbond>
0

> <r_i_glide_ligand_efficiency>
-0.269363

> <r_i_glide_ligand_efficiency_ln>
-1.39859

> <r_i_glide_ligand_efficiency_sa>
-0.743151

> <r_i_glide_lipo>
-3.34092

> <r_i_glide_metal>
0

> <r_i_glide_rewards>
-0.767306

> <s_i_glide_gridfile>
wee1_glide-grid

> <s_m_Source_File>
wee1_decoys_glide_SP.sdf

> <s_m_Source_Path>
/Users/zhangxujun/Desktop

> <s_m_entry_id>
3451

> <s_m_entry_name>
wee1_decoys_glide_SP.3176

> <s_m_subgroup_title>
wee1_decoys_glide_SP

> <s_m_subgroupid>
wee1_decoys_glide_SP


$$$$
