ZINC09042714_2998
                    3D
 Schrodinger Suite 2024-2.
 53 57  0  0  1  0            999 V2000
    1.8836   52.3091   31.1665 C   0  0  0  0  0  0
    2.7990   52.5573   30.1450 C   0  0  0  0  0  0
    2.0618   52.8784   29.0130 C   0  0  0  0  0  0
    0.7367   52.8499   29.3202 O   0  0  0  0  0  0
    0.6247   52.5054   30.6265 C   0  0  0  0  0  0
    2.4573   53.1953   27.6507 C   0  0  0  0  0  0
    1.6710   53.0708   26.5574 C   0  0  0  0  0  0
    2.1516   53.4194   25.2102 C   0  0  0  0  0  0
    1.4725   53.3765   24.1834 O   0  0  0  0  0  0
    3.5869   53.8307   25.1859 C   0  0  0  0  0  0
    4.2401   54.1226   23.9807 C   0  0  0  0  0  0
    5.5853   54.4965   23.9804 C   0  0  0  0  0  0
    6.2895   54.5877   25.1800 C   0  0  0  0  0  0
    5.6554   54.2936   26.3877 C   0  0  0  0  0  0
    4.3146   53.9088   26.3852 C   0  0  0  0  0  0
    3.7542   53.6032   27.6093 O   0  0  0  0  0  0
    6.3752   54.8666   22.4903 Cl  0  0  0  0  0  0
    0.3674   52.7015   26.6478 O   0  0  0  0  0  0
    0.0602   51.3559   26.2738 C   0  0  0  0  0  0
   -1.4137   51.2776   25.8557 C   0  0  0  0  0  0
   -2.1377   52.2755   25.9324 O   0  0  0  0  0  0
   -1.8048   50.0636   25.4128 N   0  0  0  0  0  0
   -3.0365   49.6675   24.8824 C   0  0  0  0  0  0
   -3.4025   48.3489   24.5155 C   0  0  0  0  0  0
   -4.6682   48.3208   23.8648 C   0  0  0  0  0  0
   -5.2834   49.5801   23.8247 C   0  0  0  0  0  0
   -4.3046   50.8086   24.5291 S   0  0  0  0  0  0
   -6.6795   49.8741   23.2915 C   0  0  0  0  0  0
   -7.1548   48.6900   22.4256 C   0  0  0  0  0  0
   -6.8913   47.3412   23.1130 C   0  0  0  0  0  0
   -5.3818   47.0759   23.3141 C   0  0  0  0  0  0
   -2.5526   47.1688   24.6628 C   0  0  0  0  0  0
   -2.5926   46.2111   23.8912 O   0  0  0  0  0  0
   -1.6956   47.1921   25.6818 N   0  0  0  0  0  0
    2.1019   52.0147   32.1821 H   0  0  0  0  0  0
    3.8758   52.4943   30.2078 H   0  0  0  0  0  0
   -0.3786   52.4304   31.0208 H   0  0  0  0  0  0
    3.7076   54.0680   23.0390 H   0  0  0  0  0  0
    7.3279   54.8811   25.1644 H   0  0  0  0  0  0
    6.1943   54.3508   27.3211 H   0  0  0  0  0  0
    0.2461   50.6978   27.1264 H   0  0  0  0  0  0
    0.6737   51.0087   25.4356 H   0  0  0  0  0  0
   -1.1251   49.3196   25.4943 H   0  0  0  0  0  0
   -6.6999   50.7972   22.7115 H   0  0  0  0  0  0
   -7.3676   50.0109   24.1272 H   0  0  0  0  0  0
   -6.6474   48.7129   21.4602 H   0  0  0  0  0  0
   -8.2189   48.8000   22.2117 H   0  0  0  0  0  0
   -7.3284   46.5314   22.5259 H   0  0  0  0  0  0
   -7.3985   47.3195   24.0812 H   0  0  0  0  0  0
   -5.2541   46.2186   23.9766 H   0  0  0  0  0  0
   -4.9294   46.7889   22.3632 H   0  0  0  0  0  0
   -1.8241   47.8319   26.4653 H   0  0  0  0  0  0
   -0.9925   46.4749   25.7885 H   0  0  0  0  0  0
  1  5  2  0  0  0
  1  2  1  0  0  0
  1 35  1  0  0  0
  2  3  2  0  0  0
  2 36  1  0  0  0
  3  4  1  0  0  0
  3  6  1  0  0  0
  4  5  1  0  0  0
  5 37  1  0  0  0
  6 16  1  0  0  0
  6  7  2  0  0  0
  7  8  1  0  0  0
  7 18  1  0  0  0
  8  9  2  0  0  0
  8 10  1  0  0  0
 10 15  2  0  0  0
 10 11  1  0  0  0
 11 12  2  0  0  0
 11 38  1  0  0  0
 12 13  1  0  0  0
 12 17  1  0  0  0
 13 14  2  0  0  0
 13 39  1  0  0  0
 14 15  1  0  0  0
 14 40  1  0  0  0
 15 16  1  0  0  0
 18 19  1  0  0  0
 19 20  1  0  0  0
 19 41  1  0  0  0
 19 42  1  0  0  0
 20 21  2  0  0  0
 20 22  1  0  0  0
 22 23  1  0  0  0
 22 43  1  0  0  0
 23 27  1  0  0  0
 23 24  2  0  0  0
 24 25  1  0  0  0
 24 32  1  0  0  0
 25 31  1  0  0  0
 25 26  2  0  0  0
 26 27  1  0  0  0
 26 28  1  0  0  0
 28 29  1  0  0  0
 28 44  1  0  0  0
 28 45  1  0  0  0
 29 30  1  0  0  0
 29 46  1  0  0  0
 29 47  1  0  0  0
 30 31  1  0  0  0
 30 48  1  0  0  0
 30 49  1  0  0  0
 31 50  1  0  0  0
 31 51  1  0  0  0
 32 33  2  0  0  0
 32 34  1  0  0  0
 34 52  1  0  0  0
 34 53  1  0  0  0
M  END
> <i_i_glide_confnum>
159

> <i_i_glide_lignum>
2999

> <i_i_glide_posenum>
146

> <i_i_glide_rotatable_bonds>
7

> <i_m_Source_File_Index>
134

> <b_m_subgroup_collapsed>
0

> <r_i_docking_score>
-6.18132

> <r_i_glide_ecoul>
-8.27855

> <r_i_glide_eff_state_penalty>
0

> <r_i_glide_einternal>
3.7214

> <r_i_glide_emodel>
-67.2658

> <r_i_glide_energy>
-48.5661

> <r_i_glide_erotb>
0.491917

> <r_i_glide_esite>
-0.236104

> <r_i_glide_evdw>
-40.2876

> <r_i_glide_gscore>
-6.18132

> <r_i_glide_hbond>
-0.369479

> <r_i_glide_ligand_efficiency>
-0.181803

> <r_i_glide_ligand_efficiency_ln>
-1.36563

> <r_i_glide_ligand_efficiency_sa>
-0.588973

> <r_i_glide_lipo>
-2.6871

> <r_i_glide_metal>
0

> <r_i_glide_rewards>
-0.12439

> <s_i_glide_gridfile>
wee1_glide-grid

> <s_m_Source_File>
wee1_decoys_glide_SP.sdf

> <s_m_Source_Path>
/Users/zhangxujun/Desktop

> <s_m_entry_id>
409

> <s_m_entry_name>
wee1_decoys_glide_SP.134

> <s_m_subgroup_title>
wee1_decoys_glide_SP

> <s_m_subgroupid>
wee1_decoys_glide_SP


$$$$
