ZINC47147459_996
                    3D
 Schrodinger Suite 2024-2.
 54 59  0  0  1  0            999 V2000
    1.0818   54.5108   29.8552 C   0  0  0  0  0  0
    0.4588   53.3731   30.3662 C   0  0  0  0  0  0
    0.2401   52.2763   29.5360 C   0  0  0  0  0  0
    0.6406   52.3162   28.1966 C   0  0  0  0  0  0
    1.2461   53.4677   27.6900 C   0  0  0  0  0  0
    1.4714   54.5650   28.5186 C   0  0  0  0  0  0
    0.4464   51.0790   27.3198 C   0  0  0  0  0  0
    0.3973   51.3572   25.9172 O   0  0  0  0  0  0
   -0.7731   51.8138   25.3351 C   0  0  0  0  0  0
   -1.8597   52.2901   26.0909 C   0  0  0  0  0  0
   -3.0045   52.7845   25.4711 C   0  0  0  0  0  0
   -3.0796   52.8149   24.0842 C   0  0  0  0  0  0
   -2.0216   52.3298   23.3190 C   0  0  0  0  0  0
   -0.8688   51.8090   23.9271 C   0  0  0  0  0  0
    0.2445   51.2151   23.0291 C   0  0  1  0  0  0
    1.0104   50.8073   23.6911 H   0  0  0  0  0  0
   -0.2431   50.0285   22.1978 C   0  0  0  0  0  0
    0.3821   49.4982   21.1380 C   0  0  0  0  0  0
   -0.1722   48.3947   20.5111 N   0  5  0  0  0  0
   -1.2909   47.9739   21.0951 C   0  0  0  0  0  0
   -2.0337   47.0307   20.8280 O   0  0  0  0  0  0
   -1.6718   49.0479   22.5208 S   0  0  0  0  0  0
    1.9039   50.1018   20.4421 S   0  0  0  0  0  0
    1.9366   51.8144   21.0969 C   0  0  1  0  0  0
    1.8345   52.4147   20.1896 H   0  0  0  0  0  0
    0.9170   52.2866   22.1082 C   0  0  2  0  0  0
    0.1503   52.8280   21.5531 H   0  0  0  0  0  0
    1.7275   53.2978   22.9142 C   0  0  0  0  0  0
    1.2074   54.1213   23.6678 O   0  0  0  0  0  0
    3.0625   53.1331   22.6576 N   0  0  0  0  0  0
    3.2821   52.2010   21.6810 C   0  0  0  0  0  0
    4.3659   51.7522   21.2959 O   0  0  0  0  0  0
    4.1051   53.8056   23.3762 C   0  0  0  0  0  0
    5.3164   54.1613   22.7541 C   0  0  0  0  0  0
    6.3296   54.7877   23.4789 C   0  0  0  0  0  0
    6.1415   55.0701   24.8290 C   0  0  0  0  0  0
    4.9606   54.7194   25.4662 C   0  0  0  0  0  0
    3.9535   54.0931   24.7442 C   0  0  0  0  0  0
    7.1040   55.7010   25.5325 F   0  0  0  0  0  0
    1.2471   55.3650   30.4951 H   0  0  0  0  0  0
    0.1463   53.3378   31.4004 H   0  0  0  0  0  0
   -0.2417   51.3950   29.9357 H   0  0  0  0  0  0
    1.5260   53.5134   26.6507 H   0  0  0  0  0  0
    1.9372   55.4552   28.1226 H   0  0  0  0  0  0
    1.3161   50.4437   27.4785 H   0  0  0  0  0  0
   -0.4203   50.4933   27.6354 H   0  0  0  0  0  0
   -1.8319   52.2955   27.1691 H   0  0  0  0  0  0
   -3.8281   53.1489   26.0672 H   0  0  0  0  0  0
   -3.9682   53.1976   23.6067 H   0  0  0  0  0  0
   -2.1101   52.3267   22.2429 H   0  0  0  0  0  0
    5.4803   53.9668   21.7042 H   0  0  0  0  0  0
    7.2564   55.0615   22.9963 H   0  0  0  0  0  0
    4.8267   54.9326   26.5162 H   0  0  0  0  0  0
    3.0604   53.8089   25.2701 H   0  0  0  0  0  0
  1  6  2  0  0  0
  1  2  1  0  0  0
  1 40  1  0  0  0
  2  3  2  0  0  0
  2 41  1  0  0  0
  3  4  1  0  0  0
  3 42  1  0  0  0
  4  5  2  0  0  0
  4  7  1  0  0  0
  5  6  1  0  0  0
  5 43  1  0  0  0
  6 44  1  0  0  0
  7  8  1  0  0  0
  7 45  1  0  0  0
  7 46  1  0  0  0
  8  9  1  0  0  0
  9 14  2  0  0  0
  9 10  1  0  0  0
 10 11  2  0  0  0
 10 47  1  0  0  0
 11 12  1  0  0  0
 11 48  1  0  0  0
 12 13  2  0  0  0
 12 49  1  0  0  0
 13 14  1  0  0  0
 13 50  1  0  0  0
 14 15  1  0  0  0
 15 16  1  0  0  0
 15 26  1  0  0  0
 15 17  1  0  0  0
 17 22  1  0  0  0
 17 18  2  0  0  0
 18 19  1  0  0  0
 18 23  1  0  0  0
 19 20  1  0  0  0
 20 21  2  0  0  0
 20 22  1  0  0  0
 23 24  1  0  0  0
 24 25  1  0  0  0
 24 31  1  0  0  0
 24 26  1  0  0  0
 26 27  1  0  0  0
 26 28  1  0  0  0
 28 29  2  0  0  0
 28 30  1  0  0  0
 30 31  1  0  0  0
 30 33  1  0  0  0
 31 32  2  0  0  0
 33 38  2  0  0  0
 33 34  1  0  0  0
 34 35  2  0  0  0
 34 51  1  0  0  0
 35 36  1  0  0  0
 35 52  1  0  0  0
 36 37  2  0  0  0
 36 39  1  0  0  0
 37 38  1  0  0  0
 37 53  1  0  0  0
 38 54  1  0  0  0
M  CHG  1  19  -1
M  END
> <i_i_glide_confnum>
114

> <i_i_glide_lignum>
997

> <i_i_glide_posenum>
153

> <i_i_glide_rotatable_bonds>
5

> <i_m_Source_File_Index>
3058

> <b_m_subgroup_collapsed>
0

> <r_i_docking_score>
-6.03679

> <r_i_glide_ecoul>
-3.78164

> <r_i_glide_eff_state_penalty>
0

> <r_i_glide_einternal>
1.84343

> <r_i_glide_emodel>
-71.116

> <r_i_glide_energy>
-53.9868

> <r_i_glide_erotb>
0.383244

> <r_i_glide_esite>
-0.0156155

> <r_i_glide_evdw>
-50.2051

> <r_i_glide_gscore>
-6.03679

> <r_i_glide_hbond>
0

> <r_i_glide_ligand_efficiency>
-0.167689

> <r_i_glide_ligand_efficiency_ln>
-1.31706

> <r_i_glide_ligand_efficiency_sa>
-0.553695

> <r_i_glide_lipo>
-2.9654

> <r_i_glide_metal>
0

> <r_i_glide_rewards>
-0.361509

> <s_i_glide_gridfile>
wee1_glide-grid

> <s_m_Source_File>
wee1_decoys_glide_SP.sdf

> <s_m_Source_Path>
/Users/zhangxujun/Desktop

> <s_m_entry_id>
3333

> <s_m_entry_name>
wee1_decoys_glide_SP.3058

> <s_m_subgroup_title>
wee1_decoys_glide_SP

> <s_m_subgroupid>
wee1_decoys_glide_SP


$$$$
