ZINC63572982_1154
                    3D
 Schrodinger Suite 2024-2.
 61 65  0  0  1  0            999 V2000
   -6.4109   43.5189   25.2725 C   0  0  0  0  0  0
   -5.3295   44.5811   25.3451 C   0  0  0  0  0  0
   -4.6818   44.8287   26.5557 C   0  0  0  0  0  0
   -3.6856   45.7997   26.6343 C   0  0  0  0  0  0
   -3.3322   46.5431   25.5048 C   0  0  0  0  0  0
   -3.9515   46.2665   24.2683 C   0  0  0  0  0  0
   -4.9601   45.3019   24.2060 C   0  0  0  0  0  0
   -3.4552   47.0120   22.7854 Cl  0  0  0  0  0  0
   -2.2886   47.4625   25.6656 N   0  0  0  0  0  0
   -2.3207   48.7771   25.3541 C   0  0  0  0  0  0
   -3.3022   49.3460   24.8677 O   0  0  0  0  0  0
   -1.1672   49.4207   25.6816 N   0  0  0  0  0  0
    0.1103   48.8586   25.1681 C   0  0  0  0  0  0
    0.2889   49.2855   23.6879 C   0  0  0  0  0  0
    0.2289   50.8010   23.6317 C   0  0  0  0  0  0
    1.0782   51.7298   23.1726 C   0  0  0  0  0  0
    2.3669   51.6117   22.4816 C   0  0  0  0  0  0
    3.1470   52.6927   22.2661 C   0  0  0  0  0  0
    2.6146   53.9861   22.6909 C   0  0  0  0  0  0
    1.4246   54.1077   23.3243 C   0  0  0  0  0  0
    0.6383   52.9856   23.5909 C   0  0  0  0  0  0
   -0.5045   52.8951   24.2407 N   0  3  0  0  0  0
   -0.9227   51.4831   24.3528 C   0  0  2  0  0  0
   -1.8409   51.3803   23.7708 H   0  0  0  0  0  0
   -1.1536   50.9029   25.7967 C   0  0  2  0  0  0
   -2.1584   51.2209   26.0842 H   0  0  0  0  0  0
   -0.3014   51.4568   26.9586 C   0  0  0  0  0  0
    1.0401   51.7994   26.7961 C   0  0  0  0  0  0
    1.8100   52.2221   27.8742 C   0  0  0  0  0  0
    1.2429   52.3152   29.1518 C   0  0  0  0  0  0
   -0.1152   52.0384   29.3072 C   0  0  0  0  0  0
   -0.8827   51.6164   28.2209 C   0  0  0  0  0  0
    1.9548   52.6469   30.2905 O   0  0  0  0  0  0
    3.3736   52.7629   30.2099 C   0  0  0  0  0  0
    4.4377   52.4958   21.8924 O   0  0  0  0  0  0
    5.4032   53.4402   22.3537 C   0  0  0  0  0  0
   -6.0092   42.5498   25.5697 H   0  0  0  0  0  0
   -7.2197   43.7593   25.9640 H   0  0  0  0  0  0
   -6.8347   43.4248   24.2717 H   0  0  0  0  0  0
   -4.9386   44.2618   27.4392 H   0  0  0  0  0  0
   -3.1941   45.9730   27.5835 H   0  0  0  0  0  0
   -5.4412   45.0996   23.2596 H   0  0  0  0  0  0
   -1.5582   47.2039   26.3163 H   0  0  0  0  0  0
    0.9242   49.2385   25.7865 H   0  0  0  0  0  0
    0.1818   47.7802   25.3108 H   0  0  0  0  0  0
    1.2423   48.9094   23.3146 H   0  0  0  0  0  0
   -0.4827   48.8367   23.0608 H   0  0  0  0  0  0
    2.7794   50.6444   22.2324 H   0  0  0  0  0  0
    3.1670   54.8860   22.4624 H   0  0  0  0  0  0
    1.1044   55.0951   23.6049 H   0  0  0  0  0  0
    1.5057   51.6969   25.8347 H   0  0  0  0  0  0
    2.8517   52.4437   27.7013 H   0  0  0  0  0  0
   -0.5661   52.1024   30.2882 H   0  0  0  0  0  0
   -1.9192   51.3536   28.3797 H   0  0  0  0  0  0
    3.8309   51.8648   29.7914 H   0  0  0  0  0  0
    3.6687   53.6253   29.6105 H   0  0  0  0  0  0
    3.7858   52.8949   31.2106 H   0  0  0  0  0  0
    5.1746   53.8533   23.3382 H   0  0  0  0  0  0
    6.3545   52.9324   22.4817 H   0  0  0  0  0  0
    5.5266   54.2583   21.6434 H   0  0  0  0  0  0
   -1.0124   53.6698   24.6579 H   0  0  0  0  0  0
  1  2  1  0  0  0
  1 37  1  0  0  0
  1 38  1  0  0  0
  1 39  1  0  0  0
  2  7  2  0  0  0
  2  3  1  0  0  0
  3  4  2  0  0  0
  3 40  1  0  0  0
  4  5  1  0  0  0
  4 41  1  0  0  0
  5  6  2  0  0  0
  5  9  1  0  0  0
  6  7  1  0  0  0
  6  8  1  0  0  0
  7 42  1  0  0  0
  9 10  1  0  0  0
  9 43  1  0  0  0
 10 11  2  0  0  0
 10 12  1  0  0  0
 12 25  1  0  0  0
 12 13  1  0  0  0
 13 14  1  0  0  0
 13 44  1  0  0  0
 13 45  1  0  0  0
 14 15  1  0  0  0
 14 46  1  0  0  0
 14 47  1  0  0  0
 15 23  1  0  0  0
 15 16  2  0  0  0
 16 21  1  0  0  0
 16 17  1  0  0  0
 17 18  2  0  0  0
 17 48  1  0  0  0
 18 19  1  0  0  0
 18 35  1  0  0  0
 19 20  2  0  0  0
 19 49  1  0  0  0
 20 21  1  0  0  0
 20 50  1  0  0  0
 21 22  2  0  0  0
 22 23  1  0  0  0
 22 61  1  0  0  0
 23 24  1  0  0  0
 23 25  1  0  0  0
 25 26  1  0  0  0
 25 27  1  0  0  0
 27 32  2  0  0  0
 27 28  1  0  0  0
 28 29  2  0  0  0
 28 51  1  0  0  0
 29 30  1  0  0  0
 29 52  1  0  0  0
 30 31  2  0  0  0
 30 33  1  0  0  0
 31 32  1  0  0  0
 31 53  1  0  0  0
 32 54  1  0  0  0
 33 34  1  0  0  0
 34 55  1  0  0  0
 34 56  1  0  0  0
 34 57  1  0  0  0
 35 36  1  0  0  0
 36 58  1  0  0  0
 36 59  1  0  0  0
 36 60  1  0  0  0
M  CHG  1  22   1
M  END
> <i_i_glide_confnum>
46

> <i_i_glide_lignum>
1155

> <i_i_glide_posenum>
320

> <i_i_glide_rotatable_bonds>
6

> <i_m_Source_File_Index>
6040

> <b_m_subgroup_collapsed>
0

> <r_i_docking_score>
-4.01606

> <r_i_glide_ecoul>
-4.39762

> <r_i_glide_eff_state_penalty>
0

> <r_i_glide_einternal>
3.74759

> <r_i_glide_emodel>
-45.7717

> <r_i_glide_energy>
-39.9957

> <r_i_glide_erotb>
0.356102

> <r_i_glide_esite>
-0.281391

> <r_i_glide_evdw>
-35.5981

> <r_i_glide_gscore>
-4.01606

> <r_i_glide_hbond>
-0.0151876

> <r_i_glide_ligand_efficiency>
-0.11812

> <r_i_glide_ligand_efficiency_ln>
-0.887261

> <r_i_glide_ligand_efficiency_sa>
-0.382661

> <r_i_glide_lipo>
-1.47975

> <r_i_glide_metal>
0

> <r_i_glide_rewards>
-0.15629

> <s_i_glide_gridfile>
wee1_glide-grid

> <s_m_Source_File>
wee1_decoys_glide_SP.sdf

> <s_m_Source_Path>
/Users/zhangxujun/Desktop

> <s_m_entry_id>
6315

> <s_m_entry_name>
wee1_decoys_glide_SP.6040

> <s_m_subgroup_title>
wee1_decoys_glide_SP

> <s_m_subgroupid>
wee1_decoys_glide_SP


$$$$
