ZINC10556879_3250
                    3D
 Schrodinger Suite 2024-2.
 52 56  0  0  1  0            999 V2000
    8.3223   59.0804   16.8413 C   0  0  0  0  0  0
    7.6544   57.8542   17.4110 C   0  0  0  0  0  0
    7.7606   56.6858   16.8400 N   0  0  0  0  0  0
    7.0662   55.7287   17.5097 C   0  0  0  0  0  0
    6.9708   54.3877   17.1212 C   0  0  0  0  0  0
    6.1903   53.5257   17.8944 C   0  0  0  0  0  0
    5.5216   53.9588   19.0440 C   0  0  0  0  0  0
    5.6228   55.3011   19.4514 C   0  0  0  0  0  0
    6.3955   56.1734   18.6747 C   0  0  0  0  0  0
    6.7051   57.8881   18.8813 S   0  0  0  0  0  0
    4.7346   52.9909   19.7040 N   0  0  0  0  0  0
    4.1519   53.0537   20.9251 C   0  0  0  0  0  0
    4.3463   53.9648   21.7338 O   0  0  0  0  0  0
    3.2107   51.9212   21.2904 C   0  0  0  0  0  0
    3.1449   50.7297   20.5528 C   0  0  0  0  0  0
    2.3040   49.6908   20.9465 C   0  0  0  0  0  0
    1.5079   49.8275   22.0817 C   0  0  0  0  0  0
    1.5289   51.0106   22.8216 C   0  0  0  0  0  0
    2.3796   52.0454   22.4152 C   0  0  0  0  0  0
    0.7026   51.0943   23.9527 N   0  0  0  0  0  0
    0.2443   52.5948   24.7835 S   0  0  0  0  0  0
    0.2791   53.6925   23.8100 O   0  0  0  0  0  0
   -0.9861   52.2846   25.5187 O   0  0  0  0  0  0
    1.5222   52.8979   26.0021 C   0  0  0  0  0  0
    1.4224   52.3319   27.2796 C   0  0  0  0  0  0
    2.4371   52.5308   28.2191 C   0  0  0  0  0  0
    3.5569   53.2919   27.8799 C   0  0  0  0  0  0
    3.6499   53.8740   26.6048 C   0  0  0  0  0  0
    2.6263   53.6967   25.6777 C   0  0  0  0  0  0
    4.7275   54.6501   26.2307 O   0  0  0  0  0  0
    5.9156   54.3590   26.9694 C   0  0  0  0  0  0
    5.6017   54.3163   28.4815 C   0  0  0  0  0  0
    4.5911   53.3487   28.7933 O   0  0  0  0  0  0
    9.4051   59.0433   16.9762 H   0  0  0  0  0  0
    7.9626   59.9956   17.3154 H   0  0  0  0  0  0
    8.1285   59.1831   15.7708 H   0  0  0  0  0  0
    7.4747   54.0313   16.2362 H   0  0  0  0  0  0
    6.1010   52.4965   17.5789 H   0  0  0  0  0  0
    5.1071   55.6857   20.3177 H   0  0  0  0  0  0
    4.5961   52.1387   19.1779 H   0  0  0  0  0  0
    3.7593   50.5741   19.6802 H   0  0  0  0  0  0
    2.2826   48.7746   20.3754 H   0  0  0  0  0  0
    0.8705   49.0083   22.3832 H   0  0  0  0  0  0
    2.4197   52.9589   22.9801 H   0  0  0  0  0  0
    0.2314   50.2564   24.2580 H   0  0  0  0  0  0
    0.5705   51.7197   27.5393 H   0  0  0  0  0  0
    2.3708   52.0678   29.1921 H   0  0  0  0  0  0
    2.7073   54.1724   24.7126 H   0  0  0  0  0  0
    6.6726   55.1118   26.7498 H   0  0  0  0  0  0
    6.3092   53.3893   26.6561 H   0  0  0  0  0  0
    5.2569   55.2962   28.8089 H   0  0  0  0  0  0
    6.5066   54.0899   29.0462 H   0  0  0  0  0  0
  1  2  1  0  0  0
  1 34  1  0  0  0
  1 35  1  0  0  0
  1 36  1  0  0  0
  2 10  1  0  0  0
  2  3  2  0  0  0
  3  4  1  0  0  0
  4  9  2  0  0  0
  4  5  1  0  0  0
  5  6  2  0  0  0
  5 37  1  0  0  0
  6  7  1  0  0  0
  6 38  1  0  0  0
  7  8  2  0  0  0
  7 11  1  0  0  0
  8  9  1  0  0  0
  8 39  1  0  0  0
  9 10  1  0  0  0
 11 12  1  0  0  0
 11 40  1  0  0  0
 12 13  2  0  0  0
 12 14  1  0  0  0
 14 19  2  0  0  0
 14 15  1  0  0  0
 15 16  2  0  0  0
 15 41  1  0  0  0
 16 17  1  0  0  0
 16 42  1  0  0  0
 17 18  2  0  0  0
 17 43  1  0  0  0
 18 19  1  0  0  0
 18 20  1  0  0  0
 19 44  1  0  0  0
 20 21  1  0  0  0
 20 45  1  0  0  0
 21 22  2  0  0  0
 21 23  2  0  0  0
 21 24  1  0  0  0
 24 29  2  0  0  0
 24 25  1  0  0  0
 25 26  2  0  0  0
 25 46  1  0  0  0
 26 27  1  0  0  0
 26 47  1  0  0  0
 27 33  1  0  0  0
 27 28  2  0  0  0
 28 29  1  0  0  0
 28 30  1  0  0  0
 29 48  1  0  0  0
 30 31  1  0  0  0
 31 32  1  0  0  0
 31 49  1  0  0  0
 31 50  1  0  0  0
 32 33  1  0  0  0
 32 51  1  0  0  0
 32 52  1  0  0  0
M  END
> <i_i_glide_confnum>
27

> <i_i_glide_lignum>
3251

> <i_i_glide_posenum>
333

> <i_i_glide_rotatable_bonds>
6

> <i_m_Source_File_Index>
4647

> <b_m_subgroup_collapsed>
0

> <r_i_docking_score>
-4.91672

> <r_i_glide_ecoul>
-4.08128

> <r_i_glide_eff_state_penalty>
0

> <r_i_glide_einternal>
0.796765

> <r_i_glide_emodel>
-62.2157

> <r_i_glide_energy>
-47.9514

> <r_i_glide_erotb>
0.524923

> <r_i_glide_esite>
-0.0573985

> <r_i_glide_evdw>
-43.8701

> <r_i_glide_gscore>
-4.91672

> <r_i_glide_hbond>
-0.0924917

> <r_i_glide_ligand_efficiency>
-0.148992

> <r_i_glide_ligand_efficiency_ln>
-1.09345

> <r_i_glide_ligand_efficiency_sa>
-0.477896

> <r_i_glide_lipo>
-2.14722

> <r_i_glide_metal>
0

> <r_i_glide_rewards>
-0.338841

> <s_i_glide_gridfile>
wee1_glide-grid

> <s_m_Source_File>
wee1_decoys_glide_SP.sdf

> <s_m_Source_Path>
/Users/zhangxujun/Desktop

> <s_m_entry_id>
4922

> <s_m_entry_name>
wee1_decoys_glide_SP.4647

> <s_m_subgroup_title>
wee1_decoys_glide_SP

> <s_m_subgroupid>
wee1_decoys_glide_SP


$$$$
