ZINC16362029_5412
                    3D
 Schrodinger Suite 2024-2.
 58 62  0  0  1  0            999 V2000
    0.4708   50.9951   15.7656 C   0  0  0  0  0  0
   -0.6572   51.8027   15.9194 C   0  0  0  0  0  0
   -0.6195   52.9263   16.7582 C   0  0  0  0  0  0
    0.5753   53.2361   17.4210 C   0  0  0  0  0  0
    1.7090   52.4234   17.2724 C   0  0  0  0  0  0
    1.6485   51.2970   16.4511 C   0  0  0  0  0  0
    2.8813   52.6616   18.0014 N   0  0  0  0  0  0
    3.4527   53.8699   18.1803 C   0  0  0  0  0  0
    3.2576   54.8372   17.4410 O   0  0  0  0  0  0
    4.3240   54.0110   19.4026 C   0  0  0  0  0  0
    3.9850   53.3769   20.6020 C   0  0  0  0  0  0
    4.7525   53.5738   21.7452 C   0  0  0  0  0  0
    5.9024   54.3797   21.7219 C   0  0  0  0  0  0
    6.2595   55.0178   20.5089 C   0  0  0  0  0  0
    5.4398   54.8468   19.3807 C   0  0  0  0  0  0
    7.4771   55.8540   20.3600 N   0  3  0  0  0  0
    7.5051   56.6782   19.4506 O   0  0  0  0  0  0
    8.4162   55.6975   21.1310 O   0  5  0  0  0  0
    6.7083   54.5176   22.8712 N   0  0  0  0  0  0
    6.4089   53.9697   24.1886 C   0  0  0  0  0  0
    5.7320   55.0018   25.0951 C   0  0  0  0  0  0
    4.7942   54.4283   26.0552 N   0  0  0  0  0  0
    5.0859   54.2509   27.3889 C   0  0  0  0  0  0
    6.0963   54.5263   28.0293 O   0  0  0  0  0  0
    3.9042   53.4424   27.8457 C   0  0  1  0  0  0
    4.2621   52.4570   27.5381 H   0  0  0  0  0  0
    3.2052   53.1765   29.2110 C   0  0  2  0  0  0
    3.8049   52.6896   29.9802 H   0  0  0  0  0  0
    2.1167   52.2582   28.5970 C   0  0  0  0  0  0
    1.5777   53.3367   27.6337 C   0  0  2  0  0  0
    0.7954   53.0260   26.9393 H   0  0  0  0  0  0
    2.8361   54.0558   27.0415 C   0  0  2  0  0  0
    2.6755   55.1326   27.1930 H   0  0  0  0  0  0
    3.5044   54.0964   25.6988 C   0  0  0  0  0  0
    2.9724   54.0004   24.5941 O   0  0  0  0  0  0
    1.1830   54.2766   28.7751 C   0  0  0  0  0  0
    2.2167   54.2783   29.6567 C   0  0  0  0  0  0
   -1.8672   53.7836   16.9777 C   0  0  0  0  0  0
   -2.5004   53.3320   18.0617 F   0  0  0  0  0  0
   -1.5584   55.0666   17.1796 F   0  0  0  0  0  0
   -2.7065   53.7161   15.9448 F   0  0  0  0  0  0
    0.4318   50.1256   15.1256 H   0  0  0  0  0  0
   -1.5661   51.5410   15.3934 H   0  0  0  0  0  0
    0.6095   54.0921   18.0813 H   0  0  0  0  0  0
    2.5121   50.6584   16.3334 H   0  0  0  0  0  0
    3.3197   51.8604   18.4365 H   0  0  0  0  0  0
    3.1020   52.7565   20.6741 H   0  0  0  0  0  0
    4.4238   53.0743   22.6396 H   0  0  0  0  0  0
    5.6913   55.3478   18.4551 H   0  0  0  0  0  0
    7.5303   55.1084   22.7920 H   0  0  0  0  0  0
    5.8213   53.0612   24.1072 H   0  0  0  0  0  0
    7.3552   53.6486   24.6299 H   0  0  0  0  0  0
    6.4921   55.5906   25.6104 H   0  0  0  0  0  0
    5.1725   55.7051   24.4833 H   0  0  0  0  0  0
    2.4926   51.3709   28.0807 H   0  0  0  0  0  0
    1.3886   51.8714   29.3203 H   0  0  0  0  0  0
    0.3044   54.8984   28.7713 H   0  0  0  0  0  0
    2.3394   54.9243   30.5050 H   0  0  0  0  0  0
  1  6  2  0  0  0
  1  2  1  0  0  0
  1 42  1  0  0  0
  2  3  2  0  0  0
  2 43  1  0  0  0
  3  4  1  0  0  0
  3 38  1  0  0  0
  4  5  2  0  0  0
  4 44  1  0  0  0
  5  6  1  0  0  0
  5  7  1  0  0  0
  6 45  1  0  0  0
  7  8  1  0  0  0
  7 46  1  0  0  0
  8  9  2  0  0  0
  8 10  1  0  0  0
 10 15  2  0  0  0
 10 11  1  0  0  0
 11 12  2  0  0  0
 11 47  1  0  0  0
 12 13  1  0  0  0
 12 48  1  0  0  0
 13 14  2  0  0  0
 13 19  1  0  0  0
 14 15  1  0  0  0
 14 16  1  0  0  0
 15 49  1  0  0  0
 16 17  2  0  0  0
 16 18  1  0  0  0
 19 20  1  0  0  0
 19 50  1  0  0  0
 20 21  1  0  0  0
 20 51  1  0  0  0
 20 52  1  0  0  0
 21 22  1  0  0  0
 21 53  1  0  0  0
 21 54  1  0  0  0
 22 34  1  0  0  0
 22 23  1  0  0  0
 23 24  2  0  0  0
 23 25  1  0  0  0
 25 26  1  0  0  0
 25 32  1  0  0  0
 25 27  1  0  0  0
 27 28  1  0  0  0
 27 37  1  0  0  0
 27 29  1  0  0  0
 29 30  1  0  0  0
 29 55  1  0  0  0
 29 56  1  0  0  0
 30 31  1  0  0  0
 30 32  1  0  0  0
 30 36  1  0  0  0
 32 33  1  0  0  0
 32 34  1  0  0  0
 34 35  2  0  0  0
 36 37  2  0  0  0
 36 57  1  0  0  0
 37 58  1  0  0  0
 38 39  1  0  0  0
 38 40  1  0  0  0
 38 41  1  0  0  0
M  CHG  2  16   1  18  -1
M  END
> <i_i_glide_confnum>
70

> <i_i_glide_lignum>
5413

> <i_i_glide_posenum>
299

> <i_i_glide_rotatable_bonds>
9

> <i_m_Source_File_Index>
3069

> <b_m_subgroup_collapsed>
0

> <r_i_docking_score>
-5.57054

> <r_i_glide_ecoul>
-1.27957

> <r_i_glide_eff_state_penalty>
0

> <r_i_glide_einternal>
5.01324

> <r_i_glide_emodel>
-58.2721

> <r_i_glide_energy>
-45.1706

> <r_i_glide_erotb>
0.465032

> <r_i_glide_esite>
-0.147068

> <r_i_glide_evdw>
-43.891

> <r_i_glide_gscore>
-5.57054

> <r_i_glide_hbond>
-0.0673459

> <r_i_glide_ligand_efficiency>
-0.150555

> <r_i_glide_ligand_efficiency_ln>
-1.20812

> <r_i_glide_ligand_efficiency_sa>
-0.501683

> <r_i_glide_lipo>
-2.37612

> <r_i_glide_metal>
0

> <r_i_glide_rewards>
-1.05855

> <s_i_glide_gridfile>
wee1_glide-grid

> <s_m_Source_File>
wee1_decoys_glide_SP.sdf

> <s_m_Source_Path>
/Users/zhangxujun/Desktop

> <s_m_entry_id>
3344

> <s_m_entry_name>
wee1_decoys_glide_SP.3069

> <s_m_subgroup_title>
wee1_decoys_glide_SP

> <s_m_subgroupid>
wee1_decoys_glide_SP


$$$$
