ZINC39898517_5971
                    3D
 Schrodinger Suite 2024-2.
 63 66  0  0  1  0            999 V2000
    1.6477   56.4824   29.2495 C   0  0  0  0  0  0
    1.5160   55.4293   30.3509 C   0  0  0  0  0  0
    0.5363   54.2474   30.1375 C   0  0  0  0  0  0
    0.6515   53.4116   28.8352 C   0  0  0  0  0  0
    1.9964   53.2741   28.2626 N   0  0  0  0  0  0
    2.2868   53.7474   26.9061 C   0  0  1  0  0  0
    1.9358   54.7719   26.8760 H   0  0  0  0  0  0
    3.7768   53.7016   26.9181 C   0  0  0  0  0  0
    4.9450   53.9394   26.1918 C   0  0  0  0  0  0
    5.9248   53.6969   27.1283 N   0  0  0  0  0  0
    5.4858   53.2734   28.3177 N   0  0  0  0  0  0
    6.9075   53.8229   26.9372 H   0  0  0  0  0  0
    4.1869   53.2630   28.1611 C   0  0  0  0  0  0
    3.0796   52.8700   28.9824 C   0  0  0  0  0  0
    3.0954   52.3456   30.0992 O   0  0  0  0  0  0
    5.2783   54.2980   24.7763 C   0  0  0  0  0  0
    4.5397   53.7006   23.7495 C   0  0  0  0  0  0
    4.8669   53.8929   22.4113 C   0  0  0  0  0  0
    5.9530   54.6954   22.0752 C   0  0  0  0  0  0
    6.7043   55.2966   23.0813 C   0  0  0  0  0  0
    6.3669   55.1149   24.4232 C   0  0  0  0  0  0
    7.0707   55.6944   25.3066 O   0  5  0  0  0  0
    3.9525   53.1056   21.1809 Cl  0  0  0  0  0  0
    1.5548   53.0449   25.7520 C   0  0  0  0  0  0
    1.4314   53.7038   24.5273 C   0  0  0  0  0  0
    0.8005   53.0932   23.4487 C   0  0  0  0  0  0
    0.2545   51.8195   23.5814 C   0  0  0  0  0  0
    0.3469   51.1397   24.8065 C   0  0  0  0  0  0
    0.9734   51.7794   25.8918 C   0  0  0  0  0  0
   -0.1693   49.8589   24.8607 O   0  0  0  0  0  0
   -0.0971   49.1337   26.0803 C   0  0  0  0  0  0
   -0.3182   51.2424   22.4747 O   0  0  0  0  0  0
   -1.7352   51.0879   22.5181 C   0  0  0  0  0  0
   -2.1422   49.8774   21.6508 C   0  0  0  0  0  0
   -1.5136   48.5646   22.1577 C   0  0  0  0  0  0
   -3.6728   49.7499   21.5452 C   0  0  0  0  0  0
    2.2595   57.2968   29.6186 H   0  0  0  0  0  0
    2.1690   56.0998   28.3794 H   0  0  0  0  0  0
    0.7031   56.8966   28.9241 H   0  0  0  0  0  0
    1.2558   55.9305   31.2825 H   0  0  0  0  0  0
    2.5198   55.0362   30.4817 H   0  0  0  0  0  0
   -0.4953   54.5734   30.2561 H   0  0  0  0  0  0
    0.6898   53.5609   30.9727 H   0  0  0  0  0  0
    0.0103   53.8700   28.0817 H   0  0  0  0  0  0
    0.2494   52.4106   29.0058 H   0  0  0  0  0  0
    3.7447   53.0162   23.9884 H   0  0  0  0  0  0
    6.2192   54.8420   21.0395 H   0  0  0  0  0  0
    7.5482   55.9159   22.8177 H   0  0  0  0  0  0
    1.8592   54.6868   24.3946 H   0  0  0  0  0  0
    0.7499   53.6006   22.4977 H   0  0  0  0  0  0
    1.0677   51.2733   26.8407 H   0  0  0  0  0  0
   -0.6204   48.1842   25.9762 H   0  0  0  0  0  0
    0.9344   48.9160   26.3594 H   0  0  0  0  0  0
   -0.5773   49.6965   26.8818 H   0  0  0  0  0  0
   -2.1871   52.0011   22.1277 H   0  0  0  0  0  0
   -2.1174   50.9582   23.5332 H   0  0  0  0  0  0
   -1.7618   50.0562   20.6435 H   0  0  0  0  0  0
   -1.8525   48.3236   23.1668 H   0  0  0  0  0  0
   -0.4254   48.6312   22.1875 H   0  0  0  0  0  0
   -1.7673   47.7249   21.5102 H   0  0  0  0  0  0
   -4.1298   49.5913   22.5233 H   0  0  0  0  0  0
   -4.1160   50.6473   21.1135 H   0  0  0  0  0  0
   -3.9574   48.9124   20.9081 H   0  0  0  0  0  0
  1  2  1  0  0  0
  1 37  1  0  0  0
  1 38  1  0  0  0
  1 39  1  0  0  0
  2  3  1  0  0  0
  2 40  1  0  0  0
  2 41  1  0  0  0
  3  4  1  0  0  0
  3 42  1  0  0  0
  3 43  1  0  0  0
  4  5  1  0  0  0
  4 44  1  0  0  0
  4 45  1  0  0  0
  5 14  1  0  0  0
  5  6  1  0  0  0
  6  7  1  0  0  0
  6  8  1  0  0  0
  6 24  1  0  0  0
  8 13  1  0  0  0
  8  9  2  0  0  0
  9 16  1  0  0  0
  9 10  1  0  0  0
 10 12  1  0  0  0
 10 11  1  0  0  0
 11 13  2  0  0  0
 13 14  1  0  0  0
 14 15  2  0  0  0
 16 21  2  0  0  0
 16 17  1  0  0  0
 17 18  2  0  0  0
 17 46  1  0  0  0
 18 19  1  0  0  0
 18 23  1  0  0  0
 19 20  2  0  0  0
 19 47  1  0  0  0
 20 21  1  0  0  0
 20 48  1  0  0  0
 21 22  1  0  0  0
 24 29  2  0  0  0
 24 25  1  0  0  0
 25 26  2  0  0  0
 25 49  1  0  0  0
 26 27  1  0  0  0
 26 50  1  0  0  0
 27 28  2  0  0  0
 27 32  1  0  0  0
 28 29  1  0  0  0
 28 30  1  0  0  0
 29 51  1  0  0  0
 30 31  1  0  0  0
 31 52  1  0  0  0
 31 53  1  0  0  0
 31 54  1  0  0  0
 32 33  1  0  0  0
 33 34  1  0  0  0
 33 55  1  0  0  0
 33 56  1  0  0  0
 34 35  1  0  0  0
 34 36  1  0  0  0
 34 57  1  0  0  0
 35 58  1  0  0  0
 35 59  1  0  0  0
 35 60  1  0  0  0
 36 61  1  0  0  0
 36 62  1  0  0  0
 36 63  1  0  0  0
M  CHG  1  22  -1
M  END
> <i_i_glide_confnum>
118

> <i_i_glide_lignum>
5972

> <i_i_glide_posenum>
225

> <i_i_glide_rotatable_bonds>
9

> <i_m_Source_File_Index>
4622

> <b_m_subgroup_collapsed>
0

> <r_i_docking_score>
-7.21218

> <r_i_glide_ecoul>
-3.53392

> <r_i_glide_eff_state_penalty>
0

> <r_i_glide_einternal>
12.7283

> <r_i_glide_emodel>
-62.1282

> <r_i_glide_energy>
-48.5529

> <r_i_glide_erotb>
0.522079

> <r_i_glide_esite>
0

> <r_i_glide_evdw>
-45.019

> <r_i_glide_gscore>
-7.21218

> <r_i_glide_hbond>
-0.256638

> <r_i_glide_ligand_efficiency>
-0.212123

> <r_i_glide_ligand_efficiency_ln>
-1.59337

> <r_i_glide_ligand_efficiency_sa>
-0.687196

> <r_i_glide_lipo>
-4.06486

> <r_i_glide_metal>
0

> <r_i_glide_rewards>
-0.631726

> <s_i_glide_gridfile>
wee1_glide-grid

> <s_m_Source_File>
wee1_decoys_glide_SP.sdf

> <s_m_Source_Path>
/Users/zhangxujun/Desktop

> <s_m_entry_id>
4897

> <s_m_entry_name>
wee1_decoys_glide_SP.4622

> <s_m_subgroup_title>
wee1_decoys_glide_SP

> <s_m_subgroupid>
wee1_decoys_glide_SP


$$$$
