ZINC33113282_2769
                    3D
 Schrodinger Suite 2024-2.
 53 56  0  0  1  0            999 V2000
    4.9584   58.7860   15.4750 C   0  0  0  0  0  0
    5.2989   57.8882   16.6500 C   0  0  0  0  0  0
    4.4135   56.8814   17.0353 C   0  0  0  0  0  0
    4.6939   56.0959   18.1505 C   0  0  0  0  0  0
    5.8659   56.3217   18.8912 C   0  0  0  0  0  0
    6.7625   57.3108   18.4793 C   0  0  0  0  0  0
    6.4767   58.0966   17.3669 C   0  0  0  0  0  0
    6.1777   55.6771   20.1025 N   0  0  0  0  0  0
    5.4999   54.7109   20.7603 C   0  0  0  0  0  0
    4.6364   53.9850   20.2692 O   0  0  0  0  0  0
    5.8233   54.6553   22.1650 C   0  0  0  0  0  0
    6.7538   55.2956   22.8340 N   0  0  0  0  0  0
    6.7045   55.0901   24.2036 N   0  0  0  0  0  0
    5.7604   54.2629   24.5773 C   0  0  0  0  0  0
    4.8152   53.6979   23.2240 S   0  0  0  0  0  0
    5.5072   53.8887   26.0308 C   0  0  1  0  0  0
    5.1302   52.8824   26.0758 H   0  0  0  0  0  0
    6.7858   53.9133   26.9123 C   0  0  0  0  0  0
    6.4647   53.6059   28.3860 C   0  0  0  0  0  0
    5.3300   54.5066   28.9136 C   0  0  0  0  0  0
    4.1528   54.2485   28.0665 N   0  0  0  0  0  0
    4.3566   54.6910   26.6677 C   0  0  0  0  0  0
    3.2377   53.3168   28.4588 C   0  0  0  0  0  0
    3.3081   52.7423   29.5500 O   0  0  0  0  0  0
    2.1902   53.1753   27.6163 N   0  0  0  0  0  0
    0.9630   52.5286   27.8410 C   0  0  0  0  0  0
    0.2555   52.1277   26.7049 C   0  0  0  0  0  0
   -0.9840   51.5087   26.8368 C   0  0  0  0  0  0
   -1.5164   51.2968   28.1056 C   0  0  0  0  0  0
   -0.8237   51.6967   29.2458 C   0  0  0  0  0  0
    0.4145   52.3188   29.1167 C   0  0  0  0  0  0
    5.5093   59.7267   15.5196 H   0  0  0  0  0  0
    3.8996   59.0508   15.4924 H   0  0  0  0  0  0
    5.1733   58.2873   14.5302 H   0  0  0  0  0  0
    3.4966   56.7212   16.4866 H   0  0  0  0  0  0
    3.9665   55.3530   18.4391 H   0  0  0  0  0  0
    7.6729   57.5004   19.0290 H   0  0  0  0  0  0
    7.1585   58.8837   17.0768 H   0  0  0  0  0  0
    6.9372   56.0955   20.6152 H   0  0  0  0  0  0
    7.5041   53.1708   26.5664 H   0  0  0  0  0  0
    7.2370   54.9060   26.8972 H   0  0  0  0  0  0
    6.1808   52.5575   28.4815 H   0  0  0  0  0  0
    7.3597   53.7381   28.9950 H   0  0  0  0  0  0
    5.1032   54.4409   29.9778 H   0  0  0  0  0  0
    5.6105   55.5513   28.7893 H   0  0  0  0  0  0
    4.7139   55.6971   26.7677 H   0  0  0  0  0  0
    3.4401   54.7766   26.0836 H   0  0  0  0  0  0
    2.2832   53.6021   26.7091 H   0  0  0  0  0  0
    0.6629   52.2865   25.7167 H   0  0  0  0  0  0
   -1.5245   51.1798   25.9615 H   0  0  0  0  0  0
   -2.4638   50.7877   28.2109 H   0  0  0  0  0  0
   -1.2404   51.5087   30.2264 H   0  0  0  0  0  0
    0.9246   52.6350   30.0137 H   0  0  0  0  0  0
  1  2  1  0  0  0
  1 32  1  0  0  0
  1 33  1  0  0  0
  1 34  1  0  0  0
  2  7  2  0  0  0
  2  3  1  0  0  0
  3  4  2  0  0  0
  3 35  1  0  0  0
  4  5  1  0  0  0
  4 36  1  0  0  0
  5  6  2  0  0  0
  5  8  1  0  0  0
  6  7  1  0  0  0
  6 37  1  0  0  0
  7 38  1  0  0  0
  8  9  1  0  0  0
  8 39  1  0  0  0
  9 10  2  0  0  0
  9 11  1  0  0  0
 11 15  1  0  0  0
 11 12  2  0  0  0
 12 13  1  0  0  0
 13 14  2  0  0  0
 14 15  1  0  0  0
 14 16  1  0  0  0
 16 17  1  0  0  0
 16 22  1  0  0  0
 16 18  1  0  0  0
 18 19  1  0  0  0
 18 40  1  0  0  0
 18 41  1  0  0  0
 19 20  1  0  0  0
 19 42  1  0  0  0
 19 43  1  0  0  0
 20 21  1  0  0  0
 20 44  1  0  0  0
 20 45  1  0  0  0
 21 22  1  0  0  0
 21 23  1  0  0  0
 22 46  1  0  0  0
 22 47  1  0  0  0
 23 24  2  0  0  0
 23 25  1  0  0  0
 25 26  1  0  0  0
 25 48  1  0  0  0
 26 31  2  0  0  0
 26 27  1  0  0  0
 27 28  2  0  0  0
 27 49  1  0  0  0
 28 29  1  0  0  0
 28 50  1  0  0  0
 29 30  2  0  0  0
 29 51  1  0  0  0
 30 31  1  0  0  0
 30 52  1  0  0  0
 31 53  1  0  0  0
M  END
> <i_i_glide_confnum>
226

> <i_i_glide_lignum>
2770

> <i_i_glide_posenum>
135

> <i_i_glide_rotatable_bonds>
7

> <i_m_Source_File_Index>
5486

> <b_m_subgroup_collapsed>
0

> <r_i_docking_score>
-5.47028

> <r_i_glide_ecoul>
-1.46703

> <r_i_glide_eff_state_penalty>
0

> <r_i_glide_einternal>
5.8738

> <r_i_glide_emodel>
-58.2952

> <r_i_glide_energy>
-46.671

> <r_i_glide_erotb>
0.780157

> <r_i_glide_esite>
0

> <r_i_glide_evdw>
-45.204

> <r_i_glide_gscore>
-5.47028

> <r_i_glide_hbond>
0

> <r_i_glide_ligand_efficiency>
-0.182343

> <r_i_glide_ligand_efficiency_ln>
-1.24291

> <r_i_glide_ligand_efficiency_sa>
-0.566582

> <r_i_glide_lipo>
-2.40228

> <r_i_glide_metal>
0

> <r_i_glide_rewards>
-1.36791

> <s_i_glide_gridfile>
wee1_glide-grid

> <s_m_Source_File>
wee1_decoys_glide_SP.sdf

> <s_m_Source_Path>
/Users/zhangxujun/Desktop

> <s_m_entry_id>
5761

> <s_m_entry_name>
wee1_decoys_glide_SP.5486

> <s_m_subgroup_title>
wee1_decoys_glide_SP

> <s_m_subgroupid>
wee1_decoys_glide_SP


$$$$
