ZINC06557918_4416
                    3D
 Schrodinger Suite 2024-2.
 54 57  0  0  1  0            999 V2000
    5.8650   54.8916   19.9294 C   0  0  0  0  0  0
    5.7953   54.7081   21.4346 C   0  0  0  0  0  0
    6.7604   55.2967   22.2504 C   0  0  0  0  0  0
    6.7043   55.1205   23.6307 C   0  0  0  0  0  0
    5.6969   54.3504   24.2114 C   0  0  0  0  0  0
    4.7413   53.7514   23.3817 C   0  0  0  0  0  0
    4.7869   53.9287   22.0010 C   0  0  0  0  0  0
    5.6436   54.2120   25.7066 C   0  0  0  0  0  0
    6.6884   54.0978   26.4940 N   0  0  0  0  0  0
    6.2224   54.1076   27.8082 N   0  0  0  0  0  0
    4.9146   54.2068   27.7747 C   0  0  0  0  0  0
    4.4961   54.2831   26.4647 N   0  0  0  0  0  0
    3.2246   54.4967   26.0038 N   0  0  0  0  0  0
    3.9137   54.5260   29.2076 S   0  0  0  0  0  0
    2.7798   53.0963   29.2920 C   0  0  2  0  0  0
    2.3182   53.1842   30.2757 H   0  0  0  0  0  0
    3.5377   51.7576   29.3204 C   0  0  0  0  0  0
    1.5637   53.1643   28.3373 C   0  0  0  0  0  0
    0.7281   54.0552   28.4906 O   0  0  0  0  0  0
    1.4389   52.2071   27.3972 N   0  0  0  0  0  0
    0.2875   51.9707   26.5146 C   0  0  2  0  0  0
   -0.4327   52.7758   26.6793 H   0  0  0  0  0  0
   -0.4245   50.6613   26.9149 C   0  0  0  0  0  0
    0.3696   49.4365   26.4378 C   0  0  0  0  0  0
    0.4243   49.4098   24.9048 C   0  0  0  0  0  0
    0.7932   50.7594   24.2899 C   0  0  0  0  0  0
    0.6485   51.9666   25.0175 C   0  0  0  0  0  0
    0.8870   53.1758   24.3518 C   0  0  0  0  0  0
    1.3106   53.2120   23.0265 C   0  0  0  0  0  0
    1.4992   52.0236   22.3331 C   0  0  0  0  0  0
    1.2383   50.8107   22.9632 C   0  0  0  0  0  0
    5.4779   55.8700   19.6448 H   0  0  0  0  0  0
    6.8984   54.8241   19.5859 H   0  0  0  0  0  0
    5.3056   54.1181   19.4011 H   0  0  0  0  0  0
    7.5590   55.8860   21.8232 H   0  0  0  0  0  0
    7.4558   55.5909   24.2488 H   0  0  0  0  0  0
    3.9535   53.1486   23.8033 H   0  0  0  0  0  0
    4.0392   53.4615   21.3758 H   0  0  0  0  0  0
    3.2004   55.3020   25.3955 H   0  0  0  0  0  0
    2.8673   53.6722   25.5439 H   0  0  0  0  0  0
    2.8687   50.8982   29.2828 H   0  0  0  0  0  0
    4.2235   51.6969   28.4817 H   0  0  0  0  0  0
    4.1408   51.6783   30.2258 H   0  0  0  0  0  0
    2.1964   51.5502   27.2974 H   0  0  0  0  0  0
   -1.4228   50.6277   26.4749 H   0  0  0  0  0  0
   -0.5636   50.6116   27.9964 H   0  0  0  0  0  0
   -0.0923   48.5154   26.7883 H   0  0  0  0  0  0
    1.3715   49.4406   26.8695 H   0  0  0  0  0  0
   -0.5613   49.1318   24.5293 H   0  0  0  0  0  0
    1.1032   48.6276   24.5699 H   0  0  0  0  0  0
    0.7581   54.1055   24.8818 H   0  0  0  0  0  0
    1.5064   54.1568   22.5391 H   0  0  0  0  0  0
    1.8337   52.0412   21.3056 H   0  0  0  0  0  0
    1.3640   49.8948   22.4037 H   0  0  0  0  0  0
  1  2  1  0  0  0
  1 32  1  0  0  0
  1 33  1  0  0  0
  1 34  1  0  0  0
  2  7  2  0  0  0
  2  3  1  0  0  0
  3  4  2  0  0  0
  3 35  1  0  0  0
  4  5  1  0  0  0
  4 36  1  0  0  0
  5  6  2  0  0  0
  5  8  1  0  0  0
  6  7  1  0  0  0
  6 37  1  0  0  0
  7 38  1  0  0  0
  8 12  1  0  0  0
  8  9  2  0  0  0
  9 10  1  0  0  0
 10 11  2  0  0  0
 11 12  1  0  0  0
 11 14  1  0  0  0
 12 13  1  0  0  0
 13 39  1  0  0  0
 13 40  1  0  0  0
 14 15  1  0  0  0
 15 16  1  0  0  0
 15 17  1  0  0  0
 15 18  1  0  0  0
 17 41  1  0  0  0
 17 42  1  0  0  0
 17 43  1  0  0  0
 18 19  2  0  0  0
 18 20  1  0  0  0
 20 21  1  0  0  0
 20 44  1  0  0  0
 21 22  1  0  0  0
 21 27  1  0  0  0
 21 23  1  0  0  0
 23 24  1  0  0  0
 23 45  1  0  0  0
 23 46  1  0  0  0
 24 25  1  0  0  0
 24 47  1  0  0  0
 24 48  1  0  0  0
 25 26  1  0  0  0
 25 49  1  0  0  0
 25 50  1  0  0  0
 26 31  2  0  0  0
 26 27  1  0  0  0
 27 28  2  0  0  0
 28 29  1  0  0  0
 28 51  1  0  0  0
 29 30  2  0  0  0
 29 52  1  0  0  0
 30 31  1  0  0  0
 30 53  1  0  0  0
 31 54  1  0  0  0
M  END
> <i_i_glide_confnum>
209

> <i_i_glide_lignum>
4417

> <i_i_glide_posenum>
55

> <i_i_glide_rotatable_bonds>
6

> <i_m_Source_File_Index>
5500

> <b_m_subgroup_collapsed>
0

> <r_i_docking_score>
-6.57276

> <r_i_glide_ecoul>
-1.52556

> <r_i_glide_eff_state_penalty>
0

> <r_i_glide_einternal>
5.10142

> <r_i_glide_emodel>
-62.3557

> <r_i_glide_energy>
-47.0838

> <r_i_glide_erotb>
0.592256

> <r_i_glide_esite>
0

> <r_i_glide_evdw>
-45.5583

> <r_i_glide_gscore>
-6.57276

> <r_i_glide_hbond>
0

> <r_i_glide_ligand_efficiency>
-0.226647

> <r_i_glide_ligand_efficiency_ln>
-1.505

> <r_i_glide_ligand_efficiency_sa>
-0.696331

> <r_i_glide_lipo>
-2.63454

> <r_i_glide_metal>
0

> <r_i_glide_rewards>
-2.02373

> <s_i_glide_gridfile>
wee1_glide-grid

> <s_m_Source_File>
wee1_decoys_glide_SP.sdf

> <s_m_Source_Path>
/Users/zhangxujun/Desktop

> <s_m_entry_id>
5775

> <s_m_entry_name>
wee1_decoys_glide_SP.5500

> <s_m_subgroup_title>
wee1_decoys_glide_SP

> <s_m_subgroupid>
wee1_decoys_glide_SP


$$$$
