ZINC55170427_6175
                    3D
 Schrodinger Suite 2024-2.
 33 34  0  0  1  0            999 V2000
    6.6950   53.8622   27.7919 C   0  0  0  0  0  0
    5.4131   54.0276   27.0028 C   0  0  0  0  0  0
    5.2293   54.4362   25.6700 C   0  0  0  0  0  0
    3.5104   54.4872   25.3462 S   0  0  0  0  0  0
    3.2361   53.8824   26.9404 C   0  0  0  0  0  0
    4.3115   53.7070   27.6587 N   0  0  0  0  0  0
    1.9691   53.6210   27.3714 N   0  0  0  0  0  0
    6.2123   54.9445   24.7347 C   0  0  0  0  0  0
    7.1043   55.6683   25.1812 O   0  0  0  0  0  0
    6.1186   54.6171   23.4082 N   0  0  0  0  0  0
    5.2924   53.5154   22.8785 C   0  0  0  0  0  0
    4.4552   54.0822   21.7225 C   0  0  0  0  0  0
    5.3677   54.5678   20.5925 C   0  0  0  0  0  0
    6.4354   55.5610   21.0998 C   0  0  1  0  0  0
    5.9047   56.4951   21.2891 H   0  0  0  0  0  0
    7.1043   55.1802   22.4557 C   0  0  0  0  0  0
    7.4936   55.8408   20.0193 C   0  0  0  0  0  0
    7.5457   54.3542   27.3234 H   0  0  0  0  0  0
    6.6187   54.2737   28.7998 H   0  0  0  0  0  0
    6.9616   52.8088   27.8970 H   0  0  0  0  0  0
    1.7983   53.2691   28.3009 H   0  0  0  0  0  0
    1.1856   53.6182   26.7360 H   0  0  0  0  0  0
    5.9696   52.7529   22.4893 H   0  0  0  0  0  0
    4.6776   53.0054   23.6126 H   0  0  0  0  0  0
    3.7915   53.3067   21.3386 H   0  0  0  0  0  0
    3.8045   54.8857   22.0741 H   0  0  0  0  0  0
    5.8807   53.6891   20.1970 H   0  0  0  0  0  0
    4.8080   54.9799   19.7516 H   0  0  0  0  0  0
    7.5467   56.0961   22.8484 H   0  0  0  0  0  0
    7.8789   54.4338   22.2908 H   0  0  0  0  0  0
    7.9809   54.9207   19.6925 H   0  0  0  0  0  0
    7.0477   56.3057   19.1394 H   0  0  0  0  0  0
    8.2820   56.4964   20.3850 H   0  0  0  0  0  0
  1  2  1  0  0  0
  1 18  1  0  0  0
  1 19  1  0  0  0
  1 20  1  0  0  0
  2  6  1  0  0  0
  2  3  2  0  0  0
  3  4  1  0  0  0
  3  8  1  0  0  0
  4  5  1  0  0  0
  5  6  2  0  0  0
  5  7  1  0  0  0
  7 21  1  0  0  0
  7 22  1  0  0  0
  8  9  2  0  0  0
  8 10  1  0  0  0
 10 16  1  0  0  0
 10 11  1  0  0  0
 11 12  1  0  0  0
 11 23  1  0  0  0
 11 24  1  0  0  0
 12 13  1  0  0  0
 12 25  1  0  0  0
 12 26  1  0  0  0
 13 14  1  0  0  0
 13 27  1  0  0  0
 13 28  1  0  0  0
 14 15  1  0  0  0
 14 16  1  0  0  0
 14 17  1  0  0  0
 16 29  1  0  0  0
 16 30  1  0  0  0
 17 31  1  0  0  0
 17 32  1  0  0  0
 17 33  1  0  0  0
M  END
> <i_i_glide_confnum>
6

> <i_i_glide_lignum>
6176

> <i_i_glide_posenum>
381

> <i_i_glide_rotatable_bonds>
2

> <i_m_Source_File_Index>
1301

> <b_m_subgroup_collapsed>
0

> <r_i_docking_score>
-6.63031

> <r_i_glide_ecoul>
-2.82515

> <r_i_glide_eff_state_penalty>
0

> <r_i_glide_einternal>
3.67024

> <r_i_glide_emodel>
-49.3676

> <r_i_glide_energy>
-36.0619

> <r_i_glide_erotb>
0.603325

> <r_i_glide_esite>
0

> <r_i_glide_evdw>
-33.2367

> <r_i_glide_gscore>
-6.63031

> <r_i_glide_hbond>
-0.32

> <r_i_glide_ligand_efficiency>
-0.414395

> <r_i_glide_ligand_efficiency_ln>
-1.7575

> <r_i_glide_ligand_efficiency_sa>
-1.04421

> <r_i_glide_lipo>
-2.16558

> <r_i_glide_metal>
0

> <r_i_glide_rewards>
-2.66245

> <s_i_glide_gridfile>
wee1_glide-grid

> <s_m_Source_File>
wee1_decoys_glide_SP.sdf

> <s_m_Source_Path>
/Users/zhangxujun/Desktop

> <s_m_entry_id>
1576

> <s_m_entry_name>
wee1_decoys_glide_SP.1301

> <s_m_subgroup_title>
wee1_decoys_glide_SP

> <s_m_subgroupid>
wee1_decoys_glide_SP


$$$$
