ZINC35890990_1135
                    3D
 Schrodinger Suite 2024-2.
 64 67  0  0  1  0            999 V2000
    1.2441   52.4518   29.1854 C   0  0  0  0  0  0
    1.4412   52.5587   27.6795 C   0  0  0  0  0  0
    2.2988   53.4652   27.0016 C   0  0  0  0  0  0
    2.3482   53.3659   25.5711 C   0  0  0  0  0  0
    1.5057   52.5060   24.9153 N   0  0  0  0  0  0
    0.7045   51.6711   25.6231 C   0  0  0  0  0  0
    0.6864   51.7094   26.9636 N   0  3  0  0  0  0
   -0.0804   50.5985   24.9240 C   0  0  0  0  0  0
   -0.8372   49.6642   25.6492 C   0  0  0  0  0  0
   -1.5273   48.6406   25.0098 C   0  0  0  0  0  0
   -1.4897   48.5298   23.6187 C   0  0  0  0  0  0
   -0.7431   49.4528   22.8795 C   0  0  0  0  0  0
   -0.0498   50.4739   23.5263 C   0  0  0  0  0  0
   -2.2485   47.3966   22.9311 C   0  0  0  0  0  0
   -2.0958   46.2517   23.6023 F   0  0  0  0  0  0
   -1.8311   47.1984   21.6775 F   0  0  0  0  0  0
   -3.5477   47.6983   22.8998 F   0  0  0  0  0  0
    3.2254   54.0617   24.7097 N   0  0  0  0  0  0
    3.0059   54.2106   23.2530 C   0  0  0  0  0  0
    4.0764   53.5757   22.3380 C   0  0  0  0  0  0
    5.3901   54.1199   22.7253 N   0  0  0  0  0  0
    5.7325   53.9589   24.1448 C   0  0  0  0  0  0
    4.5966   54.4968   25.0496 C   0  0  0  0  0  0
    6.1782   54.8970   21.9262 C   0  0  0  0  0  0
    7.1031   55.5738   22.3813 O   0  0  0  0  0  0
    5.8719   54.8973   20.6073 N   0  0  0  0  0  0
    6.4067   55.7681   19.6390 C   0  0  0  0  0  0
    5.5045   56.4116   18.7863 C   0  0  0  0  0  0
    5.9604   57.3026   17.8150 C   0  0  0  0  0  0
    7.3274   57.5306   17.6622 C   0  0  0  0  0  0
    8.2381   56.8530   18.4714 C   0  0  0  0  0  0
    7.7877   55.9632   19.4475 C   0  0  0  0  0  0
    8.7045   55.2973   20.1833 F   0  0  0  0  0  0
    3.0259   54.5813   27.7896 C   0  0  0  0  0  0
    2.0954   55.4692   28.6475 C   0  0  0  0  0  0
    4.2675   54.0907   28.5708 C   0  0  0  0  0  0
    2.1431   52.6952   29.7409 H   0  0  0  0  0  0
    0.4428   53.1167   29.5099 H   0  0  0  0  0  0
    0.9669   51.4373   29.4824 H   0  0  0  0  0  0
   -0.8954   49.6967   26.7267 H   0  0  0  0  0  0
   -2.0864   47.9366   25.6123 H   0  0  0  0  0  0
   -0.6932   49.3850   21.8017 H   0  0  0  0  0  0
    0.5250   51.1634   22.9259 H   0  0  0  0  0  0
    2.0223   53.8541   22.9443 H   0  0  0  0  0  0
    2.9887   55.2852   23.0727 H   0  0  0  0  0  0
    4.0662   52.4917   22.4524 H   0  0  0  0  0  0
    3.8097   53.7881   21.3029 H   0  0  0  0  0  0
    6.6829   54.4192   24.4232 H   0  0  0  0  0  0
    5.8379   52.8967   24.3221 H   0  0  0  0  0  0
    4.6027   55.5865   25.0363 H   0  0  0  0  0  0
    4.8645   54.1755   26.0503 H   0  0  0  0  0  0
    5.0445   54.3913   20.3322 H   0  0  0  0  0  0
    4.4396   56.2518   18.8813 H   0  0  0  0  0  0
    5.2543   57.8230   17.1823 H   0  0  0  0  0  0
    7.6783   58.2209   16.9103 H   0  0  0  0  0  0
    9.2994   57.0100   18.3446 H   0  0  0  0  0  0
    3.3771   55.2966   27.0540 H   0  0  0  0  0  0
    1.1676   55.6967   28.1221 H   0  0  0  0  0  0
    1.8387   55.0174   29.6040 H   0  0  0  0  0  0
    2.5753   56.4200   28.8822 H   0  0  0  0  0  0
    4.7777   53.2748   28.0590 H   0  0  0  0  0  0
    4.9912   54.8970   28.6955 H   0  0  0  0  0  0
    4.0269   53.7351   29.5706 H   0  0  0  0  0  0
    0.0877   51.0588   27.4515 H   0  0  0  0  0  0
  1  2  1  0  0  0
  1 37  1  0  0  0
  1 38  1  0  0  0
  1 39  1  0  0  0
  2  7  2  0  0  0
  2  3  1  0  0  0
  3  4  2  0  0  0
  3 34  1  0  0  0
  4  5  1  0  0  0
  4 18  1  0  0  0
  5  6  2  0  0  0
  6  7  1  0  0  0
  6  8  1  0  0  0
  7 64  1  0  0  0
  8 13  2  0  0  0
  8  9  1  0  0  0
  9 10  2  0  0  0
  9 40  1  0  0  0
 10 11  1  0  0  0
 10 41  1  0  0  0
 11 12  2  0  0  0
 11 14  1  0  0  0
 12 13  1  0  0  0
 12 42  1  0  0  0
 13 43  1  0  0  0
 14 15  1  0  0  0
 14 16  1  0  0  0
 14 17  1  0  0  0
 18 23  1  0  0  0
 18 19  1  0  0  0
 19 20  1  0  0  0
 19 44  1  0  0  0
 19 45  1  0  0  0
 20 21  1  0  0  0
 20 46  1  0  0  0
 20 47  1  0  0  0
 21 22  1  0  0  0
 21 24  1  0  0  0
 22 23  1  0  0  0
 22 48  1  0  0  0
 22 49  1  0  0  0
 23 50  1  0  0  0
 23 51  1  0  0  0
 24 25  2  0  0  0
 24 26  1  0  0  0
 26 27  1  0  0  0
 26 52  1  0  0  0
 27 32  2  0  0  0
 27 28  1  0  0  0
 28 29  2  0  0  0
 28 53  1  0  0  0
 29 30  1  0  0  0
 29 54  1  0  0  0
 30 31  2  0  0  0
 30 55  1  0  0  0
 31 32  1  0  0  0
 31 56  1  0  0  0
 32 33  1  0  0  0
 34 35  1  0  0  0
 34 36  1  0  0  0
 34 57  1  0  0  0
 35 58  1  0  0  0
 35 59  1  0  0  0
 35 60  1  0  0  0
 36 61  1  0  0  0
 36 62  1  0  0  0
 36 63  1  0  0  0
M  CHG  1   7   1
M  END
> <i_i_glide_confnum>
133

> <i_i_glide_lignum>
1136

> <i_i_glide_posenum>
201

> <i_i_glide_rotatable_bonds>
7

> <i_m_Source_File_Index>
4633

> <b_m_subgroup_collapsed>
0

> <r_i_docking_score>
-5.82155

> <r_i_glide_ecoul>
-2.04686

> <r_i_glide_eff_state_penalty>
0

> <r_i_glide_einternal>
3.53402

> <r_i_glide_emodel>
-58.0191

> <r_i_glide_energy>
-42.0727

> <r_i_glide_erotb>
0.404576

> <r_i_glide_esite>
-0.0545874

> <r_i_glide_evdw>
-40.0259

> <r_i_glide_gscore>
-5.82155

> <r_i_glide_hbond>
0

> <r_i_glide_ligand_efficiency>
-0.16171

> <r_i_glide_ligand_efficiency_ln>
-1.27011

> <r_i_glide_ligand_efficiency_sa>
-0.533954

> <r_i_glide_lipo>
-2.69886

> <r_i_glide_metal>
0

> <r_i_glide_rewards>
-1.16436

> <s_i_glide_gridfile>
wee1_glide-grid

> <s_m_Source_File>
wee1_decoys_glide_SP.sdf

> <s_m_Source_Path>
/Users/zhangxujun/Desktop

> <s_m_entry_id>
4908

> <s_m_entry_name>
wee1_decoys_glide_SP.4633

> <s_m_subgroup_title>
wee1_decoys_glide_SP

> <s_m_subgroupid>
wee1_decoys_glide_SP


$$$$
