ZINC14655308_2959
                    3D
 Schrodinger Suite 2024-2.
 53 55  0  0  1  0            999 V2000
    6.7046   57.1256   19.2933 C   0  0  0  0  0  0
    7.3632   55.8821   19.9088 C   0  0  0  0  0  0
    6.6005   55.3876   21.0084 O   0  0  0  0  0  0
    5.5541   54.4983   20.8112 C   0  0  0  0  0  0
    5.0512   54.1910   19.5330 C   0  0  0  0  0  0
    3.9976   53.2958   19.3707 C   0  0  0  0  0  0
    3.4214   52.6977   20.4825 C   0  0  0  0  0  0
    3.9072   52.9870   21.7513 C   0  0  0  0  0  0
    4.9721   53.8816   21.9423 C   0  0  0  0  0  0
    5.5227   54.0995   23.3380 C   0  0  0  0  0  0
    6.7359   54.2292   23.5009 O   0  0  0  0  0  0
    4.5985   54.0963   24.3370 N   0  0  0  0  0  0
    4.7136   54.1139   25.7082 C   0  0  0  0  0  0
    6.0759   54.4969   26.6002 S   0  0  0  0  0  0
    3.6231   53.7903   26.4717 N   0  0  0  0  0  0
    2.3510   53.3004   26.1347 C   0  0  0  0  0  0
    1.4348   52.7414   27.0611 C   0  0  0  0  0  0
    0.2899   52.2224   26.3715 C   0  0  0  0  0  0
    0.3021   52.4968   24.9955 C   0  0  0  0  0  0
    1.7043   53.3609   24.5181 S   0  0  0  0  0  0
   -0.7408   52.0544   23.9787 C   0  0  0  0  0  0
   -2.0180   51.6170   24.7186 C   0  0  0  0  0  0
   -1.6905   50.6903   25.8980 C   0  0  0  0  0  0
   -0.8591   51.4046   26.9853 C   0  0  0  0  0  0
    1.6673   52.7157   28.5263 C   0  0  0  0  0  0
    2.7415   53.0120   29.0555 O   0  0  0  0  0  0
    0.5493   52.3991   29.2196 O   0  0  0  0  0  0
    0.4805   52.4975   30.6384 C   0  0  0  0  0  0
    0.3074   53.9609   31.0765 C   0  0  0  0  0  0
    1.9725   51.4822   20.2826 Br  0  0  0  0  0  0
    7.3092   57.5208   18.4761 H   0  0  0  0  0  0
    5.7114   56.9112   18.8974 H   0  0  0  0  0  0
    6.5965   57.9144   20.0350 H   0  0  0  0  0  0
    8.3436   56.1593   20.2989 H   0  0  0  0  0  0
    7.5593   55.1109   19.1615 H   0  0  0  0  0  0
    5.4649   54.6343   18.6420 H   0  0  0  0  0  0
    3.6309   53.0628   18.3818 H   0  0  0  0  0  0
    3.4512   52.4819   22.5849 H   0  0  0  0  0  0
    3.6515   54.0114   24.0046 H   0  0  0  0  0  0
    3.7946   53.7843   27.4693 H   0  0  0  0  0  0
   -0.3534   51.2152   23.3986 H   0  0  0  0  0  0
   -0.9706   52.8484   23.2684 H   0  0  0  0  0  0
   -2.6910   51.1115   24.0244 H   0  0  0  0  0  0
   -2.5568   52.4939   25.0806 H   0  0  0  0  0  0
   -1.1461   49.8166   25.5360 H   0  0  0  0  0  0
   -2.6080   50.3018   26.3428 H   0  0  0  0  0  0
   -1.5090   52.0581   27.5671 H   0  0  0  0  0  0
   -0.4856   50.6490   27.6780 H   0  0  0  0  0  0
   -0.3811   51.9179   30.9705 H   0  0  0  0  0  0
    1.3571   52.0501   31.1072 H   0  0  0  0  0  0
    0.0853   54.0264   32.1420 H   0  0  0  0  0  0
    1.2115   54.5371   30.8835 H   0  0  0  0  0  0
   -0.4958   54.4445   30.5271 H   0  0  0  0  0  0
  1  2  1  0  0  0
  1 31  1  0  0  0
  1 32  1  0  0  0
  1 33  1  0  0  0
  2  3  1  0  0  0
  2 34  1  0  0  0
  2 35  1  0  0  0
  3  4  1  0  0  0
  4  9  2  0  0  0
  4  5  1  0  0  0
  5  6  2  0  0  0
  5 36  1  0  0  0
  6  7  1  0  0  0
  6 37  1  0  0  0
  7  8  2  0  0  0
  7 30  1  0  0  0
  8  9  1  0  0  0
  8 38  1  0  0  0
  9 10  1  0  0  0
 10 11  2  0  0  0
 10 12  1  0  0  0
 12 13  1  0  0  0
 12 39  1  0  0  0
 13 14  2  0  0  0
 13 15  1  0  0  0
 15 16  1  0  0  0
 15 40  1  0  0  0
 16 20  1  0  0  0
 16 17  2  0  0  0
 17 18  1  0  0  0
 17 25  1  0  0  0
 18 24  1  0  0  0
 18 19  2  0  0  0
 19 20  1  0  0  0
 19 21  1  0  0  0
 21 22  1  0  0  0
 21 41  1  0  0  0
 21 42  1  0  0  0
 22 23  1  0  0  0
 22 43  1  0  0  0
 22 44  1  0  0  0
 23 24  1  0  0  0
 23 45  1  0  0  0
 23 46  1  0  0  0
 24 47  1  0  0  0
 24 48  1  0  0  0
 25 26  2  0  0  0
 25 27  1  0  0  0
 27 28  1  0  0  0
 28 29  1  0  0  0
 28 49  1  0  0  0
 28 50  1  0  0  0
 29 51  1  0  0  0
 29 52  1  0  0  0
 29 53  1  0  0  0
M  END
> <i_i_glide_confnum>
145

> <i_i_glide_lignum>
2960

> <i_i_glide_posenum>
124

> <i_i_glide_rotatable_bonds>
10

> <i_m_Source_File_Index>
3080

> <b_m_subgroup_collapsed>
0

> <r_i_docking_score>
-4.97798

> <r_i_glide_ecoul>
-1.30853

> <r_i_glide_eff_state_penalty>
0

> <r_i_glide_einternal>
8.80133

> <r_i_glide_emodel>
-65.3253

> <r_i_glide_energy>
-53.4559

> <r_i_glide_erotb>
0.626737

> <r_i_glide_esite>
0

> <r_i_glide_evdw>
-52.1473

> <r_i_glide_gscore>
-4.97798

> <r_i_glide_hbond>
0

> <r_i_glide_ligand_efficiency>
-0.165933

> <r_i_glide_ligand_efficiency_ln>
-1.13105

> <r_i_glide_ligand_efficiency_sa>
-0.515592

> <r_i_glide_lipo>
-1.43244

> <r_i_glide_metal>
0

> <r_i_glide_rewards>
-1.36863

> <s_i_glide_gridfile>
wee1_glide-grid

> <s_m_Source_File>
wee1_decoys_glide_SP.sdf

> <s_m_Source_Path>
/Users/zhangxujun/Desktop

> <s_m_entry_id>
3355

> <s_m_entry_name>
wee1_decoys_glide_SP.3080

> <s_m_subgroup_title>
wee1_decoys_glide_SP

> <s_m_subgroupid>
wee1_decoys_glide_SP


$$$$
