ZINC33127997_2724
                    3D
 Schrodinger Suite 2024-2.
 58 62  0  0  1  0            999 V2000
    1.0415   49.5738   20.1588 C   0  0  0  0  0  0
   -0.2296   49.9125   20.6074 C   0  0  0  0  0  0
   -0.4322   50.2642   21.9347 C   0  0  0  0  0  0
    0.6509   50.2642   22.8433 C   0  0  0  0  0  0
    1.9384   49.9377   22.3660 C   0  0  0  0  0  0
    2.1212   49.5899   21.0341 C   0  0  0  0  0  0
    0.4640   50.7522   24.2743 C   0  0  0  0  0  0
    0.4302   52.2930   24.5230 C   0  0  1  0  0  0
    0.2517   52.4630   25.5812 H   0  0  0  0  0  0
    1.7327   53.0364   24.0940 C   0  0  0  0  0  0
    1.8503   53.3344   22.9003 O   0  0  0  0  0  0
    2.7004   53.3027   25.0221 N   0  0  0  0  0  0
    2.4023   53.3651   26.4584 C   0  0  0  0  0  0
    3.6883   53.8068   27.1422 C   0  0  0  0  0  0
    4.5258   54.3071   26.0056 C   0  0  0  0  0  0
    3.9327   53.9612   24.7897 C   0  0  0  0  0  0
    4.6733   54.0968   23.6057 C   0  0  0  0  0  0
    5.9549   54.6501   23.6426 C   0  0  0  0  0  0
    6.5083   55.0611   24.8536 C   0  0  0  0  0  0
    5.8008   54.8791   26.0408 C   0  0  0  0  0  0
   -0.7184   52.8717   23.8082 N   0  0  0  0  0  0
   -2.0215   52.8434   24.1294 C   0  0  0  0  0  0
   -2.8530   53.2948   23.3488 O   0  0  0  0  0  0
   -2.3140   52.3090   25.3340 N   0  0  0  0  0  0
   -3.5586   52.2739   25.9796 C   0  0  0  0  0  0
   -3.7716   51.2382   26.8990 C   0  0  0  0  0  0
   -4.9783   51.1447   27.5947 C   0  0  0  0  0  0
   -5.9708   52.1008   27.3847 C   0  0  0  0  0  0
   -5.7598   53.1482   26.4745 C   0  0  0  0  0  0
   -4.5578   53.2417   25.7791 C   0  0  0  0  0  0
   -6.6820   54.1607   26.2907 O   0  0  0  0  0  0
   -8.0075   53.8129   26.7039 C   0  0  0  0  0  0
   -7.9746   53.1275   28.0932 C   0  0  0  0  0  0
   -7.1656   51.9457   28.0610 O   0  0  0  0  0  0
    1.1970   49.3054   19.1243 H   0  0  0  0  0  0
   -1.0615   49.9103   19.9187 H   0  0  0  0  0  0
   -1.4218   50.5430   22.2632 H   0  0  0  0  0  0
    2.7859   49.9548   23.0353 H   0  0  0  0  0  0
    3.1045   49.3355   20.6709 H   0  0  0  0  0  0
    1.2434   50.2957   24.8808 H   0  0  0  0  0  0
   -0.4613   50.3039   24.6379 H   0  0  0  0  0  0
    1.6930   54.1881   26.5660 H   0  0  0  0  0  0
    1.9195   52.4958   26.9056 H   0  0  0  0  0  0
    4.1627   52.9316   27.5882 H   0  0  0  0  0  0
    3.5049   54.5174   27.9509 H   0  0  0  0  0  0
    4.2830   53.7709   22.6556 H   0  0  0  0  0  0
    6.5166   54.7615   22.7257 H   0  0  0  0  0  0
    7.5007   55.4833   24.8745 H   0  0  0  0  0  0
    6.2618   55.1354   26.9831 H   0  0  0  0  0  0
   -0.4640   53.2829   22.9217 H   0  0  0  0  0  0
   -1.5722   51.8074   25.7959 H   0  0  0  0  0  0
   -3.0078   50.4918   27.0790 H   0  0  0  0  0  0
   -5.1386   50.3365   28.2944 H   0  0  0  0  0  0
   -4.4086   54.0752   25.1083 H   0  0  0  0  0  0
   -8.4443   53.1249   25.9759 H   0  0  0  0  0  0
   -8.6280   54.7111   26.7316 H   0  0  0  0  0  0
   -8.9812   52.8682   28.4203 H   0  0  0  0  0  0
   -7.5560   53.8195   28.8244 H   0  0  0  0  0  0
  1  6  2  0  0  0
  1  2  1  0  0  0
  1 35  1  0  0  0
  2  3  2  0  0  0
  2 36  1  0  0  0
  3  4  1  0  0  0
  3 37  1  0  0  0
  4  5  2  0  0  0
  4  7  1  0  0  0
  5  6  1  0  0  0
  5 38  1  0  0  0
  6 39  1  0  0  0
  7  8  1  0  0  0
  7 40  1  0  0  0
  7 41  1  0  0  0
  8  9  1  0  0  0
  8 10  1  0  0  0
  8 21  1  0  0  0
 10 11  2  0  0  0
 10 12  1  0  0  0
 12 16  1  0  0  0
 12 13  1  0  0  0
 13 14  1  0  0  0
 13 42  1  0  0  0
 13 43  1  0  0  0
 14 15  1  0  0  0
 14 44  1  0  0  0
 14 45  1  0  0  0
 15 20  2  0  0  0
 15 16  1  0  0  0
 16 17  2  0  0  0
 17 18  1  0  0  0
 17 46  1  0  0  0
 18 19  2  0  0  0
 18 47  1  0  0  0
 19 20  1  0  0  0
 19 48  1  0  0  0
 20 49  1  0  0  0
 21 22  1  0  0  0
 21 50  1  0  0  0
 22 23  2  0  0  0
 22 24  1  0  0  0
 24 25  1  0  0  0
 24 51  1  0  0  0
 25 30  2  0  0  0
 25 26  1  0  0  0
 26 27  2  0  0  0
 26 52  1  0  0  0
 27 28  1  0  0  0
 27 53  1  0  0  0
 28 34  1  0  0  0
 28 29  2  0  0  0
 29 30  1  0  0  0
 29 31  1  0  0  0
 30 54  1  0  0  0
 31 32  1  0  0  0
 32 33  1  0  0  0
 32 55  1  0  0  0
 32 56  1  0  0  0
 33 34  1  0  0  0
 33 57  1  0  0  0
 33 58  1  0  0  0
M  END
> <i_i_glide_confnum>
207

> <i_i_glide_lignum>
2725

> <i_i_glide_posenum>
72

> <i_i_glide_rotatable_bonds>
8

> <i_m_Source_File_Index>
996

> <b_m_subgroup_collapsed>
0

> <r_i_docking_score>
-4.62813

> <r_i_glide_ecoul>
-1.47491

> <r_i_glide_eff_state_penalty>
0

> <r_i_glide_einternal>
7.62204

> <r_i_glide_emodel>
-47.2349

> <r_i_glide_energy>
-40.4943

> <r_i_glide_erotb>
0.508221

> <r_i_glide_esite>
0

> <r_i_glide_evdw>
-39.0194

> <r_i_glide_gscore>
-4.62813

> <r_i_glide_hbond>
-0.0249734

> <r_i_glide_ligand_efficiency>
-0.140246

> <r_i_glide_ligand_efficiency_ln>
-1.02927

> <r_i_glide_ligand_efficiency_sa>
-0.449845

> <r_i_glide_lipo>
-2.61754

> <r_i_glide_metal>
0

> <r_i_glide_rewards>
-0.321627

> <s_i_glide_gridfile>
wee1_glide-grid

> <s_m_Source_File>
wee1_decoys_glide_SP.sdf

> <s_m_Source_Path>
/Users/zhangxujun/Desktop

> <s_m_entry_id>
1271

> <s_m_entry_name>
wee1_decoys_glide_SP.996

> <s_m_subgroup_title>
wee1_decoys_glide_SP

> <s_m_subgroupid>
wee1_decoys_glide_SP


$$$$
