ZINC02181027_3244
                    3D
 Schrodinger Suite 2024-2.
 50 53  0  0  1  0            999 V2000
    1.1052   56.4621   30.1046 C   0  0  0  0  0  0
    0.7968   54.9550   30.1440 C   0  0  0  0  0  0
    1.4193   54.2940   29.0445 O   0  0  0  0  0  0
    2.7443   53.9953   29.0682 C   0  0  0  0  0  0
    3.4351   54.1028   30.0817 O   0  0  0  0  0  0
    3.2333   53.6119   27.8130 N   0  0  0  0  0  0
    4.6681   53.2988   27.6958 C   0  0  0  0  0  0
    5.2486   54.2728   26.6490 C   0  0  0  0  0  0
    4.4472   54.1460   25.3546 C   0  0  0  0  0  0
    3.1172   53.7036   25.3727 C   0  0  0  0  0  0
    2.4486   53.5530   23.7747 S   0  0  0  0  0  0
    3.9626   54.0304   23.0824 C   0  0  0  0  0  0
    4.9151   54.3473   24.0462 C   0  0  0  0  0  0
    6.2142   54.8582   23.6206 C   0  0  0  0  0  0
    7.1043   55.2514   24.3783 O   0  0  0  0  0  0
    6.3029   54.8902   22.2323 N   0  0  0  0  0  0
    5.2974   54.5437   21.3197 C   0  0  0  0  0  0
    4.1597   54.0996   21.7400 N   0  0  0  0  0  0
    5.5241   54.7209   19.5256 S   0  0  0  0  0  0
    4.3320   53.5126   18.8520 C   0  0  0  0  0  0
    4.2281   53.7291   17.3352 C   0  0  0  0  0  0
    3.1458   54.1116   16.8887 O   0  0  0  0  0  0
    5.4432   53.5301   16.4695 C   0  0  0  0  0  0
    6.5997   52.8968   16.9504 C   0  0  0  0  0  0
    7.7016   52.7085   16.1214 C   0  0  0  0  0  0
    7.6576   53.1500   14.8025 C   0  0  0  0  0  0
    6.5180   53.7780   14.3075 C   0  0  0  0  0  0
    5.4137   53.9642   15.1360 C   0  0  0  0  0  0
    9.0220   52.9104   13.7735 Cl  0  0  0  0  0  0
    7.5366   55.2970   21.6867 N   0  0  0  0  0  0
    2.3561   53.3638   26.6478 C   0  0  0  0  0  0
    0.5597   56.9914   30.8818 H   0  0  0  0  0  0
    2.1659   56.6601   30.2584 H   0  0  0  0  0  0
    0.8276   56.8965   29.1444 H   0  0  0  0  0  0
   -0.2782   54.7928   30.0815 H   0  0  0  0  0  0
    1.1045   54.5177   31.0953 H   0  0  0  0  0  0
    5.2108   53.3508   28.6417 H   0  0  0  0  0  0
    4.7802   52.2780   27.3433 H   0  0  0  0  0  0
    6.2961   54.0150   26.4921 H   0  0  0  0  0  0
    5.2489   55.2970   27.0227 H   0  0  0  0  0  0
    3.3491   53.6533   19.3029 H   0  0  0  0  0  0
    4.6581   52.4929   19.0571 H   0  0  0  0  0  0
    6.6559   52.5167   17.9605 H   0  0  0  0  0  0
    8.5835   52.2116   16.5000 H   0  0  0  0  0  0
    6.4866   54.1172   13.2825 H   0  0  0  0  0  0
    4.5358   54.4489   14.7300 H   0  0  0  0  0  0
    7.3649   56.1078   21.1142 H   0  0  0  0  0  0
    8.1285   55.5834   22.4622 H   0  0  0  0  0  0
    1.4285   53.9326   26.7006 H   0  0  0  0  0  0
    2.0579   52.3155   26.6470 H   0  0  0  0  0  0
  1  2  1  0  0  0
  1 32  1  0  0  0
  1 33  1  0  0  0
  1 34  1  0  0  0
  2  3  1  0  0  0
  2 35  1  0  0  0
  2 36  1  0  0  0
  3  4  1  0  0  0
  4  5  2  0  0  0
  4  6  1  0  0  0
  6 31  1  0  0  0
  6  7  1  0  0  0
  7  8  1  0  0  0
  7 37  1  0  0  0
  7 38  1  0  0  0
  8  9  1  0  0  0
  8 39  1  0  0  0
  8 40  1  0  0  0
  9 13  1  0  0  0
  9 10  2  0  0  0
 10 11  1  0  0  0
 10 31  1  0  0  0
 11 12  1  0  0  0
 12 18  1  0  0  0
 12 13  2  0  0  0
 13 14  1  0  0  0
 14 15  2  0  0  0
 14 16  1  0  0  0
 16 17  1  0  0  0
 16 30  1  0  0  0
 17 18  2  0  0  0
 17 19  1  0  0  0
 19 20  1  0  0  0
 20 21  1  0  0  0
 20 41  1  0  0  0
 20 42  1  0  0  0
 21 22  2  0  0  0
 21 23  1  0  0  0
 23 28  2  0  0  0
 23 24  1  0  0  0
 24 25  2  0  0  0
 24 43  1  0  0  0
 25 26  1  0  0  0
 25 44  1  0  0  0
 26 27  2  0  0  0
 26 29  1  0  0  0
 27 28  1  0  0  0
 27 45  1  0  0  0
 28 46  1  0  0  0
 30 47  1  0  0  0
 30 48  1  0  0  0
 31 49  1  0  0  0
 31 50  1  0  0  0
M  END
> <i_i_glide_confnum>
23

> <i_i_glide_lignum>
3245

> <i_i_glide_posenum>
10

> <i_i_glide_rotatable_bonds>
7

> <i_m_Source_File_Index>
3844

> <b_m_subgroup_collapsed>
0

> <r_i_docking_score>
-8.20935

> <r_i_glide_ecoul>
-5.70792

> <r_i_glide_eff_state_penalty>
0

> <r_i_glide_einternal>
5.83061

> <r_i_glide_emodel>
-72.5086

> <r_i_glide_energy>
-49.805

> <r_i_glide_erotb>
0.309217

> <r_i_glide_esite>
-0.0257911

> <r_i_glide_evdw>
-44.097

> <r_i_glide_gscore>
-8.20935

> <r_i_glide_hbond>
-0.622898

> <r_i_glide_ligand_efficiency>
-0.264818

> <r_i_glide_ligand_efficiency_ln>
-1.85146

> <r_i_glide_ligand_efficiency_sa>
-0.831893

> <r_i_glide_lipo>
-2.73537

> <r_i_glide_metal>
0

> <r_i_glide_rewards>
-2.07346

> <s_i_glide_gridfile>
wee1_glide-grid

> <s_m_Source_File>
wee1_decoys_glide_SP.sdf

> <s_m_Source_Path>
/Users/zhangxujun/Desktop

> <s_m_entry_id>
4119

> <s_m_entry_name>
wee1_decoys_glide_SP.3844

> <s_m_subgroup_title>
wee1_decoys_glide_SP

> <s_m_subgroupid>
wee1_decoys_glide_SP


$$$$
