ZINC17171072_3720
                    3D
 Schrodinger Suite 2024-2.
 49 51  0  0  1  0            999 V2000
    6.5875   55.0001   19.0669 C   0  0  0  0  0  0
    5.8150   53.9594   18.5596 C   0  0  0  0  0  0
    4.9135   53.2966   19.3881 C   0  0  0  0  0  0
    4.7749   53.6722   20.7366 C   0  0  0  0  0  0
    5.5651   54.7227   21.2271 C   0  0  0  0  0  0
    6.4674   55.3825   20.3989 C   0  0  0  0  0  0
    3.8148   52.9669   21.6731 C   0  0  0  0  0  0
    3.6847   53.3608   22.8378 O   0  0  0  0  0  0
    3.1601   51.8886   21.1769 N   0  0  0  0  0  0
    2.3296   51.1284   22.0138 N   0  0  0  0  0  0
    1.0573   51.5220   22.2647 C   0  0  0  0  0  0
    0.5154   52.4961   21.7397 O   0  0  0  0  0  0
    0.3219   50.7131   23.3060 C   0  0  0  0  0  0
    0.5774   49.3444   23.4911 C   0  0  0  0  0  0
   -0.0958   48.6254   24.4777 C   0  0  0  0  0  0
   -1.0174   49.2635   25.3032 C   0  0  0  0  0  0
   -1.2689   50.6281   25.1468 C   0  0  0  0  0  0
   -0.6248   51.3403   24.1306 C   0  0  0  0  0  0
   -2.3430   51.4669   26.3106 S   0  0  0  0  0  0
   -2.3767   52.8965   25.9804 O   0  0  0  0  0  0
   -3.5786   50.6827   26.3910 O   0  0  0  0  0  0
   -1.5463   51.2967   27.8866 N   0  0  0  0  0  0
   -0.3834   51.9810   28.2695 C   0  0  0  0  0  0
    0.5200   52.4974   27.3362 C   0  0  0  0  0  0
    1.7035   53.0978   27.7539 C   0  0  0  0  0  0
    1.9901   53.1861   29.1153 C   0  0  0  0  0  0
    1.0819   52.7007   30.0557 C   0  0  0  0  0  0
   -0.1015   52.0967   29.6329 C   0  0  0  0  0  0
    3.5047   53.9048   29.6811 S   0  0  0  0  0  0
    4.6991   53.9421   28.3118 C   0  0  0  0  0  0
    4.3974   54.8966   27.4304 F   0  0  0  0  0  0
    5.9357   54.1476   28.7635 F   0  0  0  0  0  0
    7.2891   55.5085   18.4218 H   0  0  0  0  0  0
    5.9162   53.6591   17.5273 H   0  0  0  0  0  0
    4.3406   52.4857   18.9593 H   0  0  0  0  0  0
    5.4963   55.0286   22.2617 H   0  0  0  0  0  0
    7.0781   56.1824   20.7892 H   0  0  0  0  0  0
    3.0091   51.7101   20.1946 H   0  0  0  0  0  0
    2.6875   50.2026   22.1903 H   0  0  0  0  0  0
    1.3024   48.8268   22.8799 H   0  0  0  0  0  0
    0.1199   47.5771   24.6286 H   0  0  0  0  0  0
   -1.5095   48.6998   26.0825 H   0  0  0  0  0  0
   -0.8230   52.3972   24.0175 H   0  0  0  0  0  0
   -1.7842   50.4534   28.4015 H   0  0  0  0  0  0
    0.3316   52.4332   26.2785 H   0  0  0  0  0  0
    2.3837   53.4797   27.0079 H   0  0  0  0  0  0
    1.2928   52.7694   31.1123 H   0  0  0  0  0  0
   -0.7891   51.6984   30.3673 H   0  0  0  0  0  0
    4.7072   52.9877   27.7820 H   0  0  0  0  0  0
  1  6  2  0  0  0
  1  2  1  0  0  0
  1 33  1  0  0  0
  2  3  2  0  0  0
  2 34  1  0  0  0
  3  4  1  0  0  0
  3 35  1  0  0  0
  4  5  2  0  0  0
  4  7  1  0  0  0
  5  6  1  0  0  0
  5 36  1  0  0  0
  6 37  1  0  0  0
  7  8  2  0  0  0
  7  9  1  0  0  0
  9 10  1  0  0  0
  9 38  1  0  0  0
 10 11  1  0  0  0
 10 39  1  0  0  0
 11 12  2  0  0  0
 11 13  1  0  0  0
 13 18  2  0  0  0
 13 14  1  0  0  0
 14 15  2  0  0  0
 14 40  1  0  0  0
 15 16  1  0  0  0
 15 41  1  0  0  0
 16 17  2  0  0  0
 16 42  1  0  0  0
 17 18  1  0  0  0
 17 19  1  0  0  0
 18 43  1  0  0  0
 19 20  2  0  0  0
 19 21  2  0  0  0
 19 22  1  0  0  0
 22 23  1  0  0  0
 22 44  1  0  0  0
 23 28  2  0  0  0
 23 24  1  0  0  0
 24 25  2  0  0  0
 24 45  1  0  0  0
 25 26  1  0  0  0
 25 46  1  0  0  0
 26 27  2  0  0  0
 26 29  1  0  0  0
 27 28  1  0  0  0
 27 47  1  0  0  0
 28 48  1  0  0  0
 29 30  1  0  0  0
 30 31  1  0  0  0
 30 32  1  0  0  0
 30 49  1  0  0  0
M  END
> <i_i_glide_confnum>
127

> <i_i_glide_lignum>
3721

> <i_i_glide_posenum>
331

> <i_i_glide_rotatable_bonds>
10

> <i_m_Source_File_Index>
5678

> <b_m_subgroup_collapsed>
0

> <r_i_docking_score>
-4.36492

> <r_i_glide_ecoul>
-6.76901

> <r_i_glide_eff_state_penalty>
0

> <r_i_glide_einternal>
3.40859

> <r_i_glide_emodel>
-64.5604

> <r_i_glide_energy>
-52.1095

> <r_i_glide_erotb>
0.710756

> <r_i_glide_esite>
-0.178297

> <r_i_glide_evdw>
-45.3405

> <r_i_glide_gscore>
-4.36492

> <r_i_glide_hbond>
-0.115092

> <r_i_glide_ligand_efficiency>
-0.136404

> <r_i_glide_ligand_efficiency_ln>
-0.977425

> <r_i_glide_ligand_efficiency_sa>
-0.433055

> <r_i_glide_lipo>
-1.30275

> <r_i_glide_metal>
0

> <r_i_glide_rewards>
-0.197159

> <s_i_glide_gridfile>
wee1_glide-grid

> <s_m_Source_File>
wee1_decoys_glide_SP.sdf

> <s_m_Source_Path>
/Users/zhangxujun/Desktop

> <s_m_entry_id>
5953

> <s_m_entry_name>
wee1_decoys_glide_SP.5678

> <s_m_subgroup_title>
wee1_decoys_glide_SP

> <s_m_subgroupid>
wee1_decoys_glide_SP


$$$$
