ZINC43667114_3832
                    3D
 Schrodinger Suite 2024-2.
 33 36  0  0  1  0            999 V2000
   -0.4080   52.2817   30.0185 C   0  0  0  0  0  0
    0.5535   53.2880   30.0761 C   0  0  0  0  0  0
    1.1984   53.6939   28.9085 C   0  0  0  0  0  0
    0.8745   53.0937   27.6905 C   0  0  0  0  0  0
   -0.1017   52.0862   27.6088 C   0  0  0  0  0  0
   -0.7331   51.6948   28.7963 C   0  0  0  0  0  0
   -0.4327   51.4370   26.2604 C   0  0  0  0  0  0
    0.5472   51.8578   25.1537 C   0  0  0  0  0  0
    0.5493   51.2499   23.8907 C   0  0  0  0  0  0
    1.4081   51.6871   22.8806 C   0  0  0  0  0  0
    2.2881   52.7422   23.1187 C   0  0  0  0  0  0
    2.3217   53.3430   24.3753 C   0  0  0  0  0  0
    1.4648   52.8981   25.3820 C   0  0  0  0  0  0
    1.5742   53.5440   26.5934 O   0  0  0  0  0  0
   -1.8340   51.7004   25.8775 N   0  0  0  0  0  0
   -2.9329   50.8714   25.9783 C   0  0  0  0  0  0
   -3.9974   51.6077   25.4819 C   0  0  0  0  0  0
   -3.4456   52.8365   25.1204 C   0  0  0  0  0  0
   -2.1594   52.8954   25.3554 N   0  0  0  0  0  0
   -6.0439   51.0092   25.3033 I   0  0  0  0  0  0
   -2.8959   49.6046   26.4816 N   0  0  0  0  0  0
   -0.9046   51.9514   30.9195 H   0  0  0  0  0  0
    0.7953   53.7468   31.0240 H   0  0  0  0  0  0
    1.9487   54.4697   28.9434 H   0  0  0  0  0  0
   -1.4770   50.9087   28.7757 H   0  0  0  0  0  0
   -0.3133   50.3596   26.3906 H   0  0  0  0  0  0
   -0.1376   50.4415   23.6850 H   0  0  0  0  0  0
    1.3862   51.2113   21.9102 H   0  0  0  0  0  0
    2.9468   53.0874   22.3348 H   0  0  0  0  0  0
    3.0107   54.1512   24.5705 H   0  0  0  0  0  0
   -3.9819   53.6700   24.6904 H   0  0  0  0  0  0
   -3.7061   49.0121   26.3983 H   0  0  0  0  0  0
   -2.1917   49.2524   27.1414 H   0  0  0  0  0  0
  1  6  2  0  0  0
  1  2  1  0  0  0
  1 22  1  0  0  0
  2  3  2  0  0  0
  2 23  1  0  0  0
  3  4  1  0  0  0
  3 24  1  0  0  0
  4 14  1  0  0  0
  4  5  2  0  0  0
  5  6  1  0  0  0
  5  7  1  0  0  0
  6 25  1  0  0  0
  7  8  1  0  0  0
  7 15  1  0  0  0
  7 26  1  0  0  0
  8 13  2  0  0  0
  8  9  1  0  0  0
  9 10  2  0  0  0
  9 27  1  0  0  0
 10 11  1  0  0  0
 10 28  1  0  0  0
 11 12  2  0  0  0
 11 29  1  0  0  0
 12 13  1  0  0  0
 12 30  1  0  0  0
 13 14  1  0  0  0
 15 19  1  0  0  0
 15 16  1  0  0  0
 16 17  2  0  0  0
 16 21  1  0  0  0
 17 18  1  0  0  0
 17 20  1  0  0  0
 18 19  2  0  0  0
 18 31  1  0  0  0
 21 32  1  0  0  0
 21 33  1  0  0  0
M  END
> <i_i_glide_confnum>
1

> <i_i_glide_lignum>
3833

> <i_i_glide_posenum>
120

> <i_i_glide_rotatable_bonds>
1

> <i_m_Source_File_Index>
4262

> <b_m_subgroup_collapsed>
0

> <r_i_docking_score>
-4.29585

> <r_i_glide_ecoul>
-5.66466

> <r_i_glide_eff_state_penalty>
0

> <r_i_glide_einternal>
1.78495

> <r_i_glide_emodel>
-36.407

> <r_i_glide_energy>
-27.966

> <r_i_glide_erotb>
0.128684

> <r_i_glide_esite>
-0.119936

> <r_i_glide_evdw>
-22.3013

> <r_i_glide_gscore>
-4.29585

> <r_i_glide_hbond>
-0.16

> <r_i_glide_ligand_efficiency>
-0.204565

> <r_i_glide_ligand_efficiency_ln>
-1.06214

> <r_i_glide_ligand_efficiency_sa>
-0.564378

> <r_i_glide_lipo>
-1.42432

> <r_i_glide_metal>
0

> <r_i_glide_rewards>
-0.75552

> <s_i_glide_gridfile>
wee1_glide-grid

> <s_m_Source_File>
wee1_decoys_glide_SP.sdf

> <s_m_Source_Path>
/Users/zhangxujun/Desktop

> <s_m_entry_id>
4537

> <s_m_entry_name>
wee1_decoys_glide_SP.4262

> <s_m_subgroup_title>
wee1_decoys_glide_SP

> <s_m_subgroupid>
wee1_decoys_glide_SP


$$$$
