ZINC65601173_6218
                    3D
 Schrodinger Suite 2024-2.
 58 59  0  0  1  0            999 V2000
    0.4680   50.6032   23.6919 C   0  0  0  0  0  0
    1.4991   51.1864   22.7439 C   0  0  0  0  0  0
    2.2748   50.3333   21.9587 C   0  0  0  0  0  0
    3.2542   50.8607   21.1217 C   0  0  0  0  0  0
    3.4843   52.2359   21.0772 C   0  0  0  0  0  0
    2.6747   53.0879   21.8397 C   0  0  0  0  0  0
    1.6913   52.5665   22.6761 C   0  0  0  0  0  0
    4.6550   52.7649   20.2312 C   0  0  2  0  0  0
    5.3677   54.0340   20.7725 C   0  0  0  0  0  0
    5.5218   54.0400   22.2288 N   0  0  0  0  0  0
    6.3049   54.8967   22.9222 C   0  0  0  0  0  0
    7.0877   55.6608   22.3541 O   0  0  0  0  0  0
    6.1361   54.9162   24.4215 C   0  0  0  0  0  0
    6.8963   55.5728   25.1407 O   0  0  0  0  0  0
    5.0632   54.2324   24.8873 N   0  0  0  0  0  0
    4.6249   54.0486   26.2064 C   0  0  0  0  0  0
    3.2379   54.0959   26.3762 C   0  0  0  0  0  0
    2.6529   53.7393   27.5908 C   0  0  0  0  0  0
    3.4447   53.3089   28.6650 C   0  0  0  0  0  0
    4.8349   53.2975   28.4923 C   0  0  0  0  0  0
    5.4414   53.6599   27.2884 C   0  0  0  0  0  0
    6.9514   53.4770   27.1974 C   0  0  0  0  0  0
    2.8425   52.7995   29.9585 C   0  0  0  0  0  0
    3.5044   52.0970   30.7256 O   0  0  0  0  0  0
    1.5730   53.1578   30.2214 N   0  0  0  0  0  0
    0.8188   52.7216   31.3947 C   0  0  0  0  0  0
    4.3295   52.8966   18.7188 N   0  3  0  0  0  0
    3.0851   53.7456   18.3947 C   0  0  0  0  0  0
    5.5291   53.2955   17.8316 C   0  0  0  0  0  0
    0.8288   49.6672   24.1206 H   0  0  0  0  0  0
    0.2728   51.2712   24.5317 H   0  0  0  0  0  0
   -0.4674   50.4044   23.1678 H   0  0  0  0  0  0
    2.1305   49.2636   22.0041 H   0  0  0  0  0  0
    3.8487   50.1893   20.5212 H   0  0  0  0  0  0
    2.8045   54.1585   21.7959 H   0  0  0  0  0  0
    1.0866   53.2358   23.2705 H   0  0  0  0  0  0
    5.4106   51.9756   20.2149 H   0  0  0  0  0  0
    6.3458   54.0993   20.2996 H   0  0  0  0  0  0
    4.8109   54.9296   20.4940 H   0  0  0  0  0  0
    4.9189   53.3942   22.7137 H   0  0  0  0  0  0
    4.4265   53.8607   24.2052 H   0  0  0  0  0  0
    2.5944   54.3675   25.5512 H   0  0  0  0  0  0
    1.5748   53.7521   27.6578 H   0  0  0  0  0  0
    5.4721   52.9386   29.2814 H   0  0  0  0  0  0
    7.3141   52.7358   27.9088 H   0  0  0  0  0  0
    7.2317   53.1021   26.2169 H   0  0  0  0  0  0
    7.4678   54.4173   27.3883 H   0  0  0  0  0  0
    1.1061   53.7916   29.5946 H   0  0  0  0  0  0
   -0.2538   52.7698   31.1983 H   0  0  0  0  0  0
    1.0584   51.6971   31.6762 H   0  0  0  0  0  0
    1.0427   53.3556   32.2527 H   0  0  0  0  0  0
    3.2678   54.7680   18.7276 H   0  0  0  0  0  0
    2.9234   53.7008   17.3175 H   0  0  0  0  0  0
    2.2373   53.2985   18.9151 H   0  0  0  0  0  0
    5.7738   54.3419   18.0173 H   0  0  0  0  0  0
    6.3578   52.6300   18.0820 H   0  0  0  0  0  0
    5.2252   53.1375   16.7959 H   0  0  0  0  0  0
    4.1265   51.9387   18.4377 H   0  0  0  0  0  0
  1  2  1  0  0  0
  1 30  1  0  0  0
  1 31  1  0  0  0
  1 32  1  0  0  0
  2  7  2  0  0  0
  2  3  1  0  0  0
  3  4  2  0  0  0
  3 33  1  0  0  0
  4  5  1  0  0  0
  4 34  1  0  0  0
  5  6  2  0  0  0
  5  8  1  0  0  0
  6  7  1  0  0  0
  6 35  1  0  0  0
  7 36  1  0  0  0
  8  9  1  0  0  0
  8 27  1  0  0  0
  8 37  1  0  0  0
  9 10  1  0  0  0
  9 38  1  0  0  0
  9 39  1  0  0  0
 10 11  1  0  0  0
 10 40  1  0  0  0
 11 12  2  0  0  0
 11 13  1  0  0  0
 13 14  2  0  0  0
 13 15  1  0  0  0
 15 16  1  0  0  0
 15 41  1  0  0  0
 16 21  2  0  0  0
 16 17  1  0  0  0
 17 18  2  0  0  0
 17 42  1  0  0  0
 18 19  1  0  0  0
 18 43  1  0  0  0
 19 20  2  0  0  0
 19 23  1  0  0  0
 20 21  1  0  0  0
 20 44  1  0  0  0
 21 22  1  0  0  0
 22 45  1  0  0  0
 22 46  1  0  0  0
 22 47  1  0  0  0
 23 24  2  0  0  0
 23 25  1  0  0  0
 25 26  1  0  0  0
 25 48  1  0  0  0
 26 49  1  0  0  0
 26 50  1  0  0  0
 26 51  1  0  0  0
 27 28  1  0  0  0
 27 29  1  0  0  0
 27 58  1  0  0  0
 28 52  1  0  0  0
 28 53  1  0  0  0
 28 54  1  0  0  0
 29 55  1  0  0  0
 29 56  1  0  0  0
 29 57  1  0  0  0
M  CHG  1  27   1
M  END
> <i_i_glide_confnum>
87

> <i_i_glide_lignum>
6219

> <i_i_glide_posenum>
263

> <i_i_glide_rotatable_bonds>
10

> <i_m_Source_File_Index>
2539

> <b_m_subgroup_collapsed>
0

> <r_i_docking_score>
-7.11123

> <r_i_glide_ecoul>
-6.91016

> <r_i_glide_eff_state_penalty>
0

> <r_i_glide_einternal>
11.8096

> <r_i_glide_emodel>
-74.9082

> <r_i_glide_energy>
-54.9692

> <r_i_glide_erotb>
0.991161

> <r_i_glide_esite>
-0.0816634

> <r_i_glide_evdw>
-48.059

> <r_i_glide_gscore>
-7.11123

> <r_i_glide_hbond>
-0.708287

> <r_i_glide_ligand_efficiency>
-0.245215

> <r_i_glide_ligand_efficiency_ln>
-1.62829

> <r_i_glide_ligand_efficiency_sa>
-0.753378

> <r_i_glide_lipo>
-2.13245

> <r_i_glide_metal>
0

> <r_i_glide_rewards>
-1.74051

> <s_i_glide_gridfile>
wee1_glide-grid

> <s_m_Source_File>
wee1_decoys_glide_SP.sdf

> <s_m_Source_Path>
/Users/zhangxujun/Desktop

> <s_m_entry_id>
2814

> <s_m_entry_name>
wee1_decoys_glide_SP.2539

> <s_m_subgroup_title>
wee1_decoys_glide_SP

> <s_m_subgroupid>
wee1_decoys_glide_SP


$$$$
