ZINC15030670_1178
                    3D
 Schrodinger Suite 2024-2.
 63 66  0  0  1  0            999 V2000
    6.3048   56.0000   21.3607 C   0  0  0  0  0  0
    5.6317   54.6519   21.0630 C   0  0  1  0  0  0
    6.3044   53.8532   21.2942 H   0  0  0  0  0  0
    4.5165   54.2351   22.0655 C   0  0  0  0  0  0
    3.4630   53.7436   21.6684 O   0  0  0  0  0  0
    4.8499   54.3773   23.3691 N   0  0  0  0  0  0
    4.1176   54.0967   24.5230 C   0  0  0  0  0  0
    4.6260   54.1305   25.8215 C   0  0  0  0  0  0
    3.6837   53.7623   26.8101 C   0  0  0  0  0  0
    2.4185   53.4906   26.2665 C   0  0  0  0  0  0
    2.4300   53.6960   24.5345 S   0  0  0  0  0  0
    1.1808   53.0763   27.0371 C   0  0  0  0  0  0
    0.7481   54.0976   28.1101 C   0  0  0  0  0  0
    1.6248   54.1319   29.3773 C   0  0  0  0  0  0
    3.0832   54.5890   29.1757 C   0  0  0  0  0  0
    3.9553   53.6609   28.3089 C   0  0  0  0  0  0
    6.0050   54.4967   26.1248 C   0  0  0  0  0  0
    7.0969   54.7881   26.3618 N   0  0  0  0  0  0
    5.3162   54.3293   19.5682 N   0  3  2  0  0  0
    6.5891   54.2596   18.6884 C   0  0  0  0  0  0
    6.3378   53.5946   17.3197 C   0  0  0  0  0  0
    5.8031   54.5322   16.2082 C   0  0  0  0  0  0
    4.5384   55.2487   16.4435 N   0  0  0  0  0  0
    3.7336   54.8545   17.6034 C   0  0  0  0  0  0
    4.2918   55.2966   18.9572 C   0  0  0  0  0  0
    4.2944   56.4865   15.7990 C   0  0  0  0  0  0
    4.9827   56.8665   14.6354 C   0  0  0  0  0  0
    4.6600   58.0698   14.0047 C   0  0  0  0  0  0
    3.6602   58.8909   14.5358 C   0  0  0  0  0  0
    3.0342   58.4725   15.7131 C   0  0  0  0  0  0
    3.3255   57.2956   16.3223 N   0  0  0  0  0  0
    3.2625   60.1834   13.8278 C   0  0  0  0  0  0
    2.3074   60.8500   14.4808 F   0  0  0  0  0  0
    4.3243   60.9762   13.6818 F   0  0  0  0  0  0
    2.7961   59.8820   12.6156 F   0  0  0  0  0  0
    6.6207   56.0818   22.4015 H   0  0  0  0  0  0
    7.2029   56.1034   20.7522 H   0  0  0  0  0  0
    5.6345   56.8245   21.1216 H   0  0  0  0  0  0
    5.7983   54.6705   23.5490 H   0  0  0  0  0  0
    1.3616   52.1233   27.5367 H   0  0  0  0  0  0
    0.3503   52.8937   26.3536 H   0  0  0  0  0  0
   -0.2726   53.8620   28.4152 H   0  0  0  0  0  0
    0.7045   55.0998   27.6822 H   0  0  0  0  0  0
    1.6146   53.1476   29.8487 H   0  0  0  0  0  0
    1.1533   54.8015   30.0989 H   0  0  0  0  0  0
    3.5528   54.6642   30.1553 H   0  0  0  0  0  0
    3.1027   55.6025   28.7715 H   0  0  0  0  0  0
    4.9998   53.8724   28.5400 H   0  0  0  0  0  0
    3.8145   52.6299   28.6369 H   0  0  0  0  0  0
    6.9727   55.2765   18.5895 H   0  0  0  0  0  0
    7.3095   53.6965   19.2726 H   0  0  0  0  0  0
    7.2878   53.1849   16.9734 H   0  0  0  0  0  0
    5.6989   52.7142   17.4153 H   0  0  0  0  0  0
    5.6819   53.9252   15.3093 H   0  0  0  0  0  0
    6.5964   55.2677   16.0612 H   0  0  0  0  0  0
    3.5682   53.7759   17.5849 H   0  0  0  0  0  0
    2.7019   55.1945   17.4982 H   0  0  0  0  0  0
    3.5044   55.2966   19.6819 H   0  0  0  0  0  0
    4.7018   56.3081   18.9398 H   0  0  0  0  0  0
    5.7382   56.2337   14.1957 H   0  0  0  0  0  0
    5.1746   58.3549   13.0982 H   0  0  0  0  0  0
    2.2702   59.0740   16.1878 H   0  0  0  0  0  0
    4.8882   53.4104   19.5632 H   0  0  0  0  0  0
  1  2  1  0  0  0
  1 36  1  0  0  0
  1 37  1  0  0  0
  1 38  1  0  0  0
  2  3  1  0  0  0
  2  4  1  0  0  0
  2 19  1  0  0  0
  4  5  2  0  0  0
  4  6  1  0  0  0
  6  7  1  0  0  0
  6 39  1  0  0  0
  7 11  1  0  0  0
  7  8  2  0  0  0
  8  9  1  0  0  0
  8 17  1  0  0  0
  9 16  1  0  0  0
  9 10  2  0  0  0
 10 11  1  0  0  0
 10 12  1  0  0  0
 12 13  1  0  0  0
 12 40  1  0  0  0
 12 41  1  0  0  0
 13 14  1  0  0  0
 13 42  1  0  0  0
 13 43  1  0  0  0
 14 15  1  0  0  0
 14 44  1  0  0  0
 14 45  1  0  0  0
 15 16  1  0  0  0
 15 46  1  0  0  0
 15 47  1  0  0  0
 16 48  1  0  0  0
 16 49  1  0  0  0
 17 18  3  0  0  0
 19 25  1  0  0  0
 19 20  1  0  0  0
 19 63  1  0  0  0
 20 21  1  0  0  0
 20 50  1  0  0  0
 20 51  1  0  0  0
 21 22  1  0  0  0
 21 52  1  0  0  0
 21 53  1  0  0  0
 22 23  1  0  0  0
 22 54  1  0  0  0
 22 55  1  0  0  0
 23 24  1  0  0  0
 23 26  1  0  0  0
 24 25  1  0  0  0
 24 56  1  0  0  0
 24 57  1  0  0  0
 25 58  1  0  0  0
 25 59  1  0  0  0
 26 31  2  0  0  0
 26 27  1  0  0  0
 27 28  2  0  0  0
 27 60  1  0  0  0
 28 29  1  0  0  0
 28 61  1  0  0  0
 29 30  2  0  0  0
 29 32  1  0  0  0
 30 31  1  0  0  0
 30 62  1  0  0  0
 32 33  1  0  0  0
 32 34  1  0  0  0
 32 35  1  0  0  0
M  CHG  1  19   1
M  END
> <i_i_glide_confnum>
29

> <i_i_glide_lignum>
1179

> <i_i_glide_posenum>
320

> <i_i_glide_rotatable_bonds>
7

> <i_m_Source_File_Index>
1333

> <b_m_subgroup_collapsed>
0

> <r_i_docking_score>
-5.10762

> <r_i_glide_ecoul>
-2.00803

> <r_i_glide_eff_state_penalty>
0

> <r_i_glide_einternal>
6.31743

> <r_i_glide_emodel>
-44.4789

> <r_i_glide_energy>
-34.4551

> <r_i_glide_erotb>
0.419672

> <r_i_glide_esite>
-0.188702

> <r_i_glide_evdw>
-32.447

> <r_i_glide_gscore>
-5.10762

> <r_i_glide_hbond>
-0.32

> <r_i_glide_ligand_efficiency>
-0.150224

> <r_i_glide_ligand_efficiency_ln>
-1.12842

> <r_i_glide_ligand_efficiency_sa>
-0.486668

> <r_i_glide_lipo>
-2.34276

> <r_i_glide_metal>
0

> <r_i_glide_rewards>
-0.75228

> <s_i_glide_gridfile>
wee1_glide-grid

> <s_m_Source_File>
wee1_decoys_glide_SP.sdf

> <s_m_Source_Path>
/Users/zhangxujun/Desktop

> <s_m_entry_id>
1608

> <s_m_entry_name>
wee1_decoys_glide_SP.1333

> <s_m_subgroup_title>
wee1_decoys_glide_SP

> <s_m_subgroupid>
wee1_decoys_glide_SP


$$$$
