ZINC02911877_5430
                    3D
 Schrodinger Suite 2024-2.
 63 68  0  0  1  0            999 V2000
    1.2203   51.2443   24.0008 C   0  0  0  0  0  0
    0.4854   51.4777   25.3160 C   0  0  0  0  0  0
    0.9247   52.4069   26.3393 C   0  0  0  0  0  0
    2.0343   53.2985   26.4688 C   0  0  0  0  0  0
    2.2380   53.9952   27.6246 N   0  0  0  0  0  0
    1.3292   53.8573   28.6142 C   0  0  0  0  0  0
    0.2254   53.0774   28.6045 N   0  0  0  0  0  0
    0.0633   52.3714   27.4836 C   0  0  0  0  0  0
   -1.2893   51.2972   27.2808 S   0  0  0  0  0  0
   -0.6694   50.7930   25.7184 C   0  0  0  0  0  0
   -1.4277   49.8250   24.9524 C   0  0  0  0  0  0
   -1.5830   49.9778   23.7399 O   0  0  0  0  0  0
   -1.9305   48.8021   25.6817 N   0  0  0  0  0  0
   -2.7846   47.7579   25.2816 C   0  0  0  0  0  0
   -2.9934   47.3651   23.9470 C   0  0  0  0  0  0
   -3.8571   46.3097   23.6467 C   0  0  0  0  0  0
   -4.5051   45.6316   24.6767 C   0  0  0  0  0  0
   -4.3100   46.0214   26.0098 C   0  0  0  0  0  0
   -3.4448   47.0710   26.3083 C   0  0  0  0  0  0
   -4.8944   45.3487   27.0646 O   0  0  0  0  0  0
   -6.0284   44.5585   26.6937 C   0  0  0  0  0  0
   -5.7186   43.7388   25.4192 C   0  0  0  0  0  0
   -5.3533   44.5979   24.3300 O   0  0  0  0  0  0
    1.5500   54.6993   29.8565 C   0  0  0  0  0  0
    2.9204   53.5673   25.4235 N   0  0  0  0  0  0
    2.3915   54.2277   24.2300 C   0  0  0  0  0  0
    3.2494   53.9575   22.9764 C   0  0  0  0  0  0
    4.7085   54.1495   23.1588 N   0  0  0  0  0  0
    5.1325   54.5979   24.5073 C   0  0  0  0  0  0
    4.2864   54.0598   25.6889 C   0  0  0  0  0  0
    5.5128   54.4964   22.0139 C   0  0  0  0  0  0
    5.1052   54.2329   20.6937 C   0  0  0  0  0  0
    5.9042   54.6376   19.6190 C   0  0  0  0  0  0
    7.1118   55.2971   19.8660 C   0  0  0  0  0  0
    7.5060   55.5262   21.1858 C   0  0  0  0  0  0
    2.3028   51.3213   24.0841 H   0  0  0  0  0  0
    1.0420   50.2456   23.6013 H   0  0  0  0  0  0
    0.8967   51.9399   23.2275 H   0  0  0  0  0  0
   -1.7018   48.7885   26.6772 H   0  0  0  0  0  0
   -2.4920   47.8569   23.1288 H   0  0  0  0  0  0
   -4.0205   46.0202   22.6193 H   0  0  0  0  0  0
   -3.2956   47.3455   27.3436 H   0  0  0  0  0  0
   -6.2950   43.8985   27.5199 H   0  0  0  0  0  0
   -6.8793   45.2143   26.5014 H   0  0  0  0  0  0
   -4.9008   43.0485   25.6320 H   0  0  0  0  0  0
   -6.5846   43.1422   25.1311 H   0  0  0  0  0  0
    2.6137   54.8269   30.0585 H   0  0  0  0  0  0
    1.1067   55.6866   29.7236 H   0  0  0  0  0  0
    1.0998   54.2365   30.7362 H   0  0  0  0  0  0
    1.3458   53.9753   24.0506 H   0  0  0  0  0  0
    2.4098   55.2966   24.4402 H   0  0  0  0  0  0
    2.9000   54.6044   22.1706 H   0  0  0  0  0  0
    3.0938   52.9363   22.6299 H   0  0  0  0  0  0
    5.1046   55.6874   24.4920 H   0  0  0  0  0  0
    6.1679   54.2922   24.6613 H   0  0  0  0  0  0
    4.2465   54.8682   26.4208 H   0  0  0  0  0  0
    4.8427   53.2363   26.1395 H   0  0  0  0  0  0
    4.1736   53.7258   20.4845 H   0  0  0  0  0  0
    5.5897   54.4372   18.6042 H   0  0  0  0  0  0
    7.7402   55.6067   19.0421 H   0  0  0  0  0  0
    8.4348   56.0005   21.4771 H   0  0  0  0  0  0
    6.7065   55.1150   22.1910 N   0  3  0  0  0  0
    7.0143   55.2825   23.1390 H   0  0  0  0  0  0
  1  2  1  0  0  0
  1 36  1  0  0  0
  1 37  1  0  0  0
  1 38  1  0  0  0
  2 10  2  0  0  0
  2  3  1  0  0  0
  3  8  2  0  0  0
  3  4  1  0  0  0
  4  5  2  0  0  0
  4 25  1  0  0  0
  5  6  1  0  0  0
  6  7  2  0  0  0
  6 24  1  0  0  0
  7  8  1  0  0  0
  8  9  1  0  0  0
  9 10  1  0  0  0
 10 11  1  0  0  0
 11 12  2  0  0  0
 11 13  1  0  0  0
 13 14  1  0  0  0
 13 39  1  0  0  0
 14 19  2  0  0  0
 14 15  1  0  0  0
 15 16  2  0  0  0
 15 40  1  0  0  0
 16 17  1  0  0  0
 16 41  1  0  0  0
 17 23  1  0  0  0
 17 18  2  0  0  0
 18 19  1  0  0  0
 18 20  1  0  0  0
 19 42  1  0  0  0
 20 21  1  0  0  0
 21 22  1  0  0  0
 21 43  1  0  0  0
 21 44  1  0  0  0
 22 23  1  0  0  0
 22 45  1  0  0  0
 22 46  1  0  0  0
 24 47  1  0  0  0
 24 48  1  0  0  0
 24 49  1  0  0  0
 25 30  1  0  0  0
 25 26  1  0  0  0
 26 27  1  0  0  0
 26 50  1  0  0  0
 26 51  1  0  0  0
 27 28  1  0  0  0
 27 52  1  0  0  0
 27 53  1  0  0  0
 28 29  1  0  0  0
 28 31  1  0  0  0
 29 30  1  0  0  0
 29 54  1  0  0  0
 29 55  1  0  0  0
 30 56  1  0  0  0
 30 57  1  0  0  0
 31 32  2  0  0  0
 31 62  1  0  0  0
 32 33  1  0  0  0
 32 58  1  0  0  0
 33 34  2  0  0  0
 33 59  1  0  0  0
 34 35  1  0  0  0
 34 60  1  0  0  0
 35 61  1  0  0  0
 35 62  2  0  0  0
 62 63  1  0  0  0
M  CHG  1  62   1
M  END
> <i_i_glide_confnum>
827

> <i_i_glide_lignum>
5431

> <i_i_glide_posenum>
96

> <i_i_glide_rotatable_bonds>
5

> <i_m_Source_File_Index>
6057

> <b_m_subgroup_collapsed>
0

> <r_i_docking_score>
-5.87822

> <r_i_glide_ecoul>
-6.69757

> <r_i_glide_eff_state_penalty>
0

> <r_i_glide_einternal>
9.13068

> <r_i_glide_emodel>
-62.2981

> <r_i_glide_energy>
-47.6349

> <r_i_glide_erotb>
0.403001

> <r_i_glide_esite>
-0.134376

> <r_i_glide_evdw>
-40.9373

> <r_i_glide_gscore>
-5.87822

> <r_i_glide_hbond>
-0.16

> <r_i_glide_ligand_efficiency>
-0.163284

> <r_i_glide_ligand_efficiency_ln>
-1.28247

> <r_i_glide_ligand_efficiency_sa>
-0.539152

> <r_i_glide_lipo>
-2.13004

> <r_i_glide_metal>
0

> <r_i_glide_rewards>
-0.805312

> <s_i_glide_gridfile>
wee1_glide-grid

> <s_m_Source_File>
wee1_decoys_glide_SP.sdf

> <s_m_Source_Path>
/Users/zhangxujun/Desktop

> <s_m_entry_id>
6332

> <s_m_entry_name>
wee1_decoys_glide_SP.6057

> <s_m_subgroup_title>
wee1_decoys_glide_SP

> <s_m_subgroupid>
wee1_decoys_glide_SP


$$$$
