ZINC34923970_5643
                    3D
 Schrodinger Suite 2024-2.
 59 62  0  0  1  0            999 V2000
   -1.9017   50.0484   20.3886 C   0  0  0  0  0  0
   -2.0209   51.5756   20.4973 C   0  0  0  0  0  0
   -1.0519   52.0967   21.4002 O   0  0  0  0  0  0
   -1.2352   52.0968   22.7455 C   0  0  0  0  0  0
   -2.3267   51.8400   23.2565 O   0  0  0  0  0  0
   -0.0142   52.4745   23.5137 C   0  0  0  0  0  0
    0.0178   52.4947   24.8840 C   0  0  0  0  0  0
    1.1043   52.8966   25.6038 N   0  0  0  0  0  0
    2.1223   53.3528   24.9902 C   0  0  0  0  0  0
    2.3315   53.4066   23.6121 N   0  0  0  0  0  0
    1.2728   52.8638   22.7031 C   0  0  1  0  0  0
    1.0179   53.6969   22.0482 H   0  0  0  0  0  0
    1.7688   51.7251   21.7957 C   0  0  0  0  0  0
    1.8632   51.9272   20.4111 C   0  0  0  0  0  0
    2.1824   50.8724   19.5584 C   0  0  0  0  0  0
    2.3897   49.5985   20.0791 C   0  0  0  0  0  0
    2.3044   49.3863   21.4543 C   0  0  0  0  0  0
    2.0035   50.4425   22.3112 C   0  0  0  0  0  0
    1.9043   50.2025   23.6375 F   0  0  0  0  0  0
    3.5198   54.0275   23.2252 C   0  0  0  0  0  0
    4.2361   54.4343   24.2925 C   0  0  0  0  0  0
    3.4909   54.0947   25.8403 S   0  0  0  0  0  0
    3.9704   54.2123   21.8443 C   0  0  0  0  0  0
    5.2153   54.4938   21.3993 C   0  0  0  0  0  0
    6.3045   54.6809   22.0576 O   0  5  0  0  0  0
    5.4439   54.6044   20.0376 N   0  0  0  0  0  0
    6.3927   55.3958   19.2400 C   0  0  0  0  0  0
    6.4953   56.8546   19.7217 C   0  0  0  0  0  0
    7.3648   57.6641   18.7359 C   0  0  0  0  0  0
    8.7573   57.0163   18.5311 C   0  0  0  0  0  0
    8.6776   55.5095   18.1875 C   0  0  0  0  0  0
    7.7875   54.7446   19.1885 C   0  0  0  0  0  0
   -1.0866   52.0630   25.8495 C   0  0  0  0  0  0
   -2.6067   49.6544   19.6569 H   0  0  0  0  0  0
   -0.8980   49.7547   20.0779 H   0  0  0  0  0  0
   -2.1101   49.5658   21.3446 H   0  0  0  0  0  0
   -3.0298   51.8639   20.7910 H   0  0  0  0  0  0
   -1.8386   52.0193   19.5180 H   0  0  0  0  0  0
    1.6577   52.8966   19.9823 H   0  0  0  0  0  0
    2.2620   51.0355   18.4928 H   0  0  0  0  0  0
    2.6424   48.7824   19.4170 H   0  0  0  0  0  0
    2.4875   48.4051   21.8635 H   0  0  0  0  0  0
    5.1917   54.9351   24.2709 H   0  0  0  0  0  0
    3.2083   54.1244   21.0890 H   0  0  0  0  0  0
    4.8945   53.9938   19.4541 H   0  0  0  0  0  0
    5.9840   55.3970   18.2279 H   0  0  0  0  0  0
    6.9386   56.8955   20.7172 H   0  0  0  0  0  0
    5.5046   57.2962   19.7816 H   0  0  0  0  0  0
    7.4751   58.6914   19.0862 H   0  0  0  0  0  0
    6.8533   57.7318   17.7746 H   0  0  0  0  0  0
    9.3510   57.1353   19.4387 H   0  0  0  0  0  0
    9.3009   57.5461   17.7484 H   0  0  0  0  0  0
    9.6797   55.0783   18.1794 H   0  0  0  0  0  0
    8.2830   55.3862   17.1779 H   0  0  0  0  0  0
    7.7117   53.7013   18.8816 H   0  0  0  0  0  0
    8.2633   54.7728   20.1699 H   0  0  0  0  0  0
   -1.8038   52.8722   25.9823 H   0  0  0  0  0  0
   -1.6139   51.1799   25.4920 H   0  0  0  0  0  0
   -0.7019   51.7903   26.8349 H   0  0  0  0  0  0
  1  2  1  0  0  0
  1 34  1  0  0  0
  1 35  1  0  0  0
  1 36  1  0  0  0
  2  3  1  0  0  0
  2 37  1  0  0  0
  2 38  1  0  0  0
  3  4  1  0  0  0
  4  5  2  0  0  0
  4  6  1  0  0  0
  6 11  1  0  0  0
  6  7  2  0  0  0
  7  8  1  0  0  0
  7 33  1  0  0  0
  8  9  2  0  0  0
  9 22  1  0  0  0
  9 10  1  0  0  0
 10 11  1  0  0  0
 10 20  1  0  0  0
 11 12  1  0  0  0
 11 13  1  0  0  0
 13 18  2  0  0  0
 13 14  1  0  0  0
 14 15  2  0  0  0
 14 39  1  0  0  0
 15 16  1  0  0  0
 15 40  1  0  0  0
 16 17  2  0  0  0
 16 41  1  0  0  0
 17 18  1  0  0  0
 17 42  1  0  0  0
 18 19  1  0  0  0
 20 21  2  0  0  0
 20 23  1  0  0  0
 21 22  1  0  0  0
 21 43  1  0  0  0
 23 24  2  0  0  0
 23 44  1  0  0  0
 24 25  1  0  0  0
 24 26  1  0  0  0
 26 27  1  0  0  0
 26 45  1  0  0  0
 27 32  1  0  0  0
 27 28  1  0  0  0
 27 46  1  0  0  0
 28 29  1  0  0  0
 28 47  1  0  0  0
 28 48  1  0  0  0
 29 30  1  0  0  0
 29 49  1  0  0  0
 29 50  1  0  0  0
 30 31  1  0  0  0
 30 51  1  0  0  0
 30 52  1  0  0  0
 31 32  1  0  0  0
 31 53  1  0  0  0
 31 54  1  0  0  0
 32 55  1  0  0  0
 32 56  1  0  0  0
 33 57  1  0  0  0
 33 58  1  0  0  0
 33 59  1  0  0  0
M  CHG  1  25  -1
M  END
> <i_i_glide_confnum>
64

> <i_i_glide_lignum>
5644

> <i_i_glide_posenum>
194

> <i_i_glide_rotatable_bonds>
7

> <i_m_Source_File_Index>
2915

> <b_m_subgroup_collapsed>
0

> <r_i_docking_score>
-4.25299

> <r_i_glide_ecoul>
-2.43095

> <r_i_glide_eff_state_penalty>
0

> <r_i_glide_einternal>
10.1863

> <r_i_glide_emodel>
-45.9084

> <r_i_glide_energy>
-39.9046

> <r_i_glide_erotb>
0.4821

> <r_i_glide_esite>
-0.00161885

> <r_i_glide_evdw>
-37.4736

> <r_i_glide_gscore>
-4.25299

> <r_i_glide_hbond>
0

> <r_i_glide_ligand_efficiency>
-0.132906

> <r_i_glide_ligand_efficiency_ln>
-0.952361

> <r_i_glide_ligand_efficiency_sa>
-0.42195

> <r_i_glide_lipo>
-1.61326

> <r_i_glide_metal>
0

> <r_i_glide_rewards>
-0.881886

> <s_i_glide_gridfile>
wee1_glide-grid

> <s_m_Source_File>
wee1_decoys_glide_SP.sdf

> <s_m_Source_Path>
/Users/zhangxujun/Desktop

> <s_m_entry_id>
3190

> <s_m_entry_name>
wee1_decoys_glide_SP.2915

> <s_m_subgroup_title>
wee1_decoys_glide_SP

> <s_m_subgroupid>
wee1_decoys_glide_SP


$$$$
