ZINC49933565_1698
                    3D
 Schrodinger Suite 2024-2.
 31 33  0  0  1  0            999 V2000
    6.3474   54.3423   27.9230 C   0  0  0  0  0  0
    4.9990   54.1507   27.2528 C   0  0  0  0  0  0
    3.7869   53.9315   27.9100 C   0  0  0  0  0  0
    2.4522   53.6965   26.7949 S   0  0  0  0  0  0
    3.5007   53.9361   25.4232 C   0  0  0  0  0  0
    4.8451   54.1764   25.8225 C   0  0  0  0  0  0
    5.7503   54.3822   24.7492 C   0  0  0  0  0  0
    5.3493   54.3332   23.4565 N   0  0  0  0  0  0
    4.0386   54.0696   23.2274 C   0  0  0  0  0  0
    3.0695   53.8743   24.1587 N   0  0  0  0  0  0
    3.6145   53.9529   21.7703 C   0  0  0  0  0  0
    4.5108   52.6313   20.8809 S   0  0  0  0  0  0
    3.2484   51.4096   20.7511 C   0  0  0  0  0  0
    3.1044   50.5541   19.6937 N   0  0  0  0  0  0
    3.7218   50.4971   18.8824 H   0  0  0  0  0  0
    2.0774   49.7313   19.9008 N   0  0  0  0  0  0
    1.6546   50.1543   21.0719 C   0  0  0  0  0  0
    2.3122   51.1577   21.6335 N   0  0  0  0  0  0
    7.1037   54.6373   24.9548 N   0  0  0  0  0  0
    3.5000   53.8565   29.3945 C   0  0  0  0  0  0
    6.7964   55.2970   27.6520 H   0  0  0  0  0  0
    7.0504   53.5566   27.6448 H   0  0  0  0  0  0
    6.2996   54.3338   29.0100 H   0  0  0  0  0  0
    2.5360   53.8156   21.6821 H   0  0  0  0  0  0
    3.8204   54.8965   21.2687 H   0  0  0  0  0  0
    0.8085   49.6963   21.5617 H   0  0  0  0  0  0
    7.4828   54.3075   25.8292 H   0  0  0  0  0  0
    7.7004   54.7106   24.1371 H   0  0  0  0  0  0
    3.2460   52.8400   29.6949 H   0  0  0  0  0  0
    4.3380   54.1716   30.0127 H   0  0  0  0  0  0
    2.6569   54.4913   29.6681 H   0  0  0  0  0  0
  1  2  1  0  0  0
  1 21  1  0  0  0
  1 22  1  0  0  0
  1 23  1  0  0  0
  2  6  1  0  0  0
  2  3  2  0  0  0
  3  4  1  0  0  0
  3 20  1  0  0  0
  4  5  1  0  0  0
  5 10  2  0  0  0
  5  6  1  0  0  0
  6  7  2  0  0  0
  7  8  1  0  0  0
  7 19  1  0  0  0
  8  9  2  0  0  0
  9 10  1  0  0  0
  9 11  1  0  0  0
 11 12  1  0  0  0
 11 24  1  0  0  0
 11 25  1  0  0  0
 12 13  1  0  0  0
 13 18  2  0  0  0
 13 14  1  0  0  0
 14 15  1  0  0  0
 14 16  1  0  0  0
 16 17  2  0  0  0
 17 18  1  0  0  0
 17 26  1  0  0  0
 19 27  1  0  0  0
 19 28  1  0  0  0
 20 29  1  0  0  0
 20 30  1  0  0  0
 20 31  1  0  0  0
M  END
> <i_i_glide_confnum>
12

> <i_i_glide_lignum>
1699

> <i_i_glide_posenum>
330

> <i_i_glide_rotatable_bonds>
3

> <i_m_Source_File_Index>
3702

> <b_m_subgroup_collapsed>
0

> <r_i_docking_score>
-5.96976

> <r_i_glide_ecoul>
-4.6623

> <r_i_glide_eff_state_penalty>
0

> <r_i_glide_einternal>
1.50586

> <r_i_glide_emodel>
-52.5118

> <r_i_glide_energy>
-38.4974

> <r_i_glide_erotb>
0.640648

> <r_i_glide_esite>
-0.103126

> <r_i_glide_evdw>
-33.8351

> <r_i_glide_gscore>
-5.96976

> <r_i_glide_hbond>
-0.37627

> <r_i_glide_ligand_efficiency>
-0.314198

> <r_i_glide_ligand_efficiency_ln>
-1.51346

> <r_i_glide_ligand_efficiency_sa>
-0.838406

> <r_i_glide_lipo>
-1.93351

> <r_i_glide_metal>
0

> <r_i_glide_rewards>
-1.80641

> <s_i_glide_gridfile>
wee1_glide-grid

> <s_m_Source_File>
wee1_decoys_glide_SP.sdf

> <s_m_Source_Path>
/Users/zhangxujun/Desktop

> <s_m_entry_id>
3977

> <s_m_entry_name>
wee1_decoys_glide_SP.3702

> <s_m_subgroup_title>
wee1_decoys_glide_SP

> <s_m_subgroupid>
wee1_decoys_glide_SP


$$$$
