ZINC16572317_2864
                    3D
 Schrodinger Suite 2024-2.
 58 60  0  0  1  0            999 V2000
    4.2918   52.5373   14.8250 C   0  0  0  0  0  0
    4.3468   53.9533   15.4254 C   0  0  0  0  0  0
    5.0438   54.0894   16.8040 C   0  0  2  0  0  0
    5.3464   55.1378   16.8390 H   0  0  0  0  0  0
    6.3611   53.2785   16.8601 C   0  0  0  0  0  0
    4.0641   53.8741   18.0142 C   0  0  2  0  0  0
    3.2241   54.5608   17.8890 H   0  0  0  0  0  0
    4.7169   54.2916   19.3675 C   0  0  0  0  0  0
    5.6713   55.0735   19.3777 O   0  0  0  0  0  0
    4.1588   53.7714   20.4819 N   0  0  0  0  0  0
    4.5690   53.9997   21.7835 C   0  0  0  0  0  0
    5.7422   54.4222   22.2028 N   0  0  0  0  0  0
    5.8124   54.4959   23.5886 N   0  0  0  0  0  0
    4.6894   54.1499   24.1801 C   0  0  0  0  0  0
    3.4312   53.6969   23.0532 S   0  0  0  0  0  0
    4.4922   54.0966   25.6667 C   0  0  0  0  0  0
    5.5952   54.1901   26.5274 C   0  0  0  0  0  0
    5.4245   54.0896   27.9063 C   0  0  0  0  0  0
    4.1485   53.8913   28.4263 C   0  0  0  0  0  0
    3.0424   53.8186   27.5867 C   0  0  0  0  0  0
    3.2132   53.9248   26.2112 C   0  0  0  0  0  0
    3.9043   53.6941   30.2991 Br  0  0  0  0  0  0
    3.5479   52.4968   18.0459 N   0  0  0  0  0  0
    2.2617   52.1284   18.0124 C   0  0  0  0  0  0
    1.3078   52.8999   18.0820 O   0  0  0  0  0  0
    2.1401   50.8008   17.9097 N   0  0  0  0  0  0
    0.9049   50.0360   18.1068 C   0  0  0  0  0  0
    1.1020   48.5614   17.6885 C   0  0  0  0  0  0
    2.1117   47.8268   18.5980 C   0  0  0  0  0  0
    1.7063   47.9121   20.0818 C   0  0  0  0  0  0
    1.4106   49.3584   20.5326 C   0  0  0  0  0  0
    0.4112   50.0495   19.5788 C   0  0  0  0  0  0
    3.5868   52.5002   13.9941 H   0  0  0  0  0  0
    5.2656   52.2390   14.4378 H   0  0  0  0  0  0
    3.9815   51.7816   15.5476 H   0  0  0  0  0  0
    3.3392   54.3658   15.4790 H   0  0  0  0  0  0
    4.8771   54.5860   14.7123 H   0  0  0  0  0  0
    6.1751   52.2058   16.8709 H   0  0  0  0  0  0
    6.9858   53.4941   15.9931 H   0  0  0  0  0  0
    6.9535   53.5096   17.7441 H   0  0  0  0  0  0
    3.3239   53.2175   20.3548 H   0  0  0  0  0  0
    6.5913   54.3174   26.1305 H   0  0  0  0  0  0
    6.2785   54.1526   28.5660 H   0  0  0  0  0  0
    2.0556   53.6667   27.9991 H   0  0  0  0  0  0
    2.3422   53.8529   25.5781 H   0  0  0  0  0  0
    4.2568   51.7682   18.0816 H   0  0  0  0  0  0
    2.9449   50.2676   17.5902 H   0  0  0  0  0  0
    0.1378   50.4928   17.4763 H   0  0  0  0  0  0
    1.4417   48.5086   16.6527 H   0  0  0  0  0  0
    0.1429   48.0418   17.7094 H   0  0  0  0  0  0
    3.1054   48.2582   18.4819 H   0  0  0  0  0  0
    2.1959   46.7859   18.2874 H   0  0  0  0  0  0
    2.4956   47.4907   20.7034 H   0  0  0  0  0  0
    0.8191   47.2977   20.2385 H   0  0  0  0  0  0
    2.3418   49.9266   20.5647 H   0  0  0  0  0  0
    1.0184   49.3602   21.5502 H   0  0  0  0  0  0
   -0.5588   49.5534   19.6472 H   0  0  0  0  0  0
    0.2351   51.0741   19.9081 H   0  0  0  0  0  0
  1  2  1  0  0  0
  1 33  1  0  0  0
  1 34  1  0  0  0
  1 35  1  0  0  0
  2  3  1  0  0  0
  2 36  1  0  0  0
  2 37  1  0  0  0
  3  4  1  0  0  0
  3  5  1  0  0  0
  3  6  1  0  0  0
  5 38  1  0  0  0
  5 39  1  0  0  0
  5 40  1  0  0  0
  6  7  1  0  0  0
  6  8  1  0  0  0
  6 23  1  0  0  0
  8  9  2  0  0  0
  8 10  1  0  0  0
 10 11  1  0  0  0
 10 41  1  0  0  0
 11 15  1  0  0  0
 11 12  2  0  0  0
 12 13  1  0  0  0
 13 14  2  0  0  0
 14 15  1  0  0  0
 14 16  1  0  0  0
 16 21  2  0  0  0
 16 17  1  0  0  0
 17 18  2  0  0  0
 17 42  1  0  0  0
 18 19  1  0  0  0
 18 43  1  0  0  0
 19 20  2  0  0  0
 19 22  1  0  0  0
 20 21  1  0  0  0
 20 44  1  0  0  0
 21 45  1  0  0  0
 23 24  1  0  0  0
 23 46  1  0  0  0
 24 25  2  0  0  0
 24 26  1  0  0  0
 26 27  1  0  0  0
 26 47  1  0  0  0
 27 32  1  0  0  0
 27 28  1  0  0  0
 27 48  1  0  0  0
 28 29  1  0  0  0
 28 49  1  0  0  0
 28 50  1  0  0  0
 29 30  1  0  0  0
 29 51  1  0  0  0
 29 52  1  0  0  0
 30 31  1  0  0  0
 30 53  1  0  0  0
 30 54  1  0  0  0
 31 32  1  0  0  0
 31 55  1  0  0  0
 31 56  1  0  0  0
 32 57  1  0  0  0
 32 58  1  0  0  0
M  END
> <i_i_glide_confnum>
268

> <i_i_glide_lignum>
2865

> <i_i_glide_posenum>
380

> <i_i_glide_rotatable_bonds>
10

> <i_m_Source_File_Index>
2080

> <b_m_subgroup_collapsed>
0

> <r_i_docking_score>
-4.88417

> <r_i_glide_ecoul>
-6.29859

> <r_i_glide_eff_state_penalty>
0

> <r_i_glide_einternal>
8.77666

> <r_i_glide_emodel>
-53.5483

> <r_i_glide_energy>
-43.694

> <r_i_glide_erotb>
0.666837

> <r_i_glide_esite>
-0.235011

> <r_i_glide_evdw>
-37.3954

> <r_i_glide_gscore>
-4.88417

> <r_i_glide_hbond>
-0.304

> <r_i_glide_ligand_efficiency>
-0.162806

> <r_i_glide_ligand_efficiency_ln>
-1.10974

> <r_i_glide_ligand_efficiency_sa>
-0.505876

> <r_i_glide_lipo>
-2.09164

> <r_i_glide_metal>
0

> <r_i_glide_rewards>
-0.1058

> <s_i_glide_gridfile>
wee1_glide-grid

> <s_m_Source_File>
wee1_decoys_glide_SP.sdf

> <s_m_Source_Path>
/Users/zhangxujun/Desktop

> <s_m_entry_id>
2355

> <s_m_entry_name>
wee1_decoys_glide_SP.2080

> <s_m_subgroup_title>
wee1_decoys_glide_SP

> <s_m_subgroupid>
wee1_decoys_glide_SP


$$$$
