ZINC39636366_3062
                    3D
 Schrodinger Suite 2024-2.
 73 77  0  0  1  0            999 V2000
   -7.3823   50.3040   21.9496 C   0  0  0  0  0  0
   -6.1356   50.1020   21.2942 O   0  0  0  0  0  0
   -6.0587   50.2176   19.9180 C   0  0  0  0  0  0
   -7.1771   50.4598   19.1026 C   0  0  0  0  0  0
   -7.0390   50.5765   17.7229 C   0  0  0  0  0  0
   -5.7853   50.4434   17.1360 C   0  0  0  0  0  0
   -4.6668   50.2041   17.9286 C   0  0  0  0  0  0
   -4.7891   50.0935   19.3213 C   0  0  0  0  0  0
   -3.5632   49.8483   20.2108 C   0  0  0  0  0  0
   -2.1831   50.1929   19.5972 C   0  0  0  0  0  0
   -1.0854   50.2978   20.5641 N   0  0  0  0  0  0
   -0.9940   51.2383   21.5213 C   0  0  0  0  0  0
   -1.8514   52.1102   21.6616 O   0  0  0  0  0  0
    0.2997   51.2454   22.3728 C   0  0  1  0  0  0
    1.0676   50.6747   21.8432 H   0  0  0  0  0  0
    0.7841   52.6909   22.5651 C   0  0  0  0  0  0
    1.6237   52.6332   23.7699 N   0  0  0  0  0  0
    1.4602   51.3270   24.4262 C   0  0  0  0  0  0
    0.1591   50.7300   23.8270 C   0  0  0  0  0  0
   -1.1162   51.2603   24.5711 C   0  0  0  0  0  0
   -1.1875   50.8200   26.0478 C   0  0  0  0  0  0
   -1.1971   49.2847   26.0811 N   0  3  0  0  0  0
   -0.0065   48.6428   25.3269 C   0  0  0  0  0  0
    0.0530   49.1900   23.8876 C   0  0  0  0  0  0
    2.5350   53.6205   24.0115 C   0  0  0  0  0  0
    2.7182   54.4970   23.1693 O   0  0  0  0  0  0
    3.3838   53.7069   25.2770 C   0  0  0  0  0  0
    4.7294   54.0980   25.1289 C   0  0  0  0  0  0
    5.5611   54.2511   26.2366 C   0  0  0  0  0  0
    5.0233   54.0352   27.5003 C   0  0  0  0  0  0
    3.7234   53.7094   27.6919 N   0  0  0  0  0  0
    2.9102   53.5691   26.6085 C   0  0  0  0  0  0
    1.1940   53.2965   26.9605 S   0  0  0  0  0  0
    0.9451   53.4752   28.6915 C   0  0  0  0  0  0
    0.4498   52.3863   29.4038 C   0  0  0  0  0  0
    0.1205   52.5377   30.7428 C   0  0  0  0  0  0
    0.3039   53.7713   31.3637 C   0  0  0  0  0  0
    0.7818   54.8666   30.6451 C   0  0  0  0  0  0
    1.1153   54.7172   29.3023 C   0  0  0  0  0  0
   -7.2427   50.2039   23.0268 H   0  0  0  0  0  0
   -7.7721   51.3070   21.7623 H   0  0  0  0  0  0
   -8.1254   49.5639   21.6415 H   0  0  0  0  0  0
   -8.1658   50.5654   19.5250 H   0  0  0  0  0  0
   -7.9053   50.7655   17.1061 H   0  0  0  0  0  0
   -5.6810   50.5289   16.0641 H   0  0  0  0  0  0
   -3.7106   50.1022   17.4385 H   0  0  0  0  0  0
   -3.6982   50.4589   21.1024 H   0  0  0  0  0  0
   -3.5729   48.8165   20.5588 H   0  0  0  0  0  0
   -1.9406   49.5013   18.7896 H   0  0  0  0  0  0
   -2.2601   51.1615   19.0937 H   0  0  0  0  0  0
   -0.3322   49.6305   20.4700 H   0  0  0  0  0  0
    1.2779   53.0567   21.6636 H   0  0  0  0  0  0
   -0.0752   53.2964   22.8457 H   0  0  0  0  0  0
    1.5042   51.2946   25.5056 H   0  0  0  0  0  0
    2.2964   50.7135   24.0817 H   0  0  0  0  0  0
   -1.1335   52.3506   24.5529 H   0  0  0  0  0  0
   -2.0320   50.9596   24.0598 H   0  0  0  0  0  0
   -0.3388   51.1112   26.6560 H   0  0  0  0  0  0
   -2.1057   51.1410   26.5415 H   0  0  0  0  0  0
   -1.2789   48.9232   27.0506 H   0  0  0  0  0  0
    0.8959   48.8281   25.9135 H   0  0  0  0  0  0
   -0.2138   47.5748   25.2935 H   0  0  0  0  0  0
   -0.8070   48.8392   23.3143 H   0  0  0  0  0  0
    0.9217   48.7489   23.3948 H   0  0  0  0  0  0
    5.1440   54.2697   24.1453 H   0  0  0  0  0  0
    6.5978   54.5275   26.1147 H   0  0  0  0  0  0
    5.6312   54.1408   28.3871 H   0  0  0  0  0  0
    0.2877   51.4337   28.9214 H   0  0  0  0  0  0
   -0.3134   51.7071   31.2818 H   0  0  0  0  0  0
    0.0378   53.8786   32.4064 H   0  0  0  0  0  0
    0.9031   55.8249   31.1319 H   0  0  0  0  0  0
    1.4746   55.5646   28.7363 H   0  0  0  0  0  0
   -2.0476   48.9696   25.6378 H   0  0  0  0  0  0
  1  2  1  0  0  0
  1 40  1  0  0  0
  1 41  1  0  0  0
  1 42  1  0  0  0
  2  3  1  0  0  0
  3  8  2  0  0  0
  3  4  1  0  0  0
  4  5  2  0  0  0
  4 43  1  0  0  0
  5  6  1  0  0  0
  5 44  1  0  0  0
  6  7  2  0  0  0
  6 45  1  0  0  0
  7  8  1  0  0  0
  7 46  1  0  0  0
  8  9  1  0  0  0
  9 10  1  0  0  0
  9 47  1  0  0  0
  9 48  1  0  0  0
 10 11  1  0  0  0
 10 49  1  0  0  0
 10 50  1  0  0  0
 11 12  1  0  0  0
 11 51  1  0  0  0
 12 13  2  0  0  0
 12 14  1  0  0  0
 14 15  1  0  0  0
 14 19  1  0  0  0
 14 16  1  0  0  0
 16 17  1  0  0  0
 16 52  1  0  0  0
 16 53  1  0  0  0
 17 18  1  0  0  0
 17 25  1  0  0  0
 18 19  1  0  0  0
 18 54  1  0  0  0
 18 55  1  0  0  0
 19 24  1  0  0  0
 19 20  1  0  0  0
 20 21  1  0  0  0
 20 56  1  0  0  0
 20 57  1  0  0  0
 21 22  1  0  0  0
 21 58  1  0  0  0
 21 59  1  0  0  0
 22 23  1  0  0  0
 22 60  1  0  0  0
 22 73  1  0  0  0
 23 24  1  0  0  0
 23 61  1  0  0  0
 23 62  1  0  0  0
 24 63  1  0  0  0
 24 64  1  0  0  0
 25 26  2  0  0  0
 25 27  1  0  0  0
 27 32  2  0  0  0
 27 28  1  0  0  0
 28 29  2  0  0  0
 28 65  1  0  0  0
 29 30  1  0  0  0
 29 66  1  0  0  0
 30 31  2  0  0  0
 30 67  1  0  0  0
 31 32  1  0  0  0
 32 33  1  0  0  0
 33 34  1  0  0  0
 34 39  2  0  0  0
 34 35  1  0  0  0
 35 36  2  0  0  0
 35 68  1  0  0  0
 36 37  1  0  0  0
 36 69  1  0  0  0
 37 38  2  0  0  0
 37 70  1  0  0  0
 38 39  1  0  0  0
 38 71  1  0  0  0
 39 72  1  0  0  0
M  CHG  1  22   1
M  END
> <i_i_glide_confnum>
315

> <i_i_glide_lignum>
3063

> <i_i_glide_posenum>
179

> <i_i_glide_rotatable_bonds>
10

> <i_m_Source_File_Index>
993

> <b_m_subgroup_collapsed>
0

> <r_i_docking_score>
-5.96897

> <r_i_glide_ecoul>
-10.3921

> <r_i_glide_eff_state_penalty>
0

> <r_i_glide_einternal>
9.44161

> <r_i_glide_emodel>
-62.8351

> <r_i_glide_energy>
-47.753

> <r_i_glide_erotb>
0.656517

> <r_i_glide_esite>
-0.104008

> <r_i_glide_evdw>
-37.3609

> <r_i_glide_gscore>
-5.96897

> <r_i_glide_hbond>
-0.163141

> <r_i_glide_ligand_efficiency>
-0.157078

> <r_i_glide_ligand_efficiency_ln>
-1.28709

> <r_i_glide_ligand_efficiency_sa>
-0.528093

> <r_i_glide_lipo>
-2.33069

> <r_i_glide_metal>
0

> <r_i_glide_rewards>
-0.600788

> <s_i_glide_gridfile>
wee1_glide-grid

> <s_m_Source_File>
wee1_decoys_glide_SP.sdf

> <s_m_Source_Path>
/Users/zhangxujun/Desktop

> <s_m_entry_id>
1268

> <s_m_entry_name>
wee1_decoys_glide_SP.993

> <s_m_subgroup_title>
wee1_decoys_glide_SP

> <s_m_subgroupid>
wee1_decoys_glide_SP


$$$$
