ZINC39599863_370
                    3D
 Schrodinger Suite 2024-2.
 66 70  0  0  1  0            999 V2000
    6.7044   54.9116   25.1754 C   0  0  0  0  0  0
    5.8023   54.5221   24.1840 C   0  0  0  0  0  0
    4.5124   54.1205   24.5313 C   0  0  0  0  0  0
    4.1431   54.0969   25.8744 C   0  0  0  0  0  0
    5.0460   54.4941   26.8738 C   0  0  0  0  0  0
    6.3340   54.8961   26.5234 C   0  0  0  0  0  0
    4.7236   54.4332   28.2211 O   0  0  0  0  0  0
    3.3223   54.2514   28.4896 C   0  0  0  0  0  0
    2.7519   53.1871   27.5105 C   0  0  2  0  0  0
    3.3075   52.2547   27.6194 H   0  0  0  0  0  0
    2.8612   53.7038   26.1795 O   0  0  0  0  0  0
    1.2845   52.7659   27.7993 C   0  0  0  0  0  0
    0.9024   52.8012   28.9699 O   0  0  0  0  0  0
    0.4733   52.2835   26.8166 N   0  0  0  0  0  0
   -0.9034   51.8583   27.0813 C   0  0  0  0  0  0
   -1.5619   51.9433   25.6873 C   0  0  1  0  0  0
   -1.8977   52.9749   25.5791 H   0  0  0  0  0  0
   -0.4308   51.5730   24.6917 C   0  0  0  0  0  0
    0.7701   52.2544   25.3811 C   0  0  0  0  0  0
   -0.1997   50.0351   24.5424 C   0  0  0  0  0  0
    1.0308   49.6976   23.6698 C   0  0  0  0  0  0
    0.8781   50.3827   22.2900 N   0  3  0  0  0  0
    0.5484   51.8939   22.3528 C   0  0  0  0  0  0
   -0.6928   52.0806   23.2514 C   0  0  0  0  0  0
   -2.8396   51.0720   25.5848 C   0  0  0  0  0  0
   -3.6144   51.2984   24.6574 O   0  0  0  0  0  0
   -3.0601   50.0958   26.4851 N   0  0  0  0  0  0
   -4.1130   49.0888   26.3740 C   0  0  0  0  0  0
   -3.8007   48.0512   25.2999 C   0  0  0  0  0  0
   -4.7089   47.8013   24.2705 C   0  0  0  0  0  0
   -4.3885   46.8905   23.2665 C   0  0  0  0  0  0
   -3.1495   46.2301   23.2806 C   0  0  0  0  0  0
   -2.2499   46.4968   24.3105 C   0  0  0  0  0  0
   -2.5722   47.3865   25.3230 C   0  0  0  0  0  0
   -2.7313   45.2992   22.3492 O   0  0  0  0  0  0
   -3.5358   45.0040   21.2081 C   0  0  0  0  0  0
   -2.8677   44.1078   20.4833 F   0  0  0  0  0  0
   -3.7244   46.0843   20.4471 F   0  0  0  0  0  0
   -4.6998   44.4524   21.5564 F   0  0  0  0  0  0
    7.6965   55.2164   24.8820 H   0  0  0  0  0  0
    6.1038   54.5375   23.1465 H   0  0  0  0  0  0
    3.8091   53.8296   23.7653 H   0  0  0  0  0  0
    7.0347   55.1800   27.2952 H   0  0  0  0  0  0
    2.7970   55.2007   28.3709 H   0  0  0  0  0  0
    3.2358   53.9253   29.5276 H   0  0  0  0  0  0
   -1.4310   52.4925   27.7912 H   0  0  0  0  0  0
   -0.8352   50.8243   27.4246 H   0  0  0  0  0  0
    1.7433   51.8570   25.1013 H   0  0  0  0  0  0
    0.7678   53.2973   25.0570 H   0  0  0  0  0  0
   -0.0379   49.5879   25.5262 H   0  0  0  0  0  0
   -1.0846   49.5353   24.1442 H   0  0  0  0  0  0
    1.9822   50.0291   24.0815 H   0  0  0  0  0  0
    1.1048   48.6249   23.4762 H   0  0  0  0  0  0
    1.7150   50.2356   21.7416 H   0  0  0  0  0  0
    1.4381   52.4021   22.7258 H   0  0  0  0  0  0
    0.3705   52.2127   21.3229 H   0  0  0  0  0  0
   -1.5816   51.6196   22.8172 H   0  0  0  0  0  0
   -0.9114   53.1496   23.2836 H   0  0  0  0  0  0
   -2.3641   49.8932   27.1925 H   0  0  0  0  0  0
   -5.0819   49.5618   26.1971 H   0  0  0  0  0  0
   -4.1851   48.5703   27.3320 H   0  0  0  0  0  0
   -5.6575   48.3191   24.2396 H   0  0  0  0  0  0
   -5.1130   46.7183   22.4839 H   0  0  0  0  0  0
   -1.2949   46.0010   24.3309 H   0  0  0  0  0  0
   -1.8593   47.5793   26.1146 H   0  0  0  0  0  0
    0.1321   49.9194   21.7901 H   0  0  0  0  0  0
  1  6  2  0  0  0
  1  2  1  0  0  0
  1 40  1  0  0  0
  2  3  2  0  0  0
  2 41  1  0  0  0
  3  4  1  0  0  0
  3 42  1  0  0  0
  4 11  1  0  0  0
  4  5  2  0  0  0
  5  6  1  0  0  0
  5  7  1  0  0  0
  6 43  1  0  0  0
  7  8  1  0  0  0
  8  9  1  0  0  0
  8 44  1  0  0  0
  8 45  1  0  0  0
  9 10  1  0  0  0
  9 11  1  0  0  0
  9 12  1  0  0  0
 12 13  2  0  0  0
 12 14  1  0  0  0
 14 19  1  0  0  0
 14 15  1  0  0  0
 15 16  1  0  0  0
 15 46  1  0  0  0
 15 47  1  0  0  0
 16 17  1  0  0  0
 16 18  1  0  0  0
 16 25  1  0  0  0
 18 24  1  0  0  0
 18 19  1  0  0  0
 18 20  1  0  0  0
 19 48  1  0  0  0
 19 49  1  0  0  0
 20 21  1  0  0  0
 20 50  1  0  0  0
 20 51  1  0  0  0
 21 22  1  0  0  0
 21 52  1  0  0  0
 21 53  1  0  0  0
 22 23  1  0  0  0
 22 54  1  0  0  0
 22 66  1  0  0  0
 23 24  1  0  0  0
 23 55  1  0  0  0
 23 56  1  0  0  0
 24 57  1  0  0  0
 24 58  1  0  0  0
 25 26  2  0  0  0
 25 27  1  0  0  0
 27 28  1  0  0  0
 27 59  1  0  0  0
 28 29  1  0  0  0
 28 60  1  0  0  0
 28 61  1  0  0  0
 29 34  2  0  0  0
 29 30  1  0  0  0
 30 31  2  0  0  0
 30 62  1  0  0  0
 31 32  1  0  0  0
 31 63  1  0  0  0
 32 33  2  0  0  0
 32 35  1  0  0  0
 33 34  1  0  0  0
 33 64  1  0  0  0
 34 65  1  0  0  0
 35 36  1  0  0  0
 36 37  1  0  0  0
 36 38  1  0  0  0
 36 39  1  0  0  0
M  CHG  1  22   1
M  END
> <i_i_glide_confnum>
499

> <i_i_glide_lignum>
371

> <i_i_glide_posenum>
108

> <i_i_glide_rotatable_bonds>
8

> <i_m_Source_File_Index>
5759

> <b_m_subgroup_collapsed>
0

> <r_i_docking_score>
-5.1108

> <r_i_glide_ecoul>
-3.85428

> <r_i_glide_eff_state_penalty>
0

> <r_i_glide_einternal>
9.22122

> <r_i_glide_emodel>
-58.1724

> <r_i_glide_energy>
-46.1899

> <r_i_glide_erotb>
0.53097

> <r_i_glide_esite>
-0.132639

> <r_i_glide_evdw>
-42.3356

> <r_i_glide_gscore>
-5.1108

> <r_i_glide_hbond>
-0.179725

> <r_i_glide_ligand_efficiency>
-0.13813

> <r_i_glide_ligand_efficiency_ln>
-1.10841

> <r_i_glide_ligand_efficiency_sa>
-0.460279

> <r_i_glide_lipo>
-2.21706

> <r_i_glide_metal>
0

> <r_i_glide_rewards>
-0.417424

> <s_i_glide_gridfile>
wee1_glide-grid

> <s_m_Source_File>
wee1_decoys_glide_SP.sdf

> <s_m_Source_Path>
/Users/zhangxujun/Desktop

> <s_m_entry_id>
6034

> <s_m_entry_name>
wee1_decoys_glide_SP.5759

> <s_m_subgroup_title>
wee1_decoys_glide_SP

> <s_m_subgroupid>
wee1_decoys_glide_SP


$$$$
