ZINC34974956_2671
                    3D
 Schrodinger Suite 2024-2.
 69 70  0  0  1  0            999 V2000
    2.8394   54.6690   22.9807 C   0  0  0  0  0  0
    3.8618   53.5450   23.2038 C   0  0  1  0  0  0
    3.4192   52.8964   23.9501 H   0  0  0  0  0  0
    3.9985   52.7519   21.8642 C   0  0  0  0  0  0
    4.7040   53.5711   20.8472 N   0  0  0  0  0  0
    5.7389   54.5251   21.3001 C   0  0  0  0  0  0
    6.3049   54.0535   22.6509 C   0  0  0  0  0  0
    5.2200   53.9805   23.6537 N   0  0  0  0  0  0
    5.5553   54.2907   24.9450 C   0  0  0  0  0  0
    6.5787   54.9355   25.2090 O   0  0  0  0  0  0
    4.7169   53.7631   26.1515 C   0  0  0  0  0  0
    5.6655   53.3446   27.3136 C   0  0  0  0  0  0
    4.8401   52.9194   28.5428 C   0  0  0  0  0  0
    3.9144   54.0412   29.0383 C   0  0  0  0  0  0
    3.0003   54.5218   27.8968 C   0  0  0  0  0  0
    3.8164   54.9009   26.6444 C   0  0  0  0  0  0
    4.4364   53.5161   19.5107 C   0  0  0  0  0  0
    5.2476   53.9217   18.6735 O   0  0  0  0  0  0
    3.0641   52.9676   19.0099 C   0  0  1  0  0  0
    2.3037   53.2966   19.7146 H   0  0  0  0  0  0
    2.6572   53.5312   17.5901 C   0  0  0  0  0  0
    1.2230   53.1140   17.2013 C   0  0  0  0  0  0
    2.8076   55.0551   17.3454 C   0  0  0  0  0  0
    3.1044   51.5068   18.9703 N   0  0  0  0  0  0
    2.1705   50.6647   19.4226 C   0  0  0  0  0  0
    1.2751   50.9741   20.2093 O   0  0  0  0  0  0
    2.3036   49.4660   18.8343 N   0  0  0  0  0  0
    1.3162   48.3868   18.7135 C   0  0  0  0  0  0
   -0.0226   48.8950   18.1245 C   0  0  0  0  0  0
    1.0731   47.7192   20.0813 C   0  0  0  0  0  0
    1.9034   47.3386   17.7449 C   0  0  0  0  0  0
    1.8635   54.2560   22.7234 H   0  0  0  0  0  0
    2.7030   55.2966   23.8523 H   0  0  0  0  0  0
    3.1200   55.2966   22.1390 H   0  0  0  0  0  0
    2.9916   52.4794   21.5529 H   0  0  0  0  0  0
    4.5671   51.8398   22.0474 H   0  0  0  0  0  0
    6.5798   54.5619   20.6048 H   0  0  0  0  0  0
    5.3078   55.5193   21.4179 H   0  0  0  0  0  0
    6.7041   53.0483   22.5398 H   0  0  0  0  0  0
    7.1049   54.7464   22.9200 H   0  0  0  0  0  0
    4.1380   52.9032   25.8272 H   0  0  0  0  0  0
    6.2863   52.4968   27.0439 H   0  0  0  0  0  0
    6.2838   54.1775   27.6571 H   0  0  0  0  0  0
    4.2073   52.0793   28.2817 H   0  0  0  0  0  0
    5.5044   52.5758   29.3302 H   0  0  0  0  0  0
    3.3137   53.6898   29.8779 H   0  0  0  0  0  0
    4.5124   54.8740   29.4130 H   0  0  0  0  0  0
    2.2833   53.7388   27.6436 H   0  0  0  0  0  0
    2.4103   55.3769   28.2303 H   0  0  0  0  0  0
    4.4796   55.6966   26.9519 H   0  0  0  0  0  0
    3.1044   55.2153   25.8929 H   0  0  0  0  0  0
    3.3132   53.0569   16.8566 H   0  0  0  0  0  0
    0.4989   53.4738   17.9333 H   0  0  0  0  0  0
    0.9389   53.5146   16.2280 H   0  0  0  0  0  0
    1.1208   52.0314   17.1349 H   0  0  0  0  0  0
    2.2695   55.6441   18.0817 H   0  0  0  0  0  0
    3.8425   55.3923   17.3496 H   0  0  0  0  0  0
    2.4124   55.3317   16.3677 H   0  0  0  0  0  0
    3.9544   51.1160   18.5565 H   0  0  0  0  0  0
    3.1205   49.3456   18.2424 H   0  0  0  0  0  0
   -0.7262   48.0770   17.9652 H   0  0  0  0  0  0
    0.1277   49.3885   17.1631 H   0  0  0  0  0  0
   -0.5114   49.6124   18.7848 H   0  0  0  0  0  0
    1.9979   47.3025   20.4813 H   0  0  0  0  0  0
    0.6859   48.4277   20.8147 H   0  0  0  0  0  0
    0.3520   46.9047   20.0068 H   0  0  0  0  0  0
    2.8753   46.9762   18.0815 H   0  0  0  0  0  0
    1.2493   46.4724   17.6374 H   0  0  0  0  0  0
    2.0551   47.7569   16.7480 H   0  0  0  0  0  0
  1  2  1  0  0  0
  1 32  1  0  0  0
  1 33  1  0  0  0
  1 34  1  0  0  0
  2  3  1  0  0  0
  2  8  1  0  0  0
  2  4  1  0  0  0
  4  5  1  0  0  0
  4 35  1  0  0  0
  4 36  1  0  0  0
  5  6  1  0  0  0
  5 17  1  0  0  0
  6  7  1  0  0  0
  6 37  1  0  0  0
  6 38  1  0  0  0
  7  8  1  0  0  0
  7 39  1  0  0  0
  7 40  1  0  0  0
  8  9  1  0  0  0
  9 10  2  0  0  0
  9 11  1  0  0  0
 11 16  1  0  0  0
 11 12  1  0  0  0
 11 41  1  0  0  0
 12 13  1  0  0  0
 12 42  1  0  0  0
 12 43  1  0  0  0
 13 14  1  0  0  0
 13 44  1  0  0  0
 13 45  1  0  0  0
 14 15  1  0  0  0
 14 46  1  0  0  0
 14 47  1  0  0  0
 15 16  1  0  0  0
 15 48  1  0  0  0
 15 49  1  0  0  0
 16 50  1  0  0  0
 16 51  1  0  0  0
 17 18  2  0  0  0
 17 19  1  0  0  0
 19 20  1  0  0  0
 19 21  1  0  0  0
 19 24  1  0  0  0
 21 22  1  0  0  0
 21 23  1  0  0  0
 21 52  1  0  0  0
 22 53  1  0  0  0
 22 54  1  0  0  0
 22 55  1  0  0  0
 23 56  1  0  0  0
 23 57  1  0  0  0
 23 58  1  0  0  0
 24 25  1  0  0  0
 24 59  1  0  0  0
 25 26  2  0  0  0
 25 27  1  0  0  0
 27 28  1  0  0  0
 27 60  1  0  0  0
 28 29  1  0  0  0
 28 30  1  0  0  0
 28 31  1  0  0  0
 29 61  1  0  0  0
 29 62  1  0  0  0
 29 63  1  0  0  0
 30 64  1  0  0  0
 30 65  1  0  0  0
 30 66  1  0  0  0
 31 67  1  0  0  0
 31 68  1  0  0  0
 31 69  1  0  0  0
M  END
> <i_i_glide_confnum>
117

> <i_i_glide_lignum>
2672

> <i_i_glide_posenum>
349

> <i_i_glide_rotatable_bonds>
9

> <i_m_Source_File_Index>
4497

> <b_m_subgroup_collapsed>
0

> <r_i_docking_score>
-5.48231

> <r_i_glide_ecoul>
-5.99007

> <r_i_glide_eff_state_penalty>
0

> <r_i_glide_einternal>
14.3319

> <r_i_glide_emodel>
-38.4498

> <r_i_glide_energy>
-35.0759

> <r_i_glide_erotb>
0.825337

> <r_i_glide_esite>
-0.279092

> <r_i_glide_evdw>
-29.0858

> <r_i_glide_gscore>
-5.48231

> <r_i_glide_hbond>
-0.320566

> <r_i_glide_ligand_efficiency>
-0.189045

> <r_i_glide_ligand_efficiency_ln>
-1.25531

> <r_i_glide_ligand_efficiency_sa>
-0.580807

> <r_i_glide_lipo>
-2.0195

> <r_i_glide_metal>
0

> <r_i_glide_rewards>
-1.33569

> <s_i_glide_gridfile>
wee1_glide-grid

> <s_m_Source_File>
wee1_decoys_glide_SP.sdf

> <s_m_Source_Path>
/Users/zhangxujun/Desktop

> <s_m_entry_id>
4772

> <s_m_entry_name>
wee1_decoys_glide_SP.4497

> <s_m_subgroup_title>
wee1_decoys_glide_SP

> <s_m_subgroupid>
wee1_decoys_glide_SP


$$$$
