ZINC12847025_2838
                    3D
 Schrodinger Suite 2024-2.
 55 60  0  0  1  0            999 V2000
    4.5529   53.7349   15.7766 C   0  0  0  0  0  0
    3.6119   53.6357   14.7422 C   0  0  0  0  0  0
    2.3638   54.2110   14.9488 C   0  0  0  0  0  0
    2.0465   54.8410   16.1165 C   0  0  0  0  0  0
    2.9571   54.9473   17.1612 C   0  0  0  0  0  0
    4.2342   54.3821   16.9878 C   0  0  0  0  0  0
    5.2704   54.4764   18.1039 C   0  0  1  0  0  0
    6.0867   53.8179   17.7974 H   0  0  0  0  0  0
    5.8103   55.9268   18.2566 C   0  0  0  0  0  0
    6.8363   56.1018   19.4055 C   0  0  1  0  0  0
    6.8940   57.1609   19.6611 H   0  0  0  0  0  0
    6.2864   55.4024   20.5727 N   0  0  0  0  0  0
    5.3793   54.3624   20.5524 C   0  0  0  0  0  0
    5.2023   54.0102   21.8722 C   0  0  0  0  0  0
    6.0251   54.8719   22.6304 C   0  0  0  0  0  0
    6.7145   55.6554   21.8234 N   0  0  0  0  0  0
    6.1314   54.8942   24.0780 C   0  0  0  0  0  0
    7.1043   55.3799   24.6544 O   0  0  0  0  0  0
    5.0486   54.3843   24.7030 N   0  0  0  0  0  0
    4.8646   54.1231   26.0684 C   0  0  0  0  0  0
    5.9168   53.9973   26.9900 C   0  0  0  0  0  0
    5.6561   53.6433   28.3105 C   0  0  0  0  0  0
    4.3470   53.3847   28.7173 C   0  0  0  0  0  0
    3.2920   53.5356   27.8136 C   0  0  0  0  0  0
    3.5488   53.9137   26.4947 C   0  0  0  0  0  0
    1.9645   53.3020   28.4945 C   0  0  0  0  0  0
    2.3317   52.7635   29.8810 C   0  0  0  0  0  0
    3.8355   52.9820   30.0791 C   0  0  0  0  0  0
    4.7846   53.9375   19.3813 N   0  0  0  0  0  0
    8.2676   55.6608   19.0249 C   0  0  0  0  0  0
    8.7500   56.4230   18.0447 F   0  0  0  0  0  0
    9.1030   55.7621   20.0546 F   0  0  0  0  0  0
    8.3151   54.4008   18.5949 F   0  0  0  0  0  0
    0.7646   55.2854   16.0652 O   0  0  0  0  0  0
    0.3292   55.0415   14.7520 C   0  0  0  0  0  0
    1.2895   54.2318   14.1202 O   0  0  0  0  0  0
    5.5318   53.2947   15.6416 H   0  0  0  0  0  0
    3.8559   53.1307   13.8220 H   0  0  0  0  0  0
    2.6936   55.4480   18.0816 H   0  0  0  0  0  0
    4.9806   56.6237   18.4026 H   0  0  0  0  0  0
    6.2542   56.2455   17.3129 H   0  0  0  0  0  0
    4.5366   53.2413   22.2329 H   0  0  0  0  0  0
    4.2759   54.1190   24.1123 H   0  0  0  0  0  0
    6.9452   54.1348   26.6960 H   0  0  0  0  0  0
    6.4853   53.5503   28.9922 H   0  0  0  0  0  0
    2.7289   54.0243   25.7986 H   0  0  0  0  0  0
    1.3310   52.5918   27.9613 H   0  0  0  0  0  0
    1.4137   54.2379   28.5961 H   0  0  0  0  0  0
    1.7459   53.2379   30.6701 H   0  0  0  0  0  0
    2.1060   51.6967   29.9320 H   0  0  0  0  0  0
    4.0114   53.7728   30.8082 H   0  0  0  0  0  0
    4.3067   52.0708   30.4514 H   0  0  0  0  0  0
    4.5070   52.9689   19.2858 H   0  0  0  0  0  0
    0.2502   55.9905   14.2131 H   0  0  0  0  0  0
   -0.6345   54.5259   14.7675 H   0  0  0  0  0  0
  1  6  2  0  0  0
  1  2  1  0  0  0
  1 37  1  0  0  0
  2  3  2  0  0  0
  2 38  1  0  0  0
  3 36  1  0  0  0
  3  4  1  0  0  0
  4  5  2  0  0  0
  4 34  1  0  0  0
  5  6  1  0  0  0
  5 39  1  0  0  0
  6  7  1  0  0  0
  7  8  1  0  0  0
  7 29  1  0  0  0
  7  9  1  0  0  0
  9 10  1  0  0  0
  9 40  1  0  0  0
  9 41  1  0  0  0
 10 11  1  0  0  0
 10 12  1  0  0  0
 10 30  1  0  0  0
 12 16  1  0  0  0
 12 13  1  0  0  0
 13 14  2  0  0  0
 13 29  1  0  0  0
 14 15  1  0  0  0
 14 42  1  0  0  0
 15 16  2  0  0  0
 15 17  1  0  0  0
 17 18  2  0  0  0
 17 19  1  0  0  0
 19 20  1  0  0  0
 19 43  1  0  0  0
 20 25  2  0  0  0
 20 21  1  0  0  0
 21 22  2  0  0  0
 21 44  1  0  0  0
 22 23  1  0  0  0
 22 45  1  0  0  0
 23 28  1  0  0  0
 23 24  2  0  0  0
 24 25  1  0  0  0
 24 26  1  0  0  0
 25 46  1  0  0  0
 26 27  1  0  0  0
 26 47  1  0  0  0
 26 48  1  0  0  0
 27 28  1  0  0  0
 27 49  1  0  0  0
 27 50  1  0  0  0
 28 51  1  0  0  0
 28 52  1  0  0  0
 29 53  1  0  0  0
 30 31  1  0  0  0
 30 32  1  0  0  0
 30 33  1  0  0  0
 34 35  1  0  0  0
 35 36  1  0  0  0
 35 54  1  0  0  0
 35 55  1  0  0  0
M  END
> <i_i_glide_confnum>
11

> <i_i_glide_lignum>
2839

> <i_i_glide_posenum>
334

> <i_i_glide_rotatable_bonds>
5

> <i_m_Source_File_Index>
1811

> <b_m_subgroup_collapsed>
0

> <r_i_docking_score>
-5.76659

> <r_i_glide_ecoul>
0.19453

> <r_i_glide_eff_state_penalty>
0

> <r_i_glide_einternal>
2.64841

> <r_i_glide_emodel>
-56.5525

> <r_i_glide_energy>
-42.8117

> <r_i_glide_erotb>
0.365179

> <r_i_glide_esite>
-0.0222792

> <r_i_glide_evdw>
-43.0062

> <r_i_glide_gscore>
-5.76659

> <r_i_glide_hbond>
-0.202203

> <r_i_glide_ligand_efficiency>
-0.169606

> <r_i_glide_ligand_efficiency_ln>
-1.274

> <r_i_glide_ligand_efficiency_sa>
-0.549456

> <r_i_glide_lipo>
-2.70137

> <r_i_glide_metal>
0

> <r_i_glide_rewards>
-1.08479

> <s_i_glide_gridfile>
wee1_glide-grid

> <s_m_Source_File>
wee1_decoys_glide_SP.sdf

> <s_m_Source_Path>
/Users/zhangxujun/Desktop

> <s_m_entry_id>
2086

> <s_m_entry_name>
wee1_decoys_glide_SP.1811

> <s_m_subgroup_title>
wee1_decoys_glide_SP

> <s_m_subgroupid>
wee1_decoys_glide_SP


$$$$
