ZINC20243990_6067
                    3D
 Schrodinger Suite 2024-2.
 63 67  0  0  1  0            999 V2000
    0.3626   52.9407   30.0767 C   0  0  0  0  0  0
    0.7044   54.2794   30.2614 C   0  0  0  0  0  0
    1.8485   54.7895   29.6520 C   0  0  0  0  0  0
    2.6478   53.9617   28.8619 C   0  0  0  0  0  0
    2.3011   52.6174   28.6837 C   0  0  0  0  0  0
    1.1510   52.1102   29.2843 C   0  0  0  0  0  0
    3.8033   54.4909   28.3312 O   0  0  0  0  0  0
    4.1548   54.3229   27.0060 C   0  0  0  0  0  0
    5.5034   54.4693   26.6894 C   0  0  0  0  0  0
    5.9287   54.4000   25.3653 C   0  0  0  0  0  0
    5.0097   54.1857   24.3309 C   0  0  0  0  0  0
    3.6529   54.0363   24.6534 C   0  0  0  0  0  0
    3.2283   54.0964   25.9798 C   0  0  0  0  0  0
    5.4963   54.1719   22.9443 C   0  0  0  0  0  0
    4.7637   53.9512   21.9133 N   0  0  0  0  0  0
    5.3043   54.0243   20.6402 N   0  0  0  0  0  0
    6.3039   54.8203   20.1598 C   0  0  0  0  0  0
    6.7053   55.8353   20.7423 O   0  0  0  0  0  0
    6.9796   54.3613   18.8792 C   0  0  0  0  0  0
    6.4486   53.3399   18.0673 C   0  0  0  0  0  0
    7.1136   52.9370   16.9084 C   0  0  0  0  0  0
    8.3245   53.5336   16.5500 C   0  0  0  0  0  0
    8.8720   54.5251   17.3647 C   0  0  0  0  0  0
    8.2055   54.9359   18.5136 C   0  0  0  0  0  0
    8.9945   53.2114   15.2161 C   0  0  0  0  0  0
    9.9005   51.9564   15.1199 N   0  3  2  0  0  0
    9.1032   50.6491   14.9696 C   0  0  0  0  0  0
   10.0798   49.5944   14.4164 C   0  0  0  0  0  0
   11.4201   49.5647   15.1534 C   0  0  0  0  0  0
   12.3083   48.5066   14.9257 C   0  0  0  0  0  0
   13.5348   48.4395   15.5790 C   0  0  0  0  0  0
   13.8939   49.4418   16.4721 C   0  0  0  0  0  0
   13.0321   50.5135   16.6933 C   0  0  0  0  0  0
   11.7970   50.6037   16.0396 C   0  0  0  0  0  0
   10.8934   51.8161   16.2956 C   0  0  0  0  0  0
   -0.5186   52.5385   30.5581 H   0  0  0  0  0  0
    0.0882   54.9161   30.8770 H   0  0  0  0  0  0
    2.1226   55.8254   29.7959 H   0  0  0  0  0  0
    2.9266   51.9731   28.0822 H   0  0  0  0  0  0
    0.8723   51.0768   29.1442 H   0  0  0  0  0  0
    6.2190   54.6556   27.4772 H   0  0  0  0  0  0
    6.9811   54.5261   25.1511 H   0  0  0  0  0  0
    2.9175   53.8834   23.8754 H   0  0  0  0  0  0
    2.1766   54.0000   26.2039 H   0  0  0  0  0  0
    6.5639   54.3631   22.8536 H   0  0  0  0  0  0
    4.7484   53.5366   19.9526 H   0  0  0  0  0  0
    5.5167   52.8455   18.3060 H   0  0  0  0  0  0
    6.6709   52.1708   16.2877 H   0  0  0  0  0  0
    9.8038   55.0034   17.1002 H   0  0  0  0  0  0
    8.6588   55.7093   19.1190 H   0  0  0  0  0  0
    9.6681   54.0205   14.9278 H   0  0  0  0  0  0
    8.2537   53.1071   14.4214 H   0  0  0  0  0  0
    8.7039   50.3952   15.9525 H   0  0  0  0  0  0
    8.2849   50.8132   14.2663 H   0  0  0  0  0  0
   10.2743   49.7962   13.3605 H   0  0  0  0  0  0
    9.6115   48.6087   14.4424 H   0  0  0  0  0  0
   12.0499   47.7272   14.2228 H   0  0  0  0  0  0
   14.2041   47.6140   15.3860 H   0  0  0  0  0  0
   14.8432   49.3939   16.9853 H   0  0  0  0  0  0
   13.3305   51.2879   17.3843 H   0  0  0  0  0  0
   10.3149   51.7053   17.2151 H   0  0  0  0  0  0
   11.4493   52.7538   16.3354 H   0  0  0  0  0  0
   10.4217   52.0628   14.2591 H   0  0  0  0  0  0
  1  6  2  0  0  0
  1  2  1  0  0  0
  1 36  1  0  0  0
  2  3  2  0  0  0
  2 37  1  0  0  0
  3  4  1  0  0  0
  3 38  1  0  0  0
  4  5  2  0  0  0
  4  7  1  0  0  0
  5  6  1  0  0  0
  5 39  1  0  0  0
  6 40  1  0  0  0
  7  8  1  0  0  0
  8 13  2  0  0  0
  8  9  1  0  0  0
  9 10  2  0  0  0
  9 41  1  0  0  0
 10 11  1  0  0  0
 10 42  1  0  0  0
 11 12  2  0  0  0
 11 14  1  0  0  0
 12 13  1  0  0  0
 12 43  1  0  0  0
 13 44  1  0  0  0
 14 15  2  0  0  0
 14 45  1  0  0  0
 15 16  1  0  0  0
 16 17  1  0  0  0
 16 46  1  0  0  0
 17 18  2  0  0  0
 17 19  1  0  0  0
 19 24  2  0  0  0
 19 20  1  0  0  0
 20 21  2  0  0  0
 20 47  1  0  0  0
 21 22  1  0  0  0
 21 48  1  0  0  0
 22 23  2  0  0  0
 22 25  1  0  0  0
 23 24  1  0  0  0
 23 49  1  0  0  0
 24 50  1  0  0  0
 25 26  1  0  0  0
 25 51  1  0  0  0
 25 52  1  0  0  0
 26 35  1  0  0  0
 26 27  1  0  0  0
 26 63  1  0  0  0
 27 28  1  0  0  0
 27 53  1  0  0  0
 27 54  1  0  0  0
 28 29  1  0  0  0
 28 55  1  0  0  0
 28 56  1  0  0  0
 29 34  2  0  0  0
 29 30  1  0  0  0
 30 31  2  0  0  0
 30 57  1  0  0  0
 31 32  1  0  0  0
 31 58  1  0  0  0
 32 33  2  0  0  0
 32 59  1  0  0  0
 33 34  1  0  0  0
 33 60  1  0  0  0
 34 35  1  0  0  0
 35 61  1  0  0  0
 35 62  1  0  0  0
M  CHG  1  26   1
M  END
> <i_i_glide_confnum>
16

> <i_i_glide_lignum>
6068

> <i_i_glide_posenum>
208

> <i_i_glide_rotatable_bonds>
8

> <i_m_Source_File_Index>
4531

> <b_m_subgroup_collapsed>
0

> <r_i_docking_score>
-6.30884

> <r_i_glide_ecoul>
-5.11657

> <r_i_glide_eff_state_penalty>
0

> <r_i_glide_einternal>
6.70113

> <r_i_glide_emodel>
-70.9666

> <r_i_glide_energy>
-52.6507

> <r_i_glide_erotb>
0.753209

> <r_i_glide_esite>
0

> <r_i_glide_evdw>
-47.5342

> <r_i_glide_gscore>
-6.30884

> <r_i_glide_hbond>
0

> <r_i_glide_ligand_efficiency>
-0.180252

> <r_i_glide_ligand_efficiency_ln>
-1.38493

> <r_i_glide_ligand_efficiency_sa>
-0.589618

> <r_i_glide_lipo>
-3.09714

> <r_i_glide_metal>
0

> <r_i_glide_rewards>
-0.820712

> <s_i_glide_gridfile>
wee1_glide-grid

> <s_m_Source_File>
wee1_decoys_glide_SP.sdf

> <s_m_Source_Path>
/Users/zhangxujun/Desktop

> <s_m_entry_id>
4806

> <s_m_entry_name>
wee1_decoys_glide_SP.4531

> <s_m_subgroup_title>
wee1_decoys_glide_SP

> <s_m_subgroupid>
wee1_decoys_glide_SP


$$$$
