ZINC28109017_268
                    3D
 Schrodinger Suite 2024-2.
 55 58  0  0  1  0            999 V2000
    4.7976   54.1436   17.2442 C   0  0  0  0  0  0
    4.1111   52.9943   17.9923 C   0  0  2  0  0  0
    4.6920   52.0974   17.8158 H   0  0  0  0  0  0
    2.7159   52.7455   17.3796 C   0  0  0  0  0  0
    1.7773   53.4816   17.6844 O   0  0  0  0  0  0
    2.6176   51.6967   16.5313 N   0  0  0  0  0  0
    1.5035   51.2837   15.7787 C   0  0  0  0  0  0
    0.4412   52.1414   15.4065 C   0  0  0  0  0  0
   -0.6301   51.6665   14.6376 C   0  0  0  0  0  0
   -0.6041   50.3323   14.2496 C   0  0  0  0  0  0
    0.4225   49.5033   14.5931 C   0  0  0  0  0  0
    1.4990   49.9447   15.3537 C   0  0  0  0  0  0
    0.1955   48.2654   14.0827 O   0  0  0  0  0  0
   -1.0268   48.3332   13.3939 C   0  0  0  0  0  0
   -1.5129   49.6464   13.5099 O   0  0  0  0  0  0
   -0.8395   48.0313   12.1089 F   0  0  0  0  0  0
   -1.8972   47.4787   13.9321 F   0  0  0  0  0  0
    3.9566   53.0987   19.5474 N   0  3  1  0  0  0
    4.8618   52.0691   20.2745 C   0  0  0  0  0  0
    4.7354   52.1656   21.8087 C   0  0  0  0  0  0
    4.8315   53.5925   22.3771 C   0  0  1  0  0  0
    3.8717   54.4969   21.6148 C   0  0  0  0  0  0
    4.1883   54.5178   20.1077 C   0  0  0  0  0  0
    4.6640   53.6967   23.8276 N   0  0  0  0  0  0
    5.3408   54.4927   24.6784 C   0  0  0  0  0  0
    6.2455   55.2540   24.3317 O   0  0  0  0  0  0
    4.9414   54.3609   26.1282 C   0  0  0  0  0  0
    5.9078   54.5039   27.1323 C   0  0  0  0  0  0
    5.5525   54.3777   28.4726 C   0  0  0  0  0  0
    4.2322   54.1062   28.8177 C   0  0  0  0  0  0
    3.2585   53.9678   27.8328 C   0  0  0  0  0  0
    3.6105   54.0964   26.4919 C   0  0  0  0  0  0
    4.8952   53.9016   16.1842 H   0  0  0  0  0  0
    4.2327   55.0732   17.3335 H   0  0  0  0  0  0
    5.8014   54.2977   17.6412 H   0  0  0  0  0  0
    3.3986   51.0467   16.5074 H   0  0  0  0  0  0
    0.4370   53.1820   15.6930 H   0  0  0  0  0  0
   -1.4397   52.3228   14.3558 H   0  0  0  0  0  0
    2.3042   49.2725   15.6163 H   0  0  0  0  0  0
    4.4765   51.0912   19.9923 H   0  0  0  0  0  0
    5.8842   52.2055   19.9105 H   0  0  0  0  0  0
    3.7717   51.7327   22.0818 H   0  0  0  0  0  0
    5.5046   51.5380   22.2572 H   0  0  0  0  0  0
    5.8484   53.9372   22.1644 H   0  0  0  0  0  0
    3.9042   55.4718   22.0812 H   0  0  0  0  0  0
    2.8441   54.1641   21.7713 H   0  0  0  0  0  0
    5.2179   54.8107   19.8957 H   0  0  0  0  0  0
    3.5045   55.1693   19.5670 H   0  0  0  0  0  0
    4.1511   52.9460   24.2646 H   0  0  0  0  0  0
    6.9388   54.7118   26.8840 H   0  0  0  0  0  0
    6.3028   54.4966   29.2413 H   0  0  0  0  0  0
    3.9626   54.0066   29.8579 H   0  0  0  0  0  0
    2.2336   53.7627   28.1064 H   0  0  0  0  0  0
    2.8370   53.9929   25.7440 H   0  0  0  0  0  0
    2.9907   52.8742   19.7546 H   0  0  0  0  0  0
  1  2  1  0  0  0
  1 33  1  0  0  0
  1 34  1  0  0  0
  1 35  1  0  0  0
  2  3  1  0  0  0
  2  4  1  0  0  0
  2 18  1  0  0  0
  4  5  2  0  0  0
  4  6  1  0  0  0
  6  7  1  0  0  0
  6 36  1  0  0  0
  7 12  2  0  0  0
  7  8  1  0  0  0
  8  9  2  0  0  0
  8 37  1  0  0  0
  9 10  1  0  0  0
  9 38  1  0  0  0
 10 15  1  0  0  0
 10 11  2  0  0  0
 11 12  1  0  0  0
 11 13  1  0  0  0
 12 39  1  0  0  0
 13 14  1  0  0  0
 14 15  1  0  0  0
 14 16  1  0  0  0
 14 17  1  0  0  0
 18 23  1  0  0  0
 18 19  1  0  0  0
 18 55  1  0  0  0
 19 20  1  0  0  0
 19 40  1  0  0  0
 19 41  1  0  0  0
 20 21  1  0  0  0
 20 42  1  0  0  0
 20 43  1  0  0  0
 21 22  1  0  0  0
 21 24  1  0  0  0
 21 44  1  0  0  0
 22 23  1  0  0  0
 22 45  1  0  0  0
 22 46  1  0  0  0
 23 47  1  0  0  0
 23 48  1  0  0  0
 24 25  1  0  0  0
 24 49  1  0  0  0
 25 26  2  0  0  0
 25 27  1  0  0  0
 27 32  2  0  0  0
 27 28  1  0  0  0
 28 29  2  0  0  0
 28 50  1  0  0  0
 29 30  1  0  0  0
 29 51  1  0  0  0
 30 31  2  0  0  0
 30 52  1  0  0  0
 31 32  1  0  0  0
 31 53  1  0  0  0
 32 54  1  0  0  0
M  CHG  1  18   1
M  END
> <i_i_glide_confnum>
23

> <i_i_glide_lignum>
269

> <i_i_glide_posenum>
260

> <i_i_glide_rotatable_bonds>
7

> <i_m_Source_File_Index>
4643

> <b_m_subgroup_collapsed>
0

> <r_i_docking_score>
-3.99154

> <r_i_glide_ecoul>
-3.46765

> <r_i_glide_eff_state_penalty>
0

> <r_i_glide_einternal>
7.64937

> <r_i_glide_emodel>
-33.2518

> <r_i_glide_energy>
-26.9011

> <r_i_glide_erotb>
0.63844

> <r_i_glide_esite>
-0.144297

> <r_i_glide_evdw>
-23.4335

> <r_i_glide_gscore>
-3.99154

> <r_i_glide_hbond>
-0.16

> <r_i_glide_ligand_efficiency>
-0.128759

> <r_i_glide_ligand_efficiency_ln>
-0.900215

> <r_i_glide_ligand_efficiency_sa>
-0.404482

> <r_i_glide_lipo>
-1.74137

> <r_i_glide_metal>
0

> <r_i_glide_rewards>
-0.892495

> <s_i_glide_gridfile>
wee1_glide-grid

> <s_m_Source_File>
wee1_decoys_glide_SP.sdf

> <s_m_Source_Path>
/Users/zhangxujun/Desktop

> <s_m_entry_id>
4918

> <s_m_entry_name>
wee1_decoys_glide_SP.4643

> <s_m_subgroup_title>
wee1_decoys_glide_SP

> <s_m_subgroupid>
wee1_decoys_glide_SP


$$$$
