ZINC01326712_502
                    3D
 Schrodinger Suite 2024-2.
 55 59  0  0  1  0            999 V2000
    1.3092   42.0857   16.8800 C   0  0  0  0  0  0
    0.6308   42.8104   18.0371 C   0  0  0  0  0  0
    0.3047   42.1609   19.0341 O   0  0  0  0  0  0
    0.4616   44.1396   17.8769 N   0  0  0  0  0  0
   -0.0959   45.0565   18.7836 C   0  0  0  0  0  0
    0.4013   46.3610   18.7476 C   0  0  0  0  0  0
   -0.0556   47.3093   19.6594 C   0  0  0  0  0  0
   -1.0137   46.9600   20.6128 C   0  0  0  0  0  0
   -1.5820   45.6772   20.5884 C   0  0  0  0  0  0
   -1.1190   44.7258   19.6819 C   0  0  0  0  0  0
   -1.3060   47.9233   21.5983 N   0  0  0  0  0  0
   -1.5731   47.6820   22.9029 C   0  0  0  0  0  0
   -1.8565   46.5779   23.3778 O   0  0  0  0  0  0
   -1.4186   48.8267   23.7666 C   0  0  0  0  0  0
   -0.9519   48.7505   25.0857 C   0  0  0  0  0  0
   -1.0718   50.0138   25.6127 C   0  0  0  0  0  0
   -1.6445   50.7802   24.6237 N   0  0  0  0  0  0
   -1.7672   50.0691   23.4819 N   0  0  0  0  0  0
   -1.9772   52.2111   24.7398 C   0  0  2  0  0  0
   -1.1185   52.7803   24.3870 H   0  0  0  0  0  0
   -2.1669   52.4973   26.2552 C   0  0  0  0  0  0
   -1.0589   51.9150   27.1670 C   0  0  1  0  0  0
   -1.4368   51.9739   28.1891 H   0  0  0  0  0  0
   -0.9054   50.4966   26.8884 N   0  0  0  0  0  0
    0.2818   52.6512   27.1837 C   0  0  0  0  0  0
    1.1421   52.6584   26.0639 C   0  0  0  0  0  0
    2.3894   53.2963   26.1149 C   0  0  0  0  0  0
    2.7667   53.8742   27.3201 C   0  0  0  0  0  0
    1.9458   53.8687   28.4107 C   0  0  0  0  0  0
    0.6862   53.2842   28.3743 C   0  0  0  0  0  0
    2.5635   54.4954   29.4460 O   0  0  0  0  0  0
    3.8867   54.6898   29.0240 C   0  0  0  0  0  0
    3.9260   54.5065   27.6339 O   0  0  0  0  0  0
   -3.1831   52.6367   23.8788 C   0  0  0  0  0  0
   -4.2700   51.9100   24.1406 F   0  0  0  0  0  0
   -3.5135   53.9115   24.0817 F   0  0  0  0  0  0
   -2.8941   52.4964   22.5870 F   0  0  0  0  0  0
    2.2040   41.5730   17.2334 H   0  0  0  0  0  0
    1.6045   42.7715   16.0852 H   0  0  0  0  0  0
    0.6340   41.3427   16.4558 H   0  0  0  0  0  0
    0.8851   44.5534   17.0604 H   0  0  0  0  0  0
    1.1742   46.6398   18.0449 H   0  0  0  0  0  0
    0.3826   48.2974   19.6512 H   0  0  0  0  0  0
   -2.3550   45.3967   21.2870 H   0  0  0  0  0  0
   -1.5512   43.7371   19.6928 H   0  0  0  0  0  0
   -1.0687   48.8758   21.3661 H   0  0  0  0  0  0
   -0.6159   47.8706   25.6183 H   0  0  0  0  0  0
   -2.2742   53.5657   26.4379 H   0  0  0  0  0  0
   -3.1307   52.0918   26.5711 H   0  0  0  0  0  0
   -1.2936   49.8932   27.6182 H   0  0  0  0  0  0
    0.8629   52.1465   25.1561 H   0  0  0  0  0  0
    3.0466   53.2943   25.2581 H   0  0  0  0  0  0
    0.0558   53.2809   29.2512 H   0  0  0  0  0  0
    4.5377   53.9544   29.5013 H   0  0  0  0  0  0
    4.2153   55.6953   29.2819 H   0  0  0  0  0  0
  1  2  1  0  0  0
  1 38  1  0  0  0
  1 39  1  0  0  0
  1 40  1  0  0  0
  2  3  2  0  0  0
  2  4  1  0  0  0
  4  5  1  0  0  0
  4 41  1  0  0  0
  5 10  2  0  0  0
  5  6  1  0  0  0
  6  7  2  0  0  0
  6 42  1  0  0  0
  7  8  1  0  0  0
  7 43  1  0  0  0
  8  9  2  0  0  0
  8 11  1  0  0  0
  9 10  1  0  0  0
  9 44  1  0  0  0
 10 45  1  0  0  0
 11 12  1  0  0  0
 11 46  1  0  0  0
 12 13  2  0  0  0
 12 14  1  0  0  0
 14 18  2  0  0  0
 14 15  1  0  0  0
 15 16  2  0  0  0
 15 47  1  0  0  0
 16 24  1  0  0  0
 16 17  1  0  0  0
 17 18  1  0  0  0
 17 19  1  0  0  0
 19 20  1  0  0  0
 19 21  1  0  0  0
 19 34  1  0  0  0
 21 22  1  0  0  0
 21 48  1  0  0  0
 21 49  1  0  0  0
 22 23  1  0  0  0
 22 24  1  0  0  0
 22 25  1  0  0  0
 24 50  1  0  0  0
 25 30  2  0  0  0
 25 26  1  0  0  0
 26 27  2  0  0  0
 26 51  1  0  0  0
 27 28  1  0  0  0
 27 52  1  0  0  0
 28 33  1  0  0  0
 28 29  2  0  0  0
 29 30  1  0  0  0
 29 31  1  0  0  0
 30 53  1  0  0  0
 31 32  1  0  0  0
 32 33  1  0  0  0
 32 54  1  0  0  0
 32 55  1  0  0  0
 34 35  1  0  0  0
 34 36  1  0  0  0
 34 37  1  0  0  0
M  END
> <i_i_glide_confnum>
293

> <i_i_glide_lignum>
503

> <i_i_glide_posenum>
394

> <i_i_glide_rotatable_bonds>
7

> <i_m_Source_File_Index>
5609

> <b_m_subgroup_collapsed>
0

> <r_i_docking_score>
-4.66272

> <r_i_glide_ecoul>
-8.52674

> <r_i_glide_eff_state_penalty>
0

> <r_i_glide_einternal>
8.47376

> <r_i_glide_emodel>
-47.2735

> <r_i_glide_energy>
-38.6211

> <r_i_glide_erotb>
0.427825

> <r_i_glide_esite>
-0.155882

> <r_i_glide_evdw>
-30.0943

> <r_i_glide_gscore>
-4.66272

> <r_i_glide_hbond>
-0.341835

> <r_i_glide_ligand_efficiency>
-0.133221

> <r_i_glide_ligand_efficiency_ln>
-1.02357

> <r_i_glide_ligand_efficiency_sa>
-0.435773

> <r_i_glide_lipo>
-0.990549

> <r_i_glide_metal>
0

> <r_i_glide_rewards>
-0.818553

> <s_i_glide_gridfile>
wee1_glide-grid

> <s_m_Source_File>
wee1_decoys_glide_SP.sdf

> <s_m_Source_Path>
/Users/zhangxujun/Desktop

> <s_m_entry_id>
5884

> <s_m_entry_name>
wee1_decoys_glide_SP.5609

> <s_m_subgroup_title>
wee1_decoys_glide_SP

> <s_m_subgroupid>
wee1_decoys_glide_SP


$$$$
