ZINC13407643_5820
                    3D
 Schrodinger Suite 2024-2.
 47 51  0  0  1  0            999 V2000
    0.9282   53.2746   24.5220 C   0  0  0  0  0  0
    1.9126   53.4101   25.6759 C   0  0  0  0  0  0
    3.2751   53.8071   25.5237 C   0  0  0  0  0  0
    4.1370   54.1002   24.3287 C   0  0  0  0  0  0
    5.4165   54.4967   24.5823 C   0  0  0  0  0  0
    6.0071   54.7375   25.8855 C   0  0  0  0  0  0
    7.0942   55.2804   26.0583 O   0  0  0  0  0  0
    5.2220   54.3701   26.9182 N   0  0  0  0  0  0
    5.6276   54.5240   27.8291 H   0  0  0  0  0  0
    3.9133   53.9494   26.7644 C   0  0  0  0  0  0
    2.9225   53.5916   28.1100 S   0  0  0  0  0  0
    1.5764   53.2522   27.0533 C   0  0  0  0  0  0
    0.3086   52.8739   27.7177 C   0  0  0  0  0  0
   -0.6352   52.4953   26.9919 O   0  0  0  0  0  0
    0.2425   52.9783   28.9661 O   0  5  0  0  0  0
    3.6580   53.9461   22.8735 C   0  0  0  0  0  0
    4.7946   53.1538   21.6821 S   0  0  0  0  0  0
    5.5085   54.5680   20.8888 C   0  0  0  0  0  0
    6.4286   55.2975   21.4644 N   0  0  0  0  0  0
    6.8146   56.2873   20.5807 N   0  0  0  0  0  0
    6.1593   56.0908   19.4687 C   0  0  0  0  0  0
    5.2642   55.0370   19.6039 N   0  0  0  0  0  0
    4.3461   54.5557   18.6443 C   0  0  0  0  0  0
    4.2949   53.1919   18.3507 C   0  0  0  0  0  0
    3.4040   52.7198   17.3920 C   0  0  0  0  0  0
    2.5651   53.6097   16.7275 C   0  0  0  0  0  0
    2.6130   54.9721   17.0109 C   0  0  0  0  0  0
    3.5044   55.4473   17.9699 C   0  0  0  0  0  0
    1.6971   53.1506   15.7986 F   0  0  0  0  0  0
    6.4012   56.8918   18.2697 C   0  0  0  0  0  0
    6.2133   56.6875   16.9066 C   0  0  0  0  0  0
    6.6455   57.8390   16.2495 C   0  0  0  0  0  0
    7.0973   58.6945   17.2353 C   0  0  0  0  0  0
    6.9546   58.1217   18.4565 O   0  0  0  0  0  0
    1.0879   52.3513   23.9643 H   0  0  0  0  0  0
    1.0316   54.1015   23.8191 H   0  0  0  0  0  0
   -0.1206   53.3033   24.8079 H   0  0  0  0  0  0
    6.0854   54.6856   23.7660 H   0  0  0  0  0  0
    2.8074   53.2769   22.8382 H   0  0  0  0  0  0
    3.3144   54.9069   22.4918 H   0  0  0  0  0  0
    4.9537   52.4968   18.8465 H   0  0  0  0  0  0
    3.3755   51.6620   17.1644 H   0  0  0  0  0  0
    1.9579   55.6558   16.4923 H   0  0  0  0  0  0
    3.5359   56.5057   18.1835 H   0  0  0  0  0  0
    5.8066   55.8015   16.4405 H   0  0  0  0  0  0
    6.6300   58.0296   15.1867 H   0  0  0  0  0  0
    7.5013   59.6971   17.2232 H   0  0  0  0  0  0
  1  2  1  0  0  0
  1 35  1  0  0  0
  1 36  1  0  0  0
  1 37  1  0  0  0
  2 12  2  0  0  0
  2  3  1  0  0  0
  3 10  2  0  0  0
  3  4  1  0  0  0
  4  5  2  0  0  0
  4 16  1  0  0  0
  5  6  1  0  0  0
  5 38  1  0  0  0
  6  7  2  0  0  0
  6  8  1  0  0  0
  8  9  1  0  0  0
  8 10  1  0  0  0
 10 11  1  0  0  0
 11 12  1  0  0  0
 12 13  1  0  0  0
 13 14  2  0  0  0
 13 15  1  0  0  0
 16 17  1  0  0  0
 16 39  1  0  0  0
 16 40  1  0  0  0
 17 18  1  0  0  0
 18 22  1  0  0  0
 18 19  2  0  0  0
 19 20  1  0  0  0
 20 21  2  0  0  0
 21 22  1  0  0  0
 21 30  1  0  0  0
 22 23  1  0  0  0
 23 28  2  0  0  0
 23 24  1  0  0  0
 24 25  2  0  0  0
 24 41  1  0  0  0
 25 26  1  0  0  0
 25 42  1  0  0  0
 26 27  2  0  0  0
 26 29  1  0  0  0
 27 28  1  0  0  0
 27 43  1  0  0  0
 28 44  1  0  0  0
 30 34  1  0  0  0
 30 31  2  0  0  0
 31 32  1  0  0  0
 31 45  1  0  0  0
 32 33  2  0  0  0
 32 46  1  0  0  0
 33 34  1  0  0  0
 33 47  1  0  0  0
M  CHG  1  15  -1
M  END
> <i_i_glide_confnum>
14

> <i_i_glide_lignum>
5821

> <i_i_glide_posenum>
370

> <i_i_glide_rotatable_bonds>
6

> <i_m_Source_File_Index>
2561

> <b_m_subgroup_collapsed>
0

> <r_i_docking_score>
-6.87339

> <r_i_glide_ecoul>
-8.87937

> <r_i_glide_eff_state_penalty>
0

> <r_i_glide_einternal>
3.33737

> <r_i_glide_emodel>
-72.316

> <r_i_glide_energy>
-51.086

> <r_i_glide_erotb>
0.43751

> <r_i_glide_esite>
-0.00315555

> <r_i_glide_evdw>
-42.2067

> <r_i_glide_gscore>
-6.87339

> <r_i_glide_hbond>
-0.32

> <r_i_glide_ligand_efficiency>
-0.208285

> <r_i_glide_ligand_efficiency_ln>
-1.52861

> <r_i_glide_ligand_efficiency_sa>
-0.66808

> <r_i_glide_lipo>
-2.43279

> <r_i_glide_metal>
0

> <r_i_glide_rewards>
-1.11272

> <s_i_glide_gridfile>
wee1_glide-grid

> <s_m_Source_File>
wee1_decoys_glide_SP.sdf

> <s_m_Source_Path>
/Users/zhangxujun/Desktop

> <s_m_entry_id>
2836

> <s_m_entry_name>
wee1_decoys_glide_SP.2561

> <s_m_subgroup_title>
wee1_decoys_glide_SP

> <s_m_subgroupid>
wee1_decoys_glide_SP


$$$$
