ZINC14667354_3610
                    3D
 Schrodinger Suite 2024-2.
 44 45  0  0  1  0            999 V2000
    0.7101   53.7154   29.3374 C   0  0  0  0  0  0
    1.4612   54.9882   28.9043 C   0  0  0  0  0  0
    1.5043   56.0392   30.0320 C   0  0  0  0  0  0
    2.8702   54.6764   28.3643 C   0  0  0  0  0  0
    2.7739   53.9943   27.1104 O   0  0  0  0  0  0
    3.7850   54.1374   26.1735 C   0  0  0  0  0  0
    5.0782   54.5461   26.5524 C   0  0  0  0  0  0
    6.0753   54.7600   25.6069 C   0  0  0  0  0  0
    5.7995   54.5597   24.2628 C   0  0  0  0  0  0
    4.5503   54.0993   23.8731 C   0  0  0  0  0  0
    3.5260   53.8533   24.8088 C   0  0  0  0  0  0
    2.1938   53.2846   24.3354 C   0  0  0  0  0  0
    1.1920   53.2962   25.0524 O   0  0  0  0  0  0
    2.1990   52.7928   23.0704 N   0  0  0  0  0  0
    1.5106   51.7662   22.4718 C   0  0  0  0  0  0
    0.5360   50.6346   23.2213 S   0  0  0  0  0  0
    1.6947   51.6099   21.1242 N   0  0  0  0  0  0
    2.4048   52.4965   20.2910 N   0  0  0  0  0  0
    3.7534   52.5933   20.3371 C   0  0  0  0  0  0
    4.4815   51.9331   21.0840 O   0  0  0  0  0  0
    4.3039   53.5948   19.4572 C   0  0  0  0  0  0
    5.5255   54.2502   19.5940 C   0  0  0  0  0  0
    5.7973   55.1451   18.5541 C   0  0  0  0  0  0
    4.8055   55.1523   17.5855 C   0  0  0  0  0  0
    3.5341   54.0317   17.9482 S   0  0  0  0  0  0
    7.1044   54.9391   22.9359 Br  0  0  0  0  0  0
    1.2137   53.2119   30.1634 H   0  0  0  0  0  0
    0.6324   53.0034   28.5141 H   0  0  0  0  0  0
   -0.3055   53.9453   29.6615 H   0  0  0  0  0  0
    0.8957   55.4341   28.0837 H   0  0  0  0  0  0
    2.0897   55.6971   30.8812 H   0  0  0  0  0  0
    1.9405   56.9775   29.6870 H   0  0  0  0  0  0
    0.5069   56.2696   30.4063 H   0  0  0  0  0  0
    3.3909   55.6268   28.2500 H   0  0  0  0  0  0
    3.4425   54.0761   29.0734 H   0  0  0  0  0  0
    5.3281   54.7168   27.5881 H   0  0  0  0  0  0
    7.0529   55.0952   25.9152 H   0  0  0  0  0  0
    4.4072   53.9553   22.8136 H   0  0  0  0  0  0
    3.0402   53.0245   22.5665 H   0  0  0  0  0  0
    1.6398   50.6874   20.7153 H   0  0  0  0  0  0
    1.8186   53.2015   19.8647 H   0  0  0  0  0  0
    6.1927   54.0969   20.4263 H   0  0  0  0  0  0
    6.6887   55.7539   18.5047 H   0  0  0  0  0  0
    4.7697   55.7392   16.6793 H   0  0  0  0  0  0
  1  2  1  0  0  0
  1 27  1  0  0  0
  1 28  1  0  0  0
  1 29  1  0  0  0
  2  3  1  0  0  0
  2  4  1  0  0  0
  2 30  1  0  0  0
  3 31  1  0  0  0
  3 32  1  0  0  0
  3 33  1  0  0  0
  4  5  1  0  0  0
  4 34  1  0  0  0
  4 35  1  0  0  0
  5  6  1  0  0  0
  6 11  2  0  0  0
  6  7  1  0  0  0
  7  8  2  0  0  0
  7 36  1  0  0  0
  8  9  1  0  0  0
  8 37  1  0  0  0
  9 10  2  0  0  0
  9 26  1  0  0  0
 10 11  1  0  0  0
 10 38  1  0  0  0
 11 12  1  0  0  0
 12 13  2  0  0  0
 12 14  1  0  0  0
 14 15  1  0  0  0
 14 39  1  0  0  0
 15 16  2  0  0  0
 15 17  1  0  0  0
 17 18  1  0  0  0
 17 40  1  0  0  0
 18 19  1  0  0  0
 18 41  1  0  0  0
 19 20  2  0  0  0
 19 21  1  0  0  0
 21 25  1  0  0  0
 21 22  2  0  0  0
 22 23  1  0  0  0
 22 42  1  0  0  0
 23 24  2  0  0  0
 23 43  1  0  0  0
 24 25  1  0  0  0
 24 44  1  0  0  0
M  END
> <i_i_glide_confnum>
254

> <i_i_glide_lignum>
3611

> <i_i_glide_posenum>
279

> <i_i_glide_rotatable_bonds>
10

> <i_m_Source_File_Index>
3963

> <b_m_subgroup_collapsed>
0

> <r_i_docking_score>
-5.07025

> <r_i_glide_ecoul>
-1.6151

> <r_i_glide_eff_state_penalty>
0

> <r_i_glide_einternal>
8.51579

> <r_i_glide_emodel>
-55.0088

> <r_i_glide_energy>
-45.2002

> <r_i_glide_erotb>
0.771897

> <r_i_glide_esite>
-0.0354961

> <r_i_glide_evdw>
-43.5851

> <r_i_glide_gscore>
-5.07025

> <r_i_glide_hbond>
-0.215263

> <r_i_glide_ligand_efficiency>
-0.19501

> <r_i_glide_ligand_efficiency_ln>
-1.19073

> <r_i_glide_ligand_efficiency_sa>
-0.577716

> <r_i_glide_lipo>
-2.82319

> <r_i_glide_metal>
0

> <r_i_glide_rewards>
-0.34668

> <s_i_glide_gridfile>
wee1_glide-grid

> <s_m_Source_File>
wee1_decoys_glide_SP.sdf

> <s_m_Source_Path>
/Users/zhangxujun/Desktop

> <s_m_entry_id>
4238

> <s_m_entry_name>
wee1_decoys_glide_SP.3963

> <s_m_subgroup_title>
wee1_decoys_glide_SP

> <s_m_subgroupid>
wee1_decoys_glide_SP


$$$$
