ZINC35379142_3291
                    3D
 Schrodinger Suite 2024-2.
 62 65  0  0  1  0            999 V2000
    4.7103   54.1623   17.4045 C   0  0  0  0  0  0
    4.8204   54.1592   18.9176 C   0  0  0  0  0  0
    5.8283   54.8824   19.5594 C   0  0  0  0  0  0
    5.9248   54.8741   20.9531 C   0  0  0  0  0  0
    5.0042   54.1385   21.7065 C   0  0  0  0  0  0
    3.9992   53.4010   21.0748 C   0  0  0  0  0  0
    3.9053   53.4254   19.6753 C   0  0  0  0  0  0
    3.1030   52.6960   21.8944 N   0  0  0  0  0  0
    2.4396   51.5573   21.5998 C   0  0  0  0  0  0
    2.5937   50.9114   20.5623 O   0  0  0  0  0  0
    1.4521   51.0518   22.6689 C   0  0  2  0  0  0
    1.6909   51.5785   23.5894 H   0  0  0  0  0  0
    1.6347   49.5274   22.8890 C   0  0  0  0  0  0
    0.6065   49.0372   23.9390 C   0  0  0  0  0  0
   -0.8454   49.3979   23.5413 C   0  0  0  0  0  0
   -0.9644   50.8293   23.1699 N   0  0  0  0  0  0
    0.0146   51.3329   22.1723 C   0  0  0  0  0  0
   -1.8749   51.9407   24.2118 S   0  0  0  0  0  0
   -1.7075   53.2969   23.6817 O   0  0  0  0  0  0
   -3.2211   51.3845   24.3716 O   0  0  0  0  0  0
   -1.0101   51.9071   25.7993 C   0  0  0  0  0  0
    0.2616   52.4965   25.8214 C   0  0  0  0  0  0
    1.0196   52.4922   26.9868 C   0  0  0  0  0  0
    0.5235   51.9100   28.1480 C   0  0  0  0  0  0
   -0.7458   51.3437   28.1485 C   0  0  0  0  0  0
   -1.5189   51.3187   26.9810 C   0  0  0  0  0  0
   -2.8737   50.6321   27.0635 C   0  0  0  0  0  0
    1.3217   51.8860   29.2818 N   0  0  0  0  0  0
    2.4961   52.5204   29.4456 C   0  0  0  0  0  0
    3.1587   52.4269   30.4775 O   0  0  0  0  0  0
    2.8652   53.4273   28.2238 C   0  0  1  0  0  0
    3.9525   53.4247   28.1375 H   0  0  0  0  0  0
    2.3076   52.9874   26.9576 O   0  0  0  0  0  0
    2.3951   54.8691   28.5176 C   0  0  0  0  0  0
    7.0719   55.5851   21.6460 C   0  0  0  0  0  0
    3.6843   54.3704   17.1007 H   0  0  0  0  0  0
    4.9813   53.1837   17.0078 H   0  0  0  0  0  0
    5.3445   54.9204   16.9468 H   0  0  0  0  0  0
    6.5475   55.4364   18.9732 H   0  0  0  0  0  0
    5.0910   54.1232   22.7841 H   0  0  0  0  0  0
    3.1255   52.8808   19.1644 H   0  0  0  0  0  0
    2.9970   53.0620   22.8277 H   0  0  0  0  0  0
    1.4240   48.9563   21.9827 H   0  0  0  0  0  0
    2.6276   49.3012   23.2781 H   0  0  0  0  0  0
    0.7016   47.9611   24.0813 H   0  0  0  0  0  0
    0.8331   49.4760   24.9118 H   0  0  0  0  0  0
   -1.2046   48.7955   22.7070 H   0  0  0  0  0  0
   -1.5170   49.1979   24.3776 H   0  0  0  0  0  0
   -0.1514   52.4006   22.0347 H   0  0  0  0  0  0
   -0.2059   50.8061   21.2425 H   0  0  0  0  0  0
    0.6642   52.9658   24.9362 H   0  0  0  0  0  0
   -1.1272   50.8966   29.0556 H   0  0  0  0  0  0
   -3.0570   50.1951   28.0464 H   0  0  0  0  0  0
   -3.6767   51.3375   26.8521 H   0  0  0  0  0  0
   -2.9292   49.8165   26.3441 H   0  0  0  0  0  0
    1.0104   51.3621   30.0851 H   0  0  0  0  0  0
    2.8202   55.2606   29.4446 H   0  0  0  0  0  0
    2.7038   55.5382   27.7146 H   0  0  0  0  0  0
    1.3080   54.9369   28.5912 H   0  0  0  0  0  0
    7.5001   54.9579   22.4309 H   0  0  0  0  0  0
    7.8832   55.8269   20.9545 H   0  0  0  0  0  0
    6.7014   56.4966   22.1052 H   0  0  0  0  0  0
  1  2  1  0  0  0
  1 36  1  0  0  0
  1 37  1  0  0  0
  1 38  1  0  0  0
  2  7  2  0  0  0
  2  3  1  0  0  0
  3  4  2  0  0  0
  3 39  1  0  0  0
  4  5  1  0  0  0
  4 35  1  0  0  0
  5  6  2  0  0  0
  5 40  1  0  0  0
  6  7  1  0  0  0
  6  8  1  0  0  0
  7 41  1  0  0  0
  8  9  1  0  0  0
  8 42  1  0  0  0
  9 10  2  0  0  0
  9 11  1  0  0  0
 11 12  1  0  0  0
 11 17  1  0  0  0
 11 13  1  0  0  0
 13 14  1  0  0  0
 13 43  1  0  0  0
 13 44  1  0  0  0
 14 15  1  0  0  0
 14 45  1  0  0  0
 14 46  1  0  0  0
 15 16  1  0  0  0
 15 47  1  0  0  0
 15 48  1  0  0  0
 16 17  1  0  0  0
 16 18  1  0  0  0
 17 49  1  0  0  0
 17 50  1  0  0  0
 18 19  2  0  0  0
 18 20  2  0  0  0
 18 21  1  0  0  0
 21 26  2  0  0  0
 21 22  1  0  0  0
 22 23  2  0  0  0
 22 51  1  0  0  0
 23 33  1  0  0  0
 23 24  1  0  0  0
 24 25  2  0  0  0
 24 28  1  0  0  0
 25 26  1  0  0  0
 25 52  1  0  0  0
 26 27  1  0  0  0
 27 53  1  0  0  0
 27 54  1  0  0  0
 27 55  1  0  0  0
 28 29  1  0  0  0
 28 56  1  0  0  0
 29 30  2  0  0  0
 29 31  1  0  0  0
 31 32  1  0  0  0
 31 33  1  0  0  0
 31 34  1  0  0  0
 34 57  1  0  0  0
 34 58  1  0  0  0
 34 59  1  0  0  0
 35 60  1  0  0  0
 35 61  1  0  0  0
 35 62  1  0  0  0
M  END
> <i_i_glide_confnum>
3

> <i_i_glide_lignum>
3292

> <i_i_glide_posenum>
187

> <i_i_glide_rotatable_bonds>
5

> <i_m_Source_File_Index>
4721

> <b_m_subgroup_collapsed>
0

> <r_i_docking_score>
-3.64381

> <r_i_glide_ecoul>
-2.79525

> <r_i_glide_eff_state_penalty>
0

> <r_i_glide_einternal>
6.87314

> <r_i_glide_emodel>
-49.6126

> <r_i_glide_energy>
-44.5348

> <r_i_glide_erotb>
0.454486

> <r_i_glide_esite>
-0.000954136

> <r_i_glide_evdw>
-41.7396

> <r_i_glide_gscore>
-3.64381

> <r_i_glide_hbond>
-0.096848

> <r_i_glide_ligand_efficiency>
-0.110418

> <r_i_glide_ligand_efficiency_ln>
-0.810364

> <r_i_glide_ligand_efficiency_sa>
-0.354171

> <r_i_glide_lipo>
-1.49299

> <r_i_glide_metal>
0

> <r_i_glide_rewards>
-0.00123145

> <s_i_glide_gridfile>
wee1_glide-grid

> <s_m_Source_File>
wee1_decoys_glide_SP.sdf

> <s_m_Source_Path>
/Users/zhangxujun/Desktop

> <s_m_entry_id>
4996

> <s_m_entry_name>
wee1_decoys_glide_SP.4721

> <s_m_subgroup_title>
wee1_decoys_glide_SP

> <s_m_subgroupid>
wee1_decoys_glide_SP


$$$$
