ZINC36831635_2029
                    3D
 Schrodinger Suite 2024-2.
 52 55  0  0  1  0            999 V2000
   -0.3279   52.0999   30.0821 C   0  0  0  0  0  0
   -1.2956   51.6457   29.2004 C   0  0  0  0  0  0
   -1.0768   51.6918   27.8281 C   0  0  0  0  0  0
    0.1194   52.1849   27.2853 C   0  0  0  0  0  0
    1.0961   52.6504   28.2047 C   0  0  0  0  0  0
    0.8665   52.5994   29.5896 C   0  0  0  0  0  0
    2.3075   53.1320   27.6772 N   0  0  0  0  0  0
    3.2495   53.9304   28.2143 C   0  0  0  0  0  0
    3.2331   54.3781   29.3661 O   0  0  0  0  0  0
    4.4024   54.2324   27.2886 C   0  0  0  0  0  0
    5.6261   54.6264   27.8331 C   0  0  0  0  0  0
    6.7092   54.8930   27.0088 C   0  0  0  0  0  0
    6.6073   54.7486   25.6280 C   0  0  0  0  0  0
    5.4007   54.3466   25.0565 C   0  0  0  0  0  0
    4.2951   54.1064   25.8896 C   0  0  0  0  0  0
    5.4237   54.0967   23.6741 N   0  0  0  0  0  0
    4.4015   53.8279   22.8333 C   0  0  0  0  0  0
    3.2111   53.9866   23.1047 O   0  0  0  0  0  0
    4.8218   53.2594   21.4606 C   0  0  2  0  0  0
    5.9009   53.1559   21.4133 H   0  0  0  0  0  0
    4.3038   54.0954   20.2735 C   0  0  0  0  0  0
    3.6238   53.0674   19.3891 C   0  0  0  0  0  0
    3.1546   52.0171   20.3819 C   0  0  0  0  0  0
    4.2511   51.9552   21.2858 O   0  0  0  0  0  0
    0.3861   52.2086   25.9276 N   0  5  0  0  0  0
   -0.6717   52.0980   24.7701 S   0  0  0  0  0  0
   -2.0353   52.4959   25.1390 O   0  0  0  0  0  0
   -0.1633   52.6469   23.5090 O   0  0  0  0  0  0
   -0.8238   50.3248   24.4147 C   0  0  0  0  0  0
   -0.6942   49.2743   25.3205 C   0  0  0  0  0  0
   -0.9052   48.0238   24.7317 C   0  0  0  0  0  0
   -1.1955   48.1107   23.3777 C   0  0  0  0  0  0
   -1.2188   49.7534   22.8223 S   0  0  0  0  0  0
   -0.4953   52.0443   31.1486 H   0  0  0  0  0  0
   -2.2120   51.2207   29.5829 H   0  0  0  0  0  0
   -1.8494   51.2838   27.1962 H   0  0  0  0  0  0
    1.6053   52.9169   30.3076 H   0  0  0  0  0  0
    2.4091   52.9029   26.6979 H   0  0  0  0  0  0
    5.7531   54.7334   28.9024 H   0  0  0  0  0  0
    7.6402   55.1760   27.4703 H   0  0  0  0  0  0
    7.4768   54.9206   25.0083 H   0  0  0  0  0  0
    3.3638   53.7785   25.4552 H   0  0  0  0  0  0
    6.3490   54.0579   23.2765 H   0  0  0  0  0  0
    5.1111   54.5663   19.7115 H   0  0  0  0  0  0
    3.5648   54.8460   20.5640 H   0  0  0  0  0  0
    4.3345   52.6212   18.6903 H   0  0  0  0  0  0
    2.8005   53.4871   18.8096 H   0  0  0  0  0  0
    2.9751   51.0450   19.9211 H   0  0  0  0  0  0
    2.2415   52.2930   20.9138 H   0  0  0  0  0  0
   -0.4649   49.3965   26.3700 H   0  0  0  0  0  0
   -0.8510   47.0958   25.2817 H   0  0  0  0  0  0
   -1.3971   47.3030   22.6908 H   0  0  0  0  0  0
  1  6  2  0  0  0
  1  2  1  0  0  0
  1 34  1  0  0  0
  2  3  2  0  0  0
  2 35  1  0  0  0
  3  4  1  0  0  0
  3 36  1  0  0  0
  4  5  2  0  0  0
  4 25  1  0  0  0
  5  6  1  0  0  0
  5  7  1  0  0  0
  6 37  1  0  0  0
  7  8  1  0  0  0
  7 38  1  0  0  0
  8  9  2  0  0  0
  8 10  1  0  0  0
 10 15  2  0  0  0
 10 11  1  0  0  0
 11 12  2  0  0  0
 11 39  1  0  0  0
 12 13  1  0  0  0
 12 40  1  0  0  0
 13 14  2  0  0  0
 13 41  1  0  0  0
 14 15  1  0  0  0
 14 16  1  0  0  0
 15 42  1  0  0  0
 16 17  1  0  0  0
 16 43  1  0  0  0
 17 18  2  0  0  0
 17 19  1  0  0  0
 19 20  1  0  0  0
 19 24  1  0  0  0
 19 21  1  0  0  0
 21 22  1  0  0  0
 21 44  1  0  0  0
 21 45  1  0  0  0
 22 23  1  0  0  0
 22 46  1  0  0  0
 22 47  1  0  0  0
 23 24  1  0  0  0
 23 48  1  0  0  0
 23 49  1  0  0  0
 25 26  1  0  0  0
 26 27  2  0  0  0
 26 28  2  0  0  0
 26 29  1  0  0  0
 29 33  1  0  0  0
 29 30  2  0  0  0
 30 31  1  0  0  0
 30 50  1  0  0  0
 31 32  2  0  0  0
 31 51  1  0  0  0
 32 33  1  0  0  0
 32 52  1  0  0  0
M  CHG  1  25  -1
M  END
> <i_i_glide_confnum>
246

> <i_i_glide_lignum>
2030

> <i_i_glide_posenum>
48

> <i_i_glide_rotatable_bonds>
9

> <i_m_Source_File_Index>
2428

> <b_m_subgroup_collapsed>
0

> <r_i_docking_score>
-4.80837

> <r_i_glide_ecoul>
-5.32121

> <r_i_glide_eff_state_penalty>
0

> <r_i_glide_einternal>
3.75181

> <r_i_glide_emodel>
-67.2108

> <r_i_glide_energy>
-53.1721

> <r_i_glide_erotb>
0.821335

> <r_i_glide_esite>
0

> <r_i_glide_evdw>
-47.8509

> <r_i_glide_gscore>
-4.80837

> <r_i_glide_hbond>
0

> <r_i_glide_ligand_efficiency>
-0.150261

> <r_i_glide_ligand_efficiency_ln>
-1.07672

> <r_i_glide_ligand_efficiency_sa>
-0.477051

> <r_i_glide_lipo>
-2.01411

> <r_i_glide_metal>
0

> <r_i_glide_rewards>
-0.424865

> <s_i_glide_gridfile>
wee1_glide-grid

> <s_m_Source_File>
wee1_decoys_glide_SP.sdf

> <s_m_Source_Path>
/Users/zhangxujun/Desktop

> <s_m_entry_id>
2703

> <s_m_entry_name>
wee1_decoys_glide_SP.2428

> <s_m_subgroup_title>
wee1_decoys_glide_SP

> <s_m_subgroupid>
wee1_decoys_glide_SP


$$$$
