ZINC46621350_2269
                    3D
 Schrodinger Suite 2024-2.
 56 59  0  0  1  0            999 V2000
    5.2630   53.9412   23.1916 C   0  0  0  0  0  0
    4.6006   54.3868   21.8710 C   0  0  1  0  0  0
    4.0519   55.2967   22.0820 H   0  0  0  0  0  0
    5.6060   54.7301   20.7667 C   0  0  0  0  0  0
    6.7884   55.3901   21.0284 N   0  0  0  0  0  0
    7.0822   55.6664   21.9538 H   0  0  0  0  0  0
    7.4649   55.5166   19.8395 C   0  0  0  0  0  0
    8.7044   56.0531   19.4856 C   0  0  0  0  0  0
    9.0606   55.9617   18.1374 C   0  0  0  0  0  0
    8.2210   55.3768   17.1862 C   0  0  0  0  0  0
    6.9761   54.8527   17.5413 C   0  0  0  0  0  0
    6.5946   54.9210   18.8899 C   0  0  0  0  0  0
    5.4499   54.4715   19.4881 N   0  0  0  0  0  0
    3.5043   53.5238   21.4348 N   0  0  0  0  0  0
    3.5550   52.2072   21.1785 C   0  0  0  0  0  0
    4.5944   51.5550   21.2813 O   0  0  0  0  0  0
    2.2332   51.5533   20.6908 C   0  0  1  0  0  0
    2.2129   51.8250   19.6350 H   0  0  0  0  0  0
    2.2544   50.0237   20.8995 C   0  0  0  0  0  0
    2.1642   49.6508   22.3894 C   0  0  0  0  0  0
    0.9903   50.3245   23.1448 C   0  0  0  0  0  0
    0.9841   51.7805   22.8496 N   0  0  0  0  0  0
    0.9745   52.1317   21.4072 C   0  0  0  0  0  0
    1.0032   52.7658   23.7984 C   0  0  0  0  0  0
    1.1097   53.9596   23.5047 O   0  0  0  0  0  0
    0.8213   52.4053   25.2612 C   0  0  0  0  0  0
   -0.2689   51.6072   25.6457 C   0  0  0  0  0  0
   -0.4660   51.2527   26.9762 C   0  0  0  0  0  0
    0.4198   51.6980   27.9477 C   0  0  0  0  0  0
    1.4926   52.5108   27.5893 C   0  0  0  0  0  0
    1.7016   52.8960   26.2508 C   0  0  0  0  0  0
    2.7443   53.7193   25.8552 O   0  0  0  0  0  0
    3.6821   54.2239   26.8051 C   0  0  0  0  0  0
    3.1063   54.9006   27.7970 F   0  0  0  0  0  0
    4.4921   53.2814   27.2836 F   0  0  0  0  0  0
    5.8437   54.7471   23.6399 H   0  0  0  0  0  0
    4.5133   53.6363   23.9205 H   0  0  0  0  0  0
    5.9321   53.0936   23.0359 H   0  0  0  0  0  0
    9.3725   56.4961   20.2088 H   0  0  0  0  0  0
   10.0187   56.3475   17.8229 H   0  0  0  0  0  0
    8.5428   55.3246   16.1563 H   0  0  0  0  0  0
    6.3293   54.3934   16.8079 H   0  0  0  0  0  0
    2.6250   53.9939   21.2716 H   0  0  0  0  0  0
    1.4195   49.5932   20.3451 H   0  0  0  0  0  0
    3.1005   49.5664   20.3799 H   0  0  0  0  0  0
    2.0839   48.5680   22.4818 H   0  0  0  0  0  0
    3.1028   49.9031   22.8833 H   0  0  0  0  0  0
    0.0435   49.9009   22.8043 H   0  0  0  0  0  0
    1.1219   50.0958   24.2025 H   0  0  0  0  0  0
    0.8055   53.1933   21.2067 H   0  0  0  0  0  0
    0.0934   51.6531   20.9769 H   0  0  0  0  0  0
   -0.9751   51.2442   24.9130 H   0  0  0  0  0  0
   -1.2949   50.6170   27.2600 H   0  0  0  0  0  0
    0.2723   51.4128   28.9798 H   0  0  0  0  0  0
    2.1569   52.8282   28.3767 H   0  0  0  0  0  0
    4.3303   54.9328   26.2924 H   0  0  0  0  0  0
  1  2  1  0  0  0
  1 36  1  0  0  0
  1 37  1  0  0  0
  1 38  1  0  0  0
  2  3  1  0  0  0
  2  4  1  0  0  0
  2 14  1  0  0  0
  4 13  2  0  0  0
  4  5  1  0  0  0
  5  6  1  0  0  0
  5  7  1  0  0  0
  7 12  2  0  0  0
  7  8  1  0  0  0
  8  9  2  0  0  0
  8 39  1  0  0  0
  9 10  1  0  0  0
  9 40  1  0  0  0
 10 11  2  0  0  0
 10 41  1  0  0  0
 11 12  1  0  0  0
 11 42  1  0  0  0
 12 13  1  0  0  0
 14 15  1  0  0  0
 14 43  1  0  0  0
 15 16  2  0  0  0
 15 17  1  0  0  0
 17 18  1  0  0  0
 17 23  1  0  0  0
 17 19  1  0  0  0
 19 20  1  0  0  0
 19 44  1  0  0  0
 19 45  1  0  0  0
 20 21  1  0  0  0
 20 46  1  0  0  0
 20 47  1  0  0  0
 21 22  1  0  0  0
 21 48  1  0  0  0
 21 49  1  0  0  0
 22 23  1  0  0  0
 22 24  1  0  0  0
 23 50  1  0  0  0
 23 51  1  0  0  0
 24 25  2  0  0  0
 24 26  1  0  0  0
 26 31  2  0  0  0
 26 27  1  0  0  0
 27 28  2  0  0  0
 27 52  1  0  0  0
 28 29  1  0  0  0
 28 53  1  0  0  0
 29 30  2  0  0  0
 29 54  1  0  0  0
 30 31  1  0  0  0
 30 55  1  0  0  0
 31 32  1  0  0  0
 32 33  1  0  0  0
 33 34  1  0  0  0
 33 35  1  0  0  0
 33 56  1  0  0  0
M  END
> <i_i_glide_confnum>
148

> <i_i_glide_lignum>
2270

> <i_i_glide_posenum>
183

> <i_i_glide_rotatable_bonds>
8

> <i_m_Source_File_Index>
3093

> <b_m_subgroup_collapsed>
0

> <r_i_docking_score>
-5.41849

> <r_i_glide_ecoul>
-3.90747

> <r_i_glide_eff_state_penalty>
0

> <r_i_glide_einternal>
1.45293

> <r_i_glide_emodel>
-63.4301

> <r_i_glide_energy>
-47.566

> <r_i_glide_erotb>
0.612461

> <r_i_glide_esite>
-0.003931

> <r_i_glide_evdw>
-43.6586

> <r_i_glide_gscore>
-5.41849

> <r_i_glide_hbond>
-0.269228

> <r_i_glide_ligand_efficiency>
-0.169328

> <r_i_glide_ligand_efficiency_ln>
-1.21335

> <r_i_glide_ligand_efficiency_sa>
-0.537582

> <r_i_glide_lipo>
-1.60838

> <r_i_glide_metal>
0

> <r_i_glide_rewards>
-1.38036

> <s_i_glide_gridfile>
wee1_glide-grid

> <s_m_Source_File>
wee1_decoys_glide_SP.sdf

> <s_m_Source_Path>
/Users/zhangxujun/Desktop

> <s_m_entry_id>
3368

> <s_m_entry_name>
wee1_decoys_glide_SP.3093

> <s_m_subgroup_title>
wee1_decoys_glide_SP

> <s_m_subgroupid>
wee1_decoys_glide_SP


$$$$
