ZINC38682486_2984
                    3D
 Schrodinger Suite 2024-2.
 64 67  0  0  1  0            999 V2000
    2.5329   59.1723   15.4732 C   0  0  0  0  0  0
    2.2383   57.6496   15.4431 C   0  0  0  0  0  0
    0.7940   57.4391   15.9587 C   0  0  0  0  0  0
    2.3228   57.1977   13.9644 C   0  0  0  0  0  0
    3.2302   56.8211   16.3008 C   0  0  0  0  0  0
    4.2715   57.4195   17.0290 C   0  0  0  0  0  0
    5.1651   56.6487   17.7657 C   0  0  0  0  0  0
    5.0431   55.2523   17.7889 C   0  0  0  0  0  0
    4.0028   54.6520   17.0805 C   0  0  0  0  0  0
    3.1037   55.4251   16.3508 C   0  0  0  0  0  0
    5.9064   54.4068   18.4585 O   0  0  0  0  0  0
    6.9143   54.9417   19.3180 C   0  0  0  0  0  0
    6.3606   55.2962   20.7037 C   0  0  0  0  0  0
    6.7046   56.3288   21.2817 O   0  0  0  0  0  0
    5.5055   54.3404   21.1752 O   0  0  0  0  0  0
    5.0433   54.3771   22.4714 C   0  0  0  0  0  0
    3.6668   54.4564   22.6830 C   0  0  0  0  0  0
    3.1542   54.4888   23.9782 C   0  0  0  0  0  0
    3.9883   54.3869   25.1049 C   0  0  0  0  0  0
    5.3773   54.2925   24.8683 C   0  0  0  0  0  0
    5.8997   54.2888   23.5755 C   0  0  0  0  0  0
    6.2963   54.1758   25.8927 O   0  0  0  0  0  0
    5.8511   53.9661   27.1529 C   0  0  0  0  0  0
    4.5615   53.9918   27.5389 C   0  0  0  0  0  0
    3.4462   54.3569   26.5557 C   0  0  2  0  0  0
    3.1909   55.3856   26.7944 H   0  0  0  0  0  0
    2.1265   53.5973   26.7895 C   0  0  0  0  0  0
    1.6935   52.5834   25.9248 C   0  0  0  0  0  0
    0.4800   51.9428   26.1304 C   0  0  0  0  0  0
   -0.3143   52.3009   27.2201 C   0  0  0  0  0  0
    0.1141   53.2889   28.1034 C   0  0  0  0  0  0
    1.3225   53.9429   27.8838 C   0  0  0  0  0  0
   -1.8892   51.5454   27.4774 S   0  0  0  0  0  0
   -2.0337   50.1075   26.3825 C   0  0  0  0  0  0
    4.2203   53.7648   28.9081 C   0  0  0  0  0  0
    3.9012   53.6059   30.0104 N   0  0  0  0  0  0
    6.9363   53.6972   27.9386 N   0  0  0  0  0  0
    1.8284   59.7318   14.8585 H   0  0  0  0  0  0
    3.5315   59.4018   15.0959 H   0  0  0  0  0  0
    2.4646   59.5821   16.4813 H   0  0  0  0  0  0
    0.4642   56.4051   15.8515 H   0  0  0  0  0  0
    0.7060   57.6961   17.0149 H   0  0  0  0  0  0
    0.0818   58.0571   15.4126 H   0  0  0  0  0  0
    2.0513   56.1506   13.8359 H   0  0  0  0  0  0
    1.6507   57.7765   13.3321 H   0  0  0  0  0  0
    3.3309   57.3243   13.5664 H   0  0  0  0  0  0
    4.4179   58.4896   17.0387 H   0  0  0  0  0  0
    5.9523   57.1566   18.3015 H   0  0  0  0  0  0
    3.8997   53.5749   17.0962 H   0  0  0  0  0  0
    2.3127   54.9259   15.8122 H   0  0  0  0  0  0
    7.6775   54.1740   19.4433 H   0  0  0  0  0  0
    7.4450   55.7859   18.8754 H   0  0  0  0  0  0
    2.9981   54.5163   21.8339 H   0  0  0  0  0  0
    2.0849   54.5784   24.1058 H   0  0  0  0  0  0
    6.9678   54.2119   23.4311 H   0  0  0  0  0  0
    2.3005   52.2792   25.0872 H   0  0  0  0  0  0
    0.1664   51.1794   25.4351 H   0  0  0  0  0  0
   -0.4941   53.5610   28.9521 H   0  0  0  0  0  0
    1.6311   54.7197   28.5666 H   0  0  0  0  0  0
   -2.9109   49.5232   26.6564 H   0  0  0  0  0  0
   -2.1352   50.4199   25.3439 H   0  0  0  0  0  0
   -1.1598   49.4623   26.4794 H   0  0  0  0  0  0
    6.8719   53.7213   28.9454 H   0  0  0  0  0  0
    7.7709   53.3026   27.5306 H   0  0  0  0  0  0
  1  2  1  0  0  0
  1 38  1  0  0  0
  1 39  1  0  0  0
  1 40  1  0  0  0
  2  3  1  0  0  0
  2  4  1  0  0  0
  2  5  1  0  0  0
  3 41  1  0  0  0
  3 42  1  0  0  0
  3 43  1  0  0  0
  4 44  1  0  0  0
  4 45  1  0  0  0
  4 46  1  0  0  0
  5 10  2  0  0  0
  5  6  1  0  0  0
  6  7  2  0  0  0
  6 47  1  0  0  0
  7  8  1  0  0  0
  7 48  1  0  0  0
  8  9  2  0  0  0
  8 11  1  0  0  0
  9 10  1  0  0  0
  9 49  1  0  0  0
 10 50  1  0  0  0
 11 12  1  0  0  0
 12 13  1  0  0  0
 12 51  1  0  0  0
 12 52  1  0  0  0
 13 14  2  0  0  0
 13 15  1  0  0  0
 15 16  1  0  0  0
 16 21  2  0  0  0
 16 17  1  0  0  0
 17 18  2  0  0  0
 17 53  1  0  0  0
 18 19  1  0  0  0
 18 54  1  0  0  0
 19 25  1  0  0  0
 19 20  2  0  0  0
 20 21  1  0  0  0
 20 22  1  0  0  0
 21 55  1  0  0  0
 22 23  1  0  0  0
 23 24  2  0  0  0
 23 37  1  0  0  0
 24 25  1  0  0  0
 24 35  1  0  0  0
 25 26  1  0  0  0
 25 27  1  0  0  0
 27 32  2  0  0  0
 27 28  1  0  0  0
 28 29  2  0  0  0
 28 56  1  0  0  0
 29 30  1  0  0  0
 29 57  1  0  0  0
 30 31  2  0  0  0
 30 33  1  0  0  0
 31 32  1  0  0  0
 31 58  1  0  0  0
 32 59  1  0  0  0
 33 34  1  0  0  0
 34 60  1  0  0  0
 34 61  1  0  0  0
 34 62  1  0  0  0
 35 36  3  0  0  0
 37 63  1  0  0  0
 37 64  1  0  0  0
M  END
> <i_i_glide_confnum>
31

> <i_i_glide_lignum>
2985

> <i_i_glide_posenum>
374

> <i_i_glide_rotatable_bonds>
9

> <i_m_Source_File_Index>
4019

> <b_m_subgroup_collapsed>
0

> <r_i_docking_score>
-5.28599

> <r_i_glide_ecoul>
-5.82011

> <r_i_glide_eff_state_penalty>
0

> <r_i_glide_einternal>
11.9431

> <r_i_glide_emodel>
-56.0486

> <r_i_glide_energy>
-49.3336

> <r_i_glide_erotb>
0.488907

> <r_i_glide_esite>
0

> <r_i_glide_evdw>
-43.5135

> <r_i_glide_gscore>
-5.28599

> <r_i_glide_hbond>
-0.314254

> <r_i_glide_ligand_efficiency>
-0.146833

> <r_i_glide_ligand_efficiency_ln>
-1.15326

> <r_i_glide_ligand_efficiency_sa>
-0.484832

> <r_i_glide_lipo>
-2.94252

> <r_i_glide_metal>
0

> <r_i_glide_rewards>
0.530562

> <s_i_glide_gridfile>
wee1_glide-grid

> <s_m_Source_File>
wee1_decoys_glide_SP.sdf

> <s_m_Source_Path>
/Users/zhangxujun/Desktop

> <s_m_entry_id>
4294

> <s_m_entry_name>
wee1_decoys_glide_SP.4019

> <s_m_subgroup_title>
wee1_decoys_glide_SP

> <s_m_subgroupid>
wee1_decoys_glide_SP


$$$$
