ZINC13028199_936
                    3D
 Schrodinger Suite 2024-2.
 55 58  0  0  1  0            999 V2000
    4.1284   55.7203   17.8098 C   0  0  0  0  0  0
    5.3224   56.3825   18.0887 C   0  0  0  0  0  0
    6.4399   55.6491   18.4735 C   0  0  0  0  0  0
    6.3796   54.2606   18.5601 C   0  0  0  0  0  0
    5.1860   53.5996   18.2822 C   0  0  0  0  0  0
    4.0371   54.3212   17.9185 C   0  0  0  0  0  0
    2.7019   53.6432   17.6816 C   0  0  0  0  0  0
    1.7384   54.3065   17.2809 O   0  0  0  0  0  0
    2.6239   52.3211   17.9898 N   0  0  0  0  0  0
    1.3795   51.6665   17.9809 N   0  0  0  0  0  0
    0.7282   51.3766   16.8275 C   0  0  0  0  0  0
    1.2130   51.5247   15.7044 O   0  0  0  0  0  0
   -0.7362   50.9143   16.9399 C   0  0  0  0  0  0
   -0.9841   50.2421   18.1816 O   0  0  0  0  0  0
   -1.6315   50.8217   19.2370 C   0  0  0  0  0  0
   -2.0902   51.9688   19.2390 O   0  0  0  0  0  0
   -1.7520   49.8508   20.4483 C   0  0  1  0  0  0
   -0.3075   49.3447   20.8238 C   0  0  0  0  0  0
    0.3499   49.8372   22.1484 C   0  0  1  0  0  0
    1.0762   49.0860   22.4697 H   0  0  0  0  0  0
    1.1148   51.1756   21.9482 C   0  0  0  0  0  0
    0.1904   52.3927   21.7298 C   0  0  0  0  0  0
   -1.0743   52.4112   22.6297 C   0  0  0  0  0  0
   -1.7438   51.0268   22.8541 C   0  0  1  0  0  0
   -2.4426   51.1168   23.6901 H   0  0  0  0  0  0
   -2.5462   50.5500   21.6093 C   0  0  0  0  0  0
   -0.6891   49.9773   23.2988 C   0  0  0  0  0  0
    0.1142   50.4830   24.8793 S   0  0  0  0  0  0
    0.0081   48.9274   25.7975 C   0  0  0  0  0  0
   -0.2054   47.7982   24.7986 C   0  0  0  0  0  0
   -1.4890   48.3727   23.6822 S   0  0  0  0  0  0
    8.0608   56.5511   18.8950 Br  0  0  0  0  0  0
    3.2636   56.3115   17.5320 H   0  0  0  0  0  0
    5.3723   57.4601   18.0178 H   0  0  0  0  0  0
    7.2537   53.6973   18.8486 H   0  0  0  0  0  0
    5.1700   52.5208   18.3743 H   0  0  0  0  0  0
    3.4039   51.6799   17.9297 H   0  0  0  0  0  0
    0.9477   51.6385   18.8905 H   0  0  0  0  0  0
   -1.3526   51.8100   16.8338 H   0  0  0  0  0  0
   -0.9986   50.2568   16.1102 H   0  0  0  0  0  0
   -2.3474   49.0593   19.9943 H   0  0  0  0  0  0
   -0.4489   48.2774   20.9962 H   0  0  0  0  0  0
    0.4083   49.3342   19.9990 H   0  0  0  0  0  0
    1.7546   51.3630   22.8096 H   0  0  0  0  0  0
    1.7978   51.0896   21.1012 H   0  0  0  0  0  0
    0.7718   53.2975   21.9057 H   0  0  0  0  0  0
   -0.0861   52.4591   20.6863 H   0  0  0  0  0  0
   -0.8074   52.8382   23.5994 H   0  0  0  0  0  0
   -1.8250   53.0870   22.2224 H   0  0  0  0  0  0
   -3.2772   51.2880   21.2721 H   0  0  0  0  0  0
   -3.2018   49.7666   21.9909 H   0  0  0  0  0  0
    0.9093   48.7786   26.3940 H   0  0  0  0  0  0
   -0.8416   49.0114   26.4786 H   0  0  0  0  0  0
    0.7044   47.5975   24.2360 H   0  0  0  0  0  0
   -0.5419   46.8815   25.2772 H   0  0  0  0  0  0
  1  6  2  0  0  0
  1  2  1  0  0  0
  1 33  1  0  0  0
  2  3  2  0  0  0
  2 34  1  0  0  0
  3  4  1  0  0  0
  3 32  1  0  0  0
  4  5  2  0  0  0
  4 35  1  0  0  0
  5  6  1  0  0  0
  5 36  1  0  0  0
  6  7  1  0  0  0
  7  8  2  0  0  0
  7  9  1  0  0  0
  9 10  1  0  0  0
  9 37  1  0  0  0
 10 11  1  0  0  0
 10 38  1  0  0  0
 11 12  2  0  0  0
 11 13  1  0  0  0
 13 14  1  0  0  0
 13 39  1  0  0  0
 13 40  1  0  0  0
 14 15  1  0  0  0
 15 16  2  0  0  0
 15 17  1  0  0  0
 17 26  1  0  0  0
 17 18  1  0  0  0
 17 41  1  0  0  0
 18 19  1  0  0  0
 18 42  1  0  0  0
 18 43  1  0  0  0
 19 20  1  0  0  0
 19 27  1  0  0  0
 19 21  1  0  0  0
 21 22  1  0  0  0
 21 44  1  0  0  0
 21 45  1  0  0  0
 22 23  1  0  0  0
 22 46  1  0  0  0
 22 47  1  0  0  0
 23 24  1  0  0  0
 23 48  1  0  0  0
 23 49  1  0  0  0
 24 25  1  0  0  0
 24 26  1  0  0  0
 24 27  1  0  0  0
 26 50  1  0  0  0
 26 51  1  0  0  0
 27 31  1  0  0  0
 27 28  1  0  0  0
 28 29  1  0  0  0
 29 30  1  0  0  0
 29 52  1  0  0  0
 29 53  1  0  0  0
 30 31  1  0  0  0
 30 54  1  0  0  0
 30 55  1  0  0  0
M  END
> <i_i_glide_confnum>
356

> <i_i_glide_lignum>
937

> <i_i_glide_posenum>
333

> <i_i_glide_rotatable_bonds>
8

> <i_m_Source_File_Index>
2193

> <b_m_subgroup_collapsed>
0

> <r_i_docking_score>
-2.11768

> <r_i_glide_ecoul>
-5.44815

> <r_i_glide_eff_state_penalty>
0

> <r_i_glide_einternal>
5.34431

> <r_i_glide_emodel>
-33.1971

> <r_i_glide_energy>
-30.5134

> <r_i_glide_erotb>
0.466669

> <r_i_glide_esite>
-0.111722

> <r_i_glide_evdw>
-25.0653

> <r_i_glide_gscore>
-2.11768

> <r_i_glide_hbond>
-0.105627

> <r_i_glide_ligand_efficiency>
-0.0705892

> <r_i_glide_ligand_efficiency_ln>
-0.481159

> <r_i_glide_ligand_efficiency_sa>
-0.219337

> <r_i_glide_lipo>
-0.296511

> <r_i_glide_metal>
0

> <r_i_glide_rewards>
6.31263e-07

> <s_i_glide_gridfile>
wee1_glide-grid

> <s_m_Source_File>
wee1_decoys_glide_SP.sdf

> <s_m_Source_Path>
/Users/zhangxujun/Desktop

> <s_m_entry_id>
2468

> <s_m_entry_name>
wee1_decoys_glide_SP.2193

> <s_m_subgroup_title>
wee1_decoys_glide_SP

> <s_m_subgroupid>
wee1_decoys_glide_SP


$$$$
