ZINC60342966_2275
                    3D
 Schrodinger Suite 2024-2.
 54 57  0  0  1  0            999 V2000
    7.1068   54.1017   23.6586 C   0  0  0  0  0  0
    5.6839   54.1522   23.3207 N   0  0  0  0  0  0
    5.2832   54.1523   21.9156 C   0  0  0  0  0  0
    5.9042   55.2378   20.9846 C   0  0  0  0  0  0
    6.6873   56.0757   21.4434 O   0  0  0  0  0  0
    5.5042   55.2543   19.6823 N   0  0  0  0  0  0
    5.0046   54.0365   19.0281 C   0  0  0  0  0  0
    4.7466   54.4108   17.5759 C   0  0  0  0  0  0
    5.4654   55.7203   17.4329 C   0  0  0  0  0  0
    5.8655   56.1854   18.6868 C   0  0  0  0  0  0
    6.3614   57.4888   18.8139 C   0  0  0  0  0  0
    6.5279   58.2869   17.6832 C   0  0  0  0  0  0
    6.1691   57.8017   16.4240 C   0  0  0  0  0  0
    5.6273   56.5190   16.2986 C   0  0  0  0  0  0
    6.3418   58.8558   14.9916 S   0  0  0  0  0  0
    6.4380   57.9890   13.8124 O   0  0  0  0  0  0
    7.3826   59.8483   15.2779 O   0  0  0  0  0  0
    4.8213   59.6966   14.8817 N   0  0  0  0  0  0
    4.7668   54.1697   24.4090 C   0  0  0  0  0  0
    5.1498   54.6386   25.6785 C   0  0  0  0  0  0
    4.2681   54.5987   26.7554 C   0  0  0  0  0  0
    2.9813   54.0886   26.5882 C   0  0  0  0  0  0
    2.5730   53.6580   25.3288 C   0  0  0  0  0  0
    3.4548   53.6968   24.2511 C   0  0  0  0  0  0
    2.0570   54.0806   27.6102 O   0  0  0  0  0  0
    2.2357   53.3927   28.7973 C   0  0  0  0  0  0
    1.1422   53.3770   29.6656 C   0  0  0  0  0  0
    1.2172   52.7213   30.8917 C   0  0  0  0  0  0
    2.4046   52.0967   31.2659 C   0  0  0  0  0  0
    3.5058   52.1024   30.4123 C   0  0  0  0  0  0
    3.4172   52.7327   29.1730 C   0  0  0  0  0  0
    7.2960   53.5586   24.5848 H   0  0  0  0  0  0
    7.6800   53.5986   22.8819 H   0  0  0  0  0  0
    7.5040   55.1117   23.7632 H   0  0  0  0  0  0
    4.2099   54.2819   21.7808 H   0  0  0  0  0  0
    5.4842   53.1724   21.4818 H   0  0  0  0  0  0
    5.8539   53.3497   19.0209 H   0  0  0  0  0  0
    4.1995   53.4882   19.5198 H   0  0  0  0  0  0
    3.6751   54.5584   17.4346 H   0  0  0  0  0  0
    5.0505   53.6167   16.8924 H   0  0  0  0  0  0
    6.6050   57.9075   19.7749 H   0  0  0  0  0  0
    6.9032   59.2958   17.7894 H   0  0  0  0  0  0
    5.2970   56.1698   15.3306 H   0  0  0  0  0  0
    4.7050   60.4420   15.5960 H   0  0  0  0  0  0
    4.6829   60.1054   13.9574 H   0  0  0  0  0  0
    6.1350   55.0443   25.8486 H   0  0  0  0  0  0
    4.5795   54.9736   27.7191 H   0  0  0  0  0  0
    1.5699   53.2824   25.1907 H   0  0  0  0  0  0
    3.1069   53.3125   23.3054 H   0  0  0  0  0  0
    0.2258   53.8728   29.3810 H   0  0  0  0  0  0
    0.3634   52.7056   31.5561 H   0  0  0  0  0  0
    2.4672   51.6125   32.2307 H   0  0  0  0  0  0
    4.4289   51.6273   30.7096 H   0  0  0  0  0  0
    4.2759   52.7030   28.5209 H   0  0  0  0  0  0
  1  2  1  0  0  0
  1 32  1  0  0  0
  1 33  1  0  0  0
  1 34  1  0  0  0
  2  3  1  0  0  0
  2 19  1  0  0  0
  3  4  1  0  0  0
  3 35  1  0  0  0
  3 36  1  0  0  0
  4  5  2  0  0  0
  4  6  1  0  0  0
  6 10  1  0  0  0
  6  7  1  0  0  0
  7  8  1  0  0  0
  7 37  1  0  0  0
  7 38  1  0  0  0
  8  9  1  0  0  0
  8 39  1  0  0  0
  8 40  1  0  0  0
  9 14  2  0  0  0
  9 10  1  0  0  0
 10 11  2  0  0  0
 11 12  1  0  0  0
 11 41  1  0  0  0
 12 13  2  0  0  0
 12 42  1  0  0  0
 13 14  1  0  0  0
 13 15  1  0  0  0
 14 43  1  0  0  0
 15 16  2  0  0  0
 15 17  2  0  0  0
 15 18  1  0  0  0
 18 44  1  0  0  0
 18 45  1  0  0  0
 19 24  2  0  0  0
 19 20  1  0  0  0
 20 21  2  0  0  0
 20 46  1  0  0  0
 21 22  1  0  0  0
 21 47  1  0  0  0
 22 23  2  0  0  0
 22 25  1  0  0  0
 23 24  1  0  0  0
 23 48  1  0  0  0
 24 49  1  0  0  0
 25 26  1  0  0  0
 26 31  2  0  0  0
 26 27  1  0  0  0
 27 28  2  0  0  0
 27 50  1  0  0  0
 28 29  1  0  0  0
 28 51  1  0  0  0
 29 30  2  0  0  0
 29 52  1  0  0  0
 30 31  1  0  0  0
 30 53  1  0  0  0
 31 54  1  0  0  0
M  END
> <i_i_glide_confnum>
10

> <i_i_glide_lignum>
2276

> <i_i_glide_posenum>
172

> <i_i_glide_rotatable_bonds>
7

> <i_m_Source_File_Index>
5280

> <b_m_subgroup_collapsed>
0

> <r_i_docking_score>
-6.29636

> <r_i_glide_ecoul>
-7.24325

> <r_i_glide_eff_state_penalty>
0

> <r_i_glide_einternal>
1.67492

> <r_i_glide_emodel>
-65.6924

> <r_i_glide_energy>
-45.6308

> <r_i_glide_erotb>
0.625084

> <r_i_glide_esite>
-0.190148

> <r_i_glide_evdw>
-38.3875

> <r_i_glide_gscore>
-6.29636

> <r_i_glide_hbond>
-0.16

> <r_i_glide_ligand_efficiency>
-0.203108

> <r_i_glide_ligand_efficiency_ln>
-1.42002

> <r_i_glide_ligand_efficiency_sa>
-0.638041

> <r_i_glide_lipo>
-2.4896

> <r_i_glide_metal>
0

> <r_i_glide_rewards>
-1.07583

> <s_i_glide_gridfile>
wee1_glide-grid

> <s_m_Source_File>
wee1_decoys_glide_SP.sdf

> <s_m_Source_Path>
/Users/zhangxujun/Desktop

> <s_m_entry_id>
5555

> <s_m_entry_name>
wee1_decoys_glide_SP.5280

> <s_m_subgroup_title>
wee1_decoys_glide_SP

> <s_m_subgroupid>
wee1_decoys_glide_SP


$$$$
