ZINC11755771_6137
                    3D
 Schrodinger Suite 2024-2.
 32 33  0  0  1  0            999 V2000
   -0.1415   52.4961   25.1651 C   0  0  0  0  0  0
    0.3050   52.3857   26.6187 C   0  0  0  0  0  0
    1.4519   53.0711   27.0326 C   0  0  0  0  0  0
    1.9024   52.9781   28.3517 C   0  0  0  0  0  0
    1.1756   52.2238   29.2755 C   0  0  0  0  0  0
    0.0193   51.5588   28.8757 C   0  0  0  0  0  0
   -0.4111   51.6189   27.5515 C   0  0  0  0  0  0
   -1.5470   50.8967   27.1855 N   0  0  0  0  0  0
    3.3569   53.8778   28.8833 S   0  0  0  0  0  0
    3.0257   55.2972   28.7489 O   0  0  0  0  0  0
    3.7390   53.3357   30.1932 O   0  0  0  0  0  0
    4.6587   53.5098   27.7347 N   0  0  0  0  0  0
    4.5420   53.9900   26.3216 C   0  0  0  0  0  0
    5.9738   54.4259   25.9862 C   0  0  0  0  0  0
    6.6217   54.7153   27.3173 C   0  0  0  0  0  0
    6.0618   53.6210   28.2068 C   0  0  0  0  0  0
    0.4820   53.1798   24.5878 H   0  0  0  0  0  0
   -1.1692   52.8579   25.1141 H   0  0  0  0  0  0
   -0.1130   51.5164   24.6873 H   0  0  0  0  0  0
    1.9810   53.6841   26.3208 H   0  0  0  0  0  0
    1.4890   52.1591   30.3076 H   0  0  0  0  0  0
   -0.5371   50.9783   29.5987 H   0  0  0  0  0  0
   -1.6951   50.0228   27.7028 H   0  0  0  0  0  0
   -1.7597   50.8740   26.2011 H   0  0  0  0  0  0
    4.2982   53.2009   25.6118 H   0  0  0  0  0  0
    3.9470   54.9015   26.2441 H   0  0  0  0  0  0
    6.5063   53.6146   25.4858 H   0  0  0  0  0  0
    5.9978   55.2852   25.3144 H   0  0  0  0  0  0
    6.3216   55.6967   27.6873 H   0  0  0  0  0  0
    7.7090   54.6887   27.2829 H   0  0  0  0  0  0
    6.1544   53.7699   29.2816 H   0  0  0  0  0  0
    6.5914   52.6962   27.9750 H   0  0  0  0  0  0
  1  2  1  0  0  0
  1 17  1  0  0  0
  1 18  1  0  0  0
  1 19  1  0  0  0
  2  7  2  0  0  0
  2  3  1  0  0  0
  3  4  2  0  0  0
  3 20  1  0  0  0
  4  5  1  0  0  0
  4  9  1  0  0  0
  5  6  2  0  0  0
  5 21  1  0  0  0
  6  7  1  0  0  0
  6 22  1  0  0  0
  7  8  1  0  0  0
  8 23  1  0  0  0
  8 24  1  0  0  0
  9 10  2  0  0  0
  9 11  2  0  0  0
  9 12  1  0  0  0
 12 16  1  0  0  0
 12 13  1  0  0  0
 13 14  1  0  0  0
 13 25  1  0  0  0
 13 26  1  0  0  0
 14 15  1  0  0  0
 14 27  1  0  0  0
 14 28  1  0  0  0
 15 16  1  0  0  0
 15 29  1  0  0  0
 15 30  1  0  0  0
 16 31  1  0  0  0
 16 32  1  0  0  0
M  END
> <i_i_glide_confnum>
12

> <i_i_glide_lignum>
6138

> <i_i_glide_posenum>
350

> <i_i_glide_rotatable_bonds>
2

> <i_m_Source_File_Index>
636

> <b_m_subgroup_collapsed>
0

> <r_i_docking_score>
-4.08772

> <r_i_glide_ecoul>
-5.50365

> <r_i_glide_eff_state_penalty>
0

> <r_i_glide_einternal>
4.01715

> <r_i_glide_emodel>
-32.8677

> <r_i_glide_energy>
-31.3483

> <r_i_glide_erotb>
0.599114

> <r_i_glide_esite>
-0.1

> <r_i_glide_evdw>
-25.8446

> <r_i_glide_gscore>
-4.08772

> <r_i_glide_hbond>
-0.16

> <r_i_glide_ligand_efficiency>
-0.255482

> <r_i_glide_ligand_efficiency_ln>
-1.08353

> <r_i_glide_ligand_efficiency_sa>
-0.643775

> <r_i_glide_lipo>
-1.67421

> <r_i_glide_metal>
0

> <r_i_glide_rewards>
-0.634847

> <s_i_glide_gridfile>
wee1_glide-grid

> <s_m_Source_File>
wee1_decoys_glide_SP.sdf

> <s_m_Source_Path>
/Users/zhangxujun/Desktop

> <s_m_entry_id>
911

> <s_m_entry_name>
wee1_decoys_glide_SP.636

> <s_m_subgroup_title>
wee1_decoys_glide_SP

> <s_m_subgroupid>
wee1_decoys_glide_SP


$$$$
