ZINC33853396_5921
                    3D
 Schrodinger Suite 2024-2.
 49 51  0  0  1  0            999 V2000
    1.8462   52.6316   22.1994 C   0  0  0  0  0  0
    0.5940   52.9493   23.0395 C   0  0  0  0  0  0
    0.4526   52.0942   24.2546 N   0  0  0  0  0  0
   -0.2795   50.9487   24.0099 C   0  0  0  0  0  0
   -0.8096   50.6741   22.9277 O   0  0  0  0  0  0
   -0.3795   49.9107   25.1461 C   0  0  0  0  0  0
   -0.5494   50.5094   26.5488 C   0  0  1  0  0  0
   -0.4955   49.7014   27.2813 H   0  0  0  0  0  0
    0.8111   51.5914   26.9777 S   0  0  0  0  0  0
    1.1036   52.4964   25.4125 C   0  0  0  0  0  0
    1.9429   53.4681   25.4215 N   0  0  0  0  0  0
    2.7515   53.8409   26.5014 C   0  0  0  0  0  0
    2.2648   54.2869   27.7386 C   0  0  0  0  0  0
    3.1372   54.6007   28.7796 C   0  0  0  0  0  0
    4.5136   54.4970   28.5860 C   0  0  0  0  0  0
    5.0201   54.1159   27.3400 C   0  0  0  0  0  0
    4.1307   53.7919   26.3145 C   0  0  0  0  0  0
    6.5202   54.0798   27.0980 C   0  0  0  0  0  0
    6.8262   53.6968   25.8599 F   0  0  0  0  0  0
    7.0144   55.2966   27.2514 F   0  0  0  0  0  0
    7.1044   53.2652   27.9708 F   0  0  0  0  0  0
   -1.8826   51.2824   26.7486 C   0  0  0  0  0  0
   -1.9533   52.4946   26.5001 O   0  0  0  0  0  0
   -2.9142   50.5421   27.2089 N   0  0  0  0  0  0
   -4.2242   50.9749   27.4845 C   0  0  0  0  0  0
   -4.9430   50.2357   28.4255 C   0  0  0  0  0  0
   -6.2258   50.6310   28.7980 C   0  0  0  0  0  0
   -6.7932   51.7777   28.2430 C   0  0  0  0  0  0
   -6.0977   52.5383   27.2899 C   0  0  0  0  0  0
   -4.8262   52.0966   26.8860 C   0  0  0  0  0  0
   -6.6701   53.8262   26.7677 C   0  0  0  0  0  0
   -7.7829   54.1959   27.2092 O   0  0  0  0  0  0
   -5.9861   54.4873   25.9510 O   0  5  0  0  0  0
    1.8914   53.2770   21.3236 H   0  0  0  0  0  0
    2.7625   52.7947   22.7682 H   0  0  0  0  0  0
    1.8405   51.6009   21.8423 H   0  0  0  0  0  0
   -0.2850   52.8965   22.3954 H   0  0  0  0  0  0
    0.6257   53.9996   23.3351 H   0  0  0  0  0  0
    0.5321   49.3115   25.1114 H   0  0  0  0  0  0
   -1.2044   49.2301   24.9256 H   0  0  0  0  0  0
    1.1991   54.3692   27.8946 H   0  0  0  0  0  0
    2.7426   54.9317   29.7272 H   0  0  0  0  0  0
    5.1898   54.7543   29.3882 H   0  0  0  0  0  0
    4.5066   53.4794   25.3506 H   0  0  0  0  0  0
   -2.6738   49.6140   27.5463 H   0  0  0  0  0  0
   -4.5017   49.3640   28.8897 H   0  0  0  0  0  0
   -6.7729   50.0587   29.5317 H   0  0  0  0  0  0
   -7.7782   52.0797   28.5714 H   0  0  0  0  0  0
   -4.2946   52.6695   26.1410 H   0  0  0  0  0  0
  1  2  1  0  0  0
  1 34  1  0  0  0
  1 35  1  0  0  0
  1 36  1  0  0  0
  2  3  1  0  0  0
  2 37  1  0  0  0
  2 38  1  0  0  0
  3 10  1  0  0  0
  3  4  1  0  0  0
  4  5  2  0  0  0
  4  6  1  0  0  0
  6  7  1  0  0  0
  6 39  1  0  0  0
  6 40  1  0  0  0
  7  8  1  0  0  0
  7  9  1  0  0  0
  7 22  1  0  0  0
  9 10  1  0  0  0
 10 11  2  0  0  0
 11 12  1  0  0  0
 12 17  2  0  0  0
 12 13  1  0  0  0
 13 14  2  0  0  0
 13 41  1  0  0  0
 14 15  1  0  0  0
 14 42  1  0  0  0
 15 16  2  0  0  0
 15 43  1  0  0  0
 16 17  1  0  0  0
 16 18  1  0  0  0
 17 44  1  0  0  0
 18 19  1  0  0  0
 18 20  1  0  0  0
 18 21  1  0  0  0
 22 23  2  0  0  0
 22 24  1  0  0  0
 24 25  1  0  0  0
 24 45  1  0  0  0
 25 30  2  0  0  0
 25 26  1  0  0  0
 26 27  2  0  0  0
 26 46  1  0  0  0
 27 28  1  0  0  0
 27 47  1  0  0  0
 28 29  2  0  0  0
 28 48  1  0  0  0
 29 30  1  0  0  0
 29 31  1  0  0  0
 30 49  1  0  0  0
 31 32  2  0  0  0
 31 33  1  0  0  0
M  CHG  1  33  -1
M  END
> <i_i_glide_confnum>
55

> <i_i_glide_lignum>
5922

> <i_i_glide_posenum>
145

> <i_i_glide_rotatable_bonds>
7

> <i_m_Source_File_Index>
3944

> <b_m_subgroup_collapsed>
0

> <r_i_docking_score>
-6.26372

> <r_i_glide_ecoul>
-9.07471

> <r_i_glide_eff_state_penalty>
0

> <r_i_glide_einternal>
6.56967

> <r_i_glide_emodel>
-61.2227

> <r_i_glide_energy>
-42.6066

> <r_i_glide_erotb>
0.373836

> <r_i_glide_esite>
-0.157736

> <r_i_glide_evdw>
-33.5318

> <r_i_glide_gscore>
-6.26372

> <r_i_glide_hbond>
-0.32

> <r_i_glide_ligand_efficiency>
-0.195741

> <r_i_glide_ligand_efficiency_ln>
-1.40262

> <r_i_glide_ligand_efficiency_sa>
-0.62144

> <r_i_glide_lipo>
-2.00407

> <r_i_glide_metal>
0

> <r_i_glide_rewards>
-1.11795

> <s_i_glide_gridfile>
wee1_glide-grid

> <s_m_Source_File>
wee1_decoys_glide_SP.sdf

> <s_m_Source_Path>
/Users/zhangxujun/Desktop

> <s_m_entry_id>
4219

> <s_m_entry_name>
wee1_decoys_glide_SP.3944

> <s_m_subgroup_title>
wee1_decoys_glide_SP

> <s_m_subgroupid>
wee1_decoys_glide_SP


$$$$
