ZINC14667581_4532
                    3D
 Schrodinger Suite 2024-2.
 53 55  0  0  1  0            999 V2000
    6.5617   54.1519   28.0221 C   0  0  0  0  0  0
    5.3362   54.0251   27.1247 C   0  0  0  0  0  0
    4.0910   53.6065   27.6140 C   0  0  0  0  0  0
    2.8641   53.6795   26.3809 S   0  0  0  0  0  0
    4.0410   54.0530   25.1700 C   0  0  0  0  0  0
    5.2995   54.2945   25.7319 C   0  0  0  0  0  0
    6.4394   54.7510   24.9776 C   0  0  0  0  0  0
    7.1040   55.7075   25.3420 O   0  0  0  0  0  0
    6.7052   54.0969   23.8461 N   0  0  0  0  0  0
    3.7867   53.9603   23.8099 N   0  0  0  0  0  0
    2.6460   53.6968   23.1508 C   0  0  0  0  0  0
    1.5130   53.7744   23.6300 O   0  0  0  0  0  0
    2.8957   53.2937   21.7148 C   0  0  0  0  0  0
    3.9054   53.9382   20.9742 C   0  0  0  0  0  0
    4.2147   53.5347   19.6810 C   0  0  0  0  0  0
    3.5024   52.4979   19.0951 C   0  0  0  0  0  0
    2.4859   51.8625   19.8032 C   0  0  0  0  0  0
    2.1684   52.2387   21.1204 C   0  0  0  0  0  0
    1.2022   51.6090   21.8943 O   0  0  0  0  0  0
    0.3919   50.5180   21.4497 C   0  0  0  0  0  0
   -0.6102   50.8973   20.3406 C   0  0  0  0  0  0
    1.1803   49.2117   21.2234 C   0  0  0  0  0  0
    5.6193   54.3955   18.7282 Br  0  0  0  0  0  0
    3.7497   53.0755   28.9953 C   0  0  0  0  0  0
    2.5234   53.7078   29.6328 C   0  0  0  0  0  0
    2.3582   55.0960   29.6132 C   0  0  0  0  0  0
    1.2400   55.6664   30.2065 C   0  0  0  0  0  0
    0.3050   54.8442   30.8277 C   0  0  0  0  0  0
    0.4594   53.4624   30.8582 C   0  0  0  0  0  0
    1.5742   52.8928   30.2563 C   0  0  0  0  0  0
    7.2923   54.8816   27.6791 H   0  0  0  0  0  0
    6.2967   54.4961   29.0208 H   0  0  0  0  0  0
    7.0760   53.1992   28.1391 H   0  0  0  0  0  0
    6.2870   53.1982   23.6684 H   0  0  0  0  0  0
    7.4849   54.4177   23.2884 H   0  0  0  0  0  0
    4.5992   54.1023   23.2317 H   0  0  0  0  0  0
    4.4688   54.7608   21.3928 H   0  0  0  0  0  0
    3.7475   52.1686   18.0961 H   0  0  0  0  0  0
    1.9772   51.0602   19.2980 H   0  0  0  0  0  0
   -0.2327   50.3117   22.3204 H   0  0  0  0  0  0
   -1.2380   50.0453   20.0750 H   0  0  0  0  0  0
   -1.2746   51.6898   20.6874 H   0  0  0  0  0  0
   -0.1430   51.2541   19.4259 H   0  0  0  0  0  0
    0.5159   48.4079   20.9061 H   0  0  0  0  0  0
    1.9666   49.2911   20.4751 H   0  0  0  0  0  0
    1.6586   48.8966   22.1512 H   0  0  0  0  0  0
    3.6133   51.9952   28.9346 H   0  0  0  0  0  0
    4.5796   53.2225   29.6830 H   0  0  0  0  0  0
    3.0915   55.7310   29.1384 H   0  0  0  0  0  0
    1.1059   56.7388   30.1978 H   0  0  0  0  0  0
   -0.5521   55.2955   31.2816 H   0  0  0  0  0  0
   -0.2751   52.8390   31.3504 H   0  0  0  0  0  0
    1.6931   51.8201   30.2786 H   0  0  0  0  0  0
  1  2  1  0  0  0
  1 31  1  0  0  0
  1 32  1  0  0  0
  1 33  1  0  0  0
  2  6  1  0  0  0
  2  3  2  0  0  0
  3  4  1  0  0  0
  3 24  1  0  0  0
  4  5  1  0  0  0
  5  6  2  0  0  0
  5 10  1  0  0  0
  6  7  1  0  0  0
  7  8  2  0  0  0
  7  9  1  0  0  0
  9 34  1  0  0  0
  9 35  1  0  0  0
 10 11  1  0  0  0
 10 36  1  0  0  0
 11 12  2  0  0  0
 11 13  1  0  0  0
 13 18  2  0  0  0
 13 14  1  0  0  0
 14 15  2  0  0  0
 14 37  1  0  0  0
 15 16  1  0  0  0
 15 23  1  0  0  0
 16 17  2  0  0  0
 16 38  1  0  0  0
 17 18  1  0  0  0
 17 39  1  0  0  0
 18 19  1  0  0  0
 19 20  1  0  0  0
 20 21  1  0  0  0
 20 22  1  0  0  0
 20 40  1  0  0  0
 21 41  1  0  0  0
 21 42  1  0  0  0
 21 43  1  0  0  0
 22 44  1  0  0  0
 22 45  1  0  0  0
 22 46  1  0  0  0
 24 25  1  0  0  0
 24 47  1  0  0  0
 24 48  1  0  0  0
 25 30  2  0  0  0
 25 26  1  0  0  0
 26 27  2  0  0  0
 26 49  1  0  0  0
 27 28  1  0  0  0
 27 50  1  0  0  0
 28 29  2  0  0  0
 28 51  1  0  0  0
 29 30  1  0  0  0
 29 52  1  0  0  0
 30 53  1  0  0  0
M  END
> <i_i_glide_confnum>
54

> <i_i_glide_lignum>
4533

> <i_i_glide_posenum>
62

> <i_i_glide_rotatable_bonds>
8

> <i_m_Source_File_Index>
3223

> <b_m_subgroup_collapsed>
0

> <r_i_docking_score>
-6.60239

> <r_i_glide_ecoul>
-5.05921

> <r_i_glide_eff_state_penalty>
0

> <r_i_glide_einternal>
12.5389

> <r_i_glide_emodel>
-66.9186

> <r_i_glide_energy>
-52.9118

> <r_i_glide_erotb>
0.51343

> <r_i_glide_esite>
0

> <r_i_glide_evdw>
-47.8526

> <r_i_glide_gscore>
-6.60239

> <r_i_glide_hbond>
-0.378682

> <r_i_glide_ligand_efficiency>
-0.22008

> <r_i_glide_ligand_efficiency_ln>
-1.50014

> <r_i_glide_ligand_efficiency_sa>
-0.683839

> <r_i_glide_lipo>
-2.70614

> <r_i_glide_metal>
0

> <r_i_glide_rewards>
-0.879487

> <s_i_glide_gridfile>
wee1_glide-grid

> <s_m_Source_File>
wee1_decoys_glide_SP.sdf

> <s_m_Source_Path>
/Users/zhangxujun/Desktop

> <s_m_entry_id>
3498

> <s_m_entry_name>
wee1_decoys_glide_SP.3223

> <s_m_subgroup_title>
wee1_decoys_glide_SP

> <s_m_subgroupid>
wee1_decoys_glide_SP


$$$$
