ZINC35684227_983
                    3D
 Schrodinger Suite 2024-2.
 44 47  0  0  1  0            999 V2000
    3.4133   51.6714   21.0527 C   0  0  0  0  0  0
    2.9171   50.5178   20.4529 C   0  0  0  0  0  0
    1.6666   50.0284   20.8139 C   0  0  0  0  0  0
    0.8990   50.6970   21.7625 C   0  0  0  0  0  0
    1.3837   51.8643   22.3473 C   0  0  0  0  0  0
    2.6457   52.3732   21.9985 C   0  0  0  0  0  0
    3.1394   53.6359   22.6636 C   0  0  0  0  0  0
    2.4407   54.1998   23.5118 O   0  0  0  0  0  0
    4.5251   54.1577   22.3916 C   0  0  0  0  0  0
    4.8253   54.4967   21.0630 C   0  0  0  0  0  0
    6.0477   55.0692   20.7315 C   0  0  0  0  0  0
    6.9932   55.2970   21.7207 C   0  0  0  0  0  0
    6.7044   54.9643   23.0395 C   0  0  0  0  0  0
    5.4738   54.4097   23.4207 C   0  0  0  0  0  0
    5.1951   54.0964   24.7292 N   0  5  0  0  0  0
    6.1235   54.3483   25.9646 S   0  0  0  0  0  0
    7.1040   53.2967   26.2262 O   0  0  0  0  0  0
    6.6189   55.7176   26.0819 O   0  0  0  0  0  0
    4.8895   54.1547   27.2567 C   0  0  0  0  0  0
    3.6881   54.8731   27.2048 C   0  0  0  0  0  0
    2.7199   54.7151   28.1980 C   0  0  0  0  0  0
    2.9307   53.7914   29.2184 C   0  0  0  0  0  0
    4.1111   53.0326   29.2503 C   0  0  0  0  0  0
    5.0967   53.2338   28.2880 C   0  0  0  0  0  0
    4.3032   52.0087   30.1559 O   0  0  0  0  0  0
    3.4780   52.0996   31.3157 C   0  0  0  0  0  0
    2.0174   52.4599   30.9267 C   0  0  0  0  0  0
    1.9718   53.6932   30.2040 O   0  0  0  0  0  0
    6.4247   55.5472   18.9304 Br  0  0  0  0  0  0
    1.0686   48.5836   20.0821 Cl  0  0  0  0  0  0
    4.3991   51.9946   20.7549 H   0  0  0  0  0  0
    3.5049   50.0038   19.7049 H   0  0  0  0  0  0
   -0.0703   50.3138   22.0445 H   0  0  0  0  0  0
    0.7662   52.3647   23.0803 H   0  0  0  0  0  0
    4.0978   54.3516   20.2750 H   0  0  0  0  0  0
    7.9528   55.7262   21.4720 H   0  0  0  0  0  0
    7.4747   55.1538   23.7710 H   0  0  0  0  0  0
    3.5123   55.5539   26.3843 H   0  0  0  0  0  0
    1.8071   55.2918   28.1654 H   0  0  0  0  0  0
    5.9934   52.6327   28.3150 H   0  0  0  0  0  0
    3.8988   52.8782   31.9523 H   0  0  0  0  0  0
    3.5192   51.1762   31.8910 H   0  0  0  0  0  0
    1.3859   52.5284   31.8139 H   0  0  0  0  0  0
    1.6072   51.6742   30.2912 H   0  0  0  0  0  0
  1  6  2  0  0  0
  1  2  1  0  0  0
  1 31  1  0  0  0
  2  3  2  0  0  0
  2 32  1  0  0  0
  3  4  1  0  0  0
  3 30  1  0  0  0
  4  5  2  0  0  0
  4 33  1  0  0  0
  5  6  1  0  0  0
  5 34  1  0  0  0
  6  7  1  0  0  0
  7  8  2  0  0  0
  7  9  1  0  0  0
  9 14  2  0  0  0
  9 10  1  0  0  0
 10 11  2  0  0  0
 10 35  1  0  0  0
 11 12  1  0  0  0
 11 29  1  0  0  0
 12 13  2  0  0  0
 12 36  1  0  0  0
 13 14  1  0  0  0
 13 37  1  0  0  0
 14 15  1  0  0  0
 15 16  1  0  0  0
 16 17  2  0  0  0
 16 18  2  0  0  0
 16 19  1  0  0  0
 19 24  2  0  0  0
 19 20  1  0  0  0
 20 21  2  0  0  0
 20 38  1  0  0  0
 21 22  1  0  0  0
 21 39  1  0  0  0
 22 28  1  0  0  0
 22 23  2  0  0  0
 23 24  1  0  0  0
 23 25  1  0  0  0
 24 40  1  0  0  0
 25 26  1  0  0  0
 26 27  1  0  0  0
 26 41  1  0  0  0
 26 42  1  0  0  0
 27 28  1  0  0  0
 27 43  1  0  0  0
 27 44  1  0  0  0
M  CHG  1  15  -1
M  END
> <i_i_glide_confnum>
154

> <i_i_glide_lignum>
984

> <i_i_glide_posenum>
268

> <i_i_glide_rotatable_bonds>
5

> <i_m_Source_File_Index>
718

> <b_m_subgroup_collapsed>
0

> <r_i_docking_score>
-3.19247

> <r_i_glide_ecoul>
-5.49898

> <r_i_glide_eff_state_penalty>
0

> <r_i_glide_einternal>
8.96309

> <r_i_glide_emodel>
-46.0616

> <r_i_glide_energy>
-49.4148

> <r_i_glide_erotb>
0.396956

> <r_i_glide_esite>
0

> <r_i_glide_evdw>
-43.9158

> <r_i_glide_gscore>
-3.19247

> <r_i_glide_hbond>
-0.265527

> <r_i_glide_ligand_efficiency>
-0.106416

> <r_i_glide_ligand_efficiency_ln>
-0.725364

> <r_i_glide_ligand_efficiency_sa>
-0.330658

> <r_i_glide_lipo>
-2.75231

> <r_i_glide_metal>
0

> <r_i_glide_rewards>
2.44905

> <s_i_glide_gridfile>
wee1_glide-grid

> <s_m_Source_File>
wee1_decoys_glide_SP.sdf

> <s_m_Source_Path>
/Users/zhangxujun/Desktop

> <s_m_entry_id>
993

> <s_m_entry_name>
wee1_decoys_glide_SP.718

> <s_m_subgroup_title>
wee1_decoys_glide_SP

> <s_m_subgroupid>
wee1_decoys_glide_SP


$$$$
