ZINC39596558_626
                    3D
 Schrodinger Suite 2024-2.
 69 72  0  0  1  0            999 V2000
    5.2739   53.8000   20.5681 C   0  0  0  0  0  0
    5.0250   53.9605   22.0621 C   0  0  0  0  0  0
    6.0938   54.3396   22.8828 C   0  0  0  0  0  0
    5.9075   54.5233   24.2514 C   0  0  0  0  0  0
    4.6440   54.3484   24.8105 C   0  0  0  0  0  0
    3.5720   53.9697   24.0024 C   0  0  0  0  0  0
    3.7503   53.7554   22.6282 C   0  0  0  0  0  0
    2.5450   53.2967   21.7995 C   0  0  0  0  0  0
    2.2118   51.8024   22.0017 C   0  0  0  0  0  0
    3.0896   50.9690   21.7707 O   0  0  0  0  0  0
    0.9767   51.4453   22.4365 N   0  0  0  0  0  0
   -0.1752   52.3453   22.5348 C   0  0  0  0  0  0
   -1.3650   51.3994   22.8375 C   0  0  1  0  0  0
   -1.7994   51.1138   21.8768 H   0  0  0  0  0  0
   -0.6981   50.2076   23.5881 C   0  0  0  0  0  0
    0.6294   50.0719   22.7991 C   0  0  0  0  0  0
   -1.5722   48.9275   23.5782 C   0  0  0  0  0  0
   -0.8523   47.7314   24.2235 C   0  0  0  0  0  0
   -0.4968   48.0993   25.6814 N   0  3  0  0  0  0
    0.3405   49.3858   25.8108 C   0  0  0  0  0  0
   -0.4253   50.5175   25.1005 C   0  0  0  0  0  0
   -2.4522   52.1715   23.6352 C   0  0  0  0  0  0
   -2.2506   53.2966   24.0817 O   0  0  0  0  0  0
   -3.5945   51.5031   23.8664 N   0  0  0  0  0  0
   -4.6472   51.9075   24.8067 C   0  0  0  0  0  0
   -4.6148   51.0719   26.1105 C   0  0  2  0  0  0
   -3.5785   51.0559   26.4484 H   0  0  0  0  0  0
   -5.1012   49.6218   25.8782 C   0  0  0  0  0  0
   -5.4307   51.7206   27.0914 O   0  0  0  0  0  0
   -5.4208   51.2928   28.4085 C   0  0  0  0  0  0
   -6.5043   51.6898   29.1944 C   0  0  0  0  0  0
   -6.5971   51.2871   30.5256 C   0  0  0  0  0  0
   -5.5955   50.4973   31.0825 C   0  0  0  0  0  0
   -4.4932   50.1202   30.3214 C   0  0  0  0  0  0
   -4.4032   50.5147   28.9885 C   0  0  0  0  0  0
   -5.6971   50.0932   32.3674 F   0  0  0  0  0  0
    5.1066   52.7670   20.2598 H   0  0  0  0  0  0
    4.5887   54.4291   20.0003 H   0  0  0  0  0  0
    6.2824   54.0953   20.2805 H   0  0  0  0  0  0
    7.0770   54.4956   22.4646 H   0  0  0  0  0  0
    6.7425   54.8096   24.8736 H   0  0  0  0  0  0
    4.4953   54.4993   25.8700 H   0  0  0  0  0  0
    2.5993   53.8266   24.4499 H   0  0  0  0  0  0
    1.7153   53.9460   22.0770 H   0  0  0  0  0  0
    2.7050   53.4523   20.7348 H   0  0  0  0  0  0
    0.0385   53.0011   23.3800 H   0  0  0  0  0  0
   -0.3443   52.8967   21.6091 H   0  0  0  0  0  0
    0.4355   49.5313   21.8716 H   0  0  0  0  0  0
    1.4092   49.5147   23.3184 H   0  0  0  0  0  0
   -2.5310   49.0914   24.0637 H   0  0  0  0  0  0
   -1.8118   48.6616   22.5476 H   0  0  0  0  0  0
   -1.4748   46.8384   24.2726 H   0  0  0  0  0  0
    0.0927   47.4961   23.7371 H   0  0  0  0  0  0
   -1.3216   48.1994   26.2660 H   0  0  0  0  0  0
    0.4438   49.5671   26.8817 H   0  0  0  0  0  0
    1.3219   49.1636   25.3917 H   0  0  0  0  0  0
    0.1704   51.4279   25.1920 H   0  0  0  0  0  0
   -1.3463   50.7294   25.6461 H   0  0  0  0  0  0
   -3.7447   50.6318   23.3821 H   0  0  0  0  0  0
   -4.5726   52.9676   25.0581 H   0  0  0  0  0  0
   -5.6192   51.8058   24.3209 H   0  0  0  0  0  0
   -4.5507   49.1323   25.0741 H   0  0  0  0  0  0
   -4.9776   49.0001   26.7648 H   0  0  0  0  0  0
   -6.1603   49.5964   25.6116 H   0  0  0  0  0  0
   -7.2875   52.2927   28.7585 H   0  0  0  0  0  0
   -7.4499   51.5733   31.1237 H   0  0  0  0  0  0
   -3.7009   49.5233   30.7571 H   0  0  0  0  0  0
   -3.5308   50.2015   28.4345 H   0  0  0  0  0  0
    0.0296   47.3447   26.1304 H   0  0  0  0  0  0
  1  2  1  0  0  0
  1 37  1  0  0  0
  1 38  1  0  0  0
  1 39  1  0  0  0
  2  7  2  0  0  0
  2  3  1  0  0  0
  3  4  2  0  0  0
  3 40  1  0  0  0
  4  5  1  0  0  0
  4 41  1  0  0  0
  5  6  2  0  0  0
  5 42  1  0  0  0
  6  7  1  0  0  0
  6 43  1  0  0  0
  7  8  1  0  0  0
  8  9  1  0  0  0
  8 44  1  0  0  0
  8 45  1  0  0  0
  9 10  2  0  0  0
  9 11  1  0  0  0
 11 16  1  0  0  0
 11 12  1  0  0  0
 12 13  1  0  0  0
 12 46  1  0  0  0
 12 47  1  0  0  0
 13 14  1  0  0  0
 13 15  1  0  0  0
 13 22  1  0  0  0
 15 21  1  0  0  0
 15 16  1  0  0  0
 15 17  1  0  0  0
 16 48  1  0  0  0
 16 49  1  0  0  0
 17 18  1  0  0  0
 17 50  1  0  0  0
 17 51  1  0  0  0
 18 19  1  0  0  0
 18 52  1  0  0  0
 18 53  1  0  0  0
 19 20  1  0  0  0
 19 54  1  0  0  0
 19 69  1  0  0  0
 20 21  1  0  0  0
 20 55  1  0  0  0
 20 56  1  0  0  0
 21 57  1  0  0  0
 21 58  1  0  0  0
 22 23  2  0  0  0
 22 24  1  0  0  0
 24 25  1  0  0  0
 24 59  1  0  0  0
 25 26  1  0  0  0
 25 60  1  0  0  0
 25 61  1  0  0  0
 26 27  1  0  0  0
 26 28  1  0  0  0
 26 29  1  0  0  0
 28 62  1  0  0  0
 28 63  1  0  0  0
 28 64  1  0  0  0
 29 30  1  0  0  0
 30 35  2  0  0  0
 30 31  1  0  0  0
 31 32  2  0  0  0
 31 65  1  0  0  0
 32 33  1  0  0  0
 32 66  1  0  0  0
 33 34  2  0  0  0
 33 36  1  0  0  0
 34 35  1  0  0  0
 34 67  1  0  0  0
 35 68  1  0  0  0
M  CHG  1  19   1
M  END
> <i_i_glide_confnum>
383

> <i_i_glide_lignum>
627

> <i_i_glide_posenum>
274

> <i_i_glide_rotatable_bonds>
9

> <i_m_Source_File_Index>
990

> <b_m_subgroup_collapsed>
0

> <r_i_docking_score>
-4.67588

> <r_i_glide_ecoul>
-8.96148

> <r_i_glide_eff_state_penalty>
0

> <r_i_glide_einternal>
10.5223

> <r_i_glide_emodel>
-53.3815

> <r_i_glide_energy>
-43.5131

> <r_i_glide_erotb>
0.735656

> <r_i_glide_esite>
-0.150468

> <r_i_glide_evdw>
-34.5516

> <r_i_glide_gscore>
-4.67588

> <r_i_glide_hbond>
-0.0929294

> <r_i_glide_ligand_efficiency>
-0.137526

> <r_i_glide_ligand_efficiency_ln>
-1.03303

> <r_i_glide_ligand_efficiency_sa>
-0.44553

> <r_i_glide_lipo>
-1.58503

> <r_i_glide_metal>
0

> <r_i_glide_rewards>
-0.5113

> <s_i_glide_gridfile>
wee1_glide-grid

> <s_m_Source_File>
wee1_decoys_glide_SP.sdf

> <s_m_Source_Path>
/Users/zhangxujun/Desktop

> <s_m_entry_id>
1265

> <s_m_entry_name>
wee1_decoys_glide_SP.990

> <s_m_subgroup_title>
wee1_decoys_glide_SP

> <s_m_subgroupid>
wee1_decoys_glide_SP


$$$$
