ZINC12688722_2088
                    3D
 Schrodinger Suite 2024-2.
 58 61  0  0  1  0            999 V2000
    3.1076   58.4964   16.2005 C   0  0  0  0  0  0
    4.4673   58.4766   16.4773 C   0  0  0  0  0  0
    5.1047   57.2656   16.7160 C   0  0  0  0  0  0
    4.4044   56.0499   16.6818 C   0  0  0  0  0  0
    3.0139   56.0627   16.3905 C   0  0  0  0  0  0
    2.3929   57.3029   16.1532 C   0  0  0  0  0  0
    2.1422   54.7988   16.3000 C   0  0  0  0  0  0
    0.8397   55.0880   16.2282 F   0  0  0  0  0  0
    2.4537   54.1162   15.1983 F   0  0  0  0  0  0
    2.2934   54.0203   17.3671 F   0  0  0  0  0  0
    5.4157   54.5741   17.0121 S   0  0  0  0  0  0
    6.7729   54.9070   16.5614 O   0  0  0  0  0  0
    4.7508   53.3915   16.4589 O   0  0  0  0  0  0
    5.4823   54.4256   18.7834 N   0  0  0  0  0  0
    5.9344   55.6538   19.4870 C   0  0  0  0  0  0
    6.2749   55.3728   20.9630 C   0  0  0  0  0  0
    5.1290   54.5970   21.6802 C   0  0  0  0  0  0
    4.7049   53.3343   20.8864 C   0  0  0  0  0  0
    4.3482   53.7204   19.4343 C   0  0  0  0  0  0
    5.5977   54.2118   23.1006 C   0  0  0  0  0  0
    6.7045   53.6953   23.2596 O   0  0  0  0  0  0
    4.7539   54.4962   24.1183 N   0  0  0  0  0  0
    5.0370   54.3941   25.4918 C   0  0  0  0  0  0
    6.3235   54.6116   26.0043 C   0  0  0  0  0  0
    6.5638   54.4960   27.3662 C   0  0  0  0  0  0
    5.5229   54.1780   28.2311 C   0  0  0  0  0  0
    4.2252   53.9604   27.7526 C   0  0  0  0  0  0
    3.9883   54.0943   26.3711 C   0  0  0  0  0  0
    3.1349   53.5750   28.7265 C   0  0  0  0  0  0
    3.1820   53.9363   29.9063 O   0  0  0  0  0  0
    2.1672   52.7778   28.2398 N   0  0  0  0  0  0
    1.1330   52.1500   29.0562 C   0  0  0  0  0  0
    0.0559   53.0050   29.6842 C   0  0  0  0  0  0
   -0.2759   52.0961   28.5208 C   0  0  0  0  0  0
    2.6123   59.4420   16.0275 H   0  0  0  0  0  0
    5.0310   59.3985   16.5059 H   0  0  0  0  0  0
    6.1645   57.2854   16.9279 H   0  0  0  0  0  0
    1.3381   57.3626   15.9292 H   0  0  0  0  0  0
    5.1050   56.3601   19.5076 H   0  0  0  0  0  0
    6.8098   56.0658   18.9835 H   0  0  0  0  0  0
    6.4432   56.3423   21.4340 H   0  0  0  0  0  0
    7.2066   54.8087   20.9327 H   0  0  0  0  0  0
    4.2622   55.2518   21.7833 H   0  0  0  0  0  0
    5.5048   52.5979   20.8121 H   0  0  0  0  0  0
    3.8087   52.8816   21.3141 H   0  0  0  0  0  0
    3.5058   54.4097   19.5073 H   0  0  0  0  0  0
    4.1003   52.8194   18.8696 H   0  0  0  0  0  0
    3.8111   54.7609   23.8789 H   0  0  0  0  0  0
    7.1448   54.8723   25.3544 H   0  0  0  0  0  0
    7.5556   54.6588   27.7589 H   0  0  0  0  0  0
    5.7442   54.0967   29.2817 H   0  0  0  0  0  0
    2.9952   53.9422   25.9725 H   0  0  0  0  0  0
    2.3206   52.3711   27.3297 H   0  0  0  0  0  0
    1.4933   51.2962   29.6316 H   0  0  0  0  0  0
    0.0892   54.0840   29.5289 H   0  0  0  0  0  0
   -0.2926   52.7396   30.6840 H   0  0  0  0  0  0
   -0.8582   51.1900   28.6993 H   0  0  0  0  0  0
   -0.4845   52.5351   27.5446 H   0  0  0  0  0  0
  1  6  2  0  0  0
  1  2  1  0  0  0
  1 35  1  0  0  0
  2  3  2  0  0  0
  2 36  1  0  0  0
  3  4  1  0  0  0
  3 37  1  0  0  0
  4  5  2  0  0  0
  4 11  1  0  0  0
  5  6  1  0  0  0
  5  7  1  0  0  0
  6 38  1  0  0  0
  7  8  1  0  0  0
  7  9  1  0  0  0
  7 10  1  0  0  0
 11 12  2  0  0  0
 11 13  2  0  0  0
 11 14  1  0  0  0
 14 19  1  0  0  0
 14 15  1  0  0  0
 15 16  1  0  0  0
 15 39  1  0  0  0
 15 40  1  0  0  0
 16 17  1  0  0  0
 16 41  1  0  0  0
 16 42  1  0  0  0
 17 18  1  0  0  0
 17 20  1  0  0  0
 17 43  1  0  0  0
 18 19  1  0  0  0
 18 44  1  0  0  0
 18 45  1  0  0  0
 19 46  1  0  0  0
 19 47  1  0  0  0
 20 21  2  0  0  0
 20 22  1  0  0  0
 22 23  1  0  0  0
 22 48  1  0  0  0
 23 28  2  0  0  0
 23 24  1  0  0  0
 24 25  2  0  0  0
 24 49  1  0  0  0
 25 26  1  0  0  0
 25 50  1  0  0  0
 26 27  2  0  0  0
 26 51  1  0  0  0
 27 28  1  0  0  0
 27 29  1  0  0  0
 28 52  1  0  0  0
 29 30  2  0  0  0
 29 31  1  0  0  0
 31 32  1  0  0  0
 31 53  1  0  0  0
 32 34  1  0  0  0
 32 33  1  0  0  0
 32 54  1  0  0  0
 33 34  1  0  0  0
 33 55  1  0  0  0
 33 56  1  0  0  0
 34 57  1  0  0  0
 34 58  1  0  0  0
M  END
> <i_i_glide_confnum>
161

> <i_i_glide_lignum>
2089

> <i_i_glide_posenum>
63

> <i_i_glide_rotatable_bonds>
9

> <i_m_Source_File_Index>
2386

> <b_m_subgroup_collapsed>
0

> <r_i_docking_score>
-5.53553

> <r_i_glide_ecoul>
-3.67137

> <r_i_glide_eff_state_penalty>
0

> <r_i_glide_einternal>
4.85543

> <r_i_glide_emodel>
-64.8339

> <r_i_glide_energy>
-51.4135

> <r_i_glide_erotb>
0.66421

> <r_i_glide_esite>
-0.056494

> <r_i_glide_evdw>
-47.7421

> <r_i_glide_gscore>
-5.53553

> <r_i_glide_hbond>
-0.32

> <r_i_glide_ligand_efficiency>
-0.16281

> <r_i_glide_ligand_efficiency_ln>
-1.22295

> <r_i_glide_ligand_efficiency_sa>
-0.527441

> <r_i_glide_lipo>
-2.44075

> <r_i_glide_metal>
0

> <r_i_glide_rewards>
-0.444686

> <s_i_glide_gridfile>
wee1_glide-grid

> <s_m_Source_File>
wee1_decoys_glide_SP.sdf

> <s_m_Source_Path>
/Users/zhangxujun/Desktop

> <s_m_entry_id>
2661

> <s_m_entry_name>
wee1_decoys_glide_SP.2386

> <s_m_subgroup_title>
wee1_decoys_glide_SP

> <s_m_subgroupid>
wee1_decoys_glide_SP


$$$$
