ZINC37593613_4194
                    3D
 Schrodinger Suite 2024-2.
 64 67  0  0  1  0            999 V2000
    4.1008   54.0913   29.7114 C   0  0  0  0  0  0
    3.7585   54.2222   28.2206 C   0  0  2  0  0  0
    3.2724   55.1922   28.0964 H   0  0  0  0  0  0
    2.8202   53.0854   27.7697 C   0  0  0  0  0  0
    2.2733   53.3277   26.3490 C   0  0  0  0  0  0
    3.4073   53.7498   25.4012 C   0  0  0  0  0  0
    4.6614   54.1431   25.8983 C   0  0  0  0  0  0
    5.7853   54.4972   24.6385 S   0  0  0  0  0  0
    4.5904   54.1427   23.4135 C   0  0  0  0  0  0
    3.3732   53.6980   23.9817 C   0  0  0  0  0  0
    2.1724   53.3620   23.2315 C   0  0  0  0  0  0
    1.0487   53.6461   23.6489 O   0  0  0  0  0  0
    2.3939   52.7360   22.0623 N   0  0  0  0  0  0
    1.3592   52.3599   21.1056 C   0  0  0  0  0  0
    4.8302   54.3471   22.0521 N   0  0  0  0  0  0
    5.9043   54.8962   21.4421 C   0  0  0  0  0  0
    6.8992   55.3468   22.0119 O   0  0  0  0  0  0
    5.7920   54.9900   19.9410 C   0  0  0  0  0  0
    6.3112   56.1124   19.2813 C   0  0  0  0  0  0
    6.1912   56.2361   17.9012 C   0  0  0  0  0  0
    5.5565   55.2318   17.1687 C   0  0  0  0  0  0
    5.0551   54.0971   17.8108 C   0  0  0  0  0  0
    5.1747   53.9761   19.1920 C   0  0  0  0  0  0
    5.3695   55.4194   15.3966 S   0  0  0  0  0  0
    6.5459   56.1531   14.9137 O   0  0  0  0  0  0
    5.0375   54.0977   14.8531 O   0  0  0  0  0  0
    3.9486   56.4600   15.1989 N   0  0  0  0  0  0
    2.6630   55.8851   15.6772 C   0  0  0  0  0  0
    1.4706   56.6993   15.1277 C   0  0  0  0  0  0
    1.6358   58.2159   15.3795 C   0  0  0  0  0  0
    3.0144   58.7455   14.9122 C   0  0  1  0  0  0
    3.1269   59.7631   15.2895 H   0  0  0  0  0  0
    4.1348   57.8939   15.5568 C   0  0  0  0  0  0
    3.1409   58.8071   13.3768 C   0  0  0  0  0  0
    5.0500   54.1986   27.3713 C   0  0  0  0  0  0
    4.5637   53.1269   29.9265 H   0  0  0  0  0  0
    4.7861   54.8775   30.0319 H   0  0  0  0  0  0
    3.2000   54.1683   30.3187 H   0  0  0  0  0  0
    1.9731   53.0169   28.4549 H   0  0  0  0  0  0
    3.3150   52.1165   27.8608 H   0  0  0  0  0  0
    1.7763   52.4252   25.9934 H   0  0  0  0  0  0
    1.5045   54.0990   26.3710 H   0  0  0  0  0  0
    3.3091   52.3436   21.9034 H   0  0  0  0  0  0
    1.6964   52.5812   20.0920 H   0  0  0  0  0  0
    1.1575   51.2905   21.1735 H   0  0  0  0  0  0
    0.4227   52.8965   21.2675 H   0  0  0  0  0  0
    4.0463   54.1392   21.4489 H   0  0  0  0  0  0
    6.7989   56.9018   19.8335 H   0  0  0  0  0  0
    6.5852   57.1131   17.4039 H   0  0  0  0  0  0
    4.5790   53.3054   17.2474 H   0  0  0  0  0  0
    4.7856   53.0836   19.6620 H   0  0  0  0  0  0
    2.5787   54.8424   15.3678 H   0  0  0  0  0  0
    2.6178   55.9914   16.7629 H   0  0  0  0  0  0
    1.3684   56.5098   14.0586 H   0  0  0  0  0  0
    0.5435   56.3458   15.5799 H   0  0  0  0  0  0
    0.8319   58.7634   14.8845 H   0  0  0  0  0  0
    1.5198   58.4127   16.4468 H   0  0  0  0  0  0
    4.0132   57.9909   16.6374 H   0  0  0  0  0  0
    5.1145   58.2393   15.2248 H   0  0  0  0  0  0
    3.0592   57.8202   12.9202 H   0  0  0  0  0  0
    2.3642   59.4380   12.9428 H   0  0  0  0  0  0
    4.1037   59.2254   13.0802 H   0  0  0  0  0  0
    5.6673   55.0721   27.5856 H   0  0  0  0  0  0
    5.6433   53.3158   27.6173 H   0  0  0  0  0  0
  1  2  1  0  0  0
  1 36  1  0  0  0
  1 37  1  0  0  0
  1 38  1  0  0  0
  2  3  1  0  0  0
  2 35  1  0  0  0
  2  4  1  0  0  0
  4  5  1  0  0  0
  4 39  1  0  0  0
  4 40  1  0  0  0
  5  6  1  0  0  0
  5 41  1  0  0  0
  5 42  1  0  0  0
  6 10  1  0  0  0
  6  7  2  0  0  0
  7  8  1  0  0  0
  7 35  1  0  0  0
  8  9  1  0  0  0
  9 10  2  0  0  0
  9 15  1  0  0  0
 10 11  1  0  0  0
 11 12  2  0  0  0
 11 13  1  0  0  0
 13 14  1  0  0  0
 13 43  1  0  0  0
 14 44  1  0  0  0
 14 45  1  0  0  0
 14 46  1  0  0  0
 15 16  1  0  0  0
 15 47  1  0  0  0
 16 17  2  0  0  0
 16 18  1  0  0  0
 18 23  2  0  0  0
 18 19  1  0  0  0
 19 20  2  0  0  0
 19 48  1  0  0  0
 20 21  1  0  0  0
 20 49  1  0  0  0
 21 22  2  0  0  0
 21 24  1  0  0  0
 22 23  1  0  0  0
 22 50  1  0  0  0
 23 51  1  0  0  0
 24 25  2  0  0  0
 24 26  2  0  0  0
 24 27  1  0  0  0
 27 33  1  0  0  0
 27 28  1  0  0  0
 28 29  1  0  0  0
 28 52  1  0  0  0
 28 53  1  0  0  0
 29 30  1  0  0  0
 29 54  1  0  0  0
 29 55  1  0  0  0
 30 31  1  0  0  0
 30 56  1  0  0  0
 30 57  1  0  0  0
 31 32  1  0  0  0
 31 33  1  0  0  0
 31 34  1  0  0  0
 33 58  1  0  0  0
 33 59  1  0  0  0
 34 60  1  0  0  0
 34 61  1  0  0  0
 34 62  1  0  0  0
 35 63  1  0  0  0
 35 64  1  0  0  0
M  END
> <i_i_glide_confnum>
1

> <i_i_glide_lignum>
4195

> <i_i_glide_posenum>
202

> <i_i_glide_rotatable_bonds>
7

> <i_m_Source_File_Index>
4842

> <b_m_subgroup_collapsed>
0

> <r_i_docking_score>
-4.40841

> <r_i_glide_ecoul>
-0.578034

> <r_i_glide_eff_state_penalty>
0

> <r_i_glide_einternal>
2.23097

> <r_i_glide_emodel>
-51.1643

> <r_i_glide_energy>
-39.6558

> <r_i_glide_erotb>
0.509135

> <r_i_glide_esite>
0

> <r_i_glide_evdw>
-39.0778

> <r_i_glide_gscore>
-4.40841

> <r_i_glide_hbond>
0

> <r_i_glide_ligand_efficiency>
-0.133588

> <r_i_glide_ligand_efficiency_ln>
-0.980407

> <r_i_glide_ligand_efficiency_sa>
-0.428488

> <r_i_glide_lipo>
-2.26703

> <r_i_glide_metal>
0

> <r_i_glide_rewards>
-0.609915

> <s_i_glide_gridfile>
wee1_glide-grid

> <s_m_Source_File>
wee1_decoys_glide_SP.sdf

> <s_m_Source_Path>
/Users/zhangxujun/Desktop

> <s_m_entry_id>
5117

> <s_m_entry_name>
wee1_decoys_glide_SP.4842

> <s_m_subgroup_title>
wee1_decoys_glide_SP

> <s_m_subgroupid>
wee1_decoys_glide_SP


$$$$
