ZINC36568104_4289
                    3D
 Schrodinger Suite 2024-2.
 46 47  0  0  1  0            999 V2000
    7.9901   58.6754   17.3500 C   0  0  0  0  0  0
    7.0567   57.4491   17.3212 C   0  0  0  0  0  0
    6.6258   56.9482   18.7076 C   0  0  0  0  0  0
    6.7043   57.6964   19.6823 O   0  0  0  0  0  0
    6.1593   55.6824   18.7401 N   0  0  0  0  0  0
    5.6383   54.9542   19.8276 C   0  0  0  0  0  0
    4.5157   54.1591   19.5401 C   0  0  0  0  0  0
    3.9603   53.3166   20.5090 C   0  0  0  0  0  0
    4.5756   53.2298   21.7598 C   0  0  0  0  0  0
    5.6487   54.0462   22.0785 C   0  0  0  0  0  0
    6.2099   54.8967   21.1218 C   0  0  0  0  0  0
    7.5025   55.5840   21.5170 C   0  0  0  0  0  0
    2.7897   52.5853   20.2060 N   0  0  0  0  0  0
    1.7012   52.3347   21.0007 C   0  0  0  0  0  0
    0.4805   51.3973   20.3539 S   0  0  0  0  0  0
    1.7360   52.9114   22.2464 N   0  0  0  0  0  0
    0.9339   52.8682   23.3380 C   0  0  0  0  0  0
   -0.2425   52.4975   23.3444 O   0  0  0  0  0  0
    1.6229   53.2823   24.6278 C   0  0  0  0  0  0
    1.1052   52.8721   25.8632 C   0  0  0  0  0  0
    1.7717   53.1583   27.0551 C   0  0  0  0  0  0
    2.9825   53.8556   27.0406 C   0  0  0  0  0  0
    3.5041   54.2913   25.8166 C   0  0  0  0  0  0
    2.8105   54.0369   24.6329 C   0  0  0  0  0  0
    5.3403   55.2956   25.6814 I   0  0  0  0  0  0
    3.7110   54.1247   28.3484 C   0  0  0  0  0  0
    8.2653   58.9647   16.3355 H   0  0  0  0  0  0
    8.9176   58.4688   17.8873 H   0  0  0  0  0  0
    7.5035   59.5445   17.7962 H   0  0  0  0  0  0
    6.1539   57.7063   16.7657 H   0  0  0  0  0  0
    7.5433   56.6405   16.7732 H   0  0  0  0  0  0
    6.0222   55.2448   17.8414 H   0  0  0  0  0  0
    4.0601   54.2034   18.5591 H   0  0  0  0  0  0
    4.2303   52.5206   22.4930 H   0  0  0  0  0  0
    6.0967   53.9528   23.0578 H   0  0  0  0  0  0
    7.9045   55.1302   22.4193 H   0  0  0  0  0  0
    8.2580   55.5042   20.7355 H   0  0  0  0  0  0
    7.3263   56.6288   21.7356 H   0  0  0  0  0  0
    2.7207   52.2617   19.2523 H   0  0  0  0  0  0
    2.6171   53.3617   22.4331 H   0  0  0  0  0  0
    0.1877   52.2985   25.9110 H   0  0  0  0  0  0
    1.3474   52.8144   27.9876 H   0  0  0  0  0  0
    3.2344   54.4231   23.7191 H   0  0  0  0  0  0
    3.1745   53.7277   29.2108 H   0  0  0  0  0  0
    4.7028   53.6716   28.3272 H   0  0  0  0  0  0
    3.8442   55.1969   28.4927 H   0  0  0  0  0  0
  1  2  1  0  0  0
  1 27  1  0  0  0
  1 28  1  0  0  0
  1 29  1  0  0  0
  2  3  1  0  0  0
  2 30  1  0  0  0
  2 31  1  0  0  0
  3  4  2  0  0  0
  3  5  1  0  0  0
  5  6  1  0  0  0
  5 32  1  0  0  0
  6 11  2  0  0  0
  6  7  1  0  0  0
  7  8  2  0  0  0
  7 33  1  0  0  0
  8  9  1  0  0  0
  8 13  1  0  0  0
  9 10  2  0  0  0
  9 34  1  0  0  0
 10 11  1  0  0  0
 10 35  1  0  0  0
 11 12  1  0  0  0
 12 36  1  0  0  0
 12 37  1  0  0  0
 12 38  1  0  0  0
 13 14  1  0  0  0
 13 39  1  0  0  0
 14 15  2  0  0  0
 14 16  1  0  0  0
 16 17  1  0  0  0
 16 40  1  0  0  0
 17 18  2  0  0  0
 17 19  1  0  0  0
 19 24  2  0  0  0
 19 20  1  0  0  0
 20 21  2  0  0  0
 20 41  1  0  0  0
 21 22  1  0  0  0
 21 42  1  0  0  0
 22 23  2  0  0  0
 22 26  1  0  0  0
 23 24  1  0  0  0
 23 25  1  0  0  0
 24 43  1  0  0  0
 26 44  1  0  0  0
 26 45  1  0  0  0
 26 46  1  0  0  0
M  END
> <i_i_glide_confnum>
24

> <i_i_glide_lignum>
4290

> <i_i_glide_posenum>
302

> <i_i_glide_rotatable_bonds>
8

> <i_m_Source_File_Index>
2142

> <b_m_subgroup_collapsed>
0

> <r_i_docking_score>
-4.96185

> <r_i_glide_ecoul>
-5.1808

> <r_i_glide_eff_state_penalty>
0

> <r_i_glide_einternal>
8.30184

> <r_i_glide_emodel>
-49.2399

> <r_i_glide_energy>
-40.2709

> <r_i_glide_erotb>
0.612862

> <r_i_glide_esite>
-0.0513713

> <r_i_glide_evdw>
-35.0901

> <r_i_glide_gscore>
-4.96185

> <r_i_glide_hbond>
-0.32

> <r_i_glide_ligand_efficiency>
-0.19084

> <r_i_glide_ligand_efficiency_ln>
-1.16527

> <r_i_glide_ligand_efficiency_sa>
-0.565364

> <r_i_glide_lipo>
-2.43671

> <r_i_glide_metal>
0

> <r_i_glide_rewards>
-0.234999

> <s_i_glide_gridfile>
wee1_glide-grid

> <s_m_Source_File>
wee1_decoys_glide_SP.sdf

> <s_m_Source_Path>
/Users/zhangxujun/Desktop

> <s_m_entry_id>
2417

> <s_m_entry_name>
wee1_decoys_glide_SP.2142

> <s_m_subgroup_title>
wee1_decoys_glide_SP

> <s_m_subgroupid>
wee1_decoys_glide_SP


$$$$
