ZINC35555853_5244
                    3D
 Schrodinger Suite 2024-2.
 60 64  0  0  1  0            999 V2000
    4.5423   54.0965   26.8112 C   0  0  0  0  0  0
    3.3868   53.8745   27.5634 C   0  0  0  0  0  0
    2.1780   53.6488   26.9033 C   0  0  0  0  0  0
    2.1490   53.6535   25.5538 N   0  3  0  0  0  0
    3.2303   53.8866   24.7753 C   0  0  0  0  0  0
    4.4646   54.0997   25.4153 C   0  0  0  0  0  0
    3.0933   53.8619   23.3454 N   0  0  0  0  0  0
    4.1229   54.3317   22.4024 C   0  0  0  0  0  0
    4.7402   53.1202   21.6942 C   0  0  0  0  0  0
    3.7444   52.3999   20.8813 N   0  0  0  0  0  0
    3.5109   52.7801   19.5434 C   0  0  0  0  0  0
    4.5514   53.2972   18.7514 C   0  0  0  0  0  0
    4.3794   53.5463   17.3934 C   0  0  0  0  0  0
    3.1625   53.2665   16.7749 C   0  0  0  0  0  0
    2.1249   52.7392   17.5454 C   0  0  0  0  0  0
    2.2754   52.4957   18.9153 C   0  0  0  0  0  0
    1.0912   51.9999   19.7227 C   0  0  0  0  0  0
    1.5815   51.1616   20.9192 C   0  0  1  0  0  0
    2.0490   50.2475   20.5466 H   0  0  0  0  0  0
    2.6253   51.9591   21.7594 C   0  0  2  0  0  0
    3.0958   51.2223   22.4131 H   0  0  0  0  0  0
    2.0332   53.1292   22.6213 C   0  0  0  0  0  0
    0.3809   50.7044   21.7803 C   0  0  0  0  0  0
   -0.6663   51.3561   21.7955 O   0  0  0  0  0  0
    0.5518   49.5900   22.5142 N   0  0  0  0  0  0
   -0.4315   49.0645   23.4644 C   0  0  0  0  0  0
   -0.5805   49.9405   24.7016 C   0  0  0  0  0  0
    0.3045   49.7803   25.7679 C   0  0  0  0  0  0
    0.2028   50.6077   26.8812 C   0  0  0  0  0  0
   -0.8096   51.5600   26.9468 C   0  0  0  0  0  0
   -1.7203   51.6995   25.9032 C   0  0  0  0  0  0
   -1.6095   50.8845   24.7795 C   0  0  0  0  0  0
   -0.8952   52.3679   28.0262 F   0  0  0  0  0  0
    2.9748   53.5193   15.2803 C   0  0  0  0  0  0
    4.1213   53.3721   14.6141 F   0  0  0  0  0  0
    2.0784   52.6843   14.7513 F   0  0  0  0  0  0
    2.5412   54.7671   15.1066 F   0  0  0  0  0  0
    5.4907   54.2572   27.3050 H   0  0  0  0  0  0
    3.4325   53.8695   28.6429 H   0  0  0  0  0  0
    1.2377   53.4666   27.4038 H   0  0  0  0  0  0
    5.3736   54.2506   24.8534 H   0  0  0  0  0  0
    4.8879   54.8958   22.9314 H   0  0  0  0  0  0
    3.6816   55.0262   21.6874 H   0  0  0  0  0  0
    5.0787   52.4409   22.4765 H   0  0  0  0  0  0
    5.6522   53.3771   21.1641 H   0  0  0  0  0  0
    5.5335   53.4801   19.1519 H   0  0  0  0  0  0
    5.2079   53.9351   16.8191 H   0  0  0  0  0  0
    1.1737   52.5291   17.0774 H   0  0  0  0  0  0
    0.4014   51.4336   19.0934 H   0  0  0  0  0  0
    0.5729   52.8958   20.0683 H   0  0  0  0  0  0
    1.5023   53.8549   22.0074 H   0  0  0  0  0  0
    1.3142   52.7351   23.3380 H   0  0  0  0  0  0
    1.4545   49.1393   22.5064 H   0  0  0  0  0  0
   -0.1180   48.0661   23.7740 H   0  0  0  0  0  0
   -1.3995   48.9329   22.9751 H   0  0  0  0  0  0
    1.0820   49.0295   25.7295 H   0  0  0  0  0  0
    0.8960   50.4984   27.7002 H   0  0  0  0  0  0
   -2.5050   52.4383   25.9650 H   0  0  0  0  0  0
   -2.3070   51.0008   23.9626 H   0  0  0  0  0  0
    1.2665   53.4808   25.0923 H   0  0  0  0  0  0
  1  6  2  0  0  0
  1  2  1  0  0  0
  1 38  1  0  0  0
  2  3  2  0  0  0
  2 39  1  0  0  0
  3  4  1  0  0  0
  3 40  1  0  0  0
  4  5  2  0  0  0
  4 60  1  0  0  0
  5  6  1  0  0  0
  5  7  1  0  0  0
  6 41  1  0  0  0
  7 22  1  0  0  0
  7  8  1  0  0  0
  8  9  1  0  0  0
  8 42  1  0  0  0
  8 43  1  0  0  0
  9 10  1  0  0  0
  9 44  1  0  0  0
  9 45  1  0  0  0
 10 20  1  0  0  0
 10 11  1  0  0  0
 11 16  2  0  0  0
 11 12  1  0  0  0
 12 13  2  0  0  0
 12 46  1  0  0  0
 13 14  1  0  0  0
 13 47  1  0  0  0
 14 15  2  0  0  0
 14 34  1  0  0  0
 15 16  1  0  0  0
 15 48  1  0  0  0
 16 17  1  0  0  0
 17 18  1  0  0  0
 17 49  1  0  0  0
 17 50  1  0  0  0
 18 19  1  0  0  0
 18 20  1  0  0  0
 18 23  1  0  0  0
 20 21  1  0  0  0
 20 22  1  0  0  0
 22 51  1  0  0  0
 22 52  1  0  0  0
 23 24  2  0  0  0
 23 25  1  0  0  0
 25 26  1  0  0  0
 25 53  1  0  0  0
 26 27  1  0  0  0
 26 54  1  0  0  0
 26 55  1  0  0  0
 27 32  2  0  0  0
 27 28  1  0  0  0
 28 29  2  0  0  0
 28 56  1  0  0  0
 29 30  1  0  0  0
 29 57  1  0  0  0
 30 31  2  0  0  0
 30 33  1  0  0  0
 31 32  1  0  0  0
 31 58  1  0  0  0
 32 59  1  0  0  0
 34 35  1  0  0  0
 34 36  1  0  0  0
 34 37  1  0  0  0
M  CHG  1   4   1
M  END
> <i_i_glide_confnum>
44

> <i_i_glide_lignum>
5245

> <i_i_glide_posenum>
57

> <i_i_glide_rotatable_bonds>
6

> <i_m_Source_File_Index>
1634

> <b_m_subgroup_collapsed>
0

> <r_i_docking_score>
-3.49747

> <r_i_glide_ecoul>
-0.0549642

> <r_i_glide_eff_state_penalty>
0

> <r_i_glide_einternal>
1.55246

> <r_i_glide_emodel>
-47.5425

> <r_i_glide_energy>
-36.8209

> <r_i_glide_erotb>
0.344759

> <r_i_glide_esite>
-0.0283357

> <r_i_glide_evdw>
-36.7659

> <r_i_glide_gscore>
-3.49747

> <r_i_glide_hbond>
0

> <r_i_glide_ligand_efficiency>
-0.0999276

> <r_i_glide_ligand_efficiency_ln>
-0.767771

> <r_i_glide_ligand_efficiency_sa>
-0.32687

> <r_i_glide_lipo>
-1.5214

> <r_i_glide_metal>
0

> <r_i_glide_rewards>
-0.44595

> <s_i_glide_gridfile>
wee1_glide-grid

> <s_m_Source_File>
wee1_decoys_glide_SP.sdf

> <s_m_Source_Path>
/Users/zhangxujun/Desktop

> <s_m_entry_id>
1909

> <s_m_entry_name>
wee1_decoys_glide_SP.1634

> <s_m_subgroup_title>
wee1_decoys_glide_SP

> <s_m_subgroupid>
wee1_decoys_glide_SP


$$$$
