ZINC08789614_4617
                    3D
 Schrodinger Suite 2024-2.
 80 84  0  0  1  0            999 V2000
    2.0338   51.4520   28.2375 C   0  0  0  0  0  0
    1.3718   52.8602   28.1066 C   0  0  2  0  0  0
   -0.1678   52.6998   27.9770 C   0  0  0  0  0  0
   -0.5646   51.8793   26.7262 C   0  0  0  0  0  0
    0.0848   52.3901   25.3925 C   0  0  1  0  0  0
   -0.4844   53.2932   25.1674 H   0  0  0  0  0  0
    1.5600   52.9109   25.5289 C   0  0  2  0  0  0
    2.2593   52.0946   25.5372 H   0  0  0  0  0  0
    1.8152   53.6608   26.8601 C   0  0  2  0  0  0
    1.1875   54.5409   26.8642 H   0  0  0  0  0  0
    3.2350   54.1386   27.1780 C   0  0  0  0  0  0
    3.2434   54.3661   28.7003 C   0  0  0  0  0  0
    1.9115   53.7883   29.2556 C   0  0  1  0  0  0
    0.9534   54.9260   29.6755 C   0  0  0  0  0  0
    2.1309   53.1245   30.4829 O   0  0  0  0  0  0
    1.9126   53.6906   24.2506 C   0  0  0  0  0  0
    1.8886   52.7420   23.0321 C   0  0  0  0  0  0
    0.5036   52.1011   22.8785 C   0  0  0  0  0  0
   -0.1433   52.1042   21.6875 C   0  0  0  0  0  0
   -1.4825   51.6334   21.4513 C   0  0  0  0  0  0
   -1.9500   51.6207   20.2591 N   0  0  0  0  0  0
   -3.3006   51.1795   20.1295 O   0  0  0  0  0  0
   -3.4524   49.7446   20.0925 C   0  0  0  0  0  0
   -2.7452   49.0556   18.9084 C   0  0  0  0  0  0
   -2.4427   49.6724   17.8870 O   0  0  0  0  0  0
   -2.4959   47.7480   19.0906 N   0  0  0  0  0  0
   -1.7891   46.8636   18.1651 C   0  0  0  0  0  0
   -1.7883   45.3845   18.6404 C   0  0  1  0  0  0
   -1.1245   44.8395   17.9684 H   0  0  0  0  0  0
   -1.1390   45.2380   20.0531 C   0  0  0  0  0  0
   -1.1981   43.8207   20.6435 C   0  0  0  0  0  0
   -0.5625   42.8973   20.0810 O   0  0  0  0  0  0
   -3.1779   44.7441   18.4669 C   0  0  0  0  0  0
   -4.1313   44.7800   19.4902 C   0  0  0  0  0  0
   -5.3768   44.1861   19.3123 C   0  0  0  0  0  0
   -5.6746   43.5583   18.1077 C   0  0  0  0  0  0
   -4.7384   43.5213   17.0768 C   0  0  0  0  0  0
   -3.4920   44.1151   17.2586 C   0  0  0  0  0  0
   -2.1766   51.2428   22.6558 C   0  0  0  0  0  0
   -1.5984   51.1603   23.8741 C   0  0  0  0  0  0
   -0.1088   51.4374   24.1557 C   0  0  2  0  0  0
    0.5698   50.0578   24.3473 C   0  0  0  0  0  0
    3.1027   51.5302   28.4306 H   0  0  0  0  0  0
    1.6020   50.8926   29.0659 H   0  0  0  0  0  0
    1.9035   50.8295   27.3581 H   0  0  0  0  0  0
   -0.6571   53.6710   27.9210 H   0  0  0  0  0  0
   -0.5690   52.2197   28.8704 H   0  0  0  0  0  0
   -1.6504   51.8236   26.6368 H   0  0  0  0  0  0
   -0.2564   50.8526   26.9140 H   0  0  0  0  0  0
    3.9490   53.3457   26.9421 H   0  0  0  0  0  0
    3.5275   55.0103   26.5907 H   0  0  0  0  0  0
    4.1127   53.8671   29.1350 H   0  0  0  0  0  0
    3.3491   55.4279   28.9266 H   0  0  0  0  0  0
    0.7044   55.5678   28.8323 H   0  0  0  0  0  0
    0.0185   54.5362   30.0823 H   0  0  0  0  0  0
    1.3931   55.5692   30.4395 H   0  0  0  0  0  0
    1.2887   52.7666   30.7782 H   0  0  0  0  0  0
    2.9181   54.1031   24.3431 H   0  0  0  0  0  0
    1.2677   54.5607   24.1224 H   0  0  0  0  0  0
    2.6574   51.9738   23.1278 H   0  0  0  0  0  0
    2.1524   53.3046   22.1340 H   0  0  0  0  0  0
    0.3751   52.5651   20.8584 H   0  0  0  0  0  0
   -4.5187   49.5485   19.9848 H   0  0  0  0  0  0
   -3.1590   49.2892   21.0372 H   0  0  0  0  0  0
   -2.7902   47.3247   19.9584 H   0  0  0  0  0  0
   -0.7603   47.2171   18.0833 H   0  0  0  0  0  0
   -2.2206   46.9429   17.1646 H   0  0  0  0  0  0
   -0.0953   45.5396   20.0085 H   0  0  0  0  0  0
   -1.6109   45.9176   20.7637 H   0  0  0  0  0  0
   -3.9106   45.2624   20.4312 H   0  0  0  0  0  0
   -6.1054   44.2133   20.1084 H   0  0  0  0  0  0
   -6.6436   43.1004   17.9673 H   0  0  0  0  0  0
   -4.9754   43.0418   16.1402 H   0  0  0  0  0  0
   -2.7691   44.0856   16.4567 H   0  0  0  0  0  0
   -3.2297   51.0101   22.6125 H   0  0  0  0  0  0
   -2.2253   50.8286   24.6893 H   0  0  0  0  0  0
    0.4250   49.4156   23.4778 H   0  0  0  0  0  0
    1.6445   50.1451   24.4812 H   0  0  0  0  0  0
    0.1771   49.5109   25.2057 H   0  0  0  0  0  0
   -1.8727   43.6894   21.6892 O   0  5  0  0  0  0
  1  2  1  0  0  0
  1 43  1  0  0  0
  1 44  1  0  0  0
  1 45  1  0  0  0
  2  9  1  0  0  0
  2 13  1  0  0  0
  2  3  1  0  0  0
  3  4  1  0  0  0
  3 46  1  0  0  0
  3 47  1  0  0  0
  4  5  1  0  0  0
  4 48  1  0  0  0
  4 49  1  0  0  0
  5  6  1  0  0  0
  5 41  1  0  0  0
  5  7  1  0  0  0
  7  8  1  0  0  0
  7  9  1  0  0  0
  7 16  1  0  0  0
  9 10  1  0  0  0
  9 11  1  0  0  0
 11 12  1  0  0  0
 11 50  1  0  0  0
 11 51  1  0  0  0
 12 13  1  0  0  0
 12 52  1  0  0  0
 12 53  1  0  0  0
 13 14  1  0  0  0
 13 15  1  0  0  0
 14 54  1  0  0  0
 14 55  1  0  0  0
 14 56  1  0  0  0
 15 57  1  0  0  0
 16 17  1  0  0  0
 16 58  1  0  0  0
 16 59  1  0  0  0
 17 18  1  0  0  0
 17 60  1  0  0  0
 17 61  1  0  0  0
 18 41  1  0  0  0
 18 19  2  0  0  0
 19 20  1  0  0  0
 19 62  1  0  0  0
 20 21  2  0  0  0
 20 39  1  0  0  0
 21 22  1  0  0  0
 22 23  1  0  0  0
 23 24  1  0  0  0
 23 63  1  0  0  0
 23 64  1  0  0  0
 24 25  2  0  0  0
 24 26  1  0  0  0
 26 27  1  0  0  0
 26 65  1  0  0  0
 27 28  1  0  0  0
 27 66  1  0  0  0
 27 67  1  0  0  0
 28 29  1  0  0  0
 28 30  1  0  0  0
 28 33  1  0  0  0
 30 31  1  0  0  0
 30 68  1  0  0  0
 30 69  1  0  0  0
 31 32  2  0  0  0
 31 80  1  0  0  0
 33 38  2  0  0  0
 33 34  1  0  0  0
 34 35  2  0  0  0
 34 70  1  0  0  0
 35 36  1  0  0  0
 35 71  1  0  0  0
 36 37  2  0  0  0
 36 72  1  0  0  0
 37 38  1  0  0  0
 37 73  1  0  0  0
 38 74  1  0  0  0
 39 40  2  0  0  0
 39 75  1  0  0  0
 40 41  1  0  0  0
 40 76  1  0  0  0
 41 42  1  0  0  0
 42 77  1  0  0  0
 42 78  1  0  0  0
 42 79  1  0  0  0
M  CHG  1  80  -1
M  END
> <i_i_glide_confnum>
36

> <i_i_glide_lignum>
4618

> <i_i_glide_posenum>
113

> <i_i_glide_rotatable_bonds>
10

> <i_m_Source_File_Index>
646

> <b_m_subgroup_collapsed>
0

> <r_i_docking_score>
-0.63877

> <r_i_glide_ecoul>
-9.57288

> <r_i_glide_eff_state_penalty>
0

> <r_i_glide_einternal>
10.3567

> <r_i_glide_emodel>
-20.0014

> <r_i_glide_energy>
-36.2191

> <r_i_glide_erotb>
0.507126

> <r_i_glide_esite>
-0.121024

> <r_i_glide_evdw>
-26.6462

> <r_i_glide_gscore>
-0.63877

> <r_i_glide_hbond>
-0.65509

> <r_i_glide_ligand_efficiency>
-0.0163787

> <r_i_glide_ligand_efficiency_ln>
-0.13697

> <r_i_glide_ligand_efficiency_sa>
-0.0555437

> <r_i_glide_lipo>
-2.09775

> <r_i_glide_metal>
0

> <r_i_glide_rewards>
4.49621

> <s_i_glide_gridfile>
wee1_glide-grid

> <s_m_Source_File>
wee1_decoys_glide_SP.sdf

> <s_m_Source_Path>
/Users/zhangxujun/Desktop

> <s_m_entry_id>
921

> <s_m_entry_name>
wee1_decoys_glide_SP.646

> <s_m_subgroup_title>
wee1_decoys_glide_SP

> <s_m_subgroupid>
wee1_decoys_glide_SP


$$$$
