ZINC15228019_1026
                    3D
 Schrodinger Suite 2024-2.
 61 65  0  0  1  0            999 V2000
    3.2057   52.5667   30.3787 C   0  0  0  0  0  0
    1.9019   52.0993   30.2640 C   0  0  0  0  0  0
    1.2413   52.1246   29.0391 C   0  0  0  0  0  0
    1.8812   52.6536   27.8901 C   0  0  0  0  0  0
    1.2443   52.6824   26.6243 C   0  0  0  0  0  0
    1.9055   53.2120   25.5135 C   0  0  0  0  0  0
    3.1989   53.7166   25.6434 C   0  0  0  0  0  0
    3.8521   53.6987   26.8712 C   0  0  0  0  0  0
    3.2110   53.1634   28.0158 C   0  0  0  0  0  0
    3.8608   53.1044   29.2748 C   0  0  0  0  0  0
    1.1380   53.2198   23.8972 S   0  0  0  0  0  0
    1.5131   54.4966   23.2805 O   0  0  0  0  0  0
   -0.2749   52.8511   24.0506 O   0  0  0  0  0  0
    1.9574   51.9317   23.0006 N   0  0  0  0  0  0
    1.6155   50.5119   23.2741 C   0  0  0  0  0  0
    1.1367   50.0269   21.9121 C   0  0  0  0  0  0
    2.0575   50.7377   20.9369 C   0  0  0  0  0  0
    2.2781   52.1373   21.5524 C   0  0  2  0  0  0
    1.6130   52.8773   21.0950 H   0  0  0  0  0  0
    3.7402   52.6249   21.3964 C   0  0  0  0  0  0
    4.6892   51.8903   21.6814 O   0  0  0  0  0  0
    3.8954   53.8914   20.9646 N   0  0  0  0  0  0
    5.1274   54.4960   20.6929 C   0  0  0  0  0  0
    5.8988   54.8967   21.7899 C   0  0  0  0  0  0
    7.1362   55.5063   21.6069 C   0  0  0  0  0  0
    7.6271   55.6972   20.3203 C   0  0  0  0  0  0
    6.8778   55.2819   19.2219 C   0  0  0  0  0  0
    5.6137   54.6881   19.3737 C   0  0  0  0  0  0
    4.8934   54.2105   18.1188 C   0  0  0  0  0  0
    5.5490   53.8328   17.1438 O   0  0  0  0  0  0
    3.5419   54.2724   18.1189 N   0  0  0  0  0  0
    2.6746   53.6684   17.1942 C   0  0  0  0  0  0
    1.4792   54.3317   16.9016 C   0  0  0  0  0  0
    0.5605   53.7509   16.0313 C   0  0  0  0  0  0
    0.8292   52.5061   15.4646 C   0  0  0  0  0  0
    2.0102   51.8317   15.7666 C   0  0  0  0  0  0
    2.9360   52.4102   16.6308 C   0  0  0  0  0  0
   -0.0675   51.9475   14.6217 F   0  0  0  0  0  0
    3.7085   52.5131   31.3356 H   0  0  0  0  0  0
    1.3953   51.7017   31.1344 H   0  0  0  0  0  0
    0.2344   51.7364   28.9575 H   0  0  0  0  0  0
    0.2450   52.2835   26.5280 H   0  0  0  0  0  0
    3.7081   54.1136   24.7782 H   0  0  0  0  0  0
    4.8598   54.0788   26.9529 H   0  0  0  0  0  0
    4.8704   53.4752   29.3663 H   0  0  0  0  0  0
    0.9449   50.3692   24.1248 H   0  0  0  0  0  0
    2.5309   49.9633   23.5145 H   0  0  0  0  0  0
    0.0961   50.3169   21.7526 H   0  0  0  0  0  0
    1.1935   48.9423   21.8188 H   0  0  0  0  0  0
    1.6008   50.8090   19.9478 H   0  0  0  0  0  0
    2.9832   50.1733   20.8086 H   0  0  0  0  0  0
    3.0584   54.4369   20.8014 H   0  0  0  0  0  0
    5.5354   54.7328   22.7948 H   0  0  0  0  0  0
    7.7194   55.8117   22.4625 H   0  0  0  0  0  0
    8.5978   56.1478   20.1760 H   0  0  0  0  0  0
    7.2999   55.4226   18.2352 H   0  0  0  0  0  0
    3.0931   54.7928   18.8555 H   0  0  0  0  0  0
    1.2606   55.2942   17.3457 H   0  0  0  0  0  0
   -0.3596   54.2613   15.7931 H   0  0  0  0  0  0
    2.2095   50.8607   15.3397 H   0  0  0  0  0  0
    3.8386   51.8620   16.8756 H   0  0  0  0  0  0
  1 10  2  0  0  0
  1  2  1  0  0  0
  1 39  1  0  0  0
  2  3  2  0  0  0
  2 40  1  0  0  0
  3  4  1  0  0  0
  3 41  1  0  0  0
  4  9  2  0  0  0
  4  5  1  0  0  0
  5  6  2  0  0  0
  5 42  1  0  0  0
  6  7  1  0  0  0
  6 11  1  0  0  0
  7  8  2  0  0  0
  7 43  1  0  0  0
  8  9  1  0  0  0
  8 44  1  0  0  0
  9 10  1  0  0  0
 10 45  1  0  0  0
 11 12  2  0  0  0
 11 13  2  0  0  0
 11 14  1  0  0  0
 14 18  1  0  0  0
 14 15  1  0  0  0
 15 16  1  0  0  0
 15 46  1  0  0  0
 15 47  1  0  0  0
 16 17  1  0  0  0
 16 48  1  0  0  0
 16 49  1  0  0  0
 17 18  1  0  0  0
 17 50  1  0  0  0
 17 51  1  0  0  0
 18 19  1  0  0  0
 18 20  1  0  0  0
 20 21  2  0  0  0
 20 22  1  0  0  0
 22 23  1  0  0  0
 22 52  1  0  0  0
 23 28  2  0  0  0
 23 24  1  0  0  0
 24 25  2  0  0  0
 24 53  1  0  0  0
 25 26  1  0  0  0
 25 54  1  0  0  0
 26 27  2  0  0  0
 26 55  1  0  0  0
 27 28  1  0  0  0
 27 56  1  0  0  0
 28 29  1  0  0  0
 29 30  2  0  0  0
 29 31  1  0  0  0
 31 32  1  0  0  0
 31 57  1  0  0  0
 32 37  2  0  0  0
 32 33  1  0  0  0
 33 34  2  0  0  0
 33 58  1  0  0  0
 34 35  1  0  0  0
 34 59  1  0  0  0
 35 36  2  0  0  0
 35 38  1  0  0  0
 36 37  1  0  0  0
 36 60  1  0  0  0
 37 61  1  0  0  0
M  END
> <i_i_glide_confnum>
194

> <i_i_glide_lignum>
1027

> <i_i_glide_posenum>
346

> <i_i_glide_rotatable_bonds>
8

> <i_m_Source_File_Index>
6023

> <b_m_subgroup_collapsed>
0

> <r_i_docking_score>
-5.7144

> <r_i_glide_ecoul>
-7.95172

> <r_i_glide_eff_state_penalty>
0

> <r_i_glide_einternal>
15.3022

> <r_i_glide_emodel>
-65.0014

> <r_i_glide_energy>
-56.0141

> <r_i_glide_erotb>
0.613193

> <r_i_glide_esite>
-0.0336507

> <r_i_glide_evdw>
-48.0624

> <r_i_glide_gscore>
-5.7144

> <r_i_glide_hbond>
-0.542798

> <r_i_glide_ligand_efficiency>
-0.154443

> <r_i_glide_ligand_efficiency_ln>
-1.23932

> <r_i_glide_ligand_efficiency_sa>
-0.51464

> <r_i_glide_lipo>
-2.48395

> <r_i_glide_metal>
0

> <r_i_glide_rewards>
0.328676

> <s_i_glide_gridfile>
wee1_glide-grid

> <s_m_Source_File>
wee1_decoys_glide_SP.sdf

> <s_m_Source_Path>
/Users/zhangxujun/Desktop

> <s_m_entry_id>
6298

> <s_m_entry_name>
wee1_decoys_glide_SP.6023

> <s_m_subgroup_title>
wee1_decoys_glide_SP

> <s_m_subgroupid>
wee1_decoys_glide_SP


$$$$
