ZINC13121901_2687
                    3D
 Schrodinger Suite 2024-2.
 48 52  0  0  1  0            999 V2000
    2.4055   52.0968   31.4119 C   0  0  0  0  0  0
    3.6304   52.0970   30.7487 C   0  0  0  0  0  0
    3.7453   52.7172   29.5084 C   0  0  0  0  0  0
    2.6412   53.3689   28.9386 C   0  0  0  0  0  0
    1.4243   53.3903   29.6326 C   0  0  0  0  0  0
    1.3024   52.7471   30.8630 C   0  0  0  0  0  0
    2.7067   53.9933   27.5360 C   0  0  2  0  0  0
    2.2258   54.9668   27.6395 H   0  0  0  0  0  0
    1.9048   53.1085   26.5461 C   0  0  0  0  0  0
    1.9205   53.5549   25.0608 C   0  0  1  0  0  0
    1.3345   54.4724   24.9935 H   0  0  0  0  0  0
    3.3091   53.9394   24.7694 N   0  0  0  0  0  0
    4.2964   54.2834   25.6629 C   0  0  0  0  0  0
    5.3975   54.6148   25.0307 N   0  0  0  0  0  0
    5.0563   54.4890   23.7545 C   0  0  0  0  0  0
    3.8123   54.0947   23.5462 N   0  0  0  0  0  0
    5.9616   54.7975   22.7377 N   0  0  0  0  0  0
    5.6783   54.8293   21.4095 C   0  0  0  0  0  0
    4.6064   54.4958   20.9021 O   0  0  0  0  0  0
    6.7396   55.2967   20.5605 C   0  0  0  0  0  0
    6.7796   55.4259   19.1751 C   0  0  0  0  0  0
    8.0316   55.9387   18.8462 C   0  0  0  0  0  0
    8.7037   56.0942   20.0435 C   0  0  0  0  0  0
    7.9282   55.6979   21.0863 O   0  0  0  0  0  0
    4.0691   54.2459   27.0260 N   0  0  0  0  0  0
    1.2672   52.5662   24.0622 C   0  0  0  0  0  0
    0.7590   51.3212   24.4682 C   0  0  0  0  0  0
    0.1821   50.4563   23.5429 C   0  0  0  0  0  0
    0.0927   50.8303   22.2061 C   0  0  0  0  0  0
    0.5714   52.0691   21.7892 C   0  0  0  0  0  0
    1.1461   52.9332   22.7156 C   0  0  0  0  0  0
   -0.4715   49.9909   21.3095 F   0  0  0  0  0  0
    2.3112   51.6130   32.3721 H   0  0  0  0  0  0
    4.4876   51.6096   31.1900 H   0  0  0  0  0  0
    4.6937   52.6728   28.9919 H   0  0  0  0  0  0
    0.5586   53.8778   29.2056 H   0  0  0  0  0  0
    0.3570   52.7433   31.3891 H   0  0  0  0  0  0
    2.3045   52.0974   26.6216 H   0  0  0  0  0  0
    0.8688   53.0179   26.8756 H   0  0  0  0  0  0
    6.8907   55.0654   23.0253 H   0  0  0  0  0  0
    5.9833   55.1787   18.4871 H   0  0  0  0  0  0
    8.3988   56.1788   17.8590 H   0  0  0  0  0  0
    9.6740   56.4942   20.2947 H   0  0  0  0  0  0
    4.6754   54.7519   27.6570 H   0  0  0  0  0  0
    0.8010   50.9932   25.4950 H   0  0  0  0  0  0
   -0.1966   49.4965   23.8607 H   0  0  0  0  0  0
    0.4991   52.3583   20.7513 H   0  0  0  0  0  0
    1.5053   53.8934   22.3702 H   0  0  0  0  0  0
  1  6  2  0  0  0
  1  2  1  0  0  0
  1 33  1  0  0  0
  2  3  2  0  0  0
  2 34  1  0  0  0
  3  4  1  0  0  0
  3 35  1  0  0  0
  4  5  2  0  0  0
  4  7  1  0  0  0
  5  6  1  0  0  0
  5 36  1  0  0  0
  6 37  1  0  0  0
  7  8  1  0  0  0
  7 25  1  0  0  0
  7  9  1  0  0  0
  9 10  1  0  0  0
  9 38  1  0  0  0
  9 39  1  0  0  0
 10 11  1  0  0  0
 10 12  1  0  0  0
 10 26  1  0  0  0
 12 16  1  0  0  0
 12 13  1  0  0  0
 13 14  2  0  0  0
 13 25  1  0  0  0
 14 15  1  0  0  0
 15 16  2  0  0  0
 15 17  1  0  0  0
 17 18  1  0  0  0
 17 40  1  0  0  0
 18 19  2  0  0  0
 18 20  1  0  0  0
 20 24  1  0  0  0
 20 21  2  0  0  0
 21 22  1  0  0  0
 21 41  1  0  0  0
 22 23  2  0  0  0
 22 42  1  0  0  0
 23 24  1  0  0  0
 23 43  1  0  0  0
 25 44  1  0  0  0
 26 31  2  0  0  0
 26 27  1  0  0  0
 27 28  2  0  0  0
 27 45  1  0  0  0
 28 29  1  0  0  0
 28 46  1  0  0  0
 29 30  2  0  0  0
 29 32  1  0  0  0
 30 31  1  0  0  0
 30 47  1  0  0  0
 31 48  1  0  0  0
M  END
> <i_i_glide_confnum>
114

> <i_i_glide_lignum>
2688

> <i_i_glide_posenum>
238

> <i_i_glide_rotatable_bonds>
5

> <i_m_Source_File_Index>
385

> <b_m_subgroup_collapsed>
0

> <r_i_docking_score>
-5.91492

> <r_i_glide_ecoul>
-3.12045

> <r_i_glide_eff_state_penalty>
0

> <r_i_glide_einternal>
8.73291

> <r_i_glide_emodel>
-57.2215

> <r_i_glide_energy>
-45.2583

> <r_i_glide_erotb>
0.603211

> <r_i_glide_esite>
0

> <r_i_glide_evdw>
-42.1379

> <r_i_glide_gscore>
-5.91492

> <r_i_glide_hbond>
0

> <r_i_glide_ligand_efficiency>
-0.197164

> <r_i_glide_ligand_efficiency_ln>
-1.34394

> <r_i_glide_ligand_efficiency_sa>
-0.612635

> <r_i_glide_lipo>
-2.11452

> <r_i_glide_metal>
0

> <r_i_glide_rewards>
-1.82865

> <s_i_glide_gridfile>
wee1_glide-grid

> <s_m_Source_File>
wee1_decoys_glide_SP.sdf

> <s_m_Source_Path>
/Users/zhangxujun/Desktop

> <s_m_entry_id>
660

> <s_m_entry_name>
wee1_decoys_glide_SP.385

> <s_m_subgroup_title>
wee1_decoys_glide_SP

> <s_m_subgroupid>
wee1_decoys_glide_SP


$$$$
