ZINC21522700_683
                    3D
 Schrodinger Suite 2024-2.
 73 77  0  0  1  0            999 V2000
    0.1285   52.5997   29.1725 C   0  0  0  0  0  0
    0.9538   52.8718   27.9314 C   0  0  0  0  0  0
    2.1552   53.5820   27.9031 C   0  0  0  0  0  0
    2.8324   53.6965   26.2804 S   0  0  0  0  0  0
    1.5039   52.7628   25.6610 C   0  0  0  0  0  0
    0.5715   52.4163   26.6271 C   0  0  0  0  0  0
   -0.4742   51.7062   25.9441 C   0  0  0  0  0  0
   -0.1034   51.6235   24.5946 C   0  0  0  0  0  0
    1.1236   52.2551   24.4526 N   0  0  0  0  0  0
    1.8017   52.3391   23.1838 C   0  0  0  0  0  0
    1.4380   51.0640   22.3508 C   0  0  2  0  0  0
   -0.0695   50.9570   22.2907 N   0  0  0  0  0  0
   -0.8404   51.1236   23.4352 C   0  0  0  0  0  0
   -2.0511   50.8910   23.4463 O   0  0  0  0  0  0
   -0.6698   50.2050   21.1421 C   0  0  0  0  0  0
   -1.2400   48.7953   21.4526 C   0  0  0  0  0  0
   -2.6217   48.7370   20.7831 C   0  0  0  0  0  0
   -2.6242   49.8617   19.7447 C   0  0  0  0  0  0
   -1.7864   50.9627   20.3913 C   0  0  0  0  0  0
    2.0305   49.7290   22.8862 C   0  0  0  0  0  0
    2.1403   51.3500   20.9747 C   0  0  0  0  0  0
    3.2976   50.9703   20.7813 O   0  0  0  0  0  0
    1.4786   52.0973   20.0705 N   0  0  0  0  0  0
    1.9453   52.4954   18.7355 C   0  0  0  0  0  0
    3.3120   53.2334   18.7602 C   0  0  0  0  0  0
    3.5612   54.2856   17.6605 C   0  0  0  0  0  0
    3.0605   53.9682   16.2386 C   0  0  0  0  0  0
    3.1562   52.4955   15.7961 C   0  0  0  0  0  0
    1.9654   51.6321   16.2508 C   0  0  0  0  0  0
    1.8904   51.2988   17.7536 C   0  0  0  0  0  0
   -1.5819   51.1571   26.5558 N   0  0  0  0  0  0
   -2.7770   51.7726   26.5751 C   0  0  0  0  0  0
   -3.0077   52.8801   26.0820 O   0  0  0  0  0  0
   -3.8956   51.0197   27.2851 C   0  0  0  0  0  0
    2.9041   54.2324   29.0457 C   0  0  0  0  0  0
   -0.9295   52.4760   28.9481 H   0  0  0  0  0  0
    0.1887   53.4117   29.8968 H   0  0  0  0  0  0
    0.4536   51.6901   29.6778 H   0  0  0  0  0  0
    1.4654   53.2580   22.6972 H   0  0  0  0  0  0
    2.8754   52.4467   23.3441 H   0  0  0  0  0  0
    0.0568   50.0054   20.3575 H   0  0  0  0  0  0
   -0.5824   48.0300   21.0349 H   0  0  0  0  0  0
   -1.3307   48.5786   22.5175 H   0  0  0  0  0  0
   -2.8226   47.7622   20.3333 H   0  0  0  0  0  0
   -3.4024   48.9217   21.5254 H   0  0  0  0  0  0
   -2.1511   49.5221   18.8208 H   0  0  0  0  0  0
   -3.6336   50.1946   19.4967 H   0  0  0  0  0  0
   -2.4133   51.5427   21.0689 H   0  0  0  0  0  0
   -1.3840   51.6778   19.6729 H   0  0  0  0  0  0
    3.1042   49.7769   23.0556 H   0  0  0  0  0  0
    1.5857   49.4471   23.8409 H   0  0  0  0  0  0
    1.8458   48.8989   22.2050 H   0  0  0  0  0  0
    0.5658   52.4332   20.3346 H   0  0  0  0  0  0
    1.1898   53.2150   18.4134 H   0  0  0  0  0  0
    3.4684   53.7095   19.7292 H   0  0  0  0  0  0
    4.1049   52.4873   18.6944 H   0  0  0  0  0  0
    3.1143   55.2307   17.9753 H   0  0  0  0  0  0
    4.6345   54.4792   17.6195 H   0  0  0  0  0  0
    2.0283   54.3069   16.1357 H   0  0  0  0  0  0
    3.6255   54.5852   15.5383 H   0  0  0  0  0  0
    3.1906   52.4685   14.7059 H   0  0  0  0  0  0
    4.0979   52.0528   16.1303 H   0  0  0  0  0  0
    1.0345   52.1094   15.9414 H   0  0  0  0  0  0
    2.0021   50.6871   15.7043 H   0  0  0  0  0  0
    2.7048   50.6118   17.9933 H   0  0  0  0  0  0
    0.9733   50.7314   17.9216 H   0  0  0  0  0  0
   -1.4791   50.2611   27.0177 H   0  0  0  0  0  0
   -3.5023   50.2258   27.9244 H   0  0  0  0  0  0
   -4.4785   51.7017   27.9043 H   0  0  0  0  0  0
   -4.5636   50.5687   26.5512 H   0  0  0  0  0  0
    2.4561   54.0196   30.0146 H   0  0  0  0  0  0
    3.9370   53.8880   29.0920 H   0  0  0  0  0  0
    2.9338   55.3171   28.9372 H   0  0  0  0  0  0
  1  2  1  0  0  0
  1 36  1  0  0  0
  1 37  1  0  0  0
  1 38  1  0  0  0
  2  6  1  0  0  0
  2  3  2  0  0  0
  3  4  1  0  0  0
  3 35  1  0  0  0
  4  5  1  0  0  0
  5  9  1  0  0  0
  5  6  2  0  0  0
  6  7  1  0  0  0
  7  8  2  0  0  0
  7 31  1  0  0  0
  8 13  1  0  0  0
  8  9  1  0  0  0
  9 10  1  0  0  0
 10 11  1  0  0  0
 10 39  1  0  0  0
 10 40  1  0  0  0
 11 12  1  0  0  0
 11 20  1  0  0  0
 11 21  1  0  0  0
 12 13  1  0  0  0
 12 15  1  0  0  0
 13 14  2  0  0  0
 15 19  1  0  0  0
 15 16  1  0  0  0
 15 41  1  0  0  0
 16 17  1  0  0  0
 16 42  1  0  0  0
 16 43  1  0  0  0
 17 18  1  0  0  0
 17 44  1  0  0  0
 17 45  1  0  0  0
 18 19  1  0  0  0
 18 46  1  0  0  0
 18 47  1  0  0  0
 19 48  1  0  0  0
 19 49  1  0  0  0
 20 50  1  0  0  0
 20 51  1  0  0  0
 20 52  1  0  0  0
 21 22  2  0  0  0
 21 23  1  0  0  0
 23 24  1  0  0  0
 23 53  1  0  0  0
 24 30  1  0  0  0
 24 25  1  0  0  0
 24 54  1  0  0  0
 25 26  1  0  0  0
 25 55  1  0  0  0
 25 56  1  0  0  0
 26 27  1  0  0  0
 26 57  1  0  0  0
 26 58  1  0  0  0
 27 28  1  0  0  0
 27 59  1  0  0  0
 27 60  1  0  0  0
 28 29  1  0  0  0
 28 61  1  0  0  0
 28 62  1  0  0  0
 29 30  1  0  0  0
 29 63  1  0  0  0
 29 64  1  0  0  0
 30 65  1  0  0  0
 30 66  1  0  0  0
 31 32  1  0  0  0
 31 67  1  0  0  0
 32 33  2  0  0  0
 32 34  1  0  0  0
 34 68  1  0  0  0
 34 69  1  0  0  0
 34 70  1  0  0  0
 35 71  1  0  0  0
 35 72  1  0  0  0
 35 73  1  0  0  0
M  END
> <i_i_glide_confnum>
194

> <i_i_glide_lignum>
684

> <i_i_glide_posenum>
95

> <i_i_glide_rotatable_bonds>
6

> <i_m_Source_File_Index>
5227

> <b_m_subgroup_collapsed>
0

> <r_i_docking_score>
-3.72979

> <r_i_glide_ecoul>
-2.93518

> <r_i_glide_eff_state_penalty>
0

> <r_i_glide_einternal>
6.16085

> <r_i_glide_emodel>
-49.9262

> <r_i_glide_energy>
-43.0242

> <r_i_glide_erotb>
0.410314

> <r_i_glide_esite>
-0.114245

> <r_i_glide_evdw>
-40.089

> <r_i_glide_gscore>
-3.72979

> <r_i_glide_hbond>
-0.036332

> <r_i_glide_ligand_efficiency>
-0.106565

> <r_i_glide_ligand_efficiency_ln>
-0.818771

> <r_i_glide_ligand_efficiency_sa>
-0.348582

> <r_i_glide_lipo>
-1.32481

> <r_i_glide_metal>
0

> <r_i_glide_rewards>
-0.219987

> <s_i_glide_gridfile>
wee1_glide-grid

> <s_m_Source_File>
wee1_decoys_glide_SP.sdf

> <s_m_Source_Path>
/Users/zhangxujun/Desktop

> <s_m_entry_id>
5502

> <s_m_entry_name>
wee1_decoys_glide_SP.5227

> <s_m_subgroup_title>
wee1_decoys_glide_SP

> <s_m_subgroupid>
wee1_decoys_glide_SP


$$$$
