ZINC63815318_1614
                    3D
 Schrodinger Suite 2024-2.
 42 42  0  0  1  0            999 V2000
    6.7231   54.9538   27.1176 C   0  0  0  0  0  0
    6.0917   54.6742   25.7601 C   0  0  0  0  0  0
    6.8871   54.8805   24.6390 C   0  0  0  0  0  0
    6.4044   54.6692   23.3529 C   0  0  0  0  0  0
    5.0818   54.2679   23.1495 C   0  0  0  0  0  0
    4.2588   54.0964   24.2738 C   0  0  0  0  0  0
    4.7576   54.2579   25.5733 C   0  0  0  0  0  0
    3.8362   54.0048   26.5987 N   0  0  0  0  0  0
    4.0423   53.2966   27.7368 C   0  0  0  0  0  0
    5.1391   52.8968   28.1230 O   0  0  0  0  0  0
    2.8332   52.9719   28.5357 C   0  0  0  0  0  0
    2.8761   52.1087   29.4195 O   0  0  0  0  0  0
    1.7325   53.7211   28.2810 N   0  0  0  0  0  0
    0.5646   53.8250   29.1555 C   0  0  1  0  0  0
   -0.1775   52.4730   29.2980 C   0  0  0  0  0  0
    0.9857   54.5071   30.4923 C   0  0  0  0  0  0
    1.5097   55.9503   30.2845 C   0  0  0  0  0  0
   -0.0862   54.5019   31.5809 C   0  0  0  0  0  0
    4.5709   54.0773   21.7411 C   0  0  0  0  0  0
    5.1155   54.6161   20.7819 O   0  0  0  0  0  0
    3.5018   53.3003   21.5745 N   0  0  0  0  0  0
    7.5022   55.6967   27.0452 H   0  0  0  0  0  0
    6.0014   55.3425   27.8348 H   0  0  0  0  0  0
    7.1976   54.0575   27.5187 H   0  0  0  0  0  0
    7.9031   55.2066   24.7684 H   0  0  0  0  0  0
    7.0691   54.8337   22.5164 H   0  0  0  0  0  0
    3.2259   53.8056   24.1431 H   0  0  0  0  0  0
    2.8794   54.1672   26.3358 H   0  0  0  0  0  0
    1.7792   54.4293   27.5698 H   0  0  0  0  0  0
   -0.1199   54.4964   28.6375 H   0  0  0  0  0  0
   -1.1288   52.5863   29.8132 H   0  0  0  0  0  0
   -0.3923   52.0251   28.3266 H   0  0  0  0  0  0
    0.3901   51.7519   29.8864 H   0  0  0  0  0  0
    1.8125   53.9190   30.8824 H   0  0  0  0  0  0
    0.7512   56.5867   29.8281 H   0  0  0  0  0  0
    2.3901   55.9773   29.6425 H   0  0  0  0  0  0
    1.7897   56.4212   31.2286 H   0  0  0  0  0  0
   -0.8721   55.1860   31.2819 H   0  0  0  0  0  0
   -0.4957   53.5099   31.7763 H   0  0  0  0  0  0
    0.3116   54.8635   32.5273 H   0  0  0  0  0  0
    3.0971   52.7978   22.3471 H   0  0  0  0  0  0
    3.1288   53.1900   20.6437 H   0  0  0  0  0  0
  1  2  1  0  0  0
  1 22  1  0  0  0
  1 23  1  0  0  0
  1 24  1  0  0  0
  2  7  2  0  0  0
  2  3  1  0  0  0
  3  4  2  0  0  0
  3 25  1  0  0  0
  4  5  1  0  0  0
  4 26  1  0  0  0
  5  6  2  0  0  0
  5 19  1  0  0  0
  6  7  1  0  0  0
  6 27  1  0  0  0
  7  8  1  0  0  0
  8  9  1  0  0  0
  8 28  1  0  0  0
  9 10  2  0  0  0
  9 11  1  0  0  0
 11 12  2  0  0  0
 11 13  1  0  0  0
 13 14  1  0  0  0
 13 29  1  0  0  0
 14 15  1  0  0  0
 14 16  1  0  0  0
 14 30  1  0  0  0
 15 31  1  0  0  0
 15 32  1  0  0  0
 15 33  1  0  0  0
 16 17  1  0  0  0
 16 18  1  0  0  0
 16 34  1  0  0  0
 17 35  1  0  0  0
 17 36  1  0  0  0
 17 37  1  0  0  0
 18 38  1  0  0  0
 18 39  1  0  0  0
 18 40  1  0  0  0
 19 20  2  0  0  0
 19 21  1  0  0  0
 21 41  1  0  0  0
 21 42  1  0  0  0
M  END
> <i_i_glide_confnum>
26

> <i_i_glide_lignum>
1615

> <i_i_glide_posenum>
61

> <i_i_glide_rotatable_bonds>
7

> <i_m_Source_File_Index>
4043

> <b_m_subgroup_collapsed>
0

> <r_i_docking_score>
-5.36754

> <r_i_glide_ecoul>
-0.872663

> <r_i_glide_eff_state_penalty>
0

> <r_i_glide_einternal>
7.55967

> <r_i_glide_emodel>
-43.4586

> <r_i_glide_energy>
-34.83

> <r_i_glide_erotb>
1.0744

> <r_i_glide_esite>
0

> <r_i_glide_evdw>
-33.9573

> <r_i_glide_gscore>
-5.36754

> <r_i_glide_hbond>
-0.0390352

> <r_i_glide_ligand_efficiency>
-0.255597

> <r_i_glide_ligand_efficiency_ln>
-1.32711

> <r_i_glide_ligand_efficiency_sa>
-0.705173

> <r_i_glide_lipo>
-2.50032

> <r_i_glide_metal>
0

> <r_i_glide_rewards>
-2.07382

> <s_i_glide_gridfile>
wee1_glide-grid

> <s_m_Source_File>
wee1_decoys_glide_SP.sdf

> <s_m_Source_Path>
/Users/zhangxujun/Desktop

> <s_m_entry_id>
4318

> <s_m_entry_name>
wee1_decoys_glide_SP.4043

> <s_m_subgroup_title>
wee1_decoys_glide_SP

> <s_m_subgroupid>
wee1_decoys_glide_SP


$$$$
