ZINC65251820_6213
                    3D
 Schrodinger Suite 2024-2.
 59 61  0  0  1  0            999 V2000
    2.3739   53.6798   26.6409 C   0  0  0  0  0  0
    3.2877   54.7112   27.3420 C   0  0  1  0  0  0
    3.2391   54.6449   28.8834 C   0  0  0  0  0  0
    3.9804   53.4143   29.4111 C   0  0  0  0  0  0
    5.4208   53.4081   28.8768 C   0  0  0  0  0  0
    5.5137   53.4920   27.3552 C   0  0  0  0  0  0
    4.7557   54.7229   26.8111 C   0  0  1  0  0  0
    4.8652   54.8968   25.3662 N   0  0  0  0  0  0
    5.9793   54.8032   24.6098 C   0  0  0  0  0  0
    7.0998   55.0621   25.0528 O   0  0  0  0  0  0
    5.8359   54.3422   23.3421 N   0  0  0  0  0  0
    4.6932   54.0724   22.6587 C   0  0  0  0  0  0
    3.5763   54.4965   22.9701 O   0  0  0  0  0  0
    4.8488   53.1648   21.4307 C   0  0  0  0  0  0
    3.4778   52.8518   20.7631 N   0  3  1  0  0  0
    3.7505   52.1469   19.4148 C   0  0  0  0  0  0
    2.4183   51.8448   18.6911 C   0  0  0  0  0  0
    1.4343   51.0258   19.5554 C   0  0  0  0  0  0
    1.2564   51.7316   20.9168 C   0  0  2  0  0  0
    2.6076   51.9180   21.6461 C   0  0  0  0  0  0
    0.2397   50.9738   21.7926 C   0  0  0  0  0  0
   -0.9439   51.3103   21.7695 O   0  0  0  0  0  0
    0.7048   49.9781   22.5695 N   0  0  0  0  0  0
   -0.1021   49.1965   23.4959 C   0  0  0  0  0  0
    0.4888   48.8903   24.8502 C   0  0  0  0  0  0
   -0.6557   49.8685   24.7342 C   0  0  0  0  0  0
    2.7145   52.6567   26.8038 H   0  0  0  0  0  0
    1.3513   53.7403   27.0144 H   0  0  0  0  0  0
    2.3308   53.8432   25.5644 H   0  0  0  0  0  0
    2.8851   55.6961   27.1485 H   0  0  0  0  0  0
    2.2067   54.6425   29.2361 H   0  0  0  0  0  0
    3.6956   55.5442   29.2998 H   0  0  0  0  0  0
    3.9882   53.4134   30.5022 H   0  0  0  0  0  0
    3.4662   52.5008   29.1071 H   0  0  0  0  0  0
    5.9917   54.2429   29.2817 H   0  0  0  0  0  0
    5.9037   52.4967   29.1758 H   0  0  0  0  0  0
    6.5687   53.5177   27.0757 H   0  0  0  0  0  0
    5.1057   52.5802   26.9177 H   0  0  0  0  0  0
    5.2726   55.5739   27.2547 H   0  0  0  0  0  0
    3.9881   54.9521   24.8654 H   0  0  0  0  0  0
    6.7019   54.0942   22.8915 H   0  0  0  0  0  0
    5.4549   53.6621   20.6721 H   0  0  0  0  0  0
    5.3093   52.2074   21.6811 H   0  0  0  0  0  0
    4.3774   52.8022   18.8062 H   0  0  0  0  0  0
    4.3042   51.2484   19.6819 H   0  0  0  0  0  0
    1.9530   52.7828   18.3768 H   0  0  0  0  0  0
    2.6375   51.2990   17.7698 H   0  0  0  0  0  0
    0.4970   50.9712   18.9994 H   0  0  0  0  0  0
    1.8828   50.0369   19.6685 H   0  0  0  0  0  0
    0.7838   52.7075   20.7701 H   0  0  0  0  0  0
    3.1740   50.9925   21.7647 H   0  0  0  0  0  0
    2.4585   52.3839   22.6199 H   0  0  0  0  0  0
    1.6349   49.6283   22.3953 H   0  0  0  0  0  0
   -0.7193   48.4353   23.0105 H   0  0  0  0  0  0
    0.3037   47.9070   25.2801 H   0  0  0  0  0  0
    1.4946   49.2584   25.0752 H   0  0  0  0  0  0
   -0.4673   50.9313   24.8844 H   0  0  0  0  0  0
   -1.6385   49.5679   25.1001 H   0  0  0  0  0  0
    2.9812   53.7265   20.6119 H   0  0  0  0  0  0
  1  2  1  0  0  0
  1 27  1  0  0  0
  1 28  1  0  0  0
  1 29  1  0  0  0
  2  7  1  0  0  0
  2  3  1  0  0  0
  2 30  1  0  0  0
  3  4  1  0  0  0
  3 31  1  0  0  0
  3 32  1  0  0  0
  4  5  1  0  0  0
  4 33  1  0  0  0
  4 34  1  0  0  0
  5  6  1  0  0  0
  5 35  1  0  0  0
  5 36  1  0  0  0
  6  7  1  0  0  0
  6 37  1  0  0  0
  6 38  1  0  0  0
  7  8  1  0  0  0
  7 39  1  0  0  0
  8  9  1  0  0  0
  8 40  1  0  0  0
  9 10  2  0  0  0
  9 11  1  0  0  0
 11 12  1  0  0  0
 11 41  1  0  0  0
 12 13  2  0  0  0
 12 14  1  0  0  0
 14 15  1  0  0  0
 14 42  1  0  0  0
 14 43  1  0  0  0
 15 20  1  0  0  0
 15 16  1  0  0  0
 15 59  1  0  0  0
 16 17  1  0  0  0
 16 44  1  0  0  0
 16 45  1  0  0  0
 17 18  1  0  0  0
 17 46  1  0  0  0
 17 47  1  0  0  0
 18 19  1  0  0  0
 18 48  1  0  0  0
 18 49  1  0  0  0
 19 20  1  0  0  0
 19 21  1  0  0  0
 19 50  1  0  0  0
 20 51  1  0  0  0
 20 52  1  0  0  0
 21 22  2  0  0  0
 21 23  1  0  0  0
 23 24  1  0  0  0
 23 53  1  0  0  0
 24 26  1  0  0  0
 24 25  1  0  0  0
 24 54  1  0  0  0
 25 26  1  0  0  0
 25 55  1  0  0  0
 25 56  1  0  0  0
 26 57  1  0  0  0
 26 58  1  0  0  0
M  CHG  1  15   1
M  END
> <i_i_glide_confnum>
303

> <i_i_glide_lignum>
6214

> <i_i_glide_posenum>
269

> <i_i_glide_rotatable_bonds>
9

> <i_m_Source_File_Index>
3562

> <b_m_subgroup_collapsed>
0

> <r_i_docking_score>
-3.66229

> <r_i_glide_ecoul>
-5.40456

> <r_i_glide_eff_state_penalty>
0

> <r_i_glide_einternal>
10.6322

> <r_i_glide_emodel>
-37.4976

> <r_i_glide_energy>
-35.5103

> <r_i_glide_erotb>
1.29605

> <r_i_glide_esite>
0

> <r_i_glide_evdw>
-30.1058

> <r_i_glide_gscore>
-3.66229

> <r_i_glide_hbond>
-0.32

> <r_i_glide_ligand_efficiency>
-0.140857

> <r_i_glide_ligand_efficiency_ln>
-0.860077

> <r_i_glide_ligand_efficiency_sa>
-0.417289

> <r_i_glide_lipo>
-1.6086

> <r_i_glide_metal>
0

> <r_i_glide_rewards>
-0.71377

> <s_i_glide_gridfile>
wee1_glide-grid

> <s_m_Source_File>
wee1_decoys_glide_SP.sdf

> <s_m_Source_Path>
/Users/zhangxujun/Desktop

> <s_m_entry_id>
3837

> <s_m_entry_name>
wee1_decoys_glide_SP.3562

> <s_m_subgroup_title>
wee1_decoys_glide_SP

> <s_m_subgroupid>
wee1_decoys_glide_SP


$$$$
