ZINC36646173_3833
                    3D
 Schrodinger Suite 2024-2.
 43 46  0  0  1  0            999 V2000
    5.4252   54.6369   28.8797 C   0  0  0  0  0  0
    4.0627   54.2453   29.4071 C   0  0  0  0  0  0
    3.8820   53.0004   30.0110 C   0  0  0  0  0  0
    2.6250   52.6418   30.4816 C   0  0  0  0  0  0
    1.5478   53.5084   30.3173 C   0  0  0  0  0  0
    1.7358   54.7699   29.7466 C   0  0  0  0  0  0
    2.9922   55.1326   29.2833 C   0  0  0  0  0  0
    0.1481   53.0505   30.6720 C   0  0  0  0  0  0
   -0.5612   51.6982   29.6354 S   0  0  0  0  0  0
   -0.0689   51.9920   27.8971 C   0  0  0  0  0  0
    1.0006   52.6663   27.6763 N   0  0  0  0  0  0
    1.4363   52.8228   26.4082 C   0  0  0  0  0  0
    0.8053   52.3101   25.2859 C   0  0  0  0  0  0
    1.5314   52.5868   24.1084 C   0  0  0  0  0  0
    2.6995   53.3306   24.3767 C   0  0  0  0  0  0
    2.8816   53.6965   26.0582 S   0  0  0  0  0  0
    3.6898   53.8269   23.3325 C   0  0  0  0  0  0
    3.4296   53.0926   22.0027 C   0  0  0  0  0  0
    1.9271   53.0543   21.6830 C   0  0  0  0  0  0
    1.1353   52.1942   22.6871 C   0  0  0  0  0  0
   -0.4628   51.5895   25.4637 C   0  0  0  0  0  0
   -1.1660   51.1210   24.5614 O   0  0  0  0  0  0
   -0.8038   51.5011   26.8132 N   0  0  0  0  0  0
   -2.0409   50.8966   27.1137 N   0  0  0  0  0  0
    6.0616   53.7685   28.7040 H   0  0  0  0  0  0
    5.3367   55.1680   27.9312 H   0  0  0  0  0  0
    5.9044   55.2963   29.5984 H   0  0  0  0  0  0
    4.7045   52.3073   30.1081 H   0  0  0  0  0  0
    2.4693   51.6847   30.9462 H   0  0  0  0  0  0
    0.9046   55.4468   29.6104 H   0  0  0  0  0  0
    3.1126   56.0964   28.8186 H   0  0  0  0  0  0
    0.1328   52.7141   31.7104 H   0  0  0  0  0  0
   -0.5019   53.9166   30.6380 H   0  0  0  0  0  0
    3.5505   54.8966   23.1796 H   0  0  0  0  0  0
    4.7227   53.6799   23.6518 H   0  0  0  0  0  0
    3.9724   53.5900   21.1972 H   0  0  0  0  0  0
    3.8234   52.0760   22.0523 H   0  0  0  0  0  0
    1.5511   54.0764   21.7432 H   0  0  0  0  0  0
    1.7566   52.7078   20.6628 H   0  0  0  0  0  0
    1.3439   51.1369   22.5212 H   0  0  0  0  0  0
    0.0665   52.3262   22.5171 H   0  0  0  0  0  0
   -2.4272   50.5855   26.2317 H   0  0  0  0  0  0
   -1.8370   50.0366   27.6326 H   0  0  0  0  0  0
  1  2  1  0  0  0
  1 25  1  0  0  0
  1 26  1  0  0  0
  1 27  1  0  0  0
  2  7  2  0  0  0
  2  3  1  0  0  0
  3  4  2  0  0  0
  3 28  1  0  0  0
  4  5  1  0  0  0
  4 29  1  0  0  0
  5  6  2  0  0  0
  5  8  1  0  0  0
  6  7  1  0  0  0
  6 30  1  0  0  0
  7 31  1  0  0  0
  8  9  1  0  0  0
  8 32  1  0  0  0
  8 33  1  0  0  0
  9 10  1  0  0  0
 10 23  1  0  0  0
 10 11  2  0  0  0
 11 12  1  0  0  0
 12 16  1  0  0  0
 12 13  2  0  0  0
 13 14  1  0  0  0
 13 21  1  0  0  0
 14 20  1  0  0  0
 14 15  2  0  0  0
 15 16  1  0  0  0
 15 17  1  0  0  0
 17 18  1  0  0  0
 17 34  1  0  0  0
 17 35  1  0  0  0
 18 19  1  0  0  0
 18 36  1  0  0  0
 18 37  1  0  0  0
 19 20  1  0  0  0
 19 38  1  0  0  0
 19 39  1  0  0  0
 20 40  1  0  0  0
 20 41  1  0  0  0
 21 22  2  0  0  0
 21 23  1  0  0  0
 23 24  1  0  0  0
 24 42  1  0  0  0
 24 43  1  0  0  0
M  END
> <i_i_glide_confnum>
1

> <i_i_glide_lignum>
3834

> <i_i_glide_posenum>
295

> <i_i_glide_rotatable_bonds>
3

> <i_m_Source_File_Index>
1604

> <b_m_subgroup_collapsed>
0

> <r_i_docking_score>
-5.19928

> <r_i_glide_ecoul>
-4.09804

> <r_i_glide_eff_state_penalty>
0

> <r_i_glide_einternal>
2.03539

> <r_i_glide_emodel>
-50.9613

> <r_i_glide_energy>
-38.161

> <r_i_glide_erotb>
0.449398

> <r_i_glide_esite>
-0.150395

> <r_i_glide_evdw>
-34.063

> <r_i_glide_gscore>
-5.19928

> <r_i_glide_hbond>
-0.16

> <r_i_glide_ligand_efficiency>
-0.216637

> <r_i_glide_ligand_efficiency_ln>
-1.24443

> <r_i_glide_ligand_efficiency_sa>
-0.624888

> <r_i_glide_lipo>
-1.98786

> <r_i_glide_metal>
0

> <r_i_glide_rewards>
-1.03256

> <s_i_glide_gridfile>
wee1_glide-grid

> <s_m_Source_File>
wee1_decoys_glide_SP.sdf

> <s_m_Source_Path>
/Users/zhangxujun/Desktop

> <s_m_entry_id>
1879

> <s_m_entry_name>
wee1_decoys_glide_SP.1604

> <s_m_subgroup_title>
wee1_decoys_glide_SP

> <s_m_subgroupid>
wee1_decoys_glide_SP


$$$$
