ZINC18209884_5066
                    3D
 Schrodinger Suite 2024-2.
 64 68  0  0  1  0            999 V2000
   -0.4775   50.5091   24.6013 C   0  0  0  0  0  0
   -0.0798   51.9465   24.2401 C   0  0  0  0  0  0
   -1.2904   52.8959   24.2497 C   0  0  0  0  0  0
    0.9028   52.3640   25.1798 O   0  0  0  0  0  0
    1.7804   53.3557   24.9195 C   0  0  0  0  0  0
    1.8256   53.9929   23.8630 O   0  0  0  0  0  0
    2.7421   53.5435   26.0237 C   0  0  0  0  0  0
    2.5169   53.2888   27.4149 C   0  0  0  0  0  0
    3.6606   53.5128   28.2014 C   0  0  0  0  0  0
    4.9940   54.0959   27.2808 S   0  0  0  0  0  0
    4.0648   53.9890   25.8124 C   0  0  0  0  0  0
    4.6170   54.2455   24.5572 N   0  0  0  0  0  0
    5.8906   54.5229   24.2091 C   0  0  0  0  0  0
    6.8359   54.6952   24.9796 O   0  0  0  0  0  0
    6.0552   54.6575   22.7821 C   0  0  0  0  0  0
    7.0757   55.3615   22.1293 C   0  0  0  0  0  0
    6.9716   55.3271   20.8244 N   0  0  0  0  0  0
    5.9034   54.5533   20.5651 N   0  0  0  0  0  0
    5.3657   54.0342   21.7341 C   0  0  0  0  0  0
    4.3129   53.1286   21.6932 N   0  0  0  0  0  0
    4.0443   52.4552   20.4138 C   0  0  2  0  0  0
    4.7956   51.6708   20.2996 H   0  0  0  0  0  0
    4.1995   53.4361   19.2329 C   0  0  0  0  0  0
    5.5718   54.1445   19.1936 C   0  0  1  0  0  0
    6.3174   53.4062   18.8918 H   0  0  0  0  0  0
    5.6248   55.2960   18.1645 C   0  0  0  0  0  0
    5.3709   54.8883   16.9207 F   0  0  0  0  0  0
    4.7968   56.2996   18.4582 F   0  0  0  0  0  0
    2.7026   51.7206   20.3384 C   0  0  0  0  0  0
    1.5347   52.3105   20.8330 C   0  0  0  0  0  0
    0.3090   51.6611   20.7039 C   0  0  0  0  0  0
    0.2504   50.4118   20.0919 C   0  0  0  0  0  0
    1.4053   49.8159   19.5931 C   0  0  0  0  0  0
    2.6261   50.4739   19.7083 C   0  0  0  0  0  0
    3.7962   53.2061   29.6865 C   0  0  0  0  0  0
    2.4066   52.9670   30.3085 C   0  0  0  0  0  0
    1.5161   52.0969   29.4205 C   0  0  0  0  0  0
    1.2217   52.7679   28.0676 C   0  0  0  0  0  0
   -1.2231   50.1215   23.9060 H   0  0  0  0  0  0
    0.3850   49.8421   24.5598 H   0  0  0  0  0  0
   -0.8932   50.4473   25.6076 H   0  0  0  0  0  0
    0.3668   51.9313   23.2482 H   0  0  0  0  0  0
   -2.0140   52.6206   23.4820 H   0  0  0  0  0  0
   -1.7987   52.8761   25.2137 H   0  0  0  0  0  0
   -0.9844   53.9252   24.0686 H   0  0  0  0  0  0
    3.9604   54.1691   23.7912 H   0  0  0  0  0  0
    7.8696   55.9177   22.6097 H   0  0  0  0  0  0
    4.2278   52.4711   22.4540 H   0  0  0  0  0  0
    3.3994   54.1771   19.2655 H   0  0  0  0  0  0
    4.0428   52.9117   18.2875 H   0  0  0  0  0  0
    6.6233   55.7320   18.1278 H   0  0  0  0  0  0
    1.5751   53.2823   21.3026 H   0  0  0  0  0  0
   -0.5906   52.1242   21.0789 H   0  0  0  0  0  0
   -0.6999   49.9075   19.9907 H   0  0  0  0  0  0
    1.3571   48.8570   19.0990 H   0  0  0  0  0  0
    3.5038   50.0150   19.2825 H   0  0  0  0  0  0
    4.3043   54.0143   30.2122 H   0  0  0  0  0  0
    4.4017   52.3077   29.8157 H   0  0  0  0  0  0
    1.9078   53.9228   30.4786 H   0  0  0  0  0  0
    2.5148   52.5007   31.2900 H   0  0  0  0  0  0
    0.5782   51.8775   29.9329 H   0  0  0  0  0  0
    1.9974   51.1331   29.2508 H   0  0  0  0  0  0
    0.6937   52.0278   27.4739 H   0  0  0  0  0  0
    0.5253   53.5952   28.2054 H   0  0  0  0  0  0
  1  2  1  0  0  0
  1 39  1  0  0  0
  1 40  1  0  0  0
  1 41  1  0  0  0
  2  3  1  0  0  0
  2  4  1  0  0  0
  2 42  1  0  0  0
  3 43  1  0  0  0
  3 44  1  0  0  0
  3 45  1  0  0  0
  4  5  1  0  0  0
  5  6  2  0  0  0
  5  7  1  0  0  0
  7 11  2  0  0  0
  7  8  1  0  0  0
  8 38  1  0  0  0
  8  9  2  0  0  0
  9 10  1  0  0  0
  9 35  1  0  0  0
 10 11  1  0  0  0
 11 12  1  0  0  0
 12 13  1  0  0  0
 12 46  1  0  0  0
 13 14  2  0  0  0
 13 15  1  0  0  0
 15 19  2  0  0  0
 15 16  1  0  0  0
 16 17  2  0  0  0
 16 47  1  0  0  0
 17 18  1  0  0  0
 18 24  1  0  0  0
 18 19  1  0  0  0
 19 20  1  0  0  0
 20 21  1  0  0  0
 20 48  1  0  0  0
 21 22  1  0  0  0
 21 23  1  0  0  0
 21 29  1  0  0  0
 23 24  1  0  0  0
 23 49  1  0  0  0
 23 50  1  0  0  0
 24 25  1  0  0  0
 24 26  1  0  0  0
 26 27  1  0  0  0
 26 28  1  0  0  0
 26 51  1  0  0  0
 29 34  2  0  0  0
 29 30  1  0  0  0
 30 31  2  0  0  0
 30 52  1  0  0  0
 31 32  1  0  0  0
 31 53  1  0  0  0
 32 33  2  0  0  0
 32 54  1  0  0  0
 33 34  1  0  0  0
 33 55  1  0  0  0
 34 56  1  0  0  0
 35 36  1  0  0  0
 35 57  1  0  0  0
 35 58  1  0  0  0
 36 37  1  0  0  0
 36 59  1  0  0  0
 36 60  1  0  0  0
 37 38  1  0  0  0
 37 61  1  0  0  0
 37 62  1  0  0  0
 38 63  1  0  0  0
 38 64  1  0  0  0
M  END
> <i_i_glide_confnum>
126

> <i_i_glide_lignum>
5067

> <i_i_glide_posenum>
330

> <i_i_glide_rotatable_bonds>
8

> <i_m_Source_File_Index>
131

> <b_m_subgroup_collapsed>
0

> <r_i_docking_score>
-5.80037

> <r_i_glide_ecoul>
-2.04035

> <r_i_glide_eff_state_penalty>
0

> <r_i_glide_einternal>
5.76986

> <r_i_glide_emodel>
-72.7926

> <r_i_glide_energy>
-55.7587

> <r_i_glide_erotb>
0.464807

> <r_i_glide_esite>
-0.000147786

> <r_i_glide_evdw>
-53.7183

> <r_i_glide_gscore>
-5.80037

> <r_i_glide_hbond>
-0.0274155

> <r_i_glide_ligand_efficiency>
-0.161121

> <r_i_glide_ligand_efficiency_ln>
-1.26548

> <r_i_glide_ligand_efficiency_sa>
-0.532011

> <r_i_glide_lipo>
-2.24372

> <r_i_glide_metal>
0

> <r_i_glide_rewards>
-1.00192

> <s_i_glide_gridfile>
wee1_glide-grid

> <s_m_Source_File>
wee1_decoys_glide_SP.sdf

> <s_m_Source_Path>
/Users/zhangxujun/Desktop

> <s_m_entry_id>
406

> <s_m_entry_name>
wee1_decoys_glide_SP.131

> <s_m_subgroup_title>
wee1_decoys_glide_SP

> <s_m_subgroupid>
wee1_decoys_glide_SP


$$$$
