ZINC53104086_1908
                    3D
 Schrodinger Suite 2024-2.
 37 38  0  0  1  0            999 V2000
   -0.1983   51.0124   27.3139 C   0  0  0  0  0  0
    0.7525   52.1408   27.7481 C   0  0  1  0  0  0
    1.2597   52.5126   26.8562 H   0  0  0  0  0  0
   -0.0161   53.3151   28.3990 C   0  0  0  0  0  0
    0.9334   54.4389   28.8935 C   0  0  0  0  0  0
    2.0522   53.8632   29.7940 C   0  0  0  0  0  0
    2.8664   52.7384   29.0863 C   0  0  2  0  0  0
    1.8004   51.6516   28.7800 C   0  0  0  0  0  0
    3.9669   52.1523   30.0226 C   0  0  0  0  0  0
    3.5039   51.6972   31.2801 O   0  0  0  0  0  0
    3.5168   53.1993   27.8428 N   0  0  0  0  0  0
    4.5057   54.1003   27.7007 C   0  0  0  0  0  0
    5.0335   54.7113   28.6292 O   0  0  0  0  0  0
    4.9176   54.3094   26.3436 C   0  0  0  0  0  0
    4.2424   54.0971   25.1396 C   0  0  0  0  0  0
    5.0667   54.4877   24.0781 C   0  0  0  0  0  0
    6.2233   54.9937   24.6480 C   0  0  0  0  0  0
    6.1091   54.9006   26.0112 N   0  0  0  0  0  0
    6.7949   55.2025   26.6888 H   0  0  0  0  0  0
    4.6627   54.3728   22.2234 Br  0  0  0  0  0  0
   -0.7729   50.6257   28.1564 H   0  0  0  0  0  0
   -0.9086   51.3589   26.5635 H   0  0  0  0  0  0
    0.3489   50.1729   26.8810 H   0  0  0  0  0  0
   -0.7656   53.6966   27.7049 H   0  0  0  0  0  0
   -0.5897   52.9390   29.2482 H   0  0  0  0  0  0
    1.3641   54.9682   28.0426 H   0  0  0  0  0  0
    0.3750   55.1763   29.4698 H   0  0  0  0  0  0
    1.6090   53.4916   30.7200 H   0  0  0  0  0  0
    2.7186   54.6761   30.0829 H   0  0  0  0  0  0
    2.2961   50.7752   28.3630 H   0  0  0  0  0  0
    1.3075   51.2938   29.6830 H   0  0  0  0  0  0
    4.5160   51.3551   29.5209 H   0  0  0  0  0  0
    4.7035   52.9140   30.2323 H   0  0  0  0  0  0
    4.2386   51.6991   31.8999 H   0  0  0  0  0  0
    3.2076   52.7401   27.0011 H   0  0  0  0  0  0
    3.2510   53.6836   25.0284 H   0  0  0  0  0  0
    7.1039   55.4214   24.1925 H   0  0  0  0  0  0
  1  2  1  0  0  0
  1 21  1  0  0  0
  1 22  1  0  0  0
  1 23  1  0  0  0
  2  3  1  0  0  0
  2  8  1  0  0  0
  2  4  1  0  0  0
  4  5  1  0  0  0
  4 24  1  0  0  0
  4 25  1  0  0  0
  5  6  1  0  0  0
  5 26  1  0  0  0
  5 27  1  0  0  0
  6  7  1  0  0  0
  6 28  1  0  0  0
  6 29  1  0  0  0
  7  8  1  0  0  0
  7  9  1  0  0  0
  7 11  1  0  0  0
  8 30  1  0  0  0
  8 31  1  0  0  0
  9 10  1  0  0  0
  9 32  1  0  0  0
  9 33  1  0  0  0
 10 34  1  0  0  0
 11 12  1  0  0  0
 11 35  1  0  0  0
 12 13  2  0  0  0
 12 14  1  0  0  0
 14 18  1  0  0  0
 14 15  2  0  0  0
 15 16  1  0  0  0
 15 36  1  0  0  0
 16 17  2  0  0  0
 16 20  1  0  0  0
 17 18  1  0  0  0
 17 37  1  0  0  0
 18 19  1  0  0  0
M  END
> <i_i_glide_confnum>
22

> <i_i_glide_lignum>
1909

> <i_i_glide_posenum>
161

> <i_i_glide_rotatable_bonds>
5

> <i_m_Source_File_Index>
4860

> <b_m_subgroup_collapsed>
0

> <r_i_docking_score>
-5.00478

> <r_i_glide_ecoul>
-1.23055

> <r_i_glide_eff_state_penalty>
0

> <r_i_glide_einternal>
4.71141

> <r_i_glide_emodel>
-38.6342

> <r_i_glide_energy>
-31.241

> <r_i_glide_erotb>
0.748803

> <r_i_glide_esite>
0

> <r_i_glide_evdw>
-30.0104

> <r_i_glide_gscore>
-5.00478

> <r_i_glide_hbond>
-0.32

> <r_i_glide_ligand_efficiency>
-0.278043

> <r_i_glide_ligand_efficiency_ln>
-1.28645

> <r_i_glide_ligand_efficiency_sa>
-0.72868

> <r_i_glide_lipo>
-2.13997

> <r_i_glide_metal>
0

> <r_i_glide_rewards>
-1.60851

> <s_i_glide_gridfile>
wee1_glide-grid

> <s_m_Source_File>
wee1_decoys_glide_SP.sdf

> <s_m_Source_Path>
/Users/zhangxujun/Desktop

> <s_m_entry_id>
5135

> <s_m_entry_name>
wee1_decoys_glide_SP.4860

> <s_m_subgroup_title>
wee1_decoys_glide_SP

> <s_m_subgroupid>
wee1_decoys_glide_SP


$$$$
