ZINC13390747_1938
                    3D
 Schrodinger Suite 2024-2.
 52 54  0  0  1  0            999 V2000
    7.0731   54.8335   24.5512 C   0  0  0  0  0  0
    6.1696   54.5163   25.7248 C   0  0  0  0  0  0
    6.7060   54.0387   26.9200 C   0  0  0  0  0  0
    5.8672   53.6774   27.9684 C   0  0  0  0  0  0
    4.4840   53.7963   27.8302 C   0  0  0  0  0  0
    3.9562   54.3307   26.6504 C   0  0  0  0  0  0
    4.7933   54.6724   25.5955 C   0  0  0  0  0  0
    3.4471   53.3035   29.2181 S   0  0  0  0  0  0
    3.2626   54.5086   30.0294 O   0  0  0  0  0  0
    4.0724   52.1145   29.8119 O   0  0  0  0  0  0
    1.8482   52.8397   28.6036 N   0  0  0  0  0  0
    1.5952   51.4402   28.2312 C   0  0  0  0  0  0
    0.1414   51.1065   28.5986 C   0  0  0  0  0  0
   -0.9244   52.0461   27.9865 C   0  0  0  0  0  0
   -0.4955   53.5215   28.2055 C   0  0  0  0  0  0
    0.9819   53.8251   27.9154 C   0  0  0  0  0  0
   -1.1662   51.6450   26.4959 C   0  0  0  0  0  0
   -1.1816   52.4912   25.6002 O   0  0  0  0  0  0
   -1.4651   50.3393   26.3127 N   0  0  0  0  0  0
   -1.6460   49.5634   25.1582 C   0  0  0  0  0  0
   -2.6325   48.5823   25.2833 C   0  0  0  0  0  0
   -2.7964   47.6018   24.3095 C   0  0  0  0  0  0
   -1.9734   47.5727   23.1775 C   0  0  0  0  0  0
   -1.0042   48.5803   23.0360 C   0  0  0  0  0  0
   -0.8120   49.5634   24.0190 C   0  0  0  0  0  0
    0.3657   50.5155   23.8513 C   0  0  0  0  0  0
   -2.0959   46.4625   22.1738 C   0  0  0  0  0  0
   -1.5924   46.6392   21.0412 O   0  0  0  0  0  0
    7.8747   54.0976   24.4816 H   0  0  0  0  0  0
    6.5311   54.7829   23.6059 H   0  0  0  0  0  0
    7.5037   55.8289   24.6532 H   0  0  0  0  0  0
    7.7716   53.9262   27.0403 H   0  0  0  0  0  0
    6.2971   53.2955   28.8817 H   0  0  0  0  0  0
    2.9090   54.4956   26.5082 H   0  0  0  0  0  0
    4.3671   55.0533   24.6788 H   0  0  0  0  0  0
    2.3033   50.7774   28.7265 H   0  0  0  0  0  0
    1.7190   51.3421   27.1541 H   0  0  0  0  0  0
   -0.0209   51.0507   29.6758 H   0  0  0  0  0  0
   -0.0956   50.0968   28.3222 H   0  0  0  0  0  0
   -1.8891   51.7991   28.4330 H   0  0  0  0  0  0
   -1.1792   54.1793   27.6817 H   0  0  0  0  0  0
   -0.7227   53.7877   29.2397 H   0  0  0  0  0  0
    1.2650   54.8400   28.1976 H   0  0  0  0  0  0
    1.1043   53.6965   26.8406 H   0  0  0  0  0  0
   -1.5894   49.7907   27.1596 H   0  0  0  0  0  0
   -3.2499   48.5404   26.1700 H   0  0  0  0  0  0
   -3.5526   46.8443   24.4580 H   0  0  0  0  0  0
   -0.3496   48.5647   22.1746 H   0  0  0  0  0  0
    0.8839   50.6643   24.7985 H   0  0  0  0  0  0
    1.1112   50.1170   23.1613 H   0  0  0  0  0  0
    0.0293   51.4839   23.4807 H   0  0  0  0  0  0
   -2.6602   45.3997   22.5354 O   0  5  0  0  0  0
  1  2  1  0  0  0
  1 29  1  0  0  0
  1 30  1  0  0  0
  1 31  1  0  0  0
  2  7  2  0  0  0
  2  3  1  0  0  0
  3  4  2  0  0  0
  3 32  1  0  0  0
  4  5  1  0  0  0
  4 33  1  0  0  0
  5  6  2  0  0  0
  5  8  1  0  0  0
  6  7  1  0  0  0
  6 34  1  0  0  0
  7 35  1  0  0  0
  8  9  2  0  0  0
  8 10  2  0  0  0
  8 11  1  0  0  0
 11 16  1  0  0  0
 11 12  1  0  0  0
 12 13  1  0  0  0
 12 36  1  0  0  0
 12 37  1  0  0  0
 13 14  1  0  0  0
 13 38  1  0  0  0
 13 39  1  0  0  0
 14 15  1  0  0  0
 14 17  1  0  0  0
 14 40  1  0  0  0
 15 16  1  0  0  0
 15 41  1  0  0  0
 15 42  1  0  0  0
 16 43  1  0  0  0
 16 44  1  0  0  0
 17 18  2  0  0  0
 17 19  1  0  0  0
 19 20  1  0  0  0
 19 45  1  0  0  0
 20 25  2  0  0  0
 20 21  1  0  0  0
 21 22  2  0  0  0
 21 46  1  0  0  0
 22 23  1  0  0  0
 22 47  1  0  0  0
 23 24  2  0  0  0
 23 27  1  0  0  0
 24 25  1  0  0  0
 24 48  1  0  0  0
 25 26  1  0  0  0
 26 49  1  0  0  0
 26 50  1  0  0  0
 26 51  1  0  0  0
 27 28  2  0  0  0
 27 52  1  0  0  0
M  CHG  1  52  -1
M  END
> <i_i_glide_confnum>
244

> <i_i_glide_lignum>
1939

> <i_i_glide_posenum>
160

> <i_i_glide_rotatable_bonds>
6

> <i_m_Source_File_Index>
6003

> <b_m_subgroup_collapsed>
0

> <r_i_docking_score>
-5.25323

> <r_i_glide_ecoul>
-8.39134

> <r_i_glide_eff_state_penalty>
0

> <r_i_glide_einternal>
9.47594

> <r_i_glide_emodel>
-48.9327

> <r_i_glide_energy>
-39.3619

> <r_i_glide_erotb>
0.571962

> <r_i_glide_esite>
-0.196586

> <r_i_glide_evdw>
-30.9705

> <r_i_glide_gscore>
-5.25323

> <r_i_glide_hbond>
-0.255991

> <r_i_glide_ligand_efficiency>
-0.181146

> <r_i_glide_ligand_efficiency_ln>
-1.20286

> <r_i_glide_ligand_efficiency_sa>
-0.556537

> <r_i_glide_lipo>
-2.16888

> <r_i_glide_metal>
0

> <r_i_glide_rewards>
-0.396509

> <s_i_glide_gridfile>
wee1_glide-grid

> <s_m_Source_File>
wee1_decoys_glide_SP.sdf

> <s_m_Source_Path>
/Users/zhangxujun/Desktop

> <s_m_entry_id>
6278

> <s_m_entry_name>
wee1_decoys_glide_SP.6003

> <s_m_subgroup_title>
wee1_decoys_glide_SP

> <s_m_subgroupid>
wee1_decoys_glide_SP


$$$$
