ZINC23302782_5105
                    3D
 Schrodinger Suite 2024-2.
 67 70  0  0  1  0            999 V2000
    2.6466   46.1423   16.4694 C   0  0  0  0  0  0
    1.3568   46.5248   15.7596 C   0  0  0  0  0  0
    0.7790   45.6016   14.8845 C   0  0  0  0  0  0
   -0.3785   45.9219   14.1808 C   0  0  0  0  0  0
   -0.9664   47.1734   14.3401 C   0  0  0  0  0  0
   -0.4085   48.1150   15.2086 C   0  0  0  0  0  0
    0.7499   47.7861   15.9403 C   0  0  0  0  0  0
    1.3077   48.7608   16.7856 N   0  0  0  0  0  0
    1.3626   48.7105   18.1306 C   0  0  0  0  0  0
    0.9433   47.7676   18.8070 O   0  0  0  0  0  0
    1.9734   49.9568   18.8031 C   0  0  0  0  0  0
    1.7263   49.9808   20.3404 N   0  3  0  0  0  0
    0.2406   50.2352   20.6965 C   0  0  0  0  0  0
    0.0952   50.2271   22.2318 C   0  0  0  0  0  0
    0.8710   51.3198   22.8403 N   0  0  0  0  0  0
    2.3017   51.1211   22.5258 C   0  0  0  0  0  0
    2.5751   51.0940   21.0005 C   0  0  0  0  0  0
    0.6460   51.3021   24.3047 C   0  0  0  0  0  0
    1.0765   52.6126   25.0052 C   0  0  0  0  0  0
    1.0332   53.6944   24.4159 O   0  0  0  0  0  0
    1.4733   52.4975   26.2906 N   0  0  0  0  0  0
    1.9155   53.5806   27.1821 C   0  0  2  0  0  0
    1.4225   54.4965   26.8695 H   0  0  0  0  0  0
    3.4184   53.9321   27.0826 C   0  0  0  0  0  0
    4.1460   54.3123   28.2213 C   0  0  0  0  0  0
    5.5186   54.4973   28.1563 C   0  0  0  0  0  0
    6.1684   54.3743   26.9397 C   0  0  0  0  0  0
    5.4587   54.0984   25.7807 C   0  0  0  0  0  0
    4.0889   53.8721   25.8540 C   0  0  0  0  0  0
    7.5037   54.5208   26.8860 F   0  0  0  0  0  0
    1.4406   53.2572   28.5967 C   0  0  0  0  0  0
    0.3638   53.8006   29.2925 C   0  0  0  0  0  0
    0.2599   53.4017   30.6257 C   0  0  0  0  0  0
    1.2286   52.4890   30.9752 C   0  0  0  0  0  0
    2.2435   52.0970   29.6301 S   0  0  0  0  0  0
   -1.0855   49.4738   15.3499 C   0  0  0  0  0  0
    3.0493   45.1848   16.1368 H   0  0  0  0  0  0
    3.4128   46.8973   16.3053 H   0  0  0  0  0  0
    2.4530   46.0968   17.5370 H   0  0  0  0  0  0
    1.2295   44.6308   14.7390 H   0  0  0  0  0  0
   -0.8157   45.2024   13.5053 H   0  0  0  0  0  0
   -1.8618   47.4103   13.7816 H   0  0  0  0  0  0
    1.7495   49.5431   16.3247 H   0  0  0  0  0  0
    1.5800   50.8888   18.3922 H   0  0  0  0  0  0
    3.0584   49.9528   18.6669 H   0  0  0  0  0  0
   -0.0568   51.1840   20.2444 H   0  0  0  0  0  0
   -0.3492   49.4259   20.2663 H   0  0  0  0  0  0
    0.4314   49.2703   22.6378 H   0  0  0  0  0  0
   -0.9634   50.3448   22.4720 H   0  0  0  0  0  0
    2.8849   51.9396   22.9495 H   0  0  0  0  0  0
    2.6296   50.1721   22.9619 H   0  0  0  0  0  0
    2.3215   52.0414   20.5182 H   0  0  0  0  0  0
    3.6207   50.8466   20.8020 H   0  0  0  0  0  0
    1.1127   50.4280   24.7643 H   0  0  0  0  0  0
   -0.4139   51.1657   24.5234 H   0  0  0  0  0  0
    1.5584   51.5703   26.6782 H   0  0  0  0  0  0
    3.6698   54.4355   29.1811 H   0  0  0  0  0  0
    6.0773   54.7434   29.0461 H   0  0  0  0  0  0
    5.9720   54.0173   24.8358 H   0  0  0  0  0  0
    3.5705   53.6230   24.9438 H   0  0  0  0  0  0
   -0.3139   54.4967   28.8315 H   0  0  0  0  0  0
   -0.4949   53.7521   31.3139 H   0  0  0  0  0  0
    1.3585   52.0119   31.9369 H   0  0  0  0  0  0
   -2.0012   49.5492   14.7627 H   0  0  0  0  0  0
   -1.3415   49.6583   16.3934 H   0  0  0  0  0  0
   -0.4104   50.2692   15.0341 H   0  0  0  0  0  0
    1.9963   49.0797   20.7173 H   0  0  0  0  0  0
  1  2  1  0  0  0
  1 37  1  0  0  0
  1 38  1  0  0  0
  1 39  1  0  0  0
  2  7  2  0  0  0
  2  3  1  0  0  0
  3  4  2  0  0  0
  3 40  1  0  0  0
  4  5  1  0  0  0
  4 41  1  0  0  0
  5  6  2  0  0  0
  5 42  1  0  0  0
  6  7  1  0  0  0
  6 36  1  0  0  0
  7  8  1  0  0  0
  8  9  1  0  0  0
  8 43  1  0  0  0
  9 10  2  0  0  0
  9 11  1  0  0  0
 11 12  1  0  0  0
 11 44  1  0  0  0
 11 45  1  0  0  0
 12 17  1  0  0  0
 12 13  1  0  0  0
 12 67  1  0  0  0
 13 14  1  0  0  0
 13 46  1  0  0  0
 13 47  1  0  0  0
 14 15  1  0  0  0
 14 48  1  0  0  0
 14 49  1  0  0  0
 15 16  1  0  0  0
 15 18  1  0  0  0
 16 17  1  0  0  0
 16 50  1  0  0  0
 16 51  1  0  0  0
 17 52  1  0  0  0
 17 53  1  0  0  0
 18 19  1  0  0  0
 18 54  1  0  0  0
 18 55  1  0  0  0
 19 20  2  0  0  0
 19 21  1  0  0  0
 21 22  1  0  0  0
 21 56  1  0  0  0
 22 23  1  0  0  0
 22 24  1  0  0  0
 22 31  1  0  0  0
 24 29  2  0  0  0
 24 25  1  0  0  0
 25 26  2  0  0  0
 25 57  1  0  0  0
 26 27  1  0  0  0
 26 58  1  0  0  0
 27 28  2  0  0  0
 27 30  1  0  0  0
 28 29  1  0  0  0
 28 59  1  0  0  0
 29 60  1  0  0  0
 31 35  1  0  0  0
 31 32  2  0  0  0
 32 33  1  0  0  0
 32 61  1  0  0  0
 33 34  2  0  0  0
 33 62  1  0  0  0
 34 35  1  0  0  0
 34 63  1  0  0  0
 36 64  1  0  0  0
 36 65  1  0  0  0
 36 66  1  0  0  0
M  CHG  1  12   1
M  END
> <i_i_glide_confnum>
3

> <i_i_glide_lignum>
5106

> <i_i_glide_posenum>
170

> <i_i_glide_rotatable_bonds>
10

> <i_m_Source_File_Index>
3824

> <b_m_subgroup_collapsed>
0

> <r_i_docking_score>
-4.6894

> <r_i_glide_ecoul>
-4.38727

> <r_i_glide_eff_state_penalty>
0

> <r_i_glide_einternal>
3.19052

> <r_i_glide_emodel>
-57.1821

> <r_i_glide_energy>
-42.5489

> <r_i_glide_erotb>
0.829903

> <r_i_glide_esite>
-0.243453

> <r_i_glide_evdw>
-38.1616

> <r_i_glide_gscore>
-4.6894

> <r_i_glide_hbond>
0

> <r_i_glide_ligand_efficiency>
-0.133983

> <r_i_glide_ligand_efficiency_ln>
-1.02943

> <r_i_glide_ligand_efficiency_sa>
-0.438266

> <r_i_glide_lipo>
-2.39837

> <r_i_glide_metal>
0

> <r_i_glide_rewards>
-0.311307

> <s_i_glide_gridfile>
wee1_glide-grid

> <s_m_Source_File>
wee1_decoys_glide_SP.sdf

> <s_m_Source_Path>
/Users/zhangxujun/Desktop

> <s_m_entry_id>
4099

> <s_m_entry_name>
wee1_decoys_glide_SP.3824

> <s_m_subgroup_title>
wee1_decoys_glide_SP

> <s_m_subgroupid>
wee1_decoys_glide_SP


$$$$
