ZINC03840979_2438
                    3D
 Schrodinger Suite 2024-2.
 68 71  0  0  1  0            999 V2000
   -3.6965   51.6332   23.6771 C   0  0  0  0  0  0
   -2.3453   51.0466   23.2149 C   0  0  2  0  0  0
   -2.3939   51.1302   22.1300 H   0  0  0  0  0  0
   -2.1923   49.5580   23.5336 C   0  0  0  0  0  0
   -1.2422   49.0518   24.4347 C   0  0  0  0  0  0
   -1.3417   47.3212   24.4799 S   0  0  0  0  0  0
   -2.5890   47.4337   23.2866 C   0  0  0  0  0  0
   -2.9453   48.6460   22.9407 N   0  0  0  0  0  0
   -3.1118   46.2782   22.7593 N   0  0  0  0  0  0
   -2.6639   45.5731   21.6932 C   0  0  0  0  0  0
   -3.1221   44.4416   21.5416 O   0  0  0  0  0  0
   -1.6956   46.1243   20.7300 C   0  0  0  0  0  0
   -0.9059   47.2874   20.7823 C   0  0  0  0  0  0
   -0.1017   47.3677   19.6508 C   0  0  0  0  0  0
   -0.3893   46.2597   18.8906 C   0  0  0  0  0  0
   -1.3426   45.5006   19.5300 N   0  0  0  0  0  0
   -1.8704   44.2596   18.9714 C   0  0  0  0  0  0
   -0.1864   49.8537   25.1663 C   0  0  0  0  0  0
   -0.5765   51.3660   25.1550 C   0  0  2  0  0  0
   -1.0763   51.8277   23.7246 C   0  0  1  0  0  0
   -1.3543   52.8798   23.8200 H   0  0  0  0  0  0
    0.1098   51.8099   22.6897 C   0  0  2  0  0  0
    0.4790   50.7854   22.6503 H   0  0  0  0  0  0
    1.3034   52.7202   23.1259 C   0  0  1  0  0  0
    0.8865   53.7177   23.2819 H   0  0  0  0  0  0
    1.7801   52.2417   24.5270 C   0  0  0  0  0  0
    0.6356   52.2523   25.5522 C   0  0  0  0  0  0
    2.4597   52.8463   22.0536 C   0  0  2  0  0  0
    2.0159   53.2965   21.1666 H   0  0  0  0  0  0
    3.0058   51.4438   21.6409 C   0  0  0  0  0  0
    3.5815   53.8744   22.4182 C   0  0  0  0  0  0
    3.4886   54.4966   23.4774 O   0  0  0  0  0  0
    4.6406   54.0904   21.5875 N   0  0  0  0  0  0
    5.8515   54.7703   22.0854 C   0  0  0  0  0  0
    4.6760   53.7323   20.1542 C   0  0  0  0  0  0
    4.6644   54.8971   19.2464 C   0  0  0  0  0  0
    4.6582   55.8498   18.4817 C   0  0  0  0  0  0
   -0.3013   52.0968   21.3631 O   0  0  0  0  0  0
   -1.6667   51.6004   26.2376 C   0  0  0  0  0  0
   -4.5181   51.2238   23.0884 H   0  0  0  0  0  0
   -3.9256   51.4150   24.7178 H   0  0  0  0  0  0
   -3.7210   52.7159   23.5580 H   0  0  0  0  0  0
   -3.9973   45.9828   23.1423 H   0  0  0  0  0  0
   -0.8679   48.0273   21.5645 H   0  0  0  0  0  0
    0.6125   48.1450   19.4149 H   0  0  0  0  0  0
    0.0080   45.9443   17.9362 H   0  0  0  0  0  0
   -1.4599   44.0855   17.9747 H   0  0  0  0  0  0
   -1.5890   43.4263   19.6137 H   0  0  0  0  0  0
   -2.9557   44.3275   18.8946 H   0  0  0  0  0  0
    0.7415   49.6792   24.6245 H   0  0  0  0  0  0
   -0.0299   49.4819   26.1816 H   0  0  0  0  0  0
    2.2325   51.2629   24.4540 H   0  0  0  0  0  0
    2.5805   52.8593   24.9270 H   0  0  0  0  0  0
    1.0220   51.9425   26.5246 H   0  0  0  0  0  0
    0.3078   53.2796   25.6915 H   0  0  0  0  0  0
    3.9817   51.4544   21.1579 H   0  0  0  0  0  0
    3.1045   50.7630   22.4816 H   0  0  0  0  0  0
    2.3294   50.9600   20.9367 H   0  0  0  0  0  0
    5.7770   55.0863   23.1267 H   0  0  0  0  0  0
    6.7046   54.0974   22.0340 H   0  0  0  0  0  0
    6.0780   55.6578   21.4938 H   0  0  0  0  0  0
    3.8125   53.1437   19.8490 H   0  0  0  0  0  0
    5.5575   53.1275   19.9366 H   0  0  0  0  0  0
    4.6431   56.6855   17.8172 H   0  0  0  0  0  0
    0.4530   51.9771   20.7804 H   0  0  0  0  0  0
   -2.4510   50.8463   26.2042 H   0  0  0  0  0  0
   -1.2499   51.5396   27.2438 H   0  0  0  0  0  0
   -2.1322   52.5828   26.1420 H   0  0  0  0  0  0
  1  2  1  0  0  0
  1 40  1  0  0  0
  1 41  1  0  0  0
  1 42  1  0  0  0
  2  3  1  0  0  0
  2 20  1  0  0  0
  2  4  1  0  0  0
  4  8  1  0  0  0
  4  5  2  0  0  0
  5  6  1  0  0  0
  5 18  1  0  0  0
  6  7  1  0  0  0
  7  8  2  0  0  0
  7  9  1  0  0  0
  9 10  1  0  0  0
  9 43  1  0  0  0
 10 11  2  0  0  0
 10 12  1  0  0  0
 12 16  1  0  0  0
 12 13  2  0  0  0
 13 14  1  0  0  0
 13 44  1  0  0  0
 14 15  2  0  0  0
 14 45  1  0  0  0
 15 16  1  0  0  0
 15 46  1  0  0  0
 16 17  1  0  0  0
 17 47  1  0  0  0
 17 48  1  0  0  0
 17 49  1  0  0  0
 18 19  1  0  0  0
 18 50  1  0  0  0
 18 51  1  0  0  0
 19 27  1  0  0  0
 19 20  1  0  0  0
 19 39  1  0  0  0
 20 21  1  0  0  0
 20 22  1  0  0  0
 22 23  1  0  0  0
 22 24  1  0  0  0
 22 38  1  0  0  0
 24 25  1  0  0  0
 24 26  1  0  0  0
 24 28  1  0  0  0
 26 27  1  0  0  0
 26 52  1  0  0  0
 26 53  1  0  0  0
 27 54  1  0  0  0
 27 55  1  0  0  0
 28 29  1  0  0  0
 28 30  1  0  0  0
 28 31  1  0  0  0
 30 56  1  0  0  0
 30 57  1  0  0  0
 30 58  1  0  0  0
 31 32  2  0  0  0
 31 33  1  0  0  0
 33 34  1  0  0  0
 33 35  1  0  0  0
 34 59  1  0  0  0
 34 60  1  0  0  0
 34 61  1  0  0  0
 35 36  1  0  0  0
 35 62  1  0  0  0
 35 63  1  0  0  0
 36 37  3  0  0  0
 37 64  1  0  0  0
 38 65  1  0  0  0
 39 66  1  0  0  0
 39 67  1  0  0  0
 39 68  1  0  0  0
M  END
> <i_i_glide_confnum>
99

> <i_i_glide_lignum>
2439

> <i_i_glide_posenum>
337

> <i_i_glide_rotatable_bonds>
9

> <i_m_Source_File_Index>
5960

> <b_m_subgroup_collapsed>
0

> <r_i_docking_score>
-1.02369

> <r_i_glide_ecoul>
-2.89991

> <r_i_glide_eff_state_penalty>
0

> <r_i_glide_einternal>
13.9598

> <r_i_glide_emodel>
-25.4672

> <r_i_glide_energy>
-35.1114

> <r_i_glide_erotb>
0.697002

> <r_i_glide_esite>
-0.0569672

> <r_i_glide_evdw>
-32.2115

> <r_i_glide_gscore>
-1.02369

> <r_i_glide_hbond>
-0.00405968

> <r_i_glide_ligand_efficiency>
-0.0301085

> <r_i_glide_ligand_efficiency_ln>
-0.226161

> <r_i_glide_ligand_efficiency_sa>
-0.0975397

> <r_i_glide_lipo>
-0.919499

> <r_i_glide_metal>
0

> <r_i_glide_rewards>
1.3054

> <s_i_glide_gridfile>
wee1_glide-grid

> <s_m_Source_File>
wee1_decoys_glide_SP.sdf

> <s_m_Source_Path>
/Users/zhangxujun/Desktop

> <s_m_entry_id>
6235

> <s_m_entry_name>
wee1_decoys_glide_SP.5960

> <s_m_subgroup_title>
wee1_decoys_glide_SP

> <s_m_subgroupid>
wee1_decoys_glide_SP


$$$$
