ZINC11744320_3252
                    3D
 Schrodinger Suite 2024-2.
 56 60  0  0  1  0            999 V2000
    1.2017   48.6938   13.5925 C   0  0  0  0  0  0
    2.4880   48.2755   12.8966 C   0  0  0  0  0  0
    3.1035   47.2897   13.2916 O   0  0  0  0  0  0
    2.8929   49.0363   11.8683 N   0  0  0  0  0  0
    4.1329   48.8281   11.1154 C   0  0  0  0  0  0
    5.3638   49.4006   11.8048 C   0  0  0  0  0  0
    6.7071   49.1067   11.5760 C   0  0  0  0  0  0
    7.6065   49.8146   12.3770 C   0  0  0  0  0  0
    6.9916   50.6637   13.2820 C   0  0  0  0  0  0
    5.2667   50.5919   13.0789 S   0  0  0  0  0  0
    7.6048   51.4996   14.3082 C   0  0  0  0  0  0
    8.9767   51.7204   14.4588 C   0  0  0  0  0  0
    9.2652   52.7273   15.8482 S   0  0  0  0  0  0
    7.5387   52.7698   16.0978 C   0  0  0  0  0  0
    6.8514   52.0966   15.2167 N   0  0  0  0  0  0
    6.8842   53.4024   17.1437 N   0  0  0  0  0  0
    7.4099   54.2144   18.0840 C   0  0  0  0  0  0
    8.5800   54.6017   18.0827 O   0  0  0  0  0  0
    6.4229   54.7583   19.1478 C   0  0  0  0  0  0
    5.4176   53.6722   19.6360 C   0  0  0  0  0  0
    4.6503   54.0879   20.9099 C   0  0  0  0  0  0
    5.5576   54.5123   21.9843 N   0  0  0  0  0  0
    6.2645   55.7166   21.5275 C   0  0  0  0  0  0
    7.1688   55.4674   20.3110 C   0  0  0  0  0  0
    5.2170   54.4045   23.3058 C   0  0  0  0  0  0
    4.0546   54.0309   23.8068 N   0  0  0  0  0  0
    4.2485   54.0972   25.1577 C   0  0  0  0  0  0
    3.3808   53.8376   26.2300 C   0  0  0  0  0  0
    3.8809   53.9875   27.5301 C   0  0  0  0  0  0
    5.2049   54.3744   27.7675 C   0  0  0  0  0  0
    6.0845   54.6417   26.7137 C   0  0  0  0  0  0
    5.5685   54.4990   25.4225 C   0  0  0  0  0  0
    6.1860   54.7075   24.2271 O   0  0  0  0  0  0
    1.0239   49.7667   13.4814 H   0  0  0  0  0  0
    1.2687   48.4723   14.6609 H   0  0  0  0  0  0
    0.3537   48.1470   13.1744 H   0  0  0  0  0  0
    2.3250   49.8289   11.6074 H   0  0  0  0  0  0
    4.2597   47.7657   10.9005 H   0  0  0  0  0  0
    4.0066   49.2992   10.1408 H   0  0  0  0  0  0
    7.0258   48.3867   10.8390 H   0  0  0  0  0  0
    8.6772   49.6967   12.3190 H   0  0  0  0  0  0
    9.7942   51.3450   13.8613 H   0  0  0  0  0  0
    5.8963   53.2035   17.2073 H   0  0  0  0  0  0
    5.8072   55.4990   18.6336 H   0  0  0  0  0  0
    4.6625   53.4737   18.8739 H   0  0  0  0  0  0
    5.9038   52.7328   19.9021 H   0  0  0  0  0  0
    3.9301   54.8872   20.7056 H   0  0  0  0  0  0
    4.0733   53.2262   21.2512 H   0  0  0  0  0  0
    5.5189   56.4806   21.2817 H   0  0  0  0  0  0
    6.8832   56.1074   22.3375 H   0  0  0  0  0  0
    8.0095   54.8933   20.6998 H   0  0  0  0  0  0
    7.5375   56.4397   19.9814 H   0  0  0  0  0  0
    2.3620   53.5280   26.0542 H   0  0  0  0  0  0
    3.2319   53.7933   28.3739 H   0  0  0  0  0  0
    5.5563   54.4745   28.7862 H   0  0  0  0  0  0
    7.1043   54.9377   26.8936 H   0  0  0  0  0  0
  1  2  1  0  0  0
  1 34  1  0  0  0
  1 35  1  0  0  0
  1 36  1  0  0  0
  2  3  2  0  0  0
  2  4  1  0  0  0
  4  5  1  0  0  0
  4 37  1  0  0  0
  5  6  1  0  0  0
  5 38  1  0  0  0
  5 39  1  0  0  0
  6 10  1  0  0  0
  6  7  2  0  0  0
  7  8  1  0  0  0
  7 40  1  0  0  0
  8  9  2  0  0  0
  8 41  1  0  0  0
  9 10  1  0  0  0
  9 11  1  0  0  0
 11 15  1  0  0  0
 11 12  2  0  0  0
 12 13  1  0  0  0
 12 42  1  0  0  0
 13 14  1  0  0  0
 14 15  2  0  0  0
 14 16  1  0  0  0
 16 17  1  0  0  0
 16 43  1  0  0  0
 17 18  2  0  0  0
 17 19  1  0  0  0
 19 24  1  0  0  0
 19 20  1  0  0  0
 19 44  1  0  0  0
 20 21  1  0  0  0
 20 45  1  0  0  0
 20 46  1  0  0  0
 21 22  1  0  0  0
 21 47  1  0  0  0
 21 48  1  0  0  0
 22 23  1  0  0  0
 22 25  1  0  0  0
 23 24  1  0  0  0
 23 49  1  0  0  0
 23 50  1  0  0  0
 24 51  1  0  0  0
 24 52  1  0  0  0
 25 33  1  0  0  0
 25 26  2  0  0  0
 26 27  1  0  0  0
 27 32  2  0  0  0
 27 28  1  0  0  0
 28 29  2  0  0  0
 28 53  1  0  0  0
 29 30  1  0  0  0
 29 54  1  0  0  0
 30 31  2  0  0  0
 30 55  1  0  0  0
 31 32  1  0  0  0
 31 56  1  0  0  0
 32 33  1  0  0  0
M  END
> <i_i_glide_confnum>
58

> <i_i_glide_lignum>
3253

> <i_i_glide_posenum>
341

> <i_i_glide_rotatable_bonds>
8

> <i_m_Source_File_Index>
5148

> <b_m_subgroup_collapsed>
0

> <r_i_docking_score>
-4.79497

> <r_i_glide_ecoul>
-1.53716

> <r_i_glide_eff_state_penalty>
0

> <r_i_glide_einternal>
7.85422

> <r_i_glide_emodel>
-52.4398

> <r_i_glide_energy>
-41.5773

> <r_i_glide_erotb>
0.612302

> <r_i_glide_esite>
-0.0435629

> <r_i_glide_evdw>
-40.0401

> <r_i_glide_gscore>
-4.79497

> <r_i_glide_hbond>
-0.32

> <r_i_glide_ligand_efficiency>
-0.145302

> <r_i_glide_ligand_efficiency_ln>
-1.06638

> <r_i_glide_ligand_efficiency_sa>
-0.466061

> <r_i_glide_lipo>
-2.2717

> <r_i_glide_metal>
0

> <r_i_glide_rewards>
-0.539422

> <s_i_glide_gridfile>
wee1_glide-grid

> <s_m_Source_File>
wee1_decoys_glide_SP.sdf

> <s_m_Source_Path>
/Users/zhangxujun/Desktop

> <s_m_entry_id>
5423

> <s_m_entry_name>
wee1_decoys_glide_SP.5148

> <s_m_subgroup_title>
wee1_decoys_glide_SP

> <s_m_subgroupid>
wee1_decoys_glide_SP


$$$$
