ZINC39686483_5554
                    3D
 Schrodinger Suite 2024-2.
 70 73  0  0  1  0            999 V2000
    0.7982   51.2598   18.0286 C   0  0  0  0  0  0
    1.9322   50.3614   18.5686 C   0  0  2  0  0  0
    2.3043   49.8520   17.6794 H   0  0  0  0  0  0
    1.4603   49.2068   19.4965 C   0  0  0  0  0  0
    0.9918   49.6055   20.8990 C   0  0  0  0  0  0
    1.8862   49.4715   21.9667 C   0  0  0  0  0  0
    1.5031   49.8198   23.2587 C   0  0  0  0  0  0
    0.2210   50.3026   23.4978 C   0  0  0  0  0  0
   -0.6794   50.4361   22.4428 C   0  0  0  0  0  0
   -0.3102   50.0852   21.1311 C   0  0  0  0  0  0
   -1.1719   50.1748   20.0515 O   0  0  0  0  0  0
   -2.4910   50.6741   20.2420 C   0  0  0  0  0  0
    3.1042   51.1040   19.0577 N   0  0  0  0  0  0
    3.1365   52.0961   19.9580 C   0  0  0  0  0  0
    2.1331   52.4967   20.5481 O   0  0  0  0  0  0
    4.5456   52.6727   20.2476 C   0  0  2  0  0  0
    5.2538   51.8425   20.2687 H   0  0  0  0  0  0
    4.5096   53.3311   21.6396 C   0  0  0  0  0  0
    5.5554   54.3428   21.5735 N   0  0  0  0  0  0
    6.0137   54.5719   20.1923 C   0  0  0  0  0  0
    5.0385   53.7945   19.2799 C   0  0  0  0  0  0
    3.9258   54.7631   18.7899 C   0  0  0  0  0  0
    4.4500   55.9239   17.9137 C   0  0  0  0  0  0
    5.2495   55.3376   16.7270 N   0  3  0  0  0  0
    6.3373   54.3198   17.1380 C   0  0  0  0  0  0
    5.6672   53.2219   17.9855 C   0  0  0  0  0  0
    6.1929   54.8967   22.6362 C   0  0  0  0  0  0
    7.1206   55.6884   22.4673 O   0  0  0  0  0  0
    5.7508   54.5921   24.0618 C   0  0  0  0  0  0
    6.7182   54.4966   25.0666 C   0  0  0  0  0  0
    6.3584   54.2826   26.3938 C   0  0  0  0  0  0
    5.0184   54.1706   26.7542 C   0  0  0  0  0  0
    4.0372   54.2803   25.7582 C   0  0  0  0  0  0
    4.4001   54.4966   24.4299 C   0  0  0  0  0  0
    4.7676   53.9667   28.0979 O   0  0  0  0  0  0
    3.4303   53.8653   28.5809 C   0  0  0  0  0  0
    3.4992   53.6853   29.8998 F   0  0  0  0  0  0
    2.7398   54.9860   28.3650 F   0  0  0  0  0  0
    2.7946   52.8142   28.0622 F   0  0  0  0  0  0
   -0.0371   50.6526   17.6782 H   0  0  0  0  0  0
    0.3957   51.9284   18.7889 H   0  0  0  0  0  0
    1.1334   51.8517   17.1772 H   0  0  0  0  0  0
    2.2830   48.4959   19.6011 H   0  0  0  0  0  0
    0.6647   48.6380   19.0126 H   0  0  0  0  0  0
    2.8840   49.0941   21.7970 H   0  0  0  0  0  0
    2.1985   49.6993   24.0762 H   0  0  0  0  0  0
   -0.0771   50.5653   24.5028 H   0  0  0  0  0  0
   -1.6666   50.8062   22.6684 H   0  0  0  0  0  0
   -3.0099   50.6883   19.2840 H   0  0  0  0  0  0
   -3.0652   50.0393   20.9180 H   0  0  0  0  0  0
   -2.4821   51.6948   20.6272 H   0  0  0  0  0  0
    4.0036   50.8175   18.6463 H   0  0  0  0  0  0
    3.5816   53.8917   21.7520 H   0  0  0  0  0  0
    4.6562   52.5820   22.4187 H   0  0  0  0  0  0
    6.9854   54.0971   20.0811 H   0  0  0  0  0  0
    6.1834   55.6139   19.9231 H   0  0  0  0  0  0
    3.1052   54.2451   18.2893 H   0  0  0  0  0  0
    3.5044   55.2104   19.6816 H   0  0  0  0  0  0
    3.6371   56.5090   17.4795 H   0  0  0  0  0  0
    5.1171   56.6108   18.4345 H   0  0  0  0  0  0
    4.6014   54.8694   16.1080 H   0  0  0  0  0  0
    6.7589   53.9271   16.2108 H   0  0  0  0  0  0
    7.1120   54.8725   17.6714 H   0  0  0  0  0  0
    6.4398   52.4984   18.2518 H   0  0  0  0  0  0
    4.9411   52.6441   17.4081 H   0  0  0  0  0  0
    7.7665   54.5835   24.8211 H   0  0  0  0  0  0
    7.1222   54.2038   27.1548 H   0  0  0  0  0  0
    2.9863   54.2107   25.9959 H   0  0  0  0  0  0
    3.6083   54.6264   23.7112 H   0  0  0  0  0  0
    5.6649   56.0885   16.1903 H   0  0  0  0  0  0
  1  2  1  0  0  0
  1 40  1  0  0  0
  1 41  1  0  0  0
  1 42  1  0  0  0
  2  3  1  0  0  0
  2  4  1  0  0  0
  2 13  1  0  0  0
  4  5  1  0  0  0
  4 43  1  0  0  0
  4 44  1  0  0  0
  5 10  2  0  0  0
  5  6  1  0  0  0
  6  7  2  0  0  0
  6 45  1  0  0  0
  7  8  1  0  0  0
  7 46  1  0  0  0
  8  9  2  0  0  0
  8 47  1  0  0  0
  9 10  1  0  0  0
  9 48  1  0  0  0
 10 11  1  0  0  0
 11 12  1  0  0  0
 12 49  1  0  0  0
 12 50  1  0  0  0
 12 51  1  0  0  0
 13 14  1  0  0  0
 13 52  1  0  0  0
 14 15  2  0  0  0
 14 16  1  0  0  0
 16 17  1  0  0  0
 16 21  1  0  0  0
 16 18  1  0  0  0
 18 19  1  0  0  0
 18 53  1  0  0  0
 18 54  1  0  0  0
 19 20  1  0  0  0
 19 27  1  0  0  0
 20 21  1  0  0  0
 20 55  1  0  0  0
 20 56  1  0  0  0
 21 26  1  0  0  0
 21 22  1  0  0  0
 22 23  1  0  0  0
 22 57  1  0  0  0
 22 58  1  0  0  0
 23 24  1  0  0  0
 23 59  1  0  0  0
 23 60  1  0  0  0
 24 25  1  0  0  0
 24 61  1  0  0  0
 24 70  1  0  0  0
 25 26  1  0  0  0
 25 62  1  0  0  0
 25 63  1  0  0  0
 26 64  1  0  0  0
 26 65  1  0  0  0
 27 28  2  0  0  0
 27 29  1  0  0  0
 29 34  2  0  0  0
 29 30  1  0  0  0
 30 31  2  0  0  0
 30 66  1  0  0  0
 31 32  1  0  0  0
 31 67  1  0  0  0
 32 33  2  0  0  0
 32 35  1  0  0  0
 33 34  1  0  0  0
 33 68  1  0  0  0
 34 69  1  0  0  0
 35 36  1  0  0  0
 36 37  1  0  0  0
 36 38  1  0  0  0
 36 39  1  0  0  0
M  CHG  1  24   1
M  END
> <i_i_glide_confnum>
325

> <i_i_glide_lignum>
5555

> <i_i_glide_posenum>
198

> <i_i_glide_rotatable_bonds>
10

> <i_m_Source_File_Index>
879

> <b_m_subgroup_collapsed>
0

> <r_i_docking_score>
-6.02117

> <r_i_glide_ecoul>
-5.4986

> <r_i_glide_eff_state_penalty>
0

> <r_i_glide_einternal>
1.79973

> <r_i_glide_emodel>
-60.4785

> <r_i_glide_energy>
-41.5182

> <r_i_glide_erotb>
0.60673

> <r_i_glide_esite>
-0.155791

> <r_i_glide_evdw>
-36.0196

> <r_i_glide_gscore>
-6.02117

> <r_i_glide_hbond>
-0.15968

> <r_i_glide_ligand_efficiency>
-0.162734

> <r_i_glide_ligand_efficiency_ln>
-1.30585

> <r_i_glide_ligand_efficiency_sa>
-0.542267

> <r_i_glide_lipo>
-2.39625

> <r_i_glide_metal>
0

> <r_i_glide_rewards>
-1.29041

> <s_i_glide_gridfile>
wee1_glide-grid

> <s_m_Source_File>
wee1_decoys_glide_SP.sdf

> <s_m_Source_Path>
/Users/zhangxujun/Desktop

> <s_m_entry_id>
1154

> <s_m_entry_name>
wee1_decoys_glide_SP.879

> <s_m_subgroup_title>
wee1_decoys_glide_SP

> <s_m_subgroupid>
wee1_decoys_glide_SP


$$$$
