ZINC17448316_4179
                    3D
 Schrodinger Suite 2024-2.
 60 64  0  0  1  0            999 V2000
    7.1608   55.6967   21.4574 C   0  0  0  0  0  0
    7.0218   55.2968   20.0027 C   0  0  0  0  0  0
    7.9189   55.6285   18.9347 C   0  0  0  0  0  0
    9.1042   56.3700   18.8125 C   0  0  0  0  0  0
    9.7232   56.4492   17.5604 C   0  0  0  0  0  0
    9.1817   55.8187   16.4385 C   0  0  0  0  0  0
    8.0003   55.0784   16.5243 C   0  0  0  0  0  0
    7.3938   54.9995   17.7821 C   0  0  0  0  0  0
    6.2419   54.3359   18.0720 O   0  0  0  0  0  0
    6.0064   54.5400   19.4041 C   0  0  0  0  0  0
    4.7970   54.0024   19.9778 C   0  0  0  0  0  0
    4.3514   54.4454   21.0427 O   0  0  0  0  0  0
    4.2216   53.0193   19.2448 N   0  0  0  0  0  0
    3.0598   52.3853   19.7011 N   0  0  0  0  0  0
    3.1013   51.5342   20.7541 C   0  0  0  0  0  0
    4.1589   51.1799   21.2817 O   0  0  0  0  0  0
    1.7538   50.9374   21.2318 C   0  0  0  0  0  0
    1.9018   50.2068   22.6087 C   0  0  0  0  0  0
    0.5394   49.7554   23.1730 C   0  0  0  0  0  0
   -0.4062   50.8879   23.1572 N   0  0  0  0  0  0
   -0.6731   51.4927   21.8368 C   0  0  0  0  0  0
    0.6342   52.0308   21.2254 C   0  0  0  0  0  0
   -1.1153   51.5295   24.6498 S   0  0  0  0  0  0
   -1.9252   52.7063   24.3036 O   0  0  0  0  0  0
   -1.7215   50.4038   25.3713 O   0  0  0  0  0  0
    0.2535   52.1241   25.6423 C   0  0  0  0  0  0
    1.2134   52.9490   25.0584 C   0  0  0  0  0  0
    2.2587   53.4688   25.8153 C   0  0  0  0  0  0
    2.3535   53.1831   27.2010 C   0  0  0  0  0  0
    3.4036   53.7044   27.9963 C   0  0  0  0  0  0
    3.4717   53.4049   29.3543 C   0  0  0  0  0  0
    2.5039   52.6001   29.9524 C   0  0  0  0  0  0
    1.4545   52.0743   29.1989 C   0  0  0  0  0  0
    1.3647   52.3453   27.8083 C   0  0  0  0  0  0
    0.3229   51.8123   27.0038 C   0  0  0  0  0  0
    6.9361   54.8679   22.1287 H   0  0  0  0  0  0
    8.1656   56.0379   21.7065 H   0  0  0  0  0  0
    6.4710   56.4980   21.7030 H   0  0  0  0  0  0
    9.5450   56.8548   19.6720 H   0  0  0  0  0  0
   10.6468   57.0048   17.4609 H   0  0  0  0  0  0
    9.6905   55.9040   15.4884 H   0  0  0  0  0  0
    7.5770   54.5870   15.6615 H   0  0  0  0  0  0
    4.6840   52.5215   18.4934 H   0  0  0  0  0  0
    2.2146   52.7734   19.3070 H   0  0  0  0  0  0
    1.4858   50.2102   20.4629 H   0  0  0  0  0  0
    2.5261   49.3150   22.5302 H   0  0  0  0  0  0
    2.3045   50.8892   23.3586 H   0  0  0  0  0  0
    0.1089   48.9336   22.6022 H   0  0  0  0  0  0
    0.6501   49.4008   24.2005 H   0  0  0  0  0  0
   -1.1412   50.7407   21.2016 H   0  0  0  0  0  0
   -1.3968   52.3005   21.9488 H   0  0  0  0  0  0
    0.9148   52.8850   21.8433 H   0  0  0  0  0  0
    0.3854   52.3583   20.2146 H   0  0  0  0  0  0
    1.1508   53.1971   24.0098 H   0  0  0  0  0  0
    2.9997   54.1012   25.3491 H   0  0  0  0  0  0
    4.1578   54.3297   27.5393 H   0  0  0  0  0  0
    4.2868   53.7963   29.9472 H   0  0  0  0  0  0
    2.5638   52.3853   31.0086 H   0  0  0  0  0  0
    0.7110   51.4518   29.6788 H   0  0  0  0  0  0
   -0.4276   51.1786   27.4600 H   0  0  0  0  0  0
  1  2  1  0  0  0
  1 36  1  0  0  0
  1 37  1  0  0  0
  1 38  1  0  0  0
  2 10  2  0  0  0
  2  3  1  0  0  0
  3  8  2  0  0  0
  3  4  1  0  0  0
  4  5  2  0  0  0
  4 39  1  0  0  0
  5  6  1  0  0  0
  5 40  1  0  0  0
  6  7  2  0  0  0
  6 41  1  0  0  0
  7  8  1  0  0  0
  7 42  1  0  0  0
  8  9  1  0  0  0
  9 10  1  0  0  0
 10 11  1  0  0  0
 11 12  2  0  0  0
 11 13  1  0  0  0
 13 14  1  0  0  0
 13 43  1  0  0  0
 14 15  1  0  0  0
 14 44  1  0  0  0
 15 16  2  0  0  0
 15 17  1  0  0  0
 17 22  1  0  0  0
 17 18  1  0  0  0
 17 45  1  0  0  0
 18 19  1  0  0  0
 18 46  1  0  0  0
 18 47  1  0  0  0
 19 20  1  0  0  0
 19 48  1  0  0  0
 19 49  1  0  0  0
 20 21  1  0  0  0
 20 23  1  0  0  0
 21 22  1  0  0  0
 21 50  1  0  0  0
 21 51  1  0  0  0
 22 52  1  0  0  0
 22 53  1  0  0  0
 23 24  2  0  0  0
 23 25  2  0  0  0
 23 26  1  0  0  0
 26 35  2  0  0  0
 26 27  1  0  0  0
 27 28  2  0  0  0
 27 54  1  0  0  0
 28 29  1  0  0  0
 28 55  1  0  0  0
 29 34  2  0  0  0
 29 30  1  0  0  0
 30 31  2  0  0  0
 30 56  1  0  0  0
 31 32  1  0  0  0
 31 57  1  0  0  0
 32 33  2  0  0  0
 32 58  1  0  0  0
 33 34  1  0  0  0
 33 59  1  0  0  0
 34 35  1  0  0  0
 35 60  1  0  0  0
M  END
> <i_i_glide_confnum>
23

> <i_i_glide_lignum>
4180

> <i_i_glide_posenum>
162

> <i_i_glide_rotatable_bonds>
7

> <i_m_Source_File_Index>
4133

> <b_m_subgroup_collapsed>
0

> <r_i_docking_score>
-3.64222

> <r_i_glide_ecoul>
-3.13316

> <r_i_glide_eff_state_penalty>
0

> <r_i_glide_einternal>
4.98922

> <r_i_glide_emodel>
-55.1039

> <r_i_glide_energy>
-49.0405

> <r_i_glide_erotb>
0.589779

> <r_i_glide_esite>
-0.14049

> <r_i_glide_evdw>
-45.9073

> <r_i_glide_gscore>
-3.64222

> <r_i_glide_hbond>
-0.0397427

> <r_i_glide_ligand_efficiency>
-0.104063

> <r_i_glide_ligand_efficiency_ln>
-0.799547

> <r_i_glide_ligand_efficiency_sa>
-0.340398

> <r_i_glide_lipo>
-1.99694

> <r_i_glide_metal>
0

> <r_i_glide_rewards>
0.710518

> <s_i_glide_gridfile>
wee1_glide-grid

> <s_m_Source_File>
wee1_decoys_glide_SP.sdf

> <s_m_Source_Path>
/Users/zhangxujun/Desktop

> <s_m_entry_id>
4408

> <s_m_entry_name>
wee1_decoys_glide_SP.4133

> <s_m_subgroup_title>
wee1_decoys_glide_SP

> <s_m_subgroupid>
wee1_decoys_glide_SP


$$$$
