ZINC22329038_3873
                    3D
 Schrodinger Suite 2024-2.
 49 52  0  0  1  0            999 V2000
    2.6458   53.6831   26.2404 C   0  0  0  0  0  0
    3.8972   54.0970   25.4776 C   0  0  0  0  0  0
    3.8656   54.0614   24.0802 C   0  0  0  0  0  0
    5.0047   54.4325   23.3523 C   0  0  0  0  0  0
    6.1615   54.8495   24.0666 C   0  0  0  0  0  0
    6.2127   54.8746   25.4621 C   0  0  0  0  0  0
    5.0624   54.4899   26.1577 C   0  0  0  0  0  0
    5.1117   54.4991   27.6808 C   0  0  0  0  0  0
    7.1043   55.1743   23.1184 N   0  0  0  0  0  0
    8.0737   55.4386   23.2820 H   0  0  0  0  0  0
    6.5972   55.0307   21.8553 C   0  0  0  0  0  0
    5.3269   54.4967   21.9518 C   0  0  0  0  0  0
    4.5385   54.0614   20.7324 C   0  0  0  0  0  0
    5.0940   54.7269   19.4479 C   0  0  1  0  0  0
    4.8925   55.7966   19.5263 H   0  0  0  0  0  0
    6.6339   54.6261   19.3716 C   0  0  0  0  0  0
    7.3728   55.2813   20.5709 C   0  0  0  0  0  0
    4.4309   54.1948   18.2579 N   0  0  0  0  0  0
    3.6524   54.8952   17.4163 C   0  0  0  0  0  0
    3.5051   56.1151   17.5046 O   0  0  0  0  0  0
    3.0010   54.0901   16.2653 C   0  0  0  0  0  0
    1.6010   53.6010   16.6826 C   0  0  0  0  0  0
    0.6449   54.7493   16.3411 C   0  0  0  0  0  0
    1.2712   55.4719   15.1394 C   0  0  0  0  0  0
    2.7154   54.9540   15.0141 C   0  0  0  0  0  0
    1.8220   53.4165   25.5776 H   0  0  0  0  0  0
    2.8605   52.8249   26.8769 H   0  0  0  0  0  0
    2.3079   54.4913   26.8872 H   0  0  0  0  0  0
    2.9741   53.7473   23.5580 H   0  0  0  0  0  0
    7.1033   55.1752   25.9881 H   0  0  0  0  0  0
    4.3026   55.1059   28.0865 H   0  0  0  0  0  0
    4.9875   53.4861   28.0658 H   0  0  0  0  0  0
    6.0489   54.9013   28.0676 H   0  0  0  0  0  0
    3.4868   54.3068   20.8461 H   0  0  0  0  0  0
    4.5972   52.9755   20.6464 H   0  0  0  0  0  0
    6.9073   53.5763   19.2815 H   0  0  0  0  0  0
    6.9868   55.0911   18.4495 H   0  0  0  0  0  0
    8.3982   54.9144   20.6366 H   0  0  0  0  0  0
    7.4364   56.3554   20.3966 H   0  0  0  0  0  0
    4.5464   53.2048   18.0936 H   0  0  0  0  0  0
    3.6679   53.2669   16.0027 H   0  0  0  0  0  0
    1.5356   53.3071   17.7337 H   0  0  0  0  0  0
    1.3453   52.7086   16.1083 H   0  0  0  0  0  0
    0.5783   55.4341   17.1888 H   0  0  0  0  0  0
   -0.3636   54.3949   16.1313 H   0  0  0  0  0  0
    1.2551   56.5525   15.2933 H   0  0  0  0  0  0
    0.7100   55.2694   14.2260 H   0  0  0  0  0  0
    2.8109   54.3353   14.1196 H   0  0  0  0  0  0
    3.4291   55.7695   14.8794 H   0  0  0  0  0  0
  1  2  1  0  0  0
  1 26  1  0  0  0
  1 27  1  0  0  0
  1 28  1  0  0  0
  2  7  2  0  0  0
  2  3  1  0  0  0
  3  4  2  0  0  0
  3 29  1  0  0  0
  4 12  1  0  0  0
  4  5  1  0  0  0
  5  6  2  0  0  0
  5  9  1  0  0  0
  6  7  1  0  0  0
  6 30  1  0  0  0
  7  8  1  0  0  0
  8 31  1  0  0  0
  8 32  1  0  0  0
  8 33  1  0  0  0
  9 10  1  0  0  0
  9 11  1  0  0  0
 11 17  1  0  0  0
 11 12  2  0  0  0
 12 13  1  0  0  0
 13 14  1  0  0  0
 13 34  1  0  0  0
 13 35  1  0  0  0
 14 15  1  0  0  0
 14 16  1  0  0  0
 14 18  1  0  0  0
 16 17  1  0  0  0
 16 36  1  0  0  0
 16 37  1  0  0  0
 17 38  1  0  0  0
 17 39  1  0  0  0
 18 19  1  0  0  0
 18 40  1  0  0  0
 19 20  2  0  0  0
 19 21  1  0  0  0
 21 25  1  0  0  0
 21 22  1  0  0  0
 21 41  1  0  0  0
 22 23  1  0  0  0
 22 42  1  0  0  0
 22 43  1  0  0  0
 23 24  1  0  0  0
 23 44  1  0  0  0
 23 45  1  0  0  0
 24 25  1  0  0  0
 24 46  1  0  0  0
 24 47  1  0  0  0
 25 48  1  0  0  0
 25 49  1  0  0  0
M  END
> <i_i_glide_confnum>
85

> <i_i_glide_lignum>
3874

> <i_i_glide_posenum>
335

> <i_i_glide_rotatable_bonds>
3

> <i_m_Source_File_Index>
2301

> <b_m_subgroup_collapsed>
0

> <r_i_docking_score>
-5.67824

> <r_i_glide_ecoul>
-3.18665

> <r_i_glide_eff_state_penalty>
0

> <r_i_glide_einternal>
1.21964

> <r_i_glide_emodel>
-40.8534

> <r_i_glide_energy>
-29.354

> <r_i_glide_erotb>
0.576868

> <r_i_glide_esite>
-0.0302547

> <r_i_glide_evdw>
-26.1673

> <r_i_glide_gscore>
-5.67824

> <r_i_glide_hbond>
-0.32

> <r_i_glide_ligand_efficiency>
-0.24688

> <r_i_glide_ligand_efficiency_ln>
-1.37305

> <r_i_glide_ligand_efficiency_sa>
-0.702094

> <r_i_glide_lipo>
-2.74339

> <r_i_glide_metal>
0

> <r_i_glide_rewards>
-1.3751

> <s_i_glide_gridfile>
wee1_glide-grid

> <s_m_Source_File>
wee1_decoys_glide_SP.sdf

> <s_m_Source_Path>
/Users/zhangxujun/Desktop

> <s_m_entry_id>
2576

> <s_m_entry_name>
wee1_decoys_glide_SP.2301

> <s_m_subgroup_title>
wee1_decoys_glide_SP

> <s_m_subgroupid>
wee1_decoys_glide_SP


$$$$
