ZINC35982201_4286
                    3D
 Schrodinger Suite 2024-2.
 59 62  0  0  1  0            999 V2000
    2.6095   49.1023   21.0585 C   0  0  0  0  0  0
    1.3542   49.8745   21.4434 C   0  0  1  0  0  0
    1.3066   49.9034   22.9909 C   0  0  0  0  0  0
    0.1934   50.7850   23.5652 C   0  0  0  0  0  0
   -0.5490   50.4063   24.4675 O   0  0  0  0  0  0
    0.0871   52.1986   22.9409 C   0  0  2  0  0  0
   -0.8512   52.6464   23.2685 H   0  0  0  0  0  0
    0.1225   52.1539   21.3577 C   0  0  1  0  0  0
    0.2968   53.1774   21.0080 H   0  0  0  0  0  0
    1.3599   51.3311   20.8724 C   0  0  2  0  0  0
    2.2501   51.8078   21.2898 H   0  0  0  0  0  0
    1.6471   51.4736   19.3462 C   0  0  0  0  0  0
    1.3352   50.5696   18.5723 O   0  0  0  0  0  0
    2.1964   52.6450   18.9443 N   0  0  0  0  0  0
    2.6077   53.0166   17.6497 C   0  0  0  0  0  0
    3.0489   52.0979   16.6895 C   0  0  0  0  0  0
    3.4666   52.5361   15.4368 C   0  0  0  0  0  0
    3.4528   53.8972   15.1426 C   0  0  0  0  0  0
    3.0325   54.8223   16.0940 C   0  0  0  0  0  0
    2.6185   54.3816   17.3480 C   0  0  0  0  0  0
   -1.2195   51.7428   20.6758 C   0  0  0  0  0  0
   -2.2086   50.9931   21.3366 C   0  0  0  0  0  0
   -3.3595   50.5821   20.6697 C   0  0  0  0  0  0
   -3.5586   50.9433   19.3418 C   0  0  0  0  0  0
   -2.6077   51.7064   18.6738 C   0  0  0  0  0  0
   -1.4489   52.0980   19.3375 C   0  0  0  0  0  0
   -4.6815   50.5570   18.6994 F   0  0  0  0  0  0
    1.1378   53.1662   23.5753 C   0  0  0  0  0  0
    1.6566   54.0400   22.8822 O   0  0  0  0  0  0
    1.4179   53.0155   24.8924 N   0  0  0  0  0  0
    2.4536   53.5829   25.6550 C   0  0  0  0  0  0
    3.6208   54.1335   25.1019 C   0  0  0  0  0  0
    4.6370   54.5891   25.9373 C   0  0  0  0  0  0
    4.4917   54.4967   27.3193 C   0  0  0  0  0  0
    3.3348   53.9569   27.8754 C   0  0  0  0  0  0
    2.3175   53.4975   27.0425 C   0  0  0  0  0  0
    0.2724   49.0875   20.9783 O   0  0  0  0  0  0
    3.4999   49.6959   21.2735 H   0  0  0  0  0  0
    2.7044   48.1592   21.5983 H   0  0  0  0  0  0
    2.6456   48.8585   19.9977 H   0  0  0  0  0  0
    2.2449   50.2953   23.3854 H   0  0  0  0  0  0
    1.1978   48.8987   23.4015 H   0  0  0  0  0  0
    2.2244   53.3959   19.6211 H   0  0  0  0  0  0
    3.1020   51.0425   16.9140 H   0  0  0  0  0  0
    3.8125   51.8188   14.7058 H   0  0  0  0  0  0
    3.7827   54.2380   14.1726 H   0  0  0  0  0  0
    3.0355   55.8767   15.8646 H   0  0  0  0  0  0
    2.3050   55.1092   18.0806 H   0  0  0  0  0  0
   -2.1065   50.6884   22.3637 H   0  0  0  0  0  0
   -4.1029   49.9901   21.1834 H   0  0  0  0  0  0
   -2.7616   51.9831   17.6410 H   0  0  0  0  0  0
   -0.7212   52.6821   18.7948 H   0  0  0  0  0  0
    0.8187   52.3824   25.4028 H   0  0  0  0  0  0
    3.7729   54.1849   24.0362 H   0  0  0  0  0  0
    5.5399   55.0039   25.5126 H   0  0  0  0  0  0
    5.2845   54.8460   27.9649 H   0  0  0  0  0  0
    3.2305   53.8866   28.9468 H   0  0  0  0  0  0
    1.4316   53.0636   27.4848 H   0  0  0  0  0  0
    0.2736   48.2572   21.4546 H   0  0  0  0  0  0
  1  2  1  0  0  0
  1 38  1  0  0  0
  1 39  1  0  0  0
  1 40  1  0  0  0
  2 10  1  0  0  0
  2  3  1  0  0  0
  2 37  1  0  0  0
  3  4  1  0  0  0
  3 41  1  0  0  0
  3 42  1  0  0  0
  4  5  2  0  0  0
  4  6  1  0  0  0
  6  7  1  0  0  0
  6  8  1  0  0  0
  6 28  1  0  0  0
  8  9  1  0  0  0
  8 10  1  0  0  0
  8 21  1  0  0  0
 10 11  1  0  0  0
 10 12  1  0  0  0
 12 13  2  0  0  0
 12 14  1  0  0  0
 14 15  1  0  0  0
 14 43  1  0  0  0
 15 20  2  0  0  0
 15 16  1  0  0  0
 16 17  2  0  0  0
 16 44  1  0  0  0
 17 18  1  0  0  0
 17 45  1  0  0  0
 18 19  2  0  0  0
 18 46  1  0  0  0
 19 20  1  0  0  0
 19 47  1  0  0  0
 20 48  1  0  0  0
 21 26  2  0  0  0
 21 22  1  0  0  0
 22 23  2  0  0  0
 22 49  1  0  0  0
 23 24  1  0  0  0
 23 50  1  0  0  0
 24 25  2  0  0  0
 24 27  1  0  0  0
 25 26  1  0  0  0
 25 51  1  0  0  0
 26 52  1  0  0  0
 28 29  2  0  0  0
 28 30  1  0  0  0
 30 31  1  0  0  0
 30 53  1  0  0  0
 31 36  2  0  0  0
 31 32  1  0  0  0
 32 33  2  0  0  0
 32 54  1  0  0  0
 33 34  1  0  0  0
 33 55  1  0  0  0
 34 35  2  0  0  0
 34 56  1  0  0  0
 35 36  1  0  0  0
 35 57  1  0  0  0
 36 58  1  0  0  0
 37 59  1  0  0  0
M  END
> <i_i_glide_confnum>
229

> <i_i_glide_lignum>
4287

> <i_i_glide_posenum>
397

> <i_i_glide_rotatable_bonds>
8

> <i_m_Source_File_Index>
4805

> <b_m_subgroup_collapsed>
0

> <r_i_docking_score>
-3.46947

> <r_i_glide_ecoul>
-1.31988

> <r_i_glide_eff_state_penalty>
0

> <r_i_glide_einternal>
5.35449

> <r_i_glide_emodel>
-32.9945

> <r_i_glide_energy>
-31.2613

> <r_i_glide_erotb>
0.664453

> <r_i_glide_esite>
-0.0438899

> <r_i_glide_evdw>
-29.9414

> <r_i_glide_gscore>
-3.46947

> <r_i_glide_hbond>
-0.245158

> <r_i_glide_ligand_efficiency>
-0.102043

> <r_i_glide_ligand_efficiency_ln>
-0.766503

> <r_i_glide_ligand_efficiency_sa>
-0.33058

> <r_i_glide_lipo>
-1.57811

> <r_i_glide_metal>
0

> <r_i_glide_rewards>
-0.571715

> <s_i_glide_gridfile>
wee1_glide-grid

> <s_m_Source_File>
wee1_decoys_glide_SP.sdf

> <s_m_Source_Path>
/Users/zhangxujun/Desktop

> <s_m_entry_id>
5080

> <s_m_entry_name>
wee1_decoys_glide_SP.4805

> <s_m_subgroup_title>
wee1_decoys_glide_SP

> <s_m_subgroupid>
wee1_decoys_glide_SP


$$$$
