ZINC35695879_5802
                    3D
 Schrodinger Suite 2024-2.
 57 60  0  0  1  0            999 V2000
    0.7796   54.1645   30.2801 C   0  0  0  0  0  0
    0.7549   53.4867   28.9089 C   0  0  0  0  0  0
    1.7906   53.3495   28.0245 C   0  0  0  0  0  0
    1.5904   52.4770   26.7317 C   0  0  1  0  0  0
    2.3150   51.6968   26.8822 H   0  0  0  0  0  0
    0.2750   51.7518   26.7644 N   0  0  0  0  0  0
   -0.2017   50.7883   25.8662 C   0  0  0  0  0  0
   -1.4964   50.4968   26.0837 C   0  0  0  0  0  0
   -2.1960   51.3082   27.4651 S   0  0  0  0  0  0
   -0.6365   52.0967   27.7592 C   0  0  0  0  0  0
   -0.4584   52.8979   28.7314 N   0  0  0  0  0  0
    0.5180   50.1666   24.7561 C   0  0  0  0  0  0
    0.0441   49.9888   23.5056 C   0  0  0  0  0  0
   -1.0841   50.3394   22.9934 O   0  5  0  0  0  0
    0.8099   49.3317   22.5664 N   0  0  0  0  0  0
    0.9499   49.6168   21.1343 C   0  0  0  0  0  0
    1.9680   50.7119   20.8196 C   0  0  0  0  0  0
    3.1042   50.8969   21.6123 C   0  0  0  0  0  0
    4.0425   51.8710   21.2816 C   0  0  0  0  0  0
    3.8390   52.6727   20.1633 C   0  0  0  0  0  0
    2.7117   52.4959   19.3653 C   0  0  0  0  0  0
    1.7777   51.5149   19.6915 C   0  0  0  0  0  0
    4.7410   53.6327   19.8575 F   0  0  0  0  0  0
    1.8946   53.1910   25.3974 C   0  0  0  0  0  0
    3.1129   53.6883   24.9194 C   0  0  0  0  0  0
    3.0981   54.1993   23.6277 C   0  0  0  0  0  0
    1.8532   54.1107   23.0609 C   0  0  0  0  0  0
    0.7036   53.4209   24.1320 S   0  0  0  0  0  0
    3.1391   53.9064   28.3275 C   0  0  0  0  0  0
    3.3262   54.8880   29.0519 O   0  0  0  0  0  0
    4.1519   53.2032   27.7603 O   0  0  0  0  0  0
    5.5412   53.4779   27.9824 C   0  0  0  0  0  0
    6.0833   54.8340   27.4671 C   0  0  0  0  0  0
    5.8465   55.0676   26.0834 O   0  0  0  0  0  0
    6.7042   54.3697   25.1942 C   0  0  0  0  0  0
    1.7437   54.0443   30.7675 H   0  0  0  0  0  0
    0.5720   55.2295   30.1737 H   0  0  0  0  0  0
    0.0459   53.7453   30.9737 H   0  0  0  0  0  0
   -2.0905   49.7987   25.5133 H   0  0  0  0  0  0
    1.5020   49.7866   24.9549 H   0  0  0  0  0  0
    1.6420   48.8966   22.9350 H   0  0  0  0  0  0
   -0.0157   49.9303   20.7348 H   0  0  0  0  0  0
    1.2193   48.7001   20.6098 H   0  0  0  0  0  0
    3.2618   50.2759   22.4789 H   0  0  0  0  0  0
    4.9202   52.0141   21.8929 H   0  0  0  0  0  0
    2.5644   53.1216   18.4978 H   0  0  0  0  0  0
    0.9111   51.3780   19.0617 H   0  0  0  0  0  0
    4.0300   53.6396   25.4727 H   0  0  0  0  0  0
    3.9648   54.6011   23.1233 H   0  0  0  0  0  0
    1.5492   54.4261   22.0818 H   0  0  0  0  0  0
    5.7121   53.4437   29.0583 H   0  0  0  0  0  0
    6.1628   52.6637   27.6117 H   0  0  0  0  0  0
    5.6128   55.6385   28.0229 H   0  0  0  0  0  0
    7.1482   54.9312   27.6816 H   0  0  0  0  0  0
    6.3783   54.5378   24.1679 H   0  0  0  0  0  0
    7.7259   54.7341   25.2778 H   0  0  0  0  0  0
    6.6944   53.2972   25.3769 H   0  0  0  0  0  0
  1  2  1  0  0  0
  1 36  1  0  0  0
  1 37  1  0  0  0
  1 38  1  0  0  0
  2 11  1  0  0  0
  2  3  2  0  0  0
  3  4  1  0  0  0
  3 29  1  0  0  0
  4  5  1  0  0  0
  4  6  1  0  0  0
  4 24  1  0  0  0
  6 10  1  0  0  0
  6  7  1  0  0  0
  7  8  2  0  0  0
  7 12  1  0  0  0
  8  9  1  0  0  0
  8 39  1  0  0  0
  9 10  1  0  0  0
 10 11  2  0  0  0
 12 13  2  0  0  0
 12 40  1  0  0  0
 13 14  1  0  0  0
 13 15  1  0  0  0
 15 16  1  0  0  0
 15 41  1  0  0  0
 16 17  1  0  0  0
 16 42  1  0  0  0
 16 43  1  0  0  0
 17 22  2  0  0  0
 17 18  1  0  0  0
 18 19  2  0  0  0
 18 44  1  0  0  0
 19 20  1  0  0  0
 19 45  1  0  0  0
 20 21  2  0  0  0
 20 23  1  0  0  0
 21 22  1  0  0  0
 21 46  1  0  0  0
 22 47  1  0  0  0
 24 28  1  0  0  0
 24 25  2  0  0  0
 25 26  1  0  0  0
 25 48  1  0  0  0
 26 27  2  0  0  0
 26 49  1  0  0  0
 27 28  1  0  0  0
 27 50  1  0  0  0
 29 30  2  0  0  0
 29 31  1  0  0  0
 31 32  1  0  0  0
 32 33  1  0  0  0
 32 51  1  0  0  0
 32 52  1  0  0  0
 33 34  1  0  0  0
 33 53  1  0  0  0
 33 54  1  0  0  0
 34 35  1  0  0  0
 35 55  1  0  0  0
 35 56  1  0  0  0
 35 57  1  0  0  0
M  CHG  1  14  -1
M  END
> <i_i_glide_confnum>
128

> <i_i_glide_lignum>
5803

> <i_i_glide_posenum>
167

> <i_i_glide_rotatable_bonds>
10

> <i_m_Source_File_Index>
3057

> <b_m_subgroup_collapsed>
0

> <r_i_docking_score>
-5.06688

> <r_i_glide_ecoul>
-2.66977

> <r_i_glide_eff_state_penalty>
0

> <r_i_glide_einternal>
6.15617

> <r_i_glide_emodel>
-59.4139

> <r_i_glide_energy>
-47.4809

> <r_i_glide_erotb>
0.651928

> <r_i_glide_esite>
-0.0394248

> <r_i_glide_evdw>
-44.8111

> <r_i_glide_gscore>
-5.06688

> <r_i_glide_hbond>
0

> <r_i_glide_ligand_efficiency>
-0.149026

> <r_i_glide_ligand_efficiency_ln>
-1.11942

> <r_i_glide_ligand_efficiency_sa>
-0.482786

> <r_i_glide_lipo>
-2.76471

> <r_i_glide_metal>
0

> <r_i_glide_rewards>
-0.273655

> <s_i_glide_gridfile>
wee1_glide-grid

> <s_m_Source_File>
wee1_decoys_glide_SP.sdf

> <s_m_Source_Path>
/Users/zhangxujun/Desktop

> <s_m_entry_id>
3332

> <s_m_entry_name>
wee1_decoys_glide_SP.3057

> <s_m_subgroup_title>
wee1_decoys_glide_SP

> <s_m_subgroupid>
wee1_decoys_glide_SP


$$$$
