ZINC50693561_4801
                    3D
 Schrodinger Suite 2024-2.
 30 31  0  0  1  0            999 V2000
    4.1753   54.0967   22.9306 C   0  0  0  0  0  0
    2.8374   53.7219   22.9558 C   0  0  0  0  0  0
    2.1769   53.5258   24.1693 C   0  0  0  0  0  0
    2.8424   53.6967   25.4045 C   0  0  0  0  0  0
    4.1984   54.0967   25.3360 C   0  0  0  0  0  0
    4.8681   54.3023   24.1250 C   0  0  0  0  0  0
    6.3317   54.7481   24.1248 C   0  0  0  0  0  0
    6.7044   55.2578   22.9487 F   0  0  0  0  0  0
    7.1044   53.6967   24.3844 F   0  0  0  0  0  0
    6.5480   55.6740   25.0625 F   0  0  0  0  0  0
    2.1428   53.4604   26.5859 N   0  5  0  0  0  0
    2.3231   54.2652   27.6189 C   0  0  0  0  0  0
    3.1044   55.2127   27.7128 O   0  0  0  0  0  0
    1.4277   54.0294   28.8111 C   0  0  0  0  0  0
    0.6368   52.8867   29.0307 C   0  0  0  0  0  0
   -0.0894   52.7877   30.2196 C   0  0  0  0  0  0
   -0.0208   53.8049   31.1690 C   0  0  0  0  0  0
    0.7044   54.9558   30.8817 C   0  0  0  0  0  0
    1.4020   55.0150   29.7366 N   0  3  0  0  0  0
   -0.8956   51.6967   30.4817 N   0  0  0  0  0  0
    0.5085   53.0559   24.0817 Cl  0  0  0  0  0  0
    4.6622   54.2422   21.9770 H   0  0  0  0  0  0
    2.3075   53.5843   22.0237 H   0  0  0  0  0  0
    4.7657   54.2202   26.2468 H   0  0  0  0  0  0
    0.6014   52.0870   28.3035 H   0  0  0  0  0  0
   -0.5399   53.7096   32.1126 H   0  0  0  0  0  0
    0.8083   55.8001   31.5477 H   0  0  0  0  0  0
   -1.2916   51.6156   31.4300 H   0  0  0  0  0  0
   -0.9457   50.9110   29.8465 H   0  0  0  0  0  0
    1.9673   55.8324   29.5436 H   0  0  0  0  0  0
  1  6  2  0  0  0
  1  2  1  0  0  0
  1 22  1  0  0  0
  2  3  2  0  0  0
  2 23  1  0  0  0
  3  4  1  0  0  0
  3 21  1  0  0  0
  4  5  2  0  0  0
  4 11  1  0  0  0
  5  6  1  0  0  0
  5 24  1  0  0  0
  6  7  1  0  0  0
  7  8  1  0  0  0
  7  9  1  0  0  0
  7 10  1  0  0  0
 11 12  1  0  0  0
 12 13  2  0  0  0
 12 14  1  0  0  0
 14 19  2  0  0  0
 14 15  1  0  0  0
 15 16  2  0  0  0
 15 25  1  0  0  0
 16 17  1  0  0  0
 16 20  1  0  0  0
 17 18  2  0  0  0
 17 26  1  0  0  0
 18 19  1  0  0  0
 18 27  1  0  0  0
 19 30  1  0  0  0
 20 28  1  0  0  0
 20 29  1  0  0  0
M  CHG  2  11  -1  19   1
M  END
> <i_i_glide_confnum>
4

> <i_i_glide_lignum>
4802

> <i_i_glide_posenum>
98

> <i_i_glide_rotatable_bonds>
4

> <i_m_Source_File_Index>
6021

> <b_m_subgroup_collapsed>
0

> <r_i_docking_score>
-6.89769

> <r_i_glide_ecoul>
-7.61414

> <r_i_glide_eff_state_penalty>
0

> <r_i_glide_einternal>
1.11505

> <r_i_glide_emodel>
-49.9621

> <r_i_glide_energy>
-33.0157

> <r_i_glide_erotb>
0.560126

> <r_i_glide_esite>
-0.0947197

> <r_i_glide_evdw>
-25.4016

> <r_i_glide_gscore>
-6.89769

> <r_i_glide_hbond>
-0.16

> <r_i_glide_ligand_efficiency>
-0.328461

> <r_i_glide_ligand_efficiency_ln>
-1.70544

> <r_i_glide_ligand_efficiency_sa>
-0.9062

> <r_i_glide_lipo>
-2.46108

> <r_i_glide_metal>
0

> <r_i_glide_rewards>
-2.32981

> <s_i_glide_gridfile>
wee1_glide-grid

> <s_m_Source_File>
wee1_decoys_glide_SP.sdf

> <s_m_Source_Path>
/Users/zhangxujun/Desktop

> <s_m_entry_id>
6296

> <s_m_entry_name>
wee1_decoys_glide_SP.6021

> <s_m_subgroup_title>
wee1_decoys_glide_SP

> <s_m_subgroupid>
wee1_decoys_glide_SP


$$$$
