ZINC36005913_3985
                    3D
 Schrodinger Suite 2024-2.
 72 74  0  0  1  0            999 V2000
    5.9683   56.4964   25.2068 C   0  0  0  0  0  0
    4.9612   55.3699   25.2505 C   0  0  0  0  0  0
    5.6643   54.1025   25.2147 N   0  0  0  0  0  0
    5.7733   53.4998   26.5564 C   0  0  0  0  0  0
    7.1134   53.6369   27.2842 C   0  0  0  0  0  0
    6.3345   53.7629   24.0790 C   0  0  0  0  0  0
    7.4754   53.2970   24.1068 O   0  0  0  0  0  0
    5.7628   54.1459   22.7242 C   0  0  0  0  0  0
    6.6239   54.9292   21.9317 C   0  0  0  0  0  0
    6.3049   55.2974   20.6294 C   0  0  0  0  0  0
    5.1043   54.8546   20.0837 C   0  0  0  0  0  0
    4.2306   54.0959   20.8526 C   0  0  0  0  0  0
    4.5050   53.7245   22.1802 C   0  0  0  0  0  0
    3.5228   52.8968   22.7868 N   0  0  0  0  0  0
    2.9818   51.7396   22.0420 C   0  0  0  0  0  0
    1.6355   51.8731   21.2985 C   0  0  0  0  0  0
    0.6526   52.8951   21.8864 C   0  0  0  0  0  0
    0.4693   52.8377   23.3359 N   0  0  0  0  0  0
    1.4086   53.7261   24.0333 C   0  0  0  0  0  0
    2.8323   53.1653   24.0601 C   0  0  0  0  0  0
   -0.2425   51.8388   23.9249 C   0  0  0  0  0  0
   -0.9003   51.0203   23.2823 O   0  0  0  0  0  0
   -0.1878   51.8306   25.2727 N   0  0  0  0  0  0
   -0.6327   50.8023   26.2172 C   0  0  0  0  0  0
    0.0305   49.4382   25.8996 C   0  0  0  0  0  0
   -2.1728   50.6735   26.2028 C   0  0  0  0  0  0
   -0.1861   51.2616   27.6189 C   0  0  0  0  0  0
    7.2529   56.0378   19.9063 N   0  0  0  0  0  0
    7.0204   56.9199   18.9102 C   0  0  0  0  0  0
    5.9048   57.2731   18.5317 O   0  0  0  0  0  0
    8.2226   57.4653   18.3321 C   0  0  0  0  0  0
    9.5261   56.9567   18.3664 C   0  0  0  0  0  0
   10.4405   57.7381   17.6539 C   0  0  0  0  0  0
    9.8425   58.8247   17.0308 C   0  0  0  0  0  0
    8.1361   58.8923   17.3342 S   0  0  0  0  0  0
    5.4512   57.4425   25.2816 H   0  0  0  0  0  0
    6.7037   56.4060   26.0085 H   0  0  0  0  0  0
    6.5179   56.4963   24.2667 H   0  0  0  0  0  0
    4.2986   55.4272   24.3916 H   0  0  0  0  0  0
    4.3182   55.4721   26.1256 H   0  0  0  0  0  0
    5.0011   53.8967   27.2152 H   0  0  0  0  0  0
    5.5057   52.4588   26.4820 H   0  0  0  0  0  0
    7.0028   53.3687   28.3347 H   0  0  0  0  0  0
    7.8474   52.9451   26.8822 H   0  0  0  0  0  0
    7.5027   54.6532   27.2509 H   0  0  0  0  0  0
    7.5812   55.2409   22.3324 H   0  0  0  0  0  0
    4.8303   55.0889   19.0644 H   0  0  0  0  0  0
    3.3056   53.7968   20.3849 H   0  0  0  0  0  0
    2.9798   50.8485   22.6717 H   0  0  0  0  0  0
    3.7325   51.4673   21.2961 H   0  0  0  0  0  0
    1.1583   50.8930   21.2730 H   0  0  0  0  0  0
    1.8105   52.1180   20.2513 H   0  0  0  0  0  0
   -0.3143   52.7623   21.3995 H   0  0  0  0  0  0
    0.9586   53.9151   21.6817 H   0  0  0  0  0  0
    1.3968   54.7172   23.5747 H   0  0  0  0  0  0
    1.0936   53.9233   25.0575 H   0  0  0  0  0  0
    3.3959   53.6400   24.8342 H   0  0  0  0  0  0
    2.7463   52.1863   24.5348 H   0  0  0  0  0  0
    0.3037   52.5971   25.7036 H   0  0  0  0  0  0
   -0.0963   48.7178   26.7081 H   0  0  0  0  0  0
    1.1038   49.5374   25.7378 H   0  0  0  0  0  0
   -0.3877   48.9845   25.0007 H   0  0  0  0  0  0
   -2.6549   51.6312   26.4006 H   0  0  0  0  0  0
   -2.5450   50.3116   25.2448 H   0  0  0  0  0  0
   -2.5204   49.9774   26.9668 H   0  0  0  0  0  0
   -0.6213   52.2249   27.8905 H   0  0  0  0  0  0
   -0.4930   50.5493   28.3829 H   0  0  0  0  0  0
    0.8976   51.3523   27.6879 H   0  0  0  0  0  0
    8.2133   55.8939   20.1726 H   0  0  0  0  0  0
    9.8193   56.0577   18.8863 H   0  0  0  0  0  0
   11.4935   57.5050   17.5847 H   0  0  0  0  0  0
   10.3114   59.5706   16.4067 H   0  0  0  0  0  0
  1  2  1  0  0  0
  1 36  1  0  0  0
  1 37  1  0  0  0
  1 38  1  0  0  0
  2  3  1  0  0  0
  2 39  1  0  0  0
  2 40  1  0  0  0
  3  4  1  0  0  0
  3  6  1  0  0  0
  4  5  1  0  0  0
  4 41  1  0  0  0
  4 42  1  0  0  0
  5 43  1  0  0  0
  5 44  1  0  0  0
  5 45  1  0  0  0
  6  7  2  0  0  0
  6  8  1  0  0  0
  8 13  2  0  0  0
  8  9  1  0  0  0
  9 10  2  0  0  0
  9 46  1  0  0  0
 10 11  1  0  0  0
 10 28  1  0  0  0
 11 12  2  0  0  0
 11 47  1  0  0  0
 12 13  1  0  0  0
 12 48  1  0  0  0
 13 14  1  0  0  0
 14 20  1  0  0  0
 14 15  1  0  0  0
 15 16  1  0  0  0
 15 49  1  0  0  0
 15 50  1  0  0  0
 16 17  1  0  0  0
 16 51  1  0  0  0
 16 52  1  0  0  0
 17 18  1  0  0  0
 17 53  1  0  0  0
 17 54  1  0  0  0
 18 19  1  0  0  0
 18 21  1  0  0  0
 19 20  1  0  0  0
 19 55  1  0  0  0
 19 56  1  0  0  0
 20 57  1  0  0  0
 20 58  1  0  0  0
 21 22  2  0  0  0
 21 23  1  0  0  0
 23 24  1  0  0  0
 23 59  1  0  0  0
 24 25  1  0  0  0
 24 26  1  0  0  0
 24 27  1  0  0  0
 25 60  1  0  0  0
 25 61  1  0  0  0
 25 62  1  0  0  0
 26 63  1  0  0  0
 26 64  1  0  0  0
 26 65  1  0  0  0
 27 66  1  0  0  0
 27 67  1  0  0  0
 27 68  1  0  0  0
 28 29  1  0  0  0
 28 69  1  0  0  0
 29 30  2  0  0  0
 29 31  1  0  0  0
 31 35  1  0  0  0
 31 32  2  0  0  0
 32 33  1  0  0  0
 32 70  1  0  0  0
 33 34  2  0  0  0
 33 71  1  0  0  0
 34 35  1  0  0  0
 34 72  1  0  0  0
M  END
> <i_i_glide_confnum>
391

> <i_i_glide_lignum>
3986

> <i_i_glide_posenum>
72

> <i_i_glide_rotatable_bonds>
11

> <i_m_Source_File_Index>
5753

> <b_m_subgroup_collapsed>
0

> <r_i_docking_score>
-2.6823

> <r_i_glide_ecoul>
-2.51274

> <r_i_glide_eff_state_penalty>
0

> <r_i_glide_einternal>
14.331

> <r_i_glide_emodel>
-23.6628

> <r_i_glide_energy>
-27.722

> <r_i_glide_erotb>
0.654125

> <r_i_glide_esite>
-0.00303835

> <r_i_glide_evdw>
-25.2093

> <r_i_glide_gscore>
-2.6823

> <r_i_glide_hbond>
0

> <r_i_glide_ligand_efficiency>
-0.0766372

> <r_i_glide_ligand_efficiency_ln>
-0.588825

> <r_i_glide_ligand_efficiency_sa>
-0.250685

> <r_i_glide_lipo>
-2.00977

> <r_i_glide_metal>
0

> <r_i_glide_rewards>
0.313761

> <s_i_glide_gridfile>
wee1_glide-grid

> <s_m_Source_File>
wee1_decoys_glide_SP.sdf

> <s_m_Source_Path>
/Users/zhangxujun/Desktop

> <s_m_entry_id>
6028

> <s_m_entry_name>
wee1_decoys_glide_SP.5753

> <s_m_subgroup_title>
wee1_decoys_glide_SP

> <s_m_subgroupid>
wee1_decoys_glide_SP


$$$$
