ZINC17903760_1965
                    3D
 Schrodinger Suite 2024-2.
 50 54  0  0  1  0            999 V2000
    3.7492   51.9008   30.9530 C   0  0  0  0  0  0
    3.2743   53.0339   30.0808 C   0  0  0  0  0  0
    3.9042   54.1681   29.6816 C   0  0  0  0  0  0
    2.9000   54.9936   28.8787 C   0  0  2  0  0  0
    3.0423   56.0764   28.8807 H   0  0  0  0  0  0
    1.6482   54.5370   29.6559 C   0  0  0  0  0  0
    1.8919   53.0419   29.3992 C   0  0  1  0  0  0
    1.1435   52.3502   29.7941 H   0  0  0  0  0  0
    2.2659   52.9083   27.8860 C   0  0  2  0  0  0
    3.1168   52.2141   27.8421 H   0  0  0  0  0  0
    2.4608   54.3263   27.5493 C   0  0  2  0  0  0
    1.5696   54.9126   27.2832 H   0  0  0  0  0  0
    3.1020   54.1350   26.2090 C   0  0  0  0  0  0
    4.0650   54.7631   25.7710 O   0  0  0  0  0  0
    2.2429   53.2000   25.6345 N   0  0  0  0  0  0
    1.5049   52.5522   26.6327 C   0  0  0  0  0  0
    0.5287   51.8052   26.5751 O   0  0  0  0  0  0
    2.1242   52.9642   24.2212 C   0  0  0  0  0  0
    3.1652   53.2972   23.3343 C   0  0  0  0  0  0
    3.0779   53.0177   21.9769 C   0  0  0  0  0  0
    1.9391   52.4064   21.4472 C   0  0  0  0  0  0
    0.8804   52.0957   22.3111 C   0  0  0  0  0  0
    0.9728   52.3716   23.6719 C   0  0  0  0  0  0
    1.8881   52.0868   19.9658 C   0  0  0  0  0  0
    2.9204   52.1015   19.2963 O   0  0  0  0  0  0
    0.6568   51.8444   19.4701 N   0  0  0  0  0  0
    0.2213   51.4814   18.1783 C   0  0  0  0  0  0
    1.1100   51.0012   17.2019 C   0  0  0  0  0  0
    0.6569   50.6576   15.9330 C   0  0  0  0  0  0
   -0.6924   50.7821   15.6182 C   0  0  0  0  0  0
   -1.5872   51.2485   16.5773 C   0  0  0  0  0  0
   -1.1634   51.5992   17.8710 C   0  0  0  0  0  0
   -2.1989   52.0931   18.8589 C   0  0  0  0  0  0
   -1.9236   52.0962   20.0819 O   0  0  0  0  0  0
   -3.2955   52.4996   18.4141 O   0  5  0  0  0  0
    3.0250   51.6943   31.7418 H   0  0  0  0  0  0
    3.8976   51.0291   30.3245 H   0  0  0  0  0  0
    4.7035   52.1298   31.4217 H   0  0  0  0  0  0
    4.9095   54.4989   29.9060 H   0  0  0  0  0  0
    0.6997   54.8874   29.2427 H   0  0  0  0  0  0
    1.6280   54.8233   30.7106 H   0  0  0  0  0  0
    4.0925   53.7331   23.6680 H   0  0  0  0  0  0
    3.9132   53.2742   21.3385 H   0  0  0  0  0  0
   -0.0279   51.6301   21.9549 H   0  0  0  0  0  0
    0.1140   52.1186   24.2726 H   0  0  0  0  0  0
   -0.1272   51.9795   20.1012 H   0  0  0  0  0  0
    2.1628   50.8697   17.4001 H   0  0  0  0  0  0
    1.3544   50.2883   15.1956 H   0  0  0  0  0  0
   -1.0435   50.5138   14.6340 H   0  0  0  0  0  0
   -2.6299   51.3275   16.3010 H   0  0  0  0  0  0
  1  2  1  0  0  0
  1 36  1  0  0  0
  1 37  1  0  0  0
  1 38  1  0  0  0
  2  7  1  0  0  0
  2  3  2  0  0  0
  3  4  1  0  0  0
  3 39  1  0  0  0
  4  5  1  0  0  0
  4 11  1  0  0  0
  4  6  1  0  0  0
  6  7  1  0  0  0
  6 40  1  0  0  0
  6 41  1  0  0  0
  7  8  1  0  0  0
  7  9  1  0  0  0
  9 10  1  0  0  0
  9 16  1  0  0  0
  9 11  1  0  0  0
 11 12  1  0  0  0
 11 13  1  0  0  0
 13 14  2  0  0  0
 13 15  1  0  0  0
 15 16  1  0  0  0
 15 18  1  0  0  0
 16 17  2  0  0  0
 18 23  2  0  0  0
 18 19  1  0  0  0
 19 20  2  0  0  0
 19 42  1  0  0  0
 20 21  1  0  0  0
 20 43  1  0  0  0
 21 22  2  0  0  0
 21 24  1  0  0  0
 22 23  1  0  0  0
 22 44  1  0  0  0
 23 45  1  0  0  0
 24 25  2  0  0  0
 24 26  1  0  0  0
 26 27  1  0  0  0
 26 46  1  0  0  0
 27 32  2  0  0  0
 27 28  1  0  0  0
 28 29  2  0  0  0
 28 47  1  0  0  0
 29 30  1  0  0  0
 29 48  1  0  0  0
 30 31  2  0  0  0
 30 49  1  0  0  0
 31 32  1  0  0  0
 31 50  1  0  0  0
 32 33  1  0  0  0
 33 34  2  0  0  0
 33 35  1  0  0  0
M  CHG  1  35  -1
M  END
> <i_i_glide_confnum>
6

> <i_i_glide_lignum>
1966

> <i_i_glide_posenum>
376

> <i_i_glide_rotatable_bonds>
5

> <i_m_Source_File_Index>
4730

> <b_m_subgroup_collapsed>
0

> <r_i_docking_score>
-4.9277

> <r_i_glide_ecoul>
-1.42085

> <r_i_glide_eff_state_penalty>
0

> <r_i_glide_einternal>
3.4363

> <r_i_glide_emodel>
-46.3461

> <r_i_glide_energy>
-33.2426

> <r_i_glide_erotb>
0.4577

> <r_i_glide_esite>
-0.0715516

> <r_i_glide_evdw>
-31.8218

> <r_i_glide_gscore>
-4.9277

> <r_i_glide_hbond>
-0.197857

> <r_i_glide_ligand_efficiency>
-0.158958

> <r_i_glide_ligand_efficiency_ln>
-1.11135

> <r_i_glide_ligand_efficiency_sa>
-0.499347

> <r_i_glide_lipo>
-2.04773

> <r_i_glide_metal>
0

> <r_i_glide_rewards>
-1.26404

> <s_i_glide_gridfile>
wee1_glide-grid

> <s_m_Source_File>
wee1_decoys_glide_SP.sdf

> <s_m_Source_Path>
/Users/zhangxujun/Desktop

> <s_m_entry_id>
5005

> <s_m_entry_name>
wee1_decoys_glide_SP.4730

> <s_m_subgroup_title>
wee1_decoys_glide_SP

> <s_m_subgroupid>
wee1_decoys_glide_SP


$$$$
