ZINC32284904_534
                    3D
 Schrodinger Suite 2024-2.
 52 55  0  0  1  0            999 V2000
    6.5371   55.6850   25.3533 C   0  0  0  0  0  0
    5.8431   54.3116   25.3384 C   0  0  1  0  0  0
    6.6150   53.5391   25.2974 H   0  0  0  0  0  0
    5.0539   54.0947   26.6330 C   0  0  0  0  0  0
    5.5677   53.2973   27.6576 C   0  0  0  0  0  0
    4.8259   53.0753   28.8158 C   0  0  0  0  0  0
    3.5801   53.6683   29.0013 C   0  0  0  0  0  0
    3.0540   54.4929   27.9767 C   0  0  0  0  0  0
    3.7933   54.6709   26.8049 C   0  0  0  0  0  0
    1.8744   55.2025   28.0835 O   0  0  0  0  0  0
    1.5052   55.6791   29.3715 C   0  0  0  0  0  0
    0.8010   54.5980   30.2021 C   0  0  0  0  0  0
    1.4961   53.2320   30.1193 C   0  0  0  0  0  0
    2.9149   53.3509   30.1702 O   0  0  0  0  0  0
    4.9950   54.0964   24.1576 N   0  0  0  0  0  0
    5.3819   54.0912   22.8680 C   0  0  0  0  0  0
    6.4870   54.4967   22.5056 O   0  0  0  0  0  0
    4.3921   53.5295   21.8691 C   0  0  0  0  0  0
    4.6690   53.6036   20.4972 C   0  0  0  0  0  0
    3.7711   53.0918   19.5664 C   0  0  0  0  0  0
    2.5648   52.4962   19.9508 C   0  0  0  0  0  0
    2.3208   52.3818   21.3263 C   0  0  0  0  0  0
    3.2044   52.8991   22.2694 C   0  0  0  0  0  0
    1.7220   52.0975   18.9421 N   0  5  0  0  0  0
    0.2661   51.5322   19.1042 S   0  0  0  0  0  0
   -0.4404   51.9261   20.3311 O   0  0  0  0  0  0
   -0.5084   51.6261   17.8626 O   0  0  0  0  0  0
    0.4995   49.7433   19.2733 C   0  0  0  0  0  0
    1.5101   48.9995   18.6722 C   0  0  0  0  0  0
    1.3869   47.6278   18.9073 C   0  0  0  0  0  0
    0.2750   47.3195   19.6810 C   0  0  0  0  0  0
   -0.6208   48.7365   20.1340 S   0  0  0  0  0  0
    7.1036   55.8221   26.2747 H   0  0  0  0  0  0
    7.2392   55.8051   24.5287 H   0  0  0  0  0  0
    5.8104   56.4955   25.2815 H   0  0  0  0  0  0
    6.5369   52.8269   27.5535 H   0  0  0  0  0  0
    5.2104   52.4303   29.5873 H   0  0  0  0  0  0
    3.3927   55.2971   26.0232 H   0  0  0  0  0  0
    2.3698   56.0903   29.8954 H   0  0  0  0  0  0
    0.8398   56.5328   29.2388 H   0  0  0  0  0  0
    0.7439   54.9232   31.2415 H   0  0  0  0  0  0
   -0.2299   54.4883   29.8672 H   0  0  0  0  0  0
    1.1781   52.6091   30.9564 H   0  0  0  0  0  0
    1.1964   52.6767   29.2259 H   0  0  0  0  0  0
    4.0980   53.6808   24.3502 H   0  0  0  0  0  0
    5.5780   54.0662   20.1363 H   0  0  0  0  0  0
    4.0081   53.1769   18.5142 H   0  0  0  0  0  0
    1.4343   51.8984   21.6954 H   0  0  0  0  0  0
    2.9411   52.7935   23.3114 H   0  0  0  0  0  0
    2.3039   49.4356   18.0778 H   0  0  0  0  0  0
    2.0776   46.8971   18.5149 H   0  0  0  0  0  0
   -0.0613   46.3421   19.9949 H   0  0  0  0  0  0
  1  2  1  0  0  0
  1 33  1  0  0  0
  1 34  1  0  0  0
  1 35  1  0  0  0
  2  3  1  0  0  0
  2  4  1  0  0  0
  2 15  1  0  0  0
  4  9  2  0  0  0
  4  5  1  0  0  0
  5  6  2  0  0  0
  5 36  1  0  0  0
  6  7  1  0  0  0
  6 37  1  0  0  0
  7 14  1  0  0  0
  7  8  2  0  0  0
  8  9  1  0  0  0
  8 10  1  0  0  0
  9 38  1  0  0  0
 10 11  1  0  0  0
 11 12  1  0  0  0
 11 39  1  0  0  0
 11 40  1  0  0  0
 12 13  1  0  0  0
 12 41  1  0  0  0
 12 42  1  0  0  0
 13 14  1  0  0  0
 13 43  1  0  0  0
 13 44  1  0  0  0
 15 16  1  0  0  0
 15 45  1  0  0  0
 16 17  2  0  0  0
 16 18  1  0  0  0
 18 23  2  0  0  0
 18 19  1  0  0  0
 19 20  2  0  0  0
 19 46  1  0  0  0
 20 21  1  0  0  0
 20 47  1  0  0  0
 21 22  2  0  0  0
 21 24  1  0  0  0
 22 23  1  0  0  0
 22 48  1  0  0  0
 23 49  1  0  0  0
 24 25  1  0  0  0
 25 26  2  0  0  0
 25 27  2  0  0  0
 25 28  1  0  0  0
 28 32  1  0  0  0
 28 29  2  0  0  0
 29 30  1  0  0  0
 29 50  1  0  0  0
 30 31  2  0  0  0
 30 51  1  0  0  0
 31 32  1  0  0  0
 31 52  1  0  0  0
M  CHG  1  24  -1
M  END
> <i_i_glide_confnum>
133

> <i_i_glide_lignum>
535

> <i_i_glide_posenum>
346

> <i_i_glide_rotatable_bonds>
7

> <i_m_Source_File_Index>
1283

> <b_m_subgroup_collapsed>
0

> <r_i_docking_score>
-6.07583

> <r_i_glide_ecoul>
-4.53568

> <r_i_glide_eff_state_penalty>
0

> <r_i_glide_einternal>
3.07221

> <r_i_glide_emodel>
-65.3212

> <r_i_glide_energy>
-50.2594

> <r_i_glide_erotb>
0.576241

> <r_i_glide_esite>
-0.033421

> <r_i_glide_evdw>
-45.7237

> <r_i_glide_gscore>
-6.07583

> <r_i_glide_hbond>
-0.32

> <r_i_glide_ligand_efficiency>
-0.195995

> <r_i_glide_ligand_efficiency_ln>
-1.37029

> <r_i_glide_ligand_efficiency_sa>
-0.615694

> <r_i_glide_lipo>
-3.08013

> <r_i_glide_metal>
0

> <r_i_glide_rewards>
-0.251988

> <s_i_glide_gridfile>
wee1_glide-grid

> <s_m_Source_File>
wee1_decoys_glide_SP.sdf

> <s_m_Source_Path>
/Users/zhangxujun/Desktop

> <s_m_entry_id>
1558

> <s_m_entry_name>
wee1_decoys_glide_SP.1283

> <s_m_subgroup_title>
wee1_decoys_glide_SP

> <s_m_subgroupid>
wee1_decoys_glide_SP


$$$$
