ZINC39851698_4043
                    3D
 Schrodinger Suite 2024-2.
 65 68  0  0  1  0            999 V2000
    6.3529   53.6517   27.8571 C   0  0  0  0  0  0
    6.1697   54.2522   26.4550 C   0  0  0  0  0  0
    4.8258   54.9881   26.2191 C   0  0  0  0  0  0
    3.6339   54.1026   26.1319 N   0  0  0  0  0  0
    3.1043   53.5746   24.9500 C   0  0  0  0  0  0
    2.0626   52.6864   24.9125 C   0  0  0  0  0  0
    1.5313   52.2284   26.2195 C   0  0  0  0  0  0
    1.9965   52.8308   27.3470 C   0  0  0  0  0  0
    3.0016   53.8846   27.3377 C   0  0  0  0  0  0
    3.2586   54.4937   28.3827 O   0  0  0  0  0  0
    1.5327   52.4049   28.6300 C   0  0  0  0  0  0
    1.1840   52.0960   29.6876 N   0  0  0  0  0  0
    0.7039   50.9425   26.3489 C   0  0  0  0  0  0
    1.5844   52.1588   23.6192 C   0  0  0  0  0  0
    0.3300   51.9382   23.1519 C   0  0  0  0  0  0
   -0.8988   52.2775   23.8331 C   0  0  0  0  0  0
   -0.9679   52.8967   24.8880 O   0  0  0  0  0  0
   -1.9814   51.8088   23.1584 N   0  0  0  0  0  0
   -1.7633   51.2012   21.9487 C   0  0  0  0  0  0
   -2.8105   50.4963   20.8578 S   0  0  0  0  0  0
   -0.0569   51.2198   21.5958 S   0  0  0  0  0  0
   -3.3459   51.8941   23.7670 C   0  0  0  0  0  0
   -3.6185   50.8034   24.8388 C   0  0  0  0  0  0
   -5.0294   50.8684   25.4566 C   0  0  0  0  0  0
   -5.3809   52.2767   25.9627 C   0  0  0  0  0  0
   -5.2458   53.3165   24.8380 C   0  0  0  0  0  0
   -3.8355   53.3056   24.2137 C   0  0  0  0  0  0
    3.6478   54.0831   23.7685 N   0  0  0  0  0  0
    5.0206   53.9229   23.2827 C   0  0  0  0  0  0
    5.1840   54.3300   21.8246 C   0  0  0  0  0  0
    6.2694   55.1366   21.4568 C   0  0  0  0  0  0
    6.4596   55.4805   20.1218 C   0  0  0  0  0  0
    5.5710   55.0152   19.1547 C   0  0  0  0  0  0
    4.4966   54.2049   19.5104 C   0  0  0  0  0  0
    4.3040   53.8580   20.8442 C   0  0  0  0  0  0
    5.7576   55.3508   17.8588 F   0  0  0  0  0  0
    7.3539   53.2328   27.9737 H   0  0  0  0  0  0
    6.2201   54.4066   28.6342 H   0  0  0  0  0  0
    5.6432   52.8456   28.0446 H   0  0  0  0  0  0
    6.3195   53.4701   25.7118 H   0  0  0  0  0  0
    6.9758   54.9677   26.2968 H   0  0  0  0  0  0
    4.8757   55.6453   25.3518 H   0  0  0  0  0  0
    4.7183   55.6930   27.0405 H   0  0  0  0  0  0
    1.0599   50.3410   27.1878 H   0  0  0  0  0  0
   -0.3468   51.1454   26.5609 H   0  0  0  0  0  0
    0.8017   50.2919   25.4791 H   0  0  0  0  0  0
    2.3690   51.8592   22.9379 H   0  0  0  0  0  0
   -4.0554   51.6624   22.9766 H   0  0  0  0  0  0
   -3.4685   49.8142   24.4055 H   0  0  0  0  0  0
   -2.8903   50.9018   25.6448 H   0  0  0  0  0  0
   -5.7650   50.5605   24.7122 H   0  0  0  0  0  0
   -5.1073   50.1494   26.2739 H   0  0  0  0  0  0
   -6.3972   52.2890   26.3610 H   0  0  0  0  0  0
   -4.7251   52.5446   26.7931 H   0  0  0  0  0  0
   -6.0000   53.1136   24.0795 H   0  0  0  0  0  0
   -5.4715   54.3106   25.2250 H   0  0  0  0  0  0
   -3.1895   53.6954   24.9921 H   0  0  0  0  0  0
   -3.7534   54.0108   23.3872 H   0  0  0  0  0  0
    3.0227   54.0889   22.9762 H   0  0  0  0  0  0
    5.3509   52.8963   23.4077 H   0  0  0  0  0  0
    5.7090   54.5286   23.8622 H   0  0  0  0  0  0
    6.9705   55.4879   22.2007 H   0  0  0  0  0  0
    7.2997   56.0913   19.8280 H   0  0  0  0  0  0
    3.8200   53.8432   18.7514 H   0  0  0  0  0  0
    3.4736   53.2174   21.1029 H   0  0  0  0  0  0
  1  2  1  0  0  0
  1 37  1  0  0  0
  1 38  1  0  0  0
  1 39  1  0  0  0
  2  3  1  0  0  0
  2 40  1  0  0  0
  2 41  1  0  0  0
  3  4  1  0  0  0
  3 42  1  0  0  0
  3 43  1  0  0  0
  4  9  1  0  0  0
  4  5  1  0  0  0
  5  6  2  0  0  0
  5 28  1  0  0  0
  6  7  1  0  0  0
  6 14  1  0  0  0
  7  8  2  0  0  0
  7 13  1  0  0  0
  8  9  1  0  0  0
  8 11  1  0  0  0
  9 10  2  0  0  0
 11 12  3  0  0  0
 13 44  1  0  0  0
 13 45  1  0  0  0
 13 46  1  0  0  0
 14 15  2  0  0  0
 14 47  1  0  0  0
 15 21  1  0  0  0
 15 16  1  0  0  0
 16 17  2  0  0  0
 16 18  1  0  0  0
 18 19  1  0  0  0
 18 22  1  0  0  0
 19 20  2  0  0  0
 19 21  1  0  0  0
 22 27  1  0  0  0
 22 23  1  0  0  0
 22 48  1  0  0  0
 23 24  1  0  0  0
 23 49  1  0  0  0
 23 50  1  0  0  0
 24 25  1  0  0  0
 24 51  1  0  0  0
 24 52  1  0  0  0
 25 26  1  0  0  0
 25 53  1  0  0  0
 25 54  1  0  0  0
 26 27  1  0  0  0
 26 55  1  0  0  0
 26 56  1  0  0  0
 27 57  1  0  0  0
 27 58  1  0  0  0
 28 29  1  0  0  0
 28 59  1  0  0  0
 29 30  1  0  0  0
 29 60  1  0  0  0
 29 61  1  0  0  0
 30 35  2  0  0  0
 30 31  1  0  0  0
 31 32  2  0  0  0
 31 62  1  0  0  0
 32 33  1  0  0  0
 32 63  1  0  0  0
 33 34  2  0  0  0
 33 36  1  0  0  0
 34 35  1  0  0  0
 34 64  1  0  0  0
 35 65  1  0  0  0
M  END
> <i_i_glide_confnum>
38

> <i_i_glide_lignum>
4044

> <i_i_glide_posenum>
99

> <i_i_glide_rotatable_bonds>
8

> <i_m_Source_File_Index>
1997

> <b_m_subgroup_collapsed>
0

> <r_i_docking_score>
-5.84684

> <r_i_glide_ecoul>
-2.29044

> <r_i_glide_eff_state_penalty>
0

> <r_i_glide_einternal>
2.52458

> <r_i_glide_emodel>
-59.9185

> <r_i_glide_energy>
-46.1014

> <r_i_glide_erotb>
0.44851

> <r_i_glide_esite>
-0.00662127

> <r_i_glide_evdw>
-43.8109

> <r_i_glide_gscore>
-5.84684

> <r_i_glide_hbond>
0

> <r_i_glide_ligand_efficiency>
-0.162412

> <r_i_glide_ligand_efficiency_ln>
-1.27562

> <r_i_glide_ligand_efficiency_sa>
-0.536274

> <r_i_glide_lipo>
-3.08779

> <r_i_glide_metal>
0

> <r_i_glide_rewards>
-0.666825

> <s_i_glide_gridfile>
wee1_glide-grid

> <s_m_Source_File>
wee1_decoys_glide_SP.sdf

> <s_m_Source_Path>
/Users/zhangxujun/Desktop

> <s_m_entry_id>
2272

> <s_m_entry_name>
wee1_decoys_glide_SP.1997

> <s_m_subgroup_title>
wee1_decoys_glide_SP

> <s_m_subgroupid>
wee1_decoys_glide_SP


$$$$
