ZINC09033359_1021
                    3D
 Schrodinger Suite 2024-2.
 81 85  0  0  1  0            999 V2000
    2.7274   55.0809   27.8910 C   0  0  0  0  0  0
    3.1920   53.6001   27.8841 C   0  0  2  0  0  0
    4.3110   53.4563   26.8063 C   0  0  0  0  0  0
    3.8094   53.5983   25.3343 C   0  0  0  0  0  0
    2.4648   52.8573   24.9911 C   0  0  1  0  0  0
    2.7044   51.8095   24.8817 H   0  0  0  0  0  0
    1.4207   52.9505   26.1564 C   0  0  2  0  0  0
    1.1044   53.9866   26.1831 H   0  0  0  0  0  0
    2.0514   52.6279   27.5315 C   0  0  2  0  0  0
    2.4974   51.6407   27.4588 H   0  0  0  0  0  0
    1.1538   52.5883   28.7834 C   0  0  0  0  0  0
    2.0934   52.9222   29.9615 C   0  0  0  0  0  0
    3.5006   53.1543   29.3554 C   0  0  1  0  0  0
    4.3593   51.8819   29.5328 C   0  0  0  0  0  0
    4.2498   54.0988   30.0817 O   0  0  0  0  0  0
    0.1847   52.0726   25.8702 C   0  0  0  0  0  0
   -0.4722   52.4143   24.5253 C   0  0  0  0  0  0
    0.5775   52.2792   23.4254 C   0  0  0  0  0  0
    0.4273   51.3806   22.4272 C   0  0  0  0  0  0
    1.3644   51.1313   21.3739 C   0  0  0  0  0  0
    1.0704   50.2572   20.4975 N   0  0  0  0  0  0
    1.9765   50.2103   19.4153 O   0  0  0  0  0  0
    1.5428   49.2393   18.4489 C   0  0  0  0  0  0
    0.2322   49.6121   17.7241 C   0  0  0  0  0  0
   -0.3032   48.7886   16.9832 O   0  0  0  0  0  0
   -0.2905   50.8312   17.9433 N   0  0  0  0  0  0
   -1.5742   51.3236   17.4203 C   0  0  1  0  0  0
   -1.6152   51.1091   16.3492 H   0  0  0  0  0  0
   -2.7653   50.6225   18.1438 C   0  0  0  0  0  0
   -4.0501   50.5359   17.3391 C   0  0  0  0  0  0
   -5.1262   51.4052   17.6083 C   0  0  0  0  0  0
   -6.2667   51.3650   16.8172 C   0  0  0  0  0  0
   -6.3433   50.4824   15.7458 C   0  0  0  0  0  0
   -5.2794   49.6370   15.4532 C   0  0  0  0  0  0
   -4.1314   49.6626   16.2338 C   0  0  0  0  0  0
   -1.5670   52.8439   17.5746 C   0  0  0  0  0  0
   -2.4961   53.4794   18.0816 O   0  0  0  0  0  0
   -0.4551   53.4146   17.0424 O   0  0  0  0  0  0
   -0.2780   54.8235   17.0616 C   0  0  0  0  0  0
    2.5610   51.9403   21.4468 C   0  0  0  0  0  0
    2.8095   52.8467   22.4194 C   0  0  0  0  0  0
    1.8520   53.1681   23.5853 C   0  0  2  0  0  0
    1.4783   54.6473   23.4701 C   0  0  0  0  0  0
    1.7447   55.2381   28.3361 H   0  0  0  0  0  0
    3.4318   55.6968   28.4401 H   0  0  0  0  0  0
    2.7045   55.4667   26.8831 H   0  0  0  0  0  0
    4.7950   52.4964   26.8803 H   0  0  0  0  0  0
    5.1150   54.1666   27.0026 H   0  0  0  0  0  0
    4.5905   53.2986   24.6360 H   0  0  0  0  0  0
    3.6930   54.6651   25.1638 H   0  0  0  0  0  0
    0.3923   53.3685   28.7294 H   0  0  0  0  0  0
    0.6390   51.6323   28.8976 H   0  0  0  0  0  0
    1.7375   53.8136   30.4822 H   0  0  0  0  0  0
    2.0860   52.1196   30.7008 H   0  0  0  0  0  0
    3.7933   50.9892   29.2817 H   0  0  0  0  0  0
    5.2593   51.9059   28.9225 H   0  0  0  0  0  0
    4.6819   51.7361   30.5666 H   0  0  0  0  0  0
    5.0991   54.2030   29.6473 H   0  0  0  0  0  0
   -0.5490   52.1746   26.6707 H   0  0  0  0  0  0
    0.4723   51.0205   25.8919 H   0  0  0  0  0  0
   -0.9185   53.4075   24.5319 H   0  0  0  0  0  0
   -1.3077   51.7325   24.3593 H   0  0  0  0  0  0
   -0.4815   50.7952   22.4369 H   0  0  0  0  0  0
    1.4586   48.2542   18.9088 H   0  0  0  0  0  0
    2.3045   49.1599   17.6809 H   0  0  0  0  0  0
    0.2193   51.4518   18.5584 H   0  0  0  0  0  0
   -2.9509   51.0625   19.1253 H   0  0  0  0  0  0
   -2.4972   49.5917   18.3807 H   0  0  0  0  0  0
   -5.0681   52.0965   18.4348 H   0  0  0  0  0  0
   -7.0932   52.0254   17.0339 H   0  0  0  0  0  0
   -7.2315   50.4565   15.1327 H   0  0  0  0  0  0
   -5.3426   48.9617   14.6118 H   0  0  0  0  0  0
   -3.3010   49.0141   15.9928 H   0  0  0  0  0  0
    0.6756   55.0833   16.6014 H   0  0  0  0  0  0
   -1.0709   55.3254   16.5050 H   0  0  0  0  0  0
   -0.2756   55.2057   18.0820 H   0  0  0  0  0  0
    3.3190   51.8258   20.6859 H   0  0  0  0  0  0
    3.7429   53.3886   22.3586 H   0  0  0  0  0  0
    1.1045   54.8964   22.4818 H   0  0  0  0  0  0
    0.7052   54.8964   24.1851 H   0  0  0  0  0  0
    2.3247   55.2966   23.6782 H   0  0  0  0  0  0
  1  2  1  0  0  0
  1 44  1  0  0  0
  1 45  1  0  0  0
  1 46  1  0  0  0
  2  9  1  0  0  0
  2 13  1  0  0  0
  2  3  1  0  0  0
  3  4  1  0  0  0
  3 47  1  0  0  0
  3 48  1  0  0  0
  4  5  1  0  0  0
  4 49  1  0  0  0
  4 50  1  0  0  0
  5  6  1  0  0  0
  5 42  1  0  0  0
  5  7  1  0  0  0
  7  8  1  0  0  0
  7  9  1  0  0  0
  7 16  1  0  0  0
  9 10  1  0  0  0
  9 11  1  0  0  0
 11 12  1  0  0  0
 11 51  1  0  0  0
 11 52  1  0  0  0
 12 13  1  0  0  0
 12 53  1  0  0  0
 12 54  1  0  0  0
 13 14  1  0  0  0
 13 15  1  0  0  0
 14 55  1  0  0  0
 14 56  1  0  0  0
 14 57  1  0  0  0
 15 58  1  0  0  0
 16 17  1  0  0  0
 16 59  1  0  0  0
 16 60  1  0  0  0
 17 18  1  0  0  0
 17 61  1  0  0  0
 17 62  1  0  0  0
 18 42  1  0  0  0
 18 19  2  0  0  0
 19 20  1  0  0  0
 19 63  1  0  0  0
 20 21  2  0  0  0
 20 40  1  0  0  0
 21 22  1  0  0  0
 22 23  1  0  0  0
 23 24  1  0  0  0
 23 64  1  0  0  0
 23 65  1  0  0  0
 24 25  2  0  0  0
 24 26  1  0  0  0
 26 27  1  0  0  0
 26 66  1  0  0  0
 27 28  1  0  0  0
 27 29  1  0  0  0
 27 36  1  0  0  0
 29 30  1  0  0  0
 29 67  1  0  0  0
 29 68  1  0  0  0
 30 35  2  0  0  0
 30 31  1  0  0  0
 31 32  2  0  0  0
 31 69  1  0  0  0
 32 33  1  0  0  0
 32 70  1  0  0  0
 33 34  2  0  0  0
 33 71  1  0  0  0
 34 35  1  0  0  0
 34 72  1  0  0  0
 35 73  1  0  0  0
 36 37  2  0  0  0
 36 38  1  0  0  0
 38 39  1  0  0  0
 39 74  1  0  0  0
 39 75  1  0  0  0
 39 76  1  0  0  0
 40 41  2  0  0  0
 40 77  1  0  0  0
 41 42  1  0  0  0
 41 78  1  0  0  0
 42 43  1  0  0  0
 43 79  1  0  0  0
 43 80  1  0  0  0
 43 81  1  0  0  0
M  END
> <i_i_glide_confnum>
93

> <i_i_glide_lignum>
1022

> <i_i_glide_posenum>
232

> <i_i_glide_rotatable_bonds>
10

> <i_m_Source_File_Index>
3331

> <b_m_subgroup_collapsed>
0

> <r_i_docking_score>
-4.2743

> <r_i_glide_ecoul>
-4.74068

> <r_i_glide_eff_state_penalty>
0

> <r_i_glide_einternal>
8.47359

> <r_i_glide_emodel>
-28.3523

> <r_i_glide_energy>
-28.3198

> <r_i_glide_erotb>
0.505366

> <r_i_glide_esite>
-0.0949506

> <r_i_glide_evdw>
-23.5791

> <r_i_glide_gscore>
-4.2743

> <r_i_glide_hbond>
-0.355895

> <r_i_glide_ligand_efficiency>
-0.109597

> <r_i_glide_ligand_efficiency_ln>
-0.916531

> <r_i_glide_ligand_efficiency_sa>
-0.371668

> <r_i_glide_lipo>
-2.41576

> <r_i_glide_metal>
0

> <r_i_glide_rewards>
-0.0229984

> <s_i_glide_gridfile>
wee1_glide-grid

> <s_m_Source_File>
wee1_decoys_glide_SP.sdf

> <s_m_Source_Path>
/Users/zhangxujun/Desktop

> <s_m_entry_id>
3606

> <s_m_entry_name>
wee1_decoys_glide_SP.3331

> <s_m_subgroup_title>
wee1_decoys_glide_SP

> <s_m_subgroupid>
wee1_decoys_glide_SP


$$$$
