ZINC39635120_2155
                    3D
 Schrodinger Suite 2024-2.
 69 72  0  0  1  0            999 V2000
    3.1941   51.7475   31.8127 C   0  0  0  0  0  0
    2.9835   52.3120   30.4175 C   0  0  0  0  0  0
    1.7032   52.5803   29.9369 C   0  0  0  0  0  0
    1.5270   53.0358   28.6289 C   0  0  0  0  0  0
    2.6193   53.2163   27.7600 C   0  0  0  0  0  0
    3.9217   53.0292   28.2884 C   0  0  0  0  0  0
    4.0797   52.5442   29.5917 C   0  0  0  0  0  0
    5.1962   53.2944   27.4864 C   0  0  0  0  0  0
    2.4017   53.6038   26.3011 C   0  0  0  0  0  0
    3.1040   54.4957   25.8136 O   0  0  0  0  0  0
    1.5120   52.9050   25.5360 N   0  0  0  0  0  0
    1.3973   53.1297   24.0890 C   0  0  0  0  0  0
    0.0285   52.5083   23.7437 C   0  0  2  0  0  0
   -0.6947   53.3104   23.9045 H   0  0  0  0  0  0
   -0.1586   51.3374   24.7422 C   0  0  0  0  0  0
    0.5412   51.9057   26.0035 C   0  0  0  0  0  0
   -1.6576   50.9991   24.9374 C   0  0  0  0  0  0
   -1.8548   49.9789   26.0697 C   0  0  0  0  0  0
   -1.1122   48.6814   25.6818 N   0  3  0  0  0  0
    0.3787   48.8737   25.3267 C   0  0  0  0  0  0
    0.5118   50.0004   24.2793 C   0  0  0  0  0  0
   -0.0925   52.1045   22.2497 C   0  0  0  0  0  0
   -1.2207   52.0544   21.7594 O   0  0  0  0  0  0
    1.0118   51.7952   21.5426 N   0  0  0  0  0  0
    0.9911   51.2741   20.1749 C   0  0  0  0  0  0
    0.6258   49.7752   20.1160 C   0  0  0  0  0  0
    0.3291   49.2785   18.7091 C   0  0  0  0  0  0
   -0.9875   49.0139   18.3216 C   0  0  0  0  0  0
   -1.2519   48.5526   17.0347 C   0  0  0  0  0  0
   -0.2145   48.3536   16.1224 C   0  0  0  0  0  0
    1.1043   48.6245   16.5180 C   0  0  0  0  0  0
    1.3733   49.0823   17.8036 C   0  0  0  0  0  0
   -0.5745   47.8953   14.8709 O   0  0  0  0  0  0
    0.4388   47.7052   13.8865 C   0  0  0  0  0  0
    2.2664   51.3737   32.2508 H   0  0  0  0  0  0
    3.9048   50.9180   31.7929 H   0  0  0  0  0  0
    3.6158   52.4969   32.4806 H   0  0  0  0  0  0
    0.8391   52.4266   30.5682 H   0  0  0  0  0  0
    0.5180   53.2448   28.3081 H   0  0  0  0  0  0
    5.0709   52.3345   29.9634 H   0  0  0  0  0  0
    6.0711   52.8181   27.9311 H   0  0  0  0  0  0
    5.1166   52.8967   26.4771 H   0  0  0  0  0  0
    5.3820   54.3661   27.4129 H   0  0  0  0  0  0
    2.2166   52.5632   23.6442 H   0  0  0  0  0  0
    1.4452   54.1833   23.8027 H   0  0  0  0  0  0
   -0.2293   52.4679   26.5308 H   0  0  0  0  0  0
    0.9180   51.1505   26.6914 H   0  0  0  0  0  0
   -2.1963   51.9034   25.2217 H   0  0  0  0  0  0
   -2.1209   50.6692   24.0062 H   0  0  0  0  0  0
   -1.4418   50.3000   27.0266 H   0  0  0  0  0  0
   -2.8996   49.6983   26.2152 H   0  0  0  0  0  0
   -1.1657   48.0959   26.5208 H   0  0  0  0  0  0
    0.9001   49.0660   26.2656 H   0  0  0  0  0  0
    0.7044   47.9070   24.9426 H   0  0  0  0  0  0
    0.1044   49.6484   23.3313 H   0  0  0  0  0  0
    1.5729   50.1636   24.0857 H   0  0  0  0  0  0
    1.9190   51.9057   21.9666 H   0  0  0  0  0  0
    1.9306   51.4611   19.6516 H   0  0  0  0  0  0
    0.2663   51.8417   19.5844 H   0  0  0  0  0  0
   -0.2453   49.5787   20.7438 H   0  0  0  0  0  0
    1.4299   49.1769   20.5496 H   0  0  0  0  0  0
   -1.8045   49.1645   19.0137 H   0  0  0  0  0  0
   -2.2695   48.3477   16.7373 H   0  0  0  0  0  0
    1.9407   48.4940   15.8477 H   0  0  0  0  0  0
    2.3974   49.2899   18.0835 H   0  0  0  0  0  0
   -0.0178   47.3431   12.9666 H   0  0  0  0  0  0
    1.1748   46.9632   14.2043 H   0  0  0  0  0  0
    0.9519   48.6411   13.6548 H   0  0  0  0  0  0
   -1.5997   48.2048   24.9382 H   0  0  0  0  0  0
  1  2  1  0  0  0
  1 35  1  0  0  0
  1 36  1  0  0  0
  1 37  1  0  0  0
  2  7  2  0  0  0
  2  3  1  0  0  0
  3  4  2  0  0  0
  3 38  1  0  0  0
  4  5  1  0  0  0
  4 39  1  0  0  0
  5  6  2  0  0  0
  5  9  1  0  0  0
  6  7  1  0  0  0
  6  8  1  0  0  0
  7 40  1  0  0  0
  8 41  1  0  0  0
  8 42  1  0  0  0
  8 43  1  0  0  0
  9 10  2  0  0  0
  9 11  1  0  0  0
 11 16  1  0  0  0
 11 12  1  0  0  0
 12 13  1  0  0  0
 12 44  1  0  0  0
 12 45  1  0  0  0
 13 14  1  0  0  0
 13 15  1  0  0  0
 13 22  1  0  0  0
 15 21  1  0  0  0
 15 16  1  0  0  0
 15 17  1  0  0  0
 16 46  1  0  0  0
 16 47  1  0  0  0
 17 18  1  0  0  0
 17 48  1  0  0  0
 17 49  1  0  0  0
 18 19  1  0  0  0
 18 50  1  0  0  0
 18 51  1  0  0  0
 19 20  1  0  0  0
 19 52  1  0  0  0
 19 69  1  0  0  0
 20 21  1  0  0  0
 20 53  1  0  0  0
 20 54  1  0  0  0
 21 55  1  0  0  0
 21 56  1  0  0  0
 22 23  2  0  0  0
 22 24  1  0  0  0
 24 25  1  0  0  0
 24 57  1  0  0  0
 25 26  1  0  0  0
 25 58  1  0  0  0
 25 59  1  0  0  0
 26 27  1  0  0  0
 26 60  1  0  0  0
 26 61  1  0  0  0
 27 32  2  0  0  0
 27 28  1  0  0  0
 28 29  2  0  0  0
 28 62  1  0  0  0
 29 30  1  0  0  0
 29 63  1  0  0  0
 30 31  2  0  0  0
 30 33  1  0  0  0
 31 32  1  0  0  0
 31 64  1  0  0  0
 32 65  1  0  0  0
 33 34  1  0  0  0
 34 66  1  0  0  0
 34 67  1  0  0  0
 34 68  1  0  0  0
M  CHG  1  19   1
M  END
> <i_i_glide_confnum>
401

> <i_i_glide_lignum>
2156

> <i_i_glide_posenum>
285

> <i_i_glide_rotatable_bonds>
8

> <i_m_Source_File_Index>
3646

> <b_m_subgroup_collapsed>
0

> <r_i_docking_score>
-4.76206

> <r_i_glide_ecoul>
-7.81848

> <r_i_glide_eff_state_penalty>
0

> <r_i_glide_einternal>
8.00494

> <r_i_glide_emodel>
-51.2734

> <r_i_glide_energy>
-40.2037

> <r_i_glide_erotb>
0.691272

> <r_i_glide_esite>
-0.1

> <r_i_glide_evdw>
-32.3852

> <r_i_glide_gscore>
-4.76206

> <r_i_glide_hbond>
-0.153591

> <r_i_glide_ligand_efficiency>
-0.144305

> <r_i_glide_ligand_efficiency_ln>
-1.05906

> <r_i_glide_ligand_efficiency_sa>
-0.462862

> <r_i_glide_lipo>
-1.5053

> <r_i_glide_metal>
0

> <r_i_glide_rewards>
-0.902404

> <s_i_glide_gridfile>
wee1_glide-grid

> <s_m_Source_File>
wee1_decoys_glide_SP.sdf

> <s_m_Source_Path>
/Users/zhangxujun/Desktop

> <s_m_entry_id>
3921

> <s_m_entry_name>
wee1_decoys_glide_SP.3646

> <s_m_subgroup_title>
wee1_decoys_glide_SP

> <s_m_subgroupid>
wee1_decoys_glide_SP


$$$$
