ZINC43527597_652
                    3D
 Schrodinger Suite 2024-2.
 67 72  0  0  1  0            999 V2000
    3.9808   54.0970   23.0550 C   0  0  0  0  0  0
    2.8158   53.5866   22.4825 C   0  0  0  0  0  0
    1.7932   53.0987   23.2965 C   0  0  0  0  0  0
    1.9293   53.1567   24.6851 C   0  0  0  0  0  0
    3.0884   53.6887   25.2628 C   0  0  0  0  0  0
    4.1231   54.1453   24.4443 C   0  0  0  0  0  0
    3.0318   53.5834   26.7653 C   0  0  0  0  0  0
    1.5823   53.1797   26.9819 C   0  0  0  0  0  0
    1.1467   52.6179   25.7108 N   0  0  0  0  0  0
   -0.3082   52.4996   25.6526 C   0  0  0  0  0  0
   -0.8005   51.1466   25.0873 C   0  0  1  0  0  0
   -0.0456   50.7620   24.3995 H   0  0  0  0  0  0
   -1.0135   50.0911   26.2201 C   0  0  0  0  0  0
   -2.5290   49.7527   26.3487 N   0  3  1  0  0  0
   -3.3122   51.0810   26.5525 C   0  0  0  0  0  0
   -3.2130   51.9214   25.2447 C   0  0  0  0  0  0
   -2.1276   51.3362   24.2890 C   0  0  2  0  0  0
   -1.9749   51.9907   23.4296 H   0  0  0  0  0  0
   -2.6307   49.9419   23.8256 C   0  0  0  0  0  0
   -2.9803   49.0222   25.0439 C   0  0  2  0  0  0
   -2.3879   48.1032   25.0240 H   0  0  0  0  0  0
   -4.4884   48.6730   25.1179 C   0  0  0  0  0  0
   -4.8972   47.9487   26.3290 N   0  0  0  0  0  0
   -5.0819   46.5957   26.4384 C   0  0  0  0  0  0
   -4.8959   45.4804   25.2182 S   0  0  0  0  0  0
   -5.4913   46.1317   27.6534 N   0  0  0  0  0  0
   -5.7728   46.8702   28.8116 C   0  0  0  0  0  0
   -4.8142   47.7141   29.3817 C   0  0  0  0  0  0
   -5.1501   48.4934   30.4807 C   0  0  0  0  0  0
   -6.4352   48.4156   31.0375 C   0  0  0  0  0  0
   -7.3736   47.5261   30.4923 C   0  0  0  0  0  0
   -7.0385   46.7518   29.3825 C   0  0  0  0  0  0
   -6.7929   49.2392   32.1323 N   0  0  0  0  0  0
   -8.0435   49.7032   32.4793 C   0  0  0  0  0  0
   -7.8661   50.4967   33.5998 C   0  0  0  0  0  0
   -6.4964   50.4376   33.8579 C   0  0  0  0  0  0
   -5.8587   49.6973   32.9851 N   0  0  0  0  0  0
    4.7747   54.4588   22.4189 H   0  0  0  0  0  0
    2.7139   53.5518   21.4059 H   0  0  0  0  0  0
    0.9160   52.6641   22.8411 H   0  0  0  0  0  0
    5.0336   54.5385   24.8687 H   0  0  0  0  0  0
    3.2617   54.5126   27.2885 H   0  0  0  0  0  0
    3.7048   52.8099   27.1374 H   0  0  0  0  0  0
    0.9891   54.0461   27.2795 H   0  0  0  0  0  0
    1.4823   52.4396   27.7747 H   0  0  0  0  0  0
   -0.6609   53.2964   24.9996 H   0  0  0  0  0  0
   -0.7691   52.6806   26.6276 H   0  0  0  0  0  0
   -0.6839   50.4323   27.2052 H   0  0  0  0  0  0
   -0.4995   49.1462   26.0256 H   0  0  0  0  0  0
   -4.3366   50.8285   26.8253 H   0  0  0  0  0  0
   -2.8417   51.5731   27.4051 H   0  0  0  0  0  0
   -4.1828   51.9501   24.7460 H   0  0  0  0  0  0
   -2.9872   52.9585   25.4959 H   0  0  0  0  0  0
   -1.8755   49.4579   23.2029 H   0  0  0  0  0  0
   -3.4985   50.0656   23.1752 H   0  0  0  0  0  0
   -4.7907   48.1351   24.2184 H   0  0  0  0  0  0
   -5.0827   49.5873   25.0793 H   0  0  0  0  0  0
   -5.0440   48.5000   27.1611 H   0  0  0  0  0  0
   -5.7079   45.1455   27.6876 H   0  0  0  0  0  0
   -3.8155   47.7838   28.9706 H   0  0  0  0  0  0
   -4.3992   49.1591   30.8865 H   0  0  0  0  0  0
   -8.3636   47.4320   30.9117 H   0  0  0  0  0  0
   -7.7774   46.0886   28.9573 H   0  0  0  0  0  0
   -8.9196   49.4501   31.9037 H   0  0  0  0  0  0
   -8.6188   51.0453   34.1501 H   0  0  0  0  0  0
   -5.9592   50.9329   34.6546 H   0  0  0  0  0  0
   -2.6035   49.1325   27.1561 H   0  0  0  0  0  0
  1  6  2  0  0  0
  1  2  1  0  0  0
  1 38  1  0  0  0
  2  3  2  0  0  0
  2 39  1  0  0  0
  3  4  1  0  0  0
  3 40  1  0  0  0
  4  9  1  0  0  0
  4  5  2  0  0  0
  5  6  1  0  0  0
  5  7  1  0  0  0
  6 41  1  0  0  0
  7  8  1  0  0  0
  7 42  1  0  0  0
  7 43  1  0  0  0
  8  9  1  0  0  0
  8 44  1  0  0  0
  8 45  1  0  0  0
  9 10  1  0  0  0
 10 11  1  0  0  0
 10 46  1  0  0  0
 10 47  1  0  0  0
 11 12  1  0  0  0
 11 17  1  0  0  0
 11 13  1  0  0  0
 13 14  1  0  0  0
 13 48  1  0  0  0
 13 49  1  0  0  0
 14 20  1  0  0  0
 14 15  1  0  0  0
 14 67  1  0  0  0
 15 16  1  0  0  0
 15 50  1  0  0  0
 15 51  1  0  0  0
 16 17  1  0  0  0
 16 52  1  0  0  0
 16 53  1  0  0  0
 17 18  1  0  0  0
 17 19  1  0  0  0
 19 20  1  0  0  0
 19 54  1  0  0  0
 19 55  1  0  0  0
 20 21  1  0  0  0
 20 22  1  0  0  0
 22 23  1  0  0  0
 22 56  1  0  0  0
 22 57  1  0  0  0
 23 24  1  0  0  0
 23 58  1  0  0  0
 24 25  2  0  0  0
 24 26  1  0  0  0
 26 27  1  0  0  0
 26 59  1  0  0  0
 27 32  2  0  0  0
 27 28  1  0  0  0
 28 29  2  0  0  0
 28 60  1  0  0  0
 29 30  1  0  0  0
 29 61  1  0  0  0
 30 31  2  0  0  0
 30 33  1  0  0  0
 31 32  1  0  0  0
 31 62  1  0  0  0
 32 63  1  0  0  0
 33 37  1  0  0  0
 33 34  1  0  0  0
 34 35  2  0  0  0
 34 64  1  0  0  0
 35 36  1  0  0  0
 35 65  1  0  0  0
 36 37  2  0  0  0
 36 66  1  0  0  0
M  CHG  1  14   1
M  END
> <i_i_glide_confnum>
230

> <i_i_glide_lignum>
653

> <i_i_glide_posenum>
313

> <i_i_glide_rotatable_bonds>
8

> <i_m_Source_File_Index>
5277

> <b_m_subgroup_collapsed>
0

> <r_i_docking_score>
-3.24914

> <r_i_glide_ecoul>
-4.27853

> <r_i_glide_eff_state_penalty>
0

> <r_i_glide_einternal>
7.15602

> <r_i_glide_emodel>
-41.4243

> <r_i_glide_energy>
-37.668

> <r_i_glide_erotb>
0.721339

> <r_i_glide_esite>
-0.214823

> <r_i_glide_evdw>
-33.3895

> <r_i_glide_gscore>
-3.24914

> <r_i_glide_hbond>
-0.154519

> <r_i_glide_ligand_efficiency>
-0.095563

> <r_i_glide_ligand_efficiency_ln>
-0.717827

> <r_i_glide_ligand_efficiency_sa>
-0.309587

> <r_i_glide_lipo>
-1.58629

> <r_i_glide_metal>
0

> <r_i_glide_rewards>
0.2964

> <s_i_glide_gridfile>
wee1_glide-grid

> <s_m_Source_File>
wee1_decoys_glide_SP.sdf

> <s_m_Source_Path>
/Users/zhangxujun/Desktop

> <s_m_entry_id>
5552

> <s_m_entry_name>
wee1_decoys_glide_SP.5277

> <s_m_subgroup_title>
wee1_decoys_glide_SP

> <s_m_subgroupid>
wee1_decoys_glide_SP


$$$$
