ZINC58551191_2529
                    3D
 Schrodinger Suite 2024-2.
 50 53  0  0  1  0            999 V2000
   -2.7154   50.6969   27.1660 C   0  0  0  0  0  0
   -2.6338   51.2831   25.7691 C   0  0  0  0  0  0
   -3.2484   52.4681   25.3627 C   0  0  0  0  0  0
   -2.8954   52.8740   23.6945 S   0  0  0  0  0  0
   -1.9822   51.4087   23.4979 C   0  0  0  0  0  0
   -1.8969   50.6565   24.7028 C   0  0  0  0  0  0
   -1.1185   49.4710   24.6030 C   0  0  0  0  0  0
   -0.5052   49.1178   23.4412 N   0  0  0  0  0  0
   -0.6783   49.9415   22.3722 C   0  0  0  0  0  0
   -1.4163   51.0801   22.3360 N   0  0  0  0  0  0
    0.1325   49.6487   21.1046 C   0  0  2  0  0  0
    0.0315   50.5008   20.4292 H   0  0  0  0  0  0
   -0.4181   48.4361   20.3380 C   0  0  0  0  0  0
    1.9334   49.5312   21.4180 S   0  0  0  0  0  0
    2.2783   51.1661   22.0038 C   0  0  0  0  0  0
    1.5785   51.7830   22.9264 N   0  0  0  0  0  0
    2.0931   53.0564   23.0778 N   0  0  0  0  0  0
    3.1204   53.1536   22.2718 C   0  0  0  0  0  0
    3.2703   52.0009   21.5307 N   0  0  0  0  0  0
    4.2117   51.7439   20.5453 N   0  0  0  0  0  0
    4.0162   54.3791   22.1874 C   0  0  0  0  0  0
    5.2303   54.2078   22.9332 O   0  0  0  0  0  0
    5.2315   54.2725   24.3177 C   0  0  0  0  0  0
    6.4653   54.0976   24.9480 C   0  0  0  0  0  0
    6.5582   54.1039   26.3380 C   0  0  0  0  0  0
    5.4133   54.2956   27.1069 C   0  0  0  0  0  0
    4.1832   54.4966   26.4970 C   0  0  0  0  0  0
    4.0934   54.4967   25.1076 C   0  0  0  0  0  0
    5.5006   54.2928   28.4549 F   0  0  0  0  0  0
   -0.9122   48.6045   25.6817 N   0  0  0  0  0  0
   -4.1276   53.3938   26.1764 C   0  0  0  0  0  0
   -3.1757   49.7086   27.1644 H   0  0  0  0  0  0
   -3.2992   51.3103   27.8530 H   0  0  0  0  0  0
   -1.7282   50.5907   27.6186 H   0  0  0  0  0  0
   -1.4762   48.5617   20.1105 H   0  0  0  0  0  0
    0.1060   48.3019   19.3928 H   0  0  0  0  0  0
   -0.3096   47.5134   20.9037 H   0  0  0  0  0  0
    4.8469   51.0066   20.8097 H   0  0  0  0  0  0
    3.8111   51.6029   19.6249 H   0  0  0  0  0  0
    4.3025   54.5417   21.1478 H   0  0  0  0  0  0
    3.5051   55.2967   22.4787 H   0  0  0  0  0  0
    7.3515   53.9375   24.3510 H   0  0  0  0  0  0
    7.5047   53.9446   26.8294 H   0  0  0  0  0  0
    3.2997   54.6564   27.0986 H   0  0  0  0  0  0
    3.1295   54.6807   24.6664 H   0  0  0  0  0  0
   -1.2953   48.7854   26.6149 H   0  0  0  0  0  0
   -0.2562   47.8410   25.5810 H   0  0  0  0  0  0
   -4.8601   52.8362   26.7594 H   0  0  0  0  0  0
   -3.5473   53.9862   26.8816 H   0  0  0  0  0  0
   -4.6900   54.0874   25.5517 H   0  0  0  0  0  0
  1  2  1  0  0  0
  1 32  1  0  0  0
  1 33  1  0  0  0
  1 34  1  0  0  0
  2  6  1  0  0  0
  2  3  2  0  0  0
  3  4  1  0  0  0
  3 31  1  0  0  0
  4  5  1  0  0  0
  5 10  2  0  0  0
  5  6  1  0  0  0
  6  7  2  0  0  0
  7  8  1  0  0  0
  7 30  1  0  0  0
  8  9  2  0  0  0
  9 10  1  0  0  0
  9 11  1  0  0  0
 11 12  1  0  0  0
 11 13  1  0  0  0
 11 14  1  0  0  0
 13 35  1  0  0  0
 13 36  1  0  0  0
 13 37  1  0  0  0
 14 15  1  0  0  0
 15 19  1  0  0  0
 15 16  2  0  0  0
 16 17  1  0  0  0
 17 18  2  0  0  0
 18 19  1  0  0  0
 18 21  1  0  0  0
 19 20  1  0  0  0
 20 38  1  0  0  0
 20 39  1  0  0  0
 21 22  1  0  0  0
 21 40  1  0  0  0
 21 41  1  0  0  0
 22 23  1  0  0  0
 23 28  2  0  0  0
 23 24  1  0  0  0
 24 25  2  0  0  0
 24 42  1  0  0  0
 25 26  1  0  0  0
 25 43  1  0  0  0
 26 27  2  0  0  0
 26 29  1  0  0  0
 27 28  1  0  0  0
 27 44  1  0  0  0
 28 45  1  0  0  0
 30 46  1  0  0  0
 30 47  1  0  0  0
 31 48  1  0  0  0
 31 49  1  0  0  0
 31 50  1  0  0  0
M  END
> <i_i_glide_confnum>
18

> <i_i_glide_lignum>
2530

> <i_i_glide_posenum>
29

> <i_i_glide_rotatable_bonds>
6

> <i_m_Source_File_Index>
3924

> <b_m_subgroup_collapsed>
0

> <r_i_docking_score>
-5.68088

> <r_i_glide_ecoul>
-4.14349

> <r_i_glide_eff_state_penalty>
0

> <r_i_glide_einternal>
4.27149

> <r_i_glide_emodel>
-59.4132

> <r_i_glide_energy>
-44.6045

> <r_i_glide_erotb>
0.604792

> <r_i_glide_esite>
-0.148121

> <r_i_glide_evdw>
-40.4611

> <r_i_glide_gscore>
-5.68088

> <r_i_glide_hbond>
-0.276664

> <r_i_glide_ligand_efficiency>
-0.189363

> <r_i_glide_ligand_efficiency_ln>
-1.29076

> <r_i_glide_ligand_efficiency_sa>
-0.588394

> <r_i_glide_lipo>
-2.18709

> <r_i_glide_metal>
0

> <r_i_glide_rewards>
-1.02922

> <s_i_glide_gridfile>
wee1_glide-grid

> <s_m_Source_File>
wee1_decoys_glide_SP.sdf

> <s_m_Source_Path>
/Users/zhangxujun/Desktop

> <s_m_entry_id>
4199

> <s_m_entry_name>
wee1_decoys_glide_SP.3924

> <s_m_subgroup_title>
wee1_decoys_glide_SP

> <s_m_subgroupid>
wee1_decoys_glide_SP


$$$$
