ZINC54642826_6020
                    3D
 Schrodinger Suite 2024-2.
 59 63  0  0  1  0            999 V2000
   -4.9969   45.1211   26.5037 C   0  0  0  0  0  0
   -5.0529   46.5774   26.0775 C   0  0  0  0  0  0
   -5.9917   46.9958   25.1314 C   0  0  0  0  0  0
   -6.0491   48.3352   24.7447 C   0  0  0  0  0  0
   -5.1704   49.2661   25.3007 C   0  0  0  0  0  0
   -4.2211   48.8546   26.2487 C   0  0  0  0  0  0
   -4.1672   47.5088   26.6255 C   0  0  0  0  0  0
   -3.2956   49.6967   26.8817 N   0  0  0  0  0  0
   -3.0537   51.0166   26.7414 C   0  0  0  0  0  0
   -3.6114   51.7641   25.9378 O   0  0  0  0  0  0
   -1.9800   51.4893   27.6004 C   0  0  0  0  0  0
   -1.9759   51.2967   28.9517 C   0  0  0  0  0  0
   -0.9201   51.6967   29.7626 N   0  0  0  0  0  0
    0.1493   52.3725   29.2215 C   0  0  0  0  0  0
    1.1656   52.9372   29.8204 N   0  0  0  0  0  0
    1.7739   53.5545   28.8166 C   0  0  0  0  0  0
    1.2067   53.4375   27.6331 N   0  0  0  0  0  0
    0.1561   52.6510   27.8779 N   0  0  0  0  0  0
   -0.8182   52.2007   26.8666 C   0  0  1  0  0  0
   -1.2263   53.0926   26.3913 H   0  0  0  0  0  0
   -0.1423   51.4155   25.7317 C   0  0  0  0  0  0
    0.0451   50.0319   25.8376 C   0  0  0  0  0  0
    0.5892   49.3180   24.7751 C   0  0  0  0  0  0
    0.9817   49.9896   23.6195 C   0  0  0  0  0  0
    0.8357   51.3708   23.5196 C   0  0  0  0  0  0
    0.2705   52.0840   24.5733 C   0  0  0  0  0  0
    1.5045   49.2967   22.5829 F   0  0  0  0  0  0
    3.2437   54.4967   29.0506 S   0  0  0  0  0  0
    4.3912   53.3850   28.1714 C   0  0  0  0  0  0
    4.8843   53.9558   26.8468 C   0  0  0  0  0  0
    4.0067   54.0792   25.7641 C   0  0  0  0  0  0
    4.4773   54.4967   24.5237 C   0  0  0  0  0  0
    5.8274   54.7938   24.3653 C   0  0  0  0  0  0
    6.7044   54.6867   25.4383 C   0  0  0  0  0  0
    6.2359   54.2760   26.6843 C   0  0  0  0  0  0
   -3.1088   50.6483   29.7527 C   0  0  0  0  0  0
   -5.8696   44.8711   27.1076 H   0  0  0  0  0  0
   -4.0954   44.8943   27.0758 H   0  0  0  0  0  0
   -5.0068   44.4704   25.6292 H   0  0  0  0  0  0
   -6.6824   46.2864   24.6992 H   0  0  0  0  0  0
   -6.7796   48.6549   24.0162 H   0  0  0  0  0  0
   -5.2476   50.2941   24.9846 H   0  0  0  0  0  0
   -3.4364   47.1864   27.3563 H   0  0  0  0  0  0
   -2.6727   49.2116   27.5319 H   0  0  0  0  0  0
   -1.0090   51.5986   30.7675 H   0  0  0  0  0  0
   -0.2541   49.5016   26.7314 H   0  0  0  0  0  0
    0.7044   48.2466   24.8510 H   0  0  0  0  0  0
    1.1484   51.8815   22.6209 H   0  0  0  0  0  0
    0.1447   53.1533   24.4820 H   0  0  0  0  0  0
    5.2330   53.1712   28.8310 H   0  0  0  0  0  0
    3.9181   52.4213   27.9828 H   0  0  0  0  0  0
    2.9660   53.8189   25.8624 H   0  0  0  0  0  0
    3.8008   54.5762   23.6851 H   0  0  0  0  0  0
    6.1997   55.1030   23.3994 H   0  0  0  0  0  0
    7.7497   54.8967   25.2817 H   0  0  0  0  0  0
    6.9277   54.1747   27.5086 H   0  0  0  0  0  0
   -3.2956   49.6279   29.4278 H   0  0  0  0  0  0
   -2.8956   50.5828   30.8222 H   0  0  0  0  0  0
   -4.0341   51.2098   29.6263 H   0  0  0  0  0  0
  1  2  1  0  0  0
  1 37  1  0  0  0
  1 38  1  0  0  0
  1 39  1  0  0  0
  2  7  2  0  0  0
  2  3  1  0  0  0
  3  4  2  0  0  0
  3 40  1  0  0  0
  4  5  1  0  0  0
  4 41  1  0  0  0
  5  6  2  0  0  0
  5 42  1  0  0  0
  6  7  1  0  0  0
  6  8  1  0  0  0
  7 43  1  0  0  0
  8  9  1  0  0  0
  8 44  1  0  0  0
  9 10  2  0  0  0
  9 11  1  0  0  0
 11 19  1  0  0  0
 11 12  2  0  0  0
 12 13  1  0  0  0
 12 36  1  0  0  0
 13 14  1  0  0  0
 13 45  1  0  0  0
 14 18  1  0  0  0
 14 15  2  0  0  0
 15 16  1  0  0  0
 16 17  2  0  0  0
 16 28  1  0  0  0
 17 18  1  0  0  0
 18 19  1  0  0  0
 19 20  1  0  0  0
 19 21  1  0  0  0
 21 26  2  0  0  0
 21 22  1  0  0  0
 22 23  2  0  0  0
 22 46  1  0  0  0
 23 24  1  0  0  0
 23 47  1  0  0  0
 24 25  2  0  0  0
 24 27  1  0  0  0
 25 26  1  0  0  0
 25 48  1  0  0  0
 26 49  1  0  0  0
 28 29  1  0  0  0
 29 30  1  0  0  0
 29 50  1  0  0  0
 29 51  1  0  0  0
 30 35  2  0  0  0
 30 31  1  0  0  0
 31 32  2  0  0  0
 31 52  1  0  0  0
 32 33  1  0  0  0
 32 53  1  0  0  0
 33 34  2  0  0  0
 33 54  1  0  0  0
 34 35  1  0  0  0
 34 55  1  0  0  0
 35 56  1  0  0  0
 36 57  1  0  0  0
 36 58  1  0  0  0
 36 59  1  0  0  0
M  END
> <i_i_glide_confnum>
74

> <i_i_glide_lignum>
6021

> <i_i_glide_posenum>
126

> <i_i_glide_rotatable_bonds>
7

> <i_m_Source_File_Index>
5189

> <b_m_subgroup_collapsed>
0

> <r_i_docking_score>
-6.03749

> <r_i_glide_ecoul>
-8.36183

> <r_i_glide_eff_state_penalty>
0

> <r_i_glide_einternal>
9.48951

> <r_i_glide_emodel>
-65.3882

> <r_i_glide_energy>
-50.1154

> <r_i_glide_erotb>
0.603146

> <r_i_glide_esite>
-0.215012

> <r_i_glide_evdw>
-41.7535

> <r_i_glide_gscore>
-6.03749

> <r_i_glide_hbond>
-0.170005

> <r_i_glide_ligand_efficiency>
-0.1725

> <r_i_glide_ligand_efficiency_ln>
-1.32536

> <r_i_glide_ligand_efficiency_sa>
-0.564258

> <r_i_glide_lipo>
-2.25307

> <r_i_glide_metal>
0

> <r_i_glide_rewards>
-0.660596

> <s_i_glide_gridfile>
wee1_glide-grid

> <s_m_Source_File>
wee1_decoys_glide_SP.sdf

> <s_m_Source_Path>
/Users/zhangxujun/Desktop

> <s_m_entry_id>
5464

> <s_m_entry_name>
wee1_decoys_glide_SP.5189

> <s_m_subgroup_title>
wee1_decoys_glide_SP

> <s_m_subgroupid>
wee1_decoys_glide_SP


$$$$
