ZINC33711409_5516
                    3D
 Schrodinger Suite 2024-2.
 52 55  0  0  1  0            999 V2000
    0.2462   51.0524   17.5823 C   0  0  0  0  0  0
   -0.3330   51.8593   18.5575 C   0  0  0  0  0  0
    0.3493   52.0979   19.7475 C   0  0  0  0  0  0
    1.6179   51.5425   19.9655 C   0  0  0  0  0  0
    2.1789   50.7173   18.9817 C   0  0  0  0  0  0
    1.4958   50.4772   17.7920 C   0  0  0  0  0  0
    2.3673   51.8012   21.2496 C   0  0  0  0  0  0
    3.1043   50.9324   21.7196 O   0  0  0  0  0  0
    2.1767   53.0227   21.8015 N   0  0  0  0  0  0
    2.8388   53.3695   22.9940 N   0  0  0  0  0  0
    3.9507   54.2809   22.8995 C   0  0  1  0  0  0
    3.5926   55.2496   22.5405 H   0  0  0  0  0  0
    4.3001   54.4600   24.3608 C   0  0  0  0  0  0
    5.2880   55.0599   24.7955 O   0  0  0  0  0  0
    3.3189   53.8164   25.0399 N   0  0  0  0  0  0
    2.3264   53.2434   24.2584 C   0  0  0  0  0  0
    0.8881   52.4873   24.6901 S   0  0  0  0  0  0
    3.3897   53.7491   26.4690 C   0  0  0  0  0  0
    4.5685   53.2968   27.0855 C   0  0  0  0  0  0
    4.6164   53.0802   28.4546 C   0  0  0  0  0  0
    3.4883   53.3248   29.2232 C   0  0  0  0  0  0
    2.3412   53.8688   28.6548 C   0  0  0  0  0  0
    2.3003   54.0944   27.2826 C   0  0  0  0  0  0
    3.5065   52.8897   30.8818 Cl  0  0  0  0  0  0
    5.1760   53.7611   22.0758 C   0  0  0  0  0  0
    5.2994   54.4969   20.7388 C   0  0  0  0  0  0
    5.9040   55.5696   20.7121 O   0  0  0  0  0  0
    4.7068   53.9107   19.6795 N   0  0  0  0  0  0
    4.4731   54.4414   18.3988 C   0  0  0  0  0  0
    4.5377   55.8094   18.0804 C   0  0  0  0  0  0
    4.2351   56.2473   16.7908 C   0  0  0  0  0  0
    3.8596   55.3291   15.8109 C   0  0  0  0  0  0
    3.7865   53.9710   16.1206 C   0  0  0  0  0  0
    4.0928   53.5318   17.4087 C   0  0  0  0  0  0
    3.3095   52.8340   14.9130 Cl  0  0  0  0  0  0
   -0.2783   50.8672   16.6564 H   0  0  0  0  0  0
   -1.3060   52.2966   18.3899 H   0  0  0  0  0  0
   -0.1136   52.7197   20.4983 H   0  0  0  0  0  0
    3.1510   50.2635   19.1197 H   0  0  0  0  0  0
    1.9398   49.8479   17.0330 H   0  0  0  0  0  0
    1.9040   53.8285   21.2512 H   0  0  0  0  0  0
    5.4342   53.0304   26.4956 H   0  0  0  0  0  0
    5.5055   52.6657   28.9025 H   0  0  0  0  0  0
    1.4734   54.0752   29.2641 H   0  0  0  0  0  0
    1.3956   54.4910   26.8554 H   0  0  0  0  0  0
    5.1255   52.6829   21.9147 H   0  0  0  0  0  0
    6.1252   53.9125   22.5963 H   0  0  0  0  0  0
    4.3915   52.9601   19.8039 H   0  0  0  0  0  0
    4.7980   56.5533   18.8177 H   0  0  0  0  0  0
    4.2845   57.3010   16.5557 H   0  0  0  0  0  0
    3.6229   55.6707   14.8134 H   0  0  0  0  0  0
    4.0312   52.4771   17.6304 H   0  0  0  0  0  0
  1  6  2  0  0  0
  1  2  1  0  0  0
  1 36  1  0  0  0
  2  3  2  0  0  0
  2 37  1  0  0  0
  3  4  1  0  0  0
  3 38  1  0  0  0
  4  5  2  0  0  0
  4  7  1  0  0  0
  5  6  1  0  0  0
  5 39  1  0  0  0
  6 40  1  0  0  0
  7  8  2  0  0  0
  7  9  1  0  0  0
  9 10  1  0  0  0
  9 41  1  0  0  0
 10 16  1  0  0  0
 10 11  1  0  0  0
 11 12  1  0  0  0
 11 13  1  0  0  0
 11 25  1  0  0  0
 13 14  2  0  0  0
 13 15  1  0  0  0
 15 16  1  0  0  0
 15 18  1  0  0  0
 16 17  2  0  0  0
 18 23  2  0  0  0
 18 19  1  0  0  0
 19 20  2  0  0  0
 19 42  1  0  0  0
 20 21  1  0  0  0
 20 43  1  0  0  0
 21 22  2  0  0  0
 21 24  1  0  0  0
 22 23  1  0  0  0
 22 44  1  0  0  0
 23 45  1  0  0  0
 25 26  1  0  0  0
 25 46  1  0  0  0
 25 47  1  0  0  0
 26 27  2  0  0  0
 26 28  1  0  0  0
 28 29  1  0  0  0
 28 48  1  0  0  0
 29 34  2  0  0  0
 29 30  1  0  0  0
 30 31  2  0  0  0
 30 49  1  0  0  0
 31 32  1  0  0  0
 31 50  1  0  0  0
 32 33  2  0  0  0
 32 51  1  0  0  0
 33 34  1  0  0  0
 33 35  1  0  0  0
 34 52  1  0  0  0
M  END
> <i_i_glide_confnum>
186

> <i_i_glide_lignum>
5517

> <i_i_glide_posenum>
131

> <i_i_glide_rotatable_bonds>
8

> <i_m_Source_File_Index>
5319

> <b_m_subgroup_collapsed>
0

> <r_i_docking_score>
-5.76525

> <r_i_glide_ecoul>
-5.92409

> <r_i_glide_eff_state_penalty>
0

> <r_i_glide_einternal>
6.89286

> <r_i_glide_emodel>
-64.6048

> <r_i_glide_energy>
-48.4167

> <r_i_glide_erotb>
0.544591

> <r_i_glide_esite>
-8.94801e-05

> <r_i_glide_evdw>
-42.4926

> <r_i_glide_gscore>
-5.76525

> <r_i_glide_hbond>
-0.32

> <r_i_glide_ligand_efficiency>
-0.169566

> <r_i_glide_ligand_efficiency_ln>
-1.27371

> <r_i_glide_ligand_efficiency_sa>
-0.549329

> <r_i_glide_lipo>
-1.56752

> <r_i_glide_metal>
0

> <r_i_glide_rewards>
-1.40899

> <s_i_glide_gridfile>
wee1_glide-grid

> <s_m_Source_File>
wee1_decoys_glide_SP.sdf

> <s_m_Source_Path>
/Users/zhangxujun/Desktop

> <s_m_entry_id>
5594

> <s_m_entry_name>
wee1_decoys_glide_SP.5319

> <s_m_subgroup_title>
wee1_decoys_glide_SP

> <s_m_subgroupid>
wee1_decoys_glide_SP


$$$$
