ZINC58944018_5920
                    3D
 Schrodinger Suite 2024-2.
 53 56  0  0  1  0            999 V2000
    3.8042   54.2311   25.0918 C   0  0  0  0  0  0
    4.8047   54.3560   26.0543 C   0  0  0  0  0  0
    6.1332   54.4919   25.6567 C   0  0  0  0  0  0
    6.4690   54.4957   24.3069 C   0  0  0  0  0  0
    5.4722   54.3772   23.3438 C   0  0  0  0  0  0
    4.1361   54.2382   23.7330 C   0  0  0  0  0  0
    3.0255   54.2275   22.6818 C   0  0  0  0  0  0
    2.5759   52.8721   22.2500 N   0  0  0  0  0  0
    3.4089   52.3053   21.3074 C   0  0  0  0  0  0
    4.3674   52.8784   20.7817 O   0  0  0  0  0  0
    3.1554   50.8286   20.9646 C   0  0  0  0  0  0
    1.6781   50.5647   20.6225 C   0  0  2  0  0  0
    1.3300   51.1579   19.7753 H   0  0  0  0  0  0
    0.6454   50.8725   22.0750 S   0  0  0  0  0  0
    1.4198   52.3560   22.8177 C   0  0  0  0  0  0
    0.8527   52.8858   23.8462 N   0  0  0  0  0  0
   -0.3009   52.3894   24.4720 C   0  0  0  0  0  0
   -1.5670   52.8390   24.0808 C   0  0  0  0  0  0
   -2.7190   52.3331   24.6768 C   0  0  0  0  0  0
   -2.6125   51.3567   25.6633 C   0  0  0  0  0  0
   -1.3646   50.8791   26.0509 C   0  0  0  0  0  0
   -0.2146   51.3902   25.4498 C   0  0  0  0  0  0
   -3.7321   50.8680   26.2421 F   0  0  0  0  0  0
    1.4325   49.0788   20.2722 C   0  0  0  0  0  0
    2.3010   48.2377   20.5125 O   0  0  0  0  0  0
    0.2229   48.7535   19.7607 N   0  0  0  0  0  0
   -0.2063   47.4409   19.5118 C   0  0  0  0  0  0
   -1.4722   47.0712   19.9622 C   0  0  0  0  0  0
   -1.8869   45.7463   19.8464 C   0  0  0  0  0  0
   -1.0382   44.7830   19.2816 C   0  0  0  0  0  0
    0.2018   45.1820   18.7648 C   0  0  0  0  0  0
    0.6111   46.5060   18.8648 C   0  0  0  0  0  0
   -1.4234   43.3381   19.2707 C   0  0  0  0  0  0
   -0.4942   42.4966   19.2958 O   0  0  0  0  0  0
   -2.6411   43.0439   19.2895 O   0  5  0  0  0  0
    7.1036   54.6267   26.5879 F   0  0  0  0  0  0
    2.7730   54.1382   25.4005 H   0  0  0  0  0  0
    4.5600   54.3530   27.1060 H   0  0  0  0  0  0
    7.4978   54.6018   24.0039 H   0  0  0  0  0  0
    5.7414   54.4087   22.2972 H   0  0  0  0  0  0
    3.3587   54.8074   21.8187 H   0  0  0  0  0  0
    2.1867   54.8163   23.0568 H   0  0  0  0  0  0
    3.4995   50.2298   21.8075 H   0  0  0  0  0  0
    3.7858   50.5713   20.1104 H   0  0  0  0  0  0
   -1.6572   53.5915   23.3123 H   0  0  0  0  0  0
   -3.6901   52.6928   24.3746 H   0  0  0  0  0  0
   -1.2941   50.1062   26.8066 H   0  0  0  0  0  0
    0.7509   51.0073   25.7453 H   0  0  0  0  0  0
   -0.4879   49.4716   19.7338 H   0  0  0  0  0  0
   -2.1182   47.7904   20.4463 H   0  0  0  0  0  0
   -2.8523   45.4613   20.2402 H   0  0  0  0  0  0
    0.8669   44.4590   18.3104 H   0  0  0  0  0  0
    1.5836   46.7881   18.4848 H   0  0  0  0  0  0
  1  6  2  0  0  0
  1  2  1  0  0  0
  1 37  1  0  0  0
  2  3  2  0  0  0
  2 38  1  0  0  0
  3  4  1  0  0  0
  3 36  1  0  0  0
  4  5  2  0  0  0
  4 39  1  0  0  0
  5  6  1  0  0  0
  5 40  1  0  0  0
  6  7  1  0  0  0
  7  8  1  0  0  0
  7 41  1  0  0  0
  7 42  1  0  0  0
  8 15  1  0  0  0
  8  9  1  0  0  0
  9 10  2  0  0  0
  9 11  1  0  0  0
 11 12  1  0  0  0
 11 43  1  0  0  0
 11 44  1  0  0  0
 12 13  1  0  0  0
 12 14  1  0  0  0
 12 24  1  0  0  0
 14 15  1  0  0  0
 15 16  2  0  0  0
 16 17  1  0  0  0
 17 22  2  0  0  0
 17 18  1  0  0  0
 18 19  2  0  0  0
 18 45  1  0  0  0
 19 20  1  0  0  0
 19 46  1  0  0  0
 20 21  2  0  0  0
 20 23  1  0  0  0
 21 22  1  0  0  0
 21 47  1  0  0  0
 22 48  1  0  0  0
 24 25  2  0  0  0
 24 26  1  0  0  0
 26 27  1  0  0  0
 26 49  1  0  0  0
 27 32  2  0  0  0
 27 28  1  0  0  0
 28 29  2  0  0  0
 28 50  1  0  0  0
 29 30  1  0  0  0
 29 51  1  0  0  0
 30 31  2  0  0  0
 30 33  1  0  0  0
 31 32  1  0  0  0
 31 52  1  0  0  0
 32 53  1  0  0  0
 33 34  2  0  0  0
 33 35  1  0  0  0
M  CHG  1  35  -1
M  END
> <i_i_glide_confnum>
13

> <i_i_glide_lignum>
5921

> <i_i_glide_posenum>
9

> <i_i_glide_rotatable_bonds>
7

> <i_m_Source_File_Index>
1835

> <b_m_subgroup_collapsed>
0

> <r_i_docking_score>
-4.49241

> <r_i_glide_ecoul>
-3.30641

> <r_i_glide_eff_state_penalty>
0

> <r_i_glide_einternal>
5.18448

> <r_i_glide_emodel>
-56.6174

> <r_i_glide_energy>
-44.3073

> <r_i_glide_erotb>
0.416709

> <r_i_glide_esite>
-0.0871132

> <r_i_glide_evdw>
-41.0009

> <r_i_glide_gscore>
-4.49241

> <r_i_glide_hbond>
-0.238307

> <r_i_glide_ligand_efficiency>
-0.128355

> <r_i_glide_ligand_efficiency_ln>
-0.986184

> <r_i_glide_ligand_efficiency_sa>
-0.419856

> <r_i_glide_lipo>
-1.9599

> <r_i_glide_metal>
0

> <r_i_glide_rewards>
-0.0777924

> <s_i_glide_gridfile>
wee1_glide-grid

> <s_m_Source_File>
wee1_decoys_glide_SP.sdf

> <s_m_Source_Path>
/Users/zhangxujun/Desktop

> <s_m_entry_id>
2110

> <s_m_entry_name>
wee1_decoys_glide_SP.1835

> <s_m_subgroup_title>
wee1_decoys_glide_SP

> <s_m_subgroupid>
wee1_decoys_glide_SP


$$$$
