ZINC59131764_4155
                    3D
 Schrodinger Suite 2024-2.
 51 54  0  0  1  0            999 V2000
   -1.8243   51.2967   28.8374 C   0  0  0  0  0  0
   -0.9692   51.6967   29.8528 C   0  0  0  0  0  0
    0.2538   52.2628   29.5508 C   0  0  0  0  0  0
    0.6552   52.4241   28.2160 C   0  0  0  0  0  0
   -0.1944   51.9830   27.1586 C   0  0  0  0  0  0
   -1.4369   51.4220   27.5099 C   0  0  0  0  0  0
    0.1678   52.1222   25.6788 C   0  0  0  0  0  0
    1.0566   52.8967   25.3227 O   0  0  0  0  0  0
   -0.5585   51.3897   24.8040 N   0  0  0  0  0  0
   -0.5980   51.4922   23.3993 C   0  0  0  0  0  0
   -1.7787   51.0677   22.7842 C   0  0  0  0  0  0
   -1.9267   51.1752   21.4039 C   0  0  0  0  0  0
   -0.8898   51.6967   20.6354 C   0  0  0  0  0  0
    0.3029   52.0965   21.2322 C   0  0  0  0  0  0
    0.4552   51.9892   22.6124 C   0  0  0  0  0  0
   -1.0484   51.8231   19.2992 F   0  0  0  0  0  0
    1.8514   53.0876   27.9030 N   0  0  0  0  0  0
    2.8516   53.5599   28.6749 C   0  0  0  0  0  0
    2.9899   53.3283   29.8776 O   0  0  0  0  0  0
    3.8497   54.5226   27.9992 C   0  0  1  0  0  0
    3.6182   55.4730   28.4817 H   0  0  0  0  0  0
    5.2934   54.1355   28.2371 C   0  0  0  0  0  0
    5.9434   54.0346   26.8660 C   0  0  0  0  0  0
    7.1044   53.6974   26.7120 O   0  0  0  0  0  0
    5.0323   54.3541   25.9078 N   0  0  0  0  0  0
    3.7289   54.6673   26.4802 C   0  0  0  0  0  0
    5.2755   54.3981   24.5086 C   0  0  0  0  0  0
    4.2315   54.0967   23.6181 C   0  0  0  0  0  0
    4.4240   54.1856   22.2415 C   0  0  0  0  0  0
    5.6545   54.6047   21.7440 C   0  0  0  0  0  0
    6.7044   54.8967   22.6103 C   0  0  0  0  0  0
    6.5210   54.7831   23.9853 C   0  0  0  0  0  0
    5.8946   54.8239   19.8694 Br  0  0  0  0  0  0
   -2.7708   50.8372   29.0840 H   0  0  0  0  0  0
   -1.2672   51.5613   30.8817 H   0  0  0  0  0  0
    0.8515   52.5827   30.3873 H   0  0  0  0  0  0
   -2.1389   51.0710   26.7686 H   0  0  0  0  0  0
   -1.2499   50.7787   25.2095 H   0  0  0  0  0  0
   -2.5955   50.6713   23.3706 H   0  0  0  0  0  0
   -2.8435   50.8593   20.9291 H   0  0  0  0  0  0
    1.1042   52.4926   20.6247 H   0  0  0  0  0  0
    1.3955   52.2940   23.0438 H   0  0  0  0  0  0
    1.9286   53.2570   26.9081 H   0  0  0  0  0  0
    5.4293   53.1948   28.7751 H   0  0  0  0  0  0
    5.8153   54.8967   28.8189 H   0  0  0  0  0  0
    3.5044   55.6967   26.2202 H   0  0  0  0  0  0
    2.9632   54.0494   26.0314 H   0  0  0  0  0  0
    3.2610   53.7875   23.9736 H   0  0  0  0  0  0
    3.6123   53.9636   21.5633 H   0  0  0  0  0  0
    7.6584   55.2205   22.2197 H   0  0  0  0  0  0
    7.3486   55.0366   24.6299 H   0  0  0  0  0  0
  1  6  2  0  0  0
  1  2  1  0  0  0
  1 34  1  0  0  0
  2  3  2  0  0  0
  2 35  1  0  0  0
  3  4  1  0  0  0
  3 36  1  0  0  0
  4  5  2  0  0  0
  4 17  1  0  0  0
  5  6  1  0  0  0
  5  7  1  0  0  0
  6 37  1  0  0  0
  7  8  2  0  0  0
  7  9  1  0  0  0
  9 10  1  0  0  0
  9 38  1  0  0  0
 10 15  2  0  0  0
 10 11  1  0  0  0
 11 12  2  0  0  0
 11 39  1  0  0  0
 12 13  1  0  0  0
 12 40  1  0  0  0
 13 14  2  0  0  0
 13 16  1  0  0  0
 14 15  1  0  0  0
 14 41  1  0  0  0
 15 42  1  0  0  0
 17 18  1  0  0  0
 17 43  1  0  0  0
 18 19  2  0  0  0
 18 20  1  0  0  0
 20 21  1  0  0  0
 20 26  1  0  0  0
 20 22  1  0  0  0
 22 23  1  0  0  0
 22 44  1  0  0  0
 22 45  1  0  0  0
 23 24  2  0  0  0
 23 25  1  0  0  0
 25 26  1  0  0  0
 25 27  1  0  0  0
 26 46  1  0  0  0
 26 47  1  0  0  0
 27 32  2  0  0  0
 27 28  1  0  0  0
 28 29  2  0  0  0
 28 48  1  0  0  0
 29 30  1  0  0  0
 29 49  1  0  0  0
 30 31  2  0  0  0
 30 33  1  0  0  0
 31 32  1  0  0  0
 31 50  1  0  0  0
 32 51  1  0  0  0
M  END
> <i_i_glide_confnum>
188

> <i_i_glide_lignum>
4156

> <i_i_glide_posenum>
345

> <i_i_glide_rotatable_bonds>
7

> <i_m_Source_File_Index>
4124

> <b_m_subgroup_collapsed>
0

> <r_i_docking_score>
-6.54501

> <r_i_glide_ecoul>
-6.1761

> <r_i_glide_eff_state_penalty>
0

> <r_i_glide_einternal>
7.6551

> <r_i_glide_emodel>
-71.7012

> <r_i_glide_energy>
-53.1671

> <r_i_glide_erotb>
0.579441

> <r_i_glide_esite>
-0.0219005

> <r_i_glide_evdw>
-46.991

> <r_i_glide_gscore>
-6.54501

> <r_i_glide_hbond>
-0.15237

> <r_i_glide_ligand_efficiency>
-0.204531

> <r_i_glide_ligand_efficiency_ln>
-1.46561

> <r_i_glide_ligand_efficiency_sa>
-0.649347

> <r_i_glide_lipo>
-2.44168

> <r_i_glide_metal>
0

> <r_i_glide_rewards>
-1.23253

> <s_i_glide_gridfile>
wee1_glide-grid

> <s_m_Source_File>
wee1_decoys_glide_SP.sdf

> <s_m_Source_Path>
/Users/zhangxujun/Desktop

> <s_m_entry_id>
4399

> <s_m_entry_name>
wee1_decoys_glide_SP.4124

> <s_m_subgroup_title>
wee1_decoys_glide_SP

> <s_m_subgroupid>
wee1_decoys_glide_SP


$$$$
