ZINC40200672_651
                    3D
 Schrodinger Suite 2024-2.
 58 61  0  0  1  0            999 V2000
    0.5951   51.5699   18.2218 C   0  0  0  0  0  0
    1.5833   51.6247   19.4060 C   0  0  1  0  0  0
    2.2965   50.2871   19.6180 C   0  0  0  0  0  0
    2.8497   50.4841   21.0229 C   0  0  1  0  0  0
    3.1195   49.5313   21.4817 H   0  0  0  0  0  0
    4.0492   51.4805   21.0025 C   0  0  0  0  0  0
    3.8556   52.8123   20.1915 C   0  0  0  0  0  0
    2.6617   52.7260   19.1758 C   0  0  0  0  0  0
    3.5792   53.9453   21.2025 C   0  0  0  0  0  0
    5.1392   53.1984   19.4140 C   0  0  0  0  0  0
    1.5695   50.9229   21.7663 N   0  3  2  0  0  0
    0.8427   51.8440   20.7518 C   0  0  0  0  0  0
    1.8200   51.4393   23.2108 C   0  0  0  0  0  0
    0.5219   51.6239   24.0169 C   0  0  0  0  0  0
   -0.5524   51.7645   23.4380 O   0  0  0  0  0  0
    0.7042   51.6737   25.3520 N   0  0  0  0  0  0
   -0.2199   51.6210   26.3958 C   0  0  0  0  0  0
   -1.6276   51.2305   26.3975 C   0  0  0  0  0  0
   -2.5729   50.8014   25.4418 C   0  0  0  0  0  0
   -3.8699   50.4842   25.8350 C   0  0  0  0  0  0
   -4.2543   50.5603   27.1670 C   0  0  0  0  0  0
   -3.3660   50.9593   28.1632 C   0  0  0  0  0  0
   -2.0684   51.2968   27.7621 C   0  0  0  0  0  0
   -0.9927   51.6965   28.5202 N   0  0  0  0  0  0
   -0.9478   51.7856   29.5269 H   0  0  0  0  0  0
    0.1111   51.8790   27.7283 C   0  0  0  0  0  0
    1.3430   52.2778   28.4241 C   0  0  0  0  0  0
    1.4546   52.3472   29.6523 O   0  0  0  0  0  0
    2.3205   52.5798   27.5430 O   0  0  0  0  0  0
    3.6037   52.9848   27.9994 C   0  0  0  0  0  0
   -5.1297   49.9186   24.5244 Br  0  0  0  0  0  0
    0.0723   52.5193   18.0972 H   0  0  0  0  0  0
   -0.1605   50.7942   18.3560 H   0  0  0  0  0  0
    1.1124   51.3552   17.2858 H   0  0  0  0  0  0
    1.6043   49.4444   19.5761 H   0  0  0  0  0  0
    3.0802   50.0923   18.8804 H   0  0  0  0  0  0
    4.5533   51.6212   21.9584 H   0  0  0  0  0  0
    4.7745   50.8992   20.4336 H   0  0  0  0  0  0
    3.1062   52.3744   18.2414 H   0  0  0  0  0  0
    2.2719   53.6969   18.8818 H   0  0  0  0  0  0
    3.5926   54.8967   20.6870 H   0  0  0  0  0  0
    2.6120   53.8891   21.6850 H   0  0  0  0  0  0
    4.3392   53.9986   21.9801 H   0  0  0  0  0  0
    5.0207   54.1648   18.9202 H   0  0  0  0  0  0
    5.9904   53.2936   20.0815 H   0  0  0  0  0  0
    5.4022   52.4966   18.6288 H   0  0  0  0  0  0
    0.8549   52.8803   21.0865 H   0  0  0  0  0  0
   -0.1821   51.4682   20.7304 H   0  0  0  0  0  0
    2.4531   50.6726   23.6626 H   0  0  0  0  0  0
    2.3835   52.3657   23.1530 H   0  0  0  0  0  0
    1.6569   51.7653   25.6726 H   0  0  0  0  0  0
   -2.3248   50.6811   24.4040 H   0  0  0  0  0  0
   -5.2608   50.2798   27.4398 H   0  0  0  0  0  0
   -3.6599   50.9705   29.2027 H   0  0  0  0  0  0
    4.2638   53.1510   27.1481 H   0  0  0  0  0  0
    3.5394   53.9136   28.5679 H   0  0  0  0  0  0
    4.0566   52.2208   28.6335 H   0  0  0  0  0  0
    0.9944   50.0924   21.8363 H   0  0  0  0  0  0
  1  2  1  0  0  0
  1 32  1  0  0  0
  1 33  1  0  0  0
  1 34  1  0  0  0
  2  8  1  0  0  0
  2 12  1  0  0  0
  2  3  1  0  0  0
  3  4  1  0  0  0
  3 35  1  0  0  0
  3 36  1  0  0  0
  4  5  1  0  0  0
  4  6  1  0  0  0
  4 11  1  0  0  0
  6  7  1  0  0  0
  6 37  1  0  0  0
  6 38  1  0  0  0
  7  8  1  0  0  0
  7  9  1  0  0  0
  7 10  1  0  0  0
  8 39  1  0  0  0
  8 40  1  0  0  0
  9 41  1  0  0  0
  9 42  1  0  0  0
  9 43  1  0  0  0
 10 44  1  0  0  0
 10 45  1  0  0  0
 10 46  1  0  0  0
 11 12  1  0  0  0
 11 13  1  0  0  0
 11 58  1  0  0  0
 12 47  1  0  0  0
 12 48  1  0  0  0
 13 14  1  0  0  0
 13 49  1  0  0  0
 13 50  1  0  0  0
 14 15  2  0  0  0
 14 16  1  0  0  0
 16 17  1  0  0  0
 16 51  1  0  0  0
 17 26  2  0  0  0
 17 18  1  0  0  0
 18 23  2  0  0  0
 18 19  1  0  0  0
 19 20  2  0  0  0
 19 52  1  0  0  0
 20 21  1  0  0  0
 20 31  1  0  0  0
 21 22  2  0  0  0
 21 53  1  0  0  0
 22 23  1  0  0  0
 22 54  1  0  0  0
 23 24  1  0  0  0
 24 25  1  0  0  0
 24 26  1  0  0  0
 26 27  1  0  0  0
 27 28  2  0  0  0
 27 29  1  0  0  0
 29 30  1  0  0  0
 30 55  1  0  0  0
 30 56  1  0  0  0
 30 57  1  0  0  0
M  CHG  1  11   1
M  END
> <i_i_glide_confnum>
16

> <i_i_glide_lignum>
652

> <i_i_glide_posenum>
338

> <i_i_glide_rotatable_bonds>
6

> <i_m_Source_File_Index>
6038

> <b_m_subgroup_collapsed>
0

> <r_i_docking_score>
-2.22186

> <r_i_glide_ecoul>
-1.93498

> <r_i_glide_eff_state_penalty>
0

> <r_i_glide_einternal>
6.10831

> <r_i_glide_emodel>
-32.3719

> <r_i_glide_energy>
-30.7618

> <r_i_glide_erotb>
0.469228

> <r_i_glide_esite>
-0.0655026

> <r_i_glide_evdw>
-28.8268

> <r_i_glide_gscore>
-2.22186

> <r_i_glide_hbond>
0

> <r_i_glide_ligand_efficiency>
-0.076616

> <r_i_glide_ligand_efficiency_ln>
-0.508751

> <r_i_glide_ligand_efficiency_sa>
-0.235389

> <r_i_glide_lipo>
-0.333852

> <r_i_glide_metal>
0

> <r_i_glide_rewards>
-0.560149

> <s_i_glide_gridfile>
wee1_glide-grid

> <s_m_Source_File>
wee1_decoys_glide_SP.sdf

> <s_m_Source_Path>
/Users/zhangxujun/Desktop

> <s_m_entry_id>
6313

> <s_m_entry_name>
wee1_decoys_glide_SP.6038

> <s_m_subgroup_title>
wee1_decoys_glide_SP

> <s_m_subgroupid>
wee1_decoys_glide_SP


$$$$
