ZINC03294601_5774
                    3D
 Schrodinger Suite 2024-2.
 65 68  0  0  1  0            999 V2000
   -2.4927   56.6146   16.5683 C   0  0  0  0  0  0
   -1.6288   56.2287   15.3555 C   0  0  0  0  0  0
   -0.3463   56.8459   15.4099 O   0  0  0  0  0  0
    0.6492   56.3523   16.1890 C   0  0  0  0  0  0
    0.5455   55.3376   16.8815 O   0  0  0  0  0  0
    1.8581   57.1998   16.1463 C   0  0  0  0  0  0
    1.9296   58.5247   15.6818 C   0  0  0  0  0  0
    3.1959   58.9735   15.9371 N   0  0  0  0  0  0
    3.5087   59.9296   15.7959 H   0  0  0  0  0  0
    3.9698   58.0011   16.4988 C   0  0  0  0  0  0
    3.1602   56.8709   16.6344 C   0  0  0  0  0  0
    3.6161   55.6066   17.2121 C   0  0  0  0  0  0
    3.4467   54.5258   16.6473 O   0  0  0  0  0  0
    4.2327   55.6697   18.6131 C   0  0  0  0  0  0
    5.7336   54.6542   18.6872 S   0  0  0  0  0  0
    6.0838   54.8973   20.4004 C   0  0  0  0  0  0
    7.0050   55.7255   20.8245 N   0  0  0  0  0  0
    7.1041   55.5715   22.1996 N   0  0  0  0  0  0
    6.2331   54.6617   22.5591 C   0  0  0  0  0  0
    5.5040   54.2212   21.4639 N   0  0  0  0  0  0
    4.4600   53.2680   21.4223 C   0  0  0  0  0  0
    4.5422   52.1734   20.5515 C   0  0  0  0  0  0
    3.4980   51.2520   20.4819 C   0  0  0  0  0  0
    2.3720   51.4059   21.2885 C   0  0  0  0  0  0
    2.2826   52.4937   22.1555 C   0  0  0  0  0  0
    3.3159   53.4283   22.2174 C   0  0  0  0  0  0
    3.1814   54.4966   23.0330 F   0  0  0  0  0  0
    6.1302   54.1123   23.9771 C   0  0  0  0  0  0
    5.8274   55.1524   24.9059 O   0  0  0  0  0  0
    5.3357   54.7141   26.1131 C   0  0  0  0  0  0
    3.9682   54.4907   26.2654 C   0  0  0  0  0  0
    3.4608   54.0603   27.4890 C   0  0  0  0  0  0
    4.3185   53.8672   28.5835 C   0  0  0  0  0  0
    5.6833   54.1156   28.4289 C   0  0  0  0  0  0
    6.1940   54.5260   27.1976 C   0  0  0  0  0  0
    3.9016   53.4464   29.8330 O   0  0  0  0  0  0
    2.5428   53.0576   30.0141 C   0  0  0  0  0  0
    5.4158   58.2951   16.8455 C   0  0  0  0  0  0
    0.9118   59.4748   15.0830 C   0  0  0  0  0  0
   -3.4904   56.1847   16.4813 H   0  0  0  0  0  0
   -2.6008   57.6968   16.6430 H   0  0  0  0  0  0
   -2.0524   56.2559   17.4995 H   0  0  0  0  0  0
   -1.5333   55.1443   15.2741 H   0  0  0  0  0  0
   -2.1215   56.5645   14.4426 H   0  0  0  0  0  0
    4.4807   56.6949   18.8817 H   0  0  0  0  0  0
    3.5062   55.2965   19.3342 H   0  0  0  0  0  0
    5.4001   52.0335   19.9071 H   0  0  0  0  0  0
    3.5583   50.4254   19.7872 H   0  0  0  0  0  0
    1.5646   50.6908   21.2294 H   0  0  0  0  0  0
    1.4040   52.6245   22.7692 H   0  0  0  0  0  0
    5.4111   53.2968   24.0452 H   0  0  0  0  0  0
    7.0986   53.6940   24.2561 H   0  0  0  0  0  0
    3.2988   54.6511   25.4356 H   0  0  0  0  0  0
    2.3987   53.8893   27.5702 H   0  0  0  0  0  0
    6.3469   54.0036   29.2773 H   0  0  0  0  0  0
    7.2509   54.7142   27.0933 H   0  0  0  0  0  0
    2.4044   52.6877   31.0301 H   0  0  0  0  0  0
    1.8639   53.9001   29.8729 H   0  0  0  0  0  0
    2.2610   52.2524   29.3330 H   0  0  0  0  0  0
    5.5050   58.8138   17.8009 H   0  0  0  0  0  0
    6.0206   57.3905   16.9089 H   0  0  0  0  0  0
    5.8910   58.9368   16.1025 H   0  0  0  0  0  0
    0.5853   59.1404   14.0981 H   0  0  0  0  0  0
    0.0222   59.5460   15.7091 H   0  0  0  0  0  0
    1.2961   60.4896   14.9693 H   0  0  0  0  0  0
  1  2  1  0  0  0
  1 40  1  0  0  0
  1 41  1  0  0  0
  1 42  1  0  0  0
  2  3  1  0  0  0
  2 43  1  0  0  0
  2 44  1  0  0  0
  3  4  1  0  0  0
  4  5  2  0  0  0
  4  6  1  0  0  0
  6 11  1  0  0  0
  6  7  2  0  0  0
  7  8  1  0  0  0
  7 39  1  0  0  0
  8  9  1  0  0  0
  8 10  1  0  0  0
 10 11  2  0  0  0
 10 38  1  0  0  0
 11 12  1  0  0  0
 12 13  2  0  0  0
 12 14  1  0  0  0
 14 15  1  0  0  0
 14 45  1  0  0  0
 14 46  1  0  0  0
 15 16  1  0  0  0
 16 20  1  0  0  0
 16 17  2  0  0  0
 17 18  1  0  0  0
 18 19  2  0  0  0
 19 20  1  0  0  0
 19 28  1  0  0  0
 20 21  1  0  0  0
 21 26  2  0  0  0
 21 22  1  0  0  0
 22 23  2  0  0  0
 22 47  1  0  0  0
 23 24  1  0  0  0
 23 48  1  0  0  0
 24 25  2  0  0  0
 24 49  1  0  0  0
 25 26  1  0  0  0
 25 50  1  0  0  0
 26 27  1  0  0  0
 28 29  1  0  0  0
 28 51  1  0  0  0
 28 52  1  0  0  0
 29 30  1  0  0  0
 30 35  2  0  0  0
 30 31  1  0  0  0
 31 32  2  0  0  0
 31 53  1  0  0  0
 32 33  1  0  0  0
 32 54  1  0  0  0
 33 34  2  0  0  0
 33 36  1  0  0  0
 34 35  1  0  0  0
 34 55  1  0  0  0
 35 56  1  0  0  0
 36 37  1  0  0  0
 37 57  1  0  0  0
 37 58  1  0  0  0
 37 59  1  0  0  0
 38 60  1  0  0  0
 38 61  1  0  0  0
 38 62  1  0  0  0
 39 63  1  0  0  0
 39 64  1  0  0  0
 39 65  1  0  0  0
M  END
> <i_i_glide_confnum>
161

> <i_i_glide_lignum>
5775

> <i_i_glide_posenum>
162

> <i_i_glide_rotatable_bonds>
12

> <i_m_Source_File_Index>
5053

> <b_m_subgroup_collapsed>
0

> <r_i_docking_score>
-4.15519

> <r_i_glide_ecoul>
-3.62677

> <r_i_glide_eff_state_penalty>
0

> <r_i_glide_einternal>
15.3119

> <r_i_glide_emodel>
-56.5296

> <r_i_glide_energy>
-56.0004

> <r_i_glide_erotb>
0.712334

> <r_i_glide_esite>
-0.0826186

> <r_i_glide_evdw>
-52.3736

> <r_i_glide_gscore>
-4.15519

> <r_i_glide_hbond>
-0.193295

> <r_i_glide_ligand_efficiency>
-0.109347

> <r_i_glide_ligand_efficiency_ln>
-0.895982

> <r_i_glide_ligand_efficiency_sa>
-0.367622

> <r_i_glide_lipo>
-2.49559

> <r_i_glide_metal>
0

> <r_i_glide_rewards>
1.06667

> <s_i_glide_gridfile>
wee1_glide-grid

> <s_m_Source_File>
wee1_decoys_glide_SP.sdf

> <s_m_Source_Path>
/Users/zhangxujun/Desktop

> <s_m_entry_id>
5328

> <s_m_entry_name>
wee1_decoys_glide_SP.5053

> <s_m_subgroup_title>
wee1_decoys_glide_SP

> <s_m_subgroupid>
wee1_decoys_glide_SP


$$$$
