ZINC10549192_4924
                    3D
 Schrodinger Suite 2024-2.
 55 58  0  0  1  0            999 V2000
   11.2989   51.1003   16.3003 C   0  0  0  0  0  0
   10.0363   51.9417   16.3878 C   0  0  0  0  0  0
    8.7839   51.3377   16.2544 C   0  0  0  0  0  0
    7.6195   52.1026   16.3384 C   0  0  0  0  0  0
    7.6991   53.4806   16.5410 C   0  0  0  0  0  0
    8.9532   54.0901   16.6603 C   0  0  0  0  0  0
   10.1161   53.3236   16.5900 C   0  0  0  0  0  0
   11.3201   53.9293   16.7134 F   0  0  0  0  0  0
    6.1898   54.4415   16.6640 S   0  0  0  0  0  0
    5.2378   53.8699   15.7067 O   0  0  0  0  0  0
    6.5369   55.8659   16.6224 O   0  0  0  0  0  0
    5.5287   54.0821   18.2740 N   0  0  0  0  0  0
    6.0551   54.5553   19.4860 C   0  0  0  0  0  0
    7.2375   55.3002   19.5548 C   0  0  0  0  0  0
    7.7566   55.6966   20.7803 C   0  0  0  0  0  0
    7.0944   55.3591   21.9556 C   0  0  0  0  0  0
    5.9062   54.6046   21.9287 C   0  0  0  0  0  0
    5.3955   54.2212   20.6755 C   0  0  0  0  0  0
    5.1961   54.2080   23.2084 C   0  0  0  0  0  0
    4.0762   53.6969   23.1703 O   0  0  0  0  0  0
    5.8825   54.4655   24.3455 N   0  0  0  0  0  0
    5.5096   54.2878   25.6867 C   0  0  0  0  0  0
    6.5440   54.3194   26.6230 C   0  0  0  0  0  0
    6.2888   54.0961   27.9727 C   0  0  0  0  0  0
    4.9849   53.8746   28.4059 C   0  0  0  0  0  0
    3.9279   53.8742   27.4838 C   0  0  0  0  0  0
    4.1940   54.0851   26.1275 C   0  0  0  0  0  0
    2.5985   53.5839   27.8197 N   0  0  0  0  0  0
    2.0186   53.5385   29.0356 C   0  0  0  0  0  0
    2.5085   53.9715   30.0817 O   0  0  0  0  0  0
    0.7571   52.8468   29.0351 C   0  0  0  0  0  0
   -0.0794   52.4769   30.0833 C   0  0  0  0  0  0
   -1.0891   51.6967   29.5246 C   0  0  0  0  0  0
   -0.8871   51.6956   28.1578 C   0  0  0  0  0  0
    0.2373   52.3895   27.8582 O   0  0  0  0  0  0
   12.0135   51.5649   15.6218 H   0  0  0  0  0  0
   11.7710   51.0276   17.2812 H   0  0  0  0  0  0
   11.0972   50.0960   15.9254 H   0  0  0  0  0  0
    8.7057   50.2736   16.0914 H   0  0  0  0  0  0
    6.6532   51.6289   16.2481 H   0  0  0  0  0  0
    9.0386   55.1576   16.8037 H   0  0  0  0  0  0
    4.7865   53.3986   18.3107 H   0  0  0  0  0  0
    7.7877   55.5717   18.6706 H   0  0  0  0  0  0
    8.6842   56.2495   20.8188 H   0  0  0  0  0  0
    7.5321   55.6975   22.8823 H   0  0  0  0  0  0
    4.4852   53.6390   20.6215 H   0  0  0  0  0  0
    6.8221   54.8017   24.2107 H   0  0  0  0  0  0
    7.5574   54.4958   26.3074 H   0  0  0  0  0  0
    7.1020   54.0972   28.6861 H   0  0  0  0  0  0
    4.8201   53.6795   29.4534 H   0  0  0  0  0  0
    3.3735   54.0718   25.4270 H   0  0  0  0  0  0
    2.0208   53.2695   27.0540 H   0  0  0  0  0  0
    0.0640   52.6765   31.1363 H   0  0  0  0  0  0
   -1.8720   51.1765   30.0592 H   0  0  0  0  0  0
   -1.3937   51.2107   27.3348 H   0  0  0  0  0  0
  1  2  1  0  0  0
  1 36  1  0  0  0
  1 37  1  0  0  0
  1 38  1  0  0  0
  2  7  2  0  0  0
  2  3  1  0  0  0
  3  4  2  0  0  0
  3 39  1  0  0  0
  4  5  1  0  0  0
  4 40  1  0  0  0
  5  6  2  0  0  0
  5  9  1  0  0  0
  6  7  1  0  0  0
  6 41  1  0  0  0
  7  8  1  0  0  0
  9 10  2  0  0  0
  9 11  2  0  0  0
  9 12  1  0  0  0
 12 13  1  0  0  0
 12 42  1  0  0  0
 13 18  2  0  0  0
 13 14  1  0  0  0
 14 15  2  0  0  0
 14 43  1  0  0  0
 15 16  1  0  0  0
 15 44  1  0  0  0
 16 17  2  0  0  0
 16 45  1  0  0  0
 17 18  1  0  0  0
 17 19  1  0  0  0
 18 46  1  0  0  0
 19 20  2  0  0  0
 19 21  1  0  0  0
 21 22  1  0  0  0
 21 47  1  0  0  0
 22 27  2  0  0  0
 22 23  1  0  0  0
 23 24  2  0  0  0
 23 48  1  0  0  0
 24 25  1  0  0  0
 24 49  1  0  0  0
 25 26  2  0  0  0
 25 50  1  0  0  0
 26 27  1  0  0  0
 26 28  1  0  0  0
 27 51  1  0  0  0
 28 29  1  0  0  0
 28 52  1  0  0  0
 29 30  2  0  0  0
 29 31  1  0  0  0
 31 35  1  0  0  0
 31 32  2  0  0  0
 32 33  1  0  0  0
 32 53  1  0  0  0
 33 34  2  0  0  0
 33 54  1  0  0  0
 34 35  1  0  0  0
 34 55  1  0  0  0
M  END
> <i_i_glide_confnum>
56

> <i_i_glide_lignum>
4925

> <i_i_glide_posenum>
106

> <i_i_glide_rotatable_bonds>
9

> <i_m_Source_File_Index>
3450

> <b_m_subgroup_collapsed>
0

> <r_i_docking_score>
-5.91493

> <r_i_glide_ecoul>
-5.06026

> <r_i_glide_eff_state_penalty>
0

> <r_i_glide_einternal>
5.51408

> <r_i_glide_emodel>
-71.6136

> <r_i_glide_energy>
-53.0589

> <r_i_glide_erotb>
0.752815

> <r_i_glide_esite>
-0.0304489

> <r_i_glide_evdw>
-47.9987

> <r_i_glide_gscore>
-5.91493

> <r_i_glide_hbond>
-0.32

> <r_i_glide_ligand_efficiency>
-0.168998

> <r_i_glide_ligand_efficiency_ln>
-1.29846

> <r_i_glide_ligand_efficiency_sa>
-0.552803

> <r_i_glide_lipo>
-2.68059

> <r_i_glide_metal>
0

> <r_i_glide_rewards>
-0.477731

> <s_i_glide_gridfile>
wee1_glide-grid

> <s_m_Source_File>
wee1_decoys_glide_SP.sdf

> <s_m_Source_Path>
/Users/zhangxujun/Desktop

> <s_m_entry_id>
3725

> <s_m_entry_name>
wee1_decoys_glide_SP.3450

> <s_m_subgroup_title>
wee1_decoys_glide_SP

> <s_m_subgroupid>
wee1_decoys_glide_SP


$$$$
