ZINC30826268_3423
                    3D
 Schrodinger Suite 2024-2.
 52 55  0  0  1  0            999 V2000
    2.3046   49.8020   20.4144 C   0  0  0  0  0  0
    2.4868   51.0274   21.3043 C   0  0  0  0  0  0
    3.4348   51.9858   20.9406 C   0  0  0  0  0  0
    3.6448   53.1077   21.7395 C   0  0  0  0  0  0
    2.8587   53.2968   22.8831 C   0  0  0  0  0  0
    1.9450   52.3200   23.3106 C   0  0  0  0  0  0
    1.7481   51.1889   22.4903 C   0  0  0  0  0  0
    0.8519   50.2107   22.8403 O   0  0  0  0  0  0
    1.3432   52.4843   24.6885 C   0  0  0  0  0  0
    1.5359   53.5014   25.5092 N   0  0  0  0  0  0
    1.1034   53.0540   26.7262 C   0  0  0  0  0  0
    1.0987   53.6575   27.9998 C   0  0  0  0  0  0
    0.5048   52.9609   29.0714 C   0  0  0  0  0  0
   -0.0728   51.6985   28.8476 C   0  0  0  0  0  0
   -0.0647   51.0817   27.5950 C   0  0  0  0  0  0
    0.5357   51.7888   26.5582 C   0  0  0  0  0  0
    0.7023   51.4189   25.2597 O   0  0  0  0  0  0
    0.4318   53.5425   30.4959 C   0  0  0  0  0  0
    1.1365   52.6510   31.5327 C   0  0  0  0  0  0
    0.8818   55.0070   30.6733 C   0  0  0  0  0  0
    4.6673   53.9992   21.3660 N   0  0  0  0  0  0
    5.6373   54.5898   22.1282 C   0  0  0  0  0  0
    6.7043   55.5931   21.3079 S   0  0  0  0  0  0
    5.6331   54.2713   23.4697 N   0  0  0  0  0  0
    6.2658   54.8107   24.5438 C   0  0  0  0  0  0
    7.1044   55.6999   24.5082 O   0  0  0  0  0  0
    5.8469   54.2856   25.8169 C   0  0  0  0  0  0
    4.6406   53.6966   26.1543 C   0  0  0  0  0  0
    4.5250   53.3567   27.5043 C   0  0  0  0  0  0
    5.6331   53.7343   28.2305 C   0  0  0  0  0  0
    6.8211   54.4958   27.2401 S   0  0  0  0  0  0
    2.9495   49.8269   19.5336 H   0  0  0  0  0  0
    2.5327   48.8913   20.9698 H   0  0  0  0  0  0
    1.2719   49.7324   20.0708 H   0  0  0  0  0  0
    4.0236   51.8425   20.0430 H   0  0  0  0  0  0
    3.0029   54.1885   23.4753 H   0  0  0  0  0  0
    0.8585   49.4765   22.2241 H   0  0  0  0  0  0
    1.5272   54.6391   28.1309 H   0  0  0  0  0  0
   -0.5449   51.1729   29.6673 H   0  0  0  0  0  0
   -0.4934   50.0999   27.4384 H   0  0  0  0  0  0
   -0.6269   53.5256   30.7472 H   0  0  0  0  0  0
    0.6322   51.6966   31.6232 H   0  0  0  0  0  0
    1.1043   53.0904   32.5284 H   0  0  0  0  0  0
    2.1796   52.4704   31.2759 H   0  0  0  0  0  0
    0.3054   55.6953   30.0659 H   0  0  0  0  0  0
    0.7188   55.3280   31.7028 H   0  0  0  0  0  0
    1.9388   55.1467   30.4488 H   0  0  0  0  0  0
    4.7252   54.1804   20.3737 H   0  0  0  0  0  0
    5.0225   53.5045   23.7052 H   0  0  0  0  0  0
    3.8973   53.4652   25.4211 H   0  0  0  0  0  0
    3.6758   52.8447   27.9304 H   0  0  0  0  0  0
    5.8131   53.6003   29.2816 H   0  0  0  0  0  0
  1  2  1  0  0  0
  1 32  1  0  0  0
  1 33  1  0  0  0
  1 34  1  0  0  0
  2  7  2  0  0  0
  2  3  1  0  0  0
  3  4  2  0  0  0
  3 35  1  0  0  0
  4  5  1  0  0  0
  4 21  1  0  0  0
  5  6  2  0  0  0
  5 36  1  0  0  0
  6  7  1  0  0  0
  6  9  1  0  0  0
  7  8  1  0  0  0
  8 37  1  0  0  0
  9 17  1  0  0  0
  9 10  2  0  0  0
 10 11  1  0  0  0
 11 16  2  0  0  0
 11 12  1  0  0  0
 12 13  2  0  0  0
 12 38  1  0  0  0
 13 14  1  0  0  0
 13 18  1  0  0  0
 14 15  2  0  0  0
 14 39  1  0  0  0
 15 16  1  0  0  0
 15 40  1  0  0  0
 16 17  1  0  0  0
 18 19  1  0  0  0
 18 20  1  0  0  0
 18 41  1  0  0  0
 19 42  1  0  0  0
 19 43  1  0  0  0
 19 44  1  0  0  0
 20 45  1  0  0  0
 20 46  1  0  0  0
 20 47  1  0  0  0
 21 22  1  0  0  0
 21 48  1  0  0  0
 22 23  2  0  0  0
 22 24  1  0  0  0
 24 25  1  0  0  0
 24 49  1  0  0  0
 25 26  2  0  0  0
 25 27  1  0  0  0
 27 31  1  0  0  0
 27 28  2  0  0  0
 28 29  1  0  0  0
 28 50  1  0  0  0
 29 30  2  0  0  0
 29 51  1  0  0  0
 30 31  1  0  0  0
 30 52  1  0  0  0
M  END
> <i_i_glide_confnum>
20

> <i_i_glide_lignum>
3424

> <i_i_glide_posenum>
353

> <i_i_glide_rotatable_bonds>
8

> <i_m_Source_File_Index>
1161

> <b_m_subgroup_collapsed>
0

> <r_i_docking_score>
-6.27305

> <r_i_glide_ecoul>
-2.34993

> <r_i_glide_eff_state_penalty>
0

> <r_i_glide_einternal>
7.27022

> <r_i_glide_emodel>
-67.6617

> <r_i_glide_energy>
-51.3605

> <r_i_glide_erotb>
0.491838

> <r_i_glide_esite>
0

> <r_i_glide_evdw>
-49.0106

> <r_i_glide_gscore>
-6.27305

> <r_i_glide_hbond>
-0.139295

> <r_i_glide_ligand_efficiency>
-0.202357

> <r_i_glide_ligand_efficiency_ln>
-1.41477

> <r_i_glide_ligand_efficiency_sa>
-0.635679

> <r_i_glide_lipo>
-2.70113

> <r_i_glide_metal>
0

> <r_i_glide_rewards>
-1.12144

> <s_i_glide_gridfile>
wee1_glide-grid

> <s_m_Source_File>
wee1_decoys_glide_SP.sdf

> <s_m_Source_Path>
/Users/zhangxujun/Desktop

> <s_m_entry_id>
1436

> <s_m_entry_name>
wee1_decoys_glide_SP.1161

> <s_m_subgroup_title>
wee1_decoys_glide_SP

> <s_m_subgroupid>
wee1_decoys_glide_SP


$$$$
