ZINC12134975_4822
                    3D
 Schrodinger Suite 2024-2.
 68 72  0  0  1  0            999 V2000
    4.9037   53.0852   19.5790 C   0  0  0  0  0  0
    5.3554   54.4068   20.2304 C   0  0  1  0  0  0
    4.6616   55.1828   19.9005 H   0  0  0  0  0  0
    5.2526   54.3417   21.7704 C   0  0  0  0  0  0
    4.0047   54.1367   22.3635 C   0  0  0  0  0  0
    3.8747   54.0963   23.7513 C   0  0  0  0  0  0
    4.9844   54.2761   24.5952 C   0  0  0  0  0  0
    6.2299   54.4869   23.9864 C   0  0  0  0  0  0
    6.3641   54.5032   22.6054 C   0  0  0  0  0  0
    4.8548   54.2510   26.0934 C   0  0  0  0  0  0
    5.9824   54.0870   26.9188 C   0  0  0  0  0  0
    5.8699   54.0961   28.3052 C   0  0  0  0  0  0
    4.6235   54.2617   28.8959 C   0  0  0  0  0  0
    3.4874   54.4056   28.1088 C   0  0  0  0  0  0
    3.6056   54.3951   26.7217 C   0  0  0  0  0  0
    6.6661   54.7806   19.6774 N   0  0  0  0  0  0
    7.3129   55.9434   19.8559 C   0  0  0  0  0  0
    6.8308   56.8965   20.4712 O   0  0  0  0  0  0
    8.7365   56.0164   19.3075 C   0  0  0  0  0  0
    8.8235   56.9132   17.7302 S   0  0  0  0  0  0
    9.0184   55.5011   16.6933 C   0  0  0  0  0  0
    8.0119   54.8278   16.1947 N   0  0  0  0  0  0
    8.5379   53.7894   15.4367 N   0  0  0  0  0  0
    9.8454   53.8913   15.4855 C   0  0  0  0  0  0
   10.2220   54.9310   16.3173 N   0  0  0  0  0  0
   11.5248   55.3713   16.6271 C   0  0  0  0  0  0
   12.4042   54.5038   17.2822 C   0  0  0  0  0  0
   13.6677   54.9533   17.6563 C   0  0  0  0  0  0
   14.0567   56.2554   17.3462 C   0  0  0  0  0  0
   13.1902   57.1169   16.6748 C   0  0  0  0  0  0
   11.9184   56.6781   16.3167 C   0  0  0  0  0  0
   10.8121   52.9709   14.7495 C   0  0  0  0  0  0
   10.4073   50.8603   16.1920 C   0  0  0  0  0  0
   10.4357   49.3556   15.9187 C   0  0  0  0  0  0
   10.6407   49.1688   14.4111 C   0  0  0  0  0  0
   11.0136   50.5419   13.8563 C   0  0  0  0  0  0
    3.8642   52.8559   19.8144 H   0  0  0  0  0  0
    4.9735   53.1257   18.4919 H   0  0  0  0  0  0
    5.5094   52.2412   19.9113 H   0  0  0  0  0  0
    3.1247   54.0168   21.7482 H   0  0  0  0  0  0
    2.8888   53.9123   24.1491 H   0  0  0  0  0  0
    7.1253   54.6514   24.5614 H   0  0  0  0  0  0
    7.3529   54.6549   22.2033 H   0  0  0  0  0  0
    6.9669   53.9331   26.5082 H   0  0  0  0  0  0
    6.7502   53.9816   28.9211 H   0  0  0  0  0  0
    4.5392   54.2758   29.9721 H   0  0  0  0  0  0
    2.5181   54.5297   28.5695 H   0  0  0  0  0  0
    2.7009   54.5119   26.1495 H   0  0  0  0  0  0
    7.0650   54.1218   19.0253 H   0  0  0  0  0  0
    9.1775   55.0227   19.2240 H   0  0  0  0  0  0
    9.3556   56.5364   20.0354 H   0  0  0  0  0  0
   12.0984   53.4985   17.5407 H   0  0  0  0  0  0
   14.3424   54.2967   18.1840 H   0  0  0  0  0  0
   15.0400   56.6013   17.6298 H   0  0  0  0  0  0
   13.4994   58.1243   16.4410 H   0  0  0  0  0  0
   11.2396   57.3538   15.8121 H   0  0  0  0  0  0
   11.8194   52.9256   15.1672 H   0  0  0  0  0  0
   10.9115   53.2220   13.6910 H   0  0  0  0  0  0
    9.5784   51.2071   16.8149 H   0  0  0  0  0  0
   11.3473   51.2005   16.6322 H   0  0  0  0  0  0
    9.5042   48.8968   16.2511 H   0  0  0  0  0  0
   11.2480   48.8961   16.4842 H   0  0  0  0  0  0
   11.4189   48.4360   14.1879 H   0  0  0  0  0  0
    9.7244   48.8096   13.9359 H   0  0  0  0  0  0
   12.0831   50.7505   13.9335 H   0  0  0  0  0  0
   10.7013   50.7261   12.8255 H   0  0  0  0  0  0
   10.2855   51.5186   14.8019 N   0  3  0  0  0  0
    9.3063   51.5439   14.5433 H   0  0  0  0  0  0
  1  2  1  0  0  0
  1 37  1  0  0  0
  1 38  1  0  0  0
  1 39  1  0  0  0
  2  3  1  0  0  0
  2  4  1  0  0  0
  2 16  1  0  0  0
  4  9  2  0  0  0
  4  5  1  0  0  0
  5  6  2  0  0  0
  5 40  1  0  0  0
  6  7  1  0  0  0
  6 41  1  0  0  0
  7  8  2  0  0  0
  7 10  1  0  0  0
  8  9  1  0  0  0
  8 42  1  0  0  0
  9 43  1  0  0  0
 10 15  2  0  0  0
 10 11  1  0  0  0
 11 12  2  0  0  0
 11 44  1  0  0  0
 12 13  1  0  0  0
 12 45  1  0  0  0
 13 14  2  0  0  0
 13 46  1  0  0  0
 14 15  1  0  0  0
 14 47  1  0  0  0
 15 48  1  0  0  0
 16 17  1  0  0  0
 16 49  1  0  0  0
 17 18  2  0  0  0
 17 19  1  0  0  0
 19 20  1  0  0  0
 19 50  1  0  0  0
 19 51  1  0  0  0
 20 21  1  0  0  0
 21 25  1  0  0  0
 21 22  2  0  0  0
 22 23  1  0  0  0
 23 24  2  0  0  0
 24 25  1  0  0  0
 24 32  1  0  0  0
 25 26  1  0  0  0
 26 31  2  0  0  0
 26 27  1  0  0  0
 27 28  2  0  0  0
 27 52  1  0  0  0
 28 29  1  0  0  0
 28 53  1  0  0  0
 29 30  2  0  0  0
 29 54  1  0  0  0
 30 31  1  0  0  0
 30 55  1  0  0  0
 31 56  1  0  0  0
 32 57  1  0  0  0
 32 58  1  0  0  0
 32 67  1  0  0  0
 33 34  1  0  0  0
 33 59  1  0  0  0
 33 60  1  0  0  0
 33 67  1  0  0  0
 34 35  1  0  0  0
 34 61  1  0  0  0
 34 62  1  0  0  0
 35 36  1  0  0  0
 35 63  1  0  0  0
 35 64  1  0  0  0
 36 65  1  0  0  0
 36 66  1  0  0  0
 36 67  1  0  0  0
 67 68  1  0  0  0
M  CHG  1  67   1
M  END
> <i_i_glide_confnum>
310

> <i_i_glide_lignum>
4823

> <i_i_glide_posenum>
300

> <i_i_glide_rotatable_bonds>
10

> <i_m_Source_File_Index>
4969

> <b_m_subgroup_collapsed>
0

> <r_i_docking_score>
-6.38745

> <r_i_glide_ecoul>
-7.64465

> <r_i_glide_eff_state_penalty>
0

> <r_i_glide_einternal>
3.34441

> <r_i_glide_emodel>
-73.6038

> <r_i_glide_energy>
-51.7039

> <r_i_glide_erotb>
0.820684

> <r_i_glide_esite>
0

> <r_i_glide_evdw>
-44.0593

> <r_i_glide_gscore>
-6.38745

> <r_i_glide_hbond>
-0.32

> <r_i_glide_ligand_efficiency>
-0.177429

> <r_i_glide_ligand_efficiency_ln>
-1.39357

> <r_i_glide_ligand_efficiency_sa>
-0.585858

> <r_i_glide_lipo>
-3.25333

> <r_i_glide_metal>
0

> <r_i_glide_rewards>
-0.285144

> <s_i_glide_gridfile>
wee1_glide-grid

> <s_m_Source_File>
wee1_decoys_glide_SP.sdf

> <s_m_Source_Path>
/Users/zhangxujun/Desktop

> <s_m_entry_id>
5244

> <s_m_entry_name>
wee1_decoys_glide_SP.4969

> <s_m_subgroup_title>
wee1_decoys_glide_SP

> <s_m_subgroupid>
wee1_decoys_glide_SP


$$$$
