ZINC11121905_4015
                    3D
 Schrodinger Suite 2024-2.
 59 62  0  0  1  0            999 V2000
    4.1939   54.4904   28.2097 C   0  0  0  0  0  0
    4.3295   54.3532   26.7041 C   0  0  0  0  0  0
    5.5704   54.5005   26.0902 C   0  0  0  0  0  0
    5.7036   54.3783   24.7043 C   0  0  0  0  0  0
    4.5718   54.0969   23.9035 C   0  0  0  0  0  0
    3.3089   53.9851   24.5317 C   0  0  0  0  0  0
    3.2065   54.0979   25.9215 C   0  0  0  0  0  0
    2.0191   53.8002   23.7405 C   0  0  0  0  0  0
    4.7018   53.9043   22.4135 C   0  0  0  0  0  0
    4.1713   52.8421   21.6744 C   0  0  0  0  0  0
    4.5586   53.0194   19.9912 S   0  0  0  0  0  0
    5.3951   54.4743   20.4034 C   0  0  0  0  0  0
    5.3706   54.7791   21.6811 N   0  0  0  0  0  0
    6.0331   55.1625   19.3809 N   0  0  0  0  0  0
    6.6651   56.3539   19.4833 C   0  0  0  0  0  0
    6.7039   57.0212   20.5180 O   0  0  0  0  0  0
    7.3277   56.9354   18.2144 C   0  0  0  0  0  0
    7.5072   55.9271   17.0439 C   0  0  0  0  0  0
    8.2091   56.6217   15.8625 C   0  0  0  0  0  0
    7.5221   57.8813   15.4876 N   0  0  0  0  0  0
    7.4178   58.8910   16.5696 C   0  0  0  0  0  0
    6.7203   58.3148   17.8245 C   0  0  0  0  0  0
    6.3174   57.8727   14.1813 S   0  0  0  0  0  0
    6.2682   59.2281   13.6204 O   0  0  0  0  0  0
    6.5837   56.7121   13.3234 O   0  0  0  0  0  0
    4.7334   57.5868   14.9662 C   0  0  0  0  0  0
    3.9433   58.6771   15.3361 C   0  0  0  0  0  0
    2.7045   58.4609   15.9305 C   0  0  0  0  0  0
    2.2617   57.1594   16.1613 C   0  0  0  0  0  0
    3.0559   56.0703   15.8051 C   0  0  0  0  0  0
    4.2922   56.2833   15.2015 C   0  0  0  0  0  0
    0.7142   56.8944   16.8804 Cl  0  0  0  0  0  0
    7.1007   54.5163   24.1160 C   0  0  0  0  0  0
    5.0972   54.8930   28.6694 H   0  0  0  0  0  0
    3.9678   53.5240   28.6600 H   0  0  0  0  0  0
    3.3780   55.1715   28.4511 H   0  0  0  0  0  0
    6.4401   54.6976   26.7000 H   0  0  0  0  0  0
    2.2413   54.0051   26.3985 H   0  0  0  0  0  0
    2.0402   54.3794   22.8164 H   0  0  0  0  0  0
    1.8616   52.7502   23.4923 H   0  0  0  0  0  0
    1.1527   54.1566   24.2975 H   0  0  0  0  0  0
    3.5955   51.9986   22.0218 H   0  0  0  0  0  0
    5.9971   54.7320   18.4701 H   0  0  0  0  0  0
    8.3303   57.1621   18.5826 H   0  0  0  0  0  0
    8.1407   55.0858   17.3340 H   0  0  0  0  0  0
    6.5461   55.5752   16.6681 H   0  0  0  0  0  0
    9.2312   56.8739   16.1446 H   0  0  0  0  0  0
    8.2763   55.9681   14.9917 H   0  0  0  0  0  0
    8.4274   59.2169   16.8210 H   0  0  0  0  0  0
    6.8857   59.7670   16.1923 H   0  0  0  0  0  0
    5.6678   58.2139   17.5662 H   0  0  0  0  0  0
    6.8427   59.0600   18.6144 H   0  0  0  0  0  0
    4.2774   59.6906   15.1625 H   0  0  0  0  0  0
    2.0928   59.3081   16.2004 H   0  0  0  0  0  0
    2.7095   55.0636   15.9839 H   0  0  0  0  0  0
    4.8976   55.4376   14.9103 H   0  0  0  0  0  0
    7.1906   55.4512   23.5618 H   0  0  0  0  0  0
    7.8729   54.4969   24.8809 H   0  0  0  0  0  0
    7.3127   53.6948   23.4308 H   0  0  0  0  0  0
  1  2  1  0  0  0
  1 34  1  0  0  0
  1 35  1  0  0  0
  1 36  1  0  0  0
  2  7  2  0  0  0
  2  3  1  0  0  0
  3  4  2  0  0  0
  3 37  1  0  0  0
  4  5  1  0  0  0
  4 33  1  0  0  0
  5  6  2  0  0  0
  5  9  1  0  0  0
  6  7  1  0  0  0
  6  8  1  0  0  0
  7 38  1  0  0  0
  8 39  1  0  0  0
  8 40  1  0  0  0
  8 41  1  0  0  0
  9 13  1  0  0  0
  9 10  2  0  0  0
 10 11  1  0  0  0
 10 42  1  0  0  0
 11 12  1  0  0  0
 12 13  2  0  0  0
 12 14  1  0  0  0
 14 15  1  0  0  0
 14 43  1  0  0  0
 15 16  2  0  0  0
 15 17  1  0  0  0
 17 22  1  0  0  0
 17 18  1  0  0  0
 17 44  1  0  0  0
 18 19  1  0  0  0
 18 45  1  0  0  0
 18 46  1  0  0  0
 19 20  1  0  0  0
 19 47  1  0  0  0
 19 48  1  0  0  0
 20 21  1  0  0  0
 20 23  1  0  0  0
 21 22  1  0  0  0
 21 49  1  0  0  0
 21 50  1  0  0  0
 22 51  1  0  0  0
 22 52  1  0  0  0
 23 24  2  0  0  0
 23 25  2  0  0  0
 23 26  1  0  0  0
 26 31  2  0  0  0
 26 27  1  0  0  0
 27 28  2  0  0  0
 27 53  1  0  0  0
 28 29  1  0  0  0
 28 54  1  0  0  0
 29 30  2  0  0  0
 29 32  1  0  0  0
 30 31  1  0  0  0
 30 55  1  0  0  0
 31 56  1  0  0  0
 33 57  1  0  0  0
 33 58  1  0  0  0
 33 59  1  0  0  0
M  END
> <i_i_glide_confnum>
142

> <i_i_glide_lignum>
4016

> <i_i_glide_posenum>
308

> <i_i_glide_rotatable_bonds>
6

> <i_m_Source_File_Index>
1956

> <b_m_subgroup_collapsed>
0

> <r_i_docking_score>
-5.26142

> <r_i_glide_ecoul>
-6.58216

> <r_i_glide_eff_state_penalty>
0

> <r_i_glide_einternal>
7.60442

> <r_i_glide_emodel>
-55.4312

> <r_i_glide_energy>
-44.4752

> <r_i_glide_erotb>
0.482775

> <r_i_glide_esite>
-0.011918

> <r_i_glide_evdw>
-37.8931

> <r_i_glide_gscore>
-5.26142

> <r_i_glide_hbond>
-0.32

> <r_i_glide_ligand_efficiency>
-0.159437

> <r_i_glide_ligand_efficiency_ln>
-1.17011

> <r_i_glide_ligand_efficiency_sa>
-0.5114

> <r_i_glide_lipo>
-2.58024

> <r_i_glide_metal>
0

> <r_i_glide_rewards>
0.0499347

> <s_i_glide_gridfile>
wee1_glide-grid

> <s_m_Source_File>
wee1_decoys_glide_SP.sdf

> <s_m_Source_Path>
/Users/zhangxujun/Desktop

> <s_m_entry_id>
2231

> <s_m_entry_name>
wee1_decoys_glide_SP.1956

> <s_m_subgroup_title>
wee1_decoys_glide_SP

> <s_m_subgroupid>
wee1_decoys_glide_SP


$$$$
