ZINC65481335_6217
                    3D
 Schrodinger Suite 2024-2.
 50 51  0  0  1  0            999 V2000
    1.2074   55.1939   29.3206 C   0  0  0  0  0  0
    2.4222   54.9796   28.4120 C   0  0  0  0  0  0
    2.2183   53.7670   27.4634 N   0  3  0  0  0  0
    3.2524   53.7610   26.3027 C   0  0  0  0  0  0
    4.6998   53.5600   26.7866 C   0  0  0  0  0  0
    1.9469   52.3669   28.0997 C   0  0  2  0  0  0
    0.4160   52.0412   27.9962 C   0  0  0  0  0  0
    0.0759   50.8968   27.1456 N   0  0  0  0  0  0
    0.3040   50.8475   25.8242 C   0  0  0  0  0  0
    0.7039   51.8230   25.1800 O   0  0  0  0  0  0
    0.0594   49.6256   25.3102 N   0  0  0  0  0  0
    0.4866   49.3915   24.0028 N   0  0  0  0  0  0
   -0.4465   49.1701   23.0510 C   0  0  0  0  0  0
   -1.6630   49.1625   23.2638 O   0  0  0  0  0  0
    0.0836   48.8968   21.6593 C   0  0  0  0  0  0
   -0.7256   48.2165   20.7369 C   0  0  0  0  0  0
   -0.2467   47.9112   19.4666 C   0  0  0  0  0  0
    1.0405   48.2916   19.1025 C   0  0  0  0  0  0
    1.8511   48.9890   19.9946 C   0  0  0  0  0  0
    1.3749   49.2948   21.2683 C   0  0  0  0  0  0
    1.5042   47.9770   17.8730 F   0  0  0  0  0  0
    2.5439   52.2523   29.4975 C   0  0  0  0  0  0
    3.8379   52.1560   29.9935 C   0  0  0  0  0  0
    3.7399   52.0967   31.3814 C   0  0  0  0  0  0
    2.3883   52.0967   31.6769 C   0  0  0  0  0  0
    1.6714   52.1994   30.5376 O   0  0  0  0  0  0
    1.1126   56.2410   29.6124 H   0  0  0  0  0  0
    0.3023   54.8972   28.8032 H   0  0  0  0  0  0
    1.2657   54.6125   30.2377 H   0  0  0  0  0  0
    3.3527   54.8392   28.9643 H   0  0  0  0  0  0
    2.5277   55.8246   27.7372 H   0  0  0  0  0  0
    2.9397   52.9760   25.6125 H   0  0  0  0  0  0
    3.1174   54.7135   25.7871 H   0  0  0  0  0  0
    5.3887   53.5988   25.9422 H   0  0  0  0  0  0
    5.0170   54.3281   27.4912 H   0  0  0  0  0  0
    4.8366   52.5868   27.2535 H   0  0  0  0  0  0
    2.4999   51.6938   27.4538 H   0  0  0  0  0  0
   -0.1570   52.9053   27.6558 H   0  0  0  0  0  0
   -0.0227   51.8261   28.9704 H   0  0  0  0  0  0
   -0.4247   50.1311   27.5861 H   0  0  0  0  0  0
    0.0294   48.7856   25.8728 H   0  0  0  0  0  0
    1.3998   48.9587   23.9722 H   0  0  0  0  0  0
   -1.7257   47.9056   21.0035 H   0  0  0  0  0  0
   -0.8673   47.3773   18.7626 H   0  0  0  0  0  0
    2.8443   49.2872   19.6918 H   0  0  0  0  0  0
    2.0251   49.8367   21.9402 H   0  0  0  0  0  0
    4.7539   52.1490   29.4232 H   0  0  0  0  0  0
    4.5586   52.0344   32.0824 H   0  0  0  0  0  0
    1.7980   52.0359   32.5773 H   0  0  0  0  0  0
    1.3506   53.9616   26.9826 H   0  0  0  0  0  0
  1  2  1  0  0  0
  1 27  1  0  0  0
  1 28  1  0  0  0
  1 29  1  0  0  0
  2  3  1  0  0  0
  2 30  1  0  0  0
  2 31  1  0  0  0
  3  4  1  0  0  0
  3  6  1  0  0  0
  3 50  1  0  0  0
  4  5  1  0  0  0
  4 32  1  0  0  0
  4 33  1  0  0  0
  5 34  1  0  0  0
  5 35  1  0  0  0
  5 36  1  0  0  0
  6  7  1  0  0  0
  6 22  1  0  0  0
  6 37  1  0  0  0
  7  8  1  0  0  0
  7 38  1  0  0  0
  7 39  1  0  0  0
  8  9  1  0  0  0
  8 40  1  0  0  0
  9 10  2  0  0  0
  9 11  1  0  0  0
 11 12  1  0  0  0
 11 41  1  0  0  0
 12 13  1  0  0  0
 12 42  1  0  0  0
 13 14  2  0  0  0
 13 15  1  0  0  0
 15 20  2  0  0  0
 15 16  1  0  0  0
 16 17  2  0  0  0
 16 43  1  0  0  0
 17 18  1  0  0  0
 17 44  1  0  0  0
 18 19  2  0  0  0
 18 21  1  0  0  0
 19 20  1  0  0  0
 19 45  1  0  0  0
 20 46  1  0  0  0
 22 26  1  0  0  0
 22 23  2  0  0  0
 23 24  1  0  0  0
 23 47  1  0  0  0
 24 25  2  0  0  0
 24 48  1  0  0  0
 25 26  1  0  0  0
 25 49  1  0  0  0
M  CHG  1   3   1
M  END
> <i_i_glide_confnum>
11

> <i_i_glide_lignum>
6218

> <i_i_glide_posenum>
289

> <i_i_glide_rotatable_bonds>
11

> <i_m_Source_File_Index>
2050

> <b_m_subgroup_collapsed>
0

> <r_i_docking_score>
-4.60986

> <r_i_glide_ecoul>
-5.5117

> <r_i_glide_eff_state_penalty>
0

> <r_i_glide_einternal>
7.54856

> <r_i_glide_emodel>
-45.3034

> <r_i_glide_energy>
-36.1894

> <r_i_glide_erotb>
1.01838

> <r_i_glide_esite>
-0.199964

> <r_i_glide_evdw>
-30.6777

> <r_i_glide_gscore>
-4.60986

> <r_i_glide_hbond>
-0.339224

> <r_i_glide_ligand_efficiency>
-0.177302

> <r_i_glide_ligand_efficiency_ln>
-1.08261

> <r_i_glide_ligand_efficiency_sa>
-0.525258

> <r_i_glide_lipo>
-1.77495

> <r_i_glide_metal>
0

> <r_i_glide_rewards>
-0.953467

> <s_i_glide_gridfile>
wee1_glide-grid

> <s_m_Source_File>
wee1_decoys_glide_SP.sdf

> <s_m_Source_Path>
/Users/zhangxujun/Desktop

> <s_m_entry_id>
2325

> <s_m_entry_name>
wee1_decoys_glide_SP.2050

> <s_m_subgroup_title>
wee1_decoys_glide_SP

> <s_m_subgroupid>
wee1_decoys_glide_SP


$$$$
