ZINC46330168_2013
                    3D
 Schrodinger Suite 2024-2.
 63 67  0  0  1  0            999 V2000
    0.8041   54.4962   28.9391 C   0  0  0  0  0  0
    1.2106   53.0788   28.4916 C   0  0  2  0  0  0
    0.2844   52.5160   28.3580 H   0  0  0  0  0  0
    2.0471   52.3029   29.5382 C   0  0  0  0  0  0
    3.3769   53.0238   29.8712 C   0  0  0  0  0  0
    3.9935   53.5037   28.5701 C   0  0  0  0  0  0
    3.3759   53.5106   27.3241 C   0  0  0  0  0  0
    4.3652   53.9396   26.3817 C   0  0  0  0  0  0
    4.3888   54.0968   24.9875 C   0  0  0  0  0  0
    5.5745   54.4858   24.3451 C   0  0  0  0  0  0
    6.6984   54.7997   25.1230 C   0  0  0  0  0  0
    6.7046   54.6875   26.5126 C   0  0  0  0  0  0
    5.5460   54.2240   27.1192 C   0  0  0  0  0  0
    5.2848   53.9360   28.4380 N   0  0  0  0  0  0
    5.9193   54.0144   29.2194 H   0  0  0  0  0  0
    5.6263   54.4966   22.8290 C   0  0  0  0  0  0
    4.7565   53.9054   22.1865 O   0  0  0  0  0  0
    6.6501   55.1799   22.2649 N   0  0  0  0  0  0
    6.9681   55.2969   20.9007 C   0  0  0  0  0  0
    6.0580   55.1044   19.8480 C   0  0  0  0  0  0
    6.5089   55.1099   18.5287 C   0  0  0  0  0  0
    7.8671   55.2958   18.2630 C   0  0  0  0  0  0
    8.7582   55.5331   19.3044 C   0  0  0  0  0  0
    8.3044   55.5710   20.6157 C   0  0  0  0  0  0
    8.5045   55.2046   16.5909 S   0  0  0  0  0  0
    9.8131   54.5455   16.6868 O   0  0  0  0  0  0
    7.4364   54.6403   15.7578 O   0  0  0  0  0  0
    8.7761   56.8840   16.0781 N   0  0  0  0  0  0
    7.6006   57.7021   15.6782 C   0  0  0  0  0  0
    7.1301   58.6268   16.8195 C   0  0  0  0  0  0
    8.3038   59.4769   17.3494 C   0  0  0  0  0  0
    9.4592   58.5576   17.8193 C   0  0  1  0  0  0
    9.1092   57.9580   18.6528 H   0  0  0  0  0  0
    9.9244   57.6397   16.6561 C   0  0  0  0  0  0
   10.6378   59.3599   18.4198 C   0  0  0  0  0  0
   10.3936   60.4965   18.8812 O   0  0  0  0  0  0
   11.7656   58.8202   18.4549 O   0  5  0  0  0  0
    1.9292   53.0813   27.1174 C   0  0  0  0  0  0
    1.6639   55.1078   29.2108 H   0  0  0  0  0  0
    0.1315   54.4674   29.7966 H   0  0  0  0  0  0
    0.3043   55.0190   28.1263 H   0  0  0  0  0  0
    1.4781   52.1954   30.4633 H   0  0  0  0  0  0
    2.2557   51.2967   29.1697 H   0  0  0  0  0  0
    3.1760   53.8975   30.4818 H   0  0  0  0  0  0
    4.0478   52.3727   30.4333 H   0  0  0  0  0  0
    3.5067   53.8557   24.4115 H   0  0  0  0  0  0
    7.6155   55.1051   24.6472 H   0  0  0  0  0  0
    7.5788   54.8966   27.1069 H   0  0  0  0  0  0
    7.3487   55.5430   22.8940 H   0  0  0  0  0  0
    5.0098   54.9209   20.0278 H   0  0  0  0  0  0
    5.8094   54.9315   17.7239 H   0  0  0  0  0  0
    9.8089   55.6834   19.0959 H   0  0  0  0  0  0
    9.0214   55.7342   21.4073 H   0  0  0  0  0  0
    7.8864   58.2918   14.8064 H   0  0  0  0  0  0
    6.7939   57.0420   15.3585 H   0  0  0  0  0  0
    6.3317   59.2786   16.4641 H   0  0  0  0  0  0
    6.6959   58.0350   17.6269 H   0  0  0  0  0  0
    8.6358   60.1359   16.5448 H   0  0  0  0  0  0
    7.9232   60.0964   18.1644 H   0  0  0  0  0  0
   10.6832   56.9290   16.9893 H   0  0  0  0  0  0
   10.3659   58.2328   15.8539 H   0  0  0  0  0  0
    1.8811   52.0961   26.6538 H   0  0  0  0  0  0
    1.4276   53.7550   26.4233 H   0  0  0  0  0  0
  1  2  1  0  0  0
  1 39  1  0  0  0
  1 40  1  0  0  0
  1 41  1  0  0  0
  2  3  1  0  0  0
  2 38  1  0  0  0
  2  4  1  0  0  0
  4  5  1  0  0  0
  4 42  1  0  0  0
  4 43  1  0  0  0
  5  6  1  0  0  0
  5 44  1  0  0  0
  5 45  1  0  0  0
  6 14  1  0  0  0
  6  7  2  0  0  0
  7  8  1  0  0  0
  7 38  1  0  0  0
  8 13  2  0  0  0
  8  9  1  0  0  0
  9 10  2  0  0  0
  9 46  1  0  0  0
 10 11  1  0  0  0
 10 16  1  0  0  0
 11 12  2  0  0  0
 11 47  1  0  0  0
 12 13  1  0  0  0
 12 48  1  0  0  0
 13 14  1  0  0  0
 14 15  1  0  0  0
 16 17  2  0  0  0
 16 18  1  0  0  0
 18 19  1  0  0  0
 18 49  1  0  0  0
 19 24  2  0  0  0
 19 20  1  0  0  0
 20 21  2  0  0  0
 20 50  1  0  0  0
 21 22  1  0  0  0
 21 51  1  0  0  0
 22 23  2  0  0  0
 22 25  1  0  0  0
 23 24  1  0  0  0
 23 52  1  0  0  0
 24 53  1  0  0  0
 25 26  2  0  0  0
 25 27  2  0  0  0
 25 28  1  0  0  0
 28 34  1  0  0  0
 28 29  1  0  0  0
 29 30  1  0  0  0
 29 54  1  0  0  0
 29 55  1  0  0  0
 30 31  1  0  0  0
 30 56  1  0  0  0
 30 57  1  0  0  0
 31 32  1  0  0  0
 31 58  1  0  0  0
 31 59  1  0  0  0
 32 33  1  0  0  0
 32 34  1  0  0  0
 32 35  1  0  0  0
 34 60  1  0  0  0
 34 61  1  0  0  0
 35 36  2  0  0  0
 35 37  1  0  0  0
 38 62  1  0  0  0
 38 63  1  0  0  0
M  CHG  1  37  -1
M  END
> <i_i_glide_confnum>
108

> <i_i_glide_lignum>
2014

> <i_i_glide_posenum>
288

> <i_i_glide_rotatable_bonds>
6

> <i_m_Source_File_Index>
2206

> <b_m_subgroup_collapsed>
0

> <r_i_docking_score>
-6.34176

> <r_i_glide_ecoul>
-4.21996

> <r_i_glide_eff_state_penalty>
0

> <r_i_glide_einternal>
6.24925

> <r_i_glide_emodel>
-67.1897

> <r_i_glide_energy>
-50.0024

> <r_i_glide_erotb>
0.416566

> <r_i_glide_esite>
-0.0318132

> <r_i_glide_evdw>
-45.7825

> <r_i_glide_gscore>
-6.34176

> <r_i_glide_hbond>
-0.180695

> <r_i_glide_ligand_efficiency>
-0.181193

> <r_i_glide_ligand_efficiency_ln>
-1.39216

> <r_i_glide_ligand_efficiency_sa>
-0.592695

> <r_i_glide_lipo>
-3.35549

> <r_i_glide_metal>
0

> <r_i_glide_rewards>
-0.268205

> <s_i_glide_gridfile>
wee1_glide-grid

> <s_m_Source_File>
wee1_decoys_glide_SP.sdf

> <s_m_Source_Path>
/Users/zhangxujun/Desktop

> <s_m_entry_id>
2481

> <s_m_entry_name>
wee1_decoys_glide_SP.2206

> <s_m_subgroup_title>
wee1_decoys_glide_SP

> <s_m_subgroupid>
wee1_decoys_glide_SP


$$$$
