ZINC63513883_355
                    3D
 Schrodinger Suite 2024-2.
 64 67  0  0  1  0            999 V2000
    1.9578   55.8802   28.7238 C   0  0  0  0  0  0
    2.1270   54.3756   28.9754 C   0  0  2  0  0  0
    3.1735   54.1163   29.1424 H   0  0  0  0  0  0
    1.5098   53.5242   27.8780 C   0  0  0  0  0  0
    0.5431   52.7801   28.4446 C   0  0  0  0  0  0
   -0.4038   51.8252   27.8502 C   0  0  0  0  0  0
   -1.3128   51.1969   28.6191 C   0  0  0  0  0  0
   -1.2949   51.4485   30.0525 C   0  0  0  0  0  0
   -0.4422   52.3460   30.6093 C   0  0  0  0  0  0
    0.4800   53.0344   29.8152 C   0  0  0  0  0  0
    1.3627   53.9381   30.1554 N   0  3  0  0  0  0
    1.9504   53.5977   26.4271 C   0  0  0  0  0  0
    3.4617   53.6966   26.1482 C   0  0  0  0  0  0
    3.8749   53.7268   24.7353 N   0  0  0  0  0  0
    3.1361   53.6972   23.5976 C   0  0  0  0  0  0
    1.9055   53.6138   23.6036 O   0  0  0  0  0  0
    3.8777   53.7933   22.3296 C   0  0  0  0  0  0
    5.0314   54.5184   22.2801 C   0  0  0  0  0  0
    5.9083   54.8980   21.1466 C   0  0  0  0  0  0
    7.2148   55.3004   21.4497 C   0  0  0  0  0  0
    8.0946   55.6964   20.4449 C   0  0  0  0  0  0
    7.6776   55.6997   19.1172 C   0  0  0  0  0  0
    6.3726   55.3146   18.7785 C   0  0  0  0  0  0
    5.5010   54.9185   19.8046 C   0  0  0  0  0  0
    5.9149   55.3363   17.3677 N   0  3  0  0  0  0
    4.7521   55.0201   17.1233 O   0  0  0  0  0  0
    6.7129   55.6750   16.4993 O   0  5  0  0  0  0
    3.3424   53.1978   21.2104 N   0  0  0  0  0  0
    2.9610   51.9058   21.0607 C   0  0  0  0  0  0
    3.0690   51.0581   21.9512 O   0  0  0  0  0  0
    2.3646   51.5320   19.7159 C   0  0  0  0  0  0
    2.0869   52.4948   18.7300 C   0  0  0  0  0  0
    1.5240   52.1175   17.5159 C   0  0  0  0  0  0
    1.2354   50.7821   17.2481 C   0  0  0  0  0  0
    1.5056   49.8164   18.2273 C   0  0  0  0  0  0
    2.0670   50.1886   19.4449 C   0  0  0  0  0  0
    0.6987   50.5054   16.0053 O   0  0  0  0  0  0
    0.5499   49.1470   15.6112 C   0  0  0  0  0  0
    2.3044   56.1050   27.7208 H   0  0  0  0  0  0
    0.9150   56.1960   28.7742 H   0  0  0  0  0  0
    2.5276   56.4861   29.4304 H   0  0  0  0  0  0
   -0.4109   51.6108   26.7905 H   0  0  0  0  0  0
   -2.0157   50.4969   28.1900 H   0  0  0  0  0  0
   -1.9709   50.8964   30.6932 H   0  0  0  0  0  0
   -0.4904   52.4971   31.6804 H   0  0  0  0  0  0
    1.5038   54.4826   25.9887 H   0  0  0  0  0  0
    1.5355   52.7293   25.9144 H   0  0  0  0  0  0
    3.9823   52.8770   26.6416 H   0  0  0  0  0  0
    3.8601   54.5953   26.6199 H   0  0  0  0  0  0
    4.8784   53.7390   24.6017 H   0  0  0  0  0  0
    5.3892   54.9443   23.2065 H   0  0  0  0  0  0
    7.5653   55.3064   22.4729 H   0  0  0  0  0  0
    9.1032   55.9968   20.6942 H   0  0  0  0  0  0
    8.3774   56.0085   18.3516 H   0  0  0  0  0  0
    4.4887   54.6654   19.5376 H   0  0  0  0  0  0
    3.4511   53.7038   20.3488 H   0  0  0  0  0  0
    2.2919   53.5439   18.8797 H   0  0  0  0  0  0
    1.3162   52.8665   16.7665 H   0  0  0  0  0  0
    1.3089   48.7693   18.0562 H   0  0  0  0  0  0
    2.2797   49.4162   20.1715 H   0  0  0  0  0  0
    0.1885   49.1094   14.5824 H   0  0  0  0  0  0
   -0.1745   48.6244   16.2368 H   0  0  0  0  0  0
    1.5055   48.6164   15.6446 H   0  0  0  0  0  0
    1.4983   54.2985   31.0950 H   0  0  0  0  0  0
  1  2  1  0  0  0
  1 39  1  0  0  0
  1 40  1  0  0  0
  1 41  1  0  0  0
  2  3  1  0  0  0
  2 11  1  0  0  0
  2  4  1  0  0  0
  4  5  2  0  0  0
  4 12  1  0  0  0
  5 10  1  0  0  0
  5  6  1  0  0  0
  6  7  2  0  0  0
  6 42  1  0  0  0
  7  8  1  0  0  0
  7 43  1  0  0  0
  8  9  2  0  0  0
  8 44  1  0  0  0
  9 10  1  0  0  0
  9 45  1  0  0  0
 10 11  2  0  0  0
 11 64  1  0  0  0
 12 13  1  0  0  0
 12 46  1  0  0  0
 12 47  1  0  0  0
 13 14  1  0  0  0
 13 48  1  0  0  0
 13 49  1  0  0  0
 14 15  1  0  0  0
 14 50  1  0  0  0
 15 16  2  0  0  0
 15 17  1  0  0  0
 17 18  2  0  0  0
 17 28  1  0  0  0
 18 19  1  0  0  0
 18 51  1  0  0  0
 19 24  2  0  0  0
 19 20  1  0  0  0
 20 21  2  0  0  0
 20 52  1  0  0  0
 21 22  1  0  0  0
 21 53  1  0  0  0
 22 23  2  0  0  0
 22 54  1  0  0  0
 23 24  1  0  0  0
 23 25  1  0  0  0
 24 55  1  0  0  0
 25 26  2  0  0  0
 25 27  1  0  0  0
 28 29  1  0  0  0
 28 56  1  0  0  0
 29 30  2  0  0  0
 29 31  1  0  0  0
 31 36  2  0  0  0
 31 32  1  0  0  0
 32 33  2  0  0  0
 32 57  1  0  0  0
 33 34  1  0  0  0
 33 58  1  0  0  0
 34 35  2  0  0  0
 34 37  1  0  0  0
 35 36  1  0  0  0
 35 59  1  0  0  0
 36 60  1  0  0  0
 37 38  1  0  0  0
 38 61  1  0  0  0
 38 62  1  0  0  0
 38 63  1  0  0  0
M  CHG  3  11   1  25   1  27  -1
M  END
> <i_i_glide_confnum>
229

> <i_i_glide_lignum>
356

> <i_i_glide_posenum>
326

> <i_i_glide_rotatable_bonds>
11

> <i_m_Source_File_Index>
4098

> <b_m_subgroup_collapsed>
0

> <r_i_docking_score>
-4.86034

> <r_i_glide_ecoul>
-6.13739

> <r_i_glide_eff_state_penalty>
0

> <r_i_glide_einternal>
16.9937

> <r_i_glide_emodel>
-52.7431

> <r_i_glide_energy>
-45.583

> <r_i_glide_erotb>
0.736247

> <r_i_glide_esite>
-0.00426488

> <r_i_glide_evdw>
-39.4456

> <r_i_glide_gscore>
-4.86034

> <r_i_glide_hbond>
0

> <r_i_glide_ligand_efficiency>
-0.13136

> <r_i_glide_ligand_efficiency_ln>
-1.05409

> <r_i_glide_ligand_efficiency_sa>
-0.437722

> <r_i_glide_lipo>
-2.39275

> <r_i_glide_metal>
0

> <r_i_glide_rewards>
-0.306678

> <s_i_glide_gridfile>
wee1_glide-grid

> <s_m_Source_File>
wee1_decoys_glide_SP.sdf

> <s_m_Source_Path>
/Users/zhangxujun/Desktop

> <s_m_entry_id>
4373

> <s_m_entry_name>
wee1_decoys_glide_SP.4098

> <s_m_subgroup_title>
wee1_decoys_glide_SP

> <s_m_subgroupid>
wee1_decoys_glide_SP


$$$$
