ZINC18744549_3528
                    3D
 Schrodinger Suite 2024-2.
 54 56  0  0  1  0            999 V2000
    6.6195   54.7961   25.4921 C   0  0  0  0  0  0
    5.6303   54.3224   24.4439 C   0  0  0  0  0  0
    6.0921   53.7333   23.2663 C   0  0  0  0  0  0
    5.1849   53.2948   22.3006 C   0  0  0  0  0  0
    3.8067   53.4570   22.4903 C   0  0  0  0  0  0
    3.3502   54.1012   23.6452 C   0  0  0  0  0  0
    4.2576   54.4977   24.6295 C   0  0  0  0  0  0
    1.5045   54.4968   23.8871 Br  0  0  0  0  0  0
    2.8699   52.9585   21.5703 N   0  0  0  0  0  0
    2.9104   51.7402   20.9904 C   0  0  0  0  0  0
    3.8047   50.9185   21.1981 O   0  0  0  0  0  0
    1.7394   51.3686   20.0617 C   0  0  1  0  0  0
    1.0852   52.2349   19.9474 H   0  0  0  0  0  0
    2.2462   50.9968   18.6530 C   0  0  0  0  0  0
    0.7407   50.0184   20.7849 S   0  0  0  0  0  0
   -0.0072   50.8813   22.1321 C   0  0  0  0  0  0
   -0.7866   51.9296   22.0062 N   0  0  0  0  0  0
   -1.1122   52.3693   23.2874 N   0  0  0  0  0  0
   -0.4574   51.6099   24.1322 C   0  0  0  0  0  0
    0.2684   50.6535   23.4616 N   0  0  0  0  0  0
    1.1041   49.6970   24.0058 N   0  0  0  0  0  0
   -0.4423   51.7865   25.6391 C   0  0  0  0  0  0
    0.8401   52.2873   26.0043 O   0  0  0  0  0  0
    1.1686   52.4506   27.3333 C   0  0  0  0  0  0
    0.3039   52.1973   28.4086 C   0  0  0  0  0  0
    0.7398   52.3767   29.7239 C   0  0  0  0  0  0
    2.0499   52.7896   29.9721 C   0  0  0  0  0  0
    2.9162   53.0568   28.9104 C   0  0  0  0  0  0
    2.4638   52.8953   27.6002 C   0  0  0  0  0  0
    4.3321   53.5329   29.1725 C   0  0  0  0  0  0
   -0.1969   52.0973   30.8816 C   0  0  0  0  0  0
    6.9339   53.9649   26.1238 H   0  0  0  0  0  0
    6.1963   55.5831   26.1178 H   0  0  0  0  0  0
    7.5035   55.2122   25.0075 H   0  0  0  0  0  0
    7.1526   53.6014   23.1062 H   0  0  0  0  0  0
    5.5428   52.8149   21.4029 H   0  0  0  0  0  0
    3.8911   54.9828   25.5226 H   0  0  0  0  0  0
    2.0549   53.5361   21.4146 H   0  0  0  0  0  0
    2.8489   51.7933   18.2126 H   0  0  0  0  0  0
    2.8651   50.0980   18.6684 H   0  0  0  0  0  0
    1.4165   50.8061   17.9728 H   0  0  0  0  0  0
    0.7578   48.7572   23.8919 H   0  0  0  0  0  0
    2.0671   49.8157   23.7245 H   0  0  0  0  0  0
   -1.2126   52.4979   25.9435 H   0  0  0  0  0  0
   -0.6348   50.8272   26.1250 H   0  0  0  0  0  0
   -0.7048   51.8537   28.2356 H   0  0  0  0  0  0
    2.3904   52.8966   30.9910 H   0  0  0  0  0  0
    3.1300   53.0839   26.7725 H   0  0  0  0  0  0
    4.3752   54.1390   30.0775 H   0  0  0  0  0  0
    5.0069   52.6835   29.2813 H   0  0  0  0  0  0
    4.6914   54.1635   28.3580 H   0  0  0  0  0  0
    0.3411   51.6968   31.7404 H   0  0  0  0  0  0
   -0.7008   53.0071   31.1995 H   0  0  0  0  0  0
   -0.9477   51.3504   30.6182 H   0  0  0  0  0  0
  1  2  1  0  0  0
  1 32  1  0  0  0
  1 33  1  0  0  0
  1 34  1  0  0  0
  2  7  2  0  0  0
  2  3  1  0  0  0
  3  4  2  0  0  0
  3 35  1  0  0  0
  4  5  1  0  0  0
  4 36  1  0  0  0
  5  6  2  0  0  0
  5  9  1  0  0  0
  6  7  1  0  0  0
  6  8  1  0  0  0
  7 37  1  0  0  0
  9 10  1  0  0  0
  9 38  1  0  0  0
 10 11  2  0  0  0
 10 12  1  0  0  0
 12 13  1  0  0  0
 12 14  1  0  0  0
 12 15  1  0  0  0
 14 39  1  0  0  0
 14 40  1  0  0  0
 14 41  1  0  0  0
 15 16  1  0  0  0
 16 20  1  0  0  0
 16 17  2  0  0  0
 17 18  1  0  0  0
 18 19  2  0  0  0
 19 20  1  0  0  0
 19 22  1  0  0  0
 20 21  1  0  0  0
 21 42  1  0  0  0
 21 43  1  0  0  0
 22 23  1  0  0  0
 22 44  1  0  0  0
 22 45  1  0  0  0
 23 24  1  0  0  0
 24 29  2  0  0  0
 24 25  1  0  0  0
 25 26  2  0  0  0
 25 46  1  0  0  0
 26 27  1  0  0  0
 26 31  1  0  0  0
 27 28  2  0  0  0
 27 47  1  0  0  0
 28 29  1  0  0  0
 28 30  1  0  0  0
 29 48  1  0  0  0
 30 49  1  0  0  0
 30 50  1  0  0  0
 30 51  1  0  0  0
 31 52  1  0  0  0
 31 53  1  0  0  0
 31 54  1  0  0  0
M  END
> <i_i_glide_confnum>
66

> <i_i_glide_lignum>
3529

> <i_i_glide_posenum>
258

> <i_i_glide_rotatable_bonds>
8

> <i_m_Source_File_Index>
5536

> <b_m_subgroup_collapsed>
0

> <r_i_docking_score>
-5.41516

> <r_i_glide_ecoul>
-5.08143

> <r_i_glide_eff_state_penalty>
0

> <r_i_glide_einternal>
4.17101

> <r_i_glide_emodel>
-64.8273

> <r_i_glide_energy>
-49.6031

> <r_i_glide_erotb>
0.67691

> <r_i_glide_esite>
-0.0159309

> <r_i_glide_evdw>
-44.5217

> <r_i_glide_gscore>
-5.41516

> <r_i_glide_hbond>
-0.125385

> <r_i_glide_ligand_efficiency>
-0.180505

> <r_i_glide_ligand_efficiency_ln>
-1.23038

> <r_i_glide_ligand_efficiency_sa>
-0.560872

> <r_i_glide_lipo>
-2.81511

> <r_i_glide_metal>
0

> <r_i_glide_rewards>
-0.147353

> <s_i_glide_gridfile>
wee1_glide-grid

> <s_m_Source_File>
wee1_decoys_glide_SP.sdf

> <s_m_Source_Path>
/Users/zhangxujun/Desktop

> <s_m_entry_id>
5811

> <s_m_entry_name>
wee1_decoys_glide_SP.5536

> <s_m_subgroup_title>
wee1_decoys_glide_SP

> <s_m_subgroupid>
wee1_decoys_glide_SP


$$$$
