ZINC30983309_4837
                    3D
 Schrodinger Suite 2024-2.
 74 78  0  0  1  0            999 V2000
    3.0963   39.6693   12.8518 C   0  0  0  0  0  0
    2.3737   40.6962   13.7389 C   0  0  0  0  0  0
    3.2982   41.2921   14.8094 C   0  0  0  0  0  0
    2.5885   42.3703   15.6669 C   0  0  0  0  0  0
    1.9044   43.4252   14.8866 N   0  0  0  0  0  0
    1.0364   42.8500   13.8421 C   0  0  0  0  0  0
    1.7937   41.8644   12.9307 C   0  0  0  0  0  0
    1.5447   44.5983   15.5450 C   0  0  0  0  0  0
    0.2093   44.9897   15.6986 C   0  0  0  0  0  0
   -0.1117   46.1481   16.4009 C   0  0  0  0  0  0
    0.8950   46.9438   16.9571 C   0  0  0  0  0  0
    2.2314   46.5862   16.7622 C   0  0  0  0  0  0
    2.5454   45.4208   16.0700 C   0  0  0  0  0  0
    0.4966   48.1791   17.7726 C   0  0  1  0  0  0
   -0.3686   48.6027   17.2545 H   0  0  0  0  0  0
    0.0588   47.7455   19.1911 C   0  0  0  0  0  0
    1.5044   49.2541   17.8063 N   0  0  0  0  0  0
    1.2676   50.5068   18.2482 C   0  0  0  0  0  0
    0.1618   50.8762   18.6495 O   0  0  0  0  0  0
    2.4620   51.4821   18.2718 C   0  0  2  0  0  0
    3.1160   51.3970   19.6690 C   0  0  0  0  0  0
    4.3354   52.3343   19.7387 C   0  0  0  0  0  0
    3.9011   53.7847   19.4098 N   0  3  2  0  0  0
    3.2388   53.8703   18.0092 C   0  0  0  0  0  0
    2.0130   52.9317   17.9701 C   0  0  0  0  0  0
    5.1103   54.7565   19.5008 C   0  0  0  0  0  0
    5.6336   54.8516   20.9248 C   0  0  0  0  0  0
    5.0427   54.4965   22.0343 N   0  0  0  0  0  0
    5.9596   54.7480   22.9491 C   0  0  0  0  0  0
    7.1003   55.2334   22.4857 N   0  0  0  0  0  0
    6.8892   55.3224   21.1109 O   0  0  0  0  0  0
    5.6784   54.5474   24.4172 C   0  0  0  0  0  0
    4.3795   54.2647   24.8676 C   0  0  0  0  0  0
    4.1197   54.0980   26.2255 C   0  0  0  0  0  0
    5.1574   54.2092   27.1463 C   0  0  0  0  0  0
    6.4494   54.4946   26.7197 C   0  0  0  0  0  0
    6.7045   54.6649   25.3603 C   0  0  0  0  0  0
    4.9053   54.0436   28.4649 F   0  0  0  0  0  0
    3.9644   40.1077   12.3586 H   0  0  0  0  0  0
    2.4366   39.2947   12.0694 H   0  0  0  0  0  0
    3.4423   38.8153   13.4341 H   0  0  0  0  0  0
    1.5420   40.2072   14.2496 H   0  0  0  0  0  0
    3.6834   40.4946   15.4460 H   0  0  0  0  0  0
    4.2019   41.6967   14.3575 H   0  0  0  0  0  0
    1.8676   41.9058   16.3414 H   0  0  0  0  0  0
    3.3443   42.8320   16.3027 H   0  0  0  0  0  0
    0.1835   42.3589   14.3113 H   0  0  0  0  0  0
    0.6433   43.6554   13.2203 H   0  0  0  0  0  0
    2.5665   42.3848   12.3626 H   0  0  0  0  0  0
    1.1215   41.4739   12.1658 H   0  0  0  0  0  0
   -0.5904   44.3850   15.2977 H   0  0  0  0  0  0
   -1.1509   46.4158   16.5303 H   0  0  0  0  0  0
    3.0343   47.1864   17.1668 H   0  0  0  0  0  0
    3.5810   45.1523   15.9436 H   0  0  0  0  0  0
   -0.7295   46.9936   19.1539 H   0  0  0  0  0  0
    0.8981   47.3230   19.7450 H   0  0  0  0  0  0
   -0.3292   48.5804   19.7771 H   0  0  0  0  0  0
    2.4104   49.0620   17.3834 H   0  0  0  0  0  0
    3.1310   51.1291   17.4892 H   0  0  0  0  0  0
    2.4337   51.7216   20.4587 H   0  0  0  0  0  0
    3.5035   50.3940   19.8593 H   0  0  0  0  0  0
    5.1241   52.0998   19.0273 H   0  0  0  0  0  0
    4.7473   52.3047   20.7463 H   0  0  0  0  0  0
    3.9951   53.6104   17.2639 H   0  0  0  0  0  0
    2.9212   54.9065   17.8725 H   0  0  0  0  0  0
    1.5867   53.0142   16.9680 H   0  0  0  0  0  0
    1.3199   53.2974   18.7297 H   0  0  0  0  0  0
    5.8539   54.3739   18.7981 H   0  0  0  0  0  0
    4.7514   55.7227   19.1411 H   0  0  0  0  0  0
    3.5598   54.1758   24.1688 H   0  0  0  0  0  0
    3.1195   53.8783   26.5664 H   0  0  0  0  0  0
    7.2434   54.5804   27.4479 H   0  0  0  0  0  0
    7.7098   54.8856   25.0322 H   0  0  0  0  0  0
    3.2032   54.0794   20.0846 H   0  0  0  0  0  0
  1  2  1  0  0  0
  1 39  1  0  0  0
  1 40  1  0  0  0
  1 41  1  0  0  0
  2  7  1  0  0  0
  2  3  1  0  0  0
  2 42  1  0  0  0
  3  4  1  0  0  0
  3 43  1  0  0  0
  3 44  1  0  0  0
  4  5  1  0  0  0
  4 45  1  0  0  0
  4 46  1  0  0  0
  5  6  1  0  0  0
  5  8  1  0  0  0
  6  7  1  0  0  0
  6 47  1  0  0  0
  6 48  1  0  0  0
  7 49  1  0  0  0
  7 50  1  0  0  0
  8 13  2  0  0  0
  8  9  1  0  0  0
  9 10  2  0  0  0
  9 51  1  0  0  0
 10 11  1  0  0  0
 10 52  1  0  0  0
 11 12  2  0  0  0
 11 14  1  0  0  0
 12 13  1  0  0  0
 12 53  1  0  0  0
 13 54  1  0  0  0
 14 15  1  0  0  0
 14 16  1  0  0  0
 14 17  1  0  0  0
 16 55  1  0  0  0
 16 56  1  0  0  0
 16 57  1  0  0  0
 17 18  1  0  0  0
 17 58  1  0  0  0
 18 19  2  0  0  0
 18 20  1  0  0  0
 20 25  1  0  0  0
 20 21  1  0  0  0
 20 59  1  0  0  0
 21 22  1  0  0  0
 21 60  1  0  0  0
 21 61  1  0  0  0
 22 23  1  0  0  0
 22 62  1  0  0  0
 22 63  1  0  0  0
 23 24  1  0  0  0
 23 26  1  0  0  0
 23 74  1  0  0  0
 24 25  1  0  0  0
 24 64  1  0  0  0
 24 65  1  0  0  0
 25 66  1  0  0  0
 25 67  1  0  0  0
 26 27  1  0  0  0
 26 68  1  0  0  0
 26 69  1  0  0  0
 27 31  1  0  0  0
 27 28  2  0  0  0
 28 29  1  0  0  0
 29 30  2  0  0  0
 29 32  1  0  0  0
 30 31  1  0  0  0
 32 37  2  0  0  0
 32 33  1  0  0  0
 33 34  2  0  0  0
 33 70  1  0  0  0
 34 35  1  0  0  0
 34 71  1  0  0  0
 35 36  2  0  0  0
 35 38  1  0  0  0
 36 37  1  0  0  0
 36 72  1  0  0  0
 37 73  1  0  0  0
M  CHG  1  23   1
M  END
> <i_i_glide_confnum>
282

> <i_i_glide_lignum>
4838

> <i_i_glide_posenum>
187

> <i_i_glide_rotatable_bonds>
8

> <i_m_Source_File_Index>
5

> <b_m_subgroup_collapsed>
0

> <r_i_docking_score>
-5.54089

> <r_i_glide_ecoul>
-5.93448

> <r_i_glide_eff_state_penalty>
0

> <r_i_glide_einternal>
6.51121

> <r_i_glide_emodel>
-56.8284

> <r_i_glide_energy>
-43.2882

> <r_i_glide_erotb>
0.637725

> <r_i_glide_esite>
-0.154217

> <r_i_glide_evdw>
-37.3537

> <r_i_glide_gscore>
-5.54089

> <r_i_glide_hbond>
-0.16

> <r_i_glide_ligand_efficiency>
-0.149754

> <r_i_glide_ligand_efficiency_ln>
-1.20169

> <r_i_glide_ligand_efficiency_sa>
-0.499013

> <r_i_glide_lipo>
-2.3335

> <r_i_glide_metal>
0

> <r_i_glide_rewards>
-0.773046

> <s_i_glide_gridfile>
wee1_glide-grid

> <s_m_Source_File>
wee1_decoys_glide_SP.sdf

> <s_m_Source_Path>
/Users/zhangxujun/Desktop

> <s_m_entry_id>
280

> <s_m_entry_name>
wee1_decoys_glide_SP.5

> <s_m_subgroup_title>
wee1_decoys_glide_SP

> <s_m_subgroupid>
wee1_decoys_glide_SP


$$$$
