ZINC35330527_1034
                    3D
 Schrodinger Suite 2024-2.
 70 73  0  0  1  0            999 V2000
    4.3823   54.7007   28.7468 C   0  0  0  0  0  0
    4.3374   54.7395   27.2079 C   0  0  0  0  0  0
    5.1554   53.6486   26.4991 C   0  0  2  0  0  0
    4.7520   52.6903   26.8283 H   0  0  0  0  0  0
    6.6479   53.6535   26.9027 C   0  0  0  0  0  0
    4.9285   53.6967   25.0464 N   0  0  0  0  0  0
    5.4937   54.4967   24.1231 C   0  0  0  0  0  0
    6.3194   55.3581   24.4122 O   0  0  0  0  0  0
    5.1134   54.3201   22.6322 C   0  0  0  0  0  0
    3.8564   53.5729   22.4179 N   0  0  0  0  0  0
    2.5410   54.0730   22.7649 C   0  0  0  0  0  0
    1.6071   52.9781   22.5478 N   0  0  0  0  0  0
    2.2981   52.0136   21.6671 C   0  0  0  0  0  0
    3.7990   52.4495   21.6823 C   0  0  0  0  0  0
    4.7512   51.8614   21.1667 O   0  0  0  0  0  0
    2.1588   50.5436   22.1774 C   0  0  0  0  0  0
    2.7938   49.4756   21.2898 C   0  0  0  0  0  0
    2.3001   49.6012   19.9083 N   0  0  0  0  0  0
    2.4316   50.9255   19.2586 C   0  0  0  0  0  0
    1.7727   51.9858   20.1976 C   0  0  0  0  0  0
    1.5675   48.5889   19.3866 C   0  0  0  0  0  0
    0.8197   47.8969   20.0813 O   0  0  0  0  0  0
    1.8211   48.3382   18.0819 N   0  0  0  0  0  0
    1.4371   47.1943   17.3533 C   0  0  0  0  0  0
    2.3050   46.7603   16.3488 C   0  0  0  0  0  0
    2.0258   45.6044   15.6269 C   0  0  0  0  0  0
    0.8614   44.8755   15.8883 C   0  0  0  0  0  0
   -0.0321   45.3322   16.8621 C   0  0  0  0  0  0
    0.2507   46.4856   17.5900 C   0  0  0  0  0  0
    0.5487   43.5963   15.1126 C   0  0  0  0  0  0
   -0.7395   43.5589   14.7701 F   0  0  0  0  0  0
    1.2771   43.4927   13.9984 F   0  0  0  0  0  0
    0.8124   42.5447   15.8869 F   0  0  0  0  0  0
    0.6106   52.6297   23.4768 C   0  0  0  0  0  0
   -0.6203   52.1410   23.0238 C   0  0  0  0  0  0
   -1.5723   51.6714   23.9236 C   0  0  0  0  0  0
   -1.2827   51.6521   25.2865 C   0  0  0  0  0  0
   -0.0484   52.0971   25.7529 C   0  0  0  0  0  0
    0.8944   52.5826   24.8502 C   0  0  0  0  0  0
    3.6968   55.4342   29.1735 H   0  0  0  0  0  0
    4.0933   53.7210   29.1278 H   0  0  0  0  0  0
    5.3790   54.9295   29.1282 H   0  0  0  0  0  0
    4.7041   55.6926   26.8433 H   0  0  0  0  0  0
    3.2951   54.6755   26.8925 H   0  0  0  0  0  0
    6.7718   53.4491   27.9650 H   0  0  0  0  0  0
    7.2096   52.8986   26.3587 H   0  0  0  0  0  0
    7.1137   54.6221   26.7260 H   0  0  0  0  0  0
    4.2702   53.0164   24.6940 H   0  0  0  0  0  0
    5.9582   53.8511   22.1249 H   0  0  0  0  0  0
    4.9848   55.2963   22.1722 H   0  0  0  0  0  0
    2.3064   54.8889   22.0858 H   0  0  0  0  0  0
    2.5085   54.4883   23.7733 H   0  0  0  0  0  0
    2.6445   50.4743   23.1540 H   0  0  0  0  0  0
    1.1402   50.2813   22.4547 H   0  0  0  0  0  0
    3.8509   49.6968   21.2281 H   0  0  0  0  0  0
    2.7065   48.4663   21.6998 H   0  0  0  0  0  0
    3.5008   51.1234   19.1405 H   0  0  0  0  0  0
    1.9856   50.9465   18.2631 H   0  0  0  0  0  0
    0.6829   51.9745   20.1749 H   0  0  0  0  0  0
    1.9534   52.9638   19.7522 H   0  0  0  0  0  0
    2.5488   48.8945   17.6427 H   0  0  0  0  0  0
    3.2177   47.2966   16.1413 H   0  0  0  0  0  0
    2.7278   45.2748   14.8760 H   0  0  0  0  0  0
   -0.9459   44.7913   17.0636 H   0  0  0  0  0  0
   -0.4582   46.8154   18.3349 H   0  0  0  0  0  0
   -0.8372   52.1230   21.9658 H   0  0  0  0  0  0
   -2.5228   51.3012   23.5662 H   0  0  0  0  0  0
   -2.0108   51.2672   25.9848 H   0  0  0  0  0  0
    0.1779   52.0563   26.8082 H   0  0  0  0  0  0
    1.8608   52.8900   25.2227 H   0  0  0  0  0  0
  1  2  1  0  0  0
  1 40  1  0  0  0
  1 41  1  0  0  0
  1 42  1  0  0  0
  2  3  1  0  0  0
  2 43  1  0  0  0
  2 44  1  0  0  0
  3  4  1  0  0  0
  3  5  1  0  0  0
  3  6  1  0  0  0
  5 45  1  0  0  0
  5 46  1  0  0  0
  5 47  1  0  0  0
  6  7  1  0  0  0
  6 48  1  0  0  0
  7  8  2  0  0  0
  7  9  1  0  0  0
  9 10  1  0  0  0
  9 49  1  0  0  0
  9 50  1  0  0  0
 10 14  1  0  0  0
 10 11  1  0  0  0
 11 12  1  0  0  0
 11 51  1  0  0  0
 11 52  1  0  0  0
 12 13  1  0  0  0
 12 34  1  0  0  0
 13 20  1  0  0  0
 13 14  1  0  0  0
 13 16  1  0  0  0
 14 15  2  0  0  0
 16 17  1  0  0  0
 16 53  1  0  0  0
 16 54  1  0  0  0
 17 18  1  0  0  0
 17 55  1  0  0  0
 17 56  1  0  0  0
 18 19  1  0  0  0
 18 21  1  0  0  0
 19 20  1  0  0  0
 19 57  1  0  0  0
 19 58  1  0  0  0
 20 59  1  0  0  0
 20 60  1  0  0  0
 21 22  2  0  0  0
 21 23  1  0  0  0
 23 24  1  0  0  0
 23 61  1  0  0  0
 24 29  2  0  0  0
 24 25  1  0  0  0
 25 26  2  0  0  0
 25 62  1  0  0  0
 26 27  1  0  0  0
 26 63  1  0  0  0
 27 28  2  0  0  0
 27 30  1  0  0  0
 28 29  1  0  0  0
 28 64  1  0  0  0
 29 65  1  0  0  0
 30 31  1  0  0  0
 30 32  1  0  0  0
 30 33  1  0  0  0
 34 39  2  0  0  0
 34 35  1  0  0  0
 35 36  2  0  0  0
 35 66  1  0  0  0
 36 37  1  0  0  0
 36 67  1  0  0  0
 37 38  2  0  0  0
 37 68  1  0  0  0
 38 39  1  0  0  0
 38 69  1  0  0  0
 39 70  1  0  0  0
M  END
> <i_i_glide_confnum>
211

> <i_i_glide_lignum>
1035

> <i_i_glide_posenum>
78

> <i_i_glide_rotatable_bonds>
10

> <i_m_Source_File_Index>
4486

> <b_m_subgroup_collapsed>
0

> <r_i_docking_score>
-5.13078

> <r_i_glide_ecoul>
-5.4027

> <r_i_glide_eff_state_penalty>
0

> <r_i_glide_einternal>
13.4146

> <r_i_glide_emodel>
-50.3512

> <r_i_glide_energy>
-43.7621

> <r_i_glide_erotb>
0.583814

> <r_i_glide_esite>
-0.181133

> <r_i_glide_evdw>
-38.3594

> <r_i_glide_gscore>
-5.13078

> <r_i_glide_hbond>
-0.16

> <r_i_glide_ligand_efficiency>
-0.135021

> <r_i_glide_ligand_efficiency_ln>
-1.10635

> <r_i_glide_ligand_efficiency_sa>
-0.453936

> <r_i_glide_lipo>
-1.73657

> <r_i_glide_metal>
0

> <r_i_glide_rewards>
-0.908517

> <s_i_glide_gridfile>
wee1_glide-grid

> <s_m_Source_File>
wee1_decoys_glide_SP.sdf

> <s_m_Source_Path>
/Users/zhangxujun/Desktop

> <s_m_entry_id>
4761

> <s_m_entry_name>
wee1_decoys_glide_SP.4486

> <s_m_subgroup_title>
wee1_decoys_glide_SP

> <s_m_subgroupid>
wee1_decoys_glide_SP


$$$$
