ZINC34944385_5046
                    3D
 Schrodinger Suite 2024-2.
 57 60  0  0  1  0            999 V2000
    5.5118   57.0314   18.0094 C   0  0  0  0  0  0
    6.4893   56.5034   18.8507 C   0  0  0  0  0  0
    6.2876   55.2619   19.4493 C   0  0  0  0  0  0
    5.1079   54.5536   19.2038 C   0  0  0  0  0  0
    4.1310   55.0887   18.3604 C   0  0  0  0  0  0
    4.3326   56.3300   17.7615 C   0  0  0  0  0  0
    4.8899   53.1853   19.8377 C   0  0  0  0  0  0
    4.0169   53.2571   20.9657 O   0  0  0  0  0  0
    4.4377   53.6899   22.1877 C   0  0  0  0  0  0
    5.5980   54.0475   22.4086 O   0  0  0  0  0  0
    3.4097   53.6572   23.1519 N   0  0  0  0  0  0
    3.7276   54.2081   24.4837 C   0  0  0  0  0  0
    2.6985   53.7615   25.5174 C   0  0  0  0  0  0
    1.6772   52.8969   25.3169 C   0  0  0  0  0  0
    1.5146   52.2665   23.9315 C   0  0  2  0  0  0
    2.1505   51.3807   23.9464 H   0  0  0  0  0  0
    2.0341   53.2273   22.8220 C   0  0  0  0  0  0
    0.0404   51.8336   23.6780 C   0  0  2  0  0  0
   -0.5010   52.7777   23.5709 H   0  0  0  0  0  0
   -0.6465   51.0718   24.8649 C   0  0  0  0  0  0
   -0.2609   51.6614   26.2343 C   0  0  0  0  0  0
    0.7889   52.4967   26.4126 C   0  0  0  0  0  0
    1.0559   52.9819   27.7370 C   0  0  0  0  0  0
    1.2551   53.3920   28.8014 N   0  0  0  0  0  0
   -1.0392   51.2279   27.2886 N   0  0  0  0  0  0
   -2.1070   51.1854   24.6705 C   0  0  0  0  0  0
   -3.2502   51.2790   24.5137 N   0  0  0  0  0  0
   -0.3224   49.6316   24.8637 C   0  0  0  0  0  0
   -0.0773   48.5010   24.8583 N   0  0  0  0  0  0
   -0.1393   51.1079   22.3291 C   0  0  0  0  0  0
    0.7443   50.0918   21.9349 C   0  0  0  0  0  0
    0.5894   49.4515   20.7083 C   0  0  0  0  0  0
   -0.4607   49.8057   19.8650 C   0  0  0  0  0  0
   -1.3680   50.8023   20.2441 C   0  0  0  0  0  0
   -1.1967   51.4495   21.4761 C   0  0  0  0  0  0
   -2.5376   51.1866   19.3396 C   0  0  0  0  0  0
   -3.6855   50.9013   19.9540 F   0  0  0  0  0  0
   -2.5186   50.5380   18.1737 F   0  0  0  0  0  0
   -2.5020   52.4943   19.0842 F   0  0  0  0  0  0
    5.6672   57.9957   17.5462 H   0  0  0  0  0  0
    7.4014   57.0521   19.0319 H   0  0  0  0  0  0
    7.0457   54.8548   20.1026 H   0  0  0  0  0  0
    3.2146   54.5464   18.1756 H   0  0  0  0  0  0
    3.5782   56.7500   17.1121 H   0  0  0  0  0  0
    5.8453   52.7279   20.0987 H   0  0  0  0  0  0
    4.4443   52.5250   19.0924 H   0  0  0  0  0  0
    3.7427   55.2968   24.4362 H   0  0  0  0  0  0
    4.7224   53.9026   24.8161 H   0  0  0  0  0  0
    2.8315   54.1807   26.5040 H   0  0  0  0  0  0
    2.0131   52.6489   21.8989 H   0  0  0  0  0  0
    1.4042   54.0986   22.6414 H   0  0  0  0  0  0
   -1.6285   50.4055   27.2108 H   0  0  0  0  0  0
   -0.8414   51.5319   28.2316 H   0  0  0  0  0  0
    1.5594   49.7834   22.5729 H   0  0  0  0  0  0
    1.2842   48.6792   20.4109 H   0  0  0  0  0  0
   -0.5629   49.2957   18.9177 H   0  0  0  0  0  0
   -1.8973   52.2167   21.7733 H   0  0  0  0  0  0
  1  6  2  0  0  0
  1  2  1  0  0  0
  1 40  1  0  0  0
  2  3  2  0  0  0
  2 41  1  0  0  0
  3  4  1  0  0  0
  3 42  1  0  0  0
  4  5  2  0  0  0
  4  7  1  0  0  0
  5  6  1  0  0  0
  5 43  1  0  0  0
  6 44  1  0  0  0
  7  8  1  0  0  0
  7 45  1  0  0  0
  7 46  1  0  0  0
  8  9  1  0  0  0
  9 10  2  0  0  0
  9 11  1  0  0  0
 11 17  1  0  0  0
 11 12  1  0  0  0
 12 13  1  0  0  0
 12 47  1  0  0  0
 12 48  1  0  0  0
 13 14  2  0  0  0
 13 49  1  0  0  0
 14 22  1  0  0  0
 14 15  1  0  0  0
 15 16  1  0  0  0
 15 17  1  0  0  0
 15 18  1  0  0  0
 17 50  1  0  0  0
 17 51  1  0  0  0
 18 19  1  0  0  0
 18 20  1  0  0  0
 18 30  1  0  0  0
 20 21  1  0  0  0
 20 26  1  0  0  0
 20 28  1  0  0  0
 21 22  2  0  0  0
 21 25  1  0  0  0
 22 23  1  0  0  0
 23 24  3  0  0  0
 25 52  1  0  0  0
 25 53  1  0  0  0
 26 27  3  0  0  0
 28 29  3  0  0  0
 30 35  2  0  0  0
 30 31  1  0  0  0
 31 32  2  0  0  0
 31 54  1  0  0  0
 32 33  1  0  0  0
 32 55  1  0  0  0
 33 34  2  0  0  0
 33 56  1  0  0  0
 34 35  1  0  0  0
 34 36  1  0  0  0
 35 57  1  0  0  0
 36 37  1  0  0  0
 36 38  1  0  0  0
 36 39  1  0  0  0
M  END
> <i_i_glide_confnum>
18

> <i_i_glide_lignum>
5047

> <i_i_glide_posenum>
209

> <i_i_glide_rotatable_bonds>
9

> <i_m_Source_File_Index>
2436

> <b_m_subgroup_collapsed>
0

> <r_i_docking_score>
-4.45287

> <r_i_glide_ecoul>
-2.35623

> <r_i_glide_eff_state_penalty>
0

> <r_i_glide_einternal>
5.99018

> <r_i_glide_emodel>
-52.603

> <r_i_glide_energy>
-43.4697

> <r_i_glide_erotb>
0.322544

> <r_i_glide_esite>
-0.202586

> <r_i_glide_evdw>
-41.1135

> <r_i_glide_gscore>
-4.45287

> <r_i_glide_hbond>
-0.0158865

> <r_i_glide_ligand_efficiency>
-0.120348

> <r_i_glide_ligand_efficiency_ln>
-0.965723

> <r_i_glide_ligand_efficiency_sa>
-0.401026

> <r_i_glide_lipo>
-1.45673

> <r_i_glide_metal>
0

> <r_i_glide_rewards>
-0.691104

> <s_i_glide_gridfile>
wee1_glide-grid

> <s_m_Source_File>
wee1_decoys_glide_SP.sdf

> <s_m_Source_Path>
/Users/zhangxujun/Desktop

> <s_m_entry_id>
2711

> <s_m_entry_name>
wee1_decoys_glide_SP.2436

> <s_m_subgroup_title>
wee1_decoys_glide_SP

> <s_m_subgroupid>
wee1_decoys_glide_SP


$$$$
