ZINC47136024_705
                    3D
 Schrodinger Suite 2024-2.
 64 68  0  0  1  0            999 V2000
    2.2916   52.7682   29.4408 C   0  0  0  0  0  0
    3.0508   53.9300   28.7420 C   0  0  0  0  0  0
    2.2560   55.2418   28.9846 C   0  0  0  0  0  0
    4.4221   54.0642   29.4494 C   0  0  0  0  0  0
    3.2478   53.6095   27.2062 C   0  0  2  0  0  0
    3.8210   52.6789   27.1834 H   0  0  0  0  0  0
    4.0488   54.6861   26.4237 C   0  0  0  0  0  0
    4.4806   54.1987   25.0289 C   0  0  0  0  0  0
    3.2624   53.6555   24.2765 C   0  0  0  0  0  0
    2.1055   53.2636   24.9631 C   0  0  0  0  0  0
    0.8875   52.6628   23.8944 S   0  0  0  0  0  0
    1.9263   52.8722   22.5264 C   0  0  0  0  0  0
    3.1542   53.4706   22.8718 C   0  0  0  0  0  0
    4.2581   53.6962   21.9555 C   0  0  0  0  0  0
    5.4231   53.4527   22.2758 O   0  0  0  0  0  0
    3.9049   54.1522   20.7398 N   0  0  0  0  0  0
    4.8332   54.3778   19.6329 C   0  0  1  0  0  0
    5.7682   54.8489   19.9563 H   0  0  0  0  0  0
    5.1849   53.0303   18.9611 C   0  0  0  0  0  0
    5.8846   53.2954   17.6236 C   0  0  0  0  0  0
    4.9992   54.7879   16.9377 S   0  0  0  0  0  0
    5.9959   55.7978   16.5717 O   0  0  0  0  0  0
    3.9712   54.3768   15.9760 O   0  0  0  0  0  0
    4.1747   55.2551   18.5523 C   0  0  0  0  0  0
    1.4822   52.4970   21.2760 N   0  0  0  0  0  0
    0.6667   51.3767   20.9342 C   0  0  2  0  0  0
    0.9188   50.4792   21.5071 H   0  0  0  0  0  0
    0.7117   51.1366   19.4382 C   0  0  0  0  0  0
    1.7589   50.7955   18.5782 C   0  0  0  0  0  0
    1.5043   50.7270   17.2074 C   0  0  0  0  0  0
    0.2263   50.9842   16.7044 C   0  0  0  0  0  0
   -0.8161   51.3098   17.5767 C   0  0  0  0  0  0
   -0.5538   51.3799   18.9436 C   0  0  0  0  0  0
   -1.4212   51.7207   20.0745 C   0  0  0  0  0  0
   -2.6014   52.0631   20.0820 O   0  0  0  0  0  0
   -0.6824   51.6126   21.2042 O   0  0  0  0  0  0
    1.9001   53.3267   26.4716 C   0  0  0  0  0  0
    2.7849   51.8108   29.2646 H   0  0  0  0  0  0
    2.2301   52.9107   30.5209 H   0  0  0  0  0  0
    1.2630   52.6753   29.0844 H   0  0  0  0  0  0
    2.7031   56.0974   28.4833 H   0  0  0  0  0  0
    1.2226   55.1744   28.6438 H   0  0  0  0  0  0
    2.2135   55.4948   30.0459 H   0  0  0  0  0  0
    4.9775   54.9457   29.1332 H   0  0  0  0  0  0
    4.3041   54.1580   30.5284 H   0  0  0  0  0  0
    5.0558   53.1936   29.2676 H   0  0  0  0  0  0
    3.5040   55.6232   26.3642 H   0  0  0  0  0  0
    4.9644   54.9381   26.9530 H   0  0  0  0  0  0
    5.2248   53.4038   25.1249 H   0  0  0  0  0  0
    4.9574   55.0157   24.4884 H   0  0  0  0  0  0
    2.9574   54.4851   20.6008 H   0  0  0  0  0  0
    5.7914   52.4049   19.6156 H   0  0  0  0  0  0
    4.2723   52.4527   18.7862 H   0  0  0  0  0  0
    6.9129   53.5918   17.8297 H   0  0  0  0  0  0
    5.9028   52.4842   16.8959 H   0  0  0  0  0  0
    3.1587   54.8844   18.4088 H   0  0  0  0  0  0
    4.1079   56.3295   18.6983 H   0  0  0  0  0  0
    1.5064   53.1820   20.5333 H   0  0  0  0  0  0
    2.7595   50.6039   18.9427 H   0  0  0  0  0  0
    2.3055   50.4818   16.5282 H   0  0  0  0  0  0
    0.0466   50.9357   15.6400 H   0  0  0  0  0  0
   -1.8032   51.5093   17.1834 H   0  0  0  0  0  0
    1.1692   54.0971   26.6997 H   0  0  0  0  0  0
    1.4872   52.3775   26.8143 H   0  0  0  0  0  0
  1  2  1  0  0  0
  1 38  1  0  0  0
  1 39  1  0  0  0
  1 40  1  0  0  0
  2  3  1  0  0  0
  2  4  1  0  0  0
  2  5  1  0  0  0
  3 41  1  0  0  0
  3 42  1  0  0  0
  3 43  1  0  0  0
  4 44  1  0  0  0
  4 45  1  0  0  0
  4 46  1  0  0  0
  5  6  1  0  0  0
  5 37  1  0  0  0
  5  7  1  0  0  0
  7  8  1  0  0  0
  7 47  1  0  0  0
  7 48  1  0  0  0
  8  9  1  0  0  0
  8 49  1  0  0  0
  8 50  1  0  0  0
  9 13  1  0  0  0
  9 10  2  0  0  0
 10 11  1  0  0  0
 10 37  1  0  0  0
 11 12  1  0  0  0
 12 13  2  0  0  0
 12 25  1  0  0  0
 13 14  1  0  0  0
 14 15  2  0  0  0
 14 16  1  0  0  0
 16 17  1  0  0  0
 16 51  1  0  0  0
 17 18  1  0  0  0
 17 24  1  0  0  0
 17 19  1  0  0  0
 19 20  1  0  0  0
 19 52  1  0  0  0
 19 53  1  0  0  0
 20 21  1  0  0  0
 20 54  1  0  0  0
 20 55  1  0  0  0
 21 22  2  0  0  0
 21 23  2  0  0  0
 21 24  1  0  0  0
 24 56  1  0  0  0
 24 57  1  0  0  0
 25 26  1  0  0  0
 25 58  1  0  0  0
 26 27  1  0  0  0
 26 36  1  0  0  0
 26 28  1  0  0  0
 28 33  2  0  0  0
 28 29  1  0  0  0
 29 30  2  0  0  0
 29 59  1  0  0  0
 30 31  1  0  0  0
 30 60  1  0  0  0
 31 32  2  0  0  0
 31 61  1  0  0  0
 32 33  1  0  0  0
 32 62  1  0  0  0
 33 34  1  0  0  0
 34 35  2  0  0  0
 34 36  1  0  0  0
 37 63  1  0  0  0
 37 64  1  0  0  0
M  END
> <i_i_glide_confnum>
6

> <i_i_glide_lignum>
706

> <i_i_glide_posenum>
39

> <i_i_glide_rotatable_bonds>
6

> <i_m_Source_File_Index>
3418

> <b_m_subgroup_collapsed>
0

> <r_i_docking_score>
-6.58929

> <r_i_glide_ecoul>
-10.513

> <r_i_glide_eff_state_penalty>
0

> <r_i_glide_einternal>
10.2061

> <r_i_glide_emodel>
-61.617

> <r_i_glide_energy>
-46.8784

> <r_i_glide_erotb>
0.404397

> <r_i_glide_esite>
-0.0724853

> <r_i_glide_evdw>
-36.3654

> <r_i_glide_gscore>
-6.58929

> <r_i_glide_hbond>
-0.801363

> <r_i_glide_ligand_efficiency>
-0.193803

> <r_i_glide_ligand_efficiency_ln>
-1.45576

> <r_i_glide_ligand_efficiency_sa>
-0.627845

> <r_i_glide_lipo>
-2.46568

> <r_i_glide_metal>
0

> <r_i_glide_rewards>
-0.258942

> <s_i_glide_gridfile>
wee1_glide-grid

> <s_m_Source_File>
wee1_decoys_glide_SP.sdf

> <s_m_Source_Path>
/Users/zhangxujun/Desktop

> <s_m_entry_id>
3693

> <s_m_entry_name>
wee1_decoys_glide_SP.3418

> <s_m_subgroup_title>
wee1_decoys_glide_SP

> <s_m_subgroupid>
wee1_decoys_glide_SP


$$$$
