ZINC09158554_311
                    3D
 Schrodinger Suite 2024-2.
 79 82  0  0  1  0            999 V2000
    1.7721   55.4195   29.6941 C   0  0  0  0  0  0
    2.5132   55.0329   28.4100 C   0  0  0  0  0  0
    2.1435   53.7345   27.8252 N   0  0  0  0  0  0
    1.8836   52.5749   28.6878 C   0  0  0  0  0  0
    0.4030   52.4042   29.0639 C   0  0  0  0  0  0
    2.2890   53.5383   26.4256 C   0  0  0  0  0  0
    1.5958   52.5106   25.7697 C   0  0  0  0  0  0
    1.7289   52.3161   24.3956 C   0  0  0  0  0  0
    2.4734   53.2150   23.6215 C   0  0  0  0  0  0
    3.1051   54.2782   24.2711 C   0  0  0  0  0  0
    3.1003   54.3842   25.6538 C   0  0  0  0  0  0
    2.6820   53.0684   22.0965 C   0  0  1  0  0  0
    2.4921   54.0589   21.6810 H   0  0  0  0  0  0
    4.1253   52.5674   21.7262 C   0  0  2  0  0  0
    4.2040   51.5429   22.0817 H   0  0  0  0  0  0
    5.3371   53.3878   22.2978 C   0  0  0  0  0  0
    5.4648   54.7515   21.5799 C   0  0  0  0  0  0
    5.6355   54.6106   20.0602 C   0  0  0  0  0  0
    4.4965   53.7551   19.4704 C   0  0  0  0  0  0
    4.3101   52.3950   20.1997 C   0  0  2  0  0  0
    3.2240   51.5016   19.5984 C   0  0  0  0  0  0
    1.8461   52.0928   19.8508 C   0  0  0  0  0  0
    0.1534   52.4959   21.6519 C   0  0  0  0  0  0
   -0.8095   51.2885   21.6171 C   0  0  0  0  0  0
   -1.9607   51.4832   22.0028 O   0  0  0  0  0  0
   -0.3544   50.1171   21.1140 N   0  0  0  0  0  0
   -1.0045   48.8902   20.9627 C   0  0  0  0  0  0
   -0.5263   47.8092   20.1918 C   0  0  0  0  0  0
   -1.4364   46.7034   20.2649 C   0  0  0  0  0  0
   -2.5643   46.9622   21.0632 C   0  0  0  0  0  0
   -2.5160   48.5481   21.7395 S   0  0  0  0  0  0
   -3.7422   46.0720   21.3991 C   0  0  0  0  0  0
   -1.2035   45.3299   19.6464 C   0  0  0  0  0  0
    0.7380   47.8777   19.4177 C   0  0  0  0  0  0
    1.5915   48.7453   19.6137 O   0  0  0  0  0  0
    0.8408   46.9253   18.4669 O   0  0  0  0  0  0
    1.9368   46.9316   17.5576 C   0  0  0  0  0  0
    5.5044   51.6968   20.0817 O   0  0  0  0  0  0
    2.1239   56.3834   30.0664 H   0  0  0  0  0  0
    0.7048   55.5133   29.5044 H   0  0  0  0  0  0
    1.9107   54.6851   30.4826 H   0  0  0  0  0  0
    3.5889   55.0395   28.5912 H   0  0  0  0  0  0
    2.3088   55.8223   27.6846 H   0  0  0  0  0  0
    2.2359   51.6621   28.2056 H   0  0  0  0  0  0
    2.4895   52.6498   29.5901 H   0  0  0  0  0  0
    0.2524   51.4765   29.6175 H   0  0  0  0  0  0
    0.0488   53.2134   29.6979 H   0  0  0  0  0  0
   -0.2407   52.3655   28.1854 H   0  0  0  0  0  0
    0.9733   51.8215   26.3200 H   0  0  0  0  0  0
    1.2394   51.4620   23.9512 H   0  0  0  0  0  0
    3.6669   55.0064   23.7098 H   0  0  0  0  0  0
    3.6691   55.1807   26.1063 H   0  0  0  0  0  0
    5.2747   53.5182   23.3740 H   0  0  0  0  0  0
    6.2777   52.8359   22.2023 H   0  0  0  0  0  0
    4.5380   55.2973   21.7101 H   0  0  0  0  0  0
    6.2697   55.3486   22.0072 H   0  0  0  0  0  0
    5.6481   55.5955   19.5896 H   0  0  0  0  0  0
    6.6008   54.1582   19.8281 H   0  0  0  0  0  0
    4.6618   53.5841   18.4060 H   0  0  0  0  0  0
    3.5703   54.3295   19.4982 H   0  0  0  0  0  0
    3.2513   50.5172   20.0653 H   0  0  0  0  0  0
    3.3630   51.3753   18.5209 H   0  0  0  0  0  0
    1.1028   51.4337   19.4022 H   0  0  0  0  0  0
    1.7134   53.0937   19.4426 H   0  0  0  0  0  0
   -0.0954   53.2213   20.8860 H   0  0  0  0  0  0
    0.0698   52.9827   22.6197 H   0  0  0  0  0  0
    0.5567   50.1270   20.6772 H   0  0  0  0  0  0
   -3.8290   45.2068   20.7396 H   0  0  0  0  0  0
   -3.6777   45.6934   22.4189 H   0  0  0  0  0  0
   -4.6870   46.6144   21.3194 H   0  0  0  0  0  0
   -1.7657   44.5357   20.1355 H   0  0  0  0  0  0
   -1.4414   45.3175   18.5828 H   0  0  0  0  0  0
   -0.1627   45.0159   19.7333 H   0  0  0  0  0  0
    1.8775   46.0725   16.8917 H   0  0  0  0  0  0
    2.8933   46.8975   18.0809 H   0  0  0  0  0  0
    1.9294   47.8338   16.9451 H   0  0  0  0  0  0
    5.4801   51.1257   19.2820 H   0  0  0  0  0  0
    1.6414   52.1235   21.3953 N   0  3  2  0  0  0
    1.8291   51.1924   21.7410 H   0  0  0  0  0  0
  1  2  1  0  0  0
  1 39  1  0  0  0
  1 40  1  0  0  0
  1 41  1  0  0  0
  2  3  1  0  0  0
  2 42  1  0  0  0
  2 43  1  0  0  0
  3  4  1  0  0  0
  3  6  1  0  0  0
  4  5  1  0  0  0
  4 44  1  0  0  0
  4 45  1  0  0  0
  5 46  1  0  0  0
  5 47  1  0  0  0
  5 48  1  0  0  0
  6 11  2  0  0  0
  6  7  1  0  0  0
  7  8  2  0  0  0
  7 49  1  0  0  0
  8  9  1  0  0  0
  8 50  1  0  0  0
  9 10  2  0  0  0
  9 12  1  0  0  0
 10 11  1  0  0  0
 10 51  1  0  0  0
 11 52  1  0  0  0
 12 13  1  0  0  0
 12 14  1  0  0  0
 12 78  1  0  0  0
 14 15  1  0  0  0
 14 20  1  0  0  0
 14 16  1  0  0  0
 16 17  1  0  0  0
 16 53  1  0  0  0
 16 54  1  0  0  0
 17 18  1  0  0  0
 17 55  1  0  0  0
 17 56  1  0  0  0
 18 19  1  0  0  0
 18 57  1  0  0  0
 18 58  1  0  0  0
 19 20  1  0  0  0
 19 59  1  0  0  0
 19 60  1  0  0  0
 20 21  1  0  0  0
 20 38  1  0  0  0
 21 22  1  0  0  0
 21 61  1  0  0  0
 21 62  1  0  0  0
 22 63  1  0  0  0
 22 64  1  0  0  0
 22 78  1  0  0  0
 23 24  1  0  0  0
 23 65  1  0  0  0
 23 66  1  0  0  0
 23 78  1  0  0  0
 24 25  2  0  0  0
 24 26  1  0  0  0
 26 27  1  0  0  0
 26 67  1  0  0  0
 27 31  1  0  0  0
 27 28  2  0  0  0
 28 29  1  0  0  0
 28 34  1  0  0  0
 29 30  2  0  0  0
 29 33  1  0  0  0
 30 31  1  0  0  0
 30 32  1  0  0  0
 32 68  1  0  0  0
 32 69  1  0  0  0
 32 70  1  0  0  0
 33 71  1  0  0  0
 33 72  1  0  0  0
 33 73  1  0  0  0
 34 35  2  0  0  0
 34 36  1  0  0  0
 36 37  1  0  0  0
 37 74  1  0  0  0
 37 75  1  0  0  0
 37 76  1  0  0  0
 38 77  1  0  0  0
 78 79  1  0  0  0
M  CHG  1  78   1
M  END
> <i_i_glide_confnum>
87

> <i_i_glide_lignum>
312

> <i_i_glide_posenum>
280

> <i_i_glide_rotatable_bonds>
11

> <i_m_Source_File_Index>
3534

> <b_m_subgroup_collapsed>
0

> <r_i_docking_score>
-5.11692

> <r_i_glide_ecoul>
-9.48655

> <r_i_glide_eff_state_penalty>
0

> <r_i_glide_einternal>
20.0136

> <r_i_glide_emodel>
-34.9293

> <r_i_glide_energy>
-31.8079

> <r_i_glide_erotb>
0.515905

> <r_i_glide_esite>
-0.0222145

> <r_i_glide_evdw>
-22.3214

> <r_i_glide_gscore>
-5.11692

> <r_i_glide_hbond>
-0.264662

> <r_i_glide_ligand_efficiency>
-0.138295

> <r_i_glide_ligand_efficiency_ln>
-1.10974

> <r_i_glide_ligand_efficiency_sa>
-0.46083

> <r_i_glide_lipo>
-2.56209

> <r_i_glide_metal>
0

> <r_i_glide_rewards>
-0.2448

> <s_i_glide_gridfile>
wee1_glide-grid

> <s_m_Source_File>
wee1_decoys_glide_SP.sdf

> <s_m_Source_Path>
/Users/zhangxujun/Desktop

> <s_m_entry_id>
3809

> <s_m_entry_name>
wee1_decoys_glide_SP.3534

> <s_m_subgroup_title>
wee1_decoys_glide_SP

> <s_m_subgroupid>
wee1_decoys_glide_SP


$$$$
