ZINC16044981_4533
                    3D
 Schrodinger Suite 2024-2.
 61 65  0  0  1  0            999 V2000
    3.1566   52.4986   16.9185 C   0  0  0  0  0  0
    3.5059   52.8179   18.3650 C   0  0  0  0  0  0
    4.5406   53.7276   18.6128 C   0  0  0  0  0  0
    4.9401   54.0245   19.9154 C   0  0  0  0  0  0
    4.3053   53.4018   20.9969 C   0  0  0  0  0  0
    3.2726   52.4966   20.7527 C   0  0  0  0  0  0
    2.8599   52.1975   19.4514 C   0  0  0  0  0  0
    1.5180   51.0109   19.2589 S   0  0  0  0  0  0
    0.8644   50.8556   20.5646 O   0  0  0  0  0  0
    0.7218   51.3849   18.0847 O   0  0  0  0  0  0
    2.3036   49.4700   18.8816 N   0  0  0  0  0  0
    1.5271   48.3218   18.6883 C   0  0  0  0  0  0
    0.6586   47.8620   19.6812 C   0  0  0  0  0  0
   -0.0965   46.7106   19.4683 C   0  0  0  0  0  0
    0.0306   46.0126   18.2702 C   0  0  0  0  0  0
    0.8946   46.4653   17.2761 C   0  0  0  0  0  0
    1.6399   47.6232   17.4855 C   0  0  0  0  0  0
   -0.6873   44.8840   18.0733 F   0  0  0  0  0  0
    4.5999   53.6257   22.3482 N   0  0  0  0  0  0
    5.5699   54.3548   22.9377 C   0  0  0  0  0  0
    6.4823   54.9257   22.3384 O   0  0  0  0  0  0
    5.4799   54.4031   24.4510 C   0  0  0  0  0  0
    6.6155   54.7206   25.2073 C   0  0  0  0  0  0
    6.6196   54.7002   26.6040 C   0  0  0  0  0  0
    5.4317   54.3356   27.2359 C   0  0  0  0  0  0
    4.2493   54.0216   26.5101 C   0  0  0  0  0  0
    4.2773   54.0967   25.1138 C   0  0  0  0  0  0
    3.2487   53.6340   27.4610 C   0  0  0  0  0  0
    3.8261   53.7810   28.7136 C   0  0  0  0  0  0
    5.1298   54.1831   28.5700 N   0  0  0  0  0  0
    5.7494   54.3233   29.3549 H   0  0  0  0  0  0
    3.1762   53.4021   30.0289 C   0  0  0  0  0  0
    1.9948   52.4581   29.7188 C   0  0  0  0  0  0
    1.0826   53.0302   28.6092 C   0  0  1  0  0  0
    0.7653   54.0420   28.8692 H   0  0  0  0  0  0
    1.8351   53.0913   27.2504 C   0  0  0  0  0  0
   -0.2017   52.1922   28.4659 C   0  0  0  0  0  0
    3.0610   51.4209   16.7791 H   0  0  0  0  0  0
    2.2143   52.9676   16.6351 H   0  0  0  0  0  0
    3.9365   52.8245   16.2294 H   0  0  0  0  0  0
    5.0487   54.2075   17.7890 H   0  0  0  0  0  0
    5.7365   54.7376   20.0574 H   0  0  0  0  0  0
    2.7809   52.0173   21.5870 H   0  0  0  0  0  0
    3.0306   49.5704   18.1784 H   0  0  0  0  0  0
    0.5693   48.3885   20.6194 H   0  0  0  0  0  0
   -0.7690   46.3531   20.2337 H   0  0  0  0  0  0
    0.9854   45.9219   16.3474 H   0  0  0  0  0  0
    2.3040   47.9797   16.7111 H   0  0  0  0  0  0
    3.9683   53.1674   22.9838 H   0  0  0  0  0  0
    7.5340   54.9665   24.6938 H   0  0  0  0  0  0
    7.5041   54.9165   27.1804 H   0  0  0  0  0  0
    3.3723   53.8647   24.5731 H   0  0  0  0  0  0
    2.7918   54.3134   30.4817 H   0  0  0  0  0  0
    3.8780   52.9467   30.7290 H   0  0  0  0  0  0
    1.4135   52.3107   30.6310 H   0  0  0  0  0  0
    2.3328   51.4574   29.4446 H   0  0  0  0  0  0
    1.9040   52.0965   26.8085 H   0  0  0  0  0  0
    1.2853   53.7089   26.5409 H   0  0  0  0  0  0
    0.0187   51.1553   28.2062 H   0  0  0  0  0  0
   -0.8539   52.5943   27.6899 H   0  0  0  0  0  0
   -0.7728   52.1804   29.3953 H   0  0  0  0  0  0
  1  2  1  0  0  0
  1 38  1  0  0  0
  1 39  1  0  0  0
  1 40  1  0  0  0
  2  7  2  0  0  0
  2  3  1  0  0  0
  3  4  2  0  0  0
  3 41  1  0  0  0
  4  5  1  0  0  0
  4 42  1  0  0  0
  5  6  2  0  0  0
  5 19  1  0  0  0
  6  7  1  0  0  0
  6 43  1  0  0  0
  7  8  1  0  0  0
  8  9  2  0  0  0
  8 10  2  0  0  0
  8 11  1  0  0  0
 11 12  1  0  0  0
 11 44  1  0  0  0
 12 17  2  0  0  0
 12 13  1  0  0  0
 13 14  2  0  0  0
 13 45  1  0  0  0
 14 15  1  0  0  0
 14 46  1  0  0  0
 15 16  2  0  0  0
 15 18  1  0  0  0
 16 17  1  0  0  0
 16 47  1  0  0  0
 17 48  1  0  0  0
 19 20  1  0  0  0
 19 49  1  0  0  0
 20 21  2  0  0  0
 20 22  1  0  0  0
 22 27  2  0  0  0
 22 23  1  0  0  0
 23 24  2  0  0  0
 23 50  1  0  0  0
 24 25  1  0  0  0
 24 51  1  0  0  0
 25 30  1  0  0  0
 25 26  2  0  0  0
 26 27  1  0  0  0
 26 28  1  0  0  0
 27 52  1  0  0  0
 28 36  1  0  0  0
 28 29  2  0  0  0
 29 30  1  0  0  0
 29 32  1  0  0  0
 30 31  1  0  0  0
 32 33  1  0  0  0
 32 53  1  0  0  0
 32 54  1  0  0  0
 33 34  1  0  0  0
 33 55  1  0  0  0
 33 56  1  0  0  0
 34 35  1  0  0  0
 34 36  1  0  0  0
 34 37  1  0  0  0
 36 57  1  0  0  0
 36 58  1  0  0  0
 37 59  1  0  0  0
 37 60  1  0  0  0
 37 61  1  0  0  0
M  END
> <i_i_glide_confnum>
94

> <i_i_glide_lignum>
4534

> <i_i_glide_posenum>
397

> <i_i_glide_rotatable_bonds>
6

> <i_m_Source_File_Index>
4932

> <b_m_subgroup_collapsed>
0

> <r_i_docking_score>
-2.91316

> <r_i_glide_ecoul>
-2.60794

> <r_i_glide_eff_state_penalty>
0

> <r_i_glide_einternal>
10.0327

> <r_i_glide_emodel>
-49.266

> <r_i_glide_energy>
-52.4319

> <r_i_glide_erotb>
0.50549

> <r_i_glide_esite>
-0.150196

> <r_i_glide_evdw>
-49.8239

> <r_i_glide_gscore>
-2.91316

> <r_i_glide_hbond>
-0.16

> <r_i_glide_ligand_efficiency>
-0.0832332

> <r_i_glide_ligand_efficiency_ln>
-0.639504

> <r_i_glide_ligand_efficiency_sa>
-0.272261

> <r_i_glide_lipo>
-2.60038

> <r_i_glide_metal>
0

> <r_i_glide_rewards>
2.37431

> <s_i_glide_gridfile>
wee1_glide-grid

> <s_m_Source_File>
wee1_decoys_glide_SP.sdf

> <s_m_Source_Path>
/Users/zhangxujun/Desktop

> <s_m_entry_id>
5207

> <s_m_entry_name>
wee1_decoys_glide_SP.4932

> <s_m_subgroup_title>
wee1_decoys_glide_SP

> <s_m_subgroupid>
wee1_decoys_glide_SP


$$$$
