ZINC39639424_4080
                    3D
 Schrodinger Suite 2024-2.
 75 78  0  0  1  0            999 V2000
   -5.7399   49.5707   28.3473 C   0  0  0  0  0  0
   -5.2714   49.9239   26.9518 C   0  0  0  0  0  0
   -4.8078   48.9248   26.0933 C   0  0  0  0  0  0
   -4.3244   49.2586   24.8310 C   0  0  0  0  0  0
   -4.2885   50.6009   24.4265 C   0  0  0  0  0  0
   -4.8211   51.5866   25.2664 C   0  0  0  0  0  0
   -5.3027   51.2521   26.5299 C   0  0  0  0  0  0
   -3.6930   51.0173   23.0739 C   0  0  2  0  0  0
   -4.1016   52.0029   22.8821 H   0  0  0  0  0  0
   -4.1203   50.1070   21.9120 C   0  0  0  0  0  0
   -2.2324   51.1624   23.1007 N   0  0  0  0  0  0
   -1.5616   52.2433   23.5336 C   0  0  0  0  0  0
   -2.1406   53.3071   23.7511 O   0  0  0  0  0  0
   -0.0249   52.0960   23.7057 C   0  0  1  0  0  0
    0.3395   51.5117   22.8563 H   0  0  0  0  0  0
    0.6540   53.5069   23.6550 C   0  0  0  0  0  0
    1.8024   53.4062   24.5682 N   0  0  0  0  0  0
    1.8476   52.0985   25.1546 C   0  0  0  0  0  0
    0.4734   51.4636   25.0476 C   0  0  0  0  0  0
   -0.2188   51.8406   26.3944 C   0  0  0  0  0  0
   -1.6022   51.2130   26.5983 C   0  0  0  0  0  0
   -1.5526   49.6971   26.3307 N   0  3  0  0  0  0
   -0.6735   49.1521   25.1817 C   0  0  0  0  0  0
    0.6516   49.9264   25.0935 C   0  0  0  0  0  0
    2.9262   54.1529   24.4366 C   0  0  0  0  0  0
    3.0211   54.8959   23.4690 O   0  0  0  0  0  0
    4.0999   54.2031   25.4887 C   0  0  2  0  0  0
    4.1850   55.2361   25.8238 H   0  0  0  0  0  0
    5.4912   53.8635   24.8549 C   0  0  0  0  0  0
    6.0076   54.8525   23.7821 C   0  0  0  0  0  0
    6.5810   53.7017   25.9304 C   0  0  0  0  0  0
    3.9270   53.3281   26.6317 O   0  0  0  0  0  0
    3.1758   53.6621   27.7505 C   0  0  0  0  0  0
    3.0115   52.6534   28.7081 C   0  0  0  0  0  0
    2.2305   52.8599   29.8452 C   0  0  0  0  0  0
    1.6146   54.0977   30.0370 C   0  0  0  0  0  0
    1.8029   55.1280   29.1122 C   0  0  0  0  0  0
    2.5771   54.9025   27.9784 C   0  0  0  0  0  0
   -6.6209   50.1524   28.6191 H   0  0  0  0  0  0
   -6.0187   48.5215   28.4384 H   0  0  0  0  0  0
   -4.9534   49.7968   29.0637 H   0  0  0  0  0  0
   -4.8114   47.8868   26.4032 H   0  0  0  0  0  0
   -3.9565   48.4735   24.1863 H   0  0  0  0  0  0
   -4.8264   52.6240   24.9671 H   0  0  0  0  0  0
   -5.6777   52.0277   27.1857 H   0  0  0  0  0  0
   -5.2068   50.0002   21.8704 H   0  0  0  0  0  0
   -3.7940   50.5118   20.9565 H   0  0  0  0  0  0
   -3.6904   49.1068   21.9850 H   0  0  0  0  0  0
   -1.7016   50.3516   22.8341 H   0  0  0  0  0  0
   -0.0097   54.2498   24.0933 H   0  0  0  0  0  0
    0.9997   53.7250   22.6426 H   0  0  0  0  0  0
    2.5216   51.5499   24.4908 H   0  0  0  0  0  0
    2.2650   52.0924   26.1499 H   0  0  0  0  0  0
    0.3978   51.5428   27.2447 H   0  0  0  0  0  0
   -0.2899   52.9186   26.4929 H   0  0  0  0  0  0
   -1.9628   51.3313   27.6218 H   0  0  0  0  0  0
   -2.3499   51.6386   25.9426 H   0  0  0  0  0  0
   -1.2976   49.1982   27.1933 H   0  0  0  0  0  0
   -0.5080   48.1031   25.4176 H   0  0  0  0  0  0
   -1.2701   49.1994   24.2831 H   0  0  0  0  0  0
    1.2074   49.5856   24.2251 H   0  0  0  0  0  0
    1.2919   49.6564   25.9371 H   0  0  0  0  0  0
    5.4056   52.9026   24.3450 H   0  0  0  0  0  0
    6.0420   55.8802   24.1466 H   0  0  0  0  0  0
    7.0226   54.5951   23.4669 H   0  0  0  0  0  0
    5.4009   54.8327   22.8801 H   0  0  0  0  0  0
    6.7645   54.6371   26.4610 H   0  0  0  0  0  0
    6.3265   52.9389   26.6700 H   0  0  0  0  0  0
    7.5038   53.3856   25.4588 H   0  0  0  0  0  0
    3.4817   51.7012   28.5507 H   0  0  0  0  0  0
    2.0871   52.0706   30.5697 H   0  0  0  0  0  0
    1.0099   54.2597   30.9167 H   0  0  0  0  0  0
    1.3503   56.1006   29.2583 H   0  0  0  0  0  0
    2.6874   55.6966   27.2727 H   0  0  0  0  0  0
   -2.5029   49.3824   26.1949 H   0  0  0  0  0  0
  1  2  1  0  0  0
  1 39  1  0  0  0
  1 40  1  0  0  0
  1 41  1  0  0  0
  2  7  2  0  0  0
  2  3  1  0  0  0
  3  4  2  0  0  0
  3 42  1  0  0  0
  4  5  1  0  0  0
  4 43  1  0  0  0
  5  6  2  0  0  0
  5  8  1  0  0  0
  6  7  1  0  0  0
  6 44  1  0  0  0
  7 45  1  0  0  0
  8  9  1  0  0  0
  8 10  1  0  0  0
  8 11  1  0  0  0
 10 46  1  0  0  0
 10 47  1  0  0  0
 10 48  1  0  0  0
 11 12  1  0  0  0
 11 49  1  0  0  0
 12 13  2  0  0  0
 12 14  1  0  0  0
 14 15  1  0  0  0
 14 19  1  0  0  0
 14 16  1  0  0  0
 16 17  1  0  0  0
 16 50  1  0  0  0
 16 51  1  0  0  0
 17 18  1  0  0  0
 17 25  1  0  0  0
 18 19  1  0  0  0
 18 52  1  0  0  0
 18 53  1  0  0  0
 19 24  1  0  0  0
 19 20  1  0  0  0
 20 21  1  0  0  0
 20 54  1  0  0  0
 20 55  1  0  0  0
 21 22  1  0  0  0
 21 56  1  0  0  0
 21 57  1  0  0  0
 22 23  1  0  0  0
 22 58  1  0  0  0
 22 75  1  0  0  0
 23 24  1  0  0  0
 23 59  1  0  0  0
 23 60  1  0  0  0
 24 61  1  0  0  0
 24 62  1  0  0  0
 25 26  2  0  0  0
 25 27  1  0  0  0
 27 28  1  0  0  0
 27 29  1  0  0  0
 27 32  1  0  0  0
 29 30  1  0  0  0
 29 31  1  0  0  0
 29 63  1  0  0  0
 30 64  1  0  0  0
 30 65  1  0  0  0
 30 66  1  0  0  0
 31 67  1  0  0  0
 31 68  1  0  0  0
 31 69  1  0  0  0
 32 33  1  0  0  0
 33 38  2  0  0  0
 33 34  1  0  0  0
 34 35  2  0  0  0
 34 70  1  0  0  0
 35 36  1  0  0  0
 35 71  1  0  0  0
 36 37  2  0  0  0
 36 72  1  0  0  0
 37 38  1  0  0  0
 37 73  1  0  0  0
 38 74  1  0  0  0
M  CHG  1  22   1
M  END
> <i_i_glide_confnum>
55

> <i_i_glide_lignum>
4081

> <i_i_glide_posenum>
252

> <i_i_glide_rotatable_bonds>
9

> <i_m_Source_File_Index>
5601

> <b_m_subgroup_collapsed>
0

> <r_i_docking_score>
-4.84765

> <r_i_glide_ecoul>
-4.65882

> <r_i_glide_eff_state_penalty>
0

> <r_i_glide_einternal>
10.5758

> <r_i_glide_emodel>
-29.3646

> <r_i_glide_energy>
-31.2744

> <r_i_glide_erotb>
0.619208

> <r_i_glide_esite>
-0.1

> <r_i_glide_evdw>
-26.6156

> <r_i_glide_gscore>
-4.84765

> <r_i_glide_hbond>
-0.167598

> <r_i_glide_ligand_efficiency>
-0.138504

> <r_i_glide_ligand_efficiency_ln>
-1.06417

> <r_i_glide_ligand_efficiency_sa>
-0.453057

> <r_i_glide_lipo>
-2.59843

> <r_i_glide_metal>
0

> <r_i_glide_rewards>
-0.571226

> <s_i_glide_gridfile>
wee1_glide-grid

> <s_m_Source_File>
wee1_decoys_glide_SP.sdf

> <s_m_Source_Path>
/Users/zhangxujun/Desktop

> <s_m_entry_id>
5876

> <s_m_entry_name>
wee1_decoys_glide_SP.5601

> <s_m_subgroup_title>
wee1_decoys_glide_SP

> <s_m_subgroupid>
wee1_decoys_glide_SP


$$$$
