ZINC35396638_5522
                    3D
 Schrodinger Suite 2024-2.
 68 71  0  0  1  0            999 V2000
    4.8124   56.3137   18.4095 C   0  0  0  0  0  0
    5.9080   56.4248   19.4825 C   0  0  0  0  0  0
    6.5289   55.0604   19.8658 C   0  0  1  0  0  0
    7.1091   54.6959   19.0166 H   0  0  0  0  0  0
    7.5421   55.2969   21.0348 C   0  0  0  0  0  0
    8.6896   55.7020   20.8824 O   0  0  0  0  0  0
    7.0373   54.9910   22.2461 N   0  0  0  0  0  0
    5.7595   54.4966   22.5029 C   0  0  0  0  0  0
    5.2325   54.4511   23.7917 C   0  0  0  0  0  0
    3.9199   54.0022   24.0073 C   0  0  0  0  0  0
    3.1395   53.5533   22.9142 C   0  0  0  0  0  0
    3.6928   53.5903   21.6267 C   0  0  0  0  0  0
    4.9806   54.0743   21.4304 C   0  0  0  0  0  0
    5.5068   54.0698   20.1570 O   0  0  0  0  0  0
    1.4184   52.9962   23.0583 S   0  0  0  0  0  0
    1.0089   52.5160   21.7327 O   0  0  0  0  0  0
    0.7023   54.0966   23.7043 O   0  0  0  0  0  0
    1.3864   51.6046   24.1557 N   0  0  0  0  0  0
    1.7338   50.2506   23.6476 C   0  0  0  0  0  0
    0.6511   49.2173   23.9931 C   0  0  0  0  0  0
    0.3497   49.2307   25.5047 C   0  0  0  0  0  0
   -0.0302   50.6335   26.0490 C   0  0  1  0  0  0
   -0.0535   50.6091   27.1405 H   0  0  0  0  0  0
    0.9475   51.7517   25.5804 C   0  0  0  0  0  0
   -1.4801   50.9703   25.6317 C   0  0  0  0  0  0
   -1.7087   51.5528   24.5683 O   0  0  0  0  0  0
   -2.4415   50.5695   26.4887 N   0  0  0  0  0  0
   -3.8272   50.7709   26.3392 C   0  0  0  0  0  0
   -4.4057   52.0494   26.1409 C   0  0  0  0  0  0
   -5.7932   52.1609   26.0188 C   0  0  0  0  0  0
   -6.6125   51.0371   26.1023 C   0  0  0  0  0  0
   -6.0429   49.7820   26.3100 C   0  0  0  0  0  0
   -4.6606   49.6383   26.4408 C   0  0  0  0  0  0
   -4.0933   48.2399   26.6728 C   0  0  0  0  0  0
   -8.1156   51.1755   25.9623 C   0  0  0  0  0  0
   -3.5974   53.3439   26.1167 C   0  0  0  0  0  0
    3.4034   54.0429   25.4366 C   0  0  0  0  0  0
    4.4405   57.2962   18.1197 H   0  0  0  0  0  0
    5.1916   55.8316   17.5078 H   0  0  0  0  0  0
    3.9616   55.7298   18.7654 H   0  0  0  0  0  0
    5.5046   56.9131   20.3675 H   0  0  0  0  0  0
    6.6877   57.0878   19.1020 H   0  0  0  0  0  0
    7.6757   55.1762   23.0086 H   0  0  0  0  0  0
    5.8305   54.7909   24.6246 H   0  0  0  0  0  0
    3.1241   53.2720   20.7645 H   0  0  0  0  0  0
    2.6841   49.9484   24.0809 H   0  0  0  0  0  0
    1.8925   50.3010   22.5702 H   0  0  0  0  0  0
    0.9712   48.2250   23.6800 H   0  0  0  0  0  0
   -0.2545   49.4295   23.4228 H   0  0  0  0  0  0
    1.2029   48.8610   26.0763 H   0  0  0  0  0  0
   -0.3939   48.4869   25.7998 H   0  0  0  0  0  0
    0.5310   52.7476   25.7345 H   0  0  0  0  0  0
    1.8500   51.6997   26.1833 H   0  0  0  0  0  0
   -2.1659   49.9118   27.2127 H   0  0  0  0  0  0
   -6.2411   53.1333   25.8696 H   0  0  0  0  0  0
   -6.6819   48.9131   26.3782 H   0  0  0  0  0  0
   -3.6961   48.1556   27.6852 H   0  0  0  0  0  0
   -4.8378   47.4582   26.5191 H   0  0  0  0  0  0
   -3.2734   48.0421   25.9829 H   0  0  0  0  0  0
   -8.3817   52.0761   25.4074 H   0  0  0  0  0  0
   -8.5882   51.2088   26.9429 H   0  0  0  0  0  0
   -8.5288   50.3308   25.4095 H   0  0  0  0  0  0
   -2.7079   53.2713   26.7399 H   0  0  0  0  0  0
   -3.3020   53.6074   25.1014 H   0  0  0  0  0  0
   -4.1760   54.1754   26.5166 H   0  0  0  0  0  0
    3.9205   54.8091   26.0184 H   0  0  0  0  0  0
    2.3490   54.3046   25.4897 H   0  0  0  0  0  0
    3.5607   53.0811   25.9253 H   0  0  0  0  0  0
  1  2  1  0  0  0
  1 38  1  0  0  0
  1 39  1  0  0  0
  1 40  1  0  0  0
  2  3  1  0  0  0
  2 41  1  0  0  0
  2 42  1  0  0  0
  3  4  1  0  0  0
  3 14  1  0  0  0
  3  5  1  0  0  0
  5  6  2  0  0  0
  5  7  1  0  0  0
  7  8  1  0  0  0
  7 43  1  0  0  0
  8 13  2  0  0  0
  8  9  1  0  0  0
  9 10  2  0  0  0
  9 44  1  0  0  0
 10 11  1  0  0  0
 10 37  1  0  0  0
 11 12  2  0  0  0
 11 15  1  0  0  0
 12 13  1  0  0  0
 12 45  1  0  0  0
 13 14  1  0  0  0
 15 16  2  0  0  0
 15 17  2  0  0  0
 15 18  1  0  0  0
 18 24  1  0  0  0
 18 19  1  0  0  0
 19 20  1  0  0  0
 19 46  1  0  0  0
 19 47  1  0  0  0
 20 21  1  0  0  0
 20 48  1  0  0  0
 20 49  1  0  0  0
 21 22  1  0  0  0
 21 50  1  0  0  0
 21 51  1  0  0  0
 22 23  1  0  0  0
 22 24  1  0  0  0
 22 25  1  0  0  0
 24 52  1  0  0  0
 24 53  1  0  0  0
 25 26  2  0  0  0
 25 27  1  0  0  0
 27 28  1  0  0  0
 27 54  1  0  0  0
 28 33  2  0  0  0
 28 29  1  0  0  0
 29 30  2  0  0  0
 29 36  1  0  0  0
 30 31  1  0  0  0
 30 55  1  0  0  0
 31 32  2  0  0  0
 31 35  1  0  0  0
 32 33  1  0  0  0
 32 56  1  0  0  0
 33 34  1  0  0  0
 34 57  1  0  0  0
 34 58  1  0  0  0
 34 59  1  0  0  0
 35 60  1  0  0  0
 35 61  1  0  0  0
 35 62  1  0  0  0
 36 63  1  0  0  0
 36 64  1  0  0  0
 36 65  1  0  0  0
 37 66  1  0  0  0
 37 67  1  0  0  0
 37 68  1  0  0  0
M  END
> <i_i_glide_confnum>
88

> <i_i_glide_lignum>
5523

> <i_i_glide_posenum>
180

> <i_i_glide_rotatable_bonds>
6

> <i_m_Source_File_Index>
5127

> <b_m_subgroup_collapsed>
0

> <r_i_docking_score>
-3.97784

> <r_i_glide_ecoul>
-4.98202

> <r_i_glide_eff_state_penalty>
0

> <r_i_glide_einternal>
3.83223

> <r_i_glide_emodel>
-49.5579

> <r_i_glide_energy>
-41.3752

> <r_i_glide_erotb>
0.408898

> <r_i_glide_esite>
-0.117557

> <r_i_glide_evdw>
-36.3932

> <r_i_glide_gscore>
-3.97784

> <r_i_glide_hbond>
-0.381396

> <r_i_glide_ligand_efficiency>
-0.113653

> <r_i_glide_ligand_efficiency_ln>
-0.873225

> <r_i_glide_ligand_efficiency_sa>
-0.371765

> <r_i_glide_lipo>
-1.5991

> <r_i_glide_metal>
0

> <r_i_glide_rewards>
0.278276

> <s_i_glide_gridfile>
wee1_glide-grid

> <s_m_Source_File>
wee1_decoys_glide_SP.sdf

> <s_m_Source_Path>
/Users/zhangxujun/Desktop

> <s_m_entry_id>
5402

> <s_m_entry_name>
wee1_decoys_glide_SP.5127

> <s_m_subgroup_title>
wee1_decoys_glide_SP

> <s_m_subgroupid>
wee1_decoys_glide_SP


$$$$
