ZINC36214563_3129
                    3D
 Schrodinger Suite 2024-2.
 62 66  0  0  1  0            999 V2000
    1.7505   55.4030   29.2929 C   0  0  0  0  0  0
    1.0322   55.2219   30.4718 C   0  0  0  0  0  0
    0.6891   53.9340   30.8818 C   0  0  0  0  0  0
    1.0956   52.8210   30.1479 C   0  0  0  0  0  0
    1.8272   52.9945   28.9751 C   0  0  0  0  0  0
    2.1374   54.2887   28.5467 C   0  0  0  0  0  0
    2.6922   54.4968   27.2816 N   0  0  0  0  0  0
    3.9396   54.2541   26.7703 C   0  0  0  0  0  0
    5.2144   53.7762   27.7623 S   0  0  0  0  0  0
    4.0400   54.4516   25.4003 N   0  0  0  0  0  0
    2.8183   54.4905   24.5361 C   0  0  0  0  0  0
    3.0356   53.5427   23.3472 C   0  0  0  0  0  0
    4.2311   54.0110   22.4982 C   0  0  0  0  0  0
    5.4614   53.9270   23.4363 C   0  0  0  0  0  0
    5.3311   54.7746   24.7240 C   0  0  0  0  0  0
    4.4392   53.2032   21.1667 C   0  0  2  0  0  0
    5.0005   52.3152   21.4594 H   0  0  0  0  0  0
    5.3694   53.9051   20.1407 C   0  0  0  0  0  0
    5.9002   54.9786   20.4289 O   0  0  0  0  0  0
    5.5597   53.2577   18.9739 N   0  0  0  0  0  0
    6.4258   53.6055   17.8419 C   0  0  0  0  0  0
    6.6393   55.0470   17.4299 C   0  0  0  0  0  0
    7.7717   54.2673   18.0625 C   0  0  0  0  0  0
    3.1843   52.7499   20.5322 N   0  0  0  0  0  0
    2.8273   51.4655   20.3282 C   0  0  0  0  0  0
    3.5079   50.4983   20.6642 O   0  0  0  0  0  0
    1.5060   51.2369   19.6478 C   0  0  0  0  0  0
    1.4131   50.2545   18.6398 C   0  0  0  0  0  0
    0.1882   49.9553   18.0320 C   0  0  0  0  0  0
   -0.9336   50.6442   18.4761 C   0  0  0  0  0  0
   -0.8573   51.5974   19.4508 C   0  0  0  0  0  0
    0.3524   51.9418   20.0473 C   0  0  0  0  0  0
   -2.1002   52.0984   19.6844 O   0  0  0  0  0  0
   -2.9798   51.2668   18.9771 C   0  0  0  0  0  0
   -2.2217   50.5313   18.0576 O   0  0  0  0  0  0
   -0.0556   53.7673   31.9953 F   0  0  0  0  0  0
    1.9769   56.4041   28.9523 H   0  0  0  0  0  0
    0.7138   56.0754   31.0530 H   0  0  0  0  0  0
    0.8163   51.8313   30.4799 H   0  0  0  0  0  0
    2.1081   52.1345   28.3824 H   0  0  0  0  0  0
    2.1027   55.0677   26.6973 H   0  0  0  0  0  0
    2.6943   55.5070   24.1780 H   0  0  0  0  0  0
    1.8930   54.1987   25.0330 H   0  0  0  0  0  0
    2.1344   53.5547   22.7349 H   0  0  0  0  0  0
    3.1042   52.4971   23.6446 H   0  0  0  0  0  0
    4.0357   55.0465   22.2147 H   0  0  0  0  0  0
    5.6827   52.8966   23.6817 H   0  0  0  0  0  0
    6.3615   54.2326   22.9010 H   0  0  0  0  0  0
    5.3247   55.8334   24.4818 H   0  0  0  0  0  0
    6.2123   54.6168   25.3419 H   0  0  0  0  0  0
    5.1042   52.3551   18.8708 H   0  0  0  0  0  0
    6.3720   52.8577   17.0461 H   0  0  0  0  0  0
    6.6817   55.2707   16.3641 H   0  0  0  0  0  0
    6.1537   55.8437   17.9955 H   0  0  0  0  0  0
    8.0887   54.5083   19.0775 H   0  0  0  0  0  0
    8.6094   53.9447   17.4418 H   0  0  0  0  0  0
    2.5817   53.4844   20.1850 H   0  0  0  0  0  0
    2.2981   49.7160   18.3202 H   0  0  0  0  0  0
    0.1305   49.2065   17.2568 H   0  0  0  0  0  0
    0.3946   52.6963   20.8190 H   0  0  0  0  0  0
   -3.4591   50.5801   19.6749 H   0  0  0  0  0  0
   -3.7437   51.8470   18.4607 H   0  0  0  0  0  0
  1  6  2  0  0  0
  1  2  1  0  0  0
  1 37  1  0  0  0
  2  3  2  0  0  0
  2 38  1  0  0  0
  3  4  1  0  0  0
  3 36  1  0  0  0
  4  5  2  0  0  0
  4 39  1  0  0  0
  5  6  1  0  0  0
  5 40  1  0  0  0
  6  7  1  0  0  0
  7  8  1  0  0  0
  7 41  1  0  0  0
  8  9  2  0  0  0
  8 10  1  0  0  0
 10 15  1  0  0  0
 10 11  1  0  0  0
 11 12  1  0  0  0
 11 42  1  0  0  0
 11 43  1  0  0  0
 12 13  1  0  0  0
 12 44  1  0  0  0
 12 45  1  0  0  0
 13 14  1  0  0  0
 13 16  1  0  0  0
 13 46  1  0  0  0
 14 15  1  0  0  0
 14 47  1  0  0  0
 14 48  1  0  0  0
 15 49  1  0  0  0
 15 50  1  0  0  0
 16 17  1  0  0  0
 16 18  1  0  0  0
 16 24  1  0  0  0
 18 19  2  0  0  0
 18 20  1  0  0  0
 20 21  1  0  0  0
 20 51  1  0  0  0
 21 23  1  0  0  0
 21 22  1  0  0  0
 21 52  1  0  0  0
 22 23  1  0  0  0
 22 53  1  0  0  0
 22 54  1  0  0  0
 23 55  1  0  0  0
 23 56  1  0  0  0
 24 25  1  0  0  0
 24 57  1  0  0  0
 25 26  2  0  0  0
 25 27  1  0  0  0
 27 32  2  0  0  0
 27 28  1  0  0  0
 28 29  2  0  0  0
 28 58  1  0  0  0
 29 30  1  0  0  0
 29 59  1  0  0  0
 30 35  1  0  0  0
 30 31  2  0  0  0
 31 32  1  0  0  0
 31 33  1  0  0  0
 32 60  1  0  0  0
 33 34  1  0  0  0
 34 35  1  0  0  0
 34 61  1  0  0  0
 34 62  1  0  0  0
M  END
> <i_i_glide_confnum>
208

> <i_i_glide_lignum>
3130

> <i_i_glide_posenum>
187

> <i_i_glide_rotatable_bonds>
10

> <i_m_Source_File_Index>
3992

> <b_m_subgroup_collapsed>
0

> <r_i_docking_score>
-5.54852

> <r_i_glide_ecoul>
-5.23176

> <r_i_glide_eff_state_penalty>
0

> <r_i_glide_einternal>
9.93552

> <r_i_glide_emodel>
-57.2615

> <r_i_glide_energy>
-49.8323

> <r_i_glide_erotb>
0.656771

> <r_i_glide_esite>
-0.217383

> <r_i_glide_evdw>
-44.6005

> <r_i_glide_gscore>
-5.54852

> <r_i_glide_hbond>
-0.646653

> <r_i_glide_ligand_efficiency>
-0.158529

> <r_i_glide_ligand_efficiency_ln>
-1.21802

> <r_i_glide_ligand_efficiency_sa>
-0.51856

> <r_i_glide_lipo>
-2.56855

> <r_i_glide_metal>
0

> <r_i_glide_rewards>
0.242084

> <s_i_glide_gridfile>
wee1_glide-grid

> <s_m_Source_File>
wee1_decoys_glide_SP.sdf

> <s_m_Source_Path>
/Users/zhangxujun/Desktop

> <s_m_entry_id>
4267

> <s_m_entry_name>
wee1_decoys_glide_SP.3992

> <s_m_subgroup_title>
wee1_decoys_glide_SP

> <s_m_subgroupid>
wee1_decoys_glide_SP


$$$$
