ZINC63234524_604
                    3D
 Schrodinger Suite 2024-2.
 54 57  0  0  1  0            999 V2000
   -3.0323   52.5647   25.1682 C   0  0  0  0  0  0
   -3.1729   51.5620   26.2151 C   0  0  0  0  0  0
   -2.3339   50.4980   26.3085 C   0  0  0  0  0  0
   -1.2941   50.3295   25.3843 C   0  0  0  0  0  0
   -0.3893   49.3831   25.3099 N   0  3  0  0  0  0
    0.4759   49.6132   24.1360 C   0  0  0  0  0  0
   -0.0904   50.9020   23.5668 C   0  0  0  0  0  0
   -1.1250   51.2580   24.3512 C   0  0  0  0  0  0
   -2.0378   52.4089   24.2713 C   0  0  0  0  0  0
    0.4615   51.5576   22.3021 C   0  0  0  0  0  0
    1.9205   52.0761   22.4560 C   0  0  2  0  0  0
    2.5201   51.2314   22.8018 H   0  0  0  0  0  0
    2.1039   53.2078   23.5058 C   0  0  0  0  0  0
    1.1282   53.6968   24.0791 O   0  0  0  0  0  0
    3.3671   53.6194   23.7087 N   0  0  0  0  0  0
    3.7863   54.6626   24.6304 C   0  0  0  0  0  0
    4.3792   54.1367   25.9256 C   0  0  0  0  0  0
    5.7651   54.1327   26.1113 C   0  0  0  0  0  0
    6.3074   53.7089   27.3221 C   0  0  0  0  0  0
    5.4664   53.2970   28.3536 C   0  0  0  0  0  0
    4.0765   53.3030   28.1900 C   0  0  0  0  0  0
    3.5398   53.7350   26.9704 C   0  0  0  0  0  0
    3.1630   52.8361   29.3221 C   0  0  0  0  0  0
    2.0424   52.2885   28.8498 F   0  0  0  0  0  0
    2.8392   53.8839   30.0797 F   0  0  0  0  0  0
    3.7679   51.9324   30.0959 F   0  0  0  0  0  0
    2.4477   52.4963   21.1474 N   0  0  0  0  0  0
    3.7393   52.4888   20.7691 C   0  0  0  0  0  0
    4.6640   52.0965   21.4845 O   0  0  0  0  0  0
    3.9577   53.0191   19.4514 C   0  0  0  0  0  0
    3.1145   52.9726   18.3367 C   0  0  0  0  0  0
    3.6868   53.5396   17.1932 C   0  0  0  0  0  0
    4.9807   53.9894   17.4117 C   0  0  0  0  0  0
    5.5076   53.6968   19.0359 S   0  0  0  0  0  0
   -3.6999   53.4130   25.1203 H   0  0  0  0  0  0
   -3.9701   51.6627   26.9383 H   0  0  0  0  0  0
   -2.4955   49.7814   27.1039 H   0  0  0  0  0  0
    0.3810   48.7554   23.4697 H   0  0  0  0  0  0
    1.5043   49.6967   24.4819 H   0  0  0  0  0  0
   -1.9266   53.1633   23.5061 H   0  0  0  0  0  0
   -0.1948   52.3726   21.9964 H   0  0  0  0  0  0
    0.4141   50.8152   21.5036 H   0  0  0  0  0  0
    4.0972   53.1675   23.1707 H   0  0  0  0  0  0
    2.9424   55.2968   24.8815 H   0  0  0  0  0  0
    4.5124   55.2962   24.1237 H   0  0  0  0  0  0
    6.4251   54.4516   25.3171 H   0  0  0  0  0  0
    7.3783   53.6957   27.4626 H   0  0  0  0  0  0
    5.9024   52.9652   29.2815 H   0  0  0  0  0  0
    2.4680   53.7554   26.8286 H   0  0  0  0  0  0
    1.8004   52.9866   20.5464 H   0  0  0  0  0  0
    2.1230   52.5450   18.3442 H   0  0  0  0  0  0
    3.1828   53.6018   16.2405 H   0  0  0  0  0  0
    5.6497   54.4494   16.6994 H   0  0  0  0  0  0
   -0.3025   48.6000   25.9582 H   0  0  0  0  0  0
  1  9  2  0  0  0
  1  2  1  0  0  0
  1 35  1  0  0  0
  2  3  2  0  0  0
  2 36  1  0  0  0
  3  4  1  0  0  0
  3 37  1  0  0  0
  4  8  1  0  0  0
  4  5  2  0  0  0
  5  6  1  0  0  0
  5 54  1  0  0  0
  6  7  1  0  0  0
  6 38  1  0  0  0
  6 39  1  0  0  0
  7  8  2  0  0  0
  7 10  1  0  0  0
  8  9  1  0  0  0
  9 40  1  0  0  0
 10 11  1  0  0  0
 10 41  1  0  0  0
 10 42  1  0  0  0
 11 12  1  0  0  0
 11 13  1  0  0  0
 11 27  1  0  0  0
 13 14  2  0  0  0
 13 15  1  0  0  0
 15 16  1  0  0  0
 15 43  1  0  0  0
 16 17  1  0  0  0
 16 44  1  0  0  0
 16 45  1  0  0  0
 17 22  2  0  0  0
 17 18  1  0  0  0
 18 19  2  0  0  0
 18 46  1  0  0  0
 19 20  1  0  0  0
 19 47  1  0  0  0
 20 21  2  0  0  0
 20 48  1  0  0  0
 21 22  1  0  0  0
 21 23  1  0  0  0
 22 49  1  0  0  0
 23 24  1  0  0  0
 23 25  1  0  0  0
 23 26  1  0  0  0
 27 28  1  0  0  0
 27 50  1  0  0  0
 28 29  2  0  0  0
 28 30  1  0  0  0
 30 34  1  0  0  0
 30 31  2  0  0  0
 31 32  1  0  0  0
 31 51  1  0  0  0
 32 33  2  0  0  0
 32 52  1  0  0  0
 33 34  1  0  0  0
 33 53  1  0  0  0
M  CHG  1   5   1
M  END
> <i_i_glide_confnum>
8

> <i_i_glide_lignum>
605

> <i_i_glide_posenum>
97

> <i_i_glide_rotatable_bonds>
10

> <i_m_Source_File_Index>
5792

> <b_m_subgroup_collapsed>
0

> <r_i_docking_score>
-5.67827

> <r_i_glide_ecoul>
-4.37567

> <r_i_glide_eff_state_penalty>
0

> <r_i_glide_einternal>
1.00798

> <r_i_glide_emodel>
-65.6353

> <r_i_glide_energy>
-46.352

> <r_i_glide_erotb>
0.633988

> <r_i_glide_esite>
-0.133393

> <r_i_glide_evdw>
-41.9763

> <r_i_glide_gscore>
-5.67827

> <r_i_glide_hbond>
-0.0591088

> <r_i_glide_ligand_efficiency>
-0.172069

> <r_i_glide_ligand_efficiency_ln>
-1.26282

> <r_i_glide_ligand_efficiency_sa>
-0.551917

> <r_i_glide_lipo>
-2.18419

> <r_i_glide_metal>
0

> <r_i_glide_rewards>
-1.1804

> <s_i_glide_gridfile>
wee1_glide-grid

> <s_m_Source_File>
wee1_decoys_glide_SP.sdf

> <s_m_Source_Path>
/Users/zhangxujun/Desktop

> <s_m_entry_id>
6067

> <s_m_entry_name>
wee1_decoys_glide_SP.5792

> <s_m_subgroup_title>
wee1_decoys_glide_SP

> <s_m_subgroupid>
wee1_decoys_glide_SP


$$$$
