ZINC41022894_6017
                    3D
 Schrodinger Suite 2024-2.
 64 68  0  0  1  0            999 V2000
    5.9694   54.2440   26.7480 C   0  0  0  0  0  0
    4.8005   54.2083   27.7438 C   0  0  0  0  0  0
    4.9316   53.0770   28.7796 C   0  0  0  0  0  0
    3.6522   53.0464   30.0811 S   0  0  0  0  0  0
    2.2385   52.4832   29.2008 C   0  0  0  0  0  0
    1.0429   52.4492   29.7693 N   0  0  0  0  0  0
    0.2849   52.0218   28.7947 C   0  0  0  0  0  0
    1.0289   51.7507   27.6728 N   0  0  0  0  0  0
    2.2965   52.0587   27.9592 N   0  0  0  0  0  0
    0.5517   51.2317   26.3666 C   0  0  1  0  0  0
    1.0245   50.2530   26.2838 H   0  0  0  0  0  0
   -0.9874   51.0108   26.4990 C   0  0  0  0  0  0
   -1.6625   51.2241   27.6696 C   0  0  0  0  0  0
   -1.0499   51.6980   28.8141 N   0  0  0  0  0  0
   -3.1397   50.9338   27.9335 C   0  0  0  0  0  0
   -1.6292   50.3200   25.3987 C   0  0  0  0  0  0
   -1.8455   50.8742   24.3221 O   0  0  0  0  0  0
   -1.9113   49.0258   25.6816 N   0  0  0  0  0  0
   -2.5090   48.0567   24.8454 C   0  0  0  0  0  0
   -2.2461   48.0319   23.4680 C   0  0  0  0  0  0
   -2.8198   47.0610   22.6538 C   0  0  0  0  0  0
   -3.6667   46.1039   23.2019 C   0  0  0  0  0  0
   -3.9437   46.0984   24.5723 C   0  0  0  0  0  0
   -3.3546   47.0708   25.4088 C   0  0  0  0  0  0
   -3.6642   47.0715   26.9080 C   0  0  0  0  0  0
   -4.8868   45.0275   25.1151 C   0  0  0  0  0  0
    1.1044   52.0303   25.1446 C   0  0  0  0  0  0
    1.4726   53.3695   25.3086 C   0  0  0  0  0  0
    2.0470   54.1056   24.2885 C   0  0  0  0  0  0
    2.2469   53.5518   23.0374 C   0  0  0  0  0  0
    1.9058   52.2059   22.7992 C   0  0  0  0  0  0
    1.3469   51.4124   23.8593 C   0  0  0  0  0  0
    1.0829   50.0424   23.5722 C   0  0  0  0  0  0
    1.3044   49.5220   22.3017 C   0  0  0  0  0  0
    1.8231   50.3052   21.2828 C   0  0  0  0  0  0
    2.1338   51.6359   21.5230 C   0  0  0  0  0  0
    5.8390   55.0480   26.0233 H   0  0  0  0  0  0
    6.9219   54.4099   27.2568 H   0  0  0  0  0  0
    6.0443   53.3083   26.1921 H   0  0  0  0  0  0
    3.8630   54.1085   27.1962 H   0  0  0  0  0  0
    4.7447   55.1668   28.2638 H   0  0  0  0  0  0
    5.8940   53.1754   29.2799 H   0  0  0  0  0  0
    4.9654   52.1037   28.2884 H   0  0  0  0  0  0
   -1.5284   51.6146   29.6992 H   0  0  0  0  0  0
   -3.6975   50.6717   27.0335 H   0  0  0  0  0  0
   -3.2311   50.1011   28.6338 H   0  0  0  0  0  0
   -3.6421   51.7948   28.3720 H   0  0  0  0  0  0
   -1.7602   48.7382   26.6509 H   0  0  0  0  0  0
   -1.5868   48.7568   23.0160 H   0  0  0  0  0  0
   -2.6127   47.0580   21.5943 H   0  0  0  0  0  0
   -4.1144   45.3674   22.5503 H   0  0  0  0  0  0
   -4.6426   46.6516   27.1355 H   0  0  0  0  0  0
   -2.9056   46.5076   27.4534 H   0  0  0  0  0  0
   -3.6962   48.0827   27.3097 H   0  0  0  0  0  0
   -4.4752   44.5515   26.0065 H   0  0  0  0  0  0
   -5.8405   45.4761   25.3954 H   0  0  0  0  0  0
   -5.0813   44.2389   24.3880 H   0  0  0  0  0  0
    1.3287   53.8627   26.2580 H   0  0  0  0  0  0
    2.3318   55.1314   24.4755 H   0  0  0  0  0  0
    2.6804   54.1471   22.2425 H   0  0  0  0  0  0
    0.6906   49.3844   24.3296 H   0  0  0  0  0  0
    1.0597   48.4967   22.0996 H   0  0  0  0  0  0
    1.9971   49.8772   20.3056 H   0  0  0  0  0  0
    2.5526   52.2450   20.7333 H   0  0  0  0  0  0
  1  2  1  0  0  0
  1 37  1  0  0  0
  1 38  1  0  0  0
  1 39  1  0  0  0
  2  3  1  0  0  0
  2 40  1  0  0  0
  2 41  1  0  0  0
  3  4  1  0  0  0
  3 42  1  0  0  0
  3 43  1  0  0  0
  4  5  1  0  0  0
  5  9  2  0  0  0
  5  6  1  0  0  0
  6  7  2  0  0  0
  7 14  1  0  0  0
  7  8  1  0  0  0
  8  9  1  0  0  0
  8 10  1  0  0  0
 10 11  1  0  0  0
 10 12  1  0  0  0
 10 27  1  0  0  0
 12 13  2  0  0  0
 12 16  1  0  0  0
 13 14  1  0  0  0
 13 15  1  0  0  0
 14 44  1  0  0  0
 15 45  1  0  0  0
 15 46  1  0  0  0
 15 47  1  0  0  0
 16 17  2  0  0  0
 16 18  1  0  0  0
 18 19  1  0  0  0
 18 48  1  0  0  0
 19 24  2  0  0  0
 19 20  1  0  0  0
 20 21  2  0  0  0
 20 49  1  0  0  0
 21 22  1  0  0  0
 21 50  1  0  0  0
 22 23  2  0  0  0
 22 51  1  0  0  0
 23 24  1  0  0  0
 23 26  1  0  0  0
 24 25  1  0  0  0
 25 52  1  0  0  0
 25 53  1  0  0  0
 25 54  1  0  0  0
 26 55  1  0  0  0
 26 56  1  0  0  0
 26 57  1  0  0  0
 27 32  2  0  0  0
 27 28  1  0  0  0
 28 29  2  0  0  0
 28 58  1  0  0  0
 29 30  1  0  0  0
 29 59  1  0  0  0
 30 31  2  0  0  0
 30 60  1  0  0  0
 31 36  1  0  0  0
 31 32  1  0  0  0
 32 33  1  0  0  0
 33 34  2  0  0  0
 33 61  1  0  0  0
 34 35  1  0  0  0
 34 62  1  0  0  0
 35 36  2  0  0  0
 35 63  1  0  0  0
 36 64  1  0  0  0
M  END
> <i_i_glide_confnum>
94

> <i_i_glide_lignum>
6018

> <i_i_glide_posenum>
271

> <i_i_glide_rotatable_bonds>
7

> <i_m_Source_File_Index>
4722

> <b_m_subgroup_collapsed>
0

> <r_i_docking_score>
-5.66505

> <r_i_glide_ecoul>
-7.48562

> <r_i_glide_eff_state_penalty>
0

> <r_i_glide_einternal>
10.2398

> <r_i_glide_emodel>
-58.8811

> <r_i_glide_energy>
-47.9136

> <r_i_glide_erotb>
0.520797

> <r_i_glide_esite>
-0.211259

> <r_i_glide_evdw>
-40.428

> <r_i_glide_gscore>
-5.66505

> <r_i_glide_hbond>
-0.16

> <r_i_glide_ligand_efficiency>
-0.161859

> <r_i_glide_ligand_efficiency_ln>
-1.2436

> <r_i_glide_ligand_efficiency_sa>
-0.52945

> <r_i_glide_lipo>
-2.08391

> <r_i_glide_metal>
0

> <r_i_glide_rewards>
-0.586439

> <s_i_glide_gridfile>
wee1_glide-grid

> <s_m_Source_File>
wee1_decoys_glide_SP.sdf

> <s_m_Source_Path>
/Users/zhangxujun/Desktop

> <s_m_entry_id>
4997

> <s_m_entry_name>
wee1_decoys_glide_SP.4722

> <s_m_subgroup_title>
wee1_decoys_glide_SP

> <s_m_subgroupid>
wee1_decoys_glide_SP


$$$$
