ZINC39836557_5410
                    3D
 Schrodinger Suite 2024-2.
 68 72  0  0  1  0            999 V2000
    7.5471   55.6903   21.0724 C   0  0  0  0  0  0
    6.3172   55.0849   20.4236 C   0  0  0  0  0  0
    6.0457   55.0207   19.0150 C   0  0  0  0  0  0
    6.6994   55.4349   17.8414 C   0  0  0  0  0  0
    6.0910   55.1893   16.6070 C   0  0  0  0  0  0
    4.8579   54.5406   16.5198 C   0  0  0  0  0  0
    4.1820   54.1116   17.6633 C   0  0  0  0  0  0
    4.7991   54.3657   18.8926 C   0  0  0  0  0  0
    4.3037   54.0325   20.1142 O   0  0  0  0  0  0
    5.2167   54.4695   21.0370 C   0  0  0  0  0  0
    4.9315   54.2448   22.4387 C   0  0  0  0  0  0
    5.7778   54.4919   23.3008 O   0  0  0  0  0  0
    3.6863   53.7764   22.6798 N   0  0  0  0  0  0
    3.0665   53.5816   23.9161 C   0  0  0  0  0  0
    2.0018   52.6928   24.1945 C   0  0  0  0  0  0
    1.6273   52.7588   25.5779 C   0  0  0  0  0  0
    2.3912   53.6956   26.2985 C   0  0  0  0  0  0
    3.5557   54.4965   25.3167 S   0  0  0  0  0  0
    2.3387   53.9330   27.8044 C   0  0  0  0  0  0
    1.0659   53.2750   28.4108 C   0  0  1  0  0  0
    0.2144   53.8732   28.0826 H   0  0  0  0  0  0
    0.9363   51.8419   27.8305 C   0  0  0  0  0  0
    0.6321   51.8545   26.3215 C   0  0  0  0  0  0
    1.0353   53.3410   29.9865 C   0  0  0  0  0  0
    2.2272   52.5928   30.6381 C   0  0  0  0  0  0
   -0.2782   52.7055   30.5094 C   0  0  0  0  0  0
    1.0661   54.8121   30.4728 C   0  0  0  0  0  0
    1.5108   51.7231   23.2104 C   0  0  0  0  0  0
    2.1732   51.4335   22.2144 O   0  0  0  0  0  0
    0.3418   51.1223   23.4926 N   0  0  0  0  0  0
   -0.2015   49.9241   22.8490 C   0  0  1  0  0  0
    0.5336   49.1437   23.0721 H   0  0  0  0  0  0
   -1.5540   49.5254   23.4749 C   0  0  0  0  0  0
   -2.6423   50.4400   22.8851 C   0  0  0  0  0  0
   -2.1390   50.6676   21.0958 S   0  0  0  0  0  0
   -2.1079   52.0968   20.7789 O   0  0  0  0  0  0
   -2.8876   49.7369   20.2441 O   0  0  0  0  0  0
   -0.4027   50.0182   21.3226 C   0  0  0  0  0  0
    8.2457   56.0975   20.3416 H   0  0  0  0  0  0
    7.2823   56.4969   21.7539 H   0  0  0  0  0  0
    8.0968   54.9516   21.6563 H   0  0  0  0  0  0
    7.6568   55.9359   17.8920 H   0  0  0  0  0  0
    6.5849   55.5070   15.6981 H   0  0  0  0  0  0
    4.4221   54.3656   15.5462 H   0  0  0  0  0  0
    3.2317   53.6039   17.6069 H   0  0  0  0  0  0
    3.2037   53.3753   21.8842 H   0  0  0  0  0  0
    3.2314   53.4890   28.2433 H   0  0  0  0  0  0
    2.3622   55.0008   28.0178 H   0  0  0  0  0  0
    1.8078   51.2341   28.0723 H   0  0  0  0  0  0
    0.1065   51.3144   28.2986 H   0  0  0  0  0  0
   -0.3893   52.1934   26.1410 H   0  0  0  0  0  0
    0.6772   50.8221   25.9737 H   0  0  0  0  0  0
    3.1763   53.1055   30.4751 H   0  0  0  0  0  0
    2.0990   52.4961   31.7181 H   0  0  0  0  0  0
    2.3360   51.5861   30.2446 H   0  0  0  0  0  0
   -1.1311   53.0162   29.9121 H   0  0  0  0  0  0
   -0.2570   51.6187   30.4799 H   0  0  0  0  0  0
   -0.4899   52.9781   31.5440 H   0  0  0  0  0  0
    0.3055   55.4080   29.9808 H   0  0  0  0  0  0
    0.8740   54.8904   31.5427 H   0  0  0  0  0  0
    2.0264   55.2919   30.2804 H   0  0  0  0  0  0
   -0.1740   51.4721   24.2857 H   0  0  0  0  0  0
   -1.5282   49.5744   24.5662 H   0  0  0  0  0  0
   -1.7680   48.4796   23.2367 H   0  0  0  0  0  0
   -2.5531   51.4191   23.3593 H   0  0  0  0  0  0
   -3.6821   50.1197   22.9638 H   0  0  0  0  0  0
   -0.4161   49.0041   20.9258 H   0  0  0  0  0  0
    0.3043   50.5987   20.7331 H   0  0  0  0  0  0
  1  2  1  0  0  0
  1 39  1  0  0  0
  1 40  1  0  0  0
  1 41  1  0  0  0
  2 10  2  0  0  0
  2  3  1  0  0  0
  3  8  2  0  0  0
  3  4  1  0  0  0
  4  5  2  0  0  0
  4 42  1  0  0  0
  5  6  1  0  0  0
  5 43  1  0  0  0
  6  7  2  0  0  0
  6 44  1  0  0  0
  7  8  1  0  0  0
  7 45  1  0  0  0
  8  9  1  0  0  0
  9 10  1  0  0  0
 10 11  1  0  0  0
 11 12  2  0  0  0
 11 13  1  0  0  0
 13 14  1  0  0  0
 13 46  1  0  0  0
 14 18  1  0  0  0
 14 15  2  0  0  0
 15 16  1  0  0  0
 15 28  1  0  0  0
 16 23  1  0  0  0
 16 17  2  0  0  0
 17 18  1  0  0  0
 17 19  1  0  0  0
 19 20  1  0  0  0
 19 47  1  0  0  0
 19 48  1  0  0  0
 20 21  1  0  0  0
 20 22  1  0  0  0
 20 24  1  0  0  0
 22 23  1  0  0  0
 22 49  1  0  0  0
 22 50  1  0  0  0
 23 51  1  0  0  0
 23 52  1  0  0  0
 24 25  1  0  0  0
 24 26  1  0  0  0
 24 27  1  0  0  0
 25 53  1  0  0  0
 25 54  1  0  0  0
 25 55  1  0  0  0
 26 56  1  0  0  0
 26 57  1  0  0  0
 26 58  1  0  0  0
 27 59  1  0  0  0
 27 60  1  0  0  0
 27 61  1  0  0  0
 28 29  2  0  0  0
 28 30  1  0  0  0
 30 31  1  0  0  0
 30 62  1  0  0  0
 31 32  1  0  0  0
 31 38  1  0  0  0
 31 33  1  0  0  0
 33 34  1  0  0  0
 33 63  1  0  0  0
 33 64  1  0  0  0
 34 35  1  0  0  0
 34 65  1  0  0  0
 34 66  1  0  0  0
 35 36  2  0  0  0
 35 37  2  0  0  0
 35 38  1  0  0  0
 38 67  1  0  0  0
 38 68  1  0  0  0
M  END
> <i_i_glide_confnum>
17

> <i_i_glide_lignum>
5411

> <i_i_glide_posenum>
195

> <i_i_glide_rotatable_bonds>
7

> <i_m_Source_File_Index>
2123

> <b_m_subgroup_collapsed>
0

> <r_i_docking_score>
-5.14168

> <r_i_glide_ecoul>
-3.70913

> <r_i_glide_eff_state_penalty>
0

> <r_i_glide_einternal>
11.9873

> <r_i_glide_emodel>
-54.6686

> <r_i_glide_energy>
-45.4098

> <r_i_glide_erotb>
0.442269

> <r_i_glide_esite>
-0.0355009

> <r_i_glide_evdw>
-41.7007

> <r_i_glide_gscore>
-5.14168

> <r_i_glide_hbond>
0

> <r_i_glide_ligand_efficiency>
-0.142824

> <r_i_glide_ligand_efficiency_ln>
-1.12178

> <r_i_glide_ligand_efficiency_sa>
-0.471596

> <r_i_glide_lipo>
-2.46264

> <r_i_glide_metal>
0

> <r_i_glide_rewards>
-0.444407

> <s_i_glide_gridfile>
wee1_glide-grid

> <s_m_Source_File>
wee1_decoys_glide_SP.sdf

> <s_m_Source_Path>
/Users/zhangxujun/Desktop

> <s_m_entry_id>
2398

> <s_m_entry_name>
wee1_decoys_glide_SP.2123

> <s_m_subgroup_title>
wee1_decoys_glide_SP

> <s_m_subgroupid>
wee1_decoys_glide_SP


$$$$
