ZINC09281664_4204
                    3D
 Schrodinger Suite 2024-2.
 59 65  0  0  1  0            999 V2000
   -0.1226   52.2777   29.2989 C   0  0  0  0  0  0
    0.7004   53.3441   28.9464 C   0  0  0  0  0  0
    1.1622   53.4517   27.6369 C   0  0  0  0  0  0
    0.8096   52.4974   26.6660 C   0  0  0  0  0  0
    0.0035   51.4248   27.0479 C   0  0  0  0  0  0
   -0.4770   51.3233   28.3487 C   0  0  0  0  0  0
    1.2818   52.6565   25.2485 C   0  0  0  0  0  0
    0.8370   52.2306   23.9763 C   0  0  0  0  0  0
    1.8281   52.7276   23.1045 C   0  0  0  0  0  0
    2.7909   53.3854   23.6913 N   0  0  0  0  0  0
    2.4535   53.3244   24.9754 N   0  0  0  0  0  0
    3.0420   53.7332   25.6880 H   0  0  0  0  0  0
    1.8495   52.5855   21.7403 O   0  0  0  0  0  0
    0.7079   52.0954   21.1912 C   0  0  0  0  0  0
   -0.3640   51.6112   21.8618 C   0  0  0  0  0  0
   -0.3680   51.4457   23.3997 C   0  0  2  0  0  0
   -1.6843   51.7933   24.0280 C   0  0  0  0  0  0
   -2.3910   52.9941   24.0884 C   0  0  0  0  0  0
   -3.6350   53.0310   24.7247 C   0  0  0  0  0  0
   -4.1656   51.8696   25.2944 C   0  0  0  0  0  0
   -3.4566   50.6679   25.2279 C   0  0  0  0  0  0
   -2.2166   50.6465   24.5865 C   0  0  0  0  0  0
   -1.3360   49.5809   24.4006 N   0  0  0  0  0  0
   -0.2277   49.9395   23.7052 C   0  0  0  0  0  0
    0.7102   49.2204   23.3601 O   0  0  0  0  0  0
   -1.5194   48.2185   24.9107 C   0  0  0  0  0  0
   -2.5945   47.3960   24.1887 C   0  0  0  0  0  0
   -2.7851   47.5399   22.8107 C   0  0  0  0  0  0
   -3.7793   46.8386   22.1435 C   0  0  0  0  0  0
   -4.6244   45.9808   22.8356 C   0  0  0  0  0  0
   -4.4757   45.7985   24.2303 C   0  0  0  0  0  0
   -3.4408   46.5041   24.9269 C   0  0  0  0  0  0
   -3.3063   46.2792   26.3283 C   0  0  0  0  0  0
   -4.1722   45.4251   26.9989 C   0  0  0  0  0  0
   -5.1762   44.7503   26.3186 C   0  0  0  0  0  0
   -5.3319   44.9245   24.9469 C   0  0  0  0  0  0
   -1.5202   51.2217   21.1164 C   0  0  0  0  0  0
   -2.4687   50.9638   20.5074 N   0  0  0  0  0  0
    0.8370   52.2057   19.8347 N   0  0  0  0  0  0
   -0.4905   52.1873   30.3121 H   0  0  0  0  0  0
    0.9699   54.0881   29.6835 H   0  0  0  0  0  0
    1.7815   54.2997   27.3789 H   0  0  0  0  0  0
   -0.2515   50.6465   26.3563 H   0  0  0  0  0  0
   -1.1238   50.5034   28.6160 H   0  0  0  0  0  0
   -1.9864   53.8976   23.6617 H   0  0  0  0  0  0
   -4.1836   53.9597   24.7789 H   0  0  0  0  0  0
   -5.1268   51.9017   25.7871 H   0  0  0  0  0  0
   -3.8739   49.7753   25.6729 H   0  0  0  0  0  0
   -0.5846   47.6577   24.9128 H   0  0  0  0  0  0
   -1.8031   48.3737   25.9509 H   0  0  0  0  0  0
   -2.1566   48.2084   22.2397 H   0  0  0  0  0  0
   -3.9056   46.9754   21.0795 H   0  0  0  0  0  0
   -5.4040   45.4500   22.3098 H   0  0  0  0  0  0
   -2.5299   46.7700   26.8987 H   0  0  0  0  0  0
   -4.0498   45.2875   28.0645 H   0  0  0  0  0  0
   -5.8361   44.0860   26.8583 H   0  0  0  0  0  0
   -6.1172   44.3989   24.4233 H   0  0  0  0  0  0
    0.1796   51.7726   19.2052 H   0  0  0  0  0  0
    1.5046   52.8564   19.4447 H   0  0  0  0  0  0
  1  6  2  0  0  0
  1  2  1  0  0  0
  1 40  1  0  0  0
  2  3  2  0  0  0
  2 41  1  0  0  0
  3  4  1  0  0  0
  3 42  1  0  0  0
  4  5  2  0  0  0
  4  7  1  0  0  0
  5  6  1  0  0  0
  5 43  1  0  0  0
  6 44  1  0  0  0
  7 11  1  0  0  0
  7  8  2  0  0  0
  8 16  1  0  0  0
  8  9  1  0  0  0
  9 10  2  0  0  0
  9 13  1  0  0  0
 10 11  1  0  0  0
 11 12  1  0  0  0
 13 14  1  0  0  0
 14 15  2  0  0  0
 14 39  1  0  0  0
 15 16  1  0  0  0
 15 37  1  0  0  0
 16 24  1  0  0  0
 16 17  1  0  0  0
 17 22  2  0  0  0
 17 18  1  0  0  0
 18 19  2  0  0  0
 18 45  1  0  0  0
 19 20  1  0  0  0
 19 46  1  0  0  0
 20 21  2  0  0  0
 20 47  1  0  0  0
 21 22  1  0  0  0
 21 48  1  0  0  0
 22 23  1  0  0  0
 23 24  1  0  0  0
 23 26  1  0  0  0
 24 25  2  0  0  0
 26 27  1  0  0  0
 26 49  1  0  0  0
 26 50  1  0  0  0
 27 32  2  0  0  0
 27 28  1  0  0  0
 28 29  2  0  0  0
 28 51  1  0  0  0
 29 30  1  0  0  0
 29 52  1  0  0  0
 30 31  2  0  0  0
 30 53  1  0  0  0
 31 36  1  0  0  0
 31 32  1  0  0  0
 32 33  1  0  0  0
 33 34  2  0  0  0
 33 54  1  0  0  0
 34 35  1  0  0  0
 34 55  1  0  0  0
 35 36  2  0  0  0
 35 56  1  0  0  0
 36 57  1  0  0  0
 37 38  3  0  0  0
 39 58  1  0  0  0
 39 59  1  0  0  0
M  END
> <i_i_glide_confnum>
12

> <i_i_glide_lignum>
4205

> <i_i_glide_posenum>
293

> <i_i_glide_rotatable_bonds>
4

> <i_m_Source_File_Index>
1896

> <b_m_subgroup_collapsed>
0

> <r_i_docking_score>
-3.50093

> <r_i_glide_ecoul>
-4.55608

> <r_i_glide_eff_state_penalty>
0

> <r_i_glide_einternal>
2.40389

> <r_i_glide_emodel>
-49.7766

> <r_i_glide_energy>
-41.482

> <r_i_glide_erotb>
0.249065

> <r_i_glide_esite>
-0.0554612

> <r_i_glide_evdw>
-36.9259

> <r_i_glide_gscore>
-3.50093

> <r_i_glide_hbond>
0

> <r_i_glide_ligand_efficiency>
-0.0921297

> <r_i_glide_ligand_efficiency_ln>
-0.754903

> <r_i_glide_ligand_efficiency_sa>
-0.309738

> <r_i_glide_lipo>
-1.12818

> <r_i_glide_metal>
0

> <r_i_glide_rewards>
-0.0366494

> <s_i_glide_gridfile>
wee1_glide-grid

> <s_m_Source_File>
wee1_decoys_glide_SP.sdf

> <s_m_Source_Path>
/Users/zhangxujun/Desktop

> <s_m_entry_id>
2171

> <s_m_entry_name>
wee1_decoys_glide_SP.1896

> <s_m_subgroup_title>
wee1_decoys_glide_SP

> <s_m_subgroupid>
wee1_decoys_glide_SP


$$$$
