ZINC04244509_4215
                    3D
 Schrodinger Suite 2024-2.
 56 59  0  0  1  0            999 V2000
    6.5633   54.9198   25.8113 C   0  0  0  0  0  0
    5.3609   54.3600   26.5496 C   0  0  0  0  0  0
    5.5141   53.8497   27.8402 C   0  0  0  0  0  0
    4.4183   53.3080   28.5063 C   0  0  0  0  0  0
    3.1666   53.2753   27.8832 C   0  0  0  0  0  0
    3.0112   53.7903   26.5956 C   0  0  0  0  0  0
    4.1093   54.3297   25.9289 C   0  0  0  0  0  0
    1.7579   52.5641   28.7410 S   0  0  0  0  0  0
    2.2896   51.9083   29.9411 O   0  0  0  0  0  0
    0.7545   53.6286   28.8506 O   0  0  0  0  0  0
    1.1455   51.2915   27.6832 N   0  0  0  0  0  0
    0.1833   51.4240   26.6509 C   0  0  0  0  0  0
   -0.3696   52.4968   26.4576 O   0  0  0  0  0  0
   -0.0851   50.3297   25.8786 N   0  0  0  0  0  0
   -1.0546   50.1814   24.7609 C   0  0  2  0  0  0
   -1.2077   49.1138   24.5784 H   0  0  0  0  0  0
   -0.6939   50.8541   23.4103 C   0  0  0  0  0  0
   -1.5537   52.4565   23.4193 S   0  0  0  0  0  0
   -2.7645   51.8797   24.5698 C   0  0  0  0  0  0
   -4.0923   52.8362   24.8838 S   0  0  0  0  0  0
   -2.3886   50.6753   25.1069 N   0  0  0  0  0  0
   -3.2058   49.9242   26.0779 C   0  0  0  0  0  0
   -3.8870   48.6867   25.5058 C   0  0  0  0  0  0
   -4.7928   48.8171   24.4337 C   0  0  0  0  0  0
   -5.4780   47.7036   23.9296 C   0  0  0  0  0  0
   -5.2456   46.4766   24.5395 C   0  0  0  0  0  0
   -4.3623   46.3383   25.5749 C   0  0  0  0  0  0
   -3.6500   47.4226   26.0787 C   0  0  0  0  0  0
   -4.3288   45.0305   25.9563 O   0  0  0  0  0  0
   -5.4517   44.4537   25.3419 C   0  0  0  0  0  0
   -5.7895   45.2649   24.2507 O   0  0  0  0  0  0
    0.8163   51.1251   23.2068 C   0  0  0  0  0  0
   -1.2383   50.0400   22.2121 C   0  0  0  0  0  0
    0.7044   49.1891   26.0825 O   0  0  0  0  0  0
    6.5193   54.6585   24.7525 H   0  0  0  0  0  0
    7.4944   54.4975   26.1951 H   0  0  0  0  0  0
    6.5983   56.0063   25.8975 H   0  0  0  0  0  0
    6.4774   53.8691   28.3294 H   0  0  0  0  0  0
    4.5506   52.9151   29.5029 H   0  0  0  0  0  0
    2.0445   53.7737   26.1130 H   0  0  0  0  0  0
    3.9865   54.7229   24.9295 H   0  0  0  0  0  0
    1.4910   50.3517   27.8867 H   0  0  0  0  0  0
   -2.5423   49.6199   26.8860 H   0  0  0  0  0  0
   -3.9592   50.5450   26.5609 H   0  0  0  0  0  0
   -4.9801   49.7876   23.9972 H   0  0  0  0  0  0
   -6.1746   47.8085   23.1122 H   0  0  0  0  0  0
   -2.9514   47.3010   26.8954 H   0  0  0  0  0  0
   -6.2826   44.4420   26.0522 H   0  0  0  0  0  0
   -5.2840   43.4188   25.0396 H   0  0  0  0  0  0
    1.3921   50.1997   23.2385 H   0  0  0  0  0  0
    1.0121   51.5903   22.2395 H   0  0  0  0  0  0
    1.2225   51.7945   23.9656 H   0  0  0  0  0  0
   -0.7505   49.0666   22.1457 H   0  0  0  0  0  0
   -2.3120   49.8616   22.2971 H   0  0  0  0  0  0
   -1.0677   50.5515   21.2632 H   0  0  0  0  0  0
    1.1235   49.0360   25.2314 H   0  0  0  0  0  0
  1  2  1  0  0  0
  1 35  1  0  0  0
  1 36  1  0  0  0
  1 37  1  0  0  0
  2  7  2  0  0  0
  2  3  1  0  0  0
  3  4  2  0  0  0
  3 38  1  0  0  0
  4  5  1  0  0  0
  4 39  1  0  0  0
  5  6  2  0  0  0
  5  8  1  0  0  0
  6  7  1  0  0  0
  6 40  1  0  0  0
  7 41  1  0  0  0
  8  9  2  0  0  0
  8 10  2  0  0  0
  8 11  1  0  0  0
 11 12  1  0  0  0
 11 42  1  0  0  0
 12 13  2  0  0  0
 12 14  1  0  0  0
 14 15  1  0  0  0
 14 34  1  0  0  0
 15 16  1  0  0  0
 15 21  1  0  0  0
 15 17  1  0  0  0
 17 18  1  0  0  0
 17 32  1  0  0  0
 17 33  1  0  0  0
 18 19  1  0  0  0
 19 20  2  0  0  0
 19 21  1  0  0  0
 21 22  1  0  0  0
 22 23  1  0  0  0
 22 43  1  0  0  0
 22 44  1  0  0  0
 23 28  2  0  0  0
 23 24  1  0  0  0
 24 25  2  0  0  0
 24 45  1  0  0  0
 25 26  1  0  0  0
 25 46  1  0  0  0
 26 31  1  0  0  0
 26 27  2  0  0  0
 27 28  1  0  0  0
 27 29  1  0  0  0
 28 47  1  0  0  0
 29 30  1  0  0  0
 30 31  1  0  0  0
 30 48  1  0  0  0
 30 49  1  0  0  0
 32 50  1  0  0  0
 32 51  1  0  0  0
 32 52  1  0  0  0
 33 53  1  0  0  0
 33 54  1  0  0  0
 33 55  1  0  0  0
 34 56  1  0  0  0
M  END
> <i_i_glide_confnum>
173

> <i_i_glide_lignum>
4216

> <i_i_glide_posenum>
203

> <i_i_glide_rotatable_bonds>
8

> <i_m_Source_File_Index>
2745

> <b_m_subgroup_collapsed>
0

> <r_i_docking_score>
-4.38207

> <r_i_glide_ecoul>
-6.31886

> <r_i_glide_eff_state_penalty>
0

> <r_i_glide_einternal>
5.15206

> <r_i_glide_emodel>
-57.9208

> <r_i_glide_energy>
-48.5166

> <r_i_glide_erotb>
0.552021

> <r_i_glide_esite>
-0.17021

> <r_i_glide_evdw>
-42.1977

> <r_i_glide_gscore>
-4.38207

> <r_i_glide_hbond>
-0.16

> <r_i_glide_ligand_efficiency>
-0.13279

> <r_i_glide_ligand_efficiency_ln>
-0.974549

> <r_i_glide_ligand_efficiency_sa>
-0.425928

> <r_i_glide_lipo>
-1.925

> <r_i_glide_metal>
0

> <r_i_glide_rewards>
0.378834

> <s_i_glide_gridfile>
wee1_glide-grid

> <s_m_Source_File>
wee1_decoys_glide_SP.sdf

> <s_m_Source_Path>
/Users/zhangxujun/Desktop

> <s_m_entry_id>
3020

> <s_m_entry_name>
wee1_decoys_glide_SP.2745

> <s_m_subgroup_title>
wee1_decoys_glide_SP

> <s_m_subgroupid>
wee1_decoys_glide_SP


$$$$
