ZINC36386860_2318
                    3D
 Schrodinger Suite 2024-2.
 48 50  0  0  1  0            999 V2000
    1.7606   53.3134   24.8057 C   0  0  0  0  0  0
    1.9055   53.6876   26.1414 C   0  0  0  0  0  0
    3.1484   54.0875   26.6215 C   0  0  0  0  0  0
    4.2529   54.0971   25.7783 C   0  0  0  0  0  0
    4.1104   53.6968   24.4527 C   0  0  0  0  0  0
    2.8620   53.3066   23.9336 C   0  0  0  0  0  0
    2.6664   52.9155   22.4346 C   0  0  2  0  0  0
    2.0379   51.4853   22.3580 C   0  0  0  0  0  0
    2.7042   50.4615   22.4788 O   0  0  0  0  0  0
    0.7196   51.3980   22.1680 N   0  0  0  0  0  0
    3.9058   53.0636   21.5946 N   0  0  0  0  0  0
    3.8031   52.5144   20.2241 C   0  0  0  0  0  0
    5.0170   52.8759   19.3200 C   0  0  0  0  0  0
    5.3359   54.3024   19.2333 N   0  0  0  0  0  0
    5.4143   54.8426   20.5931 C   0  0  0  0  0  0
    4.1529   54.4966   21.4107 C   0  0  0  0  0  0
    5.3492   55.0167   18.0312 C   0  0  0  0  0  0
    4.7256   56.2698   17.9925 C   0  0  0  0  0  0
    4.5466   56.9761   16.8068 C   0  0  0  0  0  0
    5.0109   56.4428   15.5980 C   0  0  0  0  0  0
    5.6678   55.2084   15.6249 C   0  0  0  0  0  0
    5.8580   54.4929   16.8168 C   0  0  0  0  0  0
    6.7083   53.2800   16.7609 N   0  3  0  0  0  0
    7.4918   53.0690   17.6798 O   0  0  0  0  0  0
    6.6604   52.5880   15.7476 O   0  5  0  0  0  0
    4.8192   57.1871   14.2713 C   0  0  0  0  0  0
    3.5198   57.3722   14.0375 F   0  0  0  0  0  0
    5.4242   58.3734   14.3228 F   0  0  0  0  0  0
    5.3256   56.5171   13.2340 F   0  0  0  0  0  0
    3.7144   58.4925   16.8818 Cl  0  0  0  0  0  0
    3.3202   54.5706   28.2698 Cl  0  0  0  0  0  0
    0.7809   53.0258   24.4539 H   0  0  0  0  0  0
    1.0558   53.6727   26.8062 H   0  0  0  0  0  0
    5.2222   54.3894   26.1538 H   0  0  0  0  0  0
    4.9989   53.6744   23.8396 H   0  0  0  0  0  0
    1.9165   53.6165   22.0576 H   0  0  0  0  0  0
    0.1557   52.2194   22.0195 H   0  0  0  0  0  0
    0.3022   50.4807   22.1280 H   0  0  0  0  0  0
    3.7161   51.4273   20.2360 H   0  0  0  0  0  0
    2.9140   52.9261   19.7408 H   0  0  0  0  0  0
    4.7960   52.4966   18.3235 H   0  0  0  0  0  0
    5.9052   52.3425   19.6588 H   0  0  0  0  0  0
    5.5084   55.9264   20.5398 H   0  0  0  0  0  0
    6.3205   54.4967   21.0902 H   0  0  0  0  0  0
    3.2981   54.8969   20.8825 H   0  0  0  0  0  0
    4.2147   55.0245   22.3555 H   0  0  0  0  0  0
    4.3028   56.6966   18.8818 H   0  0  0  0  0  0
    6.0677   54.8017   14.7055 H   0  0  0  0  0  0
  1  6  2  0  0  0
  1  2  1  0  0  0
  1 32  1  0  0  0
  2  3  2  0  0  0
  2 33  1  0  0  0
  3  4  1  0  0  0
  3 31  1  0  0  0
  4  5  2  0  0  0
  4 34  1  0  0  0
  5  6  1  0  0  0
  5 35  1  0  0  0
  6  7  1  0  0  0
  7  8  1  0  0  0
  7 11  1  0  0  0
  7 36  1  0  0  0
  8  9  2  0  0  0
  8 10  1  0  0  0
 10 37  1  0  0  0
 10 38  1  0  0  0
 11 16  1  0  0  0
 11 12  1  0  0  0
 12 13  1  0  0  0
 12 39  1  0  0  0
 12 40  1  0  0  0
 13 14  1  0  0  0
 13 41  1  0  0  0
 13 42  1  0  0  0
 14 15  1  0  0  0
 14 17  1  0  0  0
 15 16  1  0  0  0
 15 43  1  0  0  0
 15 44  1  0  0  0
 16 45  1  0  0  0
 16 46  1  0  0  0
 17 22  2  0  0  0
 17 18  1  0  0  0
 18 19  2  0  0  0
 18 47  1  0  0  0
 19 20  1  0  0  0
 19 30  1  0  0  0
 20 21  2  0  0  0
 20 26  1  0  0  0
 21 22  1  0  0  0
 21 48  1  0  0  0
 22 23  1  0  0  0
 23 24  2  0  0  0
 23 25  1  0  0  0
 26 27  1  0  0  0
 26 28  1  0  0  0
 26 29  1  0  0  0
M  CHG  2  23   1  25  -1
M  END
> <i_i_glide_confnum>
12

> <i_i_glide_lignum>
2319

> <i_i_glide_posenum>
392

> <i_i_glide_rotatable_bonds>
6

> <i_m_Source_File_Index>
147

> <b_m_subgroup_collapsed>
0

> <r_i_docking_score>
-3.33752

> <r_i_glide_ecoul>
-0.559112

> <r_i_glide_eff_state_penalty>
0

> <r_i_glide_einternal>
5.78048

> <r_i_glide_emodel>
-30.8241

> <r_i_glide_energy>
-27.345

> <r_i_glide_erotb>
0.266781

> <r_i_glide_esite>
-0.0874788

> <r_i_glide_evdw>
-26.7859

> <r_i_glide_gscore>
-3.33752

> <r_i_glide_hbond>
0

> <r_i_glide_ligand_efficiency>
-0.107662

> <r_i_glide_ligand_efficiency_ln>
-0.752713

> <r_i_glide_ligand_efficiency_sa>
-0.338207

> <r_i_glide_lipo>
-1.77494

> <r_i_glide_metal>
0

> <r_i_glide_rewards>
-0.318724

> <s_i_glide_gridfile>
wee1_glide-grid

> <s_m_Source_File>
wee1_decoys_glide_SP.sdf

> <s_m_Source_Path>
/Users/zhangxujun/Desktop

> <s_m_entry_id>
422

> <s_m_entry_name>
wee1_decoys_glide_SP.147

> <s_m_subgroup_title>
wee1_decoys_glide_SP

> <s_m_subgroupid>
wee1_decoys_glide_SP


$$$$
