ZINC13395968_526
                    3D
 Schrodinger Suite 2024-2.
 59 62  0  0  1  0            999 V2000
    5.7578   54.2877   26.7403 C   0  0  0  0  0  0
    5.8610   53.6435   27.9694 C   0  0  0  0  0  0
    4.7061   53.2944   28.6654 C   0  0  0  0  0  0
    3.4388   53.6101   28.1548 C   0  0  0  0  0  0
    3.3573   54.2584   26.9136 C   0  0  0  0  0  0
    4.5092   54.5893   26.2047 C   0  0  0  0  0  0
    2.1411   53.2433   28.9156 C   0  0  0  0  0  0
    2.3293   52.7050   30.3624 C   0  0  0  0  0  0
    0.9799   52.8975   31.0731 C   0  0  0  0  0  0
    0.3216   54.0984   30.3788 C   0  0  0  0  0  0
    1.2454   54.4815   29.2080 C   0  0  0  0  0  0
    1.4221   52.1227   28.0876 C   0  0  0  0  0  0
    1.9040   50.9921   28.0869 O   0  0  0  0  0  0
    0.3190   52.4653   27.3876 N   0  0  0  0  0  0
   -0.5175   51.6787   26.5750 C   0  0  0  0  0  0
   -1.7050   52.2900   26.1708 C   0  0  0  0  0  0
   -2.6152   51.6024   25.3780 C   0  0  0  0  0  0
   -2.3426   50.2927   24.9841 C   0  0  0  0  0  0
   -1.1568   49.6708   25.3769 C   0  0  0  0  0  0
   -0.2398   50.3648   26.1625 C   0  0  0  0  0  0
   -3.5530   49.4074   24.0063 S   0  0  0  0  0  0
   -4.3259   50.4252   23.2830 O   0  0  0  0  0  0
   -2.8429   48.3499   23.2756 O   0  0  0  0  0  0
   -4.6338   48.6484   25.1905 N   0  0  0  0  0  0
   -5.3076   49.5848   26.1368 C   0  0  0  0  0  0
   -6.4702   48.8939   26.8909 C   0  0  0  0  0  0
   -6.0242   47.5567   27.5193 C   0  0  0  0  0  0
   -5.4056   46.6587   26.4170 C   0  0  1  0  0  0
   -6.1447   46.4760   25.6347 H   0  0  0  0  0  0
   -4.1756   47.3675   25.7949 C   0  0  0  0  0  0
   -5.0354   45.2430   26.9147 C   0  0  0  0  0  0
   -4.4753   44.4964   26.0780 O   0  0  0  0  0  0
    6.6526   54.5443   26.1932 H   0  0  0  0  0  0
    6.8325   53.4011   28.3752 H   0  0  0  0  0  0
    4.8167   52.7674   29.5996 H   0  0  0  0  0  0
    2.3944   54.4943   26.4876 H   0  0  0  0  0  0
    4.4335   55.0801   25.2452 H   0  0  0  0  0  0
    2.6886   51.6804   30.4181 H   0  0  0  0  0  0
    3.0783   53.2979   30.8817 H   0  0  0  0  0  0
    0.3539   52.0119   30.9504 H   0  0  0  0  0  0
    1.0983   53.0508   32.1468 H   0  0  0  0  0  0
   -0.6654   53.8196   30.0093 H   0  0  0  0  0  0
    0.1850   54.9343   31.0667 H   0  0  0  0  0  0
    1.8813   55.3061   29.5379 H   0  0  0  0  0  0
    0.7047   54.8685   28.3438 H   0  0  0  0  0  0
    0.0045   53.4126   27.5139 H   0  0  0  0  0  0
   -1.9425   53.2974   26.4793 H   0  0  0  0  0  0
   -3.5368   52.0833   25.0839 H   0  0  0  0  0  0
   -0.9473   48.6494   25.0916 H   0  0  0  0  0  0
    0.6614   49.8466   26.4488 H   0  0  0  0  0  0
   -4.5876   49.8570   26.9110 H   0  0  0  0  0  0
   -5.6779   50.4575   25.5980 H   0  0  0  0  0  0
   -6.8557   49.5584   27.6647 H   0  0  0  0  0  0
   -7.2994   48.7228   26.2027 H   0  0  0  0  0  0
   -5.2891   47.7667   28.2998 H   0  0  0  0  0  0
   -6.8859   47.0766   27.9861 H   0  0  0  0  0  0
   -3.7198   46.7452   25.0255 H   0  0  0  0  0  0
   -3.4826   47.5908   26.6092 H   0  0  0  0  0  0
   -5.3508   44.9056   28.0816 O   0  5  0  0  0  0
  1  6  2  0  0  0
  1  2  1  0  0  0
  1 33  1  0  0  0
  2  3  2  0  0  0
  2 34  1  0  0  0
  3  4  1  0  0  0
  3 35  1  0  0  0
  4  5  2  0  0  0
  4  7  1  0  0  0
  5  6  1  0  0  0
  5 36  1  0  0  0
  6 37  1  0  0  0
  7 11  1  0  0  0
  7  8  1  0  0  0
  7 12  1  0  0  0
  8  9  1  0  0  0
  8 38  1  0  0  0
  8 39  1  0  0  0
  9 10  1  0  0  0
  9 40  1  0  0  0
  9 41  1  0  0  0
 10 11  1  0  0  0
 10 42  1  0  0  0
 10 43  1  0  0  0
 11 44  1  0  0  0
 11 45  1  0  0  0
 12 13  2  0  0  0
 12 14  1  0  0  0
 14 15  1  0  0  0
 14 46  1  0  0  0
 15 20  2  0  0  0
 15 16  1  0  0  0
 16 17  2  0  0  0
 16 47  1  0  0  0
 17 18  1  0  0  0
 17 48  1  0  0  0
 18 19  2  0  0  0
 18 21  1  0  0  0
 19 20  1  0  0  0
 19 49  1  0  0  0
 20 50  1  0  0  0
 21 22  2  0  0  0
 21 23  2  0  0  0
 21 24  1  0  0  0
 24 30  1  0  0  0
 24 25  1  0  0  0
 25 26  1  0  0  0
 25 51  1  0  0  0
 25 52  1  0  0  0
 26 27  1  0  0  0
 26 53  1  0  0  0
 26 54  1  0  0  0
 27 28  1  0  0  0
 27 55  1  0  0  0
 27 56  1  0  0  0
 28 29  1  0  0  0
 28 30  1  0  0  0
 28 31  1  0  0  0
 30 57  1  0  0  0
 30 58  1  0  0  0
 31 32  2  0  0  0
 31 59  1  0  0  0
M  CHG  1  59  -1
M  END
> <i_i_glide_confnum>
57

> <i_i_glide_lignum>
527

> <i_i_glide_posenum>
325

> <i_i_glide_rotatable_bonds>
7

> <i_m_Source_File_Index>
1569

> <b_m_subgroup_collapsed>
0

> <r_i_docking_score>
-5.1053

> <r_i_glide_ecoul>
-3.73368

> <r_i_glide_eff_state_penalty>
0

> <r_i_glide_einternal>
5.52212

> <r_i_glide_emodel>
-57.4352

> <r_i_glide_energy>
-42.8636

> <r_i_glide_erotb>
0.580848

> <r_i_glide_esite>
-0.038548

> <r_i_glide_evdw>
-39.1299

> <r_i_glide_gscore>
-5.1053

> <r_i_glide_hbond>
-0.4

> <r_i_glide_ligand_efficiency>
-0.15954

> <r_i_glide_ligand_efficiency_ln>
-1.14321

> <r_i_glide_ligand_efficiency_sa>
-0.50651

> <r_i_glide_lipo>
-2.18714

> <r_i_glide_metal>
0

> <r_i_glide_rewards>
-0.543911

> <s_i_glide_gridfile>
wee1_glide-grid

> <s_m_Source_File>
wee1_decoys_glide_SP.sdf

> <s_m_Source_Path>
/Users/zhangxujun/Desktop

> <s_m_entry_id>
1844

> <s_m_entry_name>
wee1_decoys_glide_SP.1569

> <s_m_subgroup_title>
wee1_decoys_glide_SP

> <s_m_subgroupid>
wee1_decoys_glide_SP


$$$$
