ZINC39676590_1244
                    3D
 Schrodinger Suite 2024-2.
 78 82  0  0  1  0            999 V2000
    7.7460   56.0972   15.8971 C   0  0  0  0  0  0
    7.4540   56.6366   17.1817 O   0  0  0  0  0  0
    6.8411   55.8357   18.1251 C   0  0  0  0  0  0
    6.5297   54.4813   17.9356 C   0  0  0  0  0  0
    5.9045   53.7595   18.9491 C   0  0  0  0  0  0
    5.5842   54.3733   20.1659 C   0  0  0  0  0  0
    5.9131   55.7188   20.3579 C   0  0  0  0  0  0
    6.5253   56.4435   19.3397 C   0  0  0  0  0  0
    4.9455   53.5219   21.2700 C   0  0  0  0  0  0
    5.1642   53.9696   22.7353 C   0  0  0  0  0  0
    6.4680   54.1900   23.1953 C   0  0  0  0  0  0
    6.7040   54.5099   24.5289 C   0  0  0  0  0  0
    5.6561   54.5969   25.4366 C   0  0  0  0  0  0
    4.3443   54.3993   24.9831 C   0  0  0  0  0  0
    4.1029   54.0954   23.6437 C   0  0  0  0  0  0
    6.0051   54.8688   26.7452 O   0  0  0  0  0  0
    5.0442   54.6462   27.7726 C   0  0  0  0  0  0
    3.5584   53.1984   20.9080 N   0  0  0  0  0  0
    2.9547   52.0151   21.1142 C   0  0  0  0  0  0
    3.5031   51.0728   21.6814 O   0  0  0  0  0  0
    1.4735   51.9200   20.6957 C   0  0  2  0  0  0
    1.1150   52.9224   20.4668 H   0  0  0  0  0  0
    0.6444   51.3726   21.8740 C   0  0  0  0  0  0
   -0.5650   50.8837   21.2065 N   0  0  0  0  0  0
   -0.3603   50.8177   19.7494 C   0  0  0  0  0  0
    1.1593   50.9811   19.5064 C   0  0  0  0  0  0
    1.5334   51.5870   18.1327 C   0  0  0  0  0  0
    0.9452   50.7508   16.9777 C   0  0  0  0  0  0
    1.5043   49.3107   17.0779 N   0  3  0  0  0  0
    1.3617   48.6383   18.4638 C   0  0  0  0  0  0
    1.9045   49.6098   19.5348 C   0  0  0  0  0  0
   -1.8069   51.0723   21.7236 C   0  0  0  0  0  0
   -2.7692   51.2948   20.9831 O   0  0  0  0  0  0
   -2.1099   50.9421   23.2488 C   0  0  1  0  0  0
   -2.9512   50.2466   23.2298 H   0  0  0  0  0  0
   -1.0035   50.2848   24.1253 C   0  0  0  0  0  0
   -1.5570   49.9958   25.5404 C   0  0  0  0  0  0
   -2.2965   51.2093   26.0913 C   0  0  0  0  0  0
   -2.7239   52.2419   25.3357 C   0  0  0  0  0  0
   -2.5786   52.3117   23.8176 C   0  0  0  0  0  0
    8.2003   56.8715   15.2789 H   0  0  0  0  0  0
    6.8390   55.7585   15.3915 H   0  0  0  0  0  0
    8.4535   55.2671   15.9623 H   0  0  0  0  0  0
    6.7669   53.9719   17.0142 H   0  0  0  0  0  0
    5.6741   52.7140   18.7885 H   0  0  0  0  0  0
    5.6725   56.2191   21.2807 H   0  0  0  0  0  0
    6.7509   57.4895   19.4817 H   0  0  0  0  0  0
    5.5041   52.5821   21.2399 H   0  0  0  0  0  0
    7.3118   54.1031   22.5262 H   0  0  0  0  0  0
    7.7151   54.6601   24.8720 H   0  0  0  0  0  0
    3.5041   54.4625   25.6568 H   0  0  0  0  0  0
    3.0829   53.9319   23.3294 H   0  0  0  0  0  0
    5.4961   54.8686   28.7398 H   0  0  0  0  0  0
    4.1692   55.2870   27.6649 H   0  0  0  0  0  0
    4.7215   53.6035   27.7906 H   0  0  0  0  0  0
    3.0022   53.9632   20.5470 H   0  0  0  0  0  0
    1.1814   50.5052   22.2639 H   0  0  0  0  0  0
    0.5053   52.1866   22.5875 H   0  0  0  0  0  0
   -0.8272   51.7149   19.3339 H   0  0  0  0  0  0
   -0.8729   50.0076   19.2347 H   0  0  0  0  0  0
    1.1074   52.5886   18.0510 H   0  0  0  0  0  0
    2.6125   51.7239   18.0357 H   0  0  0  0  0  0
   -0.1425   50.6720   17.0060 H   0  0  0  0  0  0
    1.2501   51.1254   15.9997 H   0  0  0  0  0  0
    1.1100   48.7231   16.3562 H   0  0  0  0  0  0
    0.3122   48.3700   18.5843 H   0  0  0  0  0  0
    1.9571   47.7243   18.4092 H   0  0  0  0  0  0
    2.9862   49.7291   19.4329 H   0  0  0  0  0  0
    1.7588   49.1311   20.5052 H   0  0  0  0  0  0
   -0.6814   49.3235   23.7248 H   0  0  0  0  0  0
   -0.1631   50.9574   24.2922 H   0  0  0  0  0  0
   -0.7425   49.7212   26.2136 H   0  0  0  0  0  0
   -2.2260   49.1360   25.5302 H   0  0  0  0  0  0
   -2.4882   51.2473   27.1533 H   0  0  0  0  0  0
   -3.2250   53.0552   25.8402 H   0  0  0  0  0  0
   -1.8357   53.0837   23.6120 H   0  0  0  0  0  0
   -3.4990   52.6485   23.3375 H   0  0  0  0  0  0
    2.5101   49.3379   16.8810 H   0  0  0  0  0  0
  1  2  1  0  0  0
  1 41  1  0  0  0
  1 42  1  0  0  0
  1 43  1  0  0  0
  2  3  1  0  0  0
  3  8  2  0  0  0
  3  4  1  0  0  0
  4  5  2  0  0  0
  4 44  1  0  0  0
  5  6  1  0  0  0
  5 45  1  0  0  0
  6  7  2  0  0  0
  6  9  1  0  0  0
  7  8  1  0  0  0
  7 46  1  0  0  0
  8 47  1  0  0  0
  9 10  1  0  0  0
  9 18  1  0  0  0
  9 48  1  0  0  0
 10 15  2  0  0  0
 10 11  1  0  0  0
 11 12  2  0  0  0
 11 49  1  0  0  0
 12 13  1  0  0  0
 12 50  1  0  0  0
 13 14  2  0  0  0
 13 16  1  0  0  0
 14 15  1  0  0  0
 14 51  1  0  0  0
 15 52  1  0  0  0
 16 17  1  0  0  0
 17 53  1  0  0  0
 17 54  1  0  0  0
 17 55  1  0  0  0
 18 19  1  0  0  0
 18 56  1  0  0  0
 19 20  2  0  0  0
 19 21  1  0  0  0
 21 22  1  0  0  0
 21 26  1  0  0  0
 21 23  1  0  0  0
 23 24  1  0  0  0
 23 57  1  0  0  0
 23 58  1  0  0  0
 24 25  1  0  0  0
 24 32  1  0  0  0
 25 26  1  0  0  0
 25 59  1  0  0  0
 25 60  1  0  0  0
 26 31  1  0  0  0
 26 27  1  0  0  0
 27 28  1  0  0  0
 27 61  1  0  0  0
 27 62  1  0  0  0
 28 29  1  0  0  0
 28 63  1  0  0  0
 28 64  1  0  0  0
 29 30  1  0  0  0
 29 65  1  0  0  0
 29 78  1  0  0  0
 30 31  1  0  0  0
 30 66  1  0  0  0
 30 67  1  0  0  0
 31 68  1  0  0  0
 31 69  1  0  0  0
 32 33  2  0  0  0
 32 34  1  0  0  0
 34 35  1  0  0  0
 34 40  1  0  0  0
 34 36  1  0  0  0
 36 37  1  0  0  0
 36 70  1  0  0  0
 36 71  1  0  0  0
 37 38  1  0  0  0
 37 72  1  0  0  0
 37 73  1  0  0  0
 38 39  2  0  0  0
 38 74  1  0  0  0
 39 40  1  0  0  0
 39 75  1  0  0  0
 40 76  1  0  0  0
 40 77  1  0  0  0
M  CHG  1  29   1
M  END
> <i_i_glide_confnum>
244

> <i_i_glide_lignum>
1245

> <i_i_glide_posenum>
244

> <i_i_glide_rotatable_bonds>
9

> <i_m_Source_File_Index>
2832

> <b_m_subgroup_collapsed>
0

> <r_i_docking_score>
-5.20546

> <r_i_glide_ecoul>
-8.54786

> <r_i_glide_eff_state_penalty>
0

> <r_i_glide_einternal>
14.613

> <r_i_glide_emodel>
-59.4026

> <r_i_glide_energy>
-48.6814

> <r_i_glide_erotb>
0.534464

> <r_i_glide_esite>
-0.10726

> <r_i_glide_evdw>
-40.1335

> <r_i_glide_gscore>
-5.20546

> <r_i_glide_hbond>
-0.46821

> <r_i_glide_ligand_efficiency>
-0.136986

> <r_i_glide_ligand_efficiency_ln>
-1.12245

> <r_i_glide_ligand_efficiency_sa>
-0.460542

> <r_i_glide_lipo>
-2.28221

> <r_i_glide_metal>
0

> <r_i_glide_rewards>
0.406619

> <s_i_glide_gridfile>
wee1_glide-grid

> <s_m_Source_File>
wee1_decoys_glide_SP.sdf

> <s_m_Source_Path>
/Users/zhangxujun/Desktop

> <s_m_entry_id>
3107

> <s_m_entry_name>
wee1_decoys_glide_SP.2832

> <s_m_subgroup_title>
wee1_decoys_glide_SP

> <s_m_subgroupid>
wee1_decoys_glide_SP


$$$$
