ZINC42278265_6160
                    3D
 Schrodinger Suite 2024-2.
 35 36  0  0  1  0            999 V2000
    2.0361   55.0079   29.0308 C   0  0  0  0  0  0
    2.6321   53.6260   28.6806 C   0  0  2  0  0  0
    2.0333   52.9033   29.2287 H   0  0  0  0  0  0
    4.0680   53.4380   29.2503 C   0  0  0  0  0  0
    5.1455   54.2311   28.4815 C   0  0  0  0  0  0
    4.9863   53.8644   26.9927 C   0  0  1  0  0  0
    5.2008   52.7996   26.8829 H   0  0  0  0  0  0
    3.5482   54.1438   26.4934 C   0  0  0  0  0  0
    2.5839   53.2981   27.2309 N   0  0  0  0  0  0
    1.5043   52.6334   26.6362 C   0  0  0  0  0  0
    0.8094   51.6279   27.3301 C   0  0  0  0  0  0
   -0.2180   50.9079   26.7240 C   0  0  0  0  0  0
   -0.5781   51.1904   25.4074 C   0  0  0  0  0  0
    0.0899   52.1898   24.7015 C   0  0  0  0  0  0
    1.1240   52.8967   25.3094 C   0  0  0  0  0  0
   -1.6475   50.4383   24.7654 C   0  0  0  0  0  0
   -2.4966   49.8437   24.2512 N   0  0  0  0  0  0
    6.0508   54.4825   26.0632 C   0  0  0  0  0  0
    6.8655   55.2969   26.4793 O   0  0  0  0  0  0
    6.0846   54.0969   24.7876 N   0  0  0  0  0  0
    1.8941   55.1102   30.1069 H   0  0  0  0  0  0
    2.6722   55.8337   28.7129 H   0  0  0  0  0  0
    1.0623   55.1449   28.5591 H   0  0  0  0  0  0
    4.1024   53.6789   30.3130 H   0  0  0  0  0  0
    4.3381   52.3842   29.1547 H   0  0  0  0  0  0
    4.9630   55.2896   28.6612 H   0  0  0  0  0  0
    6.1174   53.9278   28.8764 H   0  0  0  0  0  0
    3.5076   53.9951   25.4159 H   0  0  0  0  0  0
    3.2794   55.1847   26.6687 H   0  0  0  0  0  0
    1.0772   51.3479   28.3366 H   0  0  0  0  0  0
   -0.7175   50.1250   27.2806 H   0  0  0  0  0  0
   -0.1772   52.4204   23.6793 H   0  0  0  0  0  0
    1.6086   53.6637   24.7271 H   0  0  0  0  0  0
    5.4458   53.3959   24.4464 H   0  0  0  0  0  0
    6.7848   54.4895   24.1752 H   0  0  0  0  0  0
  1  2  1  0  0  0
  1 21  1  0  0  0
  1 22  1  0  0  0
  1 23  1  0  0  0
  2  3  1  0  0  0
  2  9  1  0  0  0
  2  4  1  0  0  0
  4  5  1  0  0  0
  4 24  1  0  0  0
  4 25  1  0  0  0
  5  6  1  0  0  0
  5 26  1  0  0  0
  5 27  1  0  0  0
  6  7  1  0  0  0
  6  8  1  0  0  0
  6 18  1  0  0  0
  8  9  1  0  0  0
  8 28  1  0  0  0
  8 29  1  0  0  0
  9 10  1  0  0  0
 10 15  2  0  0  0
 10 11  1  0  0  0
 11 12  2  0  0  0
 11 30  1  0  0  0
 12 13  1  0  0  0
 12 31  1  0  0  0
 13 14  2  0  0  0
 13 16  1  0  0  0
 14 15  1  0  0  0
 14 32  1  0  0  0
 15 33  1  0  0  0
 16 17  3  0  0  0
 18 19  2  0  0  0
 18 20  1  0  0  0
 20 34  1  0  0  0
 20 35  1  0  0  0
M  END
> <i_i_glide_confnum>
1

> <i_i_glide_lignum>
6161

> <i_i_glide_posenum>
109

> <i_i_glide_rotatable_bonds>
3

> <i_m_Source_File_Index>
3357

> <b_m_subgroup_collapsed>
0

> <r_i_docking_score>
-6.53929

> <r_i_glide_ecoul>
-4.03968

> <r_i_glide_eff_state_penalty>
0

> <r_i_glide_einternal>
0.240848

> <r_i_glide_emodel>
-49.2822

> <r_i_glide_energy>
-35.0785

> <r_i_glide_erotb>
0.293317

> <r_i_glide_esite>
-0.018407

> <r_i_glide_evdw>
-31.0388

> <r_i_glide_gscore>
-6.53929

> <r_i_glide_hbond>
-0.32

> <r_i_glide_ligand_efficiency>
-0.363294

> <r_i_glide_ligand_efficiency_ln>
-1.68089

> <r_i_glide_ligand_efficiency_sa>
-0.952099

> <r_i_glide_lipo>
-1.87501

> <r_i_glide_metal>
0

> <r_i_glide_rewards>
-2.4613

> <s_i_glide_gridfile>
wee1_glide-grid

> <s_m_Source_File>
wee1_decoys_glide_SP.sdf

> <s_m_Source_Path>
/Users/zhangxujun/Desktop

> <s_m_entry_id>
3632

> <s_m_entry_name>
wee1_decoys_glide_SP.3357

> <s_m_subgroup_title>
wee1_decoys_glide_SP

> <s_m_subgroupid>
wee1_decoys_glide_SP


$$$$
