ZINC49072659_6065
                    3D
 Schrodinger Suite 2024-2.
 63 67  0  0  1  0            999 V2000
    6.8045   55.4528   19.7321 C   0  0  0  0  0  0
    5.8954   54.9054   18.8320 C   0  0  0  0  0  0
    4.7869   54.1939   19.2860 C   0  0  0  0  0  0
    4.5681   54.0188   20.6751 C   0  0  0  0  0  0
    3.4482   53.3026   21.1727 C   0  0  0  0  0  0
    3.2129   53.1543   22.5486 C   0  0  0  0  0  0
    4.1698   53.6958   23.4237 C   0  0  0  0  0  0
    5.2932   54.3822   22.9760 C   0  0  0  0  0  0
    5.5043   54.5748   21.5957 C   0  0  0  0  0  0
    6.6219   55.2966   21.1039 C   0  0  0  0  0  0
    2.0226   52.3018   23.0107 C   0  0  0  0  0  0
    1.6288   51.4312   22.2280 O   0  0  0  0  0  0
    1.4160   52.4642   24.2367 N   0  0  0  0  0  0
    1.6610   53.6352   25.1174 C   0  0  0  0  0  0
    2.2707   53.3989   26.5120 C   0  0  0  0  0  0
    1.6795   52.5320   27.4422 C   0  0  0  0  0  0
    2.2312   52.3706   28.7101 C   0  0  0  0  0  0
    3.3735   53.0820   29.0632 C   0  0  0  0  0  0
    3.9631   53.9607   28.1593 C   0  0  0  0  0  0
    3.4076   54.1242   26.8919 C   0  0  0  0  0  0
    3.9028   52.9296   30.2981 F   0  0  0  0  0  0
    0.4387   51.5217   24.6903 C   0  0  0  0  0  0
    0.7493   50.1573   24.8285 C   0  0  0  0  0  0
   -0.0808   49.3107   25.5610 C   0  0  0  0  0  0
   -1.2181   49.8044   26.0767 N   0  3  0  0  0  0
   -1.6498   51.0651   25.8537 C   0  0  0  0  0  0
   -0.8198   51.9510   25.1525 C   0  0  0  0  0  0
   -2.9109   51.4995   26.3415 N   0  0  0  0  0  0
   -3.7272   50.6984   27.2666 C   0  0  0  0  0  0
   -3.1941   50.8972   28.6993 C   0  0  0  0  0  0
   -4.0958   50.2569   29.7703 C   0  0  0  0  0  0
   -5.5624   50.7026   29.6291 C   0  0  0  0  0  0
   -6.0982   50.4455   28.2078 C   0  0  0  0  0  0
   -5.2139   51.0941   27.1231 C   0  0  0  0  0  0
    7.6625   55.9943   19.3603 H   0  0  0  0  0  0
    6.0524   55.0296   17.7701 H   0  0  0  0  0  0
    4.0881   53.7692   18.5791 H   0  0  0  0  0  0
    2.7594   52.8812   20.4525 H   0  0  0  0  0  0
    4.1178   53.4964   24.4779 H   0  0  0  0  0  0
    6.0160   54.7632   23.6833 H   0  0  0  0  0  0
    7.3386   55.7101   21.7993 H   0  0  0  0  0  0
    2.2009   54.4320   24.6097 H   0  0  0  0  0  0
    0.7044   54.0967   25.2815 H   0  0  0  0  0  0
    0.7835   51.9802   27.2163 H   0  0  0  0  0  0
    1.7677   51.7022   29.4201 H   0  0  0  0  0  0
    4.8428   54.5188   28.4459 H   0  0  0  0  0  0
    3.8638   54.8315   26.2146 H   0  0  0  0  0  0
    1.6927   49.7707   24.4688 H   0  0  0  0  0  0
    0.1437   48.2787   25.8005 H   0  0  0  0  0  0
   -1.1283   52.9763   25.0193 H   0  0  0  0  0  0
   -3.1726   52.4643   26.2042 H   0  0  0  0  0  0
   -3.6242   49.6492   26.9840 H   0  0  0  0  0  0
   -2.1851   50.4968   28.7953 H   0  0  0  0  0  0
   -3.1127   51.9639   28.8824 H   0  0  0  0  0  0
   -4.0325   49.1702   29.6835 H   0  0  0  0  0  0
   -3.7182   50.4944   30.7666 H   0  0  0  0  0  0
   -6.1793   50.1792   30.3609 H   0  0  0  0  0  0
   -5.6456   51.7643   29.8630 H   0  0  0  0  0  0
   -6.1503   49.3693   28.0342 H   0  0  0  0  0  0
   -7.1215   50.8135   28.1234 H   0  0  0  0  0  0
   -5.3210   52.1785   27.1861 H   0  0  0  0  0  0
   -5.5831   50.8029   26.1387 H   0  0  0  0  0  0
   -1.7386   49.2126   26.7203 H   0  0  0  0  0  0
  1 10  2  0  0  0
  1  2  1  0  0  0
  1 35  1  0  0  0
  2  3  2  0  0  0
  2 36  1  0  0  0
  3  4  1  0  0  0
  3 37  1  0  0  0
  4  9  2  0  0  0
  4  5  1  0  0  0
  5  6  2  0  0  0
  5 38  1  0  0  0
  6  7  1  0  0  0
  6 11  1  0  0  0
  7  8  2  0  0  0
  7 39  1  0  0  0
  8  9  1  0  0  0
  8 40  1  0  0  0
  9 10  1  0  0  0
 10 41  1  0  0  0
 11 12  2  0  0  0
 11 13  1  0  0  0
 13 14  1  0  0  0
 13 22  1  0  0  0
 14 15  1  0  0  0
 14 42  1  0  0  0
 14 43  1  0  0  0
 15 20  2  0  0  0
 15 16  1  0  0  0
 16 17  2  0  0  0
 16 44  1  0  0  0
 17 18  1  0  0  0
 17 45  1  0  0  0
 18 19  2  0  0  0
 18 21  1  0  0  0
 19 20  1  0  0  0
 19 46  1  0  0  0
 20 47  1  0  0  0
 22 27  2  0  0  0
 22 23  1  0  0  0
 23 24  2  0  0  0
 23 48  1  0  0  0
 24 25  1  0  0  0
 24 49  1  0  0  0
 25 26  2  0  0  0
 25 63  1  0  0  0
 26 27  1  0  0  0
 26 28  1  0  0  0
 27 50  1  0  0  0
 28 29  1  0  0  0
 28 51  1  0  0  0
 29 34  1  0  0  0
 29 30  1  0  0  0
 29 52  1  0  0  0
 30 31  1  0  0  0
 30 53  1  0  0  0
 30 54  1  0  0  0
 31 32  1  0  0  0
 31 55  1  0  0  0
 31 56  1  0  0  0
 32 33  1  0  0  0
 32 57  1  0  0  0
 32 58  1  0  0  0
 33 34  1  0  0  0
 33 59  1  0  0  0
 33 60  1  0  0  0
 34 61  1  0  0  0
 34 62  1  0  0  0
M  CHG  1  25   1
M  END
> <i_i_glide_confnum>
163

> <i_i_glide_lignum>
6066

> <i_i_glide_posenum>
189

> <i_i_glide_rotatable_bonds>
7

> <i_m_Source_File_Index>
5312

> <b_m_subgroup_collapsed>
0

> <r_i_docking_score>
-4.87139

> <r_i_glide_ecoul>
-5.27973

> <r_i_glide_eff_state_penalty>
0

> <r_i_glide_einternal>
6.76342

> <r_i_glide_emodel>
-51.4321

> <r_i_glide_energy>
-41.0622

> <r_i_glide_erotb>
0.680342

> <r_i_glide_esite>
-0.128289

> <r_i_glide_evdw>
-35.7825

> <r_i_glide_gscore>
-4.87139

> <r_i_glide_hbond>
-0.153981

> <r_i_glide_ligand_efficiency>
-0.143276

> <r_i_glide_ligand_efficiency_ln>
-1.07623

> <r_i_glide_ligand_efficiency_sa>
-0.464159

> <r_i_glide_lipo>
-2.48734

> <r_i_glide_metal>
0

> <r_i_glide_rewards>
-0.201039

> <s_i_glide_gridfile>
wee1_glide-grid

> <s_m_Source_File>
wee1_decoys_glide_SP.sdf

> <s_m_Source_Path>
/Users/zhangxujun/Desktop

> <s_m_entry_id>
5587

> <s_m_entry_name>
wee1_decoys_glide_SP.5312

> <s_m_subgroup_title>
wee1_decoys_glide_SP

> <s_m_subgroupid>
wee1_decoys_glide_SP


$$$$
