ZINC24882652_4183
                    3D
 Schrodinger Suite 2024-2.
 61 65  0  0  1  0            999 V2000
    9.2540   54.2109   17.6217 C   0  0  0  0  0  0
    8.2327   55.3649   17.5379 C   0  0  2  0  0  0
    8.4727   55.9182   16.6288 H   0  0  0  0  0  0
    8.3434   56.3914   18.6890 C   0  0  0  0  0  0
    8.0559   55.7413   20.0580 C   0  0  0  0  0  0
    6.7314   54.9775   19.9833 C   0  0  0  0  0  0
    6.1814   54.5681   18.7547 C   0  0  0  0  0  0
    4.6937   53.6982   18.9639 S   0  0  0  0  0  0
    4.7960   53.9015   20.6758 C   0  0  0  0  0  0
    5.9043   54.6225   21.0725 C   0  0  0  0  0  0
    6.0913   54.8966   22.4975 C   0  0  0  0  0  0
    7.0211   55.5653   22.9553 O   0  0  0  0  0  0
    5.0730   54.3356   23.2905 N   0  0  0  0  0  0
    3.9252   53.6964   22.7575 C   0  0  0  0  0  0
    3.8446   53.4240   21.5060 N   0  0  0  0  0  0
    2.4811   53.1942   23.7483 S   0  0  0  0  0  0
    1.5651   51.9342   22.7717 C   0  0  2  0  0  0
    2.2569   51.1009   22.6374 H   0  0  0  0  0  0
    1.0333   52.3103   21.3665 C   0  0  0  0  0  0
    0.4416   51.4298   23.6765 C   0  0  0  0  0  0
    0.6867   50.3134   24.4065 N   0  0  0  0  0  0
   -0.2888   50.0093   25.2886 C   0  0  0  0  0  0
   -1.4333   50.6973   25.4768 N   0  0  0  0  0  0
   -1.5961   51.7924   24.6849 C   0  0  0  0  0  0
   -0.6722   52.2022   23.7710 N   0  0  0  0  0  0
   -2.7891   52.5517   24.8173 N   0  0  0  0  0  0
   -3.8832   52.0701   25.6619 C   0  0  0  0  0  0
   -3.1011   53.5840   23.8293 C   0  0  0  0  0  0
   -0.0953   48.8967   26.0817 N   0  0  0  0  0  0
    5.2798   54.4113   24.7195 C   0  0  0  0  0  0
    6.4915   53.9906   25.3015 C   0  0  0  0  0  0
    6.6777   54.0162   26.6818 C   0  0  0  0  0  0
    5.6550   54.4614   27.5083 C   0  0  0  0  0  0
    4.4557   54.8966   26.9598 C   0  0  0  0  0  0
    4.2826   54.8975   25.5794 C   0  0  0  0  0  0
    6.7692   54.8796   17.3804 C   0  0  0  0  0  0
    9.0684   53.5688   18.4815 H   0  0  0  0  0  0
    9.2189   53.5841   16.7291 H   0  0  0  0  0  0
   10.2712   54.5931   17.7107 H   0  0  0  0  0  0
    9.3495   56.8132   18.7153 H   0  0  0  0  0  0
    7.6563   57.2217   18.5204 H   0  0  0  0  0  0
    8.0366   56.4966   20.8375 H   0  0  0  0  0  0
    8.8653   55.0643   20.3314 H   0  0  0  0  0  0
    0.2829   51.5971   21.0227 H   0  0  0  0  0  0
    0.5783   53.2967   21.3655 H   0  0  0  0  0  0
    1.8123   52.3104   20.6059 H   0  0  0  0  0  0
   -4.3852   51.2294   25.1811 H   0  0  0  0  0  0
   -3.5135   51.7173   26.6257 H   0  0  0  0  0  0
   -4.6207   52.8502   25.8505 H   0  0  0  0  0  0
   -2.2573   54.2586   23.6815 H   0  0  0  0  0  0
   -3.2946   53.1070   22.8712 H   0  0  0  0  0  0
   -3.9735   54.1773   24.1065 H   0  0  0  0  0  0
   -0.7641   48.6928   26.8285 H   0  0  0  0  0  0
    0.7312   48.3312   25.9677 H   0  0  0  0  0  0
    7.2929   53.6129   24.6825 H   0  0  0  0  0  0
    7.6011   53.6682   27.1187 H   0  0  0  0  0  0
    5.7991   54.4777   28.5791 H   0  0  0  0  0  0
    3.6702   55.2689   27.6022 H   0  0  0  0  0  0
    3.3591   55.2915   25.1842 H   0  0  0  0  0  0
    6.7242   54.0034   16.7331 H   0  0  0  0  0  0
    6.1822   55.6551   16.8873 H   0  0  0  0  0  0
  1  2  1  0  0  0
  1 37  1  0  0  0
  1 38  1  0  0  0
  1 39  1  0  0  0
  2  3  1  0  0  0
  2 36  1  0  0  0
  2  4  1  0  0  0
  4  5  1  0  0  0
  4 40  1  0  0  0
  4 41  1  0  0  0
  5  6  1  0  0  0
  5 42  1  0  0  0
  5 43  1  0  0  0
  6 10  1  0  0  0
  6  7  2  0  0  0
  7  8  1  0  0  0
  7 36  1  0  0  0
  8  9  1  0  0  0
  9 15  1  0  0  0
  9 10  2  0  0  0
 10 11  1  0  0  0
 11 12  2  0  0  0
 11 13  1  0  0  0
 13 14  1  0  0  0
 13 30  1  0  0  0
 14 15  2  0  0  0
 14 16  1  0  0  0
 16 17  1  0  0  0
 17 18  1  0  0  0
 17 19  1  0  0  0
 17 20  1  0  0  0
 19 44  1  0  0  0
 19 45  1  0  0  0
 19 46  1  0  0  0
 20 25  2  0  0  0
 20 21  1  0  0  0
 21 22  2  0  0  0
 22 23  1  0  0  0
 22 29  1  0  0  0
 23 24  2  0  0  0
 24 25  1  0  0  0
 24 26  1  0  0  0
 26 27  1  0  0  0
 26 28  1  0  0  0
 27 47  1  0  0  0
 27 48  1  0  0  0
 27 49  1  0  0  0
 28 50  1  0  0  0
 28 51  1  0  0  0
 28 52  1  0  0  0
 29 53  1  0  0  0
 29 54  1  0  0  0
 30 35  2  0  0  0
 30 31  1  0  0  0
 31 32  2  0  0  0
 31 55  1  0  0  0
 32 33  1  0  0  0
 32 56  1  0  0  0
 33 34  2  0  0  0
 33 57  1  0  0  0
 34 35  1  0  0  0
 34 58  1  0  0  0
 35 59  1  0  0  0
 36 60  1  0  0  0
 36 61  1  0  0  0
M  END
> <i_i_glide_confnum>
36

> <i_i_glide_lignum>
4184

> <i_i_glide_posenum>
349

> <i_i_glide_rotatable_bonds>
5

> <i_m_Source_File_Index>
976

> <b_m_subgroup_collapsed>
0

> <r_i_docking_score>
-6.58168

> <r_i_glide_ecoul>
-3.54685

> <r_i_glide_eff_state_penalty>
0

> <r_i_glide_einternal>
7.0869

> <r_i_glide_emodel>
-59.1947

> <r_i_glide_energy>
-45.3909

> <r_i_glide_erotb>
0.334408

> <r_i_glide_esite>
-0.141991

> <r_i_glide_evdw>
-41.8441

> <r_i_glide_gscore>
-6.58168

> <r_i_glide_hbond>
-0.227615

> <r_i_glide_ligand_efficiency>
-0.193579

> <r_i_glide_ligand_efficiency_ln>
-1.45408

> <r_i_glide_ligand_efficiency_sa>
-0.627121

> <r_i_glide_lipo>
-3.13269

> <r_i_glide_metal>
0

> <r_i_glide_rewards>
-0.78956

> <s_i_glide_gridfile>
wee1_glide-grid

> <s_m_Source_File>
wee1_decoys_glide_SP.sdf

> <s_m_Source_Path>
/Users/zhangxujun/Desktop

> <s_m_entry_id>
1251

> <s_m_entry_name>
wee1_decoys_glide_SP.976

> <s_m_subgroup_title>
wee1_decoys_glide_SP

> <s_m_subgroupid>
wee1_decoys_glide_SP


$$$$
