ZINC32971158_5900
                    3D
 Schrodinger Suite 2024-2.
 59 62  0  0  1  0            999 V2000
    6.8616   55.4915   24.7937 C   0  0  0  0  0  0
    6.0576   54.7585   25.8490 C   0  0  0  0  0  0
    6.6678   54.3898   27.0450 C   0  0  0  0  0  0
    5.9463   53.6948   28.0042 C   0  0  0  0  0  0
    4.6133   53.3639   27.7753 C   0  0  0  0  0  0
    3.9554   53.7318   26.5866 C   0  0  0  0  0  0
    4.7116   54.4426   25.6327 C   0  0  0  0  0  0
    2.6302   53.3314   26.3437 N   0  0  0  0  0  0
    1.9273   53.5742   25.0703 C   0  0  0  0  0  0
    0.8537   52.5413   24.6517 C   0  0  0  0  0  0
    0.3872   51.6324   25.6954 N   0  0  0  0  0  0
    0.3830   52.2309   27.0266 C   0  0  0  0  0  0
    1.6910   52.9676   27.4313 C   0  0  2  0  0  0
    2.2298   52.2018   27.9872 H   0  0  0  0  0  0
    1.3758   54.1036   28.4273 C   0  0  0  0  0  0
   -0.4002   50.5306   25.3902 C   0  0  0  0  0  0
    0.2371   49.3046   25.1968 C   0  0  0  0  0  0
   -0.4956   48.1659   24.8816 C   0  0  0  0  0  0
   -1.8882   48.2164   24.7683 C   0  0  0  0  0  0
   -2.5312   49.4492   24.9565 C   0  0  0  0  0  0
   -1.8027   50.6152   25.2478 C   0  0  0  0  0  0
   -2.4194   51.8696   25.4311 N   0  0  0  0  0  0
   -4.1498   52.1780   25.6646 S   0  0  0  0  0  0
   -4.8983   51.4412   24.6416 O   0  0  0  0  0  0
   -4.2810   53.6357   25.7664 O   0  0  0  0  0  0
   -4.6174   51.5298   27.2682 C   0  0  0  0  0  0
   -3.6935   50.8966   28.1075 C   0  0  0  0  0  0
   -4.0963   50.4560   29.3648 C   0  0  0  0  0  0
   -5.4140   50.6354   29.7757 C   0  0  0  0  0  0
   -6.3394   51.2494   28.9356 C   0  0  0  0  0  0
   -5.9416   51.6955   27.6782 C   0  0  0  0  0  0
   -5.8006   50.2173   31.0015 F   0  0  0  0  0  0
   -2.6633   46.9757   24.4487 C   0  0  0  0  0  0
   -2.0957   46.0968   23.7604 O   0  0  0  0  0  0
   -3.8326   46.8751   24.8823 O   0  5  0  0  0  0
    7.4998   56.2407   25.2574 H   0  0  0  0  0  0
    7.5013   54.7928   24.2542 H   0  0  0  0  0  0
    6.2272   56.0169   24.0822 H   0  0  0  0  0  0
    7.7030   54.6220   27.2404 H   0  0  0  0  0  0
    6.4349   53.3920   28.9145 H   0  0  0  0  0  0
    4.1117   52.7977   28.5425 H   0  0  0  0  0  0
    4.2752   54.7549   24.6988 H   0  0  0  0  0  0
    2.5635   53.8025   24.2184 H   0  0  0  0  0  0
    1.3896   54.4957   25.2800 H   0  0  0  0  0  0
    1.3602   51.8737   23.9529 H   0  0  0  0  0  0
    0.0377   53.0434   24.1304 H   0  0  0  0  0  0
   -0.4477   52.9348   27.0635 H   0  0  0  0  0  0
    0.1530   51.4593   27.7641 H   0  0  0  0  0  0
    0.8802   53.7171   29.3185 H   0  0  0  0  0  0
    2.2768   54.6213   28.7553 H   0  0  0  0  0  0
    0.7185   54.8515   27.9840 H   0  0  0  0  0  0
    1.3101   49.2243   25.2915 H   0  0  0  0  0  0
    0.0343   47.2346   24.7510 H   0  0  0  0  0  0
   -3.6062   49.4755   24.8730 H   0  0  0  0  0  0
   -1.8027   52.6179   25.7074 H   0  0  0  0  0  0
   -2.6665   50.7364   27.8137 H   0  0  0  0  0  0
   -3.3838   49.9703   30.0173 H   0  0  0  0  0  0
   -7.3608   51.3775   29.2611 H   0  0  0  0  0  0
   -6.6570   52.1772   27.0265 H   0  0  0  0  0  0
  1  2  1  0  0  0
  1 36  1  0  0  0
  1 37  1  0  0  0
  1 38  1  0  0  0
  2  7  2  0  0  0
  2  3  1  0  0  0
  3  4  2  0  0  0
  3 39  1  0  0  0
  4  5  1  0  0  0
  4 40  1  0  0  0
  5  6  2  0  0  0
  5 41  1  0  0  0
  6  7  1  0  0  0
  6  8  1  0  0  0
  7 42  1  0  0  0
  8 13  1  0  0  0
  8  9  1  0  0  0
  9 10  1  0  0  0
  9 43  1  0  0  0
  9 44  1  0  0  0
 10 11  1  0  0  0
 10 45  1  0  0  0
 10 46  1  0  0  0
 11 12  1  0  0  0
 11 16  1  0  0  0
 12 13  1  0  0  0
 12 47  1  0  0  0
 12 48  1  0  0  0
 13 14  1  0  0  0
 13 15  1  0  0  0
 15 49  1  0  0  0
 15 50  1  0  0  0
 15 51  1  0  0  0
 16 21  2  0  0  0
 16 17  1  0  0  0
 17 18  2  0  0  0
 17 52  1  0  0  0
 18 19  1  0  0  0
 18 53  1  0  0  0
 19 20  2  0  0  0
 19 33  1  0  0  0
 20 21  1  0  0  0
 20 54  1  0  0  0
 21 22  1  0  0  0
 22 23  1  0  0  0
 22 55  1  0  0  0
 23 24  2  0  0  0
 23 25  2  0  0  0
 23 26  1  0  0  0
 26 31  2  0  0  0
 26 27  1  0  0  0
 27 28  2  0  0  0
 27 56  1  0  0  0
 28 29  1  0  0  0
 28 57  1  0  0  0
 29 30  2  0  0  0
 29 32  1  0  0  0
 30 31  1  0  0  0
 30 58  1  0  0  0
 31 59  1  0  0  0
 33 34  2  0  0  0
 33 35  1  0  0  0
M  CHG  1  35  -1
M  END
> <i_i_glide_confnum>
165

> <i_i_glide_lignum>
5901

> <i_i_glide_posenum>
299

> <i_i_glide_rotatable_bonds>
6

> <i_m_Source_File_Index>
3714

> <b_m_subgroup_collapsed>
0

> <r_i_docking_score>
-2.61349

> <r_i_glide_ecoul>
-2.49454

> <r_i_glide_eff_state_penalty>
0

> <r_i_glide_einternal>
10.4666

> <r_i_glide_emodel>
-40.2233

> <r_i_glide_energy>
-44.5954

> <r_i_glide_erotb>
0.435776

> <r_i_glide_esite>
-0.0841382

> <r_i_glide_evdw>
-42.1008

> <r_i_glide_gscore>
-2.61349

> <r_i_glide_hbond>
-0.000125764

> <r_i_glide_ligand_efficiency>
-0.0768672

> <r_i_glide_ligand_efficiency_ln>
-0.577392

> <r_i_glide_ligand_efficiency_sa>
-0.24902

> <r_i_glide_lipo>
-2.58658

> <r_i_glide_metal>
0

> <r_i_glide_rewards>
2.1008

> <s_i_glide_gridfile>
wee1_glide-grid

> <s_m_Source_File>
wee1_decoys_glide_SP.sdf

> <s_m_Source_Path>
/Users/zhangxujun/Desktop

> <s_m_entry_id>
3989

> <s_m_entry_name>
wee1_decoys_glide_SP.3714

> <s_m_subgroup_title>
wee1_decoys_glide_SP

> <s_m_subgroupid>
wee1_decoys_glide_SP


$$$$
