ZINC02780773_474
                    3D
 Schrodinger Suite 2024-2.
 49 53  0  0  1  0            999 V2000
    3.2572   52.5169   16.1595 C   0  0  0  0  0  0
    2.7836   52.4946   17.4734 C   0  0  0  0  0  0
    1.4542   52.0866   17.4270 C   0  0  0  0  0  0
    1.1069   51.8684   16.1281 O   0  0  0  0  0  0
    2.1968   52.1266   15.3621 C   0  0  0  0  0  0
    0.4145   51.8536   18.4701 C   0  0  0  0  0  0
   -0.8716   51.4231   18.1462 C   0  0  0  0  0  0
   -1.7998   51.2369   19.1737 C   0  0  0  0  0  0
   -1.3800   51.5012   20.4595 N   0  0  0  0  0  0
   -0.0665   51.9210   20.7355 C   0  0  0  0  0  0
    0.8208   52.0940   19.7457 N   0  0  0  0  0  0
    0.0027   52.0952   22.1485 C   0  0  0  0  0  0
   -1.2937   51.7488   22.5619 C   0  0  0  0  0  0
   -2.1140   51.4115   21.5906 N   0  0  0  0  0  0
    1.1109   52.5299   22.9543 C   0  0  0  0  0  0
    2.1767   52.8040   22.4009 O   0  0  0  0  0  0
    0.8791   52.5987   24.2877 N   0  0  0  0  0  0
    1.7586   53.0249   25.2900 C   0  0  0  0  0  0
    1.5794   52.8969   26.6875 C   0  0  0  0  0  0
    2.6682   53.4622   27.4127 C   0  0  0  0  0  0
    3.6919   53.9222   26.5725 C   0  0  0  0  0  0
    3.2505   53.8515   24.9157 S   0  0  0  0  0  0
    5.0412   54.4627   27.0159 C   0  0  0  0  0  0
    5.2821   54.0556   28.4807 C   0  0  0  0  0  0
    4.0514   54.3503   29.3525 C   0  0  0  0  0  0
    2.8059   53.5281   28.9396 C   0  0  0  0  0  0
    0.4102   52.3198   27.3313 C   0  0  0  0  0  0
   -0.0911   52.7958   28.3460 O   0  0  0  0  0  0
   -0.0883   51.2213   26.7555 N   0  0  0  0  0  0
   -3.2296   50.7556   18.9131 C   0  0  0  0  0  0
   -3.4364   50.4951   17.6213 F   0  0  0  0  0  0
   -3.4808   49.6447   19.6076 F   0  0  0  0  0  0
   -4.0948   51.6974   19.2813 F   0  0  0  0  0  0
    4.2550   52.7741   15.8346 H   0  0  0  0  0  0
    3.3458   52.7335   18.3629 H   0  0  0  0  0  0
    2.0798   51.9881   14.2946 H   0  0  0  0  0  0
   -1.1359   51.2382   17.1158 H   0  0  0  0  0  0
   -1.6588   51.7501   23.5809 H   0  0  0  0  0  0
   -0.0036   52.2415   24.6154 H   0  0  0  0  0  0
    5.0674   55.5441   26.9200 H   0  0  0  0  0  0
    5.8485   54.0777   26.3917 H   0  0  0  0  0  0
    6.1551   54.5801   28.8706 H   0  0  0  0  0  0
    5.5276   52.9915   28.5301 H   0  0  0  0  0  0
    3.8208   55.4143   29.2860 H   0  0  0  0  0  0
    4.2904   54.1566   30.3986 H   0  0  0  0  0  0
    2.8818   52.5148   29.3444 H   0  0  0  0  0  0
    1.9262   53.9844   29.3962 H   0  0  0  0  0  0
    0.4387   50.7291   26.0488 H   0  0  0  0  0  0
   -0.8792   50.7593   27.1861 H   0  0  0  0  0  0
  1  5  2  0  0  0
  1  2  1  0  0  0
  1 34  1  0  0  0
  2  3  2  0  0  0
  2 35  1  0  0  0
  3  4  1  0  0  0
  3  6  1  0  0  0
  4  5  1  0  0  0
  5 36  1  0  0  0
  6 11  2  0  0  0
  6  7  1  0  0  0
  7  8  2  0  0  0
  7 37  1  0  0  0
  8  9  1  0  0  0
  8 30  1  0  0  0
  9 14  1  0  0  0
  9 10  1  0  0  0
 10 11  1  0  0  0
 10 12  2  0  0  0
 12 13  1  0  0  0
 12 15  1  0  0  0
 13 14  2  0  0  0
 13 38  1  0  0  0
 15 16  2  0  0  0
 15 17  1  0  0  0
 17 18  1  0  0  0
 17 39  1  0  0  0
 18 22  1  0  0  0
 18 19  2  0  0  0
 19 20  1  0  0  0
 19 27  1  0  0  0
 20 26  1  0  0  0
 20 21  2  0  0  0
 21 22  1  0  0  0
 21 23  1  0  0  0
 23 24  1  0  0  0
 23 40  1  0  0  0
 23 41  1  0  0  0
 24 25  1  0  0  0
 24 42  1  0  0  0
 24 43  1  0  0  0
 25 26  1  0  0  0
 25 44  1  0  0  0
 25 45  1  0  0  0
 26 46  1  0  0  0
 26 47  1  0  0  0
 27 28  2  0  0  0
 27 29  1  0  0  0
 29 48  1  0  0  0
 29 49  1  0  0  0
 30 31  1  0  0  0
 30 32  1  0  0  0
 30 33  1  0  0  0
M  END
> <i_i_glide_confnum>
20

> <i_i_glide_lignum>
475

> <i_i_glide_posenum>
379

> <i_i_glide_rotatable_bonds>
6

> <i_m_Source_File_Index>
1960

> <b_m_subgroup_collapsed>
0

> <r_i_docking_score>
-4.13885

> <r_i_glide_ecoul>
-0.738125

> <r_i_glide_eff_state_penalty>
0

> <r_i_glide_einternal>
2.01368

> <r_i_glide_emodel>
-52.467

> <r_i_glide_energy>
-39.1134

> <r_i_glide_erotb>
0.358198

> <r_i_glide_esite>
-0.0892015

> <r_i_glide_evdw>
-38.3753

> <r_i_glide_gscore>
-4.13885

> <r_i_glide_hbond>
0

> <r_i_glide_ligand_efficiency>
-0.12542

> <r_i_glide_ligand_efficiency_ln>
-0.920459

> <r_i_glide_ligand_efficiency_sa>
-0.402288

> <r_i_glide_lipo>
-1.96039

> <r_i_glide_metal>
0

> <r_i_glide_rewards>
-0.417972

> <s_i_glide_gridfile>
wee1_glide-grid

> <s_m_Source_File>
wee1_decoys_glide_SP.sdf

> <s_m_Source_Path>
/Users/zhangxujun/Desktop

> <s_m_entry_id>
2235

> <s_m_entry_name>
wee1_decoys_glide_SP.1960

> <s_m_subgroup_title>
wee1_decoys_glide_SP

> <s_m_subgroupid>
wee1_decoys_glide_SP


$$$$
