ZINC38966302_5455
                    3D
 Schrodinger Suite 2024-2.
 44 46  0  0  1  0            999 V2000
    1.3615   54.1611   29.6344 C   0  0  0  0  0  0
    0.7979   52.8791   29.0068 C   0  0  0  0  0  0
   -0.4951   52.4245   29.7247 C   0  0  0  0  0  0
    0.6153   53.1573   27.6116 O   0  0  0  0  0  0
    0.5174   52.1282   26.6872 C   0  0  0  0  0  0
    0.4188   50.7798   27.0407 C   0  0  0  0  0  0
    0.3040   49.7823   26.0777 C   0  0  0  0  0  0
    0.3024   50.1233   24.7289 C   0  0  0  0  0  0
    0.4090   51.4651   24.3369 C   0  0  0  0  0  0
    0.5101   52.4562   25.3263 C   0  0  0  0  0  0
    0.3418   51.8799   22.8591 C   0  0  2  0  0  0
   -0.0368   52.8960   22.7973 H   0  0  0  0  0  0
   -0.5190   51.0351   22.0841 N   0  0  0  0  0  0
    0.1910   50.4666   21.2158 N   0  3  0  0  0  0
    1.5345   50.8120   21.1747 C   0  0  0  0  0  0
    2.6510   50.1021   20.1593 S   0  0  0  0  0  0
    1.5995   51.7910   22.1360 N   0  0  0  0  0  0
    2.7048   52.5018   22.5313 N   0  0  0  0  0  0
    3.3376   53.1916   21.6553 C   0  0  0  0  0  0
    4.5895   53.9283   21.9221 C   0  0  0  0  0  0
    5.1197   53.9676   23.2242 C   0  0  0  0  0  0
    6.3051   54.6430   23.5015 C   0  0  0  0  0  0
    6.9836   55.2970   22.4794 C   0  0  0  0  0  0
    6.4752   55.2937   21.1845 C   0  0  0  0  0  0
    5.2903   54.6012   20.8959 C   0  0  0  0  0  0
    4.8540   54.5919   19.5916 O   0  0  0  0  0  0
    7.4493   56.2106   19.8240 Br  0  0  0  0  0  0
    6.9885   54.6814   25.2772 Br  0  0  0  0  0  0
    1.5031   54.0382   30.7075 H   0  0  0  0  0  0
    0.6918   55.0087   29.4808 H   0  0  0  0  0  0
    2.3259   54.4217   29.1950 H   0  0  0  0  0  0
    1.5652   52.1116   29.1301 H   0  0  0  0  0  0
   -0.3017   52.2202   30.7787 H   0  0  0  0  0  0
   -1.2849   53.1704   29.6828 H   0  0  0  0  0  0
   -0.9274   51.5140   29.3164 H   0  0  0  0  0  0
    0.4245   50.4967   28.0742 H   0  0  0  0  0  0
    0.2145   48.7481   26.3869 H   0  0  0  0  0  0
    0.2179   49.3321   23.9970 H   0  0  0  0  0  0
    0.5950   53.4944   25.0403 H   0  0  0  0  0  0
    2.9674   53.2731   20.6347 H   0  0  0  0  0  0
    4.6135   53.4680   24.0393 H   0  0  0  0  0  0
    7.9037   55.8231   22.6898 H   0  0  0  0  0  0
    4.2434   53.8828   19.3756 H   0  0  0  0  0  0
   -0.2321   49.7747   20.6022 H   0  0  0  0  0  0
  1  2  1  0  0  0
  1 29  1  0  0  0
  1 30  1  0  0  0
  1 31  1  0  0  0
  2  3  1  0  0  0
  2  4  1  0  0  0
  2 32  1  0  0  0
  3 33  1  0  0  0
  3 34  1  0  0  0
  3 35  1  0  0  0
  4  5  1  0  0  0
  5 10  2  0  0  0
  5  6  1  0  0  0
  6  7  2  0  0  0
  6 36  1  0  0  0
  7  8  1  0  0  0
  7 37  1  0  0  0
  8  9  2  0  0  0
  8 38  1  0  0  0
  9 10  1  0  0  0
  9 11  1  0  0  0
 10 39  1  0  0  0
 11 12  1  0  0  0
 11 17  1  0  0  0
 11 13  1  0  0  0
 13 14  2  0  0  0
 14 15  1  0  0  0
 14 44  1  0  0  0
 15 16  2  0  0  0
 15 17  1  0  0  0
 17 18  1  0  0  0
 18 19  2  0  0  0
 19 20  1  0  0  0
 19 40  1  0  0  0
 20 25  2  0  0  0
 20 21  1  0  0  0
 21 22  2  0  0  0
 21 41  1  0  0  0
 22 23  1  0  0  0
 22 28  1  0  0  0
 23 24  2  0  0  0
 23 42  1  0  0  0
 24 25  1  0  0  0
 24 27  1  0  0  0
 25 26  1  0  0  0
 26 43  1  0  0  0
M  CHG  1  14   1
M  END
> <i_i_glide_confnum>
36

> <i_i_glide_lignum>
5456

> <i_i_glide_posenum>
118

> <i_i_glide_rotatable_bonds>
6

> <i_m_Source_File_Index>
5768

> <b_m_subgroup_collapsed>
0

> <r_i_docking_score>
-4.17467

> <r_i_glide_ecoul>
-2.70097

> <r_i_glide_eff_state_penalty>
0

> <r_i_glide_einternal>
10.9489

> <r_i_glide_emodel>
-47.9646

> <r_i_glide_energy>
-40.9398

> <r_i_glide_erotb>
0.311383

> <r_i_glide_esite>
-0.0394306

> <r_i_glide_evdw>
-38.2388

> <r_i_glide_gscore>
-4.17467

> <r_i_glide_hbond>
0

> <r_i_glide_ligand_efficiency>
-0.154617

> <r_i_glide_ligand_efficiency_ln>
-0.971794

> <r_i_glide_ligand_efficiency_sa>
-0.463852

> <r_i_glide_lipo>
-1.8555

> <r_i_glide_metal>
0

> <r_i_glide_rewards>
-0.274032

> <s_i_glide_gridfile>
wee1_glide-grid

> <s_m_Source_File>
wee1_decoys_glide_SP.sdf

> <s_m_Source_Path>
/Users/zhangxujun/Desktop

> <s_m_entry_id>
6043

> <s_m_entry_name>
wee1_decoys_glide_SP.5768

> <s_m_subgroup_title>
wee1_decoys_glide_SP

> <s_m_subgroupid>
wee1_decoys_glide_SP


$$$$
