ZINC40368169_5354
                    3D
 Schrodinger Suite 2024-2.
 68 71  0  0  1  0            999 V2000
    0.6183   52.2754   20.7219 C   0  0  0  0  0  0
   -0.0961   51.3619   21.7355 C   0  0  0  0  0  0
    0.5584   51.3201   23.0577 N   0  0  0  0  0  0
    1.4171   50.1401   23.2859 C   0  0  0  0  0  0
    2.5046   49.9077   22.2249 C   0  0  0  0  0  0
    0.3317   52.3245   23.9583 C   0  0  0  0  0  0
   -0.3755   53.2940   23.6849 O   0  0  0  0  0  0
    0.9604   52.2815   25.2700 C   0  0  0  0  0  0
    0.5861   51.3525   26.1901 C   0  0  0  0  0  0
    1.1041   51.4311   27.4533 N   0  3  0  0  0  0
    1.8656   52.4249   27.9103 C   0  0  0  0  0  0
    2.1311   53.4735   27.1134 N   0  0  0  0  0  0
    1.9025   53.4709   25.6349 C   0  0  1  0  0  0
    1.3240   54.3729   25.4389 H   0  0  0  0  0  0
    3.1784   53.6981   24.7706 C   0  0  0  0  0  0
    4.4459   53.8506   25.3631 C   0  0  0  0  0  0
    5.5850   54.0972   24.5997 C   0  0  0  0  0  0
    5.4975   54.1238   23.2128 C   0  0  0  0  0  0
    4.2475   54.0086   22.5876 C   0  0  0  0  0  0
    3.1043   53.8251   23.3731 C   0  0  0  0  0  0
    4.0530   54.0537   21.1960 N   0  0  0  0  0  0
    4.8890   54.4974   20.2351 C   0  0  0  0  0  0
    6.0024   54.9869   20.4279 O   0  0  0  0  0  0
    4.3048   54.4695   18.8517 C   0  0  0  0  0  0
    3.7503   53.2939   18.3303 C   0  0  0  0  0  0
    3.2068   53.2830   17.0479 C   0  0  0  0  0  0
    3.2002   54.4491   16.2831 C   0  0  0  0  0  0
    3.7401   55.6361   16.7817 C   0  0  0  0  0  0
    4.3057   55.6334   18.0686 C   0  0  0  0  0  0
    3.6782   56.7401   15.9529 O   0  0  0  0  0  0
    4.1431   58.0016   16.4270 C   0  0  0  0  0  0
    2.4659   54.7929   27.6849 C   0  0  0  0  0  0
    3.4254   54.6628   28.8873 C   0  0  0  0  0  0
    2.9410   53.7616   30.0264 C   0  0  0  0  0  0
    2.5570   52.0969   29.4558 S   0  0  0  0  0  0
   -0.4170   50.2078   26.0423 C   0  0  0  0  0  0
    0.0679   52.3130   19.7826 H   0  0  0  0  0  0
    0.7047   53.2956   21.0917 H   0  0  0  0  0  0
    1.6209   51.9204   20.4873 H   0  0  0  0  0  0
   -0.1644   50.3535   21.3239 H   0  0  0  0  0  0
   -1.1289   51.6981   21.8484 H   0  0  0  0  0  0
    1.9034   50.1742   24.2569 H   0  0  0  0  0  0
    0.7739   49.2604   23.3238 H   0  0  0  0  0  0
    3.1043   49.0406   22.4975 H   0  0  0  0  0  0
    2.0832   49.6866   21.2444 H   0  0  0  0  0  0
    3.1718   50.7652   22.1324 H   0  0  0  0  0  0
    4.5861   53.7536   26.4260 H   0  0  0  0  0  0
    6.5485   54.1958   25.0784 H   0  0  0  0  0  0
    6.4102   54.2518   22.6520 H   0  0  0  0  0  0
    2.1522   53.7882   22.8710 H   0  0  0  0  0  0
    3.1312   53.7948   20.8754 H   0  0  0  0  0  0
    3.7572   52.3725   18.8978 H   0  0  0  0  0  0
    2.8001   52.3667   16.6448 H   0  0  0  0  0  0
    2.7728   54.4349   15.2910 H   0  0  0  0  0  0
    4.7347   56.5378   18.4764 H   0  0  0  0  0  0
    4.0315   58.7476   15.6396 H   0  0  0  0  0  0
    3.5586   58.3436   17.2818 H   0  0  0  0  0  0
    5.1992   57.9708   16.6995 H   0  0  0  0  0  0
    2.9440   55.4000   26.9196 H   0  0  0  0  0  0
    1.5301   55.2751   27.9702 H   0  0  0  0  0  0
    4.4016   54.3086   28.5531 H   0  0  0  0  0  0
    3.6121   55.6621   29.2828 H   0  0  0  0  0  0
    3.7163   53.6496   30.7867 H   0  0  0  0  0  0
    2.0295   54.1578   30.4781 H   0  0  0  0  0  0
   -0.9131   50.1864   25.0739 H   0  0  0  0  0  0
    0.0738   49.2419   26.1796 H   0  0  0  0  0  0
   -1.2029   50.2855   26.7961 H   0  0  0  0  0  0
    0.8726   50.6985   28.1097 H   0  0  0  0  0  0
  1  2  1  0  0  0
  1 37  1  0  0  0
  1 38  1  0  0  0
  1 39  1  0  0  0
  2  3  1  0  0  0
  2 40  1  0  0  0
  2 41  1  0  0  0
  3  4  1  0  0  0
  3  6  1  0  0  0
  4  5  1  0  0  0
  4 42  1  0  0  0
  4 43  1  0  0  0
  5 44  1  0  0  0
  5 45  1  0  0  0
  5 46  1  0  0  0
  6  7  2  0  0  0
  6  8  1  0  0  0
  8 13  1  0  0  0
  8  9  2  0  0  0
  9 10  1  0  0  0
  9 36  1  0  0  0
 10 11  2  0  0  0
 10 68  1  0  0  0
 11 35  1  0  0  0
 11 12  1  0  0  0
 12 13  1  0  0  0
 12 32  1  0  0  0
 13 14  1  0  0  0
 13 15  1  0  0  0
 15 20  2  0  0  0
 15 16  1  0  0  0
 16 17  2  0  0  0
 16 47  1  0  0  0
 17 18  1  0  0  0
 17 48  1  0  0  0
 18 19  2  0  0  0
 18 49  1  0  0  0
 19 20  1  0  0  0
 19 21  1  0  0  0
 20 50  1  0  0  0
 21 22  1  0  0  0
 21 51  1  0  0  0
 22 23  2  0  0  0
 22 24  1  0  0  0
 24 29  2  0  0  0
 24 25  1  0  0  0
 25 26  2  0  0  0
 25 52  1  0  0  0
 26 27  1  0  0  0
 26 53  1  0  0  0
 27 28  2  0  0  0
 27 54  1  0  0  0
 28 29  1  0  0  0
 28 30  1  0  0  0
 29 55  1  0  0  0
 30 31  1  0  0  0
 31 56  1  0  0  0
 31 57  1  0  0  0
 31 58  1  0  0  0
 32 33  1  0  0  0
 32 59  1  0  0  0
 32 60  1  0  0  0
 33 34  1  0  0  0
 33 61  1  0  0  0
 33 62  1  0  0  0
 34 35  1  0  0  0
 34 63  1  0  0  0
 34 64  1  0  0  0
 36 65  1  0  0  0
 36 66  1  0  0  0
 36 67  1  0  0  0
M  CHG  1  10   1
M  END
> <i_i_glide_confnum>
70

> <i_i_glide_lignum>
5355

> <i_i_glide_posenum>
308

> <i_i_glide_rotatable_bonds>
9

> <i_m_Source_File_Index>
5043

> <b_m_subgroup_collapsed>
0

> <r_i_docking_score>
-5.08001

> <r_i_glide_ecoul>
-0.616742

> <r_i_glide_eff_state_penalty>
0

> <r_i_glide_einternal>
21.3942

> <r_i_glide_emodel>
-42.8235

> <r_i_glide_energy>
-40.9992

> <r_i_glide_erotb>
0.501627

> <r_i_glide_esite>
0

> <r_i_glide_evdw>
-40.3825

> <r_i_glide_gscore>
-5.08001

> <r_i_glide_hbond>
-0.0214297

> <r_i_glide_ligand_efficiency>
-0.145143

> <r_i_glide_ligand_efficiency_ln>
-1.11518

> <r_i_glide_ligand_efficiency_sa>
-0.474773

> <r_i_glide_lipo>
-2.68999

> <r_i_glide_metal>
0

> <r_i_glide_rewards>
-0.758589

> <s_i_glide_gridfile>
wee1_glide-grid

> <s_m_Source_File>
wee1_decoys_glide_SP.sdf

> <s_m_Source_Path>
/Users/zhangxujun/Desktop

> <s_m_entry_id>
5318

> <s_m_entry_name>
wee1_decoys_glide_SP.5043

> <s_m_subgroup_title>
wee1_decoys_glide_SP

> <s_m_subgroupid>
wee1_decoys_glide_SP


$$$$
