ZINC16569721_5587
                    3D
 Schrodinger Suite 2024-2.
 71 75  0  0  1  0            999 V2000
   -1.0897   47.3043   23.5950 C   0  0  0  0  0  0
   -0.9645   48.2485   22.3848 C   0  0  0  0  0  0
   -2.1740   48.1767   21.4316 C   0  0  0  0  0  0
   -0.6257   49.6309   22.7846 N   0  0  0  0  0  0
   -1.6299   50.3478   23.6092 C   0  0  0  0  0  0
   -1.1871   50.5333   25.0875 C   0  0  0  0  0  0
   -0.2004   49.8987   25.4677 O   0  0  0  0  0  0
   -1.9034   51.3381   25.9358 N   0  0  0  0  0  0
   -2.9362   52.2101   25.4921 C   0  0  0  0  0  0
   -2.7215   53.1232   24.4468 C   0  0  0  0  0  0
   -3.6960   54.0457   24.0819 C   0  0  0  0  0  0
   -4.8997   54.0951   24.7702 C   0  0  0  0  0  0
   -5.1048   53.2677   25.8643 C   0  0  0  0  0  0
   -4.1140   52.3580   26.2585 C   0  0  0  0  0  0
   -4.2001   51.6208   27.4582 N   0  0  0  0  0  0
   -5.3119   51.3274   28.2216 C   0  0  0  0  0  0
   -4.9108   50.6759   29.3687 C   0  0  0  0  0  0
   -3.5293   50.5531   29.2813 C   0  0  0  0  0  0
   -3.0743   51.1019   28.0837 C   0  0  0  0  0  0
   -1.6894   51.1556   27.4063 C   0  0  2  0  0  0
   -1.2771   50.1568   27.5540 H   0  0  0  0  0  0
   -0.5840   52.0005   28.0858 C   0  0  0  0  0  0
   -0.4972   52.0959   29.4815 C   0  0  0  0  0  0
    0.5542   52.7826   30.0856 C   0  0  0  0  0  0
    1.5525   53.3746   29.3140 C   0  0  0  0  0  0
    1.4651   53.2971   27.9173 C   0  0  0  0  0  0
    0.4093   52.6178   27.3144 C   0  0  0  0  0  0
    2.5835   53.9969   29.9965 O   0  0  0  0  0  0
    3.6859   54.5074   29.2524 C   0  0  0  0  0  0
    0.5701   50.1801   22.3990 C   0  0  0  0  0  0
    1.4720   49.5182   21.8777 O   0  0  0  0  0  0
    0.6930   51.5088   22.6330 N   0  0  0  0  0  0
    1.8267   52.2981   22.3907 C   0  0  0  0  0  0
    2.3067   53.0532   23.4642 C   0  0  0  0  0  0
    3.4398   53.8497   23.3117 C   0  0  0  0  0  0
    4.0924   53.8996   22.0826 C   0  0  0  0  0  0
    3.6005   53.1744   20.9996 C   0  0  0  0  0  0
    2.4484   52.3781   21.1278 C   0  0  0  0  0  0
    1.8660   51.7020   20.0684 O   0  0  0  0  0  0
    2.5008   51.7114   18.7941 C   0  0  0  0  0  0
   -1.2994   46.2847   23.2706 H   0  0  0  0  0  0
   -0.1662   47.2896   24.1771 H   0  0  0  0  0  0
   -1.9081   47.5920   24.2544 H   0  0  0  0  0  0
   -0.1480   47.8505   21.7841 H   0  0  0  0  0  0
   -2.3844   47.1436   21.1566 H   0  0  0  0  0  0
   -3.0860   48.5644   21.8830 H   0  0  0  0  0  0
   -1.9784   48.7174   20.5036 H   0  0  0  0  0  0
   -2.5827   49.8188   23.6086 H   0  0  0  0  0  0
   -1.8238   51.2894   23.1099 H   0  0  0  0  0  0
   -1.7734   53.1717   23.9365 H   0  0  0  0  0  0
   -3.5125   54.7488   23.2886 H   0  0  0  0  0  0
   -5.6615   54.7975   24.4692 H   0  0  0  0  0  0
   -6.0180   53.3660   26.4294 H   0  0  0  0  0  0
   -6.2946   51.6245   27.8913 H   0  0  0  0  0  0
   -5.5334   50.3245   30.1783 H   0  0  0  0  0  0
   -2.8962   50.0968   30.0246 H   0  0  0  0  0  0
   -1.2221   51.6102   30.1175 H   0  0  0  0  0  0
    0.6057   52.8294   31.1651 H   0  0  0  0  0  0
    2.2121   53.7453   27.2808 H   0  0  0  0  0  0
    0.3909   52.5561   26.2393 H   0  0  0  0  0  0
    4.4409   54.8965   29.9336 H   0  0  0  0  0  0
    3.3788   55.3220   28.5963 H   0  0  0  0  0  0
    4.1617   53.7275   28.6545 H   0  0  0  0  0  0
   -0.0355   51.9454   23.1715 H   0  0  0  0  0  0
    1.8214   53.0105   24.4285 H   0  0  0  0  0  0
    3.8188   54.4199   24.1468 H   0  0  0  0  0  0
    4.9735   54.5140   21.9625 H   0  0  0  0  0  0
    4.1160   53.2579   20.0548 H   0  0  0  0  0  0
    1.9345   51.0918   18.1003 H   0  0  0  0  0  0
    2.5513   52.7187   18.3775 H   0  0  0  0  0  0
    3.5044   51.2974   18.8565 H   0  0  0  0  0  0
  1  2  1  0  0  0
  1 41  1  0  0  0
  1 42  1  0  0  0
  1 43  1  0  0  0
  2  3  1  0  0  0
  2  4  1  0  0  0
  2 44  1  0  0  0
  3 45  1  0  0  0
  3 46  1  0  0  0
  3 47  1  0  0  0
  4  5  1  0  0  0
  4 30  1  0  0  0
  5  6  1  0  0  0
  5 48  1  0  0  0
  5 49  1  0  0  0
  6  7  2  0  0  0
  6  8  1  0  0  0
  8 20  1  0  0  0
  8  9  1  0  0  0
  9 14  2  0  0  0
  9 10  1  0  0  0
 10 11  2  0  0  0
 10 50  1  0  0  0
 11 12  1  0  0  0
 11 51  1  0  0  0
 12 13  2  0  0  0
 12 52  1  0  0  0
 13 14  1  0  0  0
 13 53  1  0  0  0
 14 15  1  0  0  0
 15 19  1  0  0  0
 15 16  1  0  0  0
 16 17  2  0  0  0
 16 54  1  0  0  0
 17 18  1  0  0  0
 17 55  1  0  0  0
 18 19  2  0  0  0
 18 56  1  0  0  0
 19 20  1  0  0  0
 20 21  1  0  0  0
 20 22  1  0  0  0
 22 27  2  0  0  0
 22 23  1  0  0  0
 23 24  2  0  0  0
 23 57  1  0  0  0
 24 25  1  0  0  0
 24 58  1  0  0  0
 25 26  2  0  0  0
 25 28  1  0  0  0
 26 27  1  0  0  0
 26 59  1  0  0  0
 27 60  1  0  0  0
 28 29  1  0  0  0
 29 61  1  0  0  0
 29 62  1  0  0  0
 29 63  1  0  0  0
 30 31  2  0  0  0
 30 32  1  0  0  0
 32 33  1  0  0  0
 32 64  1  0  0  0
 33 38  2  0  0  0
 33 34  1  0  0  0
 34 35  2  0  0  0
 34 65  1  0  0  0
 35 36  1  0  0  0
 35 66  1  0  0  0
 36 37  2  0  0  0
 36 67  1  0  0  0
 37 38  1  0  0  0
 37 68  1  0  0  0
 38 39  1  0  0  0
 39 40  1  0  0  0
 40 69  1  0  0  0
 40 70  1  0  0  0
 40 71  1  0  0  0
M  END
> <i_i_glide_confnum>
63

> <i_i_glide_lignum>
5588

> <i_i_glide_posenum>
201

> <i_i_glide_rotatable_bonds>
10

> <i_m_Source_File_Index>
3773

> <b_m_subgroup_collapsed>
0

> <r_i_docking_score>
-4.19682

> <r_i_glide_ecoul>
-2.1783

> <r_i_glide_eff_state_penalty>
0

> <r_i_glide_einternal>
18.285

> <r_i_glide_emodel>
-41.6104

> <r_i_glide_energy>
-41.8375

> <r_i_glide_erotb>
0.523381

> <r_i_glide_esite>
-0.0766056

> <r_i_glide_evdw>
-39.6592

> <r_i_glide_gscore>
-4.19682

> <r_i_glide_hbond>
-0.32

> <r_i_glide_ligand_efficiency>
-0.107611

> <r_i_glide_ligand_efficiency_ln>
-0.899917

> <r_i_glide_ligand_efficiency_sa>
-0.364931

> <r_i_glide_lipo>
-1.97434

> <r_i_glide_metal>
0

> <r_i_glide_rewards>
-0.0395463

> <s_i_glide_gridfile>
wee1_glide-grid

> <s_m_Source_File>
wee1_decoys_glide_SP.sdf

> <s_m_Source_Path>
/Users/zhangxujun/Desktop

> <s_m_entry_id>
4048

> <s_m_entry_name>
wee1_decoys_glide_SP.3773

> <s_m_subgroup_title>
wee1_decoys_glide_SP

> <s_m_subgroupid>
wee1_decoys_glide_SP


$$$$
