ZINC10519024_2444
                    3D
 Schrodinger Suite 2024-2.
 46 48  0  0  1  0            999 V2000
    5.2539   53.8036   28.1367 C   0  0  0  0  0  0
    5.8101   54.0933   26.7437 C   0  0  0  0  0  0
    4.7563   53.9650   25.7921 O   0  0  0  0  0  0
    5.0167   54.1262   24.4448 C   0  0  0  0  0  0
    6.2986   54.4552   23.9655 C   0  0  0  0  0  0
    6.5339   54.6382   22.6076 C   0  0  0  0  0  0
    5.4904   54.5008   21.7000 C   0  0  0  0  0  0
    4.2134   54.1860   22.1521 C   0  0  0  0  0  0
    3.9653   53.9763   23.5155 C   0  0  0  0  0  0
    2.2663   53.5625   23.9950 S   0  0  0  0  0  0
    2.1863   53.4662   25.4565 O   0  0  0  0  0  0
    1.3931   54.4966   23.2819 O   0  0  0  0  0  0
    1.8918   51.9364   23.3366 N   0  0  0  0  0  0
    0.8730   51.1123   23.8604 C   0  0  0  0  0  0
    0.5508   50.8483   25.1962 C   0  0  0  0  0  0
   -0.5101   49.9959   25.5127 C   0  0  0  0  0  0
   -1.2740   49.4201   24.4929 C   0  0  0  0  0  0
   -0.9703   49.6998   23.1575 C   0  0  0  0  0  0
    0.1108   50.5287   22.8539 C   0  0  0  0  0  0
    0.5702   51.0620   21.5372 C   0  0  0  0  0  0
    1.9015   51.7440   21.8774 C   0  0  2  0  0  0
    1.9262   52.6993   21.3547 H   0  0  0  0  0  0
    3.1063   50.8967   21.4335 C   0  0  0  0  0  0
   -2.6724   48.3876   24.9075 S   0  0  0  0  0  0
   -3.6540   49.2441   25.5803 O   0  0  0  0  0  0
   -3.0429   47.6212   23.7123 O   0  0  0  0  0  0
   -2.0954   47.2419   26.0817 N   0  0  0  0  0  0
    5.8006   54.7828   19.8451 Br  0  0  0  0  0  0
    6.0428   53.8849   28.8844 H   0  0  0  0  0  0
    4.8407   52.7948   28.1924 H   0  0  0  0  0  0
    4.4630   54.5077   28.3991 H   0  0  0  0  0  0
    6.2248   55.1040   26.7194 H   0  0  0  0  0  0
    6.6122   53.3870   26.5279 H   0  0  0  0  0  0
    7.1374   54.5794   24.6315 H   0  0  0  0  0  0
    7.5254   54.8968   22.2634 H   0  0  0  0  0  0
    3.4142   54.1365   21.4302 H   0  0  0  0  0  0
    1.1046   51.2953   26.0064 H   0  0  0  0  0  0
   -0.7456   49.7945   26.5486 H   0  0  0  0  0  0
   -1.5799   49.2873   22.3662 H   0  0  0  0  0  0
   -0.1414   51.8013   21.1674 H   0  0  0  0  0  0
    0.6713   50.2959   20.7655 H   0  0  0  0  0  0
    3.1049   50.7437   20.3535 H   0  0  0  0  0  0
    4.0522   51.3792   21.6848 H   0  0  0  0  0  0
    3.1033   49.9148   21.9100 H   0  0  0  0  0  0
   -1.8365   47.6949   26.9871 H   0  0  0  0  0  0
   -2.8188   46.5628   26.3157 H   0  0  0  0  0  0
  1  2  1  0  0  0
  1 29  1  0  0  0
  1 30  1  0  0  0
  1 31  1  0  0  0
  2  3  1  0  0  0
  2 32  1  0  0  0
  2 33  1  0  0  0
  3  4  1  0  0  0
  4  9  2  0  0  0
  4  5  1  0  0  0
  5  6  2  0  0  0
  5 34  1  0  0  0
  6  7  1  0  0  0
  6 35  1  0  0  0
  7  8  2  0  0  0
  7 28  1  0  0  0
  8  9  1  0  0  0
  8 36  1  0  0  0
  9 10  1  0  0  0
 10 11  2  0  0  0
 10 12  2  0  0  0
 10 13  1  0  0  0
 13 21  1  0  0  0
 13 14  1  0  0  0
 14 19  2  0  0  0
 14 15  1  0  0  0
 15 16  2  0  0  0
 15 37  1  0  0  0
 16 17  1  0  0  0
 16 38  1  0  0  0
 17 18  2  0  0  0
 17 24  1  0  0  0
 18 19  1  0  0  0
 18 39  1  0  0  0
 19 20  1  0  0  0
 20 21  1  0  0  0
 20 40  1  0  0  0
 20 41  1  0  0  0
 21 22  1  0  0  0
 21 23  1  0  0  0
 23 42  1  0  0  0
 23 43  1  0  0  0
 23 44  1  0  0  0
 24 25  2  0  0  0
 24 26  2  0  0  0
 24 27  1  0  0  0
 27 45  1  0  0  0
 27 46  1  0  0  0
M  END
> <i_i_glide_confnum>
19

> <i_i_glide_lignum>
2445

> <i_i_glide_posenum>
390

> <i_i_glide_rotatable_bonds>
5

> <i_m_Source_File_Index>
4492

> <b_m_subgroup_collapsed>
0

> <r_i_docking_score>
-3.77553

> <r_i_glide_ecoul>
-7.2511

> <r_i_glide_eff_state_penalty>
0

> <r_i_glide_einternal>
4.00645

> <r_i_glide_emodel>
-46.1281

> <r_i_glide_energy>
-43.8598

> <r_i_glide_erotb>
0.268716

> <r_i_glide_esite>
-0.192421

> <r_i_glide_evdw>
-36.6087

> <r_i_glide_gscore>
-3.77553

> <r_i_glide_hbond>
-0.16

> <r_i_glide_ligand_efficiency>
-0.139835

> <r_i_glide_ligand_efficiency_ln>
-0.878882

> <r_i_glide_ligand_efficiency_sa>
-0.419504

> <r_i_glide_lipo>
-2.41772

> <r_i_glide_metal>
0

> <r_i_glide_rewards>
1.64399

> <s_i_glide_gridfile>
wee1_glide-grid

> <s_m_Source_File>
wee1_decoys_glide_SP.sdf

> <s_m_Source_Path>
/Users/zhangxujun/Desktop

> <s_m_entry_id>
4767

> <s_m_entry_name>
wee1_decoys_glide_SP.4492

> <s_m_subgroup_title>
wee1_decoys_glide_SP

> <s_m_subgroupid>
wee1_decoys_glide_SP


$$$$
