ZINC18461502_678
                    3D
 Schrodinger Suite 2024-2.
 67 71  0  0  1  0            999 V2000
    0.9955   52.1754   24.7964 C   0  0  0  0  0  0
    1.0024   52.4964   26.2888 C   0  0  0  0  0  0
   -0.0477   51.9948   27.0668 C   0  0  0  0  0  0
   -0.1264   52.2839   28.4258 C   0  0  0  0  0  0
    0.8313   53.0997   29.0187 C   0  0  0  0  0  0
    1.8894   53.5989   28.2600 C   0  0  0  0  0  0
    2.0059   53.2846   26.8935 C   0  0  0  0  0  0
    3.0989   53.6969   26.0980 N   0  0  0  0  0  0
    4.3261   54.1333   26.4657 C   0  0  0  0  0  0
    4.6728   54.3101   27.6338 O   0  0  0  0  0  0
    5.3795   54.3305   25.3451 C   0  0  2  0  0  0
    6.0325   53.4609   25.4563 H   0  0  0  0  0  0
    6.2332   55.6104   25.5267 C   0  0  0  0  0  0
    4.7624   54.2971   24.0447 O   0  0  0  0  0  0
    5.4957   54.0741   22.9232 C   0  0  0  0  0  0
    6.7051   53.8484   22.9130 O   0  0  0  0  0  0
    4.6425   54.1078   21.6285 C   0  0  2  0  0  0
    3.9551   54.9502   21.6919 H   0  0  0  0  0  0
    3.8509   52.7960   21.4949 C   0  0  0  0  0  0
    3.7305   52.5600   20.0050 C   0  0  1  0  0  0
    2.8699   53.1271   19.6448 H   0  0  0  0  0  0
    4.9794   53.1947   19.3948 C   0  0  0  0  0  0
    5.4265   54.2120   20.3615 N   0  0  0  0  0  0
    6.2223   55.2935   20.0688 C   0  0  0  0  0  0
    6.3032   56.2214   20.8830 O   0  0  0  0  0  0
    7.1163   55.4475   18.7754 C   0  0  0  0  0  0
    7.1832   54.2473   17.7678 C   0  0  0  0  0  0
    8.1327   54.5766   16.5837 C   0  0  2  0  0  0
    9.5607   54.8558   17.1128 C   0  0  0  0  0  0
    9.5200   56.0612   18.0827 C   0  0  2  0  0  0
    8.5849   55.7158   19.2682 C   0  0  0  0  0  0
    8.9886   57.3152   17.3455 C   0  0  0  0  0  0
    7.5610   57.0389   16.8117 C   0  0  1  0  0  0
    7.6034   55.8312   15.8397 C   0  0  0  0  0  0
    6.6223   56.7202   18.0059 C   0  0  0  0  0  0
    3.5043   51.2015   19.6819 O   0  0  0  0  0  0
    0.7043   53.4919   30.6945 Cl  0  0  0  0  0  0
    1.5044   51.2345   24.5939 H   0  0  0  0  0  0
   -0.0268   52.0870   24.4277 H   0  0  0  0  0  0
    1.4519   52.9674   24.2033 H   0  0  0  0  0  0
   -0.8099   51.3709   26.6204 H   0  0  0  0  0  0
   -0.9388   51.8806   29.0149 H   0  0  0  0  0  0
    2.6072   54.2286   28.7591 H   0  0  0  0  0  0
    2.9840   53.5388   25.1085 H   0  0  0  0  0  0
    6.6120   55.7079   26.5453 H   0  0  0  0  0  0
    7.1008   55.6052   24.8660 H   0  0  0  0  0  0
    5.6526   56.4985   25.2816 H   0  0  0  0  0  0
    4.3788   51.9510   21.9437 H   0  0  0  0  0  0
    2.8716   52.8465   21.9733 H   0  0  0  0  0  0
    5.7253   52.4072   19.2822 H   0  0  0  0  0  0
    4.6455   53.5964   18.4396 H   0  0  0  0  0  0
    7.5134   53.3327   18.2602 H   0  0  0  0  0  0
    6.2164   54.0460   17.3158 H   0  0  0  0  0  0
    8.1614   53.7305   15.8949 H   0  0  0  0  0  0
   10.2397   55.0579   16.2822 H   0  0  0  0  0  0
    9.9594   53.9741   17.6174 H   0  0  0  0  0  0
   10.5231   56.2650   18.4532 H   0  0  0  0  0  0
    8.6368   56.5189   20.0025 H   0  0  0  0  0  0
    8.9771   54.8371   19.7807 H   0  0  0  0  0  0
    8.9809   58.1736   18.0176 H   0  0  0  0  0  0
    9.6532   57.5809   16.5221 H   0  0  0  0  0  0
    7.1905   57.9210   16.2862 H   0  0  0  0  0  0
    8.2392   56.0616   14.9833 H   0  0  0  0  0  0
    6.6090   55.6381   15.4350 H   0  0  0  0  0  0
    5.6053   56.5693   17.6393 H   0  0  0  0  0  0
    6.5723   57.5941   18.6597 H   0  0  0  0  0  0
    4.1249   50.9151   18.9796 H   0  0  0  0  0  0
  1  2  1  0  0  0
  1 38  1  0  0  0
  1 39  1  0  0  0
  1 40  1  0  0  0
  2  7  2  0  0  0
  2  3  1  0  0  0
  3  4  2  0  0  0
  3 41  1  0  0  0
  4  5  1  0  0  0
  4 42  1  0  0  0
  5  6  2  0  0  0
  5 37  1  0  0  0
  6  7  1  0  0  0
  6 43  1  0  0  0
  7  8  1  0  0  0
  8  9  1  0  0  0
  8 44  1  0  0  0
  9 10  2  0  0  0
  9 11  1  0  0  0
 11 12  1  0  0  0
 11 13  1  0  0  0
 11 14  1  0  0  0
 13 45  1  0  0  0
 13 46  1  0  0  0
 13 47  1  0  0  0
 14 15  1  0  0  0
 15 16  2  0  0  0
 15 17  1  0  0  0
 17 18  1  0  0  0
 17 23  1  0  0  0
 17 19  1  0  0  0
 19 20  1  0  0  0
 19 48  1  0  0  0
 19 49  1  0  0  0
 20 21  1  0  0  0
 20 22  1  0  0  0
 20 36  1  0  0  0
 22 23  1  0  0  0
 22 50  1  0  0  0
 22 51  1  0  0  0
 23 24  1  0  0  0
 24 25  2  0  0  0
 24 26  1  0  0  0
 26 31  1  0  0  0
 26 35  1  0  0  0
 26 27  1  0  0  0
 27 28  1  0  0  0
 27 52  1  0  0  0
 27 53  1  0  0  0
 28 34  1  0  0  0
 28 29  1  0  0  0
 28 54  1  0  0  0
 29 30  1  0  0  0
 29 55  1  0  0  0
 29 56  1  0  0  0
 30 31  1  0  0  0
 30 32  1  0  0  0
 30 57  1  0  0  0
 31 58  1  0  0  0
 31 59  1  0  0  0
 32 33  1  0  0  0
 32 60  1  0  0  0
 32 61  1  0  0  0
 33 34  1  0  0  0
 33 35  1  0  0  0
 33 62  1  0  0  0
 34 63  1  0  0  0
 34 64  1  0  0  0
 35 65  1  0  0  0
 35 66  1  0  0  0
 36 67  1  0  0  0
M  END
> <i_i_glide_confnum>
338

> <i_i_glide_lignum>
679

> <i_i_glide_posenum>
68

> <i_i_glide_rotatable_bonds>
9

> <i_m_Source_File_Index>
2767

> <b_m_subgroup_collapsed>
0

> <r_i_docking_score>
-5.6999

> <r_i_glide_ecoul>
-8.81744

> <r_i_glide_eff_state_penalty>
0

> <r_i_glide_einternal>
4.10572

> <r_i_glide_emodel>
-68.9746

> <r_i_glide_energy>
-51.9987

> <r_i_glide_erotb>
0.680497

> <r_i_glide_esite>
0

> <r_i_glide_evdw>
-43.1813

> <r_i_glide_gscore>
-5.6999

> <r_i_glide_hbond>
-0.16

> <r_i_glide_ligand_efficiency>
-0.167644

> <r_i_glide_ligand_efficiency_ln>
-1.25927

> <r_i_glide_ligand_efficiency_sa>
-0.543102

> <r_i_glide_lipo>
-1.81014

> <r_i_glide_metal>
0

> <r_i_glide_rewards>
-0.928578

> <s_i_glide_gridfile>
wee1_glide-grid

> <s_m_Source_File>
wee1_decoys_glide_SP.sdf

> <s_m_Source_Path>
/Users/zhangxujun/Desktop

> <s_m_entry_id>
3042

> <s_m_entry_name>
wee1_decoys_glide_SP.2767

> <s_m_subgroup_title>
wee1_decoys_glide_SP

> <s_m_subgroupid>
wee1_decoys_glide_SP


$$$$
