ZINC10395566_66
                    3D
 Schrodinger Suite 2024-2.
 53 56  0  0  1  0            999 V2000
    4.8011   51.4500   21.1175 C   0  0  0  0  0  0
    3.5612   52.1160   21.6819 C   0  0  0  0  0  0
    2.3608   51.3961   21.6766 C   0  0  0  0  0  0
    1.2111   51.9306   22.2562 C   0  0  0  0  0  0
    1.2433   53.2081   22.8056 C   0  0  0  0  0  0
    2.4216   53.9497   22.7670 C   0  0  0  0  0  0
    3.6056   53.3960   22.2725 C   0  0  0  0  0  0
    4.8127   54.1433   22.3485 N   0  0  0  0  0  0
    5.5962   54.4967   23.4527 C   0  0  0  0  0  0
    6.6813   55.1185   23.0442 N   0  0  0  0  0  0
    6.5876   55.2964   21.6753 N   0  0  0  0  0  0
    5.4847   54.7155   21.2765 C   0  0  0  0  0  0
    4.8912   54.7040   19.6030 S   0  0  0  0  0  0
    6.2639   55.4518   18.6574 C   0  0  1  0  0  0
    6.4912   56.4125   19.1238 H   0  0  0  0  0  0
    7.5677   54.6108   18.6711 C   0  0  0  0  0  0
    5.7858   55.7381   17.2174 C   0  0  0  0  0  0
    6.0272   54.9132   16.3302 O   0  0  0  0  0  0
    5.0904   56.8885   17.0351 N   0  0  0  0  0  0
    4.5535   57.3430   15.8802 C   0  0  0  0  0  0
    4.6339   56.7870   14.7814 O   0  0  0  0  0  0
    3.8936   58.4978   16.0644 N   0  0  0  0  0  0
    3.3344   59.2933   14.9742 C   0  0  0  0  0  0
    2.1629   58.7596   14.1786 C   0  0  0  0  0  0
    1.9649   59.9011   15.1510 C   0  0  0  0  0  0
    5.3402   54.2970   24.9313 C   0  0  0  0  0  0
    4.0678   54.3989   25.5053 C   0  0  0  0  0  0
    3.8790   54.2894   26.8757 C   0  0  0  0  0  0
    4.9723   54.0963   27.7063 C   0  0  0  0  0  0
    6.2562   54.0020   27.1723 C   0  0  0  0  0  0
    6.4343   54.1057   25.7917 C   0  0  0  0  0  0
    4.7044   54.0039   29.4055 Cl  0  0  0  0  0  0
    4.5687   50.4971   20.6464 H   0  0  0  0  0  0
    5.2880   52.0608   20.3606 H   0  0  0  0  0  0
    5.5046   51.2972   21.9316 H   0  0  0  0  0  0
    2.3208   50.4075   21.2434 H   0  0  0  0  0  0
    0.2967   51.3562   22.2713 H   0  0  0  0  0  0
    0.3550   53.6337   23.2507 H   0  0  0  0  0  0
    2.4066   54.9600   23.1305 H   0  0  0  0  0  0
    8.3402   55.0594   18.0449 H   0  0  0  0  0  0
    7.9961   54.5117   19.6666 H   0  0  0  0  0  0
    7.3902   53.6002   18.2961 H   0  0  0  0  0  0
    4.9435   57.4572   17.8529 H   0  0  0  0  0  0
    4.0904   59.0347   16.8960 H   0  0  0  0  0  0
    4.0848   59.8867   14.4489 H   0  0  0  0  0  0
    1.7743   57.7715   14.4253 H   0  0  0  0  0  0
    2.1393   58.9539   13.1060 H   0  0  0  0  0  0
    1.8127   60.9129   14.7765 H   0  0  0  0  0  0
    1.4292   59.7208   16.0816 H   0  0  0  0  0  0
    3.1927   54.6173   24.9390 H   0  0  0  0  0  0
    2.8869   54.3791   27.2943 H   0  0  0  0  0  0
    7.1060   53.8601   27.8245 H   0  0  0  0  0  0
    7.4334   54.0511   25.3840 H   0  0  0  0  0  0
  1  2  1  0  0  0
  1 33  1  0  0  0
  1 34  1  0  0  0
  1 35  1  0  0  0
  2  7  2  0  0  0
  2  3  1  0  0  0
  3  4  2  0  0  0
  3 36  1  0  0  0
  4  5  1  0  0  0
  4 37  1  0  0  0
  5  6  2  0  0  0
  5 38  1  0  0  0
  6  7  1  0  0  0
  6 39  1  0  0  0
  7  8  1  0  0  0
  8 12  1  0  0  0
  8  9  1  0  0  0
  9 10  2  0  0  0
  9 26  1  0  0  0
 10 11  1  0  0  0
 11 12  2  0  0  0
 12 13  1  0  0  0
 13 14  1  0  0  0
 14 15  1  0  0  0
 14 16  1  0  0  0
 14 17  1  0  0  0
 16 40  1  0  0  0
 16 41  1  0  0  0
 16 42  1  0  0  0
 17 18  2  0  0  0
 17 19  1  0  0  0
 19 20  1  0  0  0
 19 43  1  0  0  0
 20 21  2  0  0  0
 20 22  1  0  0  0
 22 23  1  0  0  0
 22 44  1  0  0  0
 23 25  1  0  0  0
 23 24  1  0  0  0
 23 45  1  0  0  0
 24 25  1  0  0  0
 24 46  1  0  0  0
 24 47  1  0  0  0
 25 48  1  0  0  0
 25 49  1  0  0  0
 26 31  2  0  0  0
 26 27  1  0  0  0
 27 28  2  0  0  0
 27 50  1  0  0  0
 28 29  1  0  0  0
 28 51  1  0  0  0
 29 30  2  0  0  0
 29 32  1  0  0  0
 30 31  1  0  0  0
 30 52  1  0  0  0
 31 53  1  0  0  0
M  END
> <i_i_glide_confnum>
190

> <i_i_glide_lignum>
67

> <i_i_glide_posenum>
382

> <i_i_glide_rotatable_bonds>
9

> <i_m_Source_File_Index>
254

> <b_m_subgroup_collapsed>
0

> <r_i_docking_score>
-4.9124

> <r_i_glide_ecoul>
0.709427

> <r_i_glide_eff_state_penalty>
0

> <r_i_glide_einternal>
3.8713

> <r_i_glide_emodel>
-54.5518

> <r_i_glide_energy>
-40.537

> <r_i_glide_erotb>
0.773186

> <r_i_glide_esite>
-0.0850666

> <r_i_glide_evdw>
-41.2465

> <r_i_glide_gscore>
-4.9124

> <r_i_glide_hbond>
0

> <r_i_glide_ligand_efficiency>
-0.158465

> <r_i_glide_ligand_efficiency_ln>
-1.1079

> <r_i_glide_ligand_efficiency_sa>
-0.497798

> <r_i_glide_lipo>
-2.49746

> <r_i_glide_metal>
0

> <r_i_glide_rewards>
-1.14715

> <s_i_glide_gridfile>
wee1_glide-grid

> <s_m_Source_File>
wee1_decoys_glide_SP.sdf

> <s_m_Source_Path>
/Users/zhangxujun/Desktop

> <s_m_entry_id>
529

> <s_m_entry_name>
wee1_decoys_glide_SP.254

> <s_m_subgroup_title>
wee1_decoys_glide_SP

> <s_m_subgroupid>
wee1_decoys_glide_SP


$$$$
