ZINC14160389_1061
                    3D
 Schrodinger Suite 2024-2.
 66 69  0  0  1  0            999 V2000
    6.9881   53.2974   26.8766 C   0  0  0  0  0  0
    5.6312   53.7013   27.4357 C   0  0  0  0  0  0
    5.4298   53.4398   28.7817 C   0  0  0  0  0  0
    4.2849   53.8473   29.4556 C   0  0  0  0  0  0
    3.3076   54.5438   28.7643 C   0  0  0  0  0  0
    3.4651   54.7458   27.3989 C   0  0  0  0  0  0
    4.5863   54.2825   26.6921 C   0  0  0  0  0  0
    4.5842   54.3482   25.3032 N   0  0  0  0  0  0
    5.6966   54.8002   24.4623 C   0  0  0  0  0  0
    5.8205   53.9466   23.1908 C   0  0  0  0  0  0
    4.5986   53.9909   22.3788 N   0  0  0  0  0  0
    3.4006   53.6449   23.1582 C   0  0  0  0  0  0
    3.3202   54.2802   24.5513 C   0  0  0  0  0  0
    4.6353   54.1273   20.9431 C   0  0  0  0  0  0
    3.5053   53.6922   20.2950 N   0  0  0  0  0  0
    2.9280   52.4506   20.1923 C   0  0  0  0  0  0
    3.5021   51.0304   20.8814 S   0  0  0  0  0  0
    1.7977   52.4966   19.4263 N   0  0  0  0  0  0
    0.9976   51.4392   18.9626 C   0  0  0  0  0  0
    1.5027   50.5987   17.9629 C   0  0  0  0  0  0
    0.7343   49.5423   17.4825 C   0  0  0  0  0  0
   -0.5446   49.3270   17.9909 C   0  0  0  0  0  0
   -1.0528   50.1650   18.9845 C   0  0  0  0  0  0
   -0.2889   51.2336   19.4892 C   0  0  0  0  0  0
   -0.7348   52.0877   20.4849 O   0  0  0  0  0  0
   -1.9338   51.7708   21.1843 C   0  0  0  0  0  0
    5.6325   54.7117   20.3919 N   0  0  0  0  0  0
    5.7228   54.8994   19.0085 C   0  0  0  0  0  0
    5.8101   53.8030   18.2036 N   0  0  0  0  0  0
    5.8702   54.0375   16.8684 C   0  0  0  0  0  0
    5.8583   55.3306   16.3329 C   0  0  0  0  0  0
    5.7856   56.3902   17.2448 C   0  0  0  0  0  0
    5.7260   56.1923   18.5880 N   0  0  0  0  0  0
    5.7613   57.8372   16.7898 C   0  0  0  0  0  0
    5.9397   52.8039   15.9906 C   0  0  0  0  0  0
    1.9063   55.1403   29.5777 Cl  0  0  0  0  0  0
    7.4588   52.5182   27.4773 H   0  0  0  0  0  0
    6.9219   52.9030   25.8679 H   0  0  0  0  0  0
    7.6475   54.1630   26.8813 H   0  0  0  0  0  0
    6.2015   52.8985   29.2817 H   0  0  0  0  0  0
    4.1761   53.6383   30.5083 H   0  0  0  0  0  0
    2.7039   55.2877   26.8815 H   0  0  0  0  0  0
    5.5048   55.8272   24.1850 H   0  0  0  0  0  0
    6.6458   54.8653   24.9843 H   0  0  0  0  0  0
    6.1506   52.9194   23.3440 H   0  0  0  0  0  0
    6.6324   54.4191   22.6364 H   0  0  0  0  0  0
    2.5027   53.9804   22.6373 H   0  0  0  0  0  0
    3.3311   52.5639   23.2324 H   0  0  0  0  0  0
    3.0293   55.3138   24.4020 H   0  0  0  0  0  0
    2.5072   53.8250   25.1192 H   0  0  0  0  0  0
    1.4163   53.4204   19.2686 H   0  0  0  0  0  0
    2.5030   50.7467   17.5724 H   0  0  0  0  0  0
    1.1416   48.8921   16.7209 H   0  0  0  0  0  0
   -1.1421   48.5080   17.6185 H   0  0  0  0  0  0
   -2.0464   49.9640   19.3540 H   0  0  0  0  0  0
   -2.0861   52.4923   21.9868 H   0  0  0  0  0  0
   -2.8043   51.8154   20.5291 H   0  0  0  0  0  0
   -1.8800   50.7818   21.6417 H   0  0  0  0  0  0
    5.9029   55.5024   15.2676 H   0  0  0  0  0  0
    5.7361   57.9184   15.7018 H   0  0  0  0  0  0
    4.8815   58.3509   17.1837 H   0  0  0  0  0  0
    6.6455   58.3655   17.1488 H   0  0  0  0  0  0
    5.0527   52.1849   16.1362 H   0  0  0  0  0  0
    6.0057   53.0623   14.9335 H   0  0  0  0  0  0
    6.8122   52.2026   16.2507 H   0  0  0  0  0  0
    3.1773   54.3441   19.5979 H   0  0  0  0  0  0
  1  2  1  0  0  0
  1 37  1  0  0  0
  1 38  1  0  0  0
  1 39  1  0  0  0
  2  7  2  0  0  0
  2  3  1  0  0  0
  3  4  2  0  0  0
  3 40  1  0  0  0
  4  5  1  0  0  0
  4 41  1  0  0  0
  5  6  2  0  0  0
  5 36  1  0  0  0
  6  7  1  0  0  0
  6 42  1  0  0  0
  7  8  1  0  0  0
  8 13  1  0  0  0
  8  9  1  0  0  0
  9 10  1  0  0  0
  9 43  1  0  0  0
  9 44  1  0  0  0
 10 11  1  0  0  0
 10 45  1  0  0  0
 10 46  1  0  0  0
 11 12  1  0  0  0
 11 14  1  0  0  0
 12 13  1  0  0  0
 12 47  1  0  0  0
 12 48  1  0  0  0
 13 49  1  0  0  0
 13 50  1  0  0  0
 14 15  1  0  0  0
 14 27  2  0  0  0
 15 16  1  0  0  0
 15 66  1  0  0  0
 16 17  2  0  0  0
 16 18  1  0  0  0
 18 19  1  0  0  0
 18 51  1  0  0  0
 19 24  2  0  0  0
 19 20  1  0  0  0
 20 21  2  0  0  0
 20 52  1  0  0  0
 21 22  1  0  0  0
 21 53  1  0  0  0
 22 23  2  0  0  0
 22 54  1  0  0  0
 23 24  1  0  0  0
 23 55  1  0  0  0
 24 25  1  0  0  0
 25 26  1  0  0  0
 26 56  1  0  0  0
 26 57  1  0  0  0
 26 58  1  0  0  0
 27 28  1  0  0  0
 28 33  2  0  0  0
 28 29  1  0  0  0
 29 30  2  0  0  0
 30 31  1  0  0  0
 30 35  1  0  0  0
 31 32  2  0  0  0
 31 59  1  0  0  0
 32 33  1  0  0  0
 32 34  1  0  0  0
 34 60  1  0  0  0
 34 61  1  0  0  0
 34 62  1  0  0  0
 35 63  1  0  0  0
 35 64  1  0  0  0
 35 65  1  0  0  0
M  END
> <i_i_glide_confnum>
385

> <i_i_glide_lignum>
1062

> <i_i_glide_posenum>
308

> <i_i_glide_rotatable_bonds>
8

> <i_m_Source_File_Index>
3603

> <b_m_subgroup_collapsed>
0

> <r_i_docking_score>
-5.69763

> <r_i_glide_ecoul>
-3.54585

> <r_i_glide_eff_state_penalty>
0

> <r_i_glide_einternal>
7.48753

> <r_i_glide_emodel>
-57.753

> <r_i_glide_energy>
-39.307

> <r_i_glide_erotb>
0.524353

> <r_i_glide_esite>
-0.0802165

> <r_i_glide_evdw>
-35.7612

> <r_i_glide_gscore>
-5.69763

> <r_i_glide_hbond>
-0.351911

> <r_i_glide_ligand_efficiency>
-0.158267

> <r_i_glide_ligand_efficiency_ln>
-1.24307

> <r_i_glide_ligand_efficiency_sa>
-0.522587

> <r_i_glide_lipo>
-2.78235

> <r_i_glide_metal>
0

> <r_i_glide_rewards>
-0.687569

> <s_i_glide_gridfile>
wee1_glide-grid

> <s_m_Source_File>
wee1_decoys_glide_SP.sdf

> <s_m_Source_Path>
/Users/zhangxujun/Desktop

> <s_m_entry_id>
3878

> <s_m_entry_name>
wee1_decoys_glide_SP.3603

> <s_m_subgroup_title>
wee1_decoys_glide_SP

> <s_m_subgroupid>
wee1_decoys_glide_SP


$$$$
