ZINC13081086_6105
                    3D
 Schrodinger Suite 2024-2.
 67 71  0  0  1  0            999 V2000
    2.4319   49.7117   10.0086 C   0  0  0  0  0  0
    2.6273   50.2659   11.4078 C   0  0  0  0  0  0
    2.1849   51.5544   11.7109 C   0  0  0  0  0  0
    2.3533   52.0667   12.9948 C   0  0  0  0  0  0
    2.9701   51.2865   13.9853 C   0  0  0  0  0  0
    3.3973   49.9930   13.6778 C   0  0  0  0  0  0
    3.2295   49.4830   12.3939 C   0  0  0  0  0  0
    3.1914   51.7023   15.3099 N   0  0  0  0  0  0
    3.0692   52.9292   15.8682 C   0  0  0  0  0  0
    2.7599   53.9533   15.2591 O   0  0  0  0  0  0
    3.4328   52.9728   17.2758 C   0  0  0  0  0  0
    2.9460   52.0967   18.1994 C   0  0  0  0  0  0
    3.3801   52.1499   19.5012 N   0  0  0  0  0  0
    4.2695   53.0720   19.9962 C   0  0  0  0  0  0
    4.7358   54.0697   19.1965 C   0  0  0  0  0  0
    4.4797   54.0576   17.6616 C   0  0  1  0  0  0
    4.0674   55.0392   17.4144 H   0  0  0  0  0  0
    5.7928   53.8831   16.8863 C   0  0  0  0  0  0
    6.2101   54.7118   15.8305 C   0  0  0  0  0  0
    7.4391   54.3613   15.2881 C   0  0  0  0  0  0
    8.1241   52.9801   16.0689 S   0  0  0  0  0  0
    6.7521   52.8968   17.1196 C   0  0  0  0  0  0
    5.5487   55.1742   19.7534 C   0  0  0  0  0  0
    6.0580   56.0460   19.0507 O   0  0  0  0  0  0
    5.8202   55.1637   21.2639 C   0  0  0  0  0  0
    4.7398   54.4014   22.0734 C   0  0  1  0  0  0
    3.8085   54.9661   21.9832 H   0  0  0  0  0  0
    4.5214   52.9878   21.4974 C   0  0  0  0  0  0
    5.0167   54.3382   23.5804 C   0  0  0  0  0  0
    6.3045   54.4947   24.0969 C   0  0  0  0  0  0
    6.5307   54.3898   25.4615 C   0  0  0  0  0  0
    5.4833   54.1248   26.3540 C   0  0  0  0  0  0
    4.1791   53.9918   25.8539 C   0  0  0  0  0  0
    3.9611   54.0965   24.4674 C   0  0  0  0  0  0
    3.1758   53.7217   26.7674 O   0  0  0  0  0  0
    1.8915   53.3276   26.2987 C   0  0  0  0  0  0
    5.6788   53.9609   27.7139 O   0  0  0  0  0  0
    7.0073   53.7947   28.2008 C   0  0  0  0  0  0
    1.8963   51.0066   18.0003 C   0  0  0  0  0  0
    2.4952   48.6225    9.9905 H   0  0  0  0  0  0
    3.1763   50.1252    9.3272 H   0  0  0  0  0  0
    1.4444   49.9786    9.6297 H   0  0  0  0  0  0
    1.7099   52.1607   10.9533 H   0  0  0  0  0  0
    1.9923   53.0619   13.1963 H   0  0  0  0  0  0
    3.8651   49.3760   14.4328 H   0  0  0  0  0  0
    3.5698   48.4825   12.1712 H   0  0  0  0  0  0
    3.5233   50.9704   15.9304 H   0  0  0  0  0  0
    3.1888   51.3401   20.0713 H   0  0  0  0  0  0
    5.6242   55.5475   15.4755 H   0  0  0  0  0  0
    7.9648   54.8419   14.4771 H   0  0  0  0  0  0
    6.7038   52.1032   17.8521 H   0  0  0  0  0  0
    5.9423   56.1943   21.5953 H   0  0  0  0  0  0
    6.7787   54.6620   21.3804 H   0  0  0  0  0  0
    3.6509   52.5820   22.0162 H   0  0  0  0  0  0
    5.3766   52.3289   21.6560 H   0  0  0  0  0  0
    7.1536   54.6795   23.4573 H   0  0  0  0  0  0
    7.5396   54.4967   25.8071 H   0  0  0  0  0  0
    2.9701   53.9804   24.0579 H   0  0  0  0  0  0
    1.2343   53.1523   27.1504 H   0  0  0  0  0  0
    1.4328   54.0966   25.6801 H   0  0  0  0  0  0
    1.9436   52.4038   25.7219 H   0  0  0  0  0  0
    6.9946   53.6967   29.2817 H   0  0  0  0  0  0
    7.4710   52.8973   27.7887 H   0  0  0  0  0  0
    7.6380   54.6512   27.9705 H   0  0  0  0  0  0
    1.3882   51.0613   17.0392 H   0  0  0  0  0  0
    2.3622   50.0242   18.0798 H   0  0  0  0  0  0
    1.1219   51.0778   18.7644 H   0  0  0  0  0  0
  1  2  1  0  0  0
  1 40  1  0  0  0
  1 41  1  0  0  0
  1 42  1  0  0  0
  2  7  2  0  0  0
  2  3  1  0  0  0
  3  4  2  0  0  0
  3 43  1  0  0  0
  4  5  1  0  0  0
  4 44  1  0  0  0
  5  6  2  0  0  0
  5  8  1  0  0  0
  6  7  1  0  0  0
  6 45  1  0  0  0
  7 46  1  0  0  0
  8  9  1  0  0  0
  8 47  1  0  0  0
  9 10  2  0  0  0
  9 11  1  0  0  0
 11 16  1  0  0  0
 11 12  2  0  0  0
 12 13  1  0  0  0
 12 39  1  0  0  0
 13 14  1  0  0  0
 13 48  1  0  0  0
 14 28  1  0  0  0
 14 15  2  0  0  0
 15 16  1  0  0  0
 15 23  1  0  0  0
 16 17  1  0  0  0
 16 18  1  0  0  0
 18 22  2  0  0  0
 18 19  1  0  0  0
 19 20  2  0  0  0
 19 49  1  0  0  0
 20 21  1  0  0  0
 20 50  1  0  0  0
 21 22  1  0  0  0
 22 51  1  0  0  0
 23 24  2  0  0  0
 23 25  1  0  0  0
 25 26  1  0  0  0
 25 52  1  0  0  0
 25 53  1  0  0  0
 26 27  1  0  0  0
 26 28  1  0  0  0
 26 29  1  0  0  0
 28 54  1  0  0  0
 28 55  1  0  0  0
 29 34  2  0  0  0
 29 30  1  0  0  0
 30 31  2  0  0  0
 30 56  1  0  0  0
 31 32  1  0  0  0
 31 57  1  0  0  0
 32 33  2  0  0  0
 32 37  1  0  0  0
 33 34  1  0  0  0
 33 35  1  0  0  0
 34 58  1  0  0  0
 35 36  1  0  0  0
 36 59  1  0  0  0
 36 60  1  0  0  0
 36 61  1  0  0  0
 37 38  1  0  0  0
 38 62  1  0  0  0
 38 63  1  0  0  0
 38 64  1  0  0  0
 39 65  1  0  0  0
 39 66  1  0  0  0
 39 67  1  0  0  0
M  END
> <i_i_glide_confnum>
122

> <i_i_glide_lignum>
6106

> <i_i_glide_posenum>
365

> <i_i_glide_rotatable_bonds>
7

> <i_m_Source_File_Index>
5216

> <b_m_subgroup_collapsed>
0

> <r_i_docking_score>
-4.53855

> <r_i_glide_ecoul>
-1.4875

> <r_i_glide_eff_state_penalty>
0

> <r_i_glide_einternal>
10.1467

> <r_i_glide_emodel>
-46.4208

> <r_i_glide_energy>
-38.4473

> <r_i_glide_erotb>
0.387273

> <r_i_glide_esite>
-0.14934

> <r_i_glide_evdw>
-36.9598

> <r_i_glide_gscore>
-4.53855

> <r_i_glide_hbond>
-0.16

> <r_i_glide_ligand_efficiency>
-0.122663

> <r_i_glide_ligand_efficiency_ln>
-0.984304

> <r_i_glide_ligand_efficiency_sa>
-0.408742

> <r_i_glide_lipo>
-2.39603

> <r_i_glide_metal>
0

> <r_i_glide_rewards>
-0.149328

> <s_i_glide_gridfile>
wee1_glide-grid

> <s_m_Source_File>
wee1_decoys_glide_SP.sdf

> <s_m_Source_Path>
/Users/zhangxujun/Desktop

> <s_m_entry_id>
5491

> <s_m_entry_name>
wee1_decoys_glide_SP.5216

> <s_m_subgroup_title>
wee1_decoys_glide_SP

> <s_m_subgroupid>
wee1_decoys_glide_SP


$$$$
