ZINC17094938_2607
                    3D
 Schrodinger Suite 2024-2.
 55 58  0  0  1  0            999 V2000
   -5.3862   52.3285   24.9056 C   0  0  0  0  0  0
   -4.6313   50.9889   24.8173 C   0  0  0  0  0  0
   -5.0705   50.1907   23.5754 C   0  0  0  0  0  0
   -3.1252   51.2020   24.8799 C   0  0  0  0  0  0
   -2.1447   51.0135   23.9091 C   0  0  0  0  0  0
   -0.8371   51.4009   24.2610 C   0  0  0  0  0  0
   -0.7660   51.7764   25.6169 C   0  0  0  0  0  0
   -2.3654   51.7748   26.3309 S   0  0  0  0  0  0
    0.3893   52.0957   26.3430 N   0  0  0  0  0  0
    0.4798   52.6224   27.5867 C   0  0  0  0  0  0
   -0.4864   52.8772   28.3033 O   0  0  0  0  0  0
    1.9160   52.9274   28.0864 C   0  0  1  0  0  0
    2.5142   52.0529   27.8195 H   0  0  0  0  0  0
    2.4733   54.2156   27.4141 C   0  0  2  0  0  0
    2.2027   54.3327   26.3644 H   0  0  0  0  0  0
    3.9972   54.3313   27.6444 C   0  0  0  0  0  0
    4.0852   54.7112   29.1375 C   0  0  0  0  0  0
    2.6029   54.7120   29.5761 C   0  0  1  0  0  0
    2.4172   55.2895   30.4808 H   0  0  0  0  0  0
    1.9441   55.3091   28.3391 C   0  0  0  0  0  0
    2.0192   53.2684   29.6216 C   0  0  2  0  0  0
    1.0346   53.3748   30.0795 H   0  0  0  0  0  0
    2.7648   52.2644   30.5165 C   0  0  0  0  0  0
    3.7741   51.6967   30.0507 O   0  0  0  0  0  0
    0.2528   51.2930   23.3146 C   0  0  0  0  0  0
    0.2238   50.4346   22.4290 O   0  0  0  0  0  0
    1.2098   52.2374   23.4613 N   0  0  0  0  0  0
    2.3453   52.4884   22.6675 C   0  0  0  0  0  0
    2.8066   51.6420   21.6439 C   0  0  0  0  0  0
    3.9452   51.9801   20.9161 C   0  0  0  0  0  0
    4.6274   53.1551   21.2124 C   0  0  0  0  0  0
    4.1901   53.9920   22.2346 C   0  0  0  0  0  0
    3.0477   53.6613   22.9593 C   0  0  0  0  0  0
   -5.1747   52.8469   25.8414 H   0  0  0  0  0  0
   -5.1094   52.9941   24.0865 H   0  0  0  0  0  0
   -6.4661   52.1791   24.8531 H   0  0  0  0  0  0
   -4.9210   50.3970   25.6867 H   0  0  0  0  0  0
   -4.5748   49.2209   23.5312 H   0  0  0  0  0  0
   -6.1456   50.0059   23.5855 H   0  0  0  0  0  0
   -4.8441   50.7273   22.6541 H   0  0  0  0  0  0
   -2.3890   50.6418   22.9236 H   0  0  0  0  0  0
    1.2632   51.9305   25.8687 H   0  0  0  0  0  0
    4.4331   55.1119   27.0188 H   0  0  0  0  0  0
    4.5194   53.3983   27.4230 H   0  0  0  0  0  0
    4.7098   54.0247   29.7048 H   0  0  0  0  0  0
    4.5229   55.6929   29.2816 H   0  0  0  0  0  0
    0.8551   55.3532   28.4022 H   0  0  0  0  0  0
    2.3038   56.3094   28.0948 H   0  0  0  0  0  0
    1.0518   52.9093   24.1964 H   0  0  0  0  0  0
    2.3122   50.7200   21.3878 H   0  0  0  0  0  0
    4.2909   51.3363   20.1188 H   0  0  0  0  0  0
    5.5044   53.4187   20.6400 H   0  0  0  0  0  0
    4.7331   54.8962   22.4586 H   0  0  0  0  0  0
    2.7161   54.3249   23.7441 H   0  0  0  0  0  0
    2.3378   52.0968   31.6776 O   0  5  0  0  0  0
  1  2  1  0  0  0
  1 34  1  0  0  0
  1 35  1  0  0  0
  1 36  1  0  0  0
  2  3  1  0  0  0
  2  4  1  0  0  0
  2 37  1  0  0  0
  3 38  1  0  0  0
  3 39  1  0  0  0
  3 40  1  0  0  0
  4  8  1  0  0  0
  4  5  2  0  0  0
  5  6  1  0  0  0
  5 41  1  0  0  0
  6  7  2  0  0  0
  6 25  1  0  0  0
  7  8  1  0  0  0
  7  9  1  0  0  0
  9 10  1  0  0  0
  9 42  1  0  0  0
 10 11  2  0  0  0
 10 12  1  0  0  0
 12 13  1  0  0  0
 12 21  1  0  0  0
 12 14  1  0  0  0
 14 15  1  0  0  0
 14 20  1  0  0  0
 14 16  1  0  0  0
 16 17  1  0  0  0
 16 43  1  0  0  0
 16 44  1  0  0  0
 17 18  1  0  0  0
 17 45  1  0  0  0
 17 46  1  0  0  0
 18 19  1  0  0  0
 18 20  1  0  0  0
 18 21  1  0  0  0
 20 47  1  0  0  0
 20 48  1  0  0  0
 21 22  1  0  0  0
 21 23  1  0  0  0
 23 24  2  0  0  0
 23 55  1  0  0  0
 25 26  2  0  0  0
 25 27  1  0  0  0
 27 28  1  0  0  0
 27 49  1  0  0  0
 28 33  2  0  0  0
 28 29  1  0  0  0
 29 30  2  0  0  0
 29 50  1  0  0  0
 30 31  1  0  0  0
 30 51  1  0  0  0
 31 32  2  0  0  0
 31 52  1  0  0  0
 32 33  1  0  0  0
 32 53  1  0  0  0
 33 54  1  0  0  0
M  CHG  1  55  -1
M  END
> <i_i_glide_confnum>
55

> <i_i_glide_lignum>
2608

> <i_i_glide_posenum>
90

> <i_i_glide_rotatable_bonds>
8

> <i_m_Source_File_Index>
2594

> <b_m_subgroup_collapsed>
0

> <r_i_docking_score>
-4.1316

> <r_i_glide_ecoul>
-1.48088

> <r_i_glide_eff_state_penalty>
0

> <r_i_glide_einternal>
12.9142

> <r_i_glide_emodel>
-41.7554

> <r_i_glide_energy>
-35.7178

> <r_i_glide_erotb>
0.657363

> <r_i_glide_esite>
-0.0158029

> <r_i_glide_evdw>
-34.2369

> <r_i_glide_gscore>
-4.1316

> <r_i_glide_hbond>
-0.251748

> <r_i_glide_ligand_efficiency>
-0.13772

> <r_i_glide_ligand_efficiency_ln>
-0.938745

> <r_i_glide_ligand_efficiency_sa>
-0.427928

> <r_i_glide_lipo>
-1.89432

> <r_i_glide_metal>
0

> <r_i_glide_rewards>
-0.69312

> <s_i_glide_gridfile>
wee1_glide-grid

> <s_m_Source_File>
wee1_decoys_glide_SP.sdf

> <s_m_Source_Path>
/Users/zhangxujun/Desktop

> <s_m_entry_id>
2869

> <s_m_entry_name>
wee1_decoys_glide_SP.2594

> <s_m_subgroup_title>
wee1_decoys_glide_SP

> <s_m_subgroupid>
wee1_decoys_glide_SP


$$$$
