ZINC13460367_3327
                    3D
 Schrodinger Suite 2024-2.
 52 55  0  0  1  0            999 V2000
   -2.9957   47.0983   24.7682 C   0  0  0  0  0  0
   -2.8667   48.3196   24.0493 O   0  0  0  0  0  0
   -2.2520   48.3346   22.8091 C   0  0  0  0  0  0
   -1.9008   47.1640   22.1158 C   0  0  0  0  0  0
   -1.2963   47.2104   20.8547 C   0  0  0  0  0  0
   -1.0340   48.4638   20.2920 C   0  0  0  0  0  0
   -1.3729   49.6507   20.9578 C   0  0  0  0  0  0
   -1.9866   49.5865   22.2190 C   0  0  0  0  0  0
   -2.3381   50.7714   22.8343 O   0  0  0  0  0  0
   -1.8281   50.9939   24.1461 C   0  0  0  0  0  0
   -0.9845   51.2553   20.2076 S   0  0  0  0  0  0
   -0.3803   50.9062   18.9171 O   0  0  0  0  0  0
   -2.2864   51.9257   20.0910 O   0  0  0  0  0  0
    0.0656   51.8579   21.5002 N   0  0  0  0  0  0
    1.2776   52.1756   21.2938 C   0  0  0  0  0  0
    2.1107   52.7308   22.2429 N   0  0  0  0  0  0
    3.3910   53.0779   21.8717 C   0  0  0  0  0  0
    3.6608   52.7755   20.5918 C   0  0  0  0  0  0
    2.2658   52.0494   19.7977 S   0  0  0  0  0  0
    4.3416   53.6968   22.8421 C   0  0  0  0  0  0
    5.6098   54.1498   22.4268 C   0  0  0  0  0  0
    6.5354   54.6696   23.3368 C   0  0  0  0  0  0
    6.1893   54.7088   24.6812 C   0  0  0  0  0  0
    4.9542   54.2824   25.1243 C   0  0  0  0  0  0
    4.0146   53.8086   24.2083 C   0  0  0  0  0  0
    4.8956   54.4912   26.6018 C   0  0  0  0  0  0
    6.3442   54.8886   26.9208 C   0  0  0  0  0  0
    6.9909   55.1952   25.6821 O   0  0  0  0  0  0
   -0.8949   45.9836   20.1161 C   0  0  0  0  0  0
   -0.8956   44.7123   20.5844 C   0  0  0  0  0  0
   -0.4320   43.4805   19.7764 C   0  0  0  0  0  0
   -0.4786   43.5899   18.5329 O   0  0  0  0  0  0
   -0.0956   42.4974   20.4815 O   0  5  0  0  0  0
   -3.4205   47.3039   25.7510 H   0  0  0  0  0  0
   -3.6650   46.4041   24.2584 H   0  0  0  0  0  0
   -2.0269   46.6202   24.9240 H   0  0  0  0  0  0
   -2.1089   46.2050   22.5573 H   0  0  0  0  0  0
   -0.5516   48.5130   19.3260 H   0  0  0  0  0  0
   -1.7169   52.0666   24.3044 H   0  0  0  0  0  0
   -2.5161   50.6251   24.9069 H   0  0  0  0  0  0
   -0.8483   50.5373   24.3028 H   0  0  0  0  0  0
    4.5795   52.9211   20.0435 H   0  0  0  0  0  0
    5.8964   54.1020   21.3875 H   0  0  0  0  0  0
    7.5017   55.0149   22.9985 H   0  0  0  0  0  0
    3.0530   53.4807   24.5719 H   0  0  0  0  0  0
    4.2124   55.2967   26.8674 H   0  0  0  0  0  0
    4.6067   53.6008   27.1618 H   0  0  0  0  0  0
    6.8580   54.0252   27.3487 H   0  0  0  0  0  0
    6.4180   55.6964   27.6488 H   0  0  0  0  0  0
   -0.5661   46.1411   19.0971 H   0  0  0  0  0  0
   -1.2198   44.5215   21.5939 H   0  0  0  0  0  0
    1.7510   52.8962   23.1686 H   0  0  0  0  0  0
  1  2  1  0  0  0
  1 34  1  0  0  0
  1 35  1  0  0  0
  1 36  1  0  0  0
  2  3  1  0  0  0
  3  8  2  0  0  0
  3  4  1  0  0  0
  4  5  2  0  0  0
  4 37  1  0  0  0
  5  6  1  0  0  0
  5 29  1  0  0  0
  6  7  2  0  0  0
  6 38  1  0  0  0
  7  8  1  0  0  0
  7 11  1  0  0  0
  8  9  1  0  0  0
  9 10  1  0  0  0
 10 39  1  0  0  0
 10 40  1  0  0  0
 10 41  1  0  0  0
 11 12  2  0  0  0
 11 13  2  0  0  0
 11 14  1  0  0  0
 14 15  2  0  0  0
 15 19  1  0  0  0
 15 16  1  0  0  0
 16 17  1  0  0  0
 16 52  1  0  0  0
 17 18  2  0  0  0
 17 20  1  0  0  0
 18 19  1  0  0  0
 18 42  1  0  0  0
 20 25  2  0  0  0
 20 21  1  0  0  0
 21 22  2  0  0  0
 21 43  1  0  0  0
 22 23  1  0  0  0
 22 44  1  0  0  0
 23 28  1  0  0  0
 23 24  2  0  0  0
 24 25  1  0  0  0
 24 26  1  0  0  0
 25 45  1  0  0  0
 26 27  1  0  0  0
 26 46  1  0  0  0
 26 47  1  0  0  0
 27 28  1  0  0  0
 27 48  1  0  0  0
 27 49  1  0  0  0
 29 30  2  0  0  0
 29 50  1  0  0  0
 30 31  1  0  0  0
 30 51  1  0  0  0
 31 32  2  0  0  0
 31 33  1  0  0  0
M  CHG  1  33  -1
M  END
> <i_i_glide_confnum>
90

> <i_i_glide_lignum>
3328

> <i_i_glide_posenum>
234

> <i_i_glide_rotatable_bonds>
7

> <i_m_Source_File_Index>
1167

> <b_m_subgroup_collapsed>
0

> <r_i_docking_score>
-5.72339

> <r_i_glide_ecoul>
-10.3963

> <r_i_glide_eff_state_penalty>
0

> <r_i_glide_einternal>
6.50267

> <r_i_glide_emodel>
-60.5639

> <r_i_glide_energy>
-43.4976

> <r_i_glide_erotb>
0.42767

> <r_i_glide_esite>
-0.1286

> <r_i_glide_evdw>
-33.1013

> <r_i_glide_gscore>
-5.72339

> <r_i_glide_hbond>
-0.556275

> <r_i_glide_ligand_efficiency>
-0.173436

> <r_i_glide_ligand_efficiency_ln>
-1.27285

> <r_i_glide_ligand_efficiency_sa>
-0.556302

> <r_i_glide_lipo>
-2.3224

> <r_i_glide_metal>
0

> <r_i_glide_rewards>
0.0707268

> <s_i_glide_gridfile>
wee1_glide-grid

> <s_m_Source_File>
wee1_decoys_glide_SP.sdf

> <s_m_Source_Path>
/Users/zhangxujun/Desktop

> <s_m_entry_id>
1442

> <s_m_entry_name>
wee1_decoys_glide_SP.1167

> <s_m_subgroup_title>
wee1_decoys_glide_SP

> <s_m_subgroupid>
wee1_decoys_glide_SP


$$$$
