ZINC43962385_4405
                    3D
 Schrodinger Suite 2024-2.
 46 48  0  0  1  0            999 V2000
    4.2880   54.8868   18.4769 C   0  0  0  0  0  0
    4.1456   55.2331   17.1357 C   0  0  0  0  0  0
    5.1816   55.8867   16.4761 C   0  0  0  0  0  0
    6.3625   56.1951   17.1464 C   0  0  0  0  0  0
    6.5082   55.8518   18.4882 C   0  0  0  0  0  0
    5.4602   55.2062   19.1659 C   0  0  0  0  0  0
    5.5043   54.8264   20.5218 N   0  0  0  0  0  0
    6.3012   55.2909   21.5131 C   0  0  0  0  0  0
    7.1142   56.1970   21.3216 O   0  0  0  0  0  0
    6.1008   54.7315   22.7479 N   0  0  0  0  0  0
    5.1019   53.6588   23.0264 C   0  0  0  0  0  0
    4.3393   54.0188   24.3293 C   0  0  0  0  0  0
    5.2981   54.2145   25.5174 C   0  0  0  0  0  0
    6.1924   55.3986   25.1251 C   0  0  0  0  0  0
    7.0189   55.0984   23.8568 C   0  0  0  0  0  0
    4.5829   54.4865   26.8613 C   0  0  0  0  0  0
    3.8716   53.2972   27.3716 N   0  0  0  0  0  0
    3.5447   53.2084   29.1007 S   0  0  0  0  0  0
    4.3058   52.0967   29.6785 O   0  0  0  0  0  0
    3.5772   54.5551   29.6798 O   0  0  0  0  0  0
    1.8192   52.6904   29.1549 C   0  0  0  0  0  0
    1.0843   52.5494   30.3238 C   0  0  0  0  0  0
   -0.2138   52.0971   30.0870 C   0  0  0  0  0  0
   -0.4825   51.8960   28.7409 C   0  0  0  0  0  0
    0.8963   52.2487   27.7492 S   0  0  0  0  0  0
   -2.1089   51.2965   27.9563 Br  0  0  0  0  0  0
    5.0438   56.2190   15.1729 F   0  0  0  0  0  0
    3.4732   54.3829   18.9779 H   0  0  0  0  0  0
    3.2354   54.9970   16.6055 H   0  0  0  0  0  0
    7.1628   56.6958   16.6227 H   0  0  0  0  0  0
    7.4424   56.0869   18.9722 H   0  0  0  0  0  0
    4.8136   54.1429   20.7863 H   0  0  0  0  0  0
    4.3466   53.5546   22.2485 H   0  0  0  0  0  0
    5.6383   52.7185   23.1535 H   0  0  0  0  0  0
    3.7109   54.8976   24.1813 H   0  0  0  0  0  0
    3.6231   53.2329   24.5670 H   0  0  0  0  0  0
    5.9228   53.3220   25.6233 H   0  0  0  0  0  0
    6.8731   55.6236   25.9461 H   0  0  0  0  0  0
    5.6103   56.3139   25.0066 H   0  0  0  0  0  0
    7.6811   54.2509   24.0413 H   0  0  0  0  0  0
    7.5885   56.0043   23.6429 H   0  0  0  0  0  0
    5.2936   54.8324   27.6157 H   0  0  0  0  0  0
    3.8548   55.2895   26.7413 H   0  0  0  0  0  0
    4.2589   52.4260   26.9955 H   0  0  0  0  0  0
    1.4703   52.7524   31.3120 H   0  0  0  0  0  0
   -0.9209   51.9085   30.8809 H   0  0  0  0  0  0
  1  6  2  0  0  0
  1  2  1  0  0  0
  1 28  1  0  0  0
  2  3  2  0  0  0
  2 29  1  0  0  0
  3  4  1  0  0  0
  3 27  1  0  0  0
  4  5  2  0  0  0
  4 30  1  0  0  0
  5  6  1  0  0  0
  5 31  1  0  0  0
  6  7  1  0  0  0
  7  8  1  0  0  0
  7 32  1  0  0  0
  8  9  2  0  0  0
  8 10  1  0  0  0
 10 15  1  0  0  0
 10 11  1  0  0  0
 11 12  1  0  0  0
 11 33  1  0  0  0
 11 34  1  0  0  0
 12 13  1  0  0  0
 12 35  1  0  0  0
 12 36  1  0  0  0
 13 14  1  0  0  0
 13 16  1  0  0  0
 13 37  1  0  0  0
 14 15  1  0  0  0
 14 38  1  0  0  0
 14 39  1  0  0  0
 15 40  1  0  0  0
 15 41  1  0  0  0
 16 17  1  0  0  0
 16 42  1  0  0  0
 16 43  1  0  0  0
 17 18  1  0  0  0
 17 44  1  0  0  0
 18 19  2  0  0  0
 18 20  2  0  0  0
 18 21  1  0  0  0
 21 25  1  0  0  0
 21 22  2  0  0  0
 22 23  1  0  0  0
 22 45  1  0  0  0
 23 24  2  0  0  0
 23 46  1  0  0  0
 24 25  1  0  0  0
 24 26  1  0  0  0
M  END
> <i_i_glide_confnum>
196

> <i_i_glide_lignum>
4406

> <i_i_glide_posenum>
234

> <i_i_glide_rotatable_bonds>
7

> <i_m_Source_File_Index>
5612

> <b_m_subgroup_collapsed>
0

> <r_i_docking_score>
-2.37125

> <r_i_glide_ecoul>
-6.17835

> <r_i_glide_eff_state_penalty>
0

> <r_i_glide_einternal>
11.8537

> <r_i_glide_emodel>
-40.2538

> <r_i_glide_energy>
-47.9648

> <r_i_glide_erotb>
0.53536

> <r_i_glide_esite>
-0.00158121

> <r_i_glide_evdw>
-41.7865

> <r_i_glide_gscore>
-2.37125

> <r_i_glide_hbond>
-0.119103

> <r_i_glide_ligand_efficiency>
-0.0878241

> <r_i_glide_ligand_efficiency_ln>
-0.551988

> <r_i_glide_ligand_efficiency_sa>
-0.263472

> <r_i_glide_lipo>
-1.76532

> <r_i_glide_metal>
0

> <r_i_glide_rewards>
1.99547

> <s_i_glide_gridfile>
wee1_glide-grid

> <s_m_Source_File>
wee1_decoys_glide_SP.sdf

> <s_m_Source_Path>
/Users/zhangxujun/Desktop

> <s_m_entry_id>
5887

> <s_m_entry_name>
wee1_decoys_glide_SP.5612

> <s_m_subgroup_title>
wee1_decoys_glide_SP

> <s_m_subgroupid>
wee1_decoys_glide_SP


$$$$
