ZINC12412546_828
                    3D
 Schrodinger Suite 2024-2.
 65 68  0  0  1  0            999 V2000
   -1.8781   50.7907   23.3873 C   0  0  0  0  0  0
   -2.2130   51.1173   21.9304 C   0  0  0  0  0  0
   -1.0106   51.2703   21.1855 O   0  0  0  0  0  0
   -1.0355   51.6969   19.9041 C   0  0  0  0  0  0
   -2.0875   51.9944   19.3275 O   0  0  0  0  0  0
    0.2906   51.8319   19.2420 C   0  0  0  0  0  0
    1.5122   51.6246   19.8118 C   0  0  0  0  0  0
    2.6501   51.8814   19.0946 N   0  0  0  0  0  0
    2.7037   52.6651   17.9904 C   0  0  0  0  0  0
    3.7026   53.2975   17.6659 O   0  0  0  0  0  0
    1.5119   52.8178   17.3547 N   0  0  0  0  0  0
    0.2629   52.0916   17.7155 C   0  0  1  0  0  0
   -0.5871   52.7052   17.4092 H   0  0  0  0  0  0
    0.0351   50.7956   16.9140 C   0  0  0  0  0  0
   -1.2632   50.4249   16.5411 C   0  0  0  0  0  0
   -1.4870   49.2349   15.8529 C   0  0  0  0  0  0
   -0.4139   48.4033   15.5406 C   0  0  0  0  0  0
    0.8807   48.7540   15.9124 C   0  0  0  0  0  0
    1.1032   49.9428   16.5993 C   0  0  0  0  0  0
   -0.6911   46.9248   14.6947 Cl  0  0  0  0  0  0
    1.8298   51.2010   21.2500 C   0  0  0  0  0  0
    1.7138   52.2567   22.2628 N   0  0  0  0  0  0
    2.7575   53.2696   22.1101 C   0  0  0  0  0  0
    2.5028   54.3984   23.1285 C   0  0  0  0  0  0
    2.6561   53.9322   24.5159 N   0  0  0  0  0  0
    1.7658   52.7695   24.7289 C   0  0  0  0  0  0
    1.7734   51.6856   23.6120 C   0  0  0  0  0  0
    3.8254   54.1280   25.2618 C   0  0  0  0  0  0
    5.0563   54.2608   24.5958 C   0  0  0  0  0  0
    6.2466   54.4502   25.2896 C   0  0  0  0  0  0
    6.2354   54.4974   26.6767 C   0  0  0  0  0  0
    5.0360   54.3701   27.3785 C   0  0  0  0  0  0
    3.8223   54.1888   26.6799 C   0  0  0  0  0  0
    2.5143   54.1284   27.4780 C   0  0  0  0  0  0
    5.0885   54.4311   28.9007 C   0  0  0  0  0  0
   -2.7868   50.6350   23.9692 H   0  0  0  0  0  0
   -1.2760   49.8850   23.4613 H   0  0  0  0  0  0
   -1.3236   51.6059   23.8520 H   0  0  0  0  0  0
   -2.8031   52.0339   21.8893 H   0  0  0  0  0  0
   -2.8159   50.3189   21.4953 H   0  0  0  0  0  0
    3.5610   51.6667   19.4717 H   0  0  0  0  0  0
    1.5778   53.1968   16.4228 H   0  0  0  0  0  0
   -2.1049   51.0551   16.7888 H   0  0  0  0  0  0
   -2.4905   48.9569   15.5671 H   0  0  0  0  0  0
    1.7172   48.1108   15.6782 H   0  0  0  0  0  0
    2.1174   50.1813   16.8850 H   0  0  0  0  0  0
    1.1887   50.3558   21.5032 H   0  0  0  0  0  0
    2.8213   50.7430   21.2872 H   0  0  0  0  0  0
    3.7560   52.8481   22.2373 H   0  0  0  0  0  0
    2.7047   53.6969   21.1100 H   0  0  0  0  0  0
    1.5047   54.8177   22.9897 H   0  0  0  0  0  0
    3.1954   55.2158   22.9315 H   0  0  0  0  0  0
    0.7562   53.1746   24.8111 H   0  0  0  0  0  0
    1.9781   52.2757   25.6761 H   0  0  0  0  0  0
    0.9520   50.9892   23.7791 H   0  0  0  0  0  0
    2.7039   51.1311   23.7002 H   0  0  0  0  0  0
    5.1108   54.2111   23.5196 H   0  0  0  0  0  0
    7.1774   54.5454   24.7487 H   0  0  0  0  0  0
    7.1649   54.6343   27.2103 H   0  0  0  0  0  0
    2.5191   54.8440   28.2993 H   0  0  0  0  0  0
    1.6433   54.3981   26.8827 H   0  0  0  0  0  0
    2.3668   53.1334   27.8981 H   0  0  0  0  0  0
    4.6306   53.5389   29.3285 H   0  0  0  0  0  0
    6.1095   54.4949   29.2794 H   0  0  0  0  0  0
    4.5418   55.2967   29.2738 H   0  0  0  0  0  0
  1  2  1  0  0  0
  1 36  1  0  0  0
  1 37  1  0  0  0
  1 38  1  0  0  0
  2  3  1  0  0  0
  2 39  1  0  0  0
  2 40  1  0  0  0
  3  4  1  0  0  0
  4  5  2  0  0  0
  4  6  1  0  0  0
  6 12  1  0  0  0
  6  7  2  0  0  0
  7  8  1  0  0  0
  7 21  1  0  0  0
  8  9  1  0  0  0
  8 41  1  0  0  0
  9 10  2  0  0  0
  9 11  1  0  0  0
 11 12  1  0  0  0
 11 42  1  0  0  0
 12 13  1  0  0  0
 12 14  1  0  0  0
 14 19  2  0  0  0
 14 15  1  0  0  0
 15 16  2  0  0  0
 15 43  1  0  0  0
 16 17  1  0  0  0
 16 44  1  0  0  0
 17 18  2  0  0  0
 17 20  1  0  0  0
 18 19  1  0  0  0
 18 45  1  0  0  0
 19 46  1  0  0  0
 21 22  1  0  0  0
 21 47  1  0  0  0
 21 48  1  0  0  0
 22 27  1  0  0  0
 22 23  1  0  0  0
 23 24  1  0  0  0
 23 49  1  0  0  0
 23 50  1  0  0  0
 24 25  1  0  0  0
 24 51  1  0  0  0
 24 52  1  0  0  0
 25 26  1  0  0  0
 25 28  1  0  0  0
 26 27  1  0  0  0
 26 53  1  0  0  0
 26 54  1  0  0  0
 27 55  1  0  0  0
 27 56  1  0  0  0
 28 33  2  0  0  0
 28 29  1  0  0  0
 29 30  2  0  0  0
 29 57  1  0  0  0
 30 31  1  0  0  0
 30 58  1  0  0  0
 31 32  2  0  0  0
 31 59  1  0  0  0
 32 33  1  0  0  0
 32 35  1  0  0  0
 33 34  1  0  0  0
 34 60  1  0  0  0
 34 61  1  0  0  0
 34 62  1  0  0  0
 35 63  1  0  0  0
 35 64  1  0  0  0
 35 65  1  0  0  0
M  END
> <i_i_glide_confnum>
8

> <i_i_glide_lignum>
829

> <i_i_glide_posenum>
231

> <i_i_glide_rotatable_bonds>
7

> <i_m_Source_File_Index>
5017

> <b_m_subgroup_collapsed>
0

> <r_i_docking_score>
-4.8923

> <r_i_glide_ecoul>
-2.75173

> <r_i_glide_eff_state_penalty>
0

> <r_i_glide_einternal>
4.74512

> <r_i_glide_emodel>
-49.2128

> <r_i_glide_energy>
-38.2124

> <r_i_glide_erotb>
0.522033

> <r_i_glide_esite>
-0.114043

> <r_i_glide_evdw>
-35.4607

> <r_i_glide_gscore>
-4.8923

> <r_i_glide_hbond>
-0.13107

> <r_i_glide_ligand_efficiency>
-0.143891

> <r_i_glide_ligand_efficiency_ln>
-1.08085

> <r_i_glide_ligand_efficiency_sa>
-0.466152

> <r_i_glide_lipo>
-2.42375

> <r_i_glide_metal>
0

> <r_i_glide_rewards>
-0.559681

> <s_i_glide_gridfile>
wee1_glide-grid

> <s_m_Source_File>
wee1_decoys_glide_SP.sdf

> <s_m_Source_Path>
/Users/zhangxujun/Desktop

> <s_m_entry_id>
5292

> <s_m_entry_name>
wee1_decoys_glide_SP.5017

> <s_m_subgroup_title>
wee1_decoys_glide_SP

> <s_m_subgroupid>
wee1_decoys_glide_SP


$$$$
