ZINC03840804_4207
                    3D
 Schrodinger Suite 2024-2.
 73 77  0  0  1  0            999 V2000
    2.2298   50.5761   21.7932 C   0  0  0  0  0  0
    2.2162   52.0753   22.1874 C   0  0  2  0  0  0
    1.3183   52.5212   21.7553 H   0  0  0  0  0  0
    3.4101   52.8171   21.5585 C   0  0  0  0  0  0
    4.2701   53.6517   22.2705 C   0  0  0  0  0  0
    5.4188   54.3879   21.2045 S   0  0  0  0  0  0
    4.7433   53.4233   19.9214 C   0  0  0  0  0  0
    3.6983   52.7119   20.2696 N   0  0  0  0  0  0
    5.2939   53.2966   18.6528 N   0  0  0  0  0  0
    6.3699   53.9312   18.1349 C   0  0  0  0  0  0
    7.0340   54.7843   18.7297 O   0  0  0  0  0  0
    6.7727   53.5009   16.7395 C   0  0  0  0  0  0
    8.0770   53.7498   16.2891 C   0  0  0  0  0  0
    8.4847   53.3226   15.0284 C   0  0  0  0  0  0
    7.6053   52.6393   14.1912 C   0  0  0  0  0  0
    6.2911   52.4087   14.6236 C   0  0  0  0  0  0
    5.8790   52.8388   15.8823 C   0  0  0  0  0  0
    8.1100   52.2263   12.9743 O   0  0  0  0  0  0
    7.2933   51.4400   12.1151 C   0  0  0  0  0  0
    4.2683   53.8234   23.7600 C   0  0  0  0  0  0
    2.8255   53.6049   24.2924 C   0  0  1  0  0  0
    2.1451   52.2987   23.7558 C   0  0  1  0  0  0
    2.7040   51.4775   24.1811 H   0  0  0  0  0  0
    0.7095   52.1900   24.3968 C   0  0  2  0  0  0
    0.1352   53.0725   24.1281 H   0  0  0  0  0  0
    0.7356   52.1440   25.9776 C   0  0  1  0  0  0
    1.3060   51.2560   26.2197 H   0  0  0  0  0  0
    1.6271   53.2782   26.5753 C   0  0  0  0  0  0
    2.9507   53.5015   25.8356 C   0  0  0  0  0  0
   -0.6524   52.0250   26.7203 C   0  0  2  0  0  0
   -1.2352   52.8950   26.4205 H   0  0  0  0  0  0
   -0.5068   52.0517   28.2669 C   0  0  0  0  0  0
   -1.4734   50.7625   26.3438 C   0  0  0  0  0  0
   -0.8633   49.7726   25.9290 O   0  0  0  0  0  0
   -2.8257   50.7775   26.4423 N   0  0  0  0  0  0
   -3.6304   49.5814   26.1585 C   0  0  0  0  0  0
   -4.9860   49.9375   26.7646 C   0  0  0  0  0  0
   -5.0671   51.4445   26.6094 C   0  0  0  0  0  0
   -3.6406   51.9183   26.8815 C   0  0  0  0  0  0
   -0.0765   51.1915   23.7839 O   0  0  0  0  0  0
    1.9881   54.8182   23.8709 C   0  0  0  0  0  0
    2.2433   50.4462   20.7106 H   0  0  0  0  0  0
    3.1044   50.0683   22.1947 H   0  0  0  0  0  0
    1.3611   50.0315   22.1562 H   0  0  0  0  0  0
    4.8989   52.5577   18.0869 H   0  0  0  0  0  0
    8.7928   54.2594   16.9206 H   0  0  0  0  0  0
    9.4978   53.5070   14.7026 H   0  0  0  0  0  0
    5.5788   51.8886   14.0026 H   0  0  0  0  0  0
    4.8608   52.6286   16.1783 H   0  0  0  0  0  0
    7.8783   51.1326   11.2497 H   0  0  0  0  0  0
    6.9414   50.5335   12.6102 H   0  0  0  0  0  0
    6.4354   52.0067   11.7520 H   0  0  0  0  0  0
    4.6681   54.7971   24.0482 H   0  0  0  0  0  0
    4.9736   53.1038   24.1663 H   0  0  0  0  0  0
    1.1044   54.2232   26.5936 H   0  0  0  0  0  0
    1.8479   53.0778   27.6238 H   0  0  0  0  0  0
    3.4042   54.4161   26.2230 H   0  0  0  0  0  0
    3.6511   52.7216   26.1185 H   0  0  0  0  0  0
   -1.4419   51.8363   28.7860 H   0  0  0  0  0  0
    0.2170   51.3111   28.6124 H   0  0  0  0  0  0
   -0.1891   53.0309   28.6252 H   0  0  0  0  0  0
   -3.2249   48.6865   26.6368 H   0  0  0  0  0  0
   -3.7281   49.4461   25.0807 H   0  0  0  0  0  0
   -4.9943   49.6721   27.8234 H   0  0  0  0  0  0
   -5.8099   49.4013   26.2926 H   0  0  0  0  0  0
   -5.3521   51.6949   25.5855 H   0  0  0  0  0  0
   -5.7967   51.9120   27.2712 H   0  0  0  0  0  0
   -3.4325   52.8307   26.3212 H   0  0  0  0  0  0
   -3.5107   52.0778   27.9520 H   0  0  0  0  0  0
   -0.2653   50.5098   24.4484 H   0  0  0  0  0  0
    1.7420   54.8086   22.8086 H   0  0  0  0  0  0
    1.0659   54.8989   24.4306 H   0  0  0  0  0  0
    2.5650   55.6967   24.0812 H   0  0  0  0  0  0
  1  2  1  0  0  0
  1 42  1  0  0  0
  1 43  1  0  0  0
  1 44  1  0  0  0
  2  3  1  0  0  0
  2 22  1  0  0  0
  2  4  1  0  0  0
  4  8  1  0  0  0
  4  5  2  0  0  0
  5  6  1  0  0  0
  5 20  1  0  0  0
  6  7  1  0  0  0
  7  8  2  0  0  0
  7  9  1  0  0  0
  9 10  1  0  0  0
  9 45  1  0  0  0
 10 11  2  0  0  0
 10 12  1  0  0  0
 12 17  2  0  0  0
 12 13  1  0  0  0
 13 14  2  0  0  0
 13 46  1  0  0  0
 14 15  1  0  0  0
 14 47  1  0  0  0
 15 16  2  0  0  0
 15 18  1  0  0  0
 16 17  1  0  0  0
 16 48  1  0  0  0
 17 49  1  0  0  0
 18 19  1  0  0  0
 19 50  1  0  0  0
 19 51  1  0  0  0
 19 52  1  0  0  0
 20 21  1  0  0  0
 20 53  1  0  0  0
 20 54  1  0  0  0
 21 29  1  0  0  0
 21 22  1  0  0  0
 21 41  1  0  0  0
 22 23  1  0  0  0
 22 24  1  0  0  0
 24 25  1  0  0  0
 24 26  1  0  0  0
 24 40  1  0  0  0
 26 27  1  0  0  0
 26 28  1  0  0  0
 26 30  1  0  0  0
 28 29  1  0  0  0
 28 55  1  0  0  0
 28 56  1  0  0  0
 29 57  1  0  0  0
 29 58  1  0  0  0
 30 31  1  0  0  0
 30 32  1  0  0  0
 30 33  1  0  0  0
 32 59  1  0  0  0
 32 60  1  0  0  0
 32 61  1  0  0  0
 33 34  2  0  0  0
 33 35  1  0  0  0
 35 39  1  0  0  0
 35 36  1  0  0  0
 36 37  1  0  0  0
 36 62  1  0  0  0
 36 63  1  0  0  0
 37 38  1  0  0  0
 37 64  1  0  0  0
 37 65  1  0  0  0
 38 39  1  0  0  0
 38 66  1  0  0  0
 38 67  1  0  0  0
 39 68  1  0  0  0
 39 69  1  0  0  0
 40 70  1  0  0  0
 41 71  1  0  0  0
 41 72  1  0  0  0
 41 73  1  0  0  0
M  END
> <i_i_glide_confnum>
171

> <i_i_glide_lignum>
4208

> <i_i_glide_posenum>
112

> <i_i_glide_rotatable_bonds>
8

> <i_m_Source_File_Index>
4755

> <b_m_subgroup_collapsed>
0

> <r_i_docking_score>
-2.97068

> <r_i_glide_ecoul>
-0.0300543

> <r_i_glide_eff_state_penalty>
0

> <r_i_glide_einternal>
20.2431

> <r_i_glide_emodel>
-24.8668

> <r_i_glide_energy>
-27.5855

> <r_i_glide_erotb>
0.469677

> <r_i_glide_esite>
-0.226287

> <r_i_glide_evdw>
-27.5554

> <r_i_glide_gscore>
-2.97068

> <r_i_glide_hbond>
-0.0424655

> <r_i_glide_ligand_efficiency>
-0.0825188

> <r_i_glide_ligand_efficiency_ln>
-0.648121

> <r_i_glide_ligand_efficiency_sa>
-0.272471

> <r_i_glide_lipo>
-1.78956

> <r_i_glide_metal>
0

> <r_i_glide_rewards>
0.000234134

> <s_i_glide_gridfile>
wee1_glide-grid

> <s_m_Source_File>
wee1_decoys_glide_SP.sdf

> <s_m_Source_Path>
/Users/zhangxujun/Desktop

> <s_m_entry_id>
5030

> <s_m_entry_name>
wee1_decoys_glide_SP.4755

> <s_m_subgroup_title>
wee1_decoys_glide_SP

> <s_m_subgroupid>
wee1_decoys_glide_SP


$$$$
