ZINC09383371_1167
                    3D
 Schrodinger Suite 2024-2.
 64 67  0  0  1  0            999 V2000
    8.0643   58.6831   18.1708 C   0  0  0  0  0  0
    7.7758   57.8409   16.9190 C   0  0  0  0  0  0
    6.8533   56.7227   17.1556 N   0  0  0  0  0  0
    5.4821   56.8732   16.8199 C   0  0  0  0  0  0
    4.7146   55.7670   16.4219 C   0  0  0  0  0  0
    3.3657   55.9106   16.1042 C   0  0  0  0  0  0
    2.7670   57.1654   16.1620 C   0  0  0  0  0  0
    3.5120   58.2788   16.5431 C   0  0  0  0  0  0
    4.8568   58.1318   16.8758 C   0  0  0  0  0  0
    7.5429   55.2241   17.8812 S   0  0  0  0  0  0
    8.8843   55.5495   18.3849 O   0  0  0  0  0  0
    7.3664   54.1347   16.9153 O   0  0  0  0  0  0
    6.5257   54.8609   19.3116 C   0  0  0  0  0  0
    6.8682   55.3898   20.5588 C   0  0  0  0  0  0
    6.0690   55.1216   21.6660 C   0  0  0  0  0  0
    4.9033   54.3434   21.5339 C   0  0  0  0  0  0
    4.5899   53.7999   20.2782 C   0  0  0  0  0  0
    5.4029   54.0415   19.1764 C   0  0  0  0  0  0
    3.9633   54.0960   22.6950 C   0  0  0  0  0  0
    2.7845   53.8107   22.4831 O   0  0  0  0  0  0
    4.5155   54.1840   23.9254 N   0  0  0  0  0  0
    3.9054   54.0054   25.1699 C   0  0  0  0  0  0
    4.5619   54.0198   26.4056 C   0  0  0  0  0  0
    3.7116   53.6971   27.4824 C   0  0  0  0  0  0
    2.3753   53.6013   27.0939 C   0  0  0  0  0  0
    2.1992   53.6965   25.3766 S   0  0  0  0  0  0
    1.1912   53.4720   28.0376 C   0  0  0  0  0  0
    2.9346   53.6182   29.8906 C   0  0  0  0  0  0
    4.1409   53.5109   28.9359 C   0  0  0  0  0  0
    0.6377   52.5881   30.4201 C   0  0  0  0  0  0
    0.1148   53.9059   31.0313 C   0  0  0  0  0  0
   -0.4953   51.6993   29.8666 C   0  0  0  0  0  0
    5.9800   54.2843   26.5716 C   0  0  0  0  0  0
    7.1042   54.4976   26.7067 N   0  0  0  0  0  0
    8.6461   59.5670   17.9098 H   0  0  0  0  0  0
    7.1525   59.0235   18.6610 H   0  0  0  0  0  0
    8.6501   58.1134   18.8858 H   0  0  0  0  0  0
    8.7196   57.4403   16.5482 H   0  0  0  0  0  0
    7.3924   58.4973   16.1352 H   0  0  0  0  0  0
    5.1513   54.7867   16.3262 H   0  0  0  0  0  0
    2.7897   55.0460   15.8024 H   0  0  0  0  0  0
    1.7224   57.2782   15.9076 H   0  0  0  0  0  0
    3.0513   59.2587   16.5844 H   0  0  0  0  0  0
    5.3971   59.0208   17.1744 H   0  0  0  0  0  0
    7.7537   56.0001   20.6695 H   0  0  0  0  0  0
    6.3597   55.5523   22.6146 H   0  0  0  0  0  0
    3.7056   53.1914   20.1426 H   0  0  0  0  0  0
    5.1436   53.5943   18.2266 H   0  0  0  0  0  0
    5.5103   54.3540   23.9526 H   0  0  0  0  0  0
    0.4234   52.8129   27.6367 H   0  0  0  0  0  0
    0.7518   54.4338   28.2902 H   0  0  0  0  0  0
    2.6108   54.6541   30.0142 H   0  0  0  0  0  0
    3.2008   53.1761   30.8513 H   0  0  0  0  0  0
    4.9096   54.2241   29.2305 H   0  0  0  0  0  0
    4.6005   52.5266   29.0317 H   0  0  0  0  0  0
    1.1711   52.0253   31.1913 H   0  0  0  0  0  0
   -0.4972   53.6820   31.9075 H   0  0  0  0  0  0
   -0.4951   54.4699   30.3278 H   0  0  0  0  0  0
    0.9012   54.5639   31.3912 H   0  0  0  0  0  0
   -1.0943   51.2806   30.6776 H   0  0  0  0  0  0
   -1.1802   52.2493   29.2249 H   0  0  0  0  0  0
   -0.1065   50.8690   29.2812 H   0  0  0  0  0  0
    1.7332   52.8141   29.3329 N   0  3  1  0  0  0
    2.0686   51.8899   29.0946 H   0  0  0  0  0  0
  1  2  1  0  0  0
  1 35  1  0  0  0
  1 36  1  0  0  0
  1 37  1  0  0  0
  2  3  1  0  0  0
  2 38  1  0  0  0
  2 39  1  0  0  0
  3  4  1  0  0  0
  3 10  1  0  0  0
  4  9  2  0  0  0
  4  5  1  0  0  0
  5  6  2  0  0  0
  5 40  1  0  0  0
  6  7  1  0  0  0
  6 41  1  0  0  0
  7  8  2  0  0  0
  7 42  1  0  0  0
  8  9  1  0  0  0
  8 43  1  0  0  0
  9 44  1  0  0  0
 10 11  2  0  0  0
 10 12  2  0  0  0
 10 13  1  0  0  0
 13 18  2  0  0  0
 13 14  1  0  0  0
 14 15  2  0  0  0
 14 45  1  0  0  0
 15 16  1  0  0  0
 15 46  1  0  0  0
 16 17  2  0  0  0
 16 19  1  0  0  0
 17 18  1  0  0  0
 17 47  1  0  0  0
 18 48  1  0  0  0
 19 20  2  0  0  0
 19 21  1  0  0  0
 21 22  1  0  0  0
 21 49  1  0  0  0
 22 26  1  0  0  0
 22 23  2  0  0  0
 23 24  1  0  0  0
 23 33  1  0  0  0
 24 29  1  0  0  0
 24 25  2  0  0  0
 25 26  1  0  0  0
 25 27  1  0  0  0
 27 50  1  0  0  0
 27 51  1  0  0  0
 27 63  1  0  0  0
 28 29  1  0  0  0
 28 52  1  0  0  0
 28 53  1  0  0  0
 28 63  1  0  0  0
 29 54  1  0  0  0
 29 55  1  0  0  0
 30 31  1  0  0  0
 30 32  1  0  0  0
 30 56  1  0  0  0
 30 63  1  0  0  0
 31 57  1  0  0  0
 31 58  1  0  0  0
 31 59  1  0  0  0
 32 60  1  0  0  0
 32 61  1  0  0  0
 32 62  1  0  0  0
 33 34  3  0  0  0
 63 64  1  0  0  0
M  CHG  1  63   1
M  END
> <i_i_glide_confnum>
127

> <i_i_glide_lignum>
1168

> <i_i_glide_posenum>
291

> <i_i_glide_rotatable_bonds>
9

> <i_m_Source_File_Index>
4990

> <b_m_subgroup_collapsed>
0

> <r_i_docking_score>
-4.54631

> <r_i_glide_ecoul>
1.44131

> <r_i_glide_eff_state_penalty>
0

> <r_i_glide_einternal>
7.59973

> <r_i_glide_emodel>
-59.1675

> <r_i_glide_energy>
-46.9019

> <r_i_glide_erotb>
0.473086

> <r_i_glide_esite>
-0.000923672

> <r_i_glide_evdw>
-48.3432

> <r_i_glide_gscore>
-4.54631

> <r_i_glide_hbond>
-0.25239

> <r_i_glide_ligand_efficiency>
-0.129895

> <r_i_glide_ligand_efficiency_ln>
-0.998016

> <r_i_glide_ligand_efficiency_sa>
-0.424894

> <r_i_glide_lipo>
-2.1904

> <r_i_glide_metal>
0

> <r_i_glide_rewards>
-0.374713

> <s_i_glide_gridfile>
wee1_glide-grid

> <s_m_Source_File>
wee1_decoys_glide_SP.sdf

> <s_m_Source_Path>
/Users/zhangxujun/Desktop

> <s_m_entry_id>
5265

> <s_m_entry_name>
wee1_decoys_glide_SP.4990

> <s_m_subgroup_title>
wee1_decoys_glide_SP

> <s_m_subgroupid>
wee1_decoys_glide_SP


$$$$
