ZINC40941904_6158
                    3D
 Schrodinger Suite 2024-2.
 36 38  0  0  1  0            999 V2000
    6.7087   54.4982   26.5465 C   0  0  0  0  0  0
    6.6126   54.4220   25.1641 C   0  0  0  0  0  0
    5.3727   54.2345   24.5594 C   0  0  0  0  0  0
    4.1998   54.0965   25.3403 C   0  0  0  0  0  0
    4.3128   54.2037   26.7459 C   0  0  0  0  0  0
    5.5728   54.4063   27.3309 C   0  0  0  0  0  0
    3.1318   54.0770   27.5075 N   0  0  0  0  0  0
    2.9395   54.1495   28.8425 C   0  0  0  0  0  0
    3.8198   54.3278   29.6853 O   0  0  0  0  0  0
    1.4836   53.9898   29.3108 C   0  0  1  0  0  0
    0.8228   53.9130   28.4455 H   0  0  0  0  0  0
    1.2998   52.7664   30.2094 C   0  0  0  0  0  0
    0.3045   53.2287   31.2770 C   0  0  0  0  0  0
   -0.0059   54.5828   30.9512 O   0  0  0  0  0  0
    1.0615   55.1531   30.2067 C   0  0  0  0  0  0
    2.8720   53.7755   24.6416 C   0  0  0  0  0  0
    2.9001   54.1988   23.1684 C   0  0  0  0  0  0
    4.1584   53.6901   22.4521 C   0  0  0  0  0  0
    5.3611   54.1416   23.1523 N   0  0  0  0  0  0
    7.6659   54.6184   27.0281 H   0  0  0  0  0  0
    7.5050   54.5013   24.5608 H   0  0  0  0  0  0
    5.7237   54.4805   28.3947 H   0  0  0  0  0  0
    2.3091   53.8971   26.9557 H   0  0  0  0  0  0
    2.2193   52.4439   30.7031 H   0  0  0  0  0  0
    0.9081   51.9138   29.6499 H   0  0  0  0  0  0
    0.7337   53.1797   32.2794 H   0  0  0  0  0  0
   -0.6029   52.6260   31.2806 H   0  0  0  0  0  0
    0.7045   56.0117   29.6391 H   0  0  0  0  0  0
    1.8249   55.5467   30.8817 H   0  0  0  0  0  0
    2.7029   52.6994   24.7023 H   0  0  0  0  0  0
    2.0256   54.2536   25.1342 H   0  0  0  0  0  0
    2.8903   55.2863   23.1144 H   0  0  0  0  0  0
    2.0040   53.8578   22.6482 H   0  0  0  0  0  0
    4.1869   53.9892   21.4033 H   0  0  0  0  0  0
    4.1896   52.6001   22.4815 H   0  0  0  0  0  0
    6.2286   53.9725   22.6649 H   0  0  0  0  0  0
  1  6  2  0  0  0
  1  2  1  0  0  0
  1 20  1  0  0  0
  2  3  2  0  0  0
  2 21  1  0  0  0
  3 19  1  0  0  0
  3  4  1  0  0  0
  4  5  2  0  0  0
  4 16  1  0  0  0
  5  6  1  0  0  0
  5  7  1  0  0  0
  6 22  1  0  0  0
  7  8  1  0  0  0
  7 23  1  0  0  0
  8  9  2  0  0  0
  8 10  1  0  0  0
 10 11  1  0  0  0
 10 15  1  0  0  0
 10 12  1  0  0  0
 12 13  1  0  0  0
 12 24  1  0  0  0
 12 25  1  0  0  0
 13 14  1  0  0  0
 13 26  1  0  0  0
 13 27  1  0  0  0
 14 15  1  0  0  0
 15 28  1  0  0  0
 15 29  1  0  0  0
 16 17  1  0  0  0
 16 30  1  0  0  0
 16 31  1  0  0  0
 17 18  1  0  0  0
 17 32  1  0  0  0
 17 33  1  0  0  0
 18 19  1  0  0  0
 18 34  1  0  0  0
 18 35  1  0  0  0
 19 36  1  0  0  0
M  END
> <i_i_glide_confnum>
33

> <i_i_glide_lignum>
6159

> <i_i_glide_posenum>
335

> <i_i_glide_rotatable_bonds>
3

> <i_m_Source_File_Index>
4283

> <b_m_subgroup_collapsed>
0

> <r_i_docking_score>
-6.22066

> <r_i_glide_ecoul>
-2.14999

> <r_i_glide_eff_state_penalty>
0

> <r_i_glide_einternal>
1.43075

> <r_i_glide_emodel>
-51.8791

> <r_i_glide_energy>
-37.7679

> <r_i_glide_erotb>
0.861699

> <r_i_glide_esite>
0

> <r_i_glide_evdw>
-35.6179

> <r_i_glide_gscore>
-6.22066

> <r_i_glide_hbond>
-0.137454

> <r_i_glide_ligand_efficiency>
-0.345592

> <r_i_glide_ligand_efficiency_ln>
-1.59899

> <r_i_glide_ligand_efficiency_sa>
-0.905707

> <r_i_glide_lipo>
-2.78727

> <r_i_glide_metal>
0

> <r_i_glide_rewards>
-2.05424

> <s_i_glide_gridfile>
wee1_glide-grid

> <s_m_Source_File>
wee1_decoys_glide_SP.sdf

> <s_m_Source_Path>
/Users/zhangxujun/Desktop

> <s_m_entry_id>
4558

> <s_m_entry_name>
wee1_decoys_glide_SP.4283

> <s_m_subgroup_title>
wee1_decoys_glide_SP

> <s_m_subgroupid>
wee1_decoys_glide_SP


$$$$
