ZINC12520843_3331
                    3D
 Schrodinger Suite 2024-2.
 60 63  0  0  1  0            999 V2000
    1.9125   53.9176   16.7245 C   0  0  0  0  0  0
    3.4149   53.7557   17.0344 C   0  0  2  0  0  0
    3.6086   52.7209   17.3309 H   0  0  0  0  0  0
    3.8201   54.7013   18.1838 C   0  0  0  0  0  0
    5.3446   54.6542   18.5329 C   0  0  2  0  0  0
    6.2164   53.8283   17.5226 C   0  0  0  0  0  0
    5.8019   53.8506   16.0092 C   0  0  0  0  0  0
    4.2721   54.0760   15.7943 C   0  0  0  0  0  0
    6.1661   52.4850   15.3862 C   0  0  0  0  0  0
    6.5728   55.0065   15.3316 C   0  0  0  0  0  0
    5.5042   54.0990   19.9527 C   0  0  0  0  0  0
    5.1622   52.9733   20.3220 O   0  0  0  0  0  0
    6.1414   55.0661   20.6673 N   0  0  0  0  0  0
    6.3572   56.1984   19.9542 C   0  0  0  0  0  0
    6.7044   57.2975   20.3746 O   0  0  0  0  0  0
    5.9131   55.9545   18.7238 N   0  0  0  0  0  0
    6.7058   54.9502   22.0460 C   0  0  0  0  0  0
    5.7039   54.4967   23.1241 C   0  0  0  0  0  0
    4.5311   54.2444   22.8460 O   0  0  0  0  0  0
    6.2169   54.4382   24.3707 N   0  0  0  0  0  0
    5.5224   54.1972   25.5697 C   0  0  0  0  0  0
    6.2590   53.7007   26.6463 C   0  0  0  0  0  0
    5.6203   53.3940   27.8436 C   0  0  0  0  0  0
    4.2469   53.6006   27.9838 C   0  0  0  0  0  0
    3.5201   54.1589   26.9272 C   0  0  0  0  0  0
    4.1524   54.4525   25.7274 C   0  0  0  0  0  0
    3.5090   53.1691   29.5715 S   0  0  0  0  0  0
    3.7930   51.7419   29.7640 O   0  0  0  0  0  0
    4.1669   54.0969   30.4818 O   0  0  0  0  0  0
    1.9967   53.5332   29.4013 N   0  5  0  0  0  0
    1.0946   52.8605   28.6676 C   0  0  0  0  0  0
   -0.0975   53.3020   28.3694 N   0  0  0  0  0  0
   -0.7734   52.4748   27.5930 C   0  0  0  0  0  0
   -0.1407   51.2917   27.2570 C   0  0  0  0  0  0
    1.4260   51.2968   27.9898 S   0  0  0  0  0  0
    1.6708   54.9331   16.4067 H   0  0  0  0  0  0
    1.3042   53.6919   17.6010 H   0  0  0  0  0  0
    1.5997   53.2386   15.9312 H   0  0  0  0  0  0
    3.5591   55.7046   17.8359 H   0  0  0  0  0  0
    3.1652   54.4986   19.0337 H   0  0  0  0  0  0
    6.0575   52.7935   17.8421 H   0  0  0  0  0  0
    7.2945   53.9286   17.6731 H   0  0  0  0  0  0
    3.9152   53.5901   14.8843 H   0  0  0  0  0  0
    4.0670   55.1333   15.6064 H   0  0  0  0  0  0
    7.2006   52.2066   15.5930 H   0  0  0  0  0  0
    5.5261   51.6964   15.7777 H   0  0  0  0  0  0
    6.0407   52.4909   14.3024 H   0  0  0  0  0  0
    7.6521   54.8696   15.4125 H   0  0  0  0  0  0
    6.3355   55.0701   14.2686 H   0  0  0  0  0  0
    6.3307   55.9719   15.7778 H   0  0  0  0  0  0
    6.2142   56.4941   17.9256 H   0  0  0  0  0  0
    7.6001   54.3337   22.0821 H   0  0  0  0  0  0
    7.0467   55.9307   22.3826 H   0  0  0  0  0  0
    7.2205   54.4961   24.4506 H   0  0  0  0  0  0
    7.3175   53.5112   26.5547 H   0  0  0  0  0  0
    6.1902   52.9861   28.6641 H   0  0  0  0  0  0
    2.4671   54.3748   27.0139 H   0  0  0  0  0  0
    3.5591   54.8858   24.9374 H   0  0  0  0  0  0
   -1.7681   52.7435   27.2725 H   0  0  0  0  0  0
   -0.4962   50.4522   26.6758 H   0  0  0  0  0  0
  1  2  1  0  0  0
  1 36  1  0  0  0
  1 37  1  0  0  0
  1 38  1  0  0  0
  2  3  1  0  0  0
  2  8  1  0  0  0
  2  4  1  0  0  0
  4  5  1  0  0  0
  4 39  1  0  0  0
  4 40  1  0  0  0
  5 16  1  0  0  0
  5  6  1  0  0  0
  5 11  1  0  0  0
  6  7  1  0  0  0
  6 41  1  0  0  0
  6 42  1  0  0  0
  7  8  1  0  0  0
  7  9  1  0  0  0
  7 10  1  0  0  0
  8 43  1  0  0  0
  8 44  1  0  0  0
  9 45  1  0  0  0
  9 46  1  0  0  0
  9 47  1  0  0  0
 10 48  1  0  0  0
 10 49  1  0  0  0
 10 50  1  0  0  0
 11 12  2  0  0  0
 11 13  1  0  0  0
 13 14  1  0  0  0
 13 17  1  0  0  0
 14 15  2  0  0  0
 14 16  1  0  0  0
 16 51  1  0  0  0
 17 18  1  0  0  0
 17 52  1  0  0  0
 17 53  1  0  0  0
 18 19  2  0  0  0
 18 20  1  0  0  0
 20 21  1  0  0  0
 20 54  1  0  0  0
 21 26  2  0  0  0
 21 22  1  0  0  0
 22 23  2  0  0  0
 22 55  1  0  0  0
 23 24  1  0  0  0
 23 56  1  0  0  0
 24 25  2  0  0  0
 24 27  1  0  0  0
 25 26  1  0  0  0
 25 57  1  0  0  0
 26 58  1  0  0  0
 27 28  2  0  0  0
 27 29  2  0  0  0
 27 30  1  0  0  0
 30 31  1  0  0  0
 31 35  1  0  0  0
 31 32  2  0  0  0
 32 33  1  0  0  0
 33 34  2  0  0  0
 33 59  1  0  0  0
 34 35  1  0  0  0
 34 60  1  0  0  0
M  CHG  1  30  -1
M  END
> <i_i_glide_confnum>
208

> <i_i_glide_lignum>
3332

> <i_i_glide_posenum>
348

> <i_i_glide_rotatable_bonds>
7

> <i_m_Source_File_Index>
3776

> <b_m_subgroup_collapsed>
0

> <r_i_docking_score>
-4.04631

> <r_i_glide_ecoul>
-13.0889

> <r_i_glide_eff_state_penalty>
0

> <r_i_glide_einternal>
2.63383

> <r_i_glide_emodel>
-57.1678

> <r_i_glide_energy>
-52.8425

> <r_i_glide_erotb>
0.562137

> <r_i_glide_esite>
-0.0292759

> <r_i_glide_evdw>
-39.7536

> <r_i_glide_gscore>
-4.04631

> <r_i_glide_hbond>
-0.32

> <r_i_glide_ligand_efficiency>
-0.119009

> <r_i_glide_ligand_efficiency_ln>
-0.893943

> <r_i_glide_ligand_efficiency_sa>
-0.385543

> <r_i_glide_lipo>
-2.06409

> <r_i_glide_metal>
0

> <r_i_glide_rewards>
1.75594

> <s_i_glide_gridfile>
wee1_glide-grid

> <s_m_Source_File>
wee1_decoys_glide_SP.sdf

> <s_m_Source_Path>
/Users/zhangxujun/Desktop

> <s_m_entry_id>
4051

> <s_m_entry_name>
wee1_decoys_glide_SP.3776

> <s_m_subgroup_title>
wee1_decoys_glide_SP

> <s_m_subgroupid>
wee1_decoys_glide_SP


$$$$
