ZINC38700686_2478
                    3D
 Schrodinger Suite 2024-2.
 54 58  0  0  1  0            999 V2000
   -4.5102   52.0938   26.8517 C   0  0  0  0  0  0
   -2.9098   51.2951   27.1509 S   0  0  0  0  0  0
   -1.8765   51.5292   25.7309 C   0  0  0  0  0  0
   -0.6691   50.8362   25.6534 C   0  0  0  0  0  0
    0.1766   51.0322   24.5603 C   0  0  0  0  0  0
   -0.1762   51.9328   23.5482 C   0  0  0  0  0  0
   -1.4042   52.5980   23.6242 C   0  0  0  0  0  0
   -2.2481   52.4034   24.7086 C   0  0  0  0  0  0
    0.8028   52.2394   22.4029 C   0  0  1  0  0  0
    0.2880   52.8987   21.7082 H   0  0  0  0  0  0
    2.0528   52.9980   22.8845 C   0  0  0  0  0  0
    2.0303   53.8820   23.9697 C   0  0  0  0  0  0
    3.2050   54.4447   24.4592 C   0  0  0  0  0  0
    4.4475   54.0994   23.9179 C   0  0  0  0  0  0
    4.4747   53.3082   22.7655 C   0  0  0  0  0  0
    3.2931   52.7673   22.2595 C   0  0  0  0  0  0
    3.4175   51.9267   21.1729 O   0  0  0  0  0  0
    2.4387   51.0144   20.9564 C   0  0  0  0  0  0
    1.2173   51.0460   21.5333 C   0  0  0  0  0  0
    0.2574   50.0317   21.2355 C   0  0  0  0  0  0
   -0.5039   49.1974   20.9763 N   0  0  0  0  0  0
    2.9018   50.1114   20.0379 N   0  0  0  0  0  0
    5.6460   54.5788   24.4172 O   0  0  0  0  0  0
    6.0294   54.5671   25.7505 C   0  0  0  0  0  0
    7.0986   55.0671   26.1005 O   0  0  0  0  0  0
    5.1366   53.8311   26.7874 C   0  0  1  0  0  0
    4.6340   52.9996   26.2924 H   0  0  0  0  0  0
    5.9551   53.2739   27.9933 C   0  0  0  0  0  0
    5.1043   52.5303   28.8795 O   0  0  0  0  0  0
    3.8850   53.1237   29.1245 C   0  0  0  0  0  0
    3.0948   52.5807   30.1352 C   0  0  0  0  0  0
    1.8241   53.1088   30.3796 C   0  0  0  0  0  0
    1.3571   54.1907   29.6286 C   0  0  0  0  0  0
    2.1484   54.7375   28.6141 C   0  0  0  0  0  0
    3.3999   54.1833   28.3415 C   0  0  0  0  0  0
    4.1579   54.7365   27.3285 O   0  0  0  0  0  0
   -5.1843   51.8888   27.6816 H   0  0  0  0  0  0
   -4.9673   51.7093   25.9402 H   0  0  0  0  0  0
   -4.3944   53.1750   26.7660 H   0  0  0  0  0  0
   -0.3839   50.1536   26.4428 H   0  0  0  0  0  0
    1.1187   50.5026   24.5142 H   0  0  0  0  0  0
   -1.7070   53.2948   22.8627 H   0  0  0  0  0  0
   -3.1777   52.9458   24.7497 H   0  0  0  0  0  0
    1.0949   54.1239   24.4518 H   0  0  0  0  0  0
    3.1319   55.1427   25.2753 H   0  0  0  0  0  0
    5.4153   53.0757   22.2900 H   0  0  0  0  0  0
    2.3524   49.3000   19.7870 H   0  0  0  0  0  0
    3.6382   50.3746   19.3908 H   0  0  0  0  0  0
    6.7636   52.6232   27.6638 H   0  0  0  0  0  0
    6.4076   54.0973   28.5515 H   0  0  0  0  0  0
    3.4641   51.7529   30.7211 H   0  0  0  0  0  0
    1.2017   52.6857   31.1581 H   0  0  0  0  0  0
    0.3795   54.6035   29.8288 H   0  0  0  0  0  0
    1.7863   55.5732   28.0362 H   0  0  0  0  0  0
  1  2  1  0  0  0
  1 37  1  0  0  0
  1 38  1  0  0  0
  1 39  1  0  0  0
  2  3  1  0  0  0
  3  8  2  0  0  0
  3  4  1  0  0  0
  4  5  2  0  0  0
  4 40  1  0  0  0
  5  6  1  0  0  0
  5 41  1  0  0  0
  6  7  2  0  0  0
  6  9  1  0  0  0
  7  8  1  0  0  0
  7 42  1  0  0  0
  8 43  1  0  0  0
  9 10  1  0  0  0
  9 19  1  0  0  0
  9 11  1  0  0  0
 11 16  2  0  0  0
 11 12  1  0  0  0
 12 13  2  0  0  0
 12 44  1  0  0  0
 13 14  1  0  0  0
 13 45  1  0  0  0
 14 15  2  0  0  0
 14 23  1  0  0  0
 15 16  1  0  0  0
 15 46  1  0  0  0
 16 17  1  0  0  0
 17 18  1  0  0  0
 18 19  2  0  0  0
 18 22  1  0  0  0
 19 20  1  0  0  0
 20 21  3  0  0  0
 22 47  1  0  0  0
 22 48  1  0  0  0
 23 24  1  0  0  0
 24 25  2  0  0  0
 24 26  1  0  0  0
 26 27  1  0  0  0
 26 36  1  0  0  0
 26 28  1  0  0  0
 28 29  1  0  0  0
 28 49  1  0  0  0
 28 50  1  0  0  0
 29 30  1  0  0  0
 30 35  2  0  0  0
 30 31  1  0  0  0
 31 32  2  0  0  0
 31 51  1  0  0  0
 32 33  1  0  0  0
 32 52  1  0  0  0
 33 34  2  0  0  0
 33 53  1  0  0  0
 34 35  1  0  0  0
 34 54  1  0  0  0
 35 36  1  0  0  0
M  END
> <i_i_glide_confnum>
37

> <i_i_glide_lignum>
2479

> <i_i_glide_posenum>
166

> <i_i_glide_rotatable_bonds>
6

> <i_m_Source_File_Index>
823

> <b_m_subgroup_collapsed>
0

> <r_i_docking_score>
-3.73309

> <r_i_glide_ecoul>
-3.32927

> <r_i_glide_eff_state_penalty>
0

> <r_i_glide_einternal>
8.96035

> <r_i_glide_emodel>
-46.7882

> <r_i_glide_energy>
-49.5308

> <r_i_glide_erotb>
0.362265

> <r_i_glide_esite>
-0.0545161

> <r_i_glide_evdw>
-46.2015

> <r_i_glide_gscore>
-3.73309

> <r_i_glide_hbond>
-0.425651

> <r_i_glide_ligand_efficiency>
-0.109797

> <r_i_glide_ligand_efficiency_ln>
-0.824744

> <r_i_glide_ligand_efficiency_sa>
-0.355699

> <r_i_glide_lipo>
-3.05004

> <r_i_glide_metal>
0

> <r_i_glide_rewards>
2.24433

> <s_i_glide_gridfile>
wee1_glide-grid

> <s_m_Source_File>
wee1_decoys_glide_SP.sdf

> <s_m_Source_Path>
/Users/zhangxujun/Desktop

> <s_m_entry_id>
1098

> <s_m_entry_name>
wee1_decoys_glide_SP.823

> <s_m_subgroup_title>
wee1_decoys_glide_SP

> <s_m_subgroupid>
wee1_decoys_glide_SP


$$$$
