ZINC39657161_636
                    3D
 Schrodinger Suite 2024-2.
 66 69  0  0  1  0            999 V2000
    5.2962   54.1052   24.2505 C   0  0  0  0  0  0
    5.7805   55.1620   25.2585 C   0  0  0  0  0  0
    6.1109   54.6004   26.5229 O   0  0  0  0  0  0
    5.1333   54.0471   27.3303 C   0  0  0  0  0  0
    5.5931   53.2966   28.4094 C   0  0  0  0  0  0
    4.7056   52.6560   29.2772 C   0  0  0  0  0  0
    3.3418   52.7894   29.0951 C   0  0  0  0  0  0
    2.8577   53.5737   28.0492 C   0  0  0  0  0  0
    3.7444   54.1996   27.1617 C   0  0  0  0  0  0
    1.3815   53.7874   27.9813 C   0  0  0  0  0  0
    0.9124   54.7996   28.5000 O   0  0  0  0  0  0
    0.6280   52.7747   27.4959 N   0  0  0  0  0  0
   -0.7829   52.6702   27.8173 C   0  0  0  0  0  0
   -1.1723   51.2966   27.2802 C   0  0  2  0  0  0
   -0.9663   50.5481   28.0493 H   0  0  0  0  0  0
   -0.2368   51.0673   26.0706 C   0  0  0  0  0  0
    1.0789   51.6774   26.6383 C   0  0  0  0  0  0
   -0.2231   49.5645   25.6808 C   0  0  0  0  0  0
    0.7042   49.2204   24.5064 C   0  0  0  0  0  0
    0.4112   50.1369   23.2960 N   0  3  0  0  0  0
    0.3263   51.6421   23.6223 C   0  0  0  0  0  0
   -0.6778   51.8260   24.7773 C   0  0  0  0  0  0
   -2.6823   51.2516   26.9687 C   0  0  0  0  0  0
   -3.2759   52.2323   26.5132 O   0  0  0  0  0  0
   -3.2958   50.0985   27.2811 N   0  0  0  0  0  0
   -4.7075   49.7906   27.0534 C   0  0  2  0  0  0
   -5.2809   50.5501   27.5890 H   0  0  0  0  0  0
   -5.0617   48.4386   27.6955 C   0  0  0  0  0  0
   -5.1016   49.8357   25.5726 C   0  0  0  0  0  0
   -4.3905   49.0778   24.6323 C   0  0  0  0  0  0
   -4.7215   49.1513   23.2817 C   0  0  0  0  0  0
   -5.7580   49.9858   22.8682 C   0  0  0  0  0  0
   -6.4709   50.7440   23.7969 C   0  0  0  0  0  0
   -6.1453   50.6670   25.1490 C   0  0  0  0  0  0
   -6.1977   50.0976   21.0181 Br  0  0  0  0  0  0
    5.1357   54.5461   23.2664 H   0  0  0  0  0  0
    6.0296   53.3050   24.1374 H   0  0  0  0  0  0
    4.3567   53.6465   24.5581 H   0  0  0  0  0  0
    5.0614   55.9729   25.3711 H   0  0  0  0  0  0
    6.6847   55.6328   24.8696 H   0  0  0  0  0  0
    6.6583   53.1945   28.5566 H   0  0  0  0  0  0
    5.0905   52.0637   30.0925 H   0  0  0  0  0  0
    2.6675   52.3077   29.7903 H   0  0  0  0  0  0
    3.3567   54.8146   26.3652 H   0  0  0  0  0  0
   -1.2952   53.4700   27.2818 H   0  0  0  0  0  0
   -0.9492   52.7279   28.8943 H   0  0  0  0  0  0
    1.5434   50.9296   27.2823 H   0  0  0  0  0  0
    1.8051   51.9589   25.8810 H   0  0  0  0  0  0
    0.0865   48.9640   26.5377 H   0  0  0  0  0  0
   -1.2325   49.2169   25.4624 H   0  0  0  0  0  0
    1.7618   49.2988   24.7498 H   0  0  0  0  0  0
    0.5401   48.1997   24.1580 H   0  0  0  0  0  0
    1.1063   49.9812   22.5786 H   0  0  0  0  0  0
    1.3396   51.9777   23.8429 H   0  0  0  0  0  0
   -0.0093   52.1302   22.7057 H   0  0  0  0  0  0
   -1.6750   51.5214   24.4525 H   0  0  0  0  0  0
   -0.7673   52.8928   24.9846 H   0  0  0  0  0  0
   -2.7401   49.3861   27.7591 H   0  0  0  0  0  0
   -6.1280   48.2257   27.6048 H   0  0  0  0  0  0
   -4.5167   47.6178   27.2285 H   0  0  0  0  0  0
   -4.8122   48.4310   28.7572 H   0  0  0  0  0  0
   -3.5790   48.4398   24.9521 H   0  0  0  0  0  0
   -4.1738   48.5682   22.5549 H   0  0  0  0  0  0
   -7.2704   51.3922   23.4654 H   0  0  0  0  0  0
   -6.6954   51.2664   25.8604 H   0  0  0  0  0  0
   -0.4744   49.8561   22.8984 H   0  0  0  0  0  0
  1  2  1  0  0  0
  1 36  1  0  0  0
  1 37  1  0  0  0
  1 38  1  0  0  0
  2  3  1  0  0  0
  2 39  1  0  0  0
  2 40  1  0  0  0
  3  4  1  0  0  0
  4  9  2  0  0  0
  4  5  1  0  0  0
  5  6  2  0  0  0
  5 41  1  0  0  0
  6  7  1  0  0  0
  6 42  1  0  0  0
  7  8  2  0  0  0
  7 43  1  0  0  0
  8  9  1  0  0  0
  8 10  1  0  0  0
  9 44  1  0  0  0
 10 11  2  0  0  0
 10 12  1  0  0  0
 12 17  1  0  0  0
 12 13  1  0  0  0
 13 14  1  0  0  0
 13 45  1  0  0  0
 13 46  1  0  0  0
 14 15  1  0  0  0
 14 16  1  0  0  0
 14 23  1  0  0  0
 16 22  1  0  0  0
 16 17  1  0  0  0
 16 18  1  0  0  0
 17 47  1  0  0  0
 17 48  1  0  0  0
 18 19  1  0  0  0
 18 49  1  0  0  0
 18 50  1  0  0  0
 19 20  1  0  0  0
 19 51  1  0  0  0
 19 52  1  0  0  0
 20 21  1  0  0  0
 20 53  1  0  0  0
 20 66  1  0  0  0
 21 22  1  0  0  0
 21 54  1  0  0  0
 21 55  1  0  0  0
 22 56  1  0  0  0
 22 57  1  0  0  0
 23 24  2  0  0  0
 23 25  1  0  0  0
 25 26  1  0  0  0
 25 58  1  0  0  0
 26 27  1  0  0  0
 26 28  1  0  0  0
 26 29  1  0  0  0
 28 59  1  0  0  0
 28 60  1  0  0  0
 28 61  1  0  0  0
 29 34  2  0  0  0
 29 30  1  0  0  0
 30 31  2  0  0  0
 30 62  1  0  0  0
 31 32  1  0  0  0
 31 63  1  0  0  0
 32 33  2  0  0  0
 32 35  1  0  0  0
 33 34  1  0  0  0
 33 64  1  0  0  0
 34 65  1  0  0  0
M  CHG  1  20   1
M  END
> <i_i_glide_confnum>
131

> <i_i_glide_lignum>
637

> <i_i_glide_posenum>
393

> <i_i_glide_rotatable_bonds>
8

> <i_m_Source_File_Index>
489

> <b_m_subgroup_collapsed>
0

> <r_i_docking_score>
-4.86803

> <r_i_glide_ecoul>
-6.12473

> <r_i_glide_eff_state_penalty>
0

> <r_i_glide_einternal>
8.47974

> <r_i_glide_emodel>
-51.7902

> <r_i_glide_energy>
-39.8295

> <r_i_glide_erotb>
0.46336

> <r_i_glide_esite>
-0.159571

> <r_i_glide_evdw>
-33.7047

> <r_i_glide_gscore>
-4.86803

> <r_i_glide_hbond>
-0.16

> <r_i_glide_ligand_efficiency>
-0.147516

> <r_i_glide_ligand_efficiency_ln>
-1.08262

> <r_i_glide_ligand_efficiency_sa>
-0.473163

> <r_i_glide_lipo>
-2.0237

> <r_i_glide_metal>
0

> <r_i_glide_rewards>
-0.384169

> <s_i_glide_gridfile>
wee1_glide-grid

> <s_m_Source_File>
wee1_decoys_glide_SP.sdf

> <s_m_Source_Path>
/Users/zhangxujun/Desktop

> <s_m_entry_id>
764

> <s_m_entry_name>
wee1_decoys_glide_SP.489

> <s_m_subgroup_title>
wee1_decoys_glide_SP

> <s_m_subgroupid>
wee1_decoys_glide_SP


$$$$
