ZINC16979762_2676
                    3D
 Schrodinger Suite 2024-2.
 50 52  0  0  1  0            999 V2000
    1.1655   51.3832   24.7014 C   0  0  0  0  0  0
    1.8910   52.6988   25.1057 C   0  0  2  0  0  0
    2.9580   52.4949   25.0850 H   0  0  0  0  0  0
    1.5050   53.1215   26.5586 C   0  0  0  0  0  0
    0.3374   52.8956   26.8733 O   0  0  0  0  0  0
    2.3967   53.7008   27.4380 N   0  0  0  0  0  0
    3.7568   53.8484   27.0596 C   0  0  0  0  0  0
    4.1758   54.7026   26.0285 C   0  0  0  0  0  0
    5.5333   54.8955   25.7760 C   0  0  0  0  0  0
    6.4821   54.2940   26.5970 C   0  0  0  0  0  0
    6.0853   53.5136   27.6812 C   0  0  0  0  0  0
    4.7254   53.3191   27.9277 C   0  0  0  0  0  0
    4.3053   52.6500   29.0764 N   0  0  0  0  0  0
    3.1313   52.8430   29.7123 C   0  0  0  0  0  0
    3.0133   52.4703   30.8804 O   0  0  0  0  0  0
    2.1256   53.8013   28.9380 C   0  0  0  0  0  0
    0.7064   53.4669   29.5038 C   0  0  0  0  0  0
    2.5040   55.2371   29.4172 C   0  0  0  0  0  0
    1.6109   54.0289   23.8795 S   0  0  0  0  0  0
    2.4723   53.3533   22.4934 C   0  0  0  0  0  0
    2.0875   52.3006   21.8119 N   0  0  0  0  0  0
    2.8987   52.0195   20.7209 N   0  0  0  0  0  0
    3.8515   52.9017   20.5655 C   0  0  0  0  0  0
    3.9036   54.0960   21.8361 S   0  0  0  0  0  0
    4.7132   52.8965   19.4969 N   0  0  0  0  0  0
    5.4876   54.0006   18.9471 C   0  0  0  0  0  0
    6.3967   53.5074   17.8060 C   0  0  0  0  0  0
    4.5795   55.1350   18.4370 C   0  0  0  0  0  0
    1.1003   50.6727   25.5278 H   0  0  0  0  0  0
    0.1451   51.5758   24.3658 H   0  0  0  0  0  0
    1.6904   50.8584   23.9032 H   0  0  0  0  0  0
    3.4601   55.2301   25.4198 H   0  0  0  0  0  0
    5.8446   55.5308   24.9593 H   0  0  0  0  0  0
    7.5276   54.4653   26.4116 H   0  0  0  0  0  0
    6.8301   53.0827   28.3355 H   0  0  0  0  0  0
    4.9914   52.1688   29.6370 H   0  0  0  0  0  0
    0.6383   53.6328   30.5799 H   0  0  0  0  0  0
   -0.0593   54.0998   29.0541 H   0  0  0  0  0  0
    0.4237   52.4275   29.3369 H   0  0  0  0  0  0
    2.3193   55.3817   30.4829 H   0  0  0  0  0  0
    3.5457   55.5034   29.2316 H   0  0  0  0  0  0
    1.8986   55.9810   28.8990 H   0  0  0  0  0  0
    4.7180   52.0788   18.8854 H   0  0  0  0  0  0
    6.1244   54.3886   19.7440 H   0  0  0  0  0  0
    7.0304   54.3120   17.4315 H   0  0  0  0  0  0
    7.0552   52.6937   18.1112 H   0  0  0  0  0  0
    5.8098   53.1327   16.9659 H   0  0  0  0  0  0
    5.1646   55.9795   18.0703 H   0  0  0  0  0  0
    3.9385   54.7946   17.6225 H   0  0  0  0  0  0
    3.9232   55.5103   19.2205 H   0  0  0  0  0  0
  1  2  1  0  0  0
  1 29  1  0  0  0
  1 30  1  0  0  0
  1 31  1  0  0  0
  2  3  1  0  0  0
  2  4  1  0  0  0
  2 19  1  0  0  0
  4  5  2  0  0  0
  4  6  1  0  0  0
  6 16  1  0  0  0
  6  7  1  0  0  0
  7 12  2  0  0  0
  7  8  1  0  0  0
  8  9  2  0  0  0
  8 32  1  0  0  0
  9 10  1  0  0  0
  9 33  1  0  0  0
 10 11  2  0  0  0
 10 34  1  0  0  0
 11 12  1  0  0  0
 11 35  1  0  0  0
 12 13  1  0  0  0
 13 14  1  0  0  0
 13 36  1  0  0  0
 14 15  2  0  0  0
 14 16  1  0  0  0
 16 17  1  0  0  0
 16 18  1  0  0  0
 17 37  1  0  0  0
 17 38  1  0  0  0
 17 39  1  0  0  0
 18 40  1  0  0  0
 18 41  1  0  0  0
 18 42  1  0  0  0
 19 20  1  0  0  0
 20 24  1  0  0  0
 20 21  2  0  0  0
 21 22  1  0  0  0
 22 23  2  0  0  0
 23 24  1  0  0  0
 23 25  1  0  0  0
 25 26  1  0  0  0
 25 43  1  0  0  0
 26 27  1  0  0  0
 26 28  1  0  0  0
 26 44  1  0  0  0
 27 45  1  0  0  0
 27 46  1  0  0  0
 27 47  1  0  0  0
 28 48  1  0  0  0
 28 49  1  0  0  0
 28 50  1  0  0  0
M  END
> <i_i_glide_confnum>
42

> <i_i_glide_lignum>
2677

> <i_i_glide_posenum>
228

> <i_i_glide_rotatable_bonds>
6

> <i_m_Source_File_Index>
5795

> <b_m_subgroup_collapsed>
0

> <r_i_docking_score>
-6.82958

> <r_i_glide_ecoul>
-2.21406

> <r_i_glide_eff_state_penalty>
0

> <r_i_glide_einternal>
8.44626

> <r_i_glide_emodel>
-60.3864

> <r_i_glide_energy>
-46.9373

> <r_i_glide_erotb>
0.597514

> <r_i_glide_esite>
-0.0790494

> <r_i_glide_evdw>
-44.7232

> <r_i_glide_gscore>
-6.82958

> <r_i_glide_hbond>
-0.367009

> <r_i_glide_ligand_efficiency>
-0.252947

> <r_i_glide_ligand_efficiency_ln>
-1.58981

> <r_i_glide_ligand_efficiency_sa>
-0.758842

> <r_i_glide_lipo>
-2.92973

> <r_i_glide_metal>
0

> <r_i_glide_rewards>
-1.48303

> <s_i_glide_gridfile>
wee1_glide-grid

> <s_m_Source_File>
wee1_decoys_glide_SP.sdf

> <s_m_Source_Path>
/Users/zhangxujun/Desktop

> <s_m_entry_id>
6070

> <s_m_entry_name>
wee1_decoys_glide_SP.5795

> <s_m_subgroup_title>
wee1_decoys_glide_SP

> <s_m_subgroupid>
wee1_decoys_glide_SP


$$$$
