ZINC20021216_3763
                    3D
 Schrodinger Suite 2024-2.
 39 41  0  0  1  0            999 V2000
    0.2371   53.3163   30.5391 C   0  0  0  0  0  0
    0.3053   52.6217   29.1745 C   0  0  0  0  0  0
   -0.6866   51.6967   28.8021 C   0  0  0  0  0  0
   -0.6654   51.1078   27.5400 C   0  0  0  0  0  0
    0.3753   51.3661   26.6613 C   0  0  0  0  0  0
    1.3941   52.2302   27.0406 C   0  0  0  0  0  0
    1.3629   52.8834   28.2758 C   0  0  0  0  0  0
    2.6903   54.0176   28.7149 S   0  0  0  0  0  0
    3.0816   53.6469   30.0817 O   0  0  0  0  0  0
    2.2157   55.3749   28.4268 O   0  0  0  0  0  0
    4.1279   53.7140   27.6813 N   0  0  0  0  0  0
    4.3041   54.0566   26.3276 C   0  0  0  0  0  0
    3.3538   54.3473   25.3456 C   0  0  0  0  0  0
    3.7470   54.4967   24.0153 C   0  0  0  0  0  0
    5.0976   54.4246   23.6708 C   0  0  0  0  0  0
    6.0563   54.1814   24.6525 C   0  0  0  0  0  0
    5.6498   53.9862   25.9729 C   0  0  0  0  0  0
    6.4452   53.5207   27.1514 C   0  0  0  0  0  0
    5.4416   53.5801   28.3058 C   0  0  1  0  0  0
    5.4680   52.6591   28.8903 H   0  0  0  0  0  0
    5.7837   54.7539   29.2142 C   0  0  0  0  0  0
   -1.6901   51.2967   29.6812 N   0  0  0  0  0  0
   -0.7517   53.2784   30.9894 H   0  0  0  0  0  0
    0.9369   52.8580   31.2380 H   0  0  0  0  0  0
    0.4807   54.3751   30.4502 H   0  0  0  0  0  0
   -1.4324   50.4008   27.2572 H   0  0  0  0  0  0
    0.4089   50.8690   25.7028 H   0  0  0  0  0  0
    2.2148   52.3567   26.3597 H   0  0  0  0  0  0
    2.3048   54.4231   25.5867 H   0  0  0  0  0  0
    3.0075   54.6918   23.2520 H   0  0  0  0  0  0
    5.3991   54.5500   22.6410 H   0  0  0  0  0  0
    7.0960   54.0956   24.3708 H   0  0  0  0  0  0
    6.7783   52.4967   27.0331 H   0  0  0  0  0  0
    7.3387   54.1225   27.3261 H   0  0  0  0  0  0
    6.7270   54.4967   29.6817 H   0  0  0  0  0  0
    5.9044   55.6770   28.6477 H   0  0  0  0  0  0
    5.0807   54.9376   30.0209 H   0  0  0  0  0  0
   -1.5038   51.4539   30.6651 H   0  0  0  0  0  0
   -2.0957   50.3894   29.4655 H   0  0  0  0  0  0
  1  2  1  0  0  0
  1 23  1  0  0  0
  1 24  1  0  0  0
  1 25  1  0  0  0
  2  7  2  0  0  0
  2  3  1  0  0  0
  3  4  2  0  0  0
  3 22  1  0  0  0
  4  5  1  0  0  0
  4 26  1  0  0  0
  5  6  2  0  0  0
  5 27  1  0  0  0
  6  7  1  0  0  0
  6 28  1  0  0  0
  7  8  1  0  0  0
  8  9  2  0  0  0
  8 10  2  0  0  0
  8 11  1  0  0  0
 11 19  1  0  0  0
 11 12  1  0  0  0
 12 17  2  0  0  0
 12 13  1  0  0  0
 13 14  2  0  0  0
 13 29  1  0  0  0
 14 15  1  0  0  0
 14 30  1  0  0  0
 15 16  2  0  0  0
 15 31  1  0  0  0
 16 17  1  0  0  0
 16 32  1  0  0  0
 17 18  1  0  0  0
 18 19  1  0  0  0
 18 33  1  0  0  0
 18 34  1  0  0  0
 19 20  1  0  0  0
 19 21  1  0  0  0
 21 35  1  0  0  0
 21 36  1  0  0  0
 21 37  1  0  0  0
 22 38  1  0  0  0
 22 39  1  0  0  0
M  END
> <i_i_glide_confnum>
9

> <i_i_glide_lignum>
3764

> <i_i_glide_posenum>
350

> <i_i_glide_rotatable_bonds>
2

> <i_m_Source_File_Index>
5874

> <b_m_subgroup_collapsed>
0

> <r_i_docking_score>
-5.00766

> <r_i_glide_ecoul>
-6.87875

> <r_i_glide_eff_state_penalty>
0

> <r_i_glide_einternal>
3.47732

> <r_i_glide_emodel>
-35.1526

> <r_i_glide_energy>
-30.7834

> <r_i_glide_erotb>
0.402694

> <r_i_glide_esite>
-0.133333

> <r_i_glide_evdw>
-23.9046

> <r_i_glide_gscore>
-5.00766

> <r_i_glide_hbond>
-0.0724478

> <r_i_glide_ligand_efficiency>
-0.23846

> <r_i_glide_ligand_efficiency_ln>
-1.23813

> <r_i_glide_ligand_efficiency_sa>
-0.657893

> <r_i_glide_lipo>
-2.36301

> <r_i_glide_metal>
0

> <r_i_glide_rewards>
-0.61452

> <s_i_glide_gridfile>
wee1_glide-grid

> <s_m_Source_File>
wee1_decoys_glide_SP.sdf

> <s_m_Source_Path>
/Users/zhangxujun/Desktop

> <s_m_entry_id>
6149

> <s_m_entry_name>
wee1_decoys_glide_SP.5874

> <s_m_subgroup_title>
wee1_decoys_glide_SP

> <s_m_subgroupid>
wee1_decoys_glide_SP


$$$$
