ZINC20503075_4657
                    3D
 Schrodinger Suite 2024-2.
 57 61  0  0  1  0            999 V2000
    6.2809   54.5391   26.0742 C   0  0  0  0  0  0
    6.6169   53.7596   27.1773 C   0  0  0  0  0  0
    5.6227   53.3220   28.0464 C   0  0  0  0  0  0
    4.2822   53.6597   27.8169 C   0  0  0  0  0  0
    3.9602   54.4663   26.7175 C   0  0  0  0  0  0
    4.9578   54.8962   25.8445 C   0  0  0  0  0  0
    3.2701   53.1686   28.6894 N   0  0  0  0  0  0
    1.9517   52.8040   28.4518 C   0  0  0  0  0  0
    1.3992   52.3824   29.5647 N   0  0  0  0  0  0
    2.3711   52.4951   30.5474 N   0  0  0  0  0  0
    3.5336   52.9835   29.9961 N   0  0  0  0  0  0
    1.1061   52.8577   26.9005 S   0  0  0  0  0  0
    0.2157   51.2535   26.9168 C   0  0  0  0  0  0
    0.2244   50.5006   25.5826 C   0  0  0  0  0  0
   -0.4091   49.2627   25.4787 C   0  0  0  0  0  0
   -0.3323   48.6129   24.2510 C   0  0  0  0  0  0
   -0.8939   47.4911   24.0737 O   0  5  0  0  0  0
    0.3347   49.1216   23.1836 N   0  0  0  0  0  0
    0.9398   50.3314   23.3782 C   0  0  0  0  0  0
    0.8831   51.0492   24.5258 N   0  0  0  0  0  0
    1.7481   50.9545   22.4118 N   0  0  0  0  0  0
    2.0877   50.5389   21.2561 C   0  0  0  0  0  0
    1.6607   49.3426   20.6462 N   0  0  0  0  0  0
    2.9798   51.2393   20.3938 N   0  0  0  0  0  0
    3.7728   52.3878   20.5740 C   0  0  0  0  0  0
    4.4251   52.8965   19.4480 C   0  0  0  0  0  0
    5.2859   53.9807   19.5531 C   0  0  0  0  0  0
    5.5055   54.5867   20.7968 C   0  0  0  0  0  0
    4.8413   54.0967   21.9185 C   0  0  0  0  0  0
    3.9803   53.0112   21.8094 C   0  0  0  0  0  0
    6.3803   55.6366   20.9952 O   0  0  0  0  0  0
    7.0071   56.2363   19.9303 C   0  0  0  0  0  0
    8.3560   55.9672   19.6908 C   0  0  0  0  0  0
    9.0065   56.5908   18.6301 C   0  0  0  0  0  0
    8.3053   57.4805   17.8176 C   0  0  0  0  0  0
    6.9559   57.7465   18.0486 C   0  0  0  0  0  0
    6.3051   57.1128   19.1036 C   0  0  0  0  0  0
    7.0502   54.8669   25.3898 H   0  0  0  0  0  0
    7.6426   53.4761   27.3518 H   0  0  0  0  0  0
    5.8984   52.7013   28.8818 H   0  0  0  0  0  0
    2.9442   54.7702   26.5284 H   0  0  0  0  0  0
    4.7040   55.5102   24.9956 H   0  0  0  0  0  0
   -0.8237   51.4403   27.1915 H   0  0  0  0  0  0
    0.6355   50.5914   27.6773 H   0  0  0  0  0  0
   -0.9240   48.8192   26.3172 H   0  0  0  0  0  0
    1.1449   48.6836   21.2150 H   0  0  0  0  0  0
    3.1035   50.8197   19.4846 H   0  0  0  0  0  0
    4.2991   52.4264   18.4837 H   0  0  0  0  0  0
    5.7975   54.3259   18.6683 H   0  0  0  0  0  0
    5.0146   54.5497   22.8823 H   0  0  0  0  0  0
    3.5042   52.6521   22.7071 H   0  0  0  0  0  0
    8.8958   55.2865   20.3331 H   0  0  0  0  0  0
   10.0514   56.3898   18.4512 H   0  0  0  0  0  0
    8.8105   57.9676   16.9987 H   0  0  0  0  0  0
    6.4169   58.4352   17.4142 H   0  0  0  0  0  0
    5.2557   57.2971   19.2835 H   0  0  0  0  0  0
    2.2390   48.9014   19.9454 H   0  0  0  0  0  0
  1  6  2  0  0  0
  1  2  1  0  0  0
  1 38  1  0  0  0
  2  3  2  0  0  0
  2 39  1  0  0  0
  3  4  1  0  0  0
  3 40  1  0  0  0
  4  5  2  0  0  0
  4  7  1  0  0  0
  5  6  1  0  0  0
  5 41  1  0  0  0
  6 42  1  0  0  0
  7 11  1  0  0  0
  7  8  1  0  0  0
  8  9  2  0  0  0
  8 12  1  0  0  0
  9 10  1  0  0  0
 10 11  2  0  0  0
 12 13  1  0  0  0
 13 14  1  0  0  0
 13 43  1  0  0  0
 13 44  1  0  0  0
 14 20  2  0  0  0
 14 15  1  0  0  0
 15 16  2  0  0  0
 15 45  1  0  0  0
 16 17  1  0  0  0
 16 18  1  0  0  0
 18 19  2  0  0  0
 19 20  1  0  0  0
 19 21  1  0  0  0
 21 22  2  0  0  0
 22 23  1  0  0  0
 22 24  1  0  0  0
 23 46  1  0  0  0
 23 57  1  0  0  0
 24 25  1  0  0  0
 24 47  1  0  0  0
 25 30  2  0  0  0
 25 26  1  0  0  0
 26 27  2  0  0  0
 26 48  1  0  0  0
 27 28  1  0  0  0
 27 49  1  0  0  0
 28 29  2  0  0  0
 28 31  1  0  0  0
 29 30  1  0  0  0
 29 50  1  0  0  0
 30 51  1  0  0  0
 31 32  1  0  0  0
 32 37  2  0  0  0
 32 33  1  0  0  0
 33 34  2  0  0  0
 33 52  1  0  0  0
 34 35  1  0  0  0
 34 53  1  0  0  0
 35 36  2  0  0  0
 35 54  1  0  0  0
 36 37  1  0  0  0
 36 55  1  0  0  0
 37 56  1  0  0  0
M  CHG  1  17  -1
M  END
> <i_i_glide_confnum>
74

> <i_i_glide_lignum>
4658

> <i_i_glide_posenum>
236

> <i_i_glide_rotatable_bonds>
9

> <i_m_Source_File_Index>
1029

> <b_m_subgroup_collapsed>
0

> <r_i_docking_score>
-6.24974

> <r_i_glide_ecoul>
-5.55967

> <r_i_glide_eff_state_penalty>
0

> <r_i_glide_einternal>
11.2782

> <r_i_glide_emodel>
-79.7224

> <r_i_glide_energy>
-61.4937

> <r_i_glide_erotb>
0.70737

> <r_i_glide_esite>
-0.058894

> <r_i_glide_evdw>
-55.934

> <r_i_glide_gscore>
-6.24974

> <r_i_glide_hbond>
0

> <r_i_glide_ligand_efficiency>
-0.168912

> <r_i_glide_ligand_efficiency_ln>
-1.35542

> <r_i_glide_ligand_efficiency_sa>
-0.562852

> <r_i_glide_lipo>
-2.58482

> <r_i_glide_metal>
0

> <r_i_glide_rewards>
-0.682744

> <s_i_glide_gridfile>
wee1_glide-grid

> <s_m_Source_File>
wee1_decoys_glide_SP.sdf

> <s_m_Source_Path>
/Users/zhangxujun/Desktop

> <s_m_entry_id>
1304

> <s_m_entry_name>
wee1_decoys_glide_SP.1029

> <s_m_subgroup_title>
wee1_decoys_glide_SP

> <s_m_subgroupid>
wee1_decoys_glide_SP


$$$$
