ZINC23009431_4576
                    3D
 Schrodinger Suite 2024-2.
 51 54  0  0  1  0            999 V2000
    6.7045   55.2719   25.2586 C   0  0  0  0  0  0
    5.7351   54.7501   24.2209 C   0  0  0  0  0  0
    5.9321   54.7823   22.7972 C   0  0  0  0  0  0
    6.9102   55.2968   21.9266 C   0  0  0  0  0  0
    6.7059   55.1945   20.5458 C   0  0  0  0  0  0
    5.5915   54.5310   20.0253 C   0  0  0  0  0  0
    4.6201   53.9835   20.8628 C   0  0  0  0  0  0
    4.7986   54.1523   22.2396 C   0  0  0  0  0  0
    3.9189   53.7890   23.2118 O   0  0  0  0  0  0
    4.4624   54.1857   24.4044 C   0  0  0  0  0  0
    3.6943   53.9628   25.6139 C   0  0  0  0  0  0
    4.1870   54.1748   26.7218 O   0  0  0  0  0  0
    2.4459   53.4902   25.3905 N   0  0  0  0  0  0
    1.5396   52.8967   26.2965 C   0  0  0  0  0  0
    1.5690   53.1887   27.6726 C   0  0  0  0  0  0
    0.7017   52.5666   28.5812 C   0  0  0  0  0  0
   -0.2165   51.6331   28.0824 C   0  0  0  0  0  0
   -0.2653   51.3428   26.7220 C   0  0  0  0  0  0
    0.6071   51.9478   25.8118 C   0  0  0  0  0  0
    0.3991   51.6476   24.4654 N   0  0  0  0  0  0
    1.5012   51.2579   23.5623 C   0  0  0  0  0  0
    1.0027   50.5275   22.2999 C   0  0  0  0  0  0
   -0.0219   51.3684   21.5285 C   0  0  0  0  0  0
   -1.1329   51.8197   22.4836 C   0  0  0  0  0  0
   -0.5672   52.4969   23.7502 C   0  0  0  0  0  0
    0.7838   52.9133   30.0544 C   0  0  0  0  0  0
    1.6298   53.6955   30.4817 O   0  0  0  0  0  0
   -0.0956   52.3459   30.8807 N   0  0  0  0  0  0
    3.5466   53.3327   20.3593 F   0  0  0  0  0  0
    7.2968   56.0977   24.8698 H   0  0  0  0  0  0
    6.2137   55.6342   26.1618 H   0  0  0  0  0  0
    7.4074   54.4960   25.5616 H   0  0  0  0  0  0
    7.7931   55.7825   22.3186 H   0  0  0  0  0  0
    7.4420   55.5993   19.8646 H   0  0  0  0  0  0
    5.4775   54.4344   18.9544 H   0  0  0  0  0  0
    2.2161   53.3329   24.4199 H   0  0  0  0  0  0
    2.2619   53.9236   28.0530 H   0  0  0  0  0  0
   -0.9069   51.1095   28.7293 H   0  0  0  0  0  0
   -0.9936   50.6228   26.3746 H   0  0  0  0  0  0
    2.1890   50.5922   24.0817 H   0  0  0  0  0  0
    2.0689   52.1356   23.2597 H   0  0  0  0  0  0
    0.5938   49.5538   22.5741 H   0  0  0  0  0  0
    1.8528   50.3106   21.6515 H   0  0  0  0  0  0
    0.4701   52.2414   21.0944 H   0  0  0  0  0  0
   -0.4372   50.7978   20.6967 H   0  0  0  0  0  0
   -1.7939   52.5147   21.9668 H   0  0  0  0  0  0
   -1.7691   50.9810   22.7707 H   0  0  0  0  0  0
   -1.4046   52.7212   24.4137 H   0  0  0  0  0  0
   -0.0933   53.4496   23.5090 H   0  0  0  0  0  0
   -0.0857   52.5427   31.8734 H   0  0  0  0  0  0
   -0.7642   51.6675   30.5506 H   0  0  0  0  0  0
  1  2  1  0  0  0
  1 30  1  0  0  0
  1 31  1  0  0  0
  1 32  1  0  0  0
  2 10  2  0  0  0
  2  3  1  0  0  0
  3  8  2  0  0  0
  3  4  1  0  0  0
  4  5  2  0  0  0
  4 33  1  0  0  0
  5  6  1  0  0  0
  5 34  1  0  0  0
  6  7  2  0  0  0
  6 35  1  0  0  0
  7  8  1  0  0  0
  7 29  1  0  0  0
  8  9  1  0  0  0
  9 10  1  0  0  0
 10 11  1  0  0  0
 11 12  2  0  0  0
 11 13  1  0  0  0
 13 14  1  0  0  0
 13 36  1  0  0  0
 14 19  2  0  0  0
 14 15  1  0  0  0
 15 16  2  0  0  0
 15 37  1  0  0  0
 16 17  1  0  0  0
 16 26  1  0  0  0
 17 18  2  0  0  0
 17 38  1  0  0  0
 18 19  1  0  0  0
 18 39  1  0  0  0
 19 20  1  0  0  0
 20 25  1  0  0  0
 20 21  1  0  0  0
 21 22  1  0  0  0
 21 40  1  0  0  0
 21 41  1  0  0  0
 22 23  1  0  0  0
 22 42  1  0  0  0
 22 43  1  0  0  0
 23 24  1  0  0  0
 23 44  1  0  0  0
 23 45  1  0  0  0
 24 25  1  0  0  0
 24 46  1  0  0  0
 24 47  1  0  0  0
 25 48  1  0  0  0
 25 49  1  0  0  0
 26 27  2  0  0  0
 26 28  1  0  0  0
 28 50  1  0  0  0
 28 51  1  0  0  0
M  END
> <i_i_glide_confnum>
2

> <i_i_glide_lignum>
4577

> <i_i_glide_posenum>
142

> <i_i_glide_rotatable_bonds>
5

> <i_m_Source_File_Index>
5867

> <b_m_subgroup_collapsed>
0

> <r_i_docking_score>
-6.32888

> <r_i_glide_ecoul>
-4.54796

> <r_i_glide_eff_state_penalty>
0

> <r_i_glide_einternal>
0.361875

> <r_i_glide_emodel>
-64.2416

> <r_i_glide_energy>
-45.5558

> <r_i_glide_erotb>
0.500242

> <r_i_glide_esite>
-0.107744

> <r_i_glide_evdw>
-41.0078

> <r_i_glide_gscore>
-6.32888

> <r_i_glide_hbond>
-0.24201

> <r_i_glide_ligand_efficiency>
-0.218237

> <r_i_glide_ligand_efficiency_ln>
-1.44915

> <r_i_glide_ligand_efficiency_sa>
-0.670494

> <r_i_glide_lipo>
-2.38894

> <r_i_glide_metal>
0

> <r_i_glide_rewards>
-1.35784

> <s_i_glide_gridfile>
wee1_glide-grid

> <s_m_Source_File>
wee1_decoys_glide_SP.sdf

> <s_m_Source_Path>
/Users/zhangxujun/Desktop

> <s_m_entry_id>
6142

> <s_m_entry_name>
wee1_decoys_glide_SP.5867

> <s_m_subgroup_title>
wee1_decoys_glide_SP

> <s_m_subgroupid>
wee1_decoys_glide_SP


$$$$
