ZINC08828659_5447
                    3D
 Schrodinger Suite 2024-2.
 59 63  0  0  1  0            999 V2000
    1.3383   41.1539   17.1890 C   0  0  0  0  0  0
   -0.1257   41.5538   16.9388 C   0  0  0  0  0  0
   -0.6826   42.2607   18.0506 O   0  0  0  0  0  0
   -0.3883   43.5989   18.2508 C   0  0  0  0  0  0
   -0.9972   44.2108   19.3520 C   0  0  0  0  0  0
   -0.7782   45.5527   19.6783 C   0  0  0  0  0  0
    0.0964   46.2982   18.8744 C   0  0  0  0  0  0
    0.7054   45.6858   17.7483 C   0  0  0  0  0  0
    0.4629   44.3463   17.4210 C   0  0  0  0  0  0
    1.7506   46.8481   16.9523 S   0  0  0  0  0  0
    1.2933   48.0046   18.1776 C   0  0  0  0  0  0
    0.4390   47.5979   19.0821 N   0  0  0  0  0  0
    1.9044   49.2390   18.0805 N   0  0  0  0  0  0
    1.6916   50.3347   18.8354 C   0  0  0  0  0  0
    0.8865   50.4117   19.7670 O   0  0  0  0  0  0
    2.5645   51.5505   18.4734 C   0  0  0  0  0  0
    3.0201   52.2818   19.7666 N   0  3  1  0  0  0
    4.1462   51.4500   20.4164 C   0  0  0  0  0  0
    4.4998   52.0748   21.7508 C   0  0  0  0  0  0
    4.9619   53.5303   21.5837 C   0  0  1  0  0  0
    3.9576   54.3803   20.7849 C   0  0  0  0  0  0
    3.5742   53.6930   19.4442 C   0  0  0  0  0  0
    5.2188   54.0774   22.9267 N   0  0  0  0  0  0
    4.4297   54.0973   24.0768 C   0  0  0  0  0  0
    3.1019   53.7504   24.3596 C   0  0  0  0  0  0
    2.7066   53.8071   25.7000 C   0  0  0  0  0  0
    3.5665   54.2203   26.7267 C   0  0  0  0  0  0
    4.8840   54.5961   26.4289 C   0  0  0  0  0  0
    5.3108   54.5333   25.0977 C   0  0  0  0  0  0
    6.5261   54.8277   24.5576 N   0  0  0  0  0  0
    6.4576   54.5293   23.2158 N   0  0  0  0  0  0
    3.0549   54.2460   28.1701 C   0  0  0  0  0  0
    4.0315   54.4730   29.0525 F   0  0  0  0  0  0
    2.1431   55.2098   28.3041 F   0  0  0  0  0  0
    2.4894   53.0766   28.4721 F   0  0  0  0  0  0
    1.7271   40.5734   16.3528 H   0  0  0  0  0  0
    1.4383   40.5461   18.0880 H   0  0  0  0  0  0
    1.9866   42.0211   17.3127 H   0  0  0  0  0  0
   -0.2394   42.1116   16.0070 H   0  0  0  0  0  0
   -0.7161   40.6477   16.8076 H   0  0  0  0  0  0
   -1.6621   43.6274   19.9697 H   0  0  0  0  0  0
   -1.2544   46.0011   20.5373 H   0  0  0  0  0  0
    0.9457   43.9165   16.5577 H   0  0  0  0  0  0
    2.6290   49.2979   17.3657 H   0  0  0  0  0  0
    3.4526   51.2995   17.8864 H   0  0  0  0  0  0
    1.9649   52.2694   17.9152 H   0  0  0  0  0  0
    3.8058   50.4215   20.5453 H   0  0  0  0  0  0
    4.9961   51.5059   19.7422 H   0  0  0  0  0  0
    3.6865   51.9641   22.4703 H   0  0  0  0  0  0
    5.3451   51.4896   22.1133 H   0  0  0  0  0  0
    5.9044   53.5655   21.0525 H   0  0  0  0  0  0
    4.4853   55.2956   20.5102 H   0  0  0  0  0  0
    3.1044   54.6840   21.3918 H   0  0  0  0  0  0
    4.4361   53.5588   18.7882 H   0  0  0  0  0  0
    2.8084   54.2248   18.8820 H   0  0  0  0  0  0
    2.4119   53.4275   23.5952 H   0  0  0  0  0  0
    1.6925   53.5227   25.9475 H   0  0  0  0  0  0
    5.5637   54.9187   27.2051 H   0  0  0  0  0  0
    2.2154   52.3406   20.3777 H   0  0  0  0  0  0
  1  2  1  0  0  0
  1 36  1  0  0  0
  1 37  1  0  0  0
  1 38  1  0  0  0
  2  3  1  0  0  0
  2 39  1  0  0  0
  2 40  1  0  0  0
  3  4  1  0  0  0
  4  9  2  0  0  0
  4  5  1  0  0  0
  5  6  2  0  0  0
  5 41  1  0  0  0
  6  7  1  0  0  0
  6 42  1  0  0  0
  7 12  1  0  0  0
  7  8  2  0  0  0
  8  9  1  0  0  0
  8 10  1  0  0  0
  9 43  1  0  0  0
 10 11  1  0  0  0
 11 12  2  0  0  0
 11 13  1  0  0  0
 13 14  1  0  0  0
 13 44  1  0  0  0
 14 15  2  0  0  0
 14 16  1  0  0  0
 16 17  1  0  0  0
 16 45  1  0  0  0
 16 46  1  0  0  0
 17 22  1  0  0  0
 17 18  1  0  0  0
 17 59  1  0  0  0
 18 19  1  0  0  0
 18 47  1  0  0  0
 18 48  1  0  0  0
 19 20  1  0  0  0
 19 49  1  0  0  0
 19 50  1  0  0  0
 20 21  1  0  0  0
 20 23  1  0  0  0
 20 51  1  0  0  0
 21 22  1  0  0  0
 21 52  1  0  0  0
 21 53  1  0  0  0
 22 54  1  0  0  0
 22 55  1  0  0  0
 23 31  1  0  0  0
 23 24  1  0  0  0
 24 29  2  0  0  0
 24 25  1  0  0  0
 25 26  2  0  0  0
 25 56  1  0  0  0
 26 27  1  0  0  0
 26 57  1  0  0  0
 27 28  2  0  0  0
 27 32  1  0  0  0
 28 29  1  0  0  0
 28 58  1  0  0  0
 29 30  1  0  0  0
 30 31  2  0  0  0
 32 33  1  0  0  0
 32 34  1  0  0  0
 32 35  1  0  0  0
M  CHG  1  17   1
M  END
> <i_i_glide_confnum>
66

> <i_i_glide_lignum>
5448

> <i_i_glide_posenum>
191

> <i_i_glide_rotatable_bonds>
8

> <i_m_Source_File_Index>
1077

> <b_m_subgroup_collapsed>
0

> <r_i_docking_score>
-5.90786

> <r_i_glide_ecoul>
-6.79738

> <r_i_glide_eff_state_penalty>
0

> <r_i_glide_einternal>
9.23539

> <r_i_glide_emodel>
-55.6957

> <r_i_glide_energy>
-40.0676

> <r_i_glide_erotb>
0.480202

> <r_i_glide_esite>
-0.187953

> <r_i_glide_evdw>
-33.2702

> <r_i_glide_gscore>
-5.90786

> <r_i_glide_hbond>
-0.224284

> <r_i_glide_ligand_efficiency>
-0.168796

> <r_i_glide_ligand_efficiency_ln>
-1.29691

> <r_i_glide_ligand_efficiency_sa>
-0.552143

> <r_i_glide_lipo>
-1.88249

> <r_i_glide_metal>
0

> <r_i_glide_rewards>
-1.41022

> <s_i_glide_gridfile>
wee1_glide-grid

> <s_m_Source_File>
wee1_decoys_glide_SP.sdf

> <s_m_Source_Path>
/Users/zhangxujun/Desktop

> <s_m_entry_id>
1352

> <s_m_entry_name>
wee1_decoys_glide_SP.1077

> <s_m_subgroup_title>
wee1_decoys_glide_SP

> <s_m_subgroupid>
wee1_decoys_glide_SP


$$$$
