ZINC39669022_1287
                    3D
 Schrodinger Suite 2024-2.
 73 77  0  0  1  0            999 V2000
    1.3434   48.9699   21.2514 C   0  0  0  0  0  0
    1.5306   50.1534   20.2695 C   0  0  0  0  0  0
    0.2968   51.1093   20.2735 C   0  0  0  0  0  0
    0.4294   52.2585   19.2474 C   0  0  0  0  0  0
    0.6218   51.7185   17.8144 C   0  0  0  0  0  0
    1.7583   50.6802   17.7212 C   0  0  0  0  0  0
    1.6344   49.5861   18.8101 C   0  0  0  0  0  0
    2.8978   50.8330   20.6716 C   0  0  0  0  0  0
    3.9031   50.4966   20.0818 O   0  0  0  0  0  0
    3.0742   51.7198   21.6688 N   0  0  0  0  0  0
    2.0381   52.1893   22.5578 C   0  0  0  0  0  0
    2.8606   52.8957   23.6225 C   0  0  1  0  0  0
    3.1039   52.1617   24.3828 H   0  0  0  0  0  0
    4.1272   53.4521   22.9151 C   0  0  0  0  0  0
    4.4209   52.2563   21.9849 C   0  0  0  0  0  0
    3.9197   54.6665   21.9804 C   0  0  0  0  0  0
    5.2230   55.0177   21.1894 C   0  0  0  0  0  0
    6.4338   55.1677   22.1505 N   0  3  0  0  0  0
    6.5697   54.1157   23.2782 C   0  0  0  0  0  0
    5.1983   53.9359   23.9304 C   0  0  0  0  0  0
    1.9765   53.8802   24.3653 C   0  0  0  0  0  0
    1.1044   54.4966   23.7687 O   0  0  0  0  0  0
    2.0962   53.8619   25.7001 N   0  0  0  0  0  0
    1.3262   52.9366   26.5296 C   0  0  0  0  0  0
    1.9467   52.7352   27.9315 C   0  0  1  0  0  0
    3.0259   52.6221   27.8138 H   0  0  0  0  0  0
    1.6839   53.9192   28.8730 C   0  0  0  0  0  0
    2.2138   55.1888   28.6119 C   0  0  0  0  0  0
    1.9067   56.2759   29.4217 C   0  0  0  0  0  0
    1.1046   56.0984   30.5365 C   0  0  0  0  0  0
    0.5791   54.8410   30.8209 C   0  0  0  0  0  0
    0.8584   53.7446   30.0024 C   0  0  0  0  0  0
    0.2999   52.3685   30.3292 C   0  0  0  0  0  0
    0.2136   51.5105   29.0603 C   0  0  0  0  0  0
    1.5062   51.4850   28.4627 O   0  0  0  0  0  0
    0.4928   48.3536   20.9613 H   0  0  0  0  0  0
    2.2182   48.3166   21.2764 H   0  0  0  0  0  0
    1.1568   49.3010   22.2727 H   0  0  0  0  0  0
    0.0292   51.4753   21.2605 H   0  0  0  0  0  0
   -0.5818   50.5263   19.9931 H   0  0  0  0  0  0
    1.2729   52.8963   19.5124 H   0  0  0  0  0  0
   -0.4527   52.8963   19.2810 H   0  0  0  0  0  0
    0.8162   52.5426   17.1266 H   0  0  0  0  0  0
   -0.3093   51.2575   17.4800 H   0  0  0  0  0  0
    2.7233   51.1807   17.8068 H   0  0  0  0  0  0
    1.7622   50.2178   16.7329 H   0  0  0  0  0  0
    0.7319   49.0166   18.5855 H   0  0  0  0  0  0
    2.4480   48.8613   18.7181 H   0  0  0  0  0  0
    1.4463   52.9123   21.9930 H   0  0  0  0  0  0
    1.4319   51.3964   22.9978 H   0  0  0  0  0  0
    5.0313   51.5067   22.4813 H   0  0  0  0  0  0
    5.0139   52.4870   21.1050 H   0  0  0  0  0  0
    3.1421   54.4389   21.2505 H   0  0  0  0  0  0
    3.5045   55.4951   22.5286 H   0  0  0  0  0  0
    5.5118   54.2777   20.4452 H   0  0  0  0  0  0
    5.1551   55.9634   20.6571 H   0  0  0  0  0  0
    7.2939   55.2099   21.6183 H   0  0  0  0  0  0
    6.9611   53.1817   22.8816 H   0  0  0  0  0  0
    7.3075   54.5191   23.9747 H   0  0  0  0  0  0
    4.8760   54.8338   24.4608 H   0  0  0  0  0  0
    5.3446   53.1990   24.7126 H   0  0  0  0  0  0
    3.0396   53.9773   26.0412 H   0  0  0  0  0  0
    0.3037   53.2965   26.6274 H   0  0  0  0  0  0
    1.2597   51.9646   26.0355 H   0  0  0  0  0  0
    2.8529   55.3456   27.7580 H   0  0  0  0  0  0
    2.3034   57.2536   29.1978 H   0  0  0  0  0  0
    0.8895   56.9356   31.1809 H   0  0  0  0  0  0
   -0.0438   54.7111   31.6942 H   0  0  0  0  0  0
   -0.6752   52.4319   30.8160 H   0  0  0  0  0  0
    0.9706   51.8878   31.0414 H   0  0  0  0  0  0
   -0.5362   51.9114   28.3768 H   0  0  0  0  0  0
   -0.1010   50.4977   29.2819 H   0  0  0  0  0  0
    6.3476   56.0669   22.6037 H   0  0  0  0  0  0
  1  2  1  0  0  0
  1 36  1  0  0  0
  1 37  1  0  0  0
  1 38  1  0  0  0
  2  7  1  0  0  0
  2  3  1  0  0  0
  2  8  1  0  0  0
  3  4  1  0  0  0
  3 39  1  0  0  0
  3 40  1  0  0  0
  4  5  1  0  0  0
  4 41  1  0  0  0
  4 42  1  0  0  0
  5  6  1  0  0  0
  5 43  1  0  0  0
  5 44  1  0  0  0
  6  7  1  0  0  0
  6 45  1  0  0  0
  6 46  1  0  0  0
  7 47  1  0  0  0
  7 48  1  0  0  0
  8  9  2  0  0  0
  8 10  1  0  0  0
 10 15  1  0  0  0
 10 11  1  0  0  0
 11 12  1  0  0  0
 11 49  1  0  0  0
 11 50  1  0  0  0
 12 13  1  0  0  0
 12 14  1  0  0  0
 12 21  1  0  0  0
 14 20  1  0  0  0
 14 15  1  0  0  0
 14 16  1  0  0  0
 15 51  1  0  0  0
 15 52  1  0  0  0
 16 17  1  0  0  0
 16 53  1  0  0  0
 16 54  1  0  0  0
 17 18  1  0  0  0
 17 55  1  0  0  0
 17 56  1  0  0  0
 18 19  1  0  0  0
 18 57  1  0  0  0
 18 73  1  0  0  0
 19 20  1  0  0  0
 19 58  1  0  0  0
 19 59  1  0  0  0
 20 60  1  0  0  0
 20 61  1  0  0  0
 21 22  2  0  0  0
 21 23  1  0  0  0
 23 24  1  0  0  0
 23 62  1  0  0  0
 24 25  1  0  0  0
 24 63  1  0  0  0
 24 64  1  0  0  0
 25 26  1  0  0  0
 25 35  1  0  0  0
 25 27  1  0  0  0
 27 32  2  0  0  0
 27 28  1  0  0  0
 28 29  2  0  0  0
 28 65  1  0  0  0
 29 30  1  0  0  0
 29 66  1  0  0  0
 30 31  2  0  0  0
 30 67  1  0  0  0
 31 32  1  0  0  0
 31 68  1  0  0  0
 32 33  1  0  0  0
 33 34  1  0  0  0
 33 69  1  0  0  0
 33 70  1  0  0  0
 34 35  1  0  0  0
 34 71  1  0  0  0
 34 72  1  0  0  0
M  CHG  1  18   1
M  END
> <i_i_glide_confnum>
234

> <i_i_glide_lignum>
1288

> <i_i_glide_posenum>
281

> <i_i_glide_rotatable_bonds>
6

> <i_m_Source_File_Index>
4207

> <b_m_subgroup_collapsed>
0

> <r_i_docking_score>
0.782307

> <r_i_glide_ecoul>
-2.54629

> <r_i_glide_eff_state_penalty>
0

> <r_i_glide_einternal>
21.0761

> <r_i_glide_emodel>
3.08815

> <r_i_glide_energy>
-26.5052

> <r_i_glide_erotb>
0.485829

> <r_i_glide_esite>
-0.00886675

> <r_i_glide_evdw>
-23.9589

> <r_i_glide_gscore>
0.782307

> <r_i_glide_hbond>
-0.193164

> <r_i_glide_ligand_efficiency>
0.0237063

> <r_i_glide_ligand_efficiency_ln>
0.173981

> <r_i_glide_ligand_efficiency_sa>
0.0760387

> <r_i_glide_lipo>
-3.10537

> <r_i_glide_metal>
0

> <r_i_glide_rewards>
5.18377

> <s_i_glide_gridfile>
wee1_glide-grid

> <s_m_Source_File>
wee1_decoys_glide_SP.sdf

> <s_m_Source_Path>
/Users/zhangxujun/Desktop

> <s_m_entry_id>
4482

> <s_m_entry_name>
wee1_decoys_glide_SP.4207

> <s_m_subgroup_title>
wee1_decoys_glide_SP

> <s_m_subgroupid>
wee1_decoys_glide_SP


$$$$
