ZINC39599736_628
                    3D
 Schrodinger Suite 2024-2.
 63 66  0  0  1  0            999 V2000
    6.7536   54.4835   24.0047 C   0  0  0  0  0  0
    5.4616   54.2801   24.7741 C   0  0  0  0  0  0
    5.4813   54.2548   26.1693 C   0  0  0  0  0  0
    4.3038   54.0469   26.8799 C   0  0  0  0  0  0
    3.0973   53.8759   26.2069 C   0  0  0  0  0  0
    3.0556   53.8920   24.8008 C   0  0  0  0  0  0
    4.2527   54.0978   24.0912 C   0  0  0  0  0  0
    4.2530   54.1098   22.7345 F   0  0  0  0  0  0
    1.7429   53.8023   24.0605 C   0  0  0  0  0  0
    1.4461   54.6973   23.2806 O   0  0  0  0  0  0
    0.9120   52.7605   24.2907 N   0  0  0  0  0  0
   -0.4643   52.6963   23.8006 C   0  0  0  0  0  0
   -1.0362   51.4187   24.4438 C   0  0  1  0  0  0
   -1.7555   50.9608   23.7717 H   0  0  0  0  0  0
    0.2098   50.4969   24.6214 C   0  0  0  0  0  0
    1.3477   51.5091   24.8818 C   0  0  0  0  0  0
    0.2041   49.3902   25.7155 C   0  0  0  0  0  0
   -0.9024   48.3549   25.4563 C   0  0  0  0  0  0
   -0.6115   47.6971   24.0943 N   0  3  0  0  0  0
   -0.4936   48.6966   22.9230 C   0  0  0  0  0  0
    0.5649   49.7540   23.2978 C   0  0  0  0  0  0
   -1.7614   51.6937   25.7841 C   0  0  0  0  0  0
   -1.3067   52.4966   26.5960 O   0  0  0  0  0  0
   -2.9471   51.0862   25.9491 N   0  0  0  0  0  0
   -3.8534   51.2771   27.0834 C   0  0  0  0  0  0
   -5.0795   52.1291   26.7602 C   0  0  0  0  0  0
   -5.0641   53.0604   25.7126 C   0  0  0  0  0  0
   -6.2059   53.7897   25.4060 C   0  0  0  0  0  0
   -7.3778   53.6158   26.1376 C   0  0  0  0  0  0
   -7.3994   52.6806   27.1854 C   0  0  0  0  0  0
   -6.2572   51.9399   27.4889 C   0  0  0  0  0  0
   -8.4479   54.4004   25.7489 O   0  0  0  0  0  0
   -9.7126   54.2709   26.3920 C   0  0  0  0  0  0
  -10.5480   55.1224   25.8017 F   0  0  0  0  0  0
   -9.6427   54.6073   27.6810 F   0  0  0  0  0  0
  -10.2164   53.0426   26.2500 F   0  0  0  0  0  0
    1.9707   53.7283   26.9425 F   0  0  0  0  0  0
    7.6168   54.4986   24.6659 H   0  0  0  0  0  0
    6.9055   53.6784   23.2849 H   0  0  0  0  0  0
    6.7200   55.4200   23.4464 H   0  0  0  0  0  0
    6.4075   54.3917   26.7132 H   0  0  0  0  0  0
    4.3204   54.0299   27.9604 H   0  0  0  0  0  0
   -0.4547   52.5885   22.7140 H   0  0  0  0  0  0
   -1.0596   53.5851   24.0194 H   0  0  0  0  0  0
    1.4170   51.6530   25.9602 H   0  0  0  0  0  0
    2.2987   51.1556   24.4756 H   0  0  0  0  0  0
    1.1741   48.8978   25.7831 H   0  0  0  0  0  0
    0.0461   49.8241   26.7049 H   0  0  0  0  0  0
   -0.9024   47.5612   26.2019 H   0  0  0  0  0  0
   -1.9063   48.7688   25.4049 H   0  0  0  0  0  0
    0.2802   47.2357   24.1961 H   0  0  0  0  0  0
   -0.2015   48.1217   22.0442 H   0  0  0  0  0  0
   -1.4915   49.0955   22.7493 H   0  0  0  0  0  0
    0.6707   50.4604   22.4725 H   0  0  0  0  0  0
    1.5459   49.2815   23.3772 H   0  0  0  0  0  0
   -3.2875   50.4789   25.2198 H   0  0  0  0  0  0
   -3.3468   51.7162   27.9468 H   0  0  0  0  0  0
   -4.1781   50.2868   27.4065 H   0  0  0  0  0  0
   -4.1729   53.2221   25.1225 H   0  0  0  0  0  0
   -6.1824   54.4952   24.5888 H   0  0  0  0  0  0
   -8.2910   52.5099   27.7720 H   0  0  0  0  0  0
   -6.2948   51.2145   28.2918 H   0  0  0  0  0  0
   -1.3042   46.9916   23.8926 H   0  0  0  0  0  0
  1  2  1  0  0  0
  1 38  1  0  0  0
  1 39  1  0  0  0
  1 40  1  0  0  0
  2  7  2  0  0  0
  2  3  1  0  0  0
  3  4  2  0  0  0
  3 41  1  0  0  0
  4  5  1  0  0  0
  4 42  1  0  0  0
  5  6  2  0  0  0
  5 37  1  0  0  0
  6  7  1  0  0  0
  6  9  1  0  0  0
  7  8  1  0  0  0
  9 10  2  0  0  0
  9 11  1  0  0  0
 11 16  1  0  0  0
 11 12  1  0  0  0
 12 13  1  0  0  0
 12 43  1  0  0  0
 12 44  1  0  0  0
 13 14  1  0  0  0
 13 15  1  0  0  0
 13 22  1  0  0  0
 15 21  1  0  0  0
 15 16  1  0  0  0
 15 17  1  0  0  0
 16 45  1  0  0  0
 16 46  1  0  0  0
 17 18  1  0  0  0
 17 47  1  0  0  0
 17 48  1  0  0  0
 18 19  1  0  0  0
 18 49  1  0  0  0
 18 50  1  0  0  0
 19 20  1  0  0  0
 19 51  1  0  0  0
 19 63  1  0  0  0
 20 21  1  0  0  0
 20 52  1  0  0  0
 20 53  1  0  0  0
 21 54  1  0  0  0
 21 55  1  0  0  0
 22 23  2  0  0  0
 22 24  1  0  0  0
 24 25  1  0  0  0
 24 56  1  0  0  0
 25 26  1  0  0  0
 25 57  1  0  0  0
 25 58  1  0  0  0
 26 31  2  0  0  0
 26 27  1  0  0  0
 27 28  2  0  0  0
 27 59  1  0  0  0
 28 29  1  0  0  0
 28 60  1  0  0  0
 29 30  2  0  0  0
 29 32  1  0  0  0
 30 31  1  0  0  0
 30 61  1  0  0  0
 31 62  1  0  0  0
 32 33  1  0  0  0
 33 34  1  0  0  0
 33 35  1  0  0  0
 33 36  1  0  0  0
M  CHG  1  19   1
M  END
> <i_i_glide_confnum>
9

> <i_i_glide_lignum>
629

> <i_i_glide_posenum>
363

> <i_i_glide_rotatable_bonds>
8

> <i_m_Source_File_Index>
3087

> <b_m_subgroup_collapsed>
0

> <r_i_docking_score>
-4.46634

> <r_i_glide_ecoul>
-0.661539

> <r_i_glide_eff_state_penalty>
0

> <r_i_glide_einternal>
4.82059

> <r_i_glide_emodel>
-44.7737

> <r_i_glide_energy>
-33.782

> <r_i_glide_erotb>
0.546357

> <r_i_glide_esite>
-0.0908497

> <r_i_glide_evdw>
-33.1204

> <r_i_glide_gscore>
-4.46634

> <r_i_glide_hbond>
0

> <r_i_glide_ligand_efficiency>
-0.124065

> <r_i_glide_ligand_efficiency_ln>
-0.974435

> <r_i_glide_ligand_efficiency_sa>
-0.409654

> <r_i_glide_lipo>
-2.02405

> <r_i_glide_metal>
0

> <r_i_glide_rewards>
-1.14255

> <s_i_glide_gridfile>
wee1_glide-grid

> <s_m_Source_File>
wee1_decoys_glide_SP.sdf

> <s_m_Source_Path>
/Users/zhangxujun/Desktop

> <s_m_entry_id>
3362

> <s_m_entry_name>
wee1_decoys_glide_SP.3087

> <s_m_subgroup_title>
wee1_decoys_glide_SP

> <s_m_subgroupid>
wee1_decoys_glide_SP


$$$$
