ZINC16609324_5191
                    3D
 Schrodinger Suite 2024-2.
 55 58  0  0  1  0            999 V2000
   -1.1347   50.2979   18.4794 C   0  0  0  0  0  0
   -1.1630   50.3387   20.0165 C   0  0  0  0  0  0
    0.2439   50.3566   20.6261 C   0  0  0  0  0  0
    0.1798   50.3416   22.1674 C   0  0  0  0  0  0
   -0.6003   51.4680   22.7303 N   0  0  0  0  0  0
   -1.9337   51.5716   22.0999 C   0  0  0  0  0  0
   -1.8789   51.5821   20.5568 C   0  0  0  0  0  0
   -0.4156   51.7754   24.0778 C   0  0  0  0  0  0
    0.8738   52.0344   24.5521 C   0  0  0  0  0  0
    1.1044   52.3197   25.8934 C   0  0  0  0  0  0
    0.0366   52.3500   26.7968 C   0  0  0  0  0  0
   -1.2546   52.0889   26.3348 C   0  0  0  0  0  0
   -1.4797   51.8095   24.9892 C   0  0  0  0  0  0
    0.1497   52.6110   28.1757 N   0  0  0  0  0  0
    1.1176   53.1675   28.9609 C   0  0  0  0  0  0
    0.7045   53.2879   30.5739 S   0  0  0  0  0  0
    2.2904   53.5702   28.3664 N   0  0  0  0  0  0
    3.4901   53.9436   28.8860 C   0  0  0  0  0  0
    3.7503   54.0961   30.0815 O   0  0  0  0  0  0
    4.5297   54.1269   27.9072 C   0  0  0  0  0  0
    5.8960   54.3064   28.0732 C   0  0  0  0  0  0
    6.4463   54.4262   26.7992 C   0  0  0  0  0  0
    5.3974   54.3530   25.8926 C   0  0  0  0  0  0
    4.2339   54.1634   26.5779 O   0  0  0  0  0  0
    5.3224   54.4099   24.4054 C   0  0  0  0  0  0
    4.1736   53.9665   23.7419 C   0  0  0  0  0  0
    4.1194   53.9443   22.3500 C   0  0  0  0  0  0
    5.1969   54.4204   21.6040 C   0  0  0  0  0  0
    6.3364   54.8970   22.2543 C   0  0  0  0  0  0
    6.4035   54.8781   23.6492 C   0  0  0  0  0  0
    7.6649   55.5057   21.3349 Cl  0  0  0  0  0  0
    2.7292   53.2962   21.5622 Cl  0  0  0  0  0  0
   -0.6178   51.1645   18.0659 H   0  0  0  0  0  0
   -0.6216   49.4056   18.1185 H   0  0  0  0  0  0
   -2.1435   50.2839   18.0663 H   0  0  0  0  0  0
   -1.6855   49.4532   20.3853 H   0  0  0  0  0  0
    0.8271   51.2098   20.2745 H   0  0  0  0  0  0
    0.8072   49.4925   20.2711 H   0  0  0  0  0  0
    1.2049   50.3583   22.5383 H   0  0  0  0  0  0
   -0.2579   49.4069   22.5229 H   0  0  0  0  0  0
   -2.5590   50.7484   22.4516 H   0  0  0  0  0  0
   -2.4064   52.4983   22.4298 H   0  0  0  0  0  0
   -2.8897   51.6237   20.1497 H   0  0  0  0  0  0
   -1.4077   52.4961   20.1957 H   0  0  0  0  0  0
    1.7133   52.0044   23.8756 H   0  0  0  0  0  0
    2.1267   52.4733   26.1928 H   0  0  0  0  0  0
   -2.0942   52.0904   27.0157 H   0  0  0  0  0  0
   -2.4885   51.5968   24.6698 H   0  0  0  0  0  0
   -0.6831   52.3512   28.6848 H   0  0  0  0  0  0
    2.2701   53.5637   27.3597 H   0  0  0  0  0  0
    6.4332   54.3346   29.0108 H   0  0  0  0  0  0
    7.4934   54.5398   26.5694 H   0  0  0  0  0  0
    3.3317   53.5988   24.3062 H   0  0  0  0  0  0
    5.1503   54.4136   20.5245 H   0  0  0  0  0  0
    7.3008   55.2327   24.1352 H   0  0  0  0  0  0
  1  2  1  0  0  0
  1 33  1  0  0  0
  1 34  1  0  0  0
  1 35  1  0  0  0
  2  7  1  0  0  0
  2  3  1  0  0  0
  2 36  1  0  0  0
  3  4  1  0  0  0
  3 37  1  0  0  0
  3 38  1  0  0  0
  4  5  1  0  0  0
  4 39  1  0  0  0
  4 40  1  0  0  0
  5  6  1  0  0  0
  5  8  1  0  0  0
  6  7  1  0  0  0
  6 41  1  0  0  0
  6 42  1  0  0  0
  7 43  1  0  0  0
  7 44  1  0  0  0
  8 13  2  0  0  0
  8  9  1  0  0  0
  9 10  2  0  0  0
  9 45  1  0  0  0
 10 11  1  0  0  0
 10 46  1  0  0  0
 11 12  2  0  0  0
 11 14  1  0  0  0
 12 13  1  0  0  0
 12 47  1  0  0  0
 13 48  1  0  0  0
 14 15  1  0  0  0
 14 49  1  0  0  0
 15 16  2  0  0  0
 15 17  1  0  0  0
 17 18  1  0  0  0
 17 50  1  0  0  0
 18 19  2  0  0  0
 18 20  1  0  0  0
 20 24  1  0  0  0
 20 21  2  0  0  0
 21 22  1  0  0  0
 21 51  1  0  0  0
 22 23  2  0  0  0
 22 52  1  0  0  0
 23 24  1  0  0  0
 23 25  1  0  0  0
 25 30  2  0  0  0
 25 26  1  0  0  0
 26 27  2  0  0  0
 26 53  1  0  0  0
 27 28  1  0  0  0
 27 32  1  0  0  0
 28 29  2  0  0  0
 28 54  1  0  0  0
 29 30  1  0  0  0
 29 31  1  0  0  0
 30 55  1  0  0  0
M  END
> <i_i_glide_confnum>
166

> <i_i_glide_lignum>
5192

> <i_i_glide_posenum>
80

> <i_i_glide_rotatable_bonds>
7

> <i_m_Source_File_Index>
155

> <b_m_subgroup_collapsed>
0

> <r_i_docking_score>
-6.2838

> <r_i_glide_ecoul>
-2.23576

> <r_i_glide_eff_state_penalty>
0

> <r_i_glide_einternal>
14.2126

> <r_i_glide_emodel>
-61.8712

> <r_i_glide_energy>
-51.3056

> <r_i_glide_erotb>
0.596716

> <r_i_glide_esite>
0

> <r_i_glide_evdw>
-49.0698

> <r_i_glide_gscore>
-6.2838

> <r_i_glide_hbond>
-0.32

> <r_i_glide_ligand_efficiency>
-0.196369

> <r_i_glide_ligand_efficiency_ln>
-1.40711

> <r_i_glide_ligand_efficiency_sa>
-0.623432

> <r_i_glide_lipo>
-2.99206

> <r_i_glide_metal>
0

> <r_i_glide_rewards>
-0.779607

> <s_i_glide_gridfile>
wee1_glide-grid

> <s_m_Source_File>
wee1_decoys_glide_SP.sdf

> <s_m_Source_Path>
/Users/zhangxujun/Desktop

> <s_m_entry_id>
430

> <s_m_entry_name>
wee1_decoys_glide_SP.155

> <s_m_subgroup_title>
wee1_decoys_glide_SP

> <s_m_subgroupid>
wee1_decoys_glide_SP


$$$$
