ZINC25069597_2500
                    3D
 Schrodinger Suite 2024-2.
 58 60  0  0  1  0            999 V2000
    5.4357   54.5267   25.3452 C   0  0  0  0  0  0
    5.0322   54.2976   23.9096 C   0  0  0  0  0  0
    5.9346   54.4964   22.8543 C   0  0  0  0  0  0
    5.3519   54.4366   21.5992 C   0  0  0  0  0  0
    3.6982   53.9741   21.6818 S   0  0  0  0  0  0
    3.7405   53.9928   23.4212 C   0  0  0  0  0  0
    2.4832   53.8111   24.1178 C   0  0  0  0  0  0
    1.4064   54.0737   23.5791 O   0  0  0  0  0  0
    2.6061   53.2969   25.3573 N   0  0  0  0  0  0
    1.5827   52.8971   26.2493 C   0  0  0  0  0  0
    0.3745   52.3503   25.7869 C   0  0  0  0  0  0
   -0.6266   51.9441   26.6781 C   0  0  0  0  0  0
   -0.4092   52.0951   28.0542 C   0  0  0  0  0  0
    0.7720   52.6673   28.5211 C   0  0  0  0  0  0
    1.7704   53.0830   27.6331 C   0  0  0  0  0  0
    2.9603   53.6148   28.1463 N   0  0  0  0  0  0
    4.2075   52.8687   28.2375 C   0  0  0  0  0  0
    5.2632   53.8195   28.7674 C   0  0  0  0  0  0
    4.4627   54.7154   29.6794 C   0  0  0  0  0  0
    3.0598   54.7405   29.0720 C   0  0  0  0  0  0
   -1.9254   51.3967   26.1417 C   0  0  0  0  0  0
   -2.3765   51.7709   25.0614 O   0  0  0  0  0  0
   -2.5726   50.4966   26.8819 N   0  0  0  0  0  0
    5.9047   54.6969   20.3652 N   0  0  0  0  0  0
    6.5683   55.8385   20.0719 C   0  0  0  0  0  0
    6.7044   56.7651   20.8802 O   0  0  0  0  0  0
    7.1641   55.9934   18.6397 C   0  0  0  0  0  0
    6.4333   57.1561   17.9226 C   0  0  0  0  0  0
    7.0218   54.7085   17.7751 C   0  0  0  0  0  0
    8.6734   56.3347   18.7502 C   0  0  0  0  0  0
    5.7673   53.5977   25.8091 H   0  0  0  0  0  0
    6.2582   55.2397   25.4249 H   0  0  0  0  0  0
    4.6310   54.9556   25.9428 H   0  0  0  0  0  0
    6.9714   54.7647   23.0048 H   0  0  0  0  0  0
    3.5364   53.2891   25.7463 H   0  0  0  0  0  0
    0.2164   52.2197   24.7258 H   0  0  0  0  0  0
   -1.1586   51.7884   28.7719 H   0  0  0  0  0  0
    0.9122   52.7768   29.5858 H   0  0  0  0  0  0
    4.0792   51.9882   28.8702 H   0  0  0  0  0  0
    4.4679   52.4968   27.2493 H   0  0  0  0  0  0
    6.0656   53.2966   29.2817 H   0  0  0  0  0  0
    5.7396   54.3900   27.9729 H   0  0  0  0  0  0
    4.9257   55.6966   29.6822 H   0  0  0  0  0  0
    4.4278   54.3185   30.6917 H   0  0  0  0  0  0
    2.8780   55.6890   28.5636 H   0  0  0  0  0  0
    2.3377   54.6264   29.8813 H   0  0  0  0  0  0
   -3.4613   50.1611   26.5473 H   0  0  0  0  0  0
   -2.0927   49.9489   27.5957 H   0  0  0  0  0  0
    5.7264   54.0368   19.6218 H   0  0  0  0  0  0
    6.8475   57.3353   16.9287 H   0  0  0  0  0  0
    6.5151   58.0972   18.4710 H   0  0  0  0  0  0
    5.3692   56.9493   17.7952 H   0  0  0  0  0  0
    7.5381   53.8571   18.2251 H   0  0  0  0  0  0
    5.9779   54.4248   17.6266 H   0  0  0  0  0  0
    7.4528   54.8475   16.7815 H   0  0  0  0  0  0
    9.2304   55.5568   19.2767 H   0  0  0  0  0  0
    9.1309   56.4423   17.7659 H   0  0  0  0  0  0
    8.8472   57.2719   19.2811 H   0  0  0  0  0  0
  1  2  1  0  0  0
  1 31  1  0  0  0
  1 32  1  0  0  0
  1 33  1  0  0  0
  2  6  2  0  0  0
  2  3  1  0  0  0
  3  4  2  0  0  0
  3 34  1  0  0  0
  4  5  1  0  0  0
  4 24  1  0  0  0
  5  6  1  0  0  0
  6  7  1  0  0  0
  7  8  2  0  0  0
  7  9  1  0  0  0
  9 10  1  0  0  0
  9 35  1  0  0  0
 10 15  2  0  0  0
 10 11  1  0  0  0
 11 12  2  0  0  0
 11 36  1  0  0  0
 12 13  1  0  0  0
 12 21  1  0  0  0
 13 14  2  0  0  0
 13 37  1  0  0  0
 14 15  1  0  0  0
 14 38  1  0  0  0
 15 16  1  0  0  0
 16 20  1  0  0  0
 16 17  1  0  0  0
 17 18  1  0  0  0
 17 39  1  0  0  0
 17 40  1  0  0  0
 18 19  1  0  0  0
 18 41  1  0  0  0
 18 42  1  0  0  0
 19 20  1  0  0  0
 19 43  1  0  0  0
 19 44  1  0  0  0
 20 45  1  0  0  0
 20 46  1  0  0  0
 21 22  2  0  0  0
 21 23  1  0  0  0
 23 47  1  0  0  0
 23 48  1  0  0  0
 24 25  1  0  0  0
 24 49  1  0  0  0
 25 26  2  0  0  0
 25 27  1  0  0  0
 27 28  1  0  0  0
 27 29  1  0  0  0
 27 30  1  0  0  0
 28 50  1  0  0  0
 28 51  1  0  0  0
 28 52  1  0  0  0
 29 53  1  0  0  0
 29 54  1  0  0  0
 29 55  1  0  0  0
 30 56  1  0  0  0
 30 57  1  0  0  0
 30 58  1  0  0  0
M  END
> <i_i_glide_confnum>
133

> <i_i_glide_lignum>
2501

> <i_i_glide_posenum>
346

> <i_i_glide_rotatable_bonds>
8

> <i_m_Source_File_Index>
1807

> <b_m_subgroup_collapsed>
0

> <r_i_docking_score>
-7.19127

> <r_i_glide_ecoul>
-8.2527

> <r_i_glide_eff_state_penalty>
0

> <r_i_glide_einternal>
8.87002

> <r_i_glide_emodel>
-69.586

> <r_i_glide_energy>
-49.5786

> <r_i_glide_erotb>
0.648981

> <r_i_glide_esite>
-0.134101

> <r_i_glide_evdw>
-41.3259

> <r_i_glide_gscore>
-7.19127

> <r_i_glide_hbond>
-0.456

> <r_i_glide_ligand_efficiency>
-0.239709

> <r_i_glide_ligand_efficiency_ln>
-1.63393

> <r_i_glide_ligand_efficiency_sa>
-0.744831

> <r_i_glide_lipo>
-2.59247

> <r_i_glide_metal>
0

> <r_i_glide_rewards>
-1.35347

> <s_i_glide_gridfile>
wee1_glide-grid

> <s_m_Source_File>
wee1_decoys_glide_SP.sdf

> <s_m_Source_Path>
/Users/zhangxujun/Desktop

> <s_m_entry_id>
2082

> <s_m_entry_name>
wee1_decoys_glide_SP.1807

> <s_m_subgroup_title>
wee1_decoys_glide_SP

> <s_m_subgroupid>
wee1_decoys_glide_SP


$$$$
