ZINC00285972_1677
                    3D
 Schrodinger Suite 2024-2.
 36 37  0  0  1  0            999 V2000
    3.5166   54.3020   24.2387 C   0  0  0  0  0  0
    2.9100   53.9193   25.4678 O   0  0  0  0  0  0
    1.8108   53.0857   25.4317 C   0  0  0  0  0  0
    1.1044   52.7564   24.2667 C   0  0  0  0  0  0
    0.0371   51.8641   24.3178 C   0  0  0  0  0  0
   -0.3526   51.2718   25.5271 C   0  0  0  0  0  0
    0.3408   51.6222   26.6991 C   0  0  0  0  0  0
    1.4025   52.5268   26.6416 C   0  0  0  0  0  0
    0.0513   51.0419   27.9063 O   0  0  0  0  0  0
   -0.8955   51.7493   28.6936 C   0  0  0  0  0  0
   -1.4717   50.2102   25.5350 C   0  0  2  0  0  0
   -1.7727   50.0967   26.5778 H   0  0  0  0  0  0
   -0.9041   48.8269   25.0693 C   0  0  1  0  0  0
   -0.0380   48.5763   25.6842 H   0  0  0  0  0  0
   -1.9186   47.6964   25.1794 C   0  0  0  0  0  0
   -1.6956   46.5614   25.6817 N   0  0  0  0  0  0
   -3.5541   47.9782   24.5267 S   0  0  0  0  0  0
   -3.6812   49.7384   24.3422 C   0  0  0  0  0  0
   -2.7664   50.6245   24.7981 C   0  0  0  0  0  0
   -3.0421   52.0209   24.6378 C   0  0  0  0  0  0
   -3.2973   53.1380   24.4732 N   0  0  0  0  0  0
   -4.8493   50.0747   23.7074 N   0  0  0  0  0  0
   -0.4478   48.8678   23.6682 C   0  0  0  0  0  0
   -0.0957   48.9000   22.5661 N   0  0  0  0  0  0
    4.4024   54.9013   24.4453 H   0  0  0  0  0  0
    3.8379   53.4308   23.6655 H   0  0  0  0  0  0
    2.8418   54.8984   23.6243 H   0  0  0  0  0  0
    1.3786   53.1695   23.3083 H   0  0  0  0  0  0
   -0.4732   51.6149   23.3988 H   0  0  0  0  0  0
    1.9444   52.7663   27.5440 H   0  0  0  0  0  0
   -1.0762   51.2053   29.6211 H   0  0  0  0  0  0
   -0.5293   52.7431   28.9573 H   0  0  0  0  0  0
   -1.8517   51.8509   28.1784 H   0  0  0  0  0  0
   -0.7548   46.4966   26.0728 H   0  0  0  0  0  0
   -5.1034   51.0401   23.5533 H   0  0  0  0  0  0
   -5.5041   49.3639   23.4148 H   0  0  0  0  0  0
  1  2  1  0  0  0
  1 25  1  0  0  0
  1 26  1  0  0  0
  1 27  1  0  0  0
  2  3  1  0  0  0
  3  8  2  0  0  0
  3  4  1  0  0  0
  4  5  2  0  0  0
  4 28  1  0  0  0
  5  6  1  0  0  0
  5 29  1  0  0  0
  6  7  2  0  0  0
  6 11  1  0  0  0
  7  8  1  0  0  0
  7  9  1  0  0  0
  8 30  1  0  0  0
  9 10  1  0  0  0
 10 31  1  0  0  0
 10 32  1  0  0  0
 10 33  1  0  0  0
 11 12  1  0  0  0
 11 19  1  0  0  0
 11 13  1  0  0  0
 13 14  1  0  0  0
 13 15  1  0  0  0
 13 23  1  0  0  0
 15 16  2  0  0  0
 15 17  1  0  0  0
 16 34  1  0  0  0
 17 18  1  0  0  0
 18 19  2  0  0  0
 18 22  1  0  0  0
 19 20  1  0  0  0
 20 21  3  0  0  0
 22 35  1  0  0  0
 22 36  1  0  0  0
 23 24  3  0  0  0
M  END
> <i_i_glide_confnum>
1

> <i_i_glide_lignum>
1678

> <i_i_glide_posenum>
63

> <i_i_glide_rotatable_bonds>
5

> <i_m_Source_File_Index>
2879

> <b_m_subgroup_collapsed>
0

> <r_i_docking_score>
-4.43165

> <r_i_glide_ecoul>
-6.7679

> <r_i_glide_eff_state_penalty>
0

> <r_i_glide_einternal>
13.0687

> <r_i_glide_emodel>
-32.5097

> <r_i_glide_energy>
-30.0551

> <r_i_glide_erotb>
0.188085

> <r_i_glide_esite>
-0.0946583

> <r_i_glide_evdw>
-23.2872

> <r_i_glide_gscore>
-4.43165

> <r_i_glide_hbond>
-0.32

> <r_i_glide_ligand_efficiency>
-0.201439

> <r_i_glide_ligand_efficiency_ln>
-1.08326

> <r_i_glide_ligand_efficiency_sa>
-0.564439

> <r_i_glide_lipo>
-0.746795

> <r_i_glide_metal>
0

> <r_i_glide_rewards>
-1.27874

> <s_i_glide_gridfile>
wee1_glide-grid

> <s_m_Source_File>
wee1_decoys_glide_SP.sdf

> <s_m_Source_Path>
/Users/zhangxujun/Desktop

> <s_m_entry_id>
3154

> <s_m_entry_name>
wee1_decoys_glide_SP.2879

> <s_m_subgroup_title>
wee1_decoys_glide_SP

> <s_m_subgroupid>
wee1_decoys_glide_SP


$$$$
