ZINC60446760_1341
                    3D
 Schrodinger Suite 2024-2.
 57 60  0  0  1  0            999 V2000
    5.2213   55.0919   25.3976 C   0  0  0  0  0  0
    4.2432   54.3111   24.5486 C   0  0  0  0  0  0
    4.4045   54.0963   23.1789 C   0  0  0  0  0  0
    3.0517   53.2575   22.4610 S   0  0  0  0  0  0
    2.3059   53.0618   24.0202 C   0  0  0  0  0  0
    3.0468   53.6920   25.0706 C   0  0  0  0  0  0
    2.4515   53.5810   26.3676 C   0  0  0  0  0  0
    1.2882   52.8901   26.5255 N   0  0  0  0  0  0
    0.7302   52.3101   25.4427 C   0  0  0  0  0  0
    1.1713   52.3750   24.1672 N   0  0  0  0  0  0
   -0.5142   51.4792   25.7002 C   0  0  0  0  0  0
   -1.8014   52.3282   25.7494 N   0  3  0  0  0  0
   -2.2708   52.8381   24.3709 C   0  0  0  0  0  0
   -3.7721   53.1006   24.5371 C   0  0  0  0  0  0
   -4.2000   52.4438   25.8546 C   0  0  0  0  0  0
   -3.0237   51.5794   26.3064 C   0  0  0  0  0  0
    3.0436   54.0803   27.5362 N   0  0  0  0  0  0
    2.2096   54.5222   28.6824 C   0  0  0  0  0  0
    1.8025   53.3117   29.5724 C   0  0  1  0  0  0
    3.0212   52.6356   30.2255 C   0  0  0  0  0  0
    3.9260   52.2410   29.0392 C   0  0  0  0  0  0
    4.2658   53.4423   28.0997 C   0  0  2  0  0  0
    5.2765   54.4044   28.7666 C   0  0  0  0  0  0
    0.6054   53.5653   30.5024 C   0  0  0  0  0  0
    0.3149   54.6956   30.8816 O   0  0  0  0  0  0
   -0.0958   52.4966   30.8817 N   0  0  0  0  0  0
    5.5438   54.5171   22.2757 C   0  0  0  0  0  0
    5.8296   55.7858   24.8191 H   0  0  0  0  0  0
    4.6983   55.6979   26.1297 H   0  0  0  0  0  0
    5.9143   54.4385   25.9260 H   0  0  0  0  0  0
   -0.6664   50.7066   24.9427 H   0  0  0  0  0  0
   -0.4525   50.9745   26.6683 H   0  0  0  0  0  0
   -1.6612   53.6967   24.0817 H   0  0  0  0  0  0
   -2.0853   52.0285   23.6615 H   0  0  0  0  0  0
   -3.9866   54.1708   24.5401 H   0  0  0  0  0  0
   -4.3200   52.6706   23.6972 H   0  0  0  0  0  0
   -5.1057   51.8464   25.7339 H   0  0  0  0  0  0
   -4.4167   53.2025   26.6078 H   0  0  0  0  0  0
   -3.0204   50.5869   25.8492 H   0  0  0  0  0  0
   -2.9075   51.4647   27.3863 H   0  0  0  0  0  0
    1.3495   55.1100   28.3553 H   0  0  0  0  0  0
    2.8082   55.2179   29.2714 H   0  0  0  0  0  0
    1.3377   52.5656   28.9313 H   0  0  0  0  0  0
    3.5855   53.2998   30.8776 H   0  0  0  0  0  0
    2.7551   51.7147   30.7459 H   0  0  0  0  0  0
    4.8292   51.7271   29.3697 H   0  0  0  0  0  0
    3.3405   51.5137   28.4819 H   0  0  0  0  0  0
    4.8030   53.0096   27.2545 H   0  0  0  0  0  0
    6.2439   53.9170   28.8875 H   0  0  0  0  0  0
    5.4523   55.2969   28.1725 H   0  0  0  0  0  0
    4.9552   54.7446   29.7490 H   0  0  0  0  0  0
    0.1237   51.5826   30.5217 H   0  0  0  0  0  0
   -0.8212   52.5629   31.5916 H   0  0  0  0  0  0
    5.2366   55.3011   21.5834 H   0  0  0  0  0  0
    6.4074   54.8938   22.8206 H   0  0  0  0  0  0
    5.9000   53.6834   21.6726 H   0  0  0  0  0  0
   -1.6105   53.1203   26.3490 H   0  0  0  0  0  0
  1  2  1  0  0  0
  1 28  1  0  0  0
  1 29  1  0  0  0
  1 30  1  0  0  0
  2  6  1  0  0  0
  2  3  2  0  0  0
  3  4  1  0  0  0
  3 27  1  0  0  0
  4  5  1  0  0  0
  5 10  2  0  0  0
  5  6  1  0  0  0
  6  7  2  0  0  0
  7  8  1  0  0  0
  7 17  1  0  0  0
  8  9  2  0  0  0
  9 10  1  0  0  0
  9 11  1  0  0  0
 11 12  1  0  0  0
 11 31  1  0  0  0
 11 32  1  0  0  0
 12 16  1  0  0  0
 12 13  1  0  0  0
 12 57  1  0  0  0
 13 14  1  0  0  0
 13 33  1  0  0  0
 13 34  1  0  0  0
 14 15  1  0  0  0
 14 35  1  0  0  0
 14 36  1  0  0  0
 15 16  1  0  0  0
 15 37  1  0  0  0
 15 38  1  0  0  0
 16 39  1  0  0  0
 16 40  1  0  0  0
 17 22  1  0  0  0
 17 18  1  0  0  0
 18 19  1  0  0  0
 18 41  1  0  0  0
 18 42  1  0  0  0
 19 20  1  0  0  0
 19 24  1  0  0  0
 19 43  1  0  0  0
 20 21  1  0  0  0
 20 44  1  0  0  0
 20 45  1  0  0  0
 21 22  1  0  0  0
 21 46  1  0  0  0
 21 47  1  0  0  0
 22 23  1  0  0  0
 22 48  1  0  0  0
 23 49  1  0  0  0
 23 50  1  0  0  0
 23 51  1  0  0  0
 24 25  2  0  0  0
 24 26  1  0  0  0
 26 52  1  0  0  0
 26 53  1  0  0  0
 27 54  1  0  0  0
 27 55  1  0  0  0
 27 56  1  0  0  0
M  CHG  1  12   1
M  END
> <i_i_glide_confnum>
16

> <i_i_glide_lignum>
1342

> <i_i_glide_posenum>
56

> <i_i_glide_rotatable_bonds>
4

> <i_m_Source_File_Index>
4965

> <b_m_subgroup_collapsed>
0

> <r_i_docking_score>
-6.14467

> <r_i_glide_ecoul>
-0.539319

> <r_i_glide_eff_state_penalty>
0

> <r_i_glide_einternal>
10.1474

> <r_i_glide_emodel>
-53.385

> <r_i_glide_energy>
-40.8605

> <r_i_glide_erotb>
0.387195

> <r_i_glide_esite>
-0.104686

> <r_i_glide_evdw>
-40.3212

> <r_i_glide_gscore>
-6.14467

> <r_i_glide_hbond>
-0.148922

> <r_i_glide_ligand_efficiency>
-0.22758

> <r_i_glide_ligand_efficiency_ln>
-1.43038

> <r_i_glide_ligand_efficiency_sa>
-0.682741

> <r_i_glide_lipo>
-2.84783

> <r_i_glide_metal>
0

> <r_i_glide_rewards>
-1.33347

> <s_i_glide_gridfile>
wee1_glide-grid

> <s_m_Source_File>
wee1_decoys_glide_SP.sdf

> <s_m_Source_Path>
/Users/zhangxujun/Desktop

> <s_m_entry_id>
5240

> <s_m_entry_name>
wee1_decoys_glide_SP.4965

> <s_m_subgroup_title>
wee1_decoys_glide_SP

> <s_m_subgroupid>
wee1_decoys_glide_SP


$$$$
