ZINC39575890_332
                    3D
 Schrodinger Suite 2024-2.
 59 63  0  0  1  0            999 V2000
    6.4286   54.6574   27.2113 C   0  0  0  0  0  0
    5.9284   54.4643   25.7904 C   0  0  0  0  0  0
    6.8395   54.3741   24.7401 C   0  0  0  0  0  0
    6.3938   54.1108   23.4507 C   0  0  0  0  0  0
    5.0272   53.9636   23.1795 C   0  0  0  0  0  0
    4.1180   54.0981   24.2365 C   0  0  0  0  0  0
    4.5636   54.3350   25.5355 C   0  0  0  0  0  0
    4.5916   53.7165   21.8545 N   0  0  0  0  0  0
    4.0728   52.3931   21.4811 C   0  0  2  0  0  0
    4.8212   51.6308   21.7070 H   0  0  0  0  0  0
    4.0084   52.5759   20.0366 N   0  0  0  0  0  0
    4.7361   53.6994   19.6470 N   0  0  0  0  0  0
    4.9986   54.3488   20.6928 C   0  0  0  0  0  0
    5.9067   55.9189   20.7684 S   0  0  0  0  0  0
    6.2905   56.1913   19.0094 C   0  0  0  0  0  0
    7.5694   55.4682   18.5796 C   0  0  0  0  0  0
    8.6518   55.9862   18.8517 O   0  0  0  0  0  0
    7.3880   54.2962   17.9123 N   0  0  0  0  0  0
    8.2727   53.4402   17.2823 N   0  0  0  0  0  0
    9.5444   53.5565   17.3743 C   0  0  0  0  0  0
   10.4768   52.6996   16.6883 C   0  0  0  0  0  0
   10.2188   51.7910   15.7154 C   0  0  0  0  0  0
    8.9682   51.3564   15.0595 C   0  0  0  0  0  0
    8.9816   50.4295   14.0819 C   0  0  0  0  0  0
   10.2648   49.8702   13.6874 C   0  0  0  0  0  0
   11.4259   50.2438   14.2819 C   0  0  0  0  0  0
   11.4240   51.2049   15.2995 C   0  0  0  0  0  0
   12.4396   51.6905   15.9689 N   0  3  0  0  0  0
   11.9722   52.6944   16.9350 C   0  0  0  0  0  0
    2.7046   51.9649   22.0350 C   0  0  0  0  0  0
    1.7010   52.8998   22.3101 C   0  0  0  0  0  0
    0.5016   52.4957   22.8907 C   0  0  0  0  0  0
    0.2759   51.1444   23.1401 C   0  0  0  0  0  0
    1.2396   50.1960   22.8101 C   0  0  0  0  0  0
    2.4455   50.6058   22.2499 C   0  0  0  0  0  0
   -1.2132   50.6437   23.8530 Cl  0  0  0  0  0  0
    6.6979   55.6961   27.3885 H   0  0  0  0  0  0
    5.6832   54.3530   27.9470 H   0  0  0  0  0  0
    7.3134   54.0439   27.3896 H   0  0  0  0  0  0
    7.9009   54.4968   24.9065 H   0  0  0  0  0  0
    7.1233   54.0336   22.6578 H   0  0  0  0  0  0
    3.0583   54.0217   24.0757 H   0  0  0  0  0  0
    3.8462   54.4101   26.3396 H   0  0  0  0  0  0
    4.3061   51.7995   19.4538 H   0  0  0  0  0  0
    5.4423   55.9204   18.3779 H   0  0  0  0  0  0
    6.4424   57.2608   18.8636 H   0  0  0  0  0  0
    6.4295   54.0051   17.7804 H   0  0  0  0  0  0
   10.0598   54.2935   17.9821 H   0  0  0  0  0  0
    8.0048   51.7535   15.3423 H   0  0  0  0  0  0
    8.0663   50.1044   13.6078 H   0  0  0  0  0  0
   10.3087   49.1467   12.8853 H   0  0  0  0  0  0
   12.3452   49.7956   13.9289 H   0  0  0  0  0  0
   12.4616   53.6430   16.7073 H   0  0  0  0  0  0
   12.2520   52.3538   17.9332 H   0  0  0  0  0  0
    1.8686   53.9478   22.1027 H   0  0  0  0  0  0
   -0.2489   53.2214   23.1593 H   0  0  0  0  0  0
    1.0583   49.1474   22.9960 H   0  0  0  0  0  0
    3.1762   49.8566   21.9980 H   0  0  0  0  0  0
   13.4125   51.4229   15.8418 H   0  0  0  0  0  0
  1  2  1  0  0  0
  1 37  1  0  0  0
  1 38  1  0  0  0
  1 39  1  0  0  0
  2  7  2  0  0  0
  2  3  1  0  0  0
  3  4  2  0  0  0
  3 40  1  0  0  0
  4  5  1  0  0  0
  4 41  1  0  0  0
  5  6  2  0  0  0
  5  8  1  0  0  0
  6  7  1  0  0  0
  6 42  1  0  0  0
  7 43  1  0  0  0
  8 13  1  0  0  0
  8  9  1  0  0  0
  9 10  1  0  0  0
  9 11  1  0  0  0
  9 30  1  0  0  0
 11 12  1  0  0  0
 11 44  1  0  0  0
 12 13  2  0  0  0
 13 14  1  0  0  0
 14 15  1  0  0  0
 15 16  1  0  0  0
 15 45  1  0  0  0
 15 46  1  0  0  0
 16 17  2  0  0  0
 16 18  1  0  0  0
 18 19  1  0  0  0
 18 47  1  0  0  0
 19 20  2  0  0  0
 20 21  1  0  0  0
 20 48  1  0  0  0
 21 29  1  0  0  0
 21 22  2  0  0  0
 22 27  1  0  0  0
 22 23  1  0  0  0
 23 24  2  0  0  0
 23 49  1  0  0  0
 24 25  1  0  0  0
 24 50  1  0  0  0
 25 26  2  0  0  0
 25 51  1  0  0  0
 26 27  1  0  0  0
 26 52  1  0  0  0
 27 28  2  0  0  0
 28 29  1  0  0  0
 28 59  1  0  0  0
 29 53  1  0  0  0
 29 54  1  0  0  0
 30 35  2  0  0  0
 30 31  1  0  0  0
 31 32  2  0  0  0
 31 55  1  0  0  0
 32 33  1  0  0  0
 32 56  1  0  0  0
 33 34  2  0  0  0
 33 36  1  0  0  0
 34 35  1  0  0  0
 34 57  1  0  0  0
 35 58  1  0  0  0
M  CHG  1  28   1
M  END
> <i_i_glide_confnum>
40

> <i_i_glide_lignum>
333

> <i_i_glide_posenum>
253

> <i_i_glide_rotatable_bonds>
8

> <i_m_Source_File_Index>
1605

> <b_m_subgroup_collapsed>
0

> <r_i_docking_score>
-5.56786

> <r_i_glide_ecoul>
-2.51769

> <r_i_glide_eff_state_penalty>
0

> <r_i_glide_einternal>
10.0479

> <r_i_glide_emodel>
-60.7194

> <r_i_glide_energy>
-46.4584

> <r_i_glide_erotb>
0.563318

> <r_i_glide_esite>
-0.0339575

> <r_i_glide_evdw>
-43.9407

> <r_i_glide_gscore>
-5.56786

> <r_i_glide_hbond>
-0.0838354

> <r_i_glide_ligand_efficiency>
-0.159082

> <r_i_glide_ligand_efficiency_ln>
-1.22227

> <r_i_glide_ligand_efficiency_sa>
-0.520367

> <r_i_glide_lipo>
-2.81866

> <r_i_glide_metal>
0

> <r_i_glide_rewards>
-0.620034

> <s_i_glide_gridfile>
wee1_glide-grid

> <s_m_Source_File>
wee1_decoys_glide_SP.sdf

> <s_m_Source_Path>
/Users/zhangxujun/Desktop

> <s_m_entry_id>
1880

> <s_m_entry_name>
wee1_decoys_glide_SP.1605

> <s_m_subgroup_title>
wee1_decoys_glide_SP

> <s_m_subgroupid>
wee1_decoys_glide_SP


$$$$
