ZINC22746205_6115
                    3D
 Schrodinger Suite 2024-2.
 61 63  0  0  1  0            999 V2000
   -1.8613   52.2654   23.4712 C   0  0  0  0  0  0
   -0.5050   52.4092   22.7925 C   0  0  0  0  0  0
   -0.4464   52.0959   21.5479 N   0  0  0  0  0  0
    0.7815   52.0467   20.9797 N   0  0  0  0  0  0
    0.9957   51.9197   19.6540 C   0  0  0  0  0  0
    0.0927   51.6654   18.8489 O   0  0  0  0  0  0
    2.4499   52.1324   19.1415 C   0  0  1  0  0  0
    2.4112   52.9996   17.8517 C   0  0  0  0  0  0
    3.8377   53.2580   17.3305 C   0  0  0  0  0  0
    4.7278   53.9686   18.3875 C   0  0  1  0  0  0
    4.8067   53.0233   19.6202 C   0  0  0  0  0  0
    3.4161   52.7277   20.2141 C   0  0  0  0  0  0
    6.1286   54.4428   17.8395 C   0  0  0  0  0  0
    6.9766   53.2571   17.3158 C   0  0  0  0  0  0
    6.9297   55.1716   18.9486 C   0  0  0  0  0  0
    5.9416   55.4569   16.6810 C   0  0  0  0  0  0
    0.6032   52.8753   23.6822 C   0  0  0  0  0  0
    1.6260   53.7175   23.2134 C   0  0  0  0  0  0
    2.6897   54.1024   24.0264 C   0  0  0  0  0  0
    2.7237   53.6986   25.3558 C   0  0  0  0  0  0
    1.6833   52.9353   25.8758 C   0  0  0  0  0  0
    0.6496   52.4971   25.0343 C   0  0  0  0  0  0
    1.7221   52.6448   27.2414 N   0  0  0  0  0  0
    0.6743   52.6740   28.0880 C   0  0  0  0  0  0
   -0.4952   52.8831   27.7616 O   0  0  0  0  0  0
    1.0285   52.4804   29.4628 C   0  0  0  0  0  0
    0.2472   52.5004   30.6087 C   0  0  0  0  0  0
    1.1045   52.2797   31.6826 C   0  0  0  0  0  0
    2.3683   52.0975   31.1470 C   0  0  0  0  0  0
    2.3239   52.2284   29.8006 O   0  0  0  0  0  0
    4.0513   51.6972   31.9258 Br  0  0  0  0  0  0
   -2.0898   53.1300   24.0955 H   0  0  0  0  0  0
   -2.6709   52.1527   22.7470 H   0  0  0  0  0  0
   -1.8904   51.3697   24.0938 H   0  0  0  0  0  0
    1.5498   52.2414   21.6047 H   0  0  0  0  0  0
    2.7717   51.1359   18.8275 H   0  0  0  0  0  0
    1.9882   53.9854   18.0583 H   0  0  0  0  0  0
    1.8710   52.4985   17.0448 H   0  0  0  0  0  0
    3.7516   53.8720   16.4358 H   0  0  0  0  0  0
    4.3037   52.3340   16.9854 H   0  0  0  0  0  0
    4.1863   54.8639   18.7023 H   0  0  0  0  0  0
    5.3255   52.0976   19.3792 H   0  0  0  0  0  0
    5.4117   53.4766   20.4023 H   0  0  0  0  0  0
    3.0634   53.6956   20.5684 H   0  0  0  0  0  0
    3.5764   52.0301   21.0373 H   0  0  0  0  0  0
    7.9714   53.5796   17.0060 H   0  0  0  0  0  0
    6.5162   52.7801   16.4499 H   0  0  0  0  0  0
    7.1085   52.4846   18.0723 H   0  0  0  0  0  0
    6.3376   55.9568   19.4194 H   0  0  0  0  0  0
    7.2650   54.4963   19.7346 H   0  0  0  0  0  0
    7.8300   55.6448   18.5524 H   0  0  0  0  0  0
    5.2785   56.2745   16.9679 H   0  0  0  0  0  0
    6.8904   55.9038   16.3777 H   0  0  0  0  0  0
    5.5260   54.9942   15.7867 H   0  0  0  0  0  0
    1.6018   54.1004   22.2050 H   0  0  0  0  0  0
    3.4726   54.7319   23.6309 H   0  0  0  0  0  0
    3.5400   54.0212   25.9851 H   0  0  0  0  0  0
   -0.1199   51.8613   25.4466 H   0  0  0  0  0  0
    2.6387   52.5338   27.6511 H   0  0  0  0  0  0
   -0.8222   52.6491   30.6654 H   0  0  0  0  0  0
    0.8198   52.2238   32.7246 H   0  0  0  0  0  0
  1  2  1  0  0  0
  1 32  1  0  0  0
  1 33  1  0  0  0
  1 34  1  0  0  0
  2  3  2  0  0  0
  2 17  1  0  0  0
  3  4  1  0  0  0
  4  5  1  0  0  0
  4 35  1  0  0  0
  5  6  2  0  0  0
  5  7  1  0  0  0
  7 12  1  0  0  0
  7  8  1  0  0  0
  7 36  1  0  0  0
  8  9  1  0  0  0
  8 37  1  0  0  0
  8 38  1  0  0  0
  9 10  1  0  0  0
  9 39  1  0  0  0
  9 40  1  0  0  0
 10 11  1  0  0  0
 10 13  1  0  0  0
 10 41  1  0  0  0
 11 12  1  0  0  0
 11 42  1  0  0  0
 11 43  1  0  0  0
 12 44  1  0  0  0
 12 45  1  0  0  0
 13 14  1  0  0  0
 13 15  1  0  0  0
 13 16  1  0  0  0
 14 46  1  0  0  0
 14 47  1  0  0  0
 14 48  1  0  0  0
 15 49  1  0  0  0
 15 50  1  0  0  0
 15 51  1  0  0  0
 16 52  1  0  0  0
 16 53  1  0  0  0
 16 54  1  0  0  0
 17 22  2  0  0  0
 17 18  1  0  0  0
 18 19  2  0  0  0
 18 55  1  0  0  0
 19 20  1  0  0  0
 19 56  1  0  0  0
 20 21  2  0  0  0
 20 57  1  0  0  0
 21 22  1  0  0  0
 21 23  1  0  0  0
 22 58  1  0  0  0
 23 24  1  0  0  0
 23 59  1  0  0  0
 24 25  2  0  0  0
 24 26  1  0  0  0
 26 30  1  0  0  0
 26 27  2  0  0  0
 27 28  1  0  0  0
 27 60  1  0  0  0
 28 29  2  0  0  0
 28 61  1  0  0  0
 29 30  1  0  0  0
 29 31  1  0  0  0
M  END
> <i_i_glide_confnum>
116

> <i_i_glide_lignum>
6116

> <i_i_glide_posenum>
165

> <i_i_glide_rotatable_bonds>
8

> <i_m_Source_File_Index>
776

> <b_m_subgroup_collapsed>
0

> <r_i_docking_score>
-3.57708

> <r_i_glide_ecoul>
-4.25379

> <r_i_glide_eff_state_penalty>
0

> <r_i_glide_einternal>
12.0442

> <r_i_glide_emodel>
-44.4681

> <r_i_glide_energy>
-40.3455

> <r_i_glide_erotb>
0.596743

> <r_i_glide_esite>
-0.0271606

> <r_i_glide_evdw>
-36.0918

> <r_i_glide_gscore>
-3.57708

> <r_i_glide_hbond>
-0.0697903

> <r_i_glide_ligand_efficiency>
-0.11539

> <r_i_glide_ligand_efficiency_ln>
-0.806742

> <r_i_glide_ligand_efficiency_sa>
-0.362483

> <r_i_glide_lipo>
-1.5017

> <r_i_glide_metal>
0

> <r_i_glide_rewards>
-0.132519

> <s_i_glide_gridfile>
wee1_glide-grid

> <s_m_Source_File>
wee1_decoys_glide_SP.sdf

> <s_m_Source_Path>
/Users/zhangxujun/Desktop

> <s_m_entry_id>
1051

> <s_m_entry_name>
wee1_decoys_glide_SP.776

> <s_m_subgroup_title>
wee1_decoys_glide_SP

> <s_m_subgroupid>
wee1_decoys_glide_SP


$$$$
