ZINC59357406_2216
                    3D
 Schrodinger Suite 2024-2.
 64 67  0  0  1  0            999 V2000
    4.5804   54.8382   29.5400 C   0  0  0  0  0  0
    4.5157   53.6327   28.5936 C   0  0  1  0  0  0
    5.4335   53.0653   28.7632 H   0  0  0  0  0  0
    3.3664   52.6517   28.9396 C   0  0  0  0  0  0
    1.9861   53.0375   28.3894 C   0  0  0  0  0  0
    2.0880   53.3835   26.9003 C   0  0  0  0  0  0
    3.1264   54.4966   26.6843 C   0  0  0  0  0  0
    4.4381   53.9910   27.1523 N   0  0  0  0  0  0
    5.5972   54.0973   26.4307 C   0  0  0  0  0  0
    6.7037   54.0493   26.9780 O   0  0  0  0  0  0
    5.5781   54.2397   24.9156 C   0  0  0  0  0  0
    6.6705   54.8420   24.2759 C   0  0  0  0  0  0
    6.7016   54.9814   22.8931 C   0  0  0  0  0  0
    5.6265   54.5249   22.1204 C   0  0  0  0  0  0
    4.5700   53.8561   22.7347 C   0  0  0  0  0  0
    4.5502   53.7121   24.1175 C   0  0  0  0  0  0
    5.5382   54.7219   20.7342 N   0  0  0  0  0  0
    6.0380   55.7568   20.0295 C   0  0  0  0  0  0
    6.7047   56.6910   20.4879 O   0  0  0  0  0  0
    5.6661   55.6906   18.7440 N   0  0  0  0  0  0
    5.8760   56.7625   17.7649 C   0  0  0  0  0  0
    7.3606   57.0462   17.4016 C   0  0  1  0  0  0
    7.7957   57.7494   18.1163 H   0  0  0  0  0  0
    8.2181   55.7913   17.2882 C   0  0  0  0  0  0
    9.4057   55.4869   17.9599 C   0  0  0  0  0  0
    9.9248   54.2241   17.6752 C   0  0  0  0  0  0
    9.1431   53.5188   16.7765 C   0  0  0  0  0  0
    7.7638   54.4357   16.2796 S   0  0  0  0  0  0
    7.4083   57.8154   16.0562 N   0  3  0  0  0  0
    6.7598   59.2159   16.1132 C   0  0  0  0  0  0
    7.2924   59.9328   14.8740 C   0  0  0  0  0  0
    8.6280   59.2660   14.5238 C   0  0  0  0  0  0
    8.8205   58.1059   15.5076 C   0  0  0  0  0  0
    4.5732   54.4966   30.5744 H   0  0  0  0  0  0
    3.7241   55.5008   29.4140 H   0  0  0  0  0  0
    5.5043   55.3977   29.3996 H   0  0  0  0  0  0
    3.6218   51.6967   28.4935 H   0  0  0  0  0  0
    3.3181   52.4628   30.0124 H   0  0  0  0  0  0
    1.2740   52.2236   28.5419 H   0  0  0  0  0  0
    1.5927   53.8911   28.9437 H   0  0  0  0  0  0
    2.3481   52.4970   26.3190 H   0  0  0  0  0  0
    1.1083   53.6967   26.5383 H   0  0  0  0  0  0
    3.1108   54.8995   25.6750 H   0  0  0  0  0  0
    2.8634   55.3367   27.3230 H   0  0  0  0  0  0
    7.5025   55.2226   24.8461 H   0  0  0  0  0  0
    7.5620   55.4591   22.4454 H   0  0  0  0  0  0
    3.7484   53.4680   22.1510 H   0  0  0  0  0  0
    3.7249   53.1726   24.5508 H   0  0  0  0  0  0
    4.8945   54.1120   20.2520 H   0  0  0  0  0  0
    5.2428   54.8407   18.4031 H   0  0  0  0  0  0
    5.3106   56.4987   16.8686 H   0  0  0  0  0  0
    5.4142   57.6767   18.1433 H   0  0  0  0  0  0
    9.8805   56.1671   18.6559 H   0  0  0  0  0  0
   10.8334   53.8357   18.1119 H   0  0  0  0  0  0
    9.3039   52.5251   16.3902 H   0  0  0  0  0  0
    5.6715   59.1305   16.1679 H   0  0  0  0  0  0
    7.1066   59.6801   17.0401 H   0  0  0  0  0  0
    6.5765   59.8377   14.0555 H   0  0  0  0  0  0
    7.4086   61.0001   15.0748 H   0  0  0  0  0  0
    9.4551   59.9740   14.6029 H   0  0  0  0  0  0
    8.6206   58.8981   13.4950 H   0  0  0  0  0  0
    9.4305   58.3917   16.3686 H   0  0  0  0  0  0
    9.2246   57.1882   15.0726 H   0  0  0  0  0  0
    6.9126   57.2553   15.3752 H   0  0  0  0  0  0
  1  2  1  0  0  0
  1 34  1  0  0  0
  1 35  1  0  0  0
  1 36  1  0  0  0
  2  3  1  0  0  0
  2  8  1  0  0  0
  2  4  1  0  0  0
  4  5  1  0  0  0
  4 37  1  0  0  0
  4 38  1  0  0  0
  5  6  1  0  0  0
  5 39  1  0  0  0
  5 40  1  0  0  0
  6  7  1  0  0  0
  6 41  1  0  0  0
  6 42  1  0  0  0
  7  8  1  0  0  0
  7 43  1  0  0  0
  7 44  1  0  0  0
  8  9  1  0  0  0
  9 10  2  0  0  0
  9 11  1  0  0  0
 11 16  2  0  0  0
 11 12  1  0  0  0
 12 13  2  0  0  0
 12 45  1  0  0  0
 13 14  1  0  0  0
 13 46  1  0  0  0
 14 15  2  0  0  0
 14 17  1  0  0  0
 15 16  1  0  0  0
 15 47  1  0  0  0
 16 48  1  0  0  0
 17 18  1  0  0  0
 17 49  1  0  0  0
 18 19  2  0  0  0
 18 20  1  0  0  0
 20 21  1  0  0  0
 20 50  1  0  0  0
 21 22  1  0  0  0
 21 51  1  0  0  0
 21 52  1  0  0  0
 22 23  1  0  0  0
 22 24  1  0  0  0
 22 29  1  0  0  0
 24 28  1  0  0  0
 24 25  2  0  0  0
 25 26  1  0  0  0
 25 53  1  0  0  0
 26 27  2  0  0  0
 26 54  1  0  0  0
 27 28  1  0  0  0
 27 55  1  0  0  0
 29 33  1  0  0  0
 29 30  1  0  0  0
 29 64  1  0  0  0
 30 31  1  0  0  0
 30 56  1  0  0  0
 30 57  1  0  0  0
 31 32  1  0  0  0
 31 58  1  0  0  0
 31 59  1  0  0  0
 32 33  1  0  0  0
 32 60  1  0  0  0
 32 61  1  0  0  0
 33 62  1  0  0  0
 33 63  1  0  0  0
M  CHG  1  29   1
M  END
> <i_i_glide_confnum>
228

> <i_i_glide_lignum>
2217

> <i_i_glide_posenum>
248

> <i_i_glide_rotatable_bonds>
9

> <i_m_Source_File_Index>
920

> <b_m_subgroup_collapsed>
0

> <r_i_docking_score>
-6.2825

> <r_i_glide_ecoul>
-7.30857

> <r_i_glide_eff_state_penalty>
0

> <r_i_glide_einternal>
6.14519

> <r_i_glide_emodel>
-64.4089

> <r_i_glide_energy>
-45.2958

> <r_i_glide_erotb>
0.921897

> <r_i_glide_esite>
-0.00228887

> <r_i_glide_evdw>
-37.9872

> <r_i_glide_gscore>
-6.2825

> <r_i_glide_hbond>
-0.288685

> <r_i_glide_ligand_efficiency>
-0.202661

> <r_i_glide_ligand_efficiency_ln>
-1.4169

> <r_i_glide_ligand_efficiency_sa>
-0.636637

> <r_i_glide_lipo>
-2.73203

> <r_i_glide_metal>
0

> <r_i_glide_rewards>
-1.18574

> <s_i_glide_gridfile>
wee1_glide-grid

> <s_m_Source_File>
wee1_decoys_glide_SP.sdf

> <s_m_Source_Path>
/Users/zhangxujun/Desktop

> <s_m_entry_id>
1195

> <s_m_entry_name>
wee1_decoys_glide_SP.920

> <s_m_subgroup_title>
wee1_decoys_glide_SP

> <s_m_subgroupid>
wee1_decoys_glide_SP


$$$$
