ZINC33168182_2195
                    3D
 Schrodinger Suite 2024-2.
 56 60  0  0  1  0            999 V2000
   11.7315   50.4879   14.4147 C   0  0  0  0  0  0
   10.6711   51.1707   15.3114 N   0  3  2  0  0  0
    9.3423   51.2991   14.5324 C   0  0  0  0  0  0
    8.2243   51.7418   15.5064 C   0  0  0  0  0  0
    8.6967   52.8548   16.4415 C   0  0  0  0  0  0
   10.0518   53.1974   16.5531 C   0  0  0  0  0  0
   10.3045   54.4968   17.6805 S   0  0  0  0  0  0
    8.6147   54.5545   18.0381 C   0  0  0  0  0  0
    7.8788   53.6550   17.2667 C   0  0  0  0  0  0
    6.4391   53.6775   17.4640 C   0  0  0  0  0  0
    5.8155   54.3659   18.3245 N   0  0  0  0  0  0
    6.5902   55.2506   19.2187 C   0  0  2  0  0  0
    6.1975   56.2543   19.0429 H   0  0  0  0  0  0
    8.0532   55.4043   18.9776 N   0  0  0  0  0  0
    6.1897   55.0032   20.6954 C   0  0  0  0  0  0
    4.9305   54.4767   21.0237 C   0  0  0  0  0  0
    4.5908   54.1976   22.3439 C   0  0  0  0  0  0
    5.4764   54.4730   23.3850 C   0  0  0  0  0  0
    6.7245   55.0265   23.0659 C   0  0  0  0  0  0
    7.0722   55.2967   21.7444 C   0  0  0  0  0  0
    4.9998   54.1859   24.6550 O   0  0  0  0  0  0
    5.5530   54.5793   25.8504 C   0  0  0  0  0  0
    6.6402   55.1493   25.9875 O   0  0  0  0  0  0
    4.6670   54.2390   27.0158 C   0  0  0  0  0  0
    3.3834   53.6965   26.8448 C   0  0  0  0  0  0
    2.5853   53.3952   27.9464 C   0  0  0  0  0  0
    3.0459   53.6540   29.2443 C   0  0  0  0  0  0
    4.3040   54.2266   29.4114 C   0  0  0  0  0  0
    5.1175   54.4966   28.3156 C   0  0  0  0  0  0
    2.3368   53.3776   30.3976 O   0  0  0  0  0  0
    1.0526   52.7678   30.2995 C   0  0  0  0  0  0
    5.6174   52.8968   16.7076 O   0  0  0  0  0  0
   11.1784   52.5680   15.7460 C   0  0  0  0  0  0
   11.8783   51.0925   13.5169 H   0  0  0  0  0  0
   12.6534   50.4068   14.9929 H   0  0  0  0  0  0
   11.3605   49.4949   14.1526 H   0  0  0  0  0  0
    9.5147   52.0143   13.7249 H   0  0  0  0  0  0
    9.1095   50.3201   14.1079 H   0  0  0  0  0  0
    7.9211   50.8989   16.1259 H   0  0  0  0  0  0
    7.3426   52.0366   14.9373 H   0  0  0  0  0  0
    8.5707   55.6861   19.7953 H   0  0  0  0  0  0
    4.2026   54.2571   20.2553 H   0  0  0  0  0  0
    3.6172   53.7815   22.5594 H   0  0  0  0  0  0
    7.4688   55.2491   23.8144 H   0  0  0  0  0  0
    8.0513   55.7120   21.5609 H   0  0  0  0  0  0
    2.9902   53.4849   25.8607 H   0  0  0  0  0  0
    1.6129   52.9603   27.7728 H   0  0  0  0  0  0
    4.6624   54.4661   30.4009 H   0  0  0  0  0  0
    6.0960   54.9246   28.4884 H   0  0  0  0  0  0
    0.6491   52.6085   31.3004 H   0  0  0  0  0  0
    1.1055   51.7944   29.8090 H   0  0  0  0  0  0
    0.3484   53.4030   29.7600 H   0  0  0  0  0  0
    5.0586   52.3774   17.2956 H   0  0  0  0  0  0
   11.4210   53.1412   14.8489 H   0  0  0  0  0  0
   12.0815   52.3922   16.3334 H   0  0  0  0  0  0
   10.5228   50.5867   16.1254 H   0  0  0  0  0  0
  1  2  1  0  0  0
  1 34  1  0  0  0
  1 35  1  0  0  0
  1 36  1  0  0  0
  2 33  1  0  0  0
  2  3  1  0  0  0
  2 56  1  0  0  0
  3  4  1  0  0  0
  3 37  1  0  0  0
  3 38  1  0  0  0
  4  5  1  0  0  0
  4 39  1  0  0  0
  4 40  1  0  0  0
  5  9  1  0  0  0
  5  6  2  0  0  0
  6  7  1  0  0  0
  6 33  1  0  0  0
  7  8  1  0  0  0
  8 14  1  0  0  0
  8  9  2  0  0  0
  9 10  1  0  0  0
 10 11  2  0  0  0
 10 32  1  0  0  0
 11 12  1  0  0  0
 12 13  1  0  0  0
 12 14  1  0  0  0
 12 15  1  0  0  0
 14 41  1  0  0  0
 15 20  2  0  0  0
 15 16  1  0  0  0
 16 17  2  0  0  0
 16 42  1  0  0  0
 17 18  1  0  0  0
 17 43  1  0  0  0
 18 19  2  0  0  0
 18 21  1  0  0  0
 19 20  1  0  0  0
 19 44  1  0  0  0
 20 45  1  0  0  0
 21 22  1  0  0  0
 22 23  2  0  0  0
 22 24  1  0  0  0
 24 29  2  0  0  0
 24 25  1  0  0  0
 25 26  2  0  0  0
 25 46  1  0  0  0
 26 27  1  0  0  0
 26 47  1  0  0  0
 27 28  2  0  0  0
 27 30  1  0  0  0
 28 29  1  0  0  0
 28 48  1  0  0  0
 29 49  1  0  0  0
 30 31  1  0  0  0
 31 50  1  0  0  0
 31 51  1  0  0  0
 31 52  1  0  0  0
 32 53  1  0  0  0
 33 54  1  0  0  0
 33 55  1  0  0  0
M  CHG  1   2   1
M  END
> <i_i_glide_confnum>
35

> <i_i_glide_lignum>
2196

> <i_i_glide_posenum>
315

> <i_i_glide_rotatable_bonds>
6

> <i_m_Source_File_Index>
2001

> <b_m_subgroup_collapsed>
0

> <r_i_docking_score>
-7.41767

> <r_i_glide_ecoul>
-9.39459

> <r_i_glide_eff_state_penalty>
0

> <r_i_glide_einternal>
9.48633

> <r_i_glide_emodel>
-74.3237

> <r_i_glide_energy>
-52.3941

> <r_i_glide_erotb>
0.395111

> <r_i_glide_esite>
-0.028333

> <r_i_glide_evdw>
-42.9995

> <r_i_glide_gscore>
-7.41767

> <r_i_glide_hbond>
-0.601444

> <r_i_glide_ligand_efficiency>
-0.231802

> <r_i_glide_ligand_efficiency_ln>
-1.66102

> <r_i_glide_ligand_efficiency_sa>
-0.735926

> <r_i_glide_lipo>
-2.36444

> <r_i_glide_metal>
0

> <r_i_glide_rewards>
-1.25939

> <s_i_glide_gridfile>
wee1_glide-grid

> <s_m_Source_File>
wee1_decoys_glide_SP.sdf

> <s_m_Source_Path>
/Users/zhangxujun/Desktop

> <s_m_entry_id>
2276

> <s_m_entry_name>
wee1_decoys_glide_SP.2001

> <s_m_subgroup_title>
wee1_decoys_glide_SP

> <s_m_subgroupid>
wee1_decoys_glide_SP


$$$$
