ZINC39529518_4895
                    3D
 Schrodinger Suite 2024-2.
 64 67  0  0  1  0            999 V2000
   -0.4988   49.2743   25.1883 C   0  0  0  0  0  0
    0.5372   50.1883   24.5105 C   0  0  0  0  0  0
    0.5610   49.9440   22.9909 C   0  0  0  0  0  0
    0.3713   51.7002   24.8210 C   0  0  0  0  0  0
    0.4227   52.1005   26.3066 C   0  0  0  0  0  0
    1.6637   52.4967   26.8209 C   0  0  0  0  0  0
    1.8219   52.8753   28.1534 C   0  0  0  0  0  0
    0.7393   52.7736   29.0204 C   0  0  0  0  0  0
   -0.4956   52.3680   28.5324 C   0  0  0  0  0  0
   -0.6998   52.0852   27.1717 C   0  0  0  0  0  0
   -2.0033   51.8037   26.7673 N   0  0  0  0  0  0
   -2.6752   52.4090   25.6080 C   0  0  0  0  0  0
   -4.1353   52.8310   25.8704 C   0  0  0  0  0  0
   -4.9201   51.6491   26.4569 N   0  3  0  0  0  0
   -4.2605   51.0993   27.7325 C   0  0  2  0  0  0
   -4.3154   51.9206   28.4471 H   0  0  0  0  0  0
   -2.7866   50.7572   27.4389 C   0  0  0  0  0  0
   -5.0391   49.9308   28.3534 C   0  0  0  0  0  0
   -6.0583   49.2545   27.6600 C   0  0  0  0  0  0
   -6.7477   48.2009   28.2594 C   0  0  0  0  0  0
   -6.4271   47.8019   29.5550 C   0  0  0  0  0  0
   -5.4092   48.4512   30.2486 C   0  0  0  0  0  0
   -4.7166   49.5064   29.6553 C   0  0  0  0  0  0
   -3.6969   50.0967   30.3570 O   0  0  0  0  0  0
    3.3860   53.5145   28.7566 S   0  0  0  0  0  0
    3.1441   54.0993   30.0813 O   0  0  0  0  0  0
    4.4218   52.4967   28.5619 O   0  0  0  0  0  0
    3.5967   54.7653   27.6594 O   0  0  0  0  0  0
    4.3806   54.5805   26.5472 C   0  0  0  0  0  0
    3.7900   54.4969   25.2854 C   0  0  0  0  0  0
    4.5826   54.3861   24.1467 C   0  0  0  0  0  0
    5.9682   54.3904   24.2723 C   0  0  0  0  0  0
    6.5629   54.4905   25.5263 C   0  0  0  0  0  0
    5.7711   54.5779   26.6682 C   0  0  0  0  0  0
   -1.5127   49.5159   24.8714 H   0  0  0  0  0  0
   -0.3195   48.2256   24.9458 H   0  0  0  0  0  0
   -0.4520   49.3513   26.2748 H   0  0  0  0  0  0
    1.5042   49.8681   24.8817 H   0  0  0  0  0  0
   -0.3926   50.2044   22.5287 H   0  0  0  0  0  0
    1.3391   50.5350   22.5057 H   0  0  0  0  0  0
    0.7679   48.8977   22.7627 H   0  0  0  0  0  0
   -0.5194   52.0825   24.3355 H   0  0  0  0  0  0
    1.1693   52.2405   24.3088 H   0  0  0  0  0  0
    2.5270   52.4963   26.1770 H   0  0  0  0  0  0
    0.8395   53.0300   30.0653 H   0  0  0  0  0  0
   -1.3125   52.3223   29.2349 H   0  0  0  0  0  0
   -2.1104   53.2661   25.2402 H   0  0  0  0  0  0
   -2.6588   51.6425   24.8311 H   0  0  0  0  0  0
   -4.2119   53.6507   26.5859 H   0  0  0  0  0  0
   -4.6547   53.1042   24.9510 H   0  0  0  0  0  0
   -4.9670   50.8967   25.7840 H   0  0  0  0  0  0
   -2.2880   50.4963   28.3696 H   0  0  0  0  0  0
   -2.7395   49.8463   26.8413 H   0  0  0  0  0  0
   -6.3328   49.5259   26.6522 H   0  0  0  0  0  0
   -7.5324   47.6911   27.7181 H   0  0  0  0  0  0
   -6.9667   46.9914   30.0221 H   0  0  0  0  0  0
   -5.1618   48.1413   31.2523 H   0  0  0  0  0  0
   -2.9586   49.4637   30.4818 H   0  0  0  0  0  0
    2.7162   54.5360   25.1823 H   0  0  0  0  0  0
    4.1254   54.3202   23.1707 H   0  0  0  0  0  0
    6.5881   54.3197   23.3901 H   0  0  0  0  0  0
    7.6344   54.4969   25.6056 H   0  0  0  0  0  0
    6.2285   54.6630   27.6435 H   0  0  0  0  0  0
   -5.8753   51.9087   26.6609 H   0  0  0  0  0  0
  1  2  1  0  0  0
  1 35  1  0  0  0
  1 36  1  0  0  0
  1 37  1  0  0  0
  2  3  1  0  0  0
  2  4  1  0  0  0
  2 38  1  0  0  0
  3 39  1  0  0  0
  3 40  1  0  0  0
  3 41  1  0  0  0
  4  5  1  0  0  0
  4 42  1  0  0  0
  4 43  1  0  0  0
  5 10  2  0  0  0
  5  6  1  0  0  0
  6  7  2  0  0  0
  6 44  1  0  0  0
  7  8  1  0  0  0
  7 25  1  0  0  0
  8  9  2  0  0  0
  8 45  1  0  0  0
  9 10  1  0  0  0
  9 46  1  0  0  0
 10 11  1  0  0  0
 11 17  1  0  0  0
 11 12  1  0  0  0
 12 13  1  0  0  0
 12 47  1  0  0  0
 12 48  1  0  0  0
 13 14  1  0  0  0
 13 49  1  0  0  0
 13 50  1  0  0  0
 14 15  1  0  0  0
 14 51  1  0  0  0
 14 64  1  0  0  0
 15 16  1  0  0  0
 15 17  1  0  0  0
 15 18  1  0  0  0
 17 52  1  0  0  0
 17 53  1  0  0  0
 18 23  2  0  0  0
 18 19  1  0  0  0
 19 20  2  0  0  0
 19 54  1  0  0  0
 20 21  1  0  0  0
 20 55  1  0  0  0
 21 22  2  0  0  0
 21 56  1  0  0  0
 22 23  1  0  0  0
 22 57  1  0  0  0
 23 24  1  0  0  0
 24 58  1  0  0  0
 25 26  2  0  0  0
 25 27  2  0  0  0
 25 28  1  0  0  0
 28 29  1  0  0  0
 29 34  2  0  0  0
 29 30  1  0  0  0
 30 31  2  0  0  0
 30 59  1  0  0  0
 31 32  1  0  0  0
 31 60  1  0  0  0
 32 33  2  0  0  0
 32 61  1  0  0  0
 33 34  1  0  0  0
 33 62  1  0  0  0
 34 63  1  0  0  0
M  CHG  1  14   1
M  END
> <i_i_glide_confnum>
89

> <i_i_glide_lignum>
4896

> <i_i_glide_posenum>
237

> <i_i_glide_rotatable_bonds>
8

> <i_m_Source_File_Index>
4599

> <b_m_subgroup_collapsed>
0

> <r_i_docking_score>
-5.86264

> <r_i_glide_ecoul>
-8.87102

> <r_i_glide_eff_state_penalty>
0

> <r_i_glide_einternal>
6.89805

> <r_i_glide_emodel>
-63.2518

> <r_i_glide_energy>
-46.2822

> <r_i_glide_erotb>
0.553858

> <r_i_glide_esite>
-0.103918

> <r_i_glide_evdw>
-37.4112

> <r_i_glide_gscore>
-5.86264

> <r_i_glide_hbond>
-0.16

> <r_i_glide_ligand_efficiency>
-0.177656

> <r_i_glide_ligand_efficiency_ln>
-1.30382

> <r_i_glide_ligand_efficiency_sa>
-0.569837

> <r_i_glide_lipo>
-2.36658

> <r_i_glide_metal>
0

> <r_i_glide_rewards>
-0.584783

> <s_i_glide_gridfile>
wee1_glide-grid

> <s_m_Source_File>
wee1_decoys_glide_SP.sdf

> <s_m_Source_Path>
/Users/zhangxujun/Desktop

> <s_m_entry_id>
4874

> <s_m_entry_name>
wee1_decoys_glide_SP.4599

> <s_m_subgroup_title>
wee1_decoys_glide_SP

> <s_m_subgroupid>
wee1_decoys_glide_SP


$$$$
