ZINC39686648_132
                    3D
 Schrodinger Suite 2024-2.
 72 75  0  0  1  0            999 V2000
    5.8673   54.2816   28.3167 C   0  0  0  0  0  0
    5.0131   54.1582   27.0634 C   0  0  0  0  0  0
    5.6319   54.2359   25.8142 C   0  0  0  0  0  0
    4.8857   54.0973   24.6462 C   0  0  0  0  0  0
    3.5060   53.8568   24.6995 C   0  0  0  0  0  0
    2.8815   53.8297   25.9544 C   0  0  0  0  0  0
    3.6222   53.9734   27.1341 C   0  0  0  0  0  0
    2.8992   53.9238   28.4731 C   0  0  0  0  0  0
    2.7350   53.7024   23.4067 C   0  0  0  0  0  0
    3.0120   54.4696   22.4832 O   0  0  0  0  0  0
    1.7953   52.7253   23.2706 N   0  0  0  0  0  0
    1.0772   52.5435   22.0044 C   0  0  0  0  0  0
    0.4489   51.1384   22.1152 C   0  0  1  0  0  0
    1.1444   50.4158   21.6836 H   0  0  0  0  0  0
    0.2787   50.8943   23.6429 C   0  0  0  0  0  0
    1.5225   51.6215   24.1953 C   0  0  0  0  0  0
   -1.0349   51.4928   24.2590 C   0  0  0  0  0  0
   -1.1429   51.2817   25.7907 C   0  0  0  0  0  0
   -1.0336   49.7672   26.0816 N   0  3  0  0  0  0
    0.2493   49.1450   25.4999 C   0  0  0  0  0  0
    0.2402   49.3841   23.9805 C   0  0  0  0  0  0
   -0.8725   51.0893   21.3017 C   0  0  0  0  0  0
   -1.5574   52.0967   21.1055 O   0  0  0  0  0  0
   -1.1982   49.8852   20.8040 N   0  0  0  0  0  0
   -2.3925   49.5790   20.0157 C   0  0  2  0  0  0
   -3.1641   50.3157   20.2573 H   0  0  0  0  0  0
   -2.9761   48.2228   20.4466 C   0  0  0  0  0  0
   -2.1482   49.6898   18.4902 C   0  0  0  0  0  0
   -1.1605   48.6674   17.9225 C   0  0  0  0  0  0
   -1.6628   47.4626   17.4178 C   0  0  0  0  0  0
   -0.8050   46.5059   16.8840 C   0  0  0  0  0  0
    0.5635   46.7501   16.8423 C   0  0  0  0  0  0
    1.0766   47.9491   17.3370 C   0  0  0  0  0  0
    0.2230   48.9247   17.8836 C   0  0  0  0  0  0
    0.6692   50.1343   18.3883 O   0  0  0  0  0  0
    2.0373   50.4956   18.2272 C   0  0  0  0  0  0
    6.9108   54.4973   28.0842 H   0  0  0  0  0  0
    5.5010   55.0799   28.9614 H   0  0  0  0  0  0
    5.8306   53.3520   28.8830 H   0  0  0  0  0  0
    6.6984   54.3866   25.7405 H   0  0  0  0  0  0
    5.3972   54.1532   23.6952 H   0  0  0  0  0  0
    1.8084   53.7280   26.0222 H   0  0  0  0  0  0
    3.0246   54.8674   29.0046 H   0  0  0  0  0  0
    1.8297   53.7331   28.3622 H   0  0  0  0  0  0
    3.3183   53.1344   29.0976 H   0  0  0  0  0  0
    1.7224   52.6064   21.1251 H   0  0  0  0  0  0
    0.3015   53.2966   22.0057 H   0  0  0  0  0  0
    1.4799   51.8395   25.2570 H   0  0  0  0  0  0
    2.3639   50.9403   24.0814 H   0  0  0  0  0  0
   -1.0771   52.5642   24.0546 H   0  0  0  0  0  0
   -1.9246   51.0775   23.7823 H   0  0  0  0  0  0
   -0.3578   51.7743   26.3657 H   0  0  0  0  0  0
   -2.1115   51.5965   26.1843 H   0  0  0  0  0  0
   -1.1033   49.5423   27.0774 H   0  0  0  0  0  0
    1.0997   49.5777   26.0271 H   0  0  0  0  0  0
    0.1903   48.0964   25.7519 H   0  0  0  0  0  0
   -0.6079   48.8906   23.5030 H   0  0  0  0  0  0
    1.1263   48.8966   23.5694 H   0  0  0  0  0  0
   -0.5523   49.1232   20.9332 H   0  0  0  0  0  0
   -3.8323   47.9593   19.8254 H   0  0  0  0  0  0
   -2.2506   47.4149   20.3414 H   0  0  0  0  0  0
   -3.3290   48.2512   21.4783 H   0  0  0  0  0  0
   -1.8077   50.6958   18.2350 H   0  0  0  0  0  0
   -3.1007   49.5794   17.9689 H   0  0  0  0  0  0
   -2.7245   47.2625   17.4425 H   0  0  0  0  0  0
   -1.2041   45.5808   16.4953 H   0  0  0  0  0  0
    1.2233   46.0096   16.4170 H   0  0  0  0  0  0
    2.1443   48.1065   17.2800 H   0  0  0  0  0  0
    2.2027   51.4856   18.6503 H   0  0  0  0  0  0
    2.7048   49.8037   18.7406 H   0  0  0  0  0  0
    2.3035   50.5370   17.1712 H   0  0  0  0  0  0
   -1.8263   49.2972   25.6676 H   0  0  0  0  0  0
  1  2  1  0  0  0
  1 37  1  0  0  0
  1 38  1  0  0  0
  1 39  1  0  0  0
  2  7  2  0  0  0
  2  3  1  0  0  0
  3  4  2  0  0  0
  3 40  1  0  0  0
  4  5  1  0  0  0
  4 41  1  0  0  0
  5  6  2  0  0  0
  5  9  1  0  0  0
  6  7  1  0  0  0
  6 42  1  0  0  0
  7  8  1  0  0  0
  8 43  1  0  0  0
  8 44  1  0  0  0
  8 45  1  0  0  0
  9 10  2  0  0  0
  9 11  1  0  0  0
 11 16  1  0  0  0
 11 12  1  0  0  0
 12 13  1  0  0  0
 12 46  1  0  0  0
 12 47  1  0  0  0
 13 14  1  0  0  0
 13 15  1  0  0  0
 13 22  1  0  0  0
 15 21  1  0  0  0
 15 16  1  0  0  0
 15 17  1  0  0  0
 16 48  1  0  0  0
 16 49  1  0  0  0
 17 18  1  0  0  0
 17 50  1  0  0  0
 17 51  1  0  0  0
 18 19  1  0  0  0
 18 52  1  0  0  0
 18 53  1  0  0  0
 19 20  1  0  0  0
 19 54  1  0  0  0
 19 72  1  0  0  0
 20 21  1  0  0  0
 20 55  1  0  0  0
 20 56  1  0  0  0
 21 57  1  0  0  0
 21 58  1  0  0  0
 22 23  2  0  0  0
 22 24  1  0  0  0
 24 25  1  0  0  0
 24 59  1  0  0  0
 25 26  1  0  0  0
 25 27  1  0  0  0
 25 28  1  0  0  0
 27 60  1  0  0  0
 27 61  1  0  0  0
 27 62  1  0  0  0
 28 29  1  0  0  0
 28 63  1  0  0  0
 28 64  1  0  0  0
 29 34  2  0  0  0
 29 30  1  0  0  0
 30 31  2  0  0  0
 30 65  1  0  0  0
 31 32  1  0  0  0
 31 66  1  0  0  0
 32 33  2  0  0  0
 32 67  1  0  0  0
 33 34  1  0  0  0
 33 68  1  0  0  0
 34 35  1  0  0  0
 35 36  1  0  0  0
 36 69  1  0  0  0
 36 70  1  0  0  0
 36 71  1  0  0  0
M  CHG  1  19   1
M  END
> <i_i_glide_confnum>
5

> <i_i_glide_lignum>
133

> <i_i_glide_posenum>
300

> <i_i_glide_rotatable_bonds>
8

> <i_m_Source_File_Index>
3628

> <b_m_subgroup_collapsed>
0

> <r_i_docking_score>
-5.23507

> <r_i_glide_ecoul>
-6.94519

> <r_i_glide_eff_state_penalty>
0

> <r_i_glide_einternal>
2.16877

> <r_i_glide_emodel>
-53.3818

> <r_i_glide_energy>
-39.302

> <r_i_glide_erotb>
0.653748

> <r_i_glide_esite>
-0.102598

> <r_i_glide_evdw>
-32.3568

> <r_i_glide_gscore>
-5.23507

> <r_i_glide_hbond>
-0.205042

> <r_i_glide_ligand_efficiency>
-0.153973

> <r_i_glide_ligand_efficiency_ln>
-1.15657

> <r_i_glide_ligand_efficiency_sa>
-0.498811

> <r_i_glide_lipo>
-2.09822

> <r_i_glide_metal>
0

> <r_i_glide_rewards>
-0.823337

> <s_i_glide_gridfile>
wee1_glide-grid

> <s_m_Source_File>
wee1_decoys_glide_SP.sdf

> <s_m_Source_Path>
/Users/zhangxujun/Desktop

> <s_m_entry_id>
3903

> <s_m_entry_name>
wee1_decoys_glide_SP.3628

> <s_m_subgroup_title>
wee1_decoys_glide_SP

> <s_m_subgroupid>
wee1_decoys_glide_SP


$$$$
