ZINC08809384_5022
                    3D
 Schrodinger Suite 2024-2.
 49 51  0  0  1  0            999 V2000
    6.1546   54.6413   24.3943 C   0  0  0  0  0  0
    6.1532   54.2189   23.0668 C   0  0  0  0  0  0
    4.9516   53.8755   22.4507 C   0  0  0  0  0  0
    3.7525   53.9519   23.1661 C   0  0  0  0  0  0
    3.7599   54.4020   24.4911 C   0  0  0  0  0  0
    4.9629   54.7354   25.1102 C   0  0  0  0  0  0
    2.4369   53.5510   22.5038 C   0  0  0  0  0  0
    1.9422   52.2846   23.0471 N   0  0  0  0  0  0
    1.0390   52.1514   24.0378 C   0  0  0  0  0  0
    0.4174   53.1167   24.4819 O   0  0  0  0  0  0
    0.9249   50.7938   24.5895 C   0  0  0  0  0  0
    0.6867   50.5705   25.9112 C   0  0  0  0  0  0
    0.5897   51.5037   27.0596 C   0  0  0  0  0  0
    1.5108   52.5392   27.2575 C   0  0  0  0  0  0
    1.4210   53.3581   28.3811 C   0  0  0  0  0  0
    0.4201   53.1288   29.3224 C   0  0  0  0  0  0
   -0.4953   52.0970   29.1405 C   0  0  0  0  0  0
   -0.4174   51.2969   28.0044 C   0  0  0  0  0  0
    0.3046   54.2227   30.8747 Br  0  0  0  0  0  0
    1.1046   49.6974   23.7739 N   0  0  0  0  0  0
    0.4625   49.4221   22.6178 C   0  0  0  0  0  0
    1.0696   48.9065   21.6809 O   0  0  0  0  0  0
   -1.0243   49.6869   22.5059 C   0  0  0  0  0  0
   -1.8693   49.5844   23.6195 C   0  0  0  0  0  0
   -3.2447   49.7399   23.4788 C   0  0  0  0  0  0
   -3.8087   49.9856   22.2209 C   0  0  0  0  0  0
   -2.9620   50.1059   21.1112 C   0  0  0  0  0  0
   -1.5850   49.9577   21.2526 C   0  0  0  0  0  0
   -5.2794   50.0956   22.0644 N   0  3  0  0  0  0
   -5.9723   50.1751   23.0747 O   0  0  0  0  0  0
   -5.7469   50.0976   20.9286 O   0  5  0  0  0  0
    7.0896   54.9018   24.8674 H   0  0  0  0  0  0
    7.0825   54.1578   22.5199 H   0  0  0  0  0  0
    4.9567   53.5412   21.4231 H   0  0  0  0  0  0
    2.8343   54.4790   25.0430 H   0  0  0  0  0  0
    4.9702   55.0686   26.1375 H   0  0  0  0  0  0
    2.5645   53.4530   21.4245 H   0  0  0  0  0  0
    1.7178   54.3601   22.6526 H   0  0  0  0  0  0
    2.3930   51.4494   22.7056 H   0  0  0  0  0  0
    0.5945   49.5360   26.2206 H   0  0  0  0  0  0
    2.3094   52.7015   26.5491 H   0  0  0  0  0  0
    2.1331   54.1566   28.5265 H   0  0  0  0  0  0
   -1.2630   51.9093   29.8781 H   0  0  0  0  0  0
   -1.1330   50.4972   27.8758 H   0  0  0  0  0  0
    1.7091   48.9633   24.1223 H   0  0  0  0  0  0
   -1.4806   49.3526   24.6010 H   0  0  0  0  0  0
   -3.8715   49.6398   24.3542 H   0  0  0  0  0  0
   -3.3679   50.2940   20.1273 H   0  0  0  0  0  0
   -0.9570   50.0323   20.3752 H   0  0  0  0  0  0
  1  6  2  0  0  0
  1  2  1  0  0  0
  1 32  1  0  0  0
  2  3  2  0  0  0
  2 33  1  0  0  0
  3  4  1  0  0  0
  3 34  1  0  0  0
  4  5  2  0  0  0
  4  7  1  0  0  0
  5  6  1  0  0  0
  5 35  1  0  0  0
  6 36  1  0  0  0
  7  8  1  0  0  0
  7 37  1  0  0  0
  7 38  1  0  0  0
  8  9  1  0  0  0
  8 39  1  0  0  0
  9 10  2  0  0  0
  9 11  1  0  0  0
 11 12  2  0  0  0
 11 20  1  0  0  0
 12 13  1  0  0  0
 12 40  1  0  0  0
 13 18  2  0  0  0
 13 14  1  0  0  0
 14 15  2  0  0  0
 14 41  1  0  0  0
 15 16  1  0  0  0
 15 42  1  0  0  0
 16 17  2  0  0  0
 16 19  1  0  0  0
 17 18  1  0  0  0
 17 43  1  0  0  0
 18 44  1  0  0  0
 20 21  1  0  0  0
 20 45  1  0  0  0
 21 22  2  0  0  0
 21 23  1  0  0  0
 23 28  2  0  0  0
 23 24  1  0  0  0
 24 25  2  0  0  0
 24 46  1  0  0  0
 25 26  1  0  0  0
 25 47  1  0  0  0
 26 27  2  0  0  0
 26 29  1  0  0  0
 27 28  1  0  0  0
 27 48  1  0  0  0
 28 49  1  0  0  0
 29 30  2  0  0  0
 29 31  1  0  0  0
M  CHG  2  29   1  31  -1
M  END
> <i_i_glide_confnum>
81

> <i_i_glide_lignum>
5023

> <i_i_glide_posenum>
22

> <i_i_glide_rotatable_bonds>
9

> <i_m_Source_File_Index>
570

> <b_m_subgroup_collapsed>
0

> <r_i_docking_score>
-2.25433

> <r_i_glide_ecoul>
-5.70433

> <r_i_glide_eff_state_penalty>
0

> <r_i_glide_einternal>
14.5703

> <r_i_glide_emodel>
-34.8828

> <r_i_glide_energy>
-44.4899

> <r_i_glide_erotb>
0.527393

> <r_i_glide_esite>
-0.00661485

> <r_i_glide_evdw>
-38.7856

> <r_i_glide_gscore>
-2.25433

> <r_i_glide_hbond>
-0.32

> <r_i_glide_ligand_efficiency>
-0.0727203

> <r_i_glide_ligand_efficiency_ln>
-0.50842

> <r_i_glide_ligand_efficiency_sa>
-0.228442

> <r_i_glide_lipo>
-2.38781

> <r_i_glide_metal>
0

> <r_i_glide_rewards>
2.72763

> <s_i_glide_gridfile>
wee1_glide-grid

> <s_m_Source_File>
wee1_decoys_glide_SP.sdf

> <s_m_Source_Path>
/Users/zhangxujun/Desktop

> <s_m_entry_id>
845

> <s_m_entry_name>
wee1_decoys_glide_SP.570

> <s_m_subgroup_title>
wee1_decoys_glide_SP

> <s_m_subgroupid>
wee1_decoys_glide_SP


$$$$
