ZINC44792171_1693
                    3D
 Schrodinger Suite 2024-2.
 48 49  0  0  1  0            999 V2000
    1.8771   53.6163   22.7150 C   0  0  0  0  0  0
    2.4629   52.4140   21.9473 C   0  0  2  0  0  0
    3.3227   52.0153   22.4819 H   0  0  0  0  0  0
    3.0192   52.8839   20.5875 C   0  0  0  0  0  0
    3.7559   51.7430   19.8752 C   0  0  0  0  0  0
    2.8391   50.5181   19.6825 C   0  0  0  0  0  0
    2.1251   50.0740   20.9774 C   0  0  0  0  0  0
    1.4410   51.2503   21.7238 C   0  0  1  0  0  0
    0.7208   51.6749   21.0216 H   0  0  0  0  0  0
    0.6565   50.8039   22.9081 N   0  0  0  0  0  0
    1.5198   50.4993   24.0548 C   0  0  0  0  0  0
   -0.6952   50.5825   22.8353 C   0  0  0  0  0  0
   -1.2629   50.7084   21.7448 O   0  0  0  0  0  0
   -1.5945   50.1919   24.0850 C   0  0  0  0  0  0
   -1.4359   51.2505   25.2453 C   0  0  0  0  0  0
   -2.0239   52.6400   24.9245 C   0  0  0  0  0  0
   -3.4011   52.5353   24.5850 O   0  0  0  0  0  0
   -3.6665   51.6995   23.4648 C   0  0  0  0  0  0
   -3.1256   50.2719   23.6939 C   0  0  0  0  0  0
   -1.2830   48.7135   24.5337 C   0  0  0  0  0  0
   -1.7748   47.7583   23.8377 N   0  0  0  0  0  0
   -1.6933   46.4960   24.4642 O   0  0  0  0  0  0
   -0.5211   48.5954   25.6817 N   0  0  0  0  0  0
    1.1049   54.0967   22.1195 H   0  0  0  0  0  0
    1.4352   53.3411   23.6722 H   0  0  0  0  0  0
    2.6433   54.3658   22.9160 H   0  0  0  0  0  0
    2.2313   53.2950   19.9562 H   0  0  0  0  0  0
    3.7095   53.7161   20.7365 H   0  0  0  0  0  0
    4.6408   51.4549   20.4452 H   0  0  0  0  0  0
    4.1151   52.0971   18.9073 H   0  0  0  0  0  0
    3.4180   49.6850   19.2819 H   0  0  0  0  0  0
    2.0901   50.7540   18.9249 H   0  0  0  0  0  0
    2.8494   49.5881   21.6323 H   0  0  0  0  0  0
    1.3824   49.3155   20.7263 H   0  0  0  0  0  0
    1.0248   50.1588   24.9471 H   0  0  0  0  0  0
    2.2304   49.7172   23.7852 H   0  0  0  0  0  0
    2.0955   51.3756   24.3453 H   0  0  0  0  0  0
   -0.4121   51.3987   25.5748 H   0  0  0  0  0  0
   -1.9612   50.8874   26.1321 H   0  0  0  0  0  0
   -1.4688   53.1056   24.1079 H   0  0  0  0  0  0
   -1.9320   53.2947   25.7908 H   0  0  0  0  0  0
   -3.2112   52.1351   22.5751 H   0  0  0  0  0  0
   -4.7429   51.6726   23.2914 H   0  0  0  0  0  0
   -3.7281   49.8326   24.4924 H   0  0  0  0  0  0
   -3.3478   49.6673   22.8116 H   0  0  0  0  0  0
   -1.3865   46.7320   25.3459 H   0  0  0  0  0  0
   -0.1764   47.7076   26.0275 H   0  0  0  0  0  0
   -0.5829   49.3242   26.3797 H   0  0  0  0  0  0
  1  2  1  0  0  0
  1 24  1  0  0  0
  1 25  1  0  0  0
  1 26  1  0  0  0
  2  3  1  0  0  0
  2  8  1  0  0  0
  2  4  1  0  0  0
  4  5  1  0  0  0
  4 27  1  0  0  0
  4 28  1  0  0  0
  5  6  1  0  0  0
  5 29  1  0  0  0
  5 30  1  0  0  0
  6  7  1  0  0  0
  6 31  1  0  0  0
  6 32  1  0  0  0
  7  8  1  0  0  0
  7 33  1  0  0  0
  7 34  1  0  0  0
  8  9  1  0  0  0
  8 10  1  0  0  0
 10 11  1  0  0  0
 10 12  1  0  0  0
 11 35  1  0  0  0
 11 36  1  0  0  0
 11 37  1  0  0  0
 12 13  2  0  0  0
 12 14  1  0  0  0
 14 19  1  0  0  0
 14 15  1  0  0  0
 14 20  1  0  0  0
 15 16  1  0  0  0
 15 38  1  0  0  0
 15 39  1  0  0  0
 16 17  1  0  0  0
 16 40  1  0  0  0
 16 41  1  0  0  0
 17 18  1  0  0  0
 18 19  1  0  0  0
 18 42  1  0  0  0
 18 43  1  0  0  0
 19 44  1  0  0  0
 19 45  1  0  0  0
 20 21  2  0  0  0
 20 23  1  0  0  0
 21 22  1  0  0  0
 22 46  1  0  0  0
 23 47  1  0  0  0
 23 48  1  0  0  0
M  END
> <i_i_glide_confnum>
22

> <i_i_glide_lignum>
1694

> <i_i_glide_posenum>
65

> <i_i_glide_rotatable_bonds>
5

> <i_m_Source_File_Index>
5359

> <b_m_subgroup_collapsed>
0

> <r_i_docking_score>
-3.16586

> <r_i_glide_ecoul>
-6.30902

> <r_i_glide_eff_state_penalty>
0

> <r_i_glide_einternal>
2.34034

> <r_i_glide_emodel>
-29.1038

> <r_i_glide_energy>
-24.8253

> <r_i_glide_erotb>
1.03654

> <r_i_glide_esite>
-0.23664

> <r_i_glide_evdw>
-18.5162

> <r_i_glide_gscore>
-3.16586

> <r_i_glide_hbond>
-0.322777

> <r_i_glide_ligand_efficiency>
-0.150755

> <r_i_glide_ligand_efficiency_ln>
-0.782753

> <r_i_glide_ligand_efficiency_sa>
-0.415922

> <r_i_glide_lipo>
-0.329707

> <r_i_glide_metal>
0

> <r_i_glide_rewards>
-1.44111

> <s_i_glide_gridfile>
wee1_glide-grid

> <s_m_Source_File>
wee1_decoys_glide_SP.sdf

> <s_m_Source_Path>
/Users/zhangxujun/Desktop

> <s_m_entry_id>
5634

> <s_m_entry_name>
wee1_decoys_glide_SP.5359

> <s_m_subgroup_title>
wee1_decoys_glide_SP

> <s_m_subgroupid>
wee1_decoys_glide_SP


$$$$
