ZINC09312009_864
                    3D
 Schrodinger Suite 2024-2.
 57 60  0  0  1  0            999 V2000
    1.1063   56.0113   30.4118 C   0  0  0  0  0  0
    1.7923   55.7189   29.2280 C   0  0  0  0  0  0
    1.7277   54.3431   29.0438 C   0  0  0  0  0  0
    1.0066   53.8085   30.0633 O   0  0  0  0  0  0
    0.6164   54.8085   30.8818 C   0  0  0  0  0  0
    2.3131   53.3599   28.0301 C   0  0  0  0  0  0
    1.3166   52.5171   27.3033 N   0  0  0  0  0  0
    1.0558   52.5631   25.9400 C   0  0  0  0  0  0
    0.0691   51.8582   25.3110 C   0  0  0  0  0  0
   -0.7418   50.9652   26.1471 C   0  0  0  0  0  0
   -0.3336   50.8967   27.4372 N   0  0  0  0  0  0
    0.6663   51.5734   28.0715 C   0  0  0  0  0  0
    0.9499   51.2967   29.2311 O   0  0  0  0  0  0
   -1.6966   50.2929   25.7749 O   0  0  0  0  0  0
   -0.1584   51.9257   23.7605 C   0  0  0  0  0  0
    1.7790   53.5263   23.8765 C   0  0  0  0  0  0
    1.8940   53.3516   25.1909 N   0  0  0  0  0  0
    2.7234   54.4637   23.1802 C   0  0  0  0  0  0
    4.1240   53.8750   22.8950 C   0  0  0  0  0  0
    4.2956   53.0774   21.5722 C   0  0  0  0  0  0
    3.1889   52.0245   21.3381 C   0  0  0  0  0  0
    3.3682   51.2386   20.0365 C   0  0  0  0  0  0
    3.4020   52.2068   18.8397 C   0  0  0  0  0  0
    4.5256   53.2507   19.0046 C   0  0  0  0  0  0
    4.3935   54.0149   20.3398 C   0  0  0  0  0  0
   -1.5725   52.4902   23.3927 C   0  0  0  0  0  0
   -1.7935   53.6792   23.9536 F   0  0  0  0  0  0
   -1.6934   52.6595   22.0746 F   0  0  0  0  0  0
   -2.5896   51.7028   23.7314 F   0  0  0  0  0  0
    0.1856   50.5486   23.0970 C   0  0  0  0  0  0
    0.2690   50.6506   21.7685 F   0  0  0  0  0  0
    1.3565   50.0704   23.5222 F   0  0  0  0  0  0
   -0.7276   49.6070   23.3281 F   0  0  0  0  0  0
    0.9976   56.9766   30.8761 H   0  0  0  0  0  0
    2.3044   56.4308   28.5999 H   0  0  0  0  0  0
    0.0493   54.5003   31.7492 H   0  0  0  0  0  0
    3.0204   52.7021   28.5385 H   0  0  0  0  0  0
    2.9375   53.9130   27.3318 H   0  0  0  0  0  0
   -0.8327   50.2106   27.9954 H   0  0  0  0  0  0
    2.6421   53.8505   25.6468 H   0  0  0  0  0  0
    2.8479   55.3038   23.8554 H   0  0  0  0  0  0
    2.2701   54.8670   22.2750 H   0  0  0  0  0  0
    4.4390   53.2855   23.7531 H   0  0  0  0  0  0
    4.8417   54.6970   22.8756 H   0  0  0  0  0  0
    5.2399   52.5299   21.6229 H   0  0  0  0  0  0
    2.2308   52.5276   21.2674 H   0  0  0  0  0  0
    3.1183   51.3476   22.1883 H   0  0  0  0  0  0
    2.5580   50.5183   19.9102 H   0  0  0  0  0  0
    4.2894   50.6589   20.0929 H   0  0  0  0  0  0
    2.4441   52.7204   18.7591 H   0  0  0  0  0  0
    3.5048   51.6576   17.9032 H   0  0  0  0  0  0
    4.5084   53.9505   18.1685 H   0  0  0  0  0  0
    5.4959   52.7518   18.9583 H   0  0  0  0  0  0
    5.2212   54.7156   20.4617 H   0  0  0  0  0  0
    3.5053   54.6415   20.2908 H   0  0  0  0  0  0
    0.8124   52.8973   23.2057 N   0  3  0  0  0  0
    0.7785   53.0756   22.2104 H   0  0  0  0  0  0
  1  5  2  0  0  0
  1  2  1  0  0  0
  1 34  1  0  0  0
  2  3  2  0  0  0
  2 35  1  0  0  0
  3  4  1  0  0  0
  3  6  1  0  0  0
  4  5  1  0  0  0
  5 36  1  0  0  0
  6 37  1  0  0  0
  6 38  1  0  0  0
  6  7  1  0  0  0
  7  8  1  0  0  0
  7 12  1  0  0  0
  8 17  1  0  0  0
  8  9  2  0  0  0
  9 10  1  0  0  0
  9 15  1  0  0  0
 10 11  1  0  0  0
 10 14  2  0  0  0
 11 12  1  0  0  0
 11 39  1  0  0  0
 12 13  2  0  0  0
 15 26  1  0  0  0
 15 30  1  0  0  0
 15 56  1  0  0  0
 16 17  1  0  0  0
 16 18  1  0  0  0
 16 56  2  0  0  0
 17 40  1  0  0  0
 18 19  1  0  0  0
 18 41  1  0  0  0
 18 42  1  0  0  0
 19 20  1  0  0  0
 19 43  1  0  0  0
 19 44  1  0  0  0
 20 25  1  0  0  0
 20 21  1  0  0  0
 20 45  1  0  0  0
 21 22  1  0  0  0
 21 46  1  0  0  0
 21 47  1  0  0  0
 22 23  1  0  0  0
 22 48  1  0  0  0
 22 49  1  0  0  0
 23 24  1  0  0  0
 23 50  1  0  0  0
 23 51  1  0  0  0
 24 25  1  0  0  0
 24 52  1  0  0  0
 24 53  1  0  0  0
 25 54  1  0  0  0
 25 55  1  0  0  0
 26 27  1  0  0  0
 26 28  1  0  0  0
 26 29  1  0  0  0
 30 31  1  0  0  0
 30 32  1  0  0  0
 30 33  1  0  0  0
 56 57  1  0  0  0
M  CHG  1  56   1
M  END
> <i_i_glide_confnum>
136

> <i_i_glide_lignum>
865

> <i_i_glide_posenum>
355

> <i_i_glide_rotatable_bonds>
7

> <i_m_Source_File_Index>
957

> <b_m_subgroup_collapsed>
0

> <r_i_docking_score>
-4.78353

> <r_i_glide_ecoul>
-3.17028

> <r_i_glide_eff_state_penalty>
0

> <r_i_glide_einternal>
8.90366

> <r_i_glide_emodel>
-45.3198

> <r_i_glide_energy>
-37.0885

> <r_i_glide_erotb>
0.418362

> <r_i_glide_esite>
-0.0893163

> <r_i_glide_evdw>
-33.9182

> <r_i_glide_gscore>
-4.78353

> <r_i_glide_hbond>
-0.16

> <r_i_glide_ligand_efficiency>
-0.140692

> <r_i_glide_ligand_efficiency_ln>
-1.05682

> <r_i_glide_ligand_efficiency_sa>
-0.455788

> <r_i_glide_lipo>
-2.05119

> <r_i_glide_metal>
0

> <r_i_glide_rewards>
-0.72994

> <s_i_glide_gridfile>
wee1_glide-grid

> <s_m_Source_File>
wee1_decoys_glide_SP.sdf

> <s_m_Source_Path>
/Users/zhangxujun/Desktop

> <s_m_entry_id>
1232

> <s_m_entry_name>
wee1_decoys_glide_SP.957

> <s_m_subgroup_title>
wee1_decoys_glide_SP

> <s_m_subgroupid>
wee1_decoys_glide_SP


$$$$
