ZINC64677129_2178
                    3D
 Schrodinger Suite 2024-2.
 51 54  0  0  1  0            999 V2000
    6.8936   57.2885   19.3470 C   0  0  0  0  0  0
    6.3321   55.8925   19.5435 C   0  0  0  0  0  0
    6.1479   54.9933   18.4065 C   0  0  0  0  0  0
    5.6038   53.7550   18.5194 C   0  0  0  0  0  0
    5.1834   53.2857   19.7635 C   0  0  0  0  0  0
    4.7207   52.0976   20.0814 N   0  3  0  0  0  0
    4.4177   52.0190   21.5200 C   0  0  1  0  0  0
    5.0572   51.2501   21.9494 H   0  0  0  0  0  0
    4.8222   53.4234   21.9560 C   0  0  0  0  0  0
    5.2853   54.1033   20.8898 C   0  0  0  0  0  0
    5.9044   55.4326   20.7438 C   0  0  0  0  0  0
    4.8883   53.7206   23.2812 N   0  0  0  0  0  0
    3.8472   54.1011   24.0466 C   0  0  0  0  0  0
    2.7248   54.3427   23.5992 O   0  0  0  0  0  0
    4.1106   54.2060   25.5338 C   0  0  0  0  0  0
    3.0329   54.0946   26.4238 C   0  0  0  0  0  0
    3.2326   54.1901   27.7970 C   0  0  0  0  0  0
    4.5139   54.3943   28.2952 C   0  0  0  0  0  0
    5.6005   54.4966   27.4307 C   0  0  0  0  0  0
    5.4018   54.4113   26.0529 C   0  0  0  0  0  0
    4.6985   54.4957   29.6298 F   0  0  0  0  0  0
    2.9465   51.5832   21.6818 C   0  0  0  0  0  0
    2.7038   50.4348   22.0492 O   0  0  0  0  0  0
    1.9767   52.4655   21.3846 N   0  0  0  0  0  0
    0.5423   52.1686   21.4086 C   0  0  0  0  0  0
   -0.0587   52.1761   22.8036 C   0  0  0  0  0  0
    0.4323   51.9734   24.0868 C   0  0  0  0  0  0
   -0.6392   52.1439   24.9639 C   0  0  0  0  0  0
   -1.7403   52.4708   24.1899 C   0  0  0  0  0  0
   -1.3819   52.4814   22.8797 O   0  0  0  0  0  0
   -3.1802   52.7974   24.4960 C   0  0  0  0  0  0
    6.7032   57.9457   20.1916 H   0  0  0  0  0  0
    7.9582   57.2474   19.1132 H   0  0  0  0  0  0
    6.4105   57.7512   18.4842 H   0  0  0  0  0  0
    6.4697   55.3247   17.4291 H   0  0  0  0  0  0
    5.5120   53.1346   17.6375 H   0  0  0  0  0  0
    6.0065   56.0849   21.5982 H   0  0  0  0  0  0
    5.7808   53.5908   23.7292 H   0  0  0  0  0  0
    2.0276   53.9345   26.0576 H   0  0  0  0  0  0
    2.3963   54.1080   28.4754 H   0  0  0  0  0  0
    6.5893   54.6587   27.8358 H   0  0  0  0  0  0
    6.2620   54.5141   25.4075 H   0  0  0  0  0  0
    2.2358   53.3938   21.0753 H   0  0  0  0  0  0
    0.3575   51.2042   20.9305 H   0  0  0  0  0  0
    0.0476   52.8961   20.7675 H   0  0  0  0  0  0
    1.4495   51.7214   24.3502 H   0  0  0  0  0  0
   -0.6147   52.0467   26.0395 H   0  0  0  0  0  0
   -3.3722   52.8082   25.5694 H   0  0  0  0  0  0
   -3.8580   52.0662   24.0554 H   0  0  0  0  0  0
   -3.4601   53.7763   24.1068 H   0  0  0  0  0  0
    4.6338   51.3245   19.4102 H   0  0  0  0  0  0
  1  2  1  0  0  0
  1 32  1  0  0  0
  1 33  1  0  0  0
  1 34  1  0  0  0
  2 11  2  0  0  0
  2  3  1  0  0  0
  3  4  2  0  0  0
  3 35  1  0  0  0
  4  5  1  0  0  0
  4 36  1  0  0  0
  5 10  1  0  0  0
  5  6  2  0  0  0
  6  7  1  0  0  0
  6 51  1  0  0  0
  7  8  1  0  0  0
  7  9  1  0  0  0
  7 22  1  0  0  0
  9 10  2  0  0  0
  9 12  1  0  0  0
 10 11  1  0  0  0
 11 37  1  0  0  0
 12 13  1  0  0  0
 12 38  1  0  0  0
 13 14  2  0  0  0
 13 15  1  0  0  0
 15 20  2  0  0  0
 15 16  1  0  0  0
 16 17  2  0  0  0
 16 39  1  0  0  0
 17 18  1  0  0  0
 17 40  1  0  0  0
 18 19  2  0  0  0
 18 21  1  0  0  0
 19 20  1  0  0  0
 19 41  1  0  0  0
 20 42  1  0  0  0
 22 23  2  0  0  0
 22 24  1  0  0  0
 24 25  1  0  0  0
 24 43  1  0  0  0
 25 26  1  0  0  0
 25 44  1  0  0  0
 25 45  1  0  0  0
 26 30  1  0  0  0
 26 27  2  0  0  0
 27 28  1  0  0  0
 27 46  1  0  0  0
 28 29  2  0  0  0
 28 47  1  0  0  0
 29 30  1  0  0  0
 29 31  1  0  0  0
 31 48  1  0  0  0
 31 49  1  0  0  0
 31 50  1  0  0  0
M  CHG  1   6   1
M  END
> <i_i_glide_confnum>
95

> <i_i_glide_lignum>
2179

> <i_i_glide_posenum>
292

> <i_i_glide_rotatable_bonds>
7

> <i_m_Source_File_Index>
1307

> <b_m_subgroup_collapsed>
0

> <r_i_docking_score>
-5.49497

> <r_i_glide_ecoul>
-1.65462

> <r_i_glide_eff_state_penalty>
0

> <r_i_glide_einternal>
8.34593

> <r_i_glide_emodel>
-54.6663

> <r_i_glide_energy>
-42.4028

> <r_i_glide_erotb>
0.83322

> <r_i_glide_esite>
-0.107482

> <r_i_glide_evdw>
-40.7482

> <r_i_glide_gscore>
-5.49497

> <r_i_glide_hbond>
-0.316562

> <r_i_glide_ligand_efficiency>
-0.183166

> <r_i_glide_ligand_efficiency_ln>
-1.24852

> <r_i_glide_ligand_efficiency_sa>
-0.569138

> <r_i_glide_lipo>
-2.418

> <r_i_glide_metal>
0

> <r_i_glide_rewards>
-1.20054

> <s_i_glide_gridfile>
wee1_glide-grid

> <s_m_Source_File>
wee1_decoys_glide_SP.sdf

> <s_m_Source_Path>
/Users/zhangxujun/Desktop

> <s_m_entry_id>
1582

> <s_m_entry_name>
wee1_decoys_glide_SP.1307

> <s_m_subgroup_title>
wee1_decoys_glide_SP

> <s_m_subgroupid>
wee1_decoys_glide_SP


$$$$
