ZINC39639002_635
                    3D
 Schrodinger Suite 2024-2.
 72 75  0  0  1  0            999 V2000
    6.1820   54.8587   23.6331 C   0  0  0  0  0  0
    4.8487   54.4265   22.9740 C   0  0  0  0  0  0
    5.1594   53.4731   21.8076 C   0  0  0  0  0  0
    3.7977   53.9009   24.0153 C   0  0  2  0  0  0
    4.0703   52.8980   24.3319 H   0  0  0  0  0  0
    2.3473   53.8947   23.4519 C   0  0  0  0  0  0
    1.6166   54.8600   23.6803 O   0  0  0  0  0  0
    1.8965   52.8444   22.7218 N   0  0  0  0  0  0
    0.5970   52.8755   22.0615 C   0  0  0  0  0  0
    0.4433   51.4513   21.4672 C   0  0  2  0  0  0
   -0.1577   50.8936   22.1882 H   0  0  0  0  0  0
    1.8803   50.8717   21.3552 C   0  0  0  0  0  0
    2.5542   51.5530   22.5586 C   0  0  0  0  0  0
    2.0080   49.3300   21.5316 C   0  0  0  0  0  0
    1.7660   48.4946   20.2607 C   0  0  0  0  0  0
    2.6951   48.9962   19.1398 N   0  3  0  0  0  0
    2.4350   50.4745   18.8152 C   0  0  0  0  0  0
    2.6842   51.3135   20.0826 C   0  0  0  0  0  0
   -0.3902   51.4950   20.1642 C   0  0  0  0  0  0
   -1.1658   50.5705   19.9270 O   0  0  0  0  0  0
   -0.1727   52.4957   19.2908 N   0  0  0  0  0  0
   -0.8049   52.6309   17.9819 C   0  0  0  0  0  0
    0.0455   53.4767   17.0223 C   0  0  0  0  0  0
   -0.4664   53.4302   15.5870 C   0  0  0  0  0  0
    0.1423   52.5755   14.6579 C   0  0  0  0  0  0
   -0.3252   52.5177   13.3444 C   0  0  0  0  0  0
   -1.4053   53.3099   12.9512 C   0  0  0  0  0  0
   -2.0187   54.1631   13.8730 C   0  0  0  0  0  0
   -1.5522   54.2239   15.1887 C   0  0  0  0  0  0
   -2.1609   55.0513   16.0737 F   0  0  0  0  0  0
    3.8487   54.7937   25.1429 O   0  0  0  0  0  0
    3.8355   54.2383   26.4025 C   0  0  0  0  0  0
    4.9218   54.4908   27.2388 C   0  0  0  0  0  0
    4.9435   53.9766   28.5304 C   0  0  0  0  0  0
    3.8715   53.2118   28.9855 C   0  0  0  0  0  0
    2.7745   52.9637   28.1609 C   0  0  0  0  0  0
    2.7544   53.4811   26.8661 C   0  0  0  0  0  0
    6.6461   54.0287   24.1676 H   0  0  0  0  0  0
    6.9001   55.2210   22.8959 H   0  0  0  0  0  0
    6.0352   55.6710   24.3452 H   0  0  0  0  0  0
    4.4132   55.2948   22.4807 H   0  0  0  0  0  0
    5.5502   52.5140   22.1512 H   0  0  0  0  0  0
    4.2730   53.3039   21.2018 H   0  0  0  0  0  0
    5.9017   53.9069   21.1356 H   0  0  0  0  0  0
   -0.1967   53.0747   22.7835 H   0  0  0  0  0  0
    0.7116   53.6604   21.3102 H   0  0  0  0  0  0
    3.6323   51.5550   22.4800 H   0  0  0  0  0  0
    2.3111   50.9810   23.4572 H   0  0  0  0  0  0
    3.0332   49.1037   21.8309 H   0  0  0  0  0  0
    1.4077   48.9744   22.3728 H   0  0  0  0  0  0
    2.0117   47.4458   20.4243 H   0  0  0  0  0  0
    0.7449   48.5750   19.8878 H   0  0  0  0  0  0
    3.6624   48.8714   19.4029 H   0  0  0  0  0  0
    3.1005   50.7477   17.9969 H   0  0  0  0  0  0
    1.4174   50.5167   18.4319 H   0  0  0  0  0  0
    2.5748   52.3805   19.8868 H   0  0  0  0  0  0
    3.7516   51.1920   20.2799 H   0  0  0  0  0  0
    0.4858   53.2209   19.5455 H   0  0  0  0  0  0
   -0.9343   51.6434   17.5339 H   0  0  0  0  0  0
   -1.8233   53.0179   18.0529 H   0  0  0  0  0  0
    0.0927   54.5113   17.3650 H   0  0  0  0  0  0
    1.0776   53.1244   17.0409 H   0  0  0  0  0  0
    0.9783   51.9535   14.9509 H   0  0  0  0  0  0
    0.1468   51.8522   12.6335 H   0  0  0  0  0  0
   -1.7683   53.2600   11.9349 H   0  0  0  0  0  0
   -2.8544   54.7793   13.5738 H   0  0  0  0  0  0
    5.7464   55.0929   26.8848 H   0  0  0  0  0  0
    5.7880   54.1787   29.1758 H   0  0  0  0  0  0
    3.8882   52.8108   29.9886 H   0  0  0  0  0  0
    1.9435   52.3759   28.5250 H   0  0  0  0  0  0
    1.9020   53.3055   26.2284 H   0  0  0  0  0  0
    2.5797   48.4609   18.2878 H   0  0  0  0  0  0
  1  2  1  0  0  0
  1 38  1  0  0  0
  1 39  1  0  0  0
  1 40  1  0  0  0
  2  3  1  0  0  0
  2  4  1  0  0  0
  2 41  1  0  0  0
  3 42  1  0  0  0
  3 43  1  0  0  0
  3 44  1  0  0  0
  4  5  1  0  0  0
  4  6  1  0  0  0
  4 31  1  0  0  0
  6  7  2  0  0  0
  6  8  1  0  0  0
  8 13  1  0  0  0
  8  9  1  0  0  0
  9 10  1  0  0  0
  9 45  1  0  0  0
  9 46  1  0  0  0
 10 11  1  0  0  0
 10 12  1  0  0  0
 10 19  1  0  0  0
 12 18  1  0  0  0
 12 13  1  0  0  0
 12 14  1  0  0  0
 13 47  1  0  0  0
 13 48  1  0  0  0
 14 15  1  0  0  0
 14 49  1  0  0  0
 14 50  1  0  0  0
 15 16  1  0  0  0
 15 51  1  0  0  0
 15 52  1  0  0  0
 16 17  1  0  0  0
 16 53  1  0  0  0
 16 72  1  0  0  0
 17 18  1  0  0  0
 17 54  1  0  0  0
 17 55  1  0  0  0
 18 56  1  0  0  0
 18 57  1  0  0  0
 19 20  2  0  0  0
 19 21  1  0  0  0
 21 22  1  0  0  0
 21 58  1  0  0  0
 22 23  1  0  0  0
 22 59  1  0  0  0
 22 60  1  0  0  0
 23 24  1  0  0  0
 23 61  1  0  0  0
 23 62  1  0  0  0
 24 29  2  0  0  0
 24 25  1  0  0  0
 25 26  2  0  0  0
 25 63  1  0  0  0
 26 27  1  0  0  0
 26 64  1  0  0  0
 27 28  2  0  0  0
 27 65  1  0  0  0
 28 29  1  0  0  0
 28 66  1  0  0  0
 29 30  1  0  0  0
 31 32  1  0  0  0
 32 37  2  0  0  0
 32 33  1  0  0  0
 33 34  2  0  0  0
 33 67  1  0  0  0
 34 35  1  0  0  0
 34 68  1  0  0  0
 35 36  2  0  0  0
 35 69  1  0  0  0
 36 37  1  0  0  0
 36 70  1  0  0  0
 37 71  1  0  0  0
M  CHG  1  16   1
M  END
> <i_i_glide_confnum>
106

> <i_i_glide_lignum>
636

> <i_i_glide_posenum>
291

> <i_i_glide_rotatable_bonds>
10

> <i_m_Source_File_Index>
824

> <b_m_subgroup_collapsed>
0

> <r_i_docking_score>
-3.47353

> <r_i_glide_ecoul>
-3.96388

> <r_i_glide_eff_state_penalty>
0

> <r_i_glide_einternal>
13.2111

> <r_i_glide_emodel>
-25.8907

> <r_i_glide_energy>
-30.7591

> <r_i_glide_erotb>
0.609944

> <r_i_glide_esite>
-0.127378

> <r_i_glide_evdw>
-26.7952

> <r_i_glide_gscore>
-3.47353

> <r_i_glide_hbond>
-0.150793

> <r_i_glide_ligand_efficiency>
-0.0992438

> <r_i_glide_ligand_efficiency_ln>
-0.762518

> <r_i_glide_ligand_efficiency_sa>
-0.324633

> <r_i_glide_lipo>
-2.47604

> <r_i_glide_metal>
0

> <r_i_glide_rewards>
0.605071

> <s_i_glide_gridfile>
wee1_glide-grid

> <s_m_Source_File>
wee1_decoys_glide_SP.sdf

> <s_m_Source_Path>
/Users/zhangxujun/Desktop

> <s_m_entry_id>
1099

> <s_m_entry_name>
wee1_decoys_glide_SP.824

> <s_m_subgroup_title>
wee1_decoys_glide_SP

> <s_m_subgroupid>
wee1_decoys_glide_SP


$$$$
