ZINC13352877_5890
                    3D
 Schrodinger Suite 2024-2.
 57 60  0  0  1  0            999 V2000
   -1.7995   49.9672   25.8819 C   0  0  0  0  0  0
   -0.8713   50.5779   24.8494 C   0  0  0  0  0  0
   -1.0354   51.9086   24.4618 C   0  0  0  0  0  0
   -0.1795   52.4742   23.5181 C   0  0  0  0  0  0
    0.8340   51.7061   22.9335 C   0  0  0  0  0  0
    1.0242   50.3785   23.3443 C   0  0  0  0  0  0
    0.1577   49.8178   24.2882 C   0  0  0  0  0  0
    2.1793   49.5435   22.8250 C   0  0  0  0  0  0
    1.7280   52.3068   22.0234 N   0  0  0  0  0  0
    2.7321   53.1951   22.3341 C   0  0  0  0  0  0
    3.4092   53.5265   21.2615 N   0  0  0  0  0  0
    2.8620   52.8274   20.1948 N   0  0  0  0  0  0
    1.8490   52.1328   20.6558 C   0  0  0  0  0  0
    0.8091   51.1405   19.6332 S   0  0  0  0  0  0
    2.0666   49.9904   18.9680 C   0  0  0  0  0  0
    1.6181   48.5264   19.0323 C   0  0  0  0  0  0
    1.1657   48.0796   20.0850 O   0  0  0  0  0  0
    1.7657   47.8163   17.8956 N   0  0  0  0  0  0
    1.4209   46.4793   17.6186 C   0  0  0  0  0  0
    1.8662   45.9852   16.3896 C   0  0  0  0  0  0
    1.6278   44.6611   16.0303 C   0  0  0  0  0  0
    0.9507   43.8118   16.9026 C   0  0  0  0  0  0
    0.4856   44.2726   18.1455 C   0  0  0  0  0  0
    0.7041   45.6232   18.4803 C   0  0  0  0  0  0
   -0.1897   43.3283   19.1019 C   0  0  0  0  0  0
   -0.8033   43.7994   20.0862 O   0  0  0  0  0  0
    2.9634   53.7192   23.7466 C   0  0  0  0  0  0
    4.3816   54.0969   24.1549 C   0  0  0  0  0  0
    5.5043   53.7137   23.4085 C   0  0  0  0  0  0
    6.7696   54.0964   23.8152 C   0  0  0  0  0  0
    6.9155   54.8229   24.9863 C   0  0  0  0  0  0
    5.8220   55.1648   25.7696 C   0  0  0  0  0  0
    4.5484   54.8081   25.3464 C   0  0  0  0  0  0
   -1.5155   50.2883   26.8848 H   0  0  0  0  0  0
   -2.8288   50.2793   25.7063 H   0  0  0  0  0  0
   -1.7860   48.8759   25.8480 H   0  0  0  0  0  0
   -1.8139   52.5107   24.9071 H   0  0  0  0  0  0
   -0.2897   53.5191   23.2817 H   0  0  0  0  0  0
    0.3028   48.7958   24.6102 H   0  0  0  0  0  0
    1.9043   48.4964   22.8414 H   0  0  0  0  0  0
    2.4369   49.7649   21.7946 H   0  0  0  0  0  0
    3.0653   49.6955   23.4378 H   0  0  0  0  0  0
    3.0053   50.0735   19.5159 H   0  0  0  0  0  0
    2.2943   50.2869   17.9426 H   0  0  0  0  0  0
    2.2635   48.2879   17.1503 H   0  0  0  0  0  0
    2.4166   46.6215   15.7102 H   0  0  0  0  0  0
    1.9829   44.2874   15.0813 H   0  0  0  0  0  0
    0.7978   42.7824   16.6090 H   0  0  0  0  0  0
    0.3393   45.9769   19.4331 H   0  0  0  0  0  0
    2.3112   54.5759   23.9217 H   0  0  0  0  0  0
    2.6383   52.9864   24.4860 H   0  0  0  0  0  0
    5.4322   53.1080   22.5204 H   0  0  0  0  0  0
    7.6374   53.8156   23.2376 H   0  0  0  0  0  0
    7.9042   55.1002   25.2824 H   0  0  0  0  0  0
    5.9603   55.6965   26.6984 H   0  0  0  0  0  0
    3.6933   55.0797   25.9478 H   0  0  0  0  0  0
   -0.0945   42.0967   18.8842 O   0  5  0  0  0  0
  1  2  1  0  0  0
  1 34  1  0  0  0
  1 35  1  0  0  0
  1 36  1  0  0  0
  2  7  2  0  0  0
  2  3  1  0  0  0
  3  4  2  0  0  0
  3 37  1  0  0  0
  4  5  1  0  0  0
  4 38  1  0  0  0
  5  6  2  0  0  0
  5  9  1  0  0  0
  6  7  1  0  0  0
  6  8  1  0  0  0
  7 39  1  0  0  0
  8 40  1  0  0  0
  8 41  1  0  0  0
  8 42  1  0  0  0
  9 13  1  0  0  0
  9 10  1  0  0  0
 10 11  2  0  0  0
 10 27  1  0  0  0
 11 12  1  0  0  0
 12 13  2  0  0  0
 13 14  1  0  0  0
 14 15  1  0  0  0
 15 16  1  0  0  0
 15 43  1  0  0  0
 15 44  1  0  0  0
 16 17  2  0  0  0
 16 18  1  0  0  0
 18 19  1  0  0  0
 18 45  1  0  0  0
 19 24  2  0  0  0
 19 20  1  0  0  0
 20 21  2  0  0  0
 20 46  1  0  0  0
 21 22  1  0  0  0
 21 47  1  0  0  0
 22 23  2  0  0  0
 22 48  1  0  0  0
 23 24  1  0  0  0
 23 25  1  0  0  0
 24 49  1  0  0  0
 25 26  2  0  0  0
 25 57  1  0  0  0
 27 28  1  0  0  0
 27 50  1  0  0  0
 27 51  1  0  0  0
 28 33  2  0  0  0
 28 29  1  0  0  0
 29 30  2  0  0  0
 29 52  1  0  0  0
 30 31  1  0  0  0
 30 53  1  0  0  0
 31 32  2  0  0  0
 31 54  1  0  0  0
 32 33  1  0  0  0
 32 55  1  0  0  0
 33 56  1  0  0  0
M  CHG  1  57  -1
M  END
> <i_i_glide_confnum>
25

> <i_i_glide_lignum>
5891

> <i_i_glide_posenum>
354

> <i_i_glide_rotatable_bonds>
9

> <i_m_Source_File_Index>
3171

> <b_m_subgroup_collapsed>
0

> <r_i_docking_score>
-4.73371

> <r_i_glide_ecoul>
-5.54963

> <r_i_glide_eff_state_penalty>
0

> <r_i_glide_einternal>
9.36859

> <r_i_glide_emodel>
-56.0025

> <r_i_glide_energy>
-41.6315

> <r_i_glide_erotb>
0.727229

> <r_i_glide_esite>
-0.21772

> <r_i_glide_evdw>
-36.0819

> <r_i_glide_gscore>
-4.73371

> <r_i_glide_hbond>
-0.287487

> <r_i_glide_ligand_efficiency>
-0.139227

> <r_i_glide_ligand_efficiency_ln>
-1.04581

> <r_i_glide_ligand_efficiency_sa>
-0.451041

> <r_i_glide_lipo>
-1.9469

> <r_i_glide_metal>
0

> <r_i_glide_rewards>
-0.3723

> <s_i_glide_gridfile>
wee1_glide-grid

> <s_m_Source_File>
wee1_decoys_glide_SP.sdf

> <s_m_Source_Path>
/Users/zhangxujun/Desktop

> <s_m_entry_id>
3446

> <s_m_entry_name>
wee1_decoys_glide_SP.3171

> <s_m_subgroup_title>
wee1_decoys_glide_SP

> <s_m_subgroupid>
wee1_decoys_glide_SP


$$$$
