ZINC59170464_5003
                    3D
 Schrodinger Suite 2024-2.
 56 59  0  0  1  0            999 V2000
    2.6010   59.3003   15.6602 C   0  0  0  0  0  0
    2.8775   57.8954   16.1572 C   0  0  0  0  0  0
    4.1932   57.4557   16.3021 C   0  0  0  0  0  0
    4.4467   56.1571   16.7310 C   0  0  0  0  0  0
    3.3809   55.3031   17.0240 C   0  0  0  0  0  0
    2.0640   55.7425   16.8814 C   0  0  0  0  0  0
    1.8129   57.0397   16.4451 C   0  0  0  0  0  0
    3.7011   53.6254   17.5595 S   0  0  0  0  0  0
    5.0677   53.2965   17.1382 O   0  0  0  0  0  0
    2.5541   52.8134   17.1405 O   0  0  0  0  0  0
    3.6795   53.6965   19.3142 N   0  0  0  0  0  0
    4.7688   54.2217   19.8188 N   0  3  0  0  0  0
    5.0778   54.4651   21.0919 C   0  0  0  0  0  0
    6.3037   55.0524   21.5059 C   0  0  0  0  0  0
    6.5759   54.9863   22.8400 C   0  0  0  0  0  0
    5.6208   54.4969   23.8407 C   0  0  0  0  0  0
    5.8530   54.4946   25.2153 C   0  0  0  0  0  0
    4.8386   54.0907   26.0985 C   0  0  0  0  0  0
    3.5888   53.7103   25.5724 C   0  0  0  0  0  0
    3.3606   53.7114   24.1929 C   0  0  0  0  0  0
    4.3862   54.0968   23.3333 C   0  0  0  0  0  0
    4.1709   54.1064   21.9628 O   0  0  0  0  0  0
    5.0948   54.0412   27.5574 N   0  3  0  0  0  0
    4.1353   53.9391   28.3160 O   0  0  0  0  0  0
    6.2575   54.0981   27.9466 O   0  5  0  0  0  0
    7.2772   55.6967   20.6249 C   0  0  0  0  0  0
    8.4800   55.6963   20.8831 O   0  0  0  0  0  0
    6.7705   56.3167   19.5346 N   0  0  0  0  0  0
    7.5056   56.9186   18.5039 C   0  0  0  0  0  0
    7.1471   58.2301   18.1738 C   0  0  0  0  0  0
    7.7956   58.8970   17.1367 C   0  0  0  0  0  0
    8.8026   58.2589   16.4175 C   0  0  0  0  0  0
    9.1517   56.9446   16.7250 C   0  0  0  0  0  0
    8.5055   56.2539   17.7560 C   0  0  0  0  0  0
    8.8696   54.7865   17.9691 C   0  0  0  0  0  0
    3.4747   59.7327   15.1703 H   0  0  0  0  0  0
    1.7924   59.2978   14.9287 H   0  0  0  0  0  0
    2.3064   59.9542   16.4818 H   0  0  0  0  0  0
    5.0175   58.1167   16.0739 H   0  0  0  0  0  0
    5.4693   55.8191   16.8187 H   0  0  0  0  0  0
    1.2382   55.0826   17.1066 H   0  0  0  0  0  0
    0.7946   57.3829   16.3349 H   0  0  0  0  0  0
    2.8178   54.1183   19.6822 H   0  0  0  0  0  0
    7.5044   55.4017   23.2100 H   0  0  0  0  0  0
    6.8164   54.8035   25.5956 H   0  0  0  0  0  0
    2.7932   53.3909   26.2312 H   0  0  0  0  0  0
    2.4028   53.4086   23.7954 H   0  0  0  0  0  0
    5.7956   56.5736   19.5611 H   0  0  0  0  0  0
    6.3638   58.7485   18.7108 H   0  0  0  0  0  0
    7.5080   59.9105   16.8867 H   0  0  0  0  0  0
    9.3014   58.7782   15.6119 H   0  0  0  0  0  0
    9.9197   56.4566   16.1429 H   0  0  0  0  0  0
    7.9941   54.1966   18.2448 H   0  0  0  0  0  0
    9.2545   54.3346   17.0535 H   0  0  0  0  0  0
    9.6259   54.6837   18.7484 H   0  0  0  0  0  0
    5.4817   54.4630   19.1339 H   0  0  0  0  0  0
  1  2  1  0  0  0
  1 36  1  0  0  0
  1 37  1  0  0  0
  1 38  1  0  0  0
  2  7  2  0  0  0
  2  3  1  0  0  0
  3  4  2  0  0  0
  3 39  1  0  0  0
  4  5  1  0  0  0
  4 40  1  0  0  0
  5  6  2  0  0  0
  5  8  1  0  0  0
  6  7  1  0  0  0
  6 41  1  0  0  0
  7 42  1  0  0  0
  8  9  2  0  0  0
  8 10  2  0  0  0
  8 11  1  0  0  0
 11 12  1  0  0  0
 11 43  1  0  0  0
 12 13  2  0  0  0
 12 56  1  0  0  0
 13 22  1  0  0  0
 13 14  1  0  0  0
 14 15  2  0  0  0
 14 26  1  0  0  0
 15 16  1  0  0  0
 15 44  1  0  0  0
 16 21  2  0  0  0
 16 17  1  0  0  0
 17 18  2  0  0  0
 17 45  1  0  0  0
 18 19  1  0  0  0
 18 23  1  0  0  0
 19 20  2  0  0  0
 19 46  1  0  0  0
 20 21  1  0  0  0
 20 47  1  0  0  0
 21 22  1  0  0  0
 23 24  2  0  0  0
 23 25  1  0  0  0
 26 27  2  0  0  0
 26 28  1  0  0  0
 28 29  1  0  0  0
 28 48  1  0  0  0
 29 34  2  0  0  0
 29 30  1  0  0  0
 30 31  2  0  0  0
 30 49  1  0  0  0
 31 32  1  0  0  0
 31 50  1  0  0  0
 32 33  2  0  0  0
 32 51  1  0  0  0
 33 34  1  0  0  0
 33 52  1  0  0  0
 34 35  1  0  0  0
 35 53  1  0  0  0
 35 54  1  0  0  0
 35 55  1  0  0  0
M  CHG  3  12   1  23   1  25  -1
M  END
> <i_i_glide_confnum>
149

> <i_i_glide_lignum>
5004

> <i_i_glide_posenum>
183

> <i_i_glide_rotatable_bonds>
7

> <i_m_Source_File_Index>
2220

> <b_m_subgroup_collapsed>
0

> <r_i_docking_score>
-5.6042

> <r_i_glide_ecoul>
-2.26994

> <r_i_glide_eff_state_penalty>
0

> <r_i_glide_einternal>
9.02733

> <r_i_glide_emodel>
-59.6802

> <r_i_glide_energy>
-45.9818

> <r_i_glide_erotb>
0.501867

> <r_i_glide_esite>
-0.132337

> <r_i_glide_evdw>
-43.7118

> <r_i_glide_gscore>
-5.6042

> <r_i_glide_hbond>
-0.32

> <r_i_glide_ligand_efficiency>
-0.16012

> <r_i_glide_ligand_efficiency_ln>
-1.23025

> <r_i_glide_ligand_efficiency_sa>
-0.523763

> <r_i_glide_lipo>
-2.35458

> <r_i_glide_metal>
0

> <r_i_glide_rewards>
-0.773075

> <s_i_glide_gridfile>
wee1_glide-grid

> <s_m_Source_File>
wee1_decoys_glide_SP.sdf

> <s_m_Source_Path>
/Users/zhangxujun/Desktop

> <s_m_entry_id>
2495

> <s_m_entry_name>
wee1_decoys_glide_SP.2220

> <s_m_subgroup_title>
wee1_decoys_glide_SP

> <s_m_subgroupid>
wee1_decoys_glide_SP


$$$$
