ZINC38582626_2416
                    3D
 Schrodinger Suite 2024-2.
 62 68  0  0  1  0            999 V2000
   -5.6854   52.9623   24.9677 C   0  0  0  0  0  0
   -6.4940   51.7752   24.4818 C   0  0  0  0  0  0
   -6.1729   50.5062   24.1951 C   0  0  0  0  0  0
   -4.9375   49.6109   24.2831 C   0  0  2  0  0  0
   -4.5486   49.5565   23.2648 H   0  0  0  0  0  0
   -5.3967   48.1776   24.5878 C   0  0  0  0  0  0
   -6.7083   47.8478   24.6702 C   0  0  0  0  0  0
   -7.7627   48.6864   24.4650 O   0  0  0  0  0  0
   -7.4475   49.8780   23.7280 C   0  0  1  0  0  0
   -7.4218   49.6080   22.6704 H   0  0  0  0  0  0
   -8.4103   50.9153   23.9136 N   0  0  0  0  0  0
   -7.8247   51.9704   24.3188 N   0  0  0  0  0  0
   -7.2207   46.6195   24.9857 N   0  0  0  0  0  0
   -4.4067   47.1593   24.7677 C   0  0  0  0  0  0
   -3.6534   46.2859   24.8803 N   0  0  0  0  0  0
   -3.8199   50.1340   25.1856 C   0  0  0  0  0  0
   -2.6165   50.6335   24.7079 C   0  0  0  0  0  0
   -1.8933   51.1056   25.7672 N   0  0  0  0  0  0
   -2.5649   50.8905   26.9005 N   0  0  0  0  0  0
   -3.7032   50.2823   26.6077 C   0  0  0  0  0  0
   -4.6413   49.8919   27.7924 C   0  0  0  0  0  0
   -4.6961   48.3439   28.0083 C   0  0  0  0  0  0
   -5.6283   47.9494   29.1858 C   0  0  1  0  0  0
   -5.0993   48.5823   30.4942 C   0  0  0  0  0  0
   -5.0752   50.1230   30.3480 C   0  0  1  0  0  0
   -4.1521   50.4975   29.1621 C   0  0  0  0  0  0
   -6.5047   50.6461   30.0686 C   0  0  0  0  0  0
   -7.0357   50.0089   28.7612 C   0  0  2  0  0  0
   -7.0623   48.4658   28.9056 C   0  0  0  0  0  0
   -6.1050   50.3929   27.5813 C   0  0  0  0  0  0
   -0.6270   51.7527   25.7662 C   0  0  0  0  0  0
   -0.1291   52.3256   24.5858 C   0  0  0  0  0  0
    1.1032   52.9750   24.5856 C   0  0  0  0  0  0
    1.8394   53.0617   25.7644 C   0  0  0  0  0  0
    1.3590   52.4967   26.9431 C   0  0  0  0  0  0
    0.1321   51.8384   26.9447 C   0  0  0  0  0  0
   -4.6325   52.7126   25.0838 H   0  0  0  0  0  0
   -5.7584   53.7808   24.2505 H   0  0  0  0  0  0
   -6.0592   53.3156   25.9285 H   0  0  0  0  0  0
   -6.6067   45.8374   25.1576 H   0  0  0  0  0  0
   -8.1722   46.5410   25.3128 H   0  0  0  0  0  0
   -2.2391   50.7133   23.7009 H   0  0  0  0  0  0
   -3.6956   47.9487   28.1839 H   0  0  0  0  0  0
   -5.0559   47.8409   27.1203 H   0  0  0  0  0  0
   -5.6428   46.8642   29.2890 H   0  0  0  0  0  0
   -4.0962   48.2107   30.7076 H   0  0  0  0  0  0
   -5.7207   48.2891   31.3414 H   0  0  0  0  0  0
   -4.6891   50.5678   31.2669 H   0  0  0  0  0  0
   -4.0756   51.5827   29.0891 H   0  0  0  0  0  0
   -3.1459   50.1337   29.3846 H   0  0  0  0  0  0
   -6.5024   51.7337   29.9849 H   0  0  0  0  0  0
   -7.1655   50.4061   30.9031 H   0  0  0  0  0  0
   -8.0449   50.3726   28.5619 H   0  0  0  0  0  0
   -7.7358   48.1726   29.7126 H   0  0  0  0  0  0
   -7.4594   48.0075   27.9985 H   0  0  0  0  0  0
   -6.5257   49.9558   26.6812 H   0  0  0  0  0  0
   -6.1173   51.4731   27.4401 H   0  0  0  0  0  0
   -0.6866   52.2864   23.6626 H   0  0  0  0  0  0
    1.4846   53.4150   23.6757 H   0  0  0  0  0  0
    2.7952   53.5651   25.7630 H   0  0  0  0  0  0
    1.9401   52.5604   27.8511 H   0  0  0  0  0  0
   -0.2212   51.3950   27.8660 H   0  0  0  0  0  0
  1  2  1  0  0  0
  1 37  1  0  0  0
  1 38  1  0  0  0
  1 39  1  0  0  0
  2 12  1  0  0  0
  2  3  2  0  0  0
  3  9  1  0  0  0
  3  4  1  0  0  0
  4  5  1  0  0  0
  4  6  1  0  0  0
  4 16  1  0  0  0
  6  7  2  0  0  0
  6 14  1  0  0  0
  7  8  1  0  0  0
  7 13  1  0  0  0
  8  9  1  0  0  0
  9 10  1  0  0  0
  9 11  1  0  0  0
 11 12  2  0  0  0
 13 40  1  0  0  0
 13 41  1  0  0  0
 14 15  3  0  0  0
 16 20  1  0  0  0
 16 17  2  0  0  0
 17 18  1  0  0  0
 17 42  1  0  0  0
 18 19  1  0  0  0
 18 31  1  0  0  0
 19 20  2  0  0  0
 20 21  1  0  0  0
 21 26  1  0  0  0
 21 30  1  0  0  0
 21 22  1  0  0  0
 22 23  1  0  0  0
 22 43  1  0  0  0
 22 44  1  0  0  0
 23 29  1  0  0  0
 23 24  1  0  0  0
 23 45  1  0  0  0
 24 25  1  0  0  0
 24 46  1  0  0  0
 24 47  1  0  0  0
 25 26  1  0  0  0
 25 27  1  0  0  0
 25 48  1  0  0  0
 26 49  1  0  0  0
 26 50  1  0  0  0
 27 28  1  0  0  0
 27 51  1  0  0  0
 27 52  1  0  0  0
 28 29  1  0  0  0
 28 30  1  0  0  0
 28 53  1  0  0  0
 29 54  1  0  0  0
 29 55  1  0  0  0
 30 56  1  0  0  0
 30 57  1  0  0  0
 31 36  2  0  0  0
 31 32  1  0  0  0
 32 33  2  0  0  0
 32 58  1  0  0  0
 33 34  1  0  0  0
 33 59  1  0  0  0
 34 35  2  0  0  0
 34 60  1  0  0  0
 35 36  1  0  0  0
 35 61  1  0  0  0
 36 62  1  0  0  0
M  END
> <i_i_glide_confnum>
9

> <i_i_glide_lignum>
2417

> <i_i_glide_posenum>
316

> <i_i_glide_rotatable_bonds>
4

> <i_m_Source_File_Index>
2199

> <b_m_subgroup_collapsed>
0

> <r_i_docking_score>
-1.85803

> <r_i_glide_ecoul>
-0.273637

> <r_i_glide_eff_state_penalty>
0

> <r_i_glide_einternal>
1.86748

> <r_i_glide_emodel>
-25.4375

> <r_i_glide_energy>
-22.5146

> <r_i_glide_erotb>
0.293933

> <r_i_glide_esite>
-0.0489596

> <r_i_glide_evdw>
-22.2409

> <r_i_glide_gscore>
-1.85803

> <r_i_glide_hbond>
-0.0223304

> <r_i_glide_ligand_efficiency>
-0.0546478

> <r_i_glide_ligand_efficiency_ln>
-0.41049

> <r_i_glide_ligand_efficiency_sa>
-0.177038

> <r_i_glide_lipo>
-0.604059

> <r_i_glide_metal>
0

> <r_i_glide_rewards>
-0.323517

> <s_i_glide_gridfile>
wee1_glide-grid

> <s_m_Source_File>
wee1_decoys_glide_SP.sdf

> <s_m_Source_Path>
/Users/zhangxujun/Desktop

> <s_m_entry_id>
2474

> <s_m_entry_name>
wee1_decoys_glide_SP.2199

> <s_m_subgroup_title>
wee1_decoys_glide_SP

> <s_m_subgroupid>
wee1_decoys_glide_SP


$$$$
