ZINC35058013_3320
                    3D
 Schrodinger Suite 2024-2.
 53 56  0  0  1  0            999 V2000
    0.3046   52.0973   30.9180 C   0  0  0  0  0  0
    1.1819   51.9314   29.6821 C   0  0  0  0  0  0
    2.3973   52.0962   29.7751 O   0  0  0  0  0  0
    0.5533   51.6039   28.5422 N   0  0  0  0  0  0
    1.1288   51.7389   27.1980 C   0  0  2  0  0  0
    2.2027   51.5635   27.2817 H   0  0  0  0  0  0
    0.9446   53.1704   26.6861 C   0  0  2  0  0  0
   -0.1351   53.2967   26.7800 H   0  0  0  0  0  0
    1.3126   53.3829   25.2081 C   0  0  2  0  0  0
    0.8882   54.3339   24.8819 H   0  0  0  0  0  0
    0.7468   52.2623   24.3205 C   0  0  1  0  0  0
   -0.3350   52.3924   24.2594 H   0  0  0  0  0  0
    1.3555   52.3786   22.9027 C   0  0  0  0  0  0
    2.7452   52.7318   22.8846 O   0  0  0  0  0  0
    3.0549   53.8030   23.7392 C   0  0  1  0  0  0
    2.4795   54.6751   23.4152 H   0  0  0  0  0  0
    2.7267   53.4424   25.0536 O   0  0  0  0  0  0
    4.5180   54.0528   23.6933 C   0  0  0  0  0  0
    5.5116   53.6973   22.7939 C   0  0  0  0  0  0
    6.7045   54.2286   23.2888 C   0  0  0  0  0  0
    6.3763   54.9114   24.4479 C   0  0  0  0  0  0
    5.0451   54.8147   24.6887 O   0  0  0  0  0  0
    1.1043   50.9874   24.8690 O   0  0  0  0  0  0
    0.5894   50.7274   26.1594 C   0  0  2  0  0  0
    0.9243   49.7176   26.4135 H   0  0  0  0  0  0
   -0.8138   50.7732   26.1580 O   0  0  0  0  0  0
   -1.5342   49.6900   25.6823 C   0  0  0  0  0  0
   -0.9761   48.6765   24.8814 C   0  0  0  0  0  0
   -1.7389   47.5802   24.4842 C   0  0  0  0  0  0
   -3.0698   47.4776   24.8800 C   0  0  0  0  0  0
   -3.6448   48.4861   25.6532 C   0  0  0  0  0  0
   -2.8850   49.5899   26.0488 C   0  0  0  0  0  0
   -3.6269   50.8168   27.0176 Cl  0  0  0  0  0  0
   -3.9978   46.0981   24.4164 Cl  0  0  0  0  0  0
    1.6477   54.0971   27.5251 O   0  0  0  0  0  0
    0.8379   54.9567   28.3276 C   0  0  0  0  0  0
    1.6767   55.6070   29.4459 C   0  0  0  0  0  0
    2.8438   55.2097   29.6612 O   0  0  0  0  0  0
    1.1046   56.4963   30.1140 O   0  5  0  0  0  0
   -0.6459   51.5696   30.8186 H   0  0  0  0  0  0
    0.8108   51.7114   31.8034 H   0  0  0  0  0  0
    0.0955   53.1541   31.0875 H   0  0  0  0  0  0
   -0.4186   51.3298   28.5836 H   0  0  0  0  0  0
    1.2011   51.4579   22.3389 H   0  0  0  0  0  0
    0.8341   53.1522   22.3365 H   0  0  0  0  0  0
    5.3799   53.1074   21.8986 H   0  0  0  0  0  0
    7.6903   54.1348   22.8573 H   0  0  0  0  0  0
    6.9475   55.4836   25.1626 H   0  0  0  0  0  0
    0.0561   48.7178   24.5696 H   0  0  0  0  0  0
   -1.2906   46.8072   23.8784 H   0  0  0  0  0  0
   -4.6771   48.4077   25.9598 H   0  0  0  0  0  0
    0.4231   55.7222   27.6819 H   0  0  0  0  0  0
    0.0210   54.4046   28.7938 H   0  0  0  0  0  0
  1  2  1  0  0  0
  1 40  1  0  0  0
  1 41  1  0  0  0
  1 42  1  0  0  0
  2  3  2  0  0  0
  2  4  1  0  0  0
  4  5  1  0  0  0
  4 43  1  0  0  0
  5  6  1  0  0  0
  5 24  1  0  0  0
  5  7  1  0  0  0
  7  8  1  0  0  0
  7  9  1  0  0  0
  7 35  1  0  0  0
  9 10  1  0  0  0
  9 17  1  0  0  0
  9 11  1  0  0  0
 11 12  1  0  0  0
 11 13  1  0  0  0
 11 23  1  0  0  0
 13 14  1  0  0  0
 13 44  1  0  0  0
 13 45  1  0  0  0
 14 15  1  0  0  0
 15 16  1  0  0  0
 15 17  1  0  0  0
 15 18  1  0  0  0
 18 22  1  0  0  0
 18 19  2  0  0  0
 19 20  1  0  0  0
 19 46  1  0  0  0
 20 21  2  0  0  0
 20 47  1  0  0  0
 21 22  1  0  0  0
 21 48  1  0  0  0
 23 24  1  0  0  0
 24 25  1  0  0  0
 24 26  1  0  0  0
 26 27  1  0  0  0
 27 32  2  0  0  0
 27 28  1  0  0  0
 28 29  2  0  0  0
 28 49  1  0  0  0
 29 30  1  0  0  0
 29 50  1  0  0  0
 30 31  2  0  0  0
 30 34  1  0  0  0
 31 32  1  0  0  0
 31 51  1  0  0  0
 32 33  1  0  0  0
 35 36  1  0  0  0
 36 37  1  0  0  0
 36 52  1  0  0  0
 36 53  1  0  0  0
 37 38  2  0  0  0
 37 39  1  0  0  0
M  CHG  1  39  -1
M  END
> <i_i_glide_confnum>
40

> <i_i_glide_lignum>
3321

> <i_i_glide_posenum>
220

> <i_i_glide_rotatable_bonds>
8

> <i_m_Source_File_Index>
4015

> <b_m_subgroup_collapsed>
0

> <r_i_docking_score>
-4.68608

> <r_i_glide_ecoul>
-4.36147

> <r_i_glide_eff_state_penalty>
0

> <r_i_glide_einternal>
16.7874

> <r_i_glide_emodel>
-43.8832

> <r_i_glide_energy>
-38.3726

> <r_i_glide_erotb>
0.48769

> <r_i_glide_esite>
-0.0285327

> <r_i_glide_evdw>
-34.0111

> <r_i_glide_gscore>
-4.68608

> <r_i_glide_hbond>
-0.216181

> <r_i_glide_ligand_efficiency>
-0.142003

> <r_i_glide_ligand_efficiency_ln>
-1.04216

> <r_i_glide_ligand_efficiency_sa>
-0.455478

> <r_i_glide_lipo>
-1.76588

> <r_i_glide_metal>
0

> <r_i_glide_rewards>
-0.808408

> <s_i_glide_gridfile>
wee1_glide-grid

> <s_m_Source_File>
wee1_decoys_glide_SP.sdf

> <s_m_Source_Path>
/Users/zhangxujun/Desktop

> <s_m_entry_id>
4290

> <s_m_entry_name>
wee1_decoys_glide_SP.4015

> <s_m_subgroup_title>
wee1_decoys_glide_SP

> <s_m_subgroupid>
wee1_decoys_glide_SP


$$$$
