ZINC59170412_2938
                    3D
 Schrodinger Suite 2024-2.
 67 70  0  0  1  0            999 V2000
    7.9796   55.8844   19.6393 C   0  0  0  0  0  0
    6.8526   55.3068   20.4726 C   0  0  0  0  0  0
    5.7346   54.7555   19.8427 C   0  0  0  0  0  0
    4.7055   54.1985   20.5998 C   0  0  0  0  0  0
    4.7990   54.1786   22.0011 C   0  0  0  0  0  0
    5.9327   54.7142   22.6221 C   0  0  0  0  0  0
    6.9477   55.2964   21.8636 C   0  0  0  0  0  0
    3.7937   53.6985   22.8648 N   0  0  0  0  0  0
    2.6938   52.9455   22.6053 C   0  0  0  0  0  0
    2.4472   52.5017   21.4805 O   0  0  0  0  0  0
    1.8174   52.6491   23.7562 C   0  0  0  0  0  0
    2.1096   53.0839   25.0200 C   0  0  0  0  0  0
    1.3476   52.7226   26.2184 C   0  0  0  0  0  0
    1.6679   53.1449   27.5042 C   0  0  0  0  0  0
    0.9177   52.7093   28.6081 C   0  0  0  0  0  0
   -0.1426   51.8028   28.3850 C   0  0  0  0  0  0
   -0.4713   51.3794   27.0908 C   0  0  0  0  0  0
    0.2741   51.8640   26.0108 C   0  0  0  0  0  0
   -0.0293   51.4773   24.7156 O   0  0  0  0  0  0
    0.6322   51.8627   23.6555 C   0  0  0  0  0  0
    0.0897   51.4636   22.5077 N   0  3  0  0  0  0
   -1.0171   50.7690   22.3327 N   0  0  0  0  0  0
   -1.6172   50.7366   20.6867 S   0  0  0  0  0  0
   -1.5095   52.0965   20.1439 O   0  0  0  0  0  0
   -2.9091   50.0453   20.7118 O   0  0  0  0  0  0
   -0.4604   49.6989   19.7958 C   0  0  0  0  0  0
   -0.8216   48.3927   19.4523 C   0  0  0  0  0  0
    0.0707   47.5920   18.7476 C   0  0  0  0  0  0
    1.3233   48.0932   18.3896 C   0  0  0  0  0  0
    1.6961   49.3898   18.7547 C   0  0  0  0  0  0
    0.7974   50.1990   19.4442 C   0  0  0  0  0  0
    2.2789   47.2378   17.5832 C   0  0  0  0  0  0
   -1.5059   50.4971   26.8816 O   0  0  0  0  0  0
    1.3015   53.2336   30.0127 C   0  0  0  0  0  0
    0.3263   52.7748   31.1276 C   0  0  0  0  0  0
    1.2839   54.7829   30.0088 C   0  0  0  0  0  0
    2.7183   52.7247   30.3711 C   0  0  0  0  0  0
    8.1706   55.2492   18.7729 H   0  0  0  0  0  0
    7.7215   56.8788   19.2731 H   0  0  0  0  0  0
    8.9150   55.9387   20.1972 H   0  0  0  0  0  0
    5.6573   54.7618   18.7638 H   0  0  0  0  0  0
    3.8428   53.8168   20.0757 H   0  0  0  0  0  0
    6.0290   54.7062   23.6980 H   0  0  0  0  0  0
    7.8137   55.7131   22.3586 H   0  0  0  0  0  0
    3.9576   53.9415   23.8258 H   0  0  0  0  0  0
    2.9872   53.6872   25.2039 H   0  0  0  0  0  0
    2.5091   53.8064   27.6448 H   0  0  0  0  0  0
   -0.7307   51.4181   29.2062 H   0  0  0  0  0  0
   -0.9726   49.8423   22.7666 H   0  0  0  0  0  0
   -1.7913   47.9976   19.7176 H   0  0  0  0  0  0
   -0.2184   46.5891   18.4643 H   0  0  0  0  0  0
    2.6711   49.7756   18.4800 H   0  0  0  0  0  0
    1.0821   51.2125   19.6931 H   0  0  0  0  0  0
    3.2895   47.2955   17.9905 H   0  0  0  0  0  0
    2.3155   47.6012   16.5552 H   0  0  0  0  0  0
    1.9843   46.1887   17.5757 H   0  0  0  0  0  0
   -1.6579   49.8366   27.5822 H   0  0  0  0  0  0
    0.3295   51.6971   31.2569 H   0  0  0  0  0  0
    0.5848   53.2008   32.0973 H   0  0  0  0  0  0
   -0.6996   53.0723   30.9197 H   0  0  0  0  0  0
    2.0132   55.2160   29.3242 H   0  0  0  0  0  0
    0.3056   55.1568   29.7160 H   0  0  0  0  0  0
    1.4993   55.2051   30.9869 H   0  0  0  0  0  0
    3.4898   53.2057   29.7681 H   0  0  0  0  0  0
    2.9696   52.8947   31.4157 H   0  0  0  0  0  0
    2.8037   51.6529   30.1991 H   0  0  0  0  0  0
    0.5833   51.7491   21.6649 H   0  0  0  0  0  0
  1  2  1  0  0  0
  1 38  1  0  0  0
  1 39  1  0  0  0
  1 40  1  0  0  0
  2  7  2  0  0  0
  2  3  1  0  0  0
  3  4  2  0  0  0
  3 41  1  0  0  0
  4  5  1  0  0  0
  4 42  1  0  0  0
  5  6  2  0  0  0
  5  8  1  0  0  0
  6  7  1  0  0  0
  6 43  1  0  0  0
  7 44  1  0  0  0
  8  9  1  0  0  0
  8 45  1  0  0  0
  9 10  2  0  0  0
  9 11  1  0  0  0
 11 20  1  0  0  0
 11 12  2  0  0  0
 12 13  1  0  0  0
 12 46  1  0  0  0
 13 18  2  0  0  0
 13 14  1  0  0  0
 14 15  2  0  0  0
 14 47  1  0  0  0
 15 16  1  0  0  0
 15 34  1  0  0  0
 16 17  2  0  0  0
 16 48  1  0  0  0
 17 18  1  0  0  0
 17 33  1  0  0  0
 18 19  1  0  0  0
 19 20  1  0  0  0
 20 21  2  0  0  0
 21 22  1  0  0  0
 21 67  1  0  0  0
 22 23  1  0  0  0
 22 49  1  0  0  0
 23 24  2  0  0  0
 23 25  2  0  0  0
 23 26  1  0  0  0
 26 31  2  0  0  0
 26 27  1  0  0  0
 27 28  2  0  0  0
 27 50  1  0  0  0
 28 29  1  0  0  0
 28 51  1  0  0  0
 29 30  2  0  0  0
 29 32  1  0  0  0
 30 31  1  0  0  0
 30 52  1  0  0  0
 31 53  1  0  0  0
 32 54  1  0  0  0
 32 55  1  0  0  0
 32 56  1  0  0  0
 33 57  1  0  0  0
 34 35  1  0  0  0
 34 36  1  0  0  0
 34 37  1  0  0  0
 35 58  1  0  0  0
 35 59  1  0  0  0
 35 60  1  0  0  0
 36 61  1  0  0  0
 36 62  1  0  0  0
 36 63  1  0  0  0
 37 64  1  0  0  0
 37 65  1  0  0  0
 37 66  1  0  0  0
M  CHG  1  21   1
M  END
> <i_i_glide_confnum>
103

> <i_i_glide_lignum>
2939

> <i_i_glide_posenum>
359

> <i_i_glide_rotatable_bonds>
8

> <i_m_Source_File_Index>
4737

> <b_m_subgroup_collapsed>
0

> <r_i_docking_score>
-5.26132

> <r_i_glide_ecoul>
-8.05121

> <r_i_glide_eff_state_penalty>
0

> <r_i_glide_einternal>
2.85958

> <r_i_glide_emodel>
-66.3811

> <r_i_glide_energy>
-50.8932

> <r_i_glide_erotb>
0.454956

> <r_i_glide_esite>
-0.0270227

> <r_i_glide_evdw>
-42.842

> <r_i_glide_gscore>
-5.26132

> <r_i_glide_hbond>
0

> <r_i_glide_ligand_efficiency>
-0.142198

> <r_i_glide_ligand_efficiency_ln>
-1.14106

> <r_i_glide_ligand_efficiency_sa>
-0.473835

> <r_i_glide_lipo>
-2.32107

> <r_i_glide_metal>
0

> <r_i_glide_rewards>
-0.0184018

> <s_i_glide_gridfile>
wee1_glide-grid

> <s_m_Source_File>
wee1_decoys_glide_SP.sdf

> <s_m_Source_Path>
/Users/zhangxujun/Desktop

> <s_m_entry_id>
5012

> <s_m_entry_name>
wee1_decoys_glide_SP.4737

> <s_m_subgroup_title>
wee1_decoys_glide_SP

> <s_m_subgroupid>
wee1_decoys_glide_SP


$$$$
