ZINC17094979_2609
                    3D
 Schrodinger Suite 2024-2.
 55 58  0  0  1  0            999 V2000
    0.3124   51.6440   26.6253 C   0  0  0  0  0  0
    0.7633   52.7555   27.5687 C   0  0  0  0  0  0
    0.1049   52.8555   28.8001 C   0  0  0  0  0  0
    0.4756   53.8203   29.7347 C   0  0  0  0  0  0
    1.5179   54.6992   29.4495 C   0  0  0  0  0  0
    2.1960   54.6035   28.2354 C   0  0  0  0  0  0
    1.8252   53.6476   27.2827 C   0  0  0  0  0  0
    2.6063   53.6178   26.1159 N   0  0  0  0  0  0
    2.1896   53.6649   24.8330 C   0  0  0  0  0  0
    1.0115   53.6967   24.4814 O   0  0  0  0  0  0
    3.2639   53.6740   23.8565 C   0  0  0  0  0  0
    4.5870   54.1211   24.0988 C   0  0  0  0  0  0
    5.3958   54.1013   22.9840 C   0  0  0  0  0  0
    4.5875   53.5602   21.5648 S   0  0  0  0  0  0
    3.1397   53.2986   22.4956 C   0  0  0  0  0  0
    2.1226   52.6745   21.7952 N   0  0  0  0  0  0
    1.6649   51.4419   22.1127 C   0  0  0  0  0  0
    1.9046   50.8749   23.1802 O   0  0  0  0  0  0
    0.8487   50.6765   21.0374 C   0  0  2  0  0  0
    0.7316   49.6494   21.3920 H   0  0  0  0  0  0
    1.7159   50.6405   19.7359 C   0  0  0  0  0  0
    0.9904   49.8843   18.6003 C   0  0  0  0  0  0
   -0.4103   50.4649   18.3182 C   0  0  0  0  0  0
   -1.2478   50.5191   19.6074 C   0  0  0  0  0  0
   -0.5193   51.3587   20.6903 C   0  0  1  0  0  0
   -0.3363   52.3773   20.3387 H   0  0  0  0  0  0
   -1.4524   51.4363   21.9228 C   0  0  0  0  0  0
   -1.5903   50.4057   22.6205 O   0  0  0  0  0  0
    6.7876   54.5951   23.2548 C   0  0  0  0  0  0
    6.6056   55.2615   24.6252 C   0  0  0  0  0  0
    5.3875   54.6011   25.2908 C   0  0  0  0  0  0
    1.1070   51.3002   25.9674 H   0  0  0  0  0  0
   -0.0127   50.7646   27.1861 H   0  0  0  0  0  0
   -0.5242   51.9805   26.0122 H   0  0  0  0  0  0
   -0.7027   52.1762   29.0382 H   0  0  0  0  0  0
   -0.0462   53.8840   30.6783 H   0  0  0  0  0  0
    1.8003   55.4552   30.1674 H   0  0  0  0  0  0
    3.0038   55.2918   28.0334 H   0  0  0  0  0  0
    3.6028   53.6625   26.2588 H   0  0  0  0  0  0
    1.9560   53.0019   20.8552 H   0  0  0  0  0  0
    1.8907   51.6419   19.3351 H   0  0  0  0  0  0
    2.6582   50.1117   19.8972 H   0  0  0  0  0  0
    0.9012   48.8292   18.8657 H   0  0  0  0  0  0
    1.5957   49.9136   17.6910 H   0  0  0  0  0  0
   -0.9188   49.8594   17.5671 H   0  0  0  0  0  0
   -0.3180   51.4665   17.8937 H   0  0  0  0  0  0
   -1.3988   49.4931   19.9533 H   0  0  0  0  0  0
   -2.2296   50.9371   19.3773 H   0  0  0  0  0  0
    7.5058   53.7765   23.2907 H   0  0  0  0  0  0
    7.1459   55.3157   22.5195 H   0  0  0  0  0  0
    7.5016   55.1890   25.2399 H   0  0  0  0  0  0
    6.4023   56.3245   24.4853 H   0  0  0  0  0  0
    4.8546   55.3058   25.9318 H   0  0  0  0  0  0
    5.7098   53.7626   25.9117 H   0  0  0  0  0  0
   -2.0961   52.4960   22.0793 O   0  5  0  0  0  0
  1  2  1  0  0  0
  1 32  1  0  0  0
  1 33  1  0  0  0
  1 34  1  0  0  0
  2  7  2  0  0  0
  2  3  1  0  0  0
  3  4  2  0  0  0
  3 35  1  0  0  0
  4  5  1  0  0  0
  4 36  1  0  0  0
  5  6  2  0  0  0
  5 37  1  0  0  0
  6  7  1  0  0  0
  6 38  1  0  0  0
  7  8  1  0  0  0
  8  9  1  0  0  0
  8 39  1  0  0  0
  9 10  2  0  0  0
  9 11  1  0  0  0
 11 15  2  0  0  0
 11 12  1  0  0  0
 12 31  1  0  0  0
 12 13  2  0  0  0
 13 14  1  0  0  0
 13 29  1  0  0  0
 14 15  1  0  0  0
 15 16  1  0  0  0
 16 17  1  0  0  0
 16 40  1  0  0  0
 17 18  2  0  0  0
 17 19  1  0  0  0
 19 20  1  0  0  0
 19 25  1  0  0  0
 19 21  1  0  0  0
 21 22  1  0  0  0
 21 41  1  0  0  0
 21 42  1  0  0  0
 22 23  1  0  0  0
 22 43  1  0  0  0
 22 44  1  0  0  0
 23 24  1  0  0  0
 23 45  1  0  0  0
 23 46  1  0  0  0
 24 25  1  0  0  0
 24 47  1  0  0  0
 24 48  1  0  0  0
 25 26  1  0  0  0
 25 27  1  0  0  0
 27 28  2  0  0  0
 27 55  1  0  0  0
 29 30  1  0  0  0
 29 49  1  0  0  0
 29 50  1  0  0  0
 30 31  1  0  0  0
 30 51  1  0  0  0
 30 52  1  0  0  0
 31 53  1  0  0  0
 31 54  1  0  0  0
M  CHG  1  55  -1
M  END
> <i_i_glide_confnum>
94

> <i_i_glide_lignum>
2610

> <i_i_glide_posenum>
286

> <i_i_glide_rotatable_bonds>
7

> <i_m_Source_File_Index>
3294

> <b_m_subgroup_collapsed>
0

> <r_i_docking_score>
-5.75663

> <r_i_glide_ecoul>
-3.37506

> <r_i_glide_eff_state_penalty>
0

> <r_i_glide_einternal>
10.3672

> <r_i_glide_emodel>
-55.3486

> <r_i_glide_energy>
-43.8657

> <r_i_glide_erotb>
0.657363

> <r_i_glide_esite>
-0.0075264

> <r_i_glide_evdw>
-40.4907

> <r_i_glide_gscore>
-5.75663

> <r_i_glide_hbond>
-0.00592785

> <r_i_glide_ligand_efficiency>
-0.191888

> <r_i_glide_ligand_efficiency_ln>
-1.30797

> <r_i_glide_ligand_efficiency_sa>
-0.596239

> <r_i_glide_lipo>
-2.94868

> <r_i_glide_metal>
0

> <r_i_glide_rewards>
-0.92106

> <s_i_glide_gridfile>
wee1_glide-grid

> <s_m_Source_File>
wee1_decoys_glide_SP.sdf

> <s_m_Source_Path>
/Users/zhangxujun/Desktop

> <s_m_entry_id>
3569

> <s_m_entry_name>
wee1_decoys_glide_SP.3294

> <s_m_subgroup_title>
wee1_decoys_glide_SP

> <s_m_subgroupid>
wee1_decoys_glide_SP


$$$$
