ZINC35100391_5159
                    3D
 Schrodinger Suite 2024-2.
 70 72  0  0  1  0            999 V2000
    9.9230   54.0705   17.5437 C   0  0  0  0  0  0
    8.7543   54.5064   16.6411 C   0  0  0  0  0  0
    7.3623   53.9796   17.0770 C   0  0  1  0  0  0
    6.6489   54.3528   16.3458 H   0  0  0  0  0  0
    7.2985   52.4484   16.8896 C   0  0  0  0  0  0
    6.9435   54.4540   18.5199 C   0  0  2  0  0  0
    7.5754   53.8429   19.1591 H   0  0  0  0  0  0
    5.4812   54.0743   18.9268 C   0  0  0  0  0  0
    4.6828   53.7907   18.0310 O   0  0  0  0  0  0
    5.1206   54.1131   20.2458 N   0  0  0  0  0  0
    6.0265   54.5445   21.3262 C   0  0  0  0  0  0
    5.9060   53.5329   22.4734 C   0  0  0  0  0  0
    4.5182   53.5478   22.9400 N   0  0  0  0  0  0
    3.5239   53.0883   21.9350 C   0  0  1  0  0  0
    2.5290   53.3392   22.3041 H   0  0  0  0  0  0
    3.7056   53.9257   20.6373 C   0  0  0  0  0  0
    3.5230   51.5727   21.6517 C   0  0  0  0  0  0
    4.2452   54.0966   24.1588 C   0  0  0  0  0  0
    5.0711   54.7880   24.7607 O   0  0  0  0  0  0
    3.0761   53.6956   24.7052 N   0  0  0  0  0  0
    2.6613   53.7551   26.0517 C   0  0  0  0  0  0
    3.2991   54.4940   27.0646 C   0  0  0  0  0  0
    2.7924   54.4993   28.3630 C   0  0  0  0  0  0
    1.6550   53.7581   28.6733 C   0  0  0  0  0  0
    1.0151   53.0054   27.6824 C   0  0  0  0  0  0
    1.5206   53.0165   26.3770 C   0  0  0  0  0  0
   -0.2047   52.1487   27.9979 C   0  0  0  0  0  0
   -1.2404   52.5101   27.2421 F   0  0  0  0  0  0
    0.1007   50.8920   27.7089 F   0  0  0  0  0  0
   -0.5627   52.2170   29.2812 F   0  0  0  0  0  0
    7.2904   55.8469   18.8642 N   0  0  0  0  0  0
    6.7581   57.0219   18.4782 C   0  0  0  0  0  0
    7.0706   58.0295   19.1106 O   0  0  0  0  0  0
    5.8973   57.1382   17.1907 C   0  0  0  0  0  0
    4.3727   57.1164   17.4448 C   0  0  0  0  0  0
    3.7725   58.2573   16.6048 C   0  0  0  0  0  0
    4.8706   58.6646   15.6226 C   0  0  0  0  0  0
    6.1596   58.4451   16.4123 C   0  0  0  0  0  0
   10.8766   54.3662   17.1073 H   0  0  0  0  0  0
    9.8655   54.5282   18.5304 H   0  0  0  0  0  0
    9.9510   52.9896   17.6782 H   0  0  0  0  0  0
    8.9570   54.1899   15.6178 H   0  0  0  0  0  0
    8.7375   55.5957   16.5994 H   0  0  0  0  0  0
    7.8373   51.9114   17.6687 H   0  0  0  0  0  0
    6.2702   52.0968   16.9011 H   0  0  0  0  0  0
    7.7148   52.1467   15.9293 H   0  0  0  0  0  0
    7.0742   54.5875   21.0449 H   0  0  0  0  0  0
    5.7325   55.5354   21.6769 H   0  0  0  0  0  0
    6.1242   52.5298   22.1098 H   0  0  0  0  0  0
    6.6344   53.7183   23.2657 H   0  0  0  0  0  0
    3.3035   54.8977   20.8804 H   0  0  0  0  0  0
    3.0960   53.5061   19.8343 H   0  0  0  0  0  0
    2.8839   51.3469   20.7968 H   0  0  0  0  0  0
    4.5127   51.1915   21.4015 H   0  0  0  0  0  0
    3.1046   51.0046   22.4812 H   0  0  0  0  0  0
    2.4808   53.1413   24.1107 H   0  0  0  0  0  0
    4.1774   55.0894   26.8792 H   0  0  0  0  0  0
    3.2868   55.0801   29.1282 H   0  0  0  0  0  0
    1.2813   53.7650   29.6876 H   0  0  0  0  0  0
    1.0215   52.4317   25.6164 H   0  0  0  0  0  0
    7.9628   55.9114   19.6128 H   0  0  0  0  0  0
    6.1994   56.3427   16.5228 H   0  0  0  0  0  0
    4.1116   57.2689   18.4885 H   0  0  0  0  0  0
    3.9474   56.1610   17.1359 H   0  0  0  0  0  0
    3.5204   59.1079   17.2412 H   0  0  0  0  0  0
    2.8556   57.9590   16.0949 H   0  0  0  0  0  0
    4.7625   59.6959   15.2820 H   0  0  0  0  0  0
    4.8505   58.0206   14.7418 H   0  0  0  0  0  0
    7.0299   58.3778   15.7584 H   0  0  0  0  0  0
    6.3138   59.2965   17.0765 H   0  0  0  0  0  0
  1  2  1  0  0  0
  1 39  1  0  0  0
  1 40  1  0  0  0
  1 41  1  0  0  0
  2  3  1  0  0  0
  2 42  1  0  0  0
  2 43  1  0  0  0
  3  4  1  0  0  0
  3  5  1  0  0  0
  3  6  1  0  0  0
  5 44  1  0  0  0
  5 45  1  0  0  0
  5 46  1  0  0  0
  6  7  1  0  0  0
  6  8  1  0  0  0
  6 31  1  0  0  0
  8  9  2  0  0  0
  8 10  1  0  0  0
 10 16  1  0  0  0
 10 11  1  0  0  0
 11 12  1  0  0  0
 11 47  1  0  0  0
 11 48  1  0  0  0
 12 13  1  0  0  0
 12 49  1  0  0  0
 12 50  1  0  0  0
 13 14  1  0  0  0
 13 18  1  0  0  0
 14 15  1  0  0  0
 14 16  1  0  0  0
 14 17  1  0  0  0
 16 51  1  0  0  0
 16 52  1  0  0  0
 17 53  1  0  0  0
 17 54  1  0  0  0
 17 55  1  0  0  0
 18 19  2  0  0  0
 18 20  1  0  0  0
 20 21  1  0  0  0
 20 56  1  0  0  0
 21 26  2  0  0  0
 21 22  1  0  0  0
 22 23  2  0  0  0
 22 57  1  0  0  0
 23 24  1  0  0  0
 23 58  1  0  0  0
 24 25  2  0  0  0
 24 59  1  0  0  0
 25 26  1  0  0  0
 25 27  1  0  0  0
 26 60  1  0  0  0
 27 28  1  0  0  0
 27 29  1  0  0  0
 27 30  1  0  0  0
 31 32  1  0  0  0
 31 61  1  0  0  0
 32 33  2  0  0  0
 32 34  1  0  0  0
 34 38  1  0  0  0
 34 35  1  0  0  0
 34 62  1  0  0  0
 35 36  1  0  0  0
 35 63  1  0  0  0
 35 64  1  0  0  0
 36 37  1  0  0  0
 36 65  1  0  0  0
 36 66  1  0  0  0
 37 38  1  0  0  0
 37 67  1  0  0  0
 37 68  1  0  0  0
 38 69  1  0  0  0
 38 70  1  0  0  0
M  END
> <i_i_glide_confnum>
298

> <i_i_glide_lignum>
5160

> <i_i_glide_posenum>
397

> <i_i_glide_rotatable_bonds>
11

> <i_m_Source_File_Index>
6034

> <b_m_subgroup_collapsed>
0

> <r_i_docking_score>
-2.48102

> <r_i_glide_ecoul>
-1.84498

> <r_i_glide_eff_state_penalty>
0

> <r_i_glide_einternal>
10.5206

> <r_i_glide_emodel>
-33.5506

> <r_i_glide_energy>
-38.5135

> <r_i_glide_erotb>
0.661639

> <r_i_glide_esite>
-0.140806

> <r_i_glide_evdw>
-36.6685

> <r_i_glide_gscore>
-2.48102

> <r_i_glide_hbond>
-0.146034

> <r_i_glide_ligand_efficiency>
-0.0708862

> <r_i_glide_ligand_efficiency_ln>
-0.544639

> <r_i_glide_ligand_efficiency_sa>
-0.231874

> <r_i_glide_lipo>
-1.74911

> <r_i_glide_metal>
0

> <r_i_glide_rewards>
1.00347

> <s_i_glide_gridfile>
wee1_glide-grid

> <s_m_Source_File>
wee1_decoys_glide_SP.sdf

> <s_m_Source_Path>
/Users/zhangxujun/Desktop

> <s_m_entry_id>
6309

> <s_m_entry_name>
wee1_decoys_glide_SP.6034

> <s_m_subgroup_title>
wee1_decoys_glide_SP

> <s_m_subgroupid>
wee1_decoys_glide_SP


$$$$
