ZINC38811799_1141
                    3D
 Schrodinger Suite 2024-2.
 66 71  0  0  1  0            999 V2000
    0.7297   52.3799   29.0428 C   0  0  0  0  0  0
    0.6308   51.4959   27.9722 C   0  0  0  0  0  0
    1.0213   51.9046   26.6998 C   0  0  0  0  0  0
    1.5034   53.2024   26.4794 C   0  0  0  0  0  0
    1.5992   54.0779   27.5742 C   0  0  0  0  0  0
    1.2186   53.6688   28.8503 C   0  0  0  0  0  0
    1.8575   53.7108   25.0606 C   0  0  2  0  0  0
    1.1526   54.5208   24.9305 H   0  0  0  0  0  0
    1.5283   52.8592   23.8553 C   0  0  0  0  0  0
    0.3380   52.1852   23.5582 C   0  0  0  0  0  0
    0.2129   51.4700   22.3683 C   0  0  0  0  0  0
    1.2686   51.4352   21.4614 C   0  0  0  0  0  0
    2.4468   52.1268   21.7369 C   0  0  0  0  0  0
    2.5831   52.8436   22.9319 C   0  0  0  0  0  0
    3.6351   53.6453   23.4012 N   0  0  0  0  0  0
    3.2796   54.2295   24.7162 C   0  0  2  0  0  0
    3.1240   55.2849   24.4928 H   0  0  0  0  0  0
    4.3912   54.2676   25.7924 C   0  0  0  0  0  0
    4.5336   53.2968   26.7931 C   0  0  0  0  0  0
    5.6090   53.3202   27.6745 C   0  0  0  0  0  0
    6.5678   54.3162   27.5505 C   0  0  0  0  0  0
    6.4260   55.2966   26.5762 C   0  0  0  0  0  0
    5.3361   55.2888   25.7215 C   0  0  0  0  0  0
    5.0543   53.3166   23.1409 C   0  0  0  0  0  0
    5.9366   54.4151   22.4917 C   0  0  0  0  0  0
    5.5197   54.9342   21.1082 C   0  0  0  0  0  0
    5.9048   56.0509   20.7609 O   0  0  0  0  0  0
    4.8066   54.0700   20.3422 N   0  0  0  0  0  0
    4.3054   54.1487   19.0655 N   0  0  0  0  0  0
    4.2475   55.2376   18.4035 C   0  0  0  0  0  0
    3.6986   55.2383   17.0797 C   0  0  0  0  0  0
    3.5580   56.3218   16.2873 C   0  0  0  0  0  0
    3.8984   57.7418   16.4907 C   0  0  0  0  0  0
    3.6527   58.6545   15.5317 C   0  0  0  0  0  0
    3.0424   58.2027   14.2919 C   0  0  0  0  0  0
    2.7241   56.8992   14.0813 C   0  0  0  0  0  0
    2.9754   55.9391   15.0704 C   0  0  0  0  0  0
    2.7399   54.6483   15.0503 N   0  3  0  0  0  0
    3.1696   54.0364   16.3188 C   0  0  0  0  0  0
    0.4206   52.0632   30.0287 H   0  0  0  0  0  0
    0.2413   50.4970   28.1188 H   0  0  0  0  0  0
    0.9401   51.1932   25.8926 H   0  0  0  0  0  0
    1.9811   55.0780   27.4420 H   0  0  0  0  0  0
    1.2940   54.3514   29.6836 H   0  0  0  0  0  0
   -0.4952   52.2098   24.2456 H   0  0  0  0  0  0
   -0.7036   50.9408   22.1495 H   0  0  0  0  0  0
    1.1721   50.8794   20.5401 H   0  0  0  0  0  0
    3.2406   52.0849   21.0098 H   0  0  0  0  0  0
    3.8284   52.4952   26.8844 H   0  0  0  0  0  0
    5.7079   52.5554   28.4299 H   0  0  0  0  0  0
    7.4124   54.3403   28.2229 H   0  0  0  0  0  0
    7.1309   56.0969   26.4805 H   0  0  0  0  0  0
    5.2445   56.0777   24.9935 H   0  0  0  0  0  0
    5.5349   52.9952   24.0621 H   0  0  0  0  0  0
    5.1367   52.4208   22.5221 H   0  0  0  0  0  0
    5.9092   55.2913   23.1262 H   0  0  0  0  0  0
    6.9805   54.1040   22.4746 H   0  0  0  0  0  0
    4.6739   53.1511   20.7340 H   0  0  0  0  0  0
    4.5712   56.2119   18.7553 H   0  0  0  0  0  0
    4.3575   58.0961   17.4027 H   0  0  0  0  0  0
    3.9069   59.6951   15.6794 H   0  0  0  0  0  0
    2.8403   58.9286   13.5171 H   0  0  0  0  0  0
    2.2750   56.6223   13.1382 H   0  0  0  0  0  0
    3.9311   53.2841   16.1022 H   0  0  0  0  0  0
    2.3029   53.5670   16.7883 H   0  0  0  0  0  0
    2.3233   54.1341   14.2784 H   0  0  0  0  0  0
  1  6  2  0  0  0
  1  2  1  0  0  0
  1 40  1  0  0  0
  2  3  2  0  0  0
  2 41  1  0  0  0
  3  4  1  0  0  0
  3 42  1  0  0  0
  4  5  2  0  0  0
  4  7  1  0  0  0
  5  6  1  0  0  0
  5 43  1  0  0  0
  6 44  1  0  0  0
  7  8  1  0  0  0
  7 16  1  0  0  0
  7  9  1  0  0  0
  9 14  2  0  0  0
  9 10  1  0  0  0
 10 11  2  0  0  0
 10 45  1  0  0  0
 11 12  1  0  0  0
 11 46  1  0  0  0
 12 13  2  0  0  0
 12 47  1  0  0  0
 13 14  1  0  0  0
 13 48  1  0  0  0
 14 15  1  0  0  0
 15 16  1  0  0  0
 15 24  1  0  0  0
 16 17  1  0  0  0
 16 18  1  0  0  0
 18 23  2  0  0  0
 18 19  1  0  0  0
 19 20  2  0  0  0
 19 49  1  0  0  0
 20 21  1  0  0  0
 20 50  1  0  0  0
 21 22  2  0  0  0
 21 51  1  0  0  0
 22 23  1  0  0  0
 22 52  1  0  0  0
 23 53  1  0  0  0
 24 25  1  0  0  0
 24 54  1  0  0  0
 24 55  1  0  0  0
 25 26  1  0  0  0
 25 56  1  0  0  0
 25 57  1  0  0  0
 26 27  2  0  0  0
 26 28  1  0  0  0
 28 29  1  0  0  0
 28 58  1  0  0  0
 29 30  2  0  0  0
 30 31  1  0  0  0
 30 59  1  0  0  0
 31 39  1  0  0  0
 31 32  2  0  0  0
 32 37  1  0  0  0
 32 33  1  0  0  0
 33 34  2  0  0  0
 33 60  1  0  0  0
 34 35  1  0  0  0
 34 61  1  0  0  0
 35 36  2  0  0  0
 35 62  1  0  0  0
 36 37  1  0  0  0
 36 63  1  0  0  0
 37 38  2  0  0  0
 38 39  1  0  0  0
 38 66  1  0  0  0
 39 64  1  0  0  0
 39 65  1  0  0  0
M  CHG  1  38   1
M  END
> <i_i_glide_confnum>
50

> <i_i_glide_lignum>
1142

> <i_i_glide_posenum>
185

> <i_i_glide_rotatable_bonds>
8

> <i_m_Source_File_Index>
2807

> <b_m_subgroup_collapsed>
0

> <r_i_docking_score>
-5.74652

> <r_i_glide_ecoul>
-1.49661

> <r_i_glide_eff_state_penalty>
0

> <r_i_glide_einternal>
20.5144

> <r_i_glide_emodel>
-46.2257

> <r_i_glide_energy>
-39.809

> <r_i_glide_erotb>
0.603096

> <r_i_glide_esite>
0

> <r_i_glide_evdw>
-38.3124

> <r_i_glide_gscore>
-5.74652

> <r_i_glide_hbond>
0

> <r_i_glide_ligand_efficiency>
-0.155311

> <r_i_glide_ligand_efficiency_ln>
-1.24628

> <r_i_glide_ligand_efficiency_sa>
-0.517532

> <r_i_glide_lipo>
-3.42091

> <r_i_glide_metal>
0

> <r_i_glide_rewards>
-0.788592

> <s_i_glide_gridfile>
wee1_glide-grid

> <s_m_Source_File>
wee1_decoys_glide_SP.sdf

> <s_m_Source_Path>
/Users/zhangxujun/Desktop

> <s_m_entry_id>
3082

> <s_m_entry_name>
wee1_decoys_glide_SP.2807

> <s_m_subgroup_title>
wee1_decoys_glide_SP

> <s_m_subgroupid>
wee1_decoys_glide_SP


$$$$
