ZINC39324902_4960
                    3D
 Schrodinger Suite 2024-2.
 60 64  0  0  1  0            999 V2000
    5.8815   54.7440   28.4841 C   0  0  0  0  0  0
    4.6795   54.4608   27.7909 O   0  0  0  0  0  0
    4.7289   54.3668   26.4169 C   0  0  0  0  0  0
    5.9064   54.2362   25.6627 C   0  0  0  0  0  0
    5.8355   54.0962   24.2772 C   0  0  0  0  0  0
    4.5931   54.0975   23.6295 C   0  0  0  0  0  0
    3.4496   54.3481   24.3771 C   0  0  0  0  0  0
    3.5047   54.4212   25.7621 C   0  0  0  0  0  0
    4.4657   53.8363   22.1642 C   0  0  0  0  0  0
    3.4396   53.3650   21.3221 C   0  0  0  0  0  0
    4.0831   53.2400   20.0754 C   0  0  0  0  0  0
    5.2987   53.7119   20.0444 N   0  0  0  0  0  0
    5.5037   54.0912   21.3039 N   0  0  0  0  0  0
    6.3844   54.4903   21.5921 H   0  0  0  0  0  0
    3.5428   52.7076   18.9341 O   0  0  0  0  0  0
    2.2511   52.3026   19.0308 C   0  0  0  0  0  0
    1.4541   52.4014   20.1220 C   0  0  0  0  0  0
    1.9513   52.9718   21.4659 C   0  0  1  0  0  0
    1.4017   53.8863   21.6818 H   0  0  0  0  0  0
    1.5433   52.1096   22.6457 C   0  0  0  0  0  0
    1.7751   50.7354   22.6401 C   0  0  0  0  0  0
    1.3134   49.9593   23.6957 C   0  0  0  0  0  0
    0.7039   50.5604   24.8125 C   0  0  0  0  0  0
    0.5084   51.9416   24.8279 C   0  0  0  0  0  0
    0.8528   52.6858   23.7151 C   0  0  0  0  0  0
    0.0926   52.6527   25.9312 O   0  0  0  0  0  0
   -1.0427   52.2474   26.6961 C   0  0  0  0  0  0
   -2.2766   51.9250   25.8594 C   0  0  0  0  0  0
   -2.6537   52.7588   24.8004 C   0  0  0  0  0  0
   -3.8079   52.4766   24.0827 C   0  0  0  0  0  0
   -4.5805   51.3652   24.4138 C   0  0  0  0  0  0
   -4.2018   50.5239   25.4587 C   0  0  0  0  0  0
   -3.0484   50.8049   26.1848 C   0  0  0  0  0  0
    0.3075   49.8828   25.9327 O   0  0  0  0  0  0
    0.4827   48.4963   25.9817 C   0  0  0  0  0  0
    0.0871   51.9913   20.0419 C   0  0  0  0  0  0
   -1.0324   51.7004   19.9828 N   0  0  0  0  0  0
    1.9171   51.7549   17.8230 N   0  0  0  0  0  0
    5.6678   54.8992   29.5413 H   0  0  0  0  0  0
    6.6089   53.9349   28.4061 H   0  0  0  0  0  0
    6.3043   55.6637   28.0807 H   0  0  0  0  0  0
    6.8740   54.1915   26.1378 H   0  0  0  0  0  0
    6.7489   53.9379   23.7220 H   0  0  0  0  0  0
    2.5156   54.4927   23.8743 H   0  0  0  0  0  0
    2.5945   54.5248   26.3354 H   0  0  0  0  0  0
    2.2801   50.2664   21.8068 H   0  0  0  0  0  0
    1.4868   48.8969   23.6503 H   0  0  0  0  0  0
    0.6126   53.7370   23.7252 H   0  0  0  0  0  0
   -1.2924   53.0852   27.3431 H   0  0  0  0  0  0
   -0.7800   51.4356   27.3768 H   0  0  0  0  0  0
   -2.0518   53.6094   24.5170 H   0  0  0  0  0  0
   -4.1041   53.1325   23.2844 H   0  0  0  0  0  0
   -5.4797   51.1529   23.8539 H   0  0  0  0  0  0
   -4.8001   49.6594   25.7088 H   0  0  0  0  0  0
   -2.7573   50.1503   26.9964 H   0  0  0  0  0  0
    0.3016   48.2241   27.0075 H   0  0  0  0  0  0
   -0.2140   47.9682   25.3287 H   0  0  0  0  0  0
    1.5043   48.2029   25.7649 H   0  0  0  0  0  0
    0.9788   51.4243   17.6547 H   0  0  0  0  0  0
    2.6539   51.3509   17.2580 H   0  0  0  0  0  0
  1  2  1  0  0  0
  1 39  1  0  0  0
  1 40  1  0  0  0
  1 41  1  0  0  0
  2  3  1  0  0  0
  3  8  2  0  0  0
  3  4  1  0  0  0
  4  5  2  0  0  0
  4 42  1  0  0  0
  5  6  1  0  0  0
  5 43  1  0  0  0
  6  7  2  0  0  0
  6  9  1  0  0  0
  7  8  1  0  0  0
  7 44  1  0  0  0
  8 45  1  0  0  0
  9 13  1  0  0  0
  9 10  2  0  0  0
 10 18  1  0  0  0
 10 11  1  0  0  0
 11 12  2  0  0  0
 11 15  1  0  0  0
 12 13  1  0  0  0
 13 14  1  0  0  0
 15 16  1  0  0  0
 16 17  2  0  0  0
 16 38  1  0  0  0
 17 18  1  0  0  0
 17 36  1  0  0  0
 18 19  1  0  0  0
 18 20  1  0  0  0
 20 25  2  0  0  0
 20 21  1  0  0  0
 21 22  2  0  0  0
 21 46  1  0  0  0
 22 23  1  0  0  0
 22 47  1  0  0  0
 23 24  2  0  0  0
 23 34  1  0  0  0
 24 25  1  0  0  0
 24 26  1  0  0  0
 25 48  1  0  0  0
 26 27  1  0  0  0
 27 28  1  0  0  0
 27 49  1  0  0  0
 27 50  1  0  0  0
 28 33  2  0  0  0
 28 29  1  0  0  0
 29 30  2  0  0  0
 29 51  1  0  0  0
 30 31  1  0  0  0
 30 52  1  0  0  0
 31 32  2  0  0  0
 31 53  1  0  0  0
 32 33  1  0  0  0
 32 54  1  0  0  0
 33 55  1  0  0  0
 34 35  1  0  0  0
 35 56  1  0  0  0
 35 57  1  0  0  0
 35 58  1  0  0  0
 36 37  3  0  0  0
 38 59  1  0  0  0
 38 60  1  0  0  0
M  END
> <i_i_glide_confnum>
62

> <i_i_glide_lignum>
4961

> <i_i_glide_posenum>
118

> <i_i_glide_rotatable_bonds>
8

> <i_m_Source_File_Index>
5976

> <b_m_subgroup_collapsed>
0

> <r_i_docking_score>
-4.3869

> <r_i_glide_ecoul>
-4.2701

> <r_i_glide_eff_state_penalty>
0

> <r_i_glide_einternal>
14.256

> <r_i_glide_emodel>
-36.4116

> <r_i_glide_energy>
-34.6313

> <r_i_glide_erotb>
0.439154

> <r_i_glide_esite>
-0.0644053

> <r_i_glide_evdw>
-30.3612

> <r_i_glide_gscore>
-4.3869

> <r_i_glide_hbond>
0

> <r_i_glide_ligand_efficiency>
-0.121858

> <r_i_glide_ligand_efficiency_ln>
-0.957102

> <r_i_glide_ligand_efficiency_sa>
-0.402367

> <r_i_glide_lipo>
-2.39654

> <r_i_glide_metal>
0

> <r_i_glide_rewards>
-0.206528

> <s_i_glide_gridfile>
wee1_glide-grid

> <s_m_Source_File>
wee1_decoys_glide_SP.sdf

> <s_m_Source_Path>
/Users/zhangxujun/Desktop

> <s_m_entry_id>
6251

> <s_m_entry_name>
wee1_decoys_glide_SP.5976

> <s_m_subgroup_title>
wee1_decoys_glide_SP

> <s_m_subgroupid>
wee1_decoys_glide_SP


$$$$
