ZINC10753199_3368
                    3D
 Schrodinger Suite 2024-2.
 52 54  0  0  1  0            999 V2000
    3.3277   54.9312   17.1490 C   0  0  0  0  0  0
    4.7997   54.5346   16.8802 C   0  0  2  0  0  0
    5.3114   55.4297   16.5172 H   0  0  0  0  0  0
    4.8490   53.4990   15.7220 C   0  0  0  0  0  0
    6.2851   53.1441   15.2823 C   0  0  0  0  0  0
    7.1509   52.6792   16.4688 C   0  0  0  0  0  0
    7.0960   53.7093   17.6114 C   0  0  0  0  0  0
    5.6368   53.9837   18.0859 C   0  0  1  0  0  0
    5.7121   55.0090   19.2103 C   0  0  0  0  0  0
    6.2358   56.1252   19.1500 O   0  0  0  0  0  0
    5.1044   54.4308   20.2701 N   0  0  0  0  0  0
    4.5817   53.2043   20.0156 C   0  0  0  0  0  0
    3.7123   52.6121   20.6518 O   0  0  0  0  0  0
    5.0222   52.8967   18.7962 N   0  0  0  0  0  0
    5.0921   55.0905   21.5895 C   0  0  0  0  0  0
    5.8321   54.3384   22.7049 C   0  0  0  0  0  0
    5.9044   53.1129   22.7582 O   0  0  0  0  0  0
    6.3044   55.1872   23.6418 O   0  0  0  0  0  0
    7.1044   54.7478   24.7378 C   0  0  0  0  0  0
    6.2941   54.6000   26.0317 C   0  0  0  0  0  0
    6.8456   54.8967   27.0884 O   0  0  0  0  0  0
    5.0467   54.0967   25.9343 N   0  0  0  0  0  0
    4.1321   53.7897   26.9580 C   0  0  0  0  0  0
    4.5129   53.5501   28.2876 C   0  0  0  0  0  0
    3.5584   53.2332   29.2510 C   0  0  0  0  0  0
    2.1995   53.1527   28.9163 C   0  0  0  0  0  0
    1.8263   53.3779   27.5832 C   0  0  0  0  0  0
    2.7770   53.6936   26.6104 C   0  0  0  0  0  0
    2.1893   53.9688   24.8120 Br  0  0  0  0  0  0
    1.1821   52.8349   29.9473 N   0  3  0  0  0  0
    1.5732   52.4967   31.0609 O   0  0  0  0  0  0
   -0.0048   52.9382   29.6507 O   0  5  0  0  0  0
    2.7398   54.0787   17.4918 H   0  0  0  0  0  0
    3.2534   55.7063   17.9124 H   0  0  0  0  0  0
    2.8500   55.3224   16.2502 H   0  0  0  0  0  0
    4.3059   52.5957   16.0080 H   0  0  0  0  0  0
    4.3045   53.8869   14.8597 H   0  0  0  0  0  0
    6.2579   52.3666   14.5177 H   0  0  0  0  0  0
    6.7472   54.0151   14.8148 H   0  0  0  0  0  0
    6.8042   51.7074   16.8221 H   0  0  0  0  0  0
    8.1820   52.5326   16.1446 H   0  0  0  0  0  0
    7.6241   54.6310   17.3561 H   0  0  0  0  0  0
    7.6728   53.2967   18.4394 H   0  0  0  0  0  0
    5.1044   51.9258   18.4776 H   0  0  0  0  0  0
    4.0521   55.2081   21.8962 H   0  0  0  0  0  0
    5.5044   56.0967   21.5125 H   0  0  0  0  0  0
    7.9044   55.4685   24.8817 H   0  0  0  0  0  0
    7.5657   53.7796   24.5337 H   0  0  0  0  0  0
    4.7011   53.9287   25.0010 H   0  0  0  0  0  0
    5.5476   53.5801   28.5923 H   0  0  0  0  0  0
    3.8902   53.0461   30.2623 H   0  0  0  0  0  0
    0.7889   53.2967   27.2903 H   0  0  0  0  0  0
  1  2  1  0  0  0
  1 33  1  0  0  0
  1 34  1  0  0  0
  1 35  1  0  0  0
  2  3  1  0  0  0
  2  8  1  0  0  0
  2  4  1  0  0  0
  4  5  1  0  0  0
  4 36  1  0  0  0
  4 37  1  0  0  0
  5  6  1  0  0  0
  5 38  1  0  0  0
  5 39  1  0  0  0
  6  7  1  0  0  0
  6 40  1  0  0  0
  6 41  1  0  0  0
  7  8  1  0  0  0
  7 42  1  0  0  0
  7 43  1  0  0  0
  8 14  1  0  0  0
  8  9  1  0  0  0
  9 10  2  0  0  0
  9 11  1  0  0  0
 11 12  1  0  0  0
 11 15  1  0  0  0
 12 13  2  0  0  0
 12 14  1  0  0  0
 14 44  1  0  0  0
 15 16  1  0  0  0
 15 45  1  0  0  0
 15 46  1  0  0  0
 16 17  2  0  0  0
 16 18  1  0  0  0
 18 19  1  0  0  0
 19 20  1  0  0  0
 19 47  1  0  0  0
 19 48  1  0  0  0
 20 21  2  0  0  0
 20 22  1  0  0  0
 22 23  1  0  0  0
 22 49  1  0  0  0
 23 28  2  0  0  0
 23 24  1  0  0  0
 24 25  2  0  0  0
 24 50  1  0  0  0
 25 26  1  0  0  0
 25 51  1  0  0  0
 26 27  2  0  0  0
 26 30  1  0  0  0
 27 28  1  0  0  0
 27 52  1  0  0  0
 28 29  1  0  0  0
 30 31  2  0  0  0
 30 32  1  0  0  0
M  CHG  2  30   1  32  -1
M  END
> <i_i_glide_confnum>
116

> <i_i_glide_lignum>
3369

> <i_i_glide_posenum>
1

> <i_i_glide_rotatable_bonds>
8

> <i_m_Source_File_Index>
831

> <b_m_subgroup_collapsed>
0

> <r_i_docking_score>
-5.38439

> <r_i_glide_ecoul>
-4.41096

> <r_i_glide_eff_state_penalty>
0

> <r_i_glide_einternal>
6.79095

> <r_i_glide_emodel>
-60.1776

> <r_i_glide_energy>
-47.5378

> <r_i_glide_erotb>
0.577376

> <r_i_glide_esite>
-0.181783

> <r_i_glide_evdw>
-43.1268

> <r_i_glide_gscore>
-5.38439

> <r_i_glide_hbond>
-0.319612

> <r_i_glide_ligand_efficiency>
-0.17369

> <r_i_glide_ligand_efficiency_ln>
-1.21434

> <r_i_glide_ligand_efficiency_sa>
-0.545626

> <r_i_glide_lipo>
-1.55975

> <r_i_glide_metal>
0

> <r_i_glide_rewards>
-1.08263

> <s_i_glide_gridfile>
wee1_glide-grid

> <s_m_Source_File>
wee1_decoys_glide_SP.sdf

> <s_m_Source_Path>
/Users/zhangxujun/Desktop

> <s_m_entry_id>
1106

> <s_m_entry_name>
wee1_decoys_glide_SP.831

> <s_m_subgroup_title>
wee1_decoys_glide_SP

> <s_m_subgroupid>
wee1_decoys_glide_SP


$$$$
