ZINC39560807_5351
                    3D
 Schrodinger Suite 2024-2.
 69 74  0  0  1  0            999 V2000
    1.9347   54.4864   22.8835 C   0  0  0  0  0  0
    1.8518   53.4155   23.8012 O   0  0  0  0  0  0
    0.6632   52.8544   24.0860 C   0  0  0  0  0  0
   -0.4410   53.2969   23.7613 O   0  0  0  0  0  0
    0.8520   51.5338   24.8699 C   0  0  2  0  0  0
    1.6755   51.7362   25.5480 H   0  0  0  0  0  0
    1.3355   50.4101   23.9083 C   0  0  0  0  0  0
    0.1926   49.8522   23.0862 C   0  0  0  0  0  0
    0.1241   49.3003   21.8752 C   0  0  0  0  0  0
    1.2170   48.9855   20.8390 C   0  0  0  0  0  0
    0.6044   48.2414   19.6425 C   0  0  0  0  0  0
   -0.7104   47.9559   19.5343 C   0  0  0  0  0  0
   -1.6630   48.3405   20.5629 C   0  0  0  0  0  0
   -1.2673   48.9771   21.6826 C   0  0  0  0  0  0
   -2.0038   49.4003   22.7300 N   0  0  0  0  0  0
   -1.1688   49.9355   23.5341 C   0  0  0  0  0  0
   -1.5174   50.6744   24.8545 C   0  0  2  0  0  0
   -2.0391   51.5802   24.5455 H   0  0  0  0  0  0
   -0.3307   51.0853   25.6645 N   0  0  0  0  0  0
   -0.7152   51.9574   26.8072 C   0  0  1  0  0  0
   -1.1581   52.8611   26.3826 H   0  0  0  0  0  0
   -1.7696   51.2917   27.7083 C   0  0  0  0  0  0
   -2.9734   50.6768   26.9697 C   0  0  1  0  0  0
   -3.6305   51.4860   26.6437 H   0  0  0  0  0  0
   -2.5011   49.8761   25.7356 C   0  0  0  0  0  0
   -3.6970   49.6968   27.9185 N   0  3  2  0  0  0
   -5.0195   49.1124   27.3699 C   0  0  0  0  0  0
   -5.9444   48.9555   28.5896 C   0  0  0  0  0  0
   -5.0990   49.2034   29.8370 C   0  0  2  0  0  0
   -5.6815   49.6137   30.6661 H   0  0  0  0  0  0
   -4.0489   50.1975   29.3331 C   0  0  0  0  0  0
   -4.4954   47.9837   30.2411 O   0  0  0  0  0  0
    0.4304   52.4335   27.7085 C   0  0  0  0  0  0
    1.5052   51.5975   28.0272 C   0  0  0  0  0  0
    2.6116   52.1165   28.6930 C   0  0  0  0  0  0
    2.6225   53.4589   29.0545 C   0  0  0  0  0  0
    1.4986   54.2558   28.8807 C   0  0  0  0  0  0
    0.3914   53.7262   28.2313 C   0  0  0  0  0  0
    4.0910   54.1756   29.6810 S   0  0  0  0  0  0
    5.2203   54.2587   28.2653 C   0  0  0  0  0  0
    2.9224   54.9439   22.9426 H   0  0  0  0  0  0
    1.8002   54.0977   21.8742 H   0  0  0  0  0  0
    1.1740   55.2459   23.0753 H   0  0  0  0  0  0
    1.7566   49.5888   24.4822 H   0  0  0  0  0  0
    2.1524   50.7490   23.2697 H   0  0  0  0  0  0
    2.0124   48.3873   21.2835 H   0  0  0  0  0  0
    1.6657   49.9137   20.4842 H   0  0  0  0  0  0
    1.2587   47.9309   18.8396 H   0  0  0  0  0  0
   -1.0645   47.4294   18.6601 H   0  0  0  0  0  0
   -2.7081   48.1067   20.4229 H   0  0  0  0  0  0
   -1.2376   50.4968   28.2237 H   0  0  0  0  0  0
   -2.0946   51.9442   28.5168 H   0  0  0  0  0  0
   -3.3562   49.4976   25.1743 H   0  0  0  0  0  0
   -1.9783   48.9781   26.0757 H   0  0  0  0  0  0
   -5.4396   49.8132   26.6469 H   0  0  0  0  0  0
   -4.7593   48.1578   26.9097 H   0  0  0  0  0  0
   -6.7367   49.7031   28.5326 H   0  0  0  0  0  0
   -6.4441   47.9858   28.6150 H   0  0  0  0  0  0
   -3.1417   50.2589   29.9377 H   0  0  0  0  0  0
   -4.4485   51.2066   29.2207 H   0  0  0  0  0  0
   -3.5620   48.1394   30.4797 H   0  0  0  0  0  0
    1.5165   50.5728   27.6825 H   0  0  0  0  0  0
    3.4777   51.4999   28.8788 H   0  0  0  0  0  0
    1.4974   55.2866   29.2057 H   0  0  0  0  0  0
   -0.4712   54.3571   28.0817 H   0  0  0  0  0  0
    6.1217   54.8117   28.5334 H   0  0  0  0  0  0
    5.5120   53.2565   27.9477 H   0  0  0  0  0  0
    4.7447   54.7685   27.4267 H   0  0  0  0  0  0
   -3.0245   48.9375   28.0796 H   0  0  0  0  0  0
  1  2  1  0  0  0
  1 41  1  0  0  0
  1 42  1  0  0  0
  1 43  1  0  0  0
  2  3  1  0  0  0
  3  4  2  0  0  0
  3  5  1  0  0  0
  5  6  1  0  0  0
  5 19  1  0  0  0
  5  7  1  0  0  0
  7  8  1  0  0  0
  7 44  1  0  0  0
  7 45  1  0  0  0
  8 16  1  0  0  0
  8  9  2  0  0  0
  9 14  1  0  0  0
  9 10  1  0  0  0
 10 11  1  0  0  0
 10 46  1  0  0  0
 10 47  1  0  0  0
 11 12  2  0  0  0
 11 48  1  0  0  0
 12 13  1  0  0  0
 12 49  1  0  0  0
 13 14  2  0  0  0
 13 50  1  0  0  0
 14 15  1  0  0  0
 15 16  2  0  0  0
 16 17  1  0  0  0
 17 18  1  0  0  0
 17 25  1  0  0  0
 17 19  1  0  0  0
 19 20  1  0  0  0
 20 21  1  0  0  0
 20 22  1  0  0  0
 20 33  1  0  0  0
 22 23  1  0  0  0
 22 51  1  0  0  0
 22 52  1  0  0  0
 23 24  1  0  0  0
 23 25  1  0  0  0
 23 26  1  0  0  0
 25 53  1  0  0  0
 25 54  1  0  0  0
 26 31  1  0  0  0
 26 27  1  0  0  0
 26 69  1  0  0  0
 27 28  1  0  0  0
 27 55  1  0  0  0
 27 56  1  0  0  0
 28 29  1  0  0  0
 28 57  1  0  0  0
 28 58  1  0  0  0
 29 30  1  0  0  0
 29 31  1  0  0  0
 29 32  1  0  0  0
 31 59  1  0  0  0
 31 60  1  0  0  0
 32 61  1  0  0  0
 33 38  2  0  0  0
 33 34  1  0  0  0
 34 35  2  0  0  0
 34 62  1  0  0  0
 35 36  1  0  0  0
 35 63  1  0  0  0
 36 37  2  0  0  0
 36 39  1  0  0  0
 37 38  1  0  0  0
 37 64  1  0  0  0
 38 65  1  0  0  0
 39 40  1  0  0  0
 40 66  1  0  0  0
 40 67  1  0  0  0
 40 68  1  0  0  0
M  CHG  1  26   1
M  END
> <i_i_glide_confnum>
8

> <i_i_glide_lignum>
5352

> <i_i_glide_posenum>
121

> <i_i_glide_rotatable_bonds>
6

> <i_m_Source_File_Index>
5241

> <b_m_subgroup_collapsed>
0

> <r_i_docking_score>
-5.02804

> <r_i_glide_ecoul>
-8.81908

> <r_i_glide_eff_state_penalty>
0

> <r_i_glide_einternal>
4.89795

> <r_i_glide_emodel>
-55.0723

> <r_i_glide_energy>
-42.4277

> <r_i_glide_erotb>
0.251735

> <r_i_glide_esite>
-0.103103

> <r_i_glide_evdw>
-33.6086

> <r_i_glide_gscore>
-5.02804

> <r_i_glide_hbond>
-0.36

> <r_i_glide_ligand_efficiency>
-0.143658

> <r_i_glide_ligand_efficiency_ln>
-1.10377

> <r_i_glide_ligand_efficiency_sa>
-0.469915

> <r_i_glide_lipo>
-1.539

> <r_i_glide_metal>
0

> <r_i_glide_rewards>
-0.274372

> <s_i_glide_gridfile>
wee1_glide-grid

> <s_m_Source_File>
wee1_decoys_glide_SP.sdf

> <s_m_Source_Path>
/Users/zhangxujun/Desktop

> <s_m_entry_id>
5516

> <s_m_entry_name>
wee1_decoys_glide_SP.5241

> <s_m_subgroup_title>
wee1_decoys_glide_SP

> <s_m_subgroupid>
wee1_decoys_glide_SP


$$$$
