ZINC37928293_1895
                    3D
 Schrodinger Suite 2024-2.
 32 33  0  0  1  0            999 V2000
    6.3231   54.5226   23.0532 C   0  0  0  0  0  0
    5.8929   54.4211   24.5129 C   0  0  0  0  0  0
    6.8732   54.3924   25.5001 C   0  0  0  0  0  0
    6.5383   54.2012   26.8396 C   0  0  0  0  0  0
    5.2044   54.1063   27.2148 C   0  0  0  0  0  0
    4.2099   54.1969   26.2457 C   0  0  0  0  0  0
    4.5460   54.3323   24.8922 C   0  0  0  0  0  0
    3.5460   54.4967   23.9356 N   0  0  0  0  0  0
    2.1079   53.4988   23.7867 S   0  0  0  0  0  0
    1.9039   52.7870   25.0520 O   0  0  0  0  0  0
    1.1044   54.4281   23.2817 O   0  0  0  0  0  0
    2.3807   52.2992   22.4816 C   0  0  0  0  0  0
    1.7836   51.0339   22.5552 C   0  0  0  0  0  0
    1.9111   50.1365   21.4964 C   0  0  0  0  0  0
    2.6217   50.4964   20.3553 C   0  0  0  0  0  0
    3.2327   51.7444   20.2827 C   0  0  0  0  0  0
    3.1062   52.6501   21.3354 C   0  0  0  0  0  0
    3.6716   53.8724   21.2121 F   0  0  0  0  0  0
    2.7044   49.6164   19.2817 N   0  0  0  0  0  0
    1.0474   50.6658   23.6279 F   0  0  0  0  0  0
    7.5044   54.1003   27.7740 F   0  0  0  0  0  0
    5.7699   55.2966   22.5268 H   0  0  0  0  0  0
    7.3841   54.7551   22.9466 H   0  0  0  0  0  0
    6.1199   53.5801   22.5439 H   0  0  0  0  0  0
    7.9044   54.4967   25.2099 H   0  0  0  0  0  0
    4.9442   53.9782   28.2545 H   0  0  0  0  0  0
    3.1780   54.1716   26.5611 H   0  0  0  0  0  0
    3.6846   55.1860   23.2133 H   0  0  0  0  0  0
    1.4342   49.1703   21.5617 H   0  0  0  0  0  0
    3.7880   52.0238   19.3979 H   0  0  0  0  0  0
    2.3806   48.6700   19.4009 H   0  0  0  0  0  0
    3.3653   49.8252   18.5324 H   0  0  0  0  0  0
  1  2  1  0  0  0
  1 22  1  0  0  0
  1 23  1  0  0  0
  1 24  1  0  0  0
  2  7  2  0  0  0
  2  3  1  0  0  0
  3  4  2  0  0  0
  3 25  1  0  0  0
  4  5  1  0  0  0
  4 21  1  0  0  0
  5  6  2  0  0  0
  5 26  1  0  0  0
  6  7  1  0  0  0
  6 27  1  0  0  0
  7  8  1  0  0  0
  8  9  1  0  0  0
  8 28  1  0  0  0
  9 10  2  0  0  0
  9 11  2  0  0  0
  9 12  1  0  0  0
 12 17  2  0  0  0
 12 13  1  0  0  0
 13 14  2  0  0  0
 13 20  1  0  0  0
 14 15  1  0  0  0
 14 29  1  0  0  0
 15 16  2  0  0  0
 15 19  1  0  0  0
 16 17  1  0  0  0
 16 30  1  0  0  0
 17 18  1  0  0  0
 19 31  1  0  0  0
 19 32  1  0  0  0
M  END
> <i_i_glide_confnum>
27

> <i_i_glide_lignum>
1896

> <i_i_glide_posenum>
56

> <i_i_glide_rotatable_bonds>
3

> <i_m_Source_File_Index>
1385

> <b_m_subgroup_collapsed>
0

> <r_i_docking_score>
-5.60088

> <r_i_glide_ecoul>
-2.98031

> <r_i_glide_eff_state_penalty>
0

> <r_i_glide_einternal>
5.48656

> <r_i_glide_emodel>
-40.8079

> <r_i_glide_energy>
-31.3031

> <r_i_glide_erotb>
0.55819

> <r_i_glide_esite>
-0.110714

> <r_i_glide_evdw>
-28.3228

> <r_i_glide_gscore>
-5.60088

> <r_i_glide_hbond>
-0.22827

> <r_i_glide_ligand_efficiency>
-0.266709

> <r_i_glide_ligand_efficiency_ln>
-1.38481

> <r_i_glide_ligand_efficiency_sa>
-0.735829

> <r_i_glide_lipo>
-2.22946

> <r_i_glide_metal>
0

> <r_i_glide_rewards>
-1.72745

> <s_i_glide_gridfile>
wee1_glide-grid

> <s_m_Source_File>
wee1_decoys_glide_SP.sdf

> <s_m_Source_Path>
/Users/zhangxujun/Desktop

> <s_m_entry_id>
1660

> <s_m_entry_name>
wee1_decoys_glide_SP.1385

> <s_m_subgroup_title>
wee1_decoys_glide_SP

> <s_m_subgroupid>
wee1_decoys_glide_SP


$$$$
