ZINC15709097_2093
                    3D
 Schrodinger Suite 2024-2.
 70 73  0  0  1  0            999 V2000
    1.0134   48.9427   23.8915 C   0  0  0  0  0  0
   -0.3838   49.5070   23.5906 C   0  0  2  0  0  0
   -1.1269   48.7393   23.8166 H   0  0  0  0  0  0
   -0.4928   49.8524   22.1013 C   0  0  0  0  0  0
   -0.9021   51.0956   21.6268 C   0  0  0  0  0  0
   -0.7968   51.1249   19.8901 S   0  0  0  0  0  0
   -0.2526   49.4841   19.9514 C   0  0  0  0  0  0
   -0.1785   48.9769   21.1617 N   0  0  0  0  0  0
    0.0917   48.8679   18.7549 N   0  0  0  0  0  0
    0.6879   47.6620   18.6222 C   0  0  0  0  0  0
    0.9356   46.8960   19.5542 O   0  0  0  0  0  0
    0.9951   47.2683   17.2640 C   0  0  0  0  0  0
    1.1131   45.9528   16.8092 C   0  0  0  0  0  0
    1.4905   45.9659   15.4685 C   0  0  0  0  0  0
    1.6435   47.2918   15.1184 C   0  0  0  0  0  0
    1.3622   48.0939   16.2019 N   0  0  0  0  0  0
    1.5031   49.5468   16.1862 C   0  0  0  0  0  0
   -1.2569   52.2719   22.4992 C   0  0  0  0  0  0
   -1.7189   51.7720   23.9032 C   0  0  1  0  0  0
   -0.6776   50.7606   24.4900 C   0  0  1  0  0  0
    0.2624   51.3132   24.4989 H   0  0  0  0  0  0
   -1.0231   50.4440   25.9938 C   0  0  2  0  0  0
   -2.0652   50.1308   26.0402 H   0  0  0  0  0  0
   -0.8656   51.6883   26.9334 C   0  0  2  0  0  0
   -1.2859   51.3931   27.8982 H   0  0  0  0  0  0
   -1.8735   52.7295   26.3488 C   0  0  0  0  0  0
   -1.7224   53.0092   24.8330 C   0  0  0  0  0  0
    0.6198   52.2038   27.1845 C   0  0  2  0  0  0
    1.0282   52.4223   26.2040 H   0  0  0  0  0  0
    1.5036   51.1474   27.8910 C   0  0  0  0  0  0
    0.7688   53.4791   28.0711 C   0  0  0  0  0  0
   -0.0957   53.6982   28.9184 O   0  0  0  0  0  0
    1.8617   54.2907   27.9455 N   0  0  0  0  0  0
    1.9986   55.5262   28.7301 C   0  0  0  0  0  0
    2.9858   54.1021   27.0065 C   0  0  0  0  0  0
    4.3116   53.6549   27.6138 C   0  0  0  0  0  0
    4.5246   53.2674   28.8815 C   0  0  0  0  0  0
   -0.3744   49.2993   26.4811 O   0  0  0  0  0  0
   -3.1456   51.1633   23.7875 C   0  0  0  0  0  0
    1.2224   48.0976   23.2640 H   0  0  0  0  0  0
    1.8034   49.6795   23.7415 H   0  0  0  0  0  0
    1.1048   48.5399   24.8926 H   0  0  0  0  0  0
   -0.0581   49.3997   17.9123 H   0  0  0  0  0  0
    0.9394   45.0650   17.4011 H   0  0  0  0  0  0
    1.6564   45.1056   14.8352 H   0  0  0  0  0  0
    1.9556   47.7395   14.1874 H   0  0  0  0  0  0
    2.1842   49.8460   15.3895 H   0  0  0  0  0  0
    0.5316   50.0032   16.0016 H   0  0  0  0  0  0
    1.9063   49.8995   17.1343 H   0  0  0  0  0  0
   -2.0153   52.8965   22.0313 H   0  0  0  0  0  0
   -0.3510   52.8760   22.5806 H   0  0  0  0  0  0
   -2.8874   52.3729   26.5333 H   0  0  0  0  0  0
   -1.8224   53.6721   26.8817 H   0  0  0  0  0  0
   -2.4930   53.6966   24.4864 H   0  0  0  0  0  0
   -0.7761   53.5369   24.7032 H   0  0  0  0  0  0
    2.5186   51.4992   28.0764 H   0  0  0  0  0  0
    1.0839   50.8955   28.8667 H   0  0  0  0  0  0
    1.6242   50.2355   27.3148 H   0  0  0  0  0  0
    1.0868   55.8122   29.2553 H   0  0  0  0  0  0
    2.7841   55.4125   29.4762 H   0  0  0  0  0  0
    2.2905   56.3565   28.0861 H   0  0  0  0  0  0
    3.1453   55.0189   26.4398 H   0  0  0  0  0  0
    2.7744   53.3688   26.2342 H   0  0  0  0  0  0
    5.1499   53.6495   26.9320 H   0  0  0  0  0  0
    3.7313   53.2423   29.6125 H   0  0  0  0  0  0
    5.5071   52.9592   29.2047 H   0  0  0  0  0  0
   -0.8930   48.8998   27.2188 H   0  0  0  0  0  0
   -3.1500   50.2344   23.2159 H   0  0  0  0  0  0
   -3.5976   50.9482   24.7543 H   0  0  0  0  0  0
   -3.8258   51.8508   23.2827 H   0  0  0  0  0  0
  1  2  1  0  0  0
  1 40  1  0  0  0
  1 41  1  0  0  0
  1 42  1  0  0  0
  2  3  1  0  0  0
  2 20  1  0  0  0
  2  4  1  0  0  0
  4  8  1  0  0  0
  4  5  2  0  0  0
  5  6  1  0  0  0
  5 18  1  0  0  0
  6  7  1  0  0  0
  7  8  2  0  0  0
  7  9  1  0  0  0
  9 10  1  0  0  0
  9 43  1  0  0  0
 10 11  2  0  0  0
 10 12  1  0  0  0
 12 16  1  0  0  0
 12 13  2  0  0  0
 13 14  1  0  0  0
 13 44  1  0  0  0
 14 15  2  0  0  0
 14 45  1  0  0  0
 15 16  1  0  0  0
 15 46  1  0  0  0
 16 17  1  0  0  0
 17 47  1  0  0  0
 17 48  1  0  0  0
 17 49  1  0  0  0
 18 19  1  0  0  0
 18 50  1  0  0  0
 18 51  1  0  0  0
 19 27  1  0  0  0
 19 20  1  0  0  0
 19 39  1  0  0  0
 20 21  1  0  0  0
 20 22  1  0  0  0
 22 23  1  0  0  0
 22 24  1  0  0  0
 22 38  1  0  0  0
 24 25  1  0  0  0
 24 26  1  0  0  0
 24 28  1  0  0  0
 26 27  1  0  0  0
 26 52  1  0  0  0
 26 53  1  0  0  0
 27 54  1  0  0  0
 27 55  1  0  0  0
 28 29  1  0  0  0
 28 30  1  0  0  0
 28 31  1  0  0  0
 30 56  1  0  0  0
 30 57  1  0  0  0
 30 58  1  0  0  0
 31 32  2  0  0  0
 31 33  1  0  0  0
 33 34  1  0  0  0
 33 35  1  0  0  0
 34 59  1  0  0  0
 34 60  1  0  0  0
 34 61  1  0  0  0
 35 36  1  0  0  0
 35 62  1  0  0  0
 35 63  1  0  0  0
 36 37  2  0  0  0
 36 64  1  0  0  0
 37 65  1  0  0  0
 37 66  1  0  0  0
 38 67  1  0  0  0
 39 68  1  0  0  0
 39 69  1  0  0  0
 39 70  1  0  0  0
M  END
> <i_i_glide_confnum>
141

> <i_i_glide_lignum>
2094

> <i_i_glide_posenum>
393

> <i_i_glide_rotatable_bonds>
9

> <i_m_Source_File_Index>
4058

> <b_m_subgroup_collapsed>
0

> <r_i_docking_score>
-3.5104

> <r_i_glide_ecoul>
-8.5232

> <r_i_glide_eff_state_penalty>
0

> <r_i_glide_einternal>
9.37982

> <r_i_glide_emodel>
-29.2495

> <r_i_glide_energy>
-30.9387

> <r_i_glide_erotb>
0.691709

> <r_i_glide_esite>
-0.106027

> <r_i_glide_evdw>
-22.4155

> <r_i_glide_gscore>
-3.5104

> <r_i_glide_hbond>
-0.106834

> <r_i_glide_ligand_efficiency>
-0.103247

> <r_i_glide_ligand_efficiency_ln>
-0.775545

> <r_i_glide_ligand_efficiency_sa>
-0.33448

> <r_i_glide_lipo>
-1.26169

> <r_i_glide_metal>
0

> <r_i_glide_rewards>
-0.328302

> <s_i_glide_gridfile>
wee1_glide-grid

> <s_m_Source_File>
wee1_decoys_glide_SP.sdf

> <s_m_Source_Path>
/Users/zhangxujun/Desktop

> <s_m_entry_id>
4333

> <s_m_entry_name>
wee1_decoys_glide_SP.4058

> <s_m_subgroup_title>
wee1_decoys_glide_SP

> <s_m_subgroupid>
wee1_decoys_glide_SP


$$$$
