ZINC23633987_4382
                    3D
 Schrodinger Suite 2024-2.
 42 43  0  0  1  0            999 V2000
    1.3427   53.8155   23.2851 C   0  0  0  0  0  0
    2.4123   53.3646   22.2716 C   0  0  2  0  0  0
    2.1112   53.6966   21.2818 H   0  0  0  0  0  0
    2.4774   51.8236   22.1556 C   0  0  0  0  0  0
    3.4737   51.3663   21.0683 C   0  0  0  0  0  0
    4.8640   52.0232   21.2182 C   0  0  0  0  0  0
    4.7626   53.5573   21.3602 C   0  0  0  0  0  0
    3.8220   53.9792   22.5173 C   0  0  2  0  0  0
    3.7009   55.0630   22.4825 H   0  0  0  0  0  0
    4.3118   53.6967   23.8676 N   0  0  0  0  0  0
    5.3083   54.3057   24.5307 C   0  0  0  0  0  0
    6.2018   54.9613   23.9934 O   0  0  0  0  0  0
    5.1537   54.0967   25.8511 N   0  0  0  0  0  0
    5.9892   54.3972   26.8725 C   0  0  0  0  0  0
    7.1044   54.8972   26.7400 O   0  0  0  0  0  0
    5.5058   54.0368   28.2943 C   0  0  0  0  0  0
    4.1374   53.6359   28.2289 O   0  0  0  0  0  0
    3.4211   53.2058   29.2832 C   0  0  0  0  0  0
    3.8249   53.1389   30.4445 O   0  0  0  0  0  0
    2.0745   52.8146   28.8660 C   0  0  0  0  0  0
    1.0330   52.3243   29.6506 C   0  0  0  0  0  0
   -0.1191   52.0224   28.9158 C   0  0  0  0  0  0
    0.0133   52.3024   27.5652 C   0  0  0  0  0  0
    1.5804   52.9175   27.1900 S   0  0  0  0  0  0
   -1.2748   52.0825   26.1815 Br  0  0  0  0  0  0
   -1.6950   51.2967   29.6816 Br  0  0  0  0  0  0
    1.5958   53.5133   24.3000 H   0  0  0  0  0  0
    1.2266   54.8968   23.2808 H   0  0  0  0  0  0
    0.3707   53.3801   23.0544 H   0  0  0  0  0  0
    2.7044   51.3792   23.1228 H   0  0  0  0  0  0
    1.4864   51.4360   21.9149 H   0  0  0  0  0  0
    3.0704   51.6177   20.0855 H   0  0  0  0  0  0
    3.5627   50.2798   21.0813 H   0  0  0  0  0  0
    5.4778   51.7759   20.3508 H   0  0  0  0  0  0
    5.3832   51.6068   22.0804 H   0  0  0  0  0  0
    4.3963   53.9805   20.4230 H   0  0  0  0  0  0
    5.7558   53.9866   21.5032 H   0  0  0  0  0  0
    3.7580   53.0241   24.3741 H   0  0  0  0  0  0
    4.3098   53.6232   26.1322 H   0  0  0  0  0  0
    5.6301   54.8959   28.9563 H   0  0  0  0  0  0
    6.1126   53.2120   28.6711 H   0  0  0  0  0  0
    1.1012   52.1745   30.7192 H   0  0  0  0  0  0
  1  2  1  0  0  0
  1 27  1  0  0  0
  1 28  1  0  0  0
  1 29  1  0  0  0
  2  3  1  0  0  0
  2  8  1  0  0  0
  2  4  1  0  0  0
  4  5  1  0  0  0
  4 30  1  0  0  0
  4 31  1  0  0  0
  5  6  1  0  0  0
  5 32  1  0  0  0
  5 33  1  0  0  0
  6  7  1  0  0  0
  6 34  1  0  0  0
  6 35  1  0  0  0
  7  8  1  0  0  0
  7 36  1  0  0  0
  7 37  1  0  0  0
  8  9  1  0  0  0
  8 10  1  0  0  0
 10 11  1  0  0  0
 10 38  1  0  0  0
 11 12  2  0  0  0
 11 13  1  0  0  0
 13 14  1  0  0  0
 13 39  1  0  0  0
 14 15  2  0  0  0
 14 16  1  0  0  0
 16 17  1  0  0  0
 16 40  1  0  0  0
 16 41  1  0  0  0
 17 18  1  0  0  0
 18 19  2  0  0  0
 18 20  1  0  0  0
 20 24  1  0  0  0
 20 21  2  0  0  0
 21 22  1  0  0  0
 21 42  1  0  0  0
 22 23  2  0  0  0
 22 26  1  0  0  0
 23 24  1  0  0  0
 23 25  1  0  0  0
M  END
> <i_i_glide_confnum>
78

> <i_i_glide_lignum>
4383

> <i_i_glide_posenum>
58

> <i_i_glide_rotatable_bonds>
8

> <i_m_Source_File_Index>
5668

> <b_m_subgroup_collapsed>
0

> <r_i_docking_score>
-5.42127

> <r_i_glide_ecoul>
-5.40527

> <r_i_glide_eff_state_penalty>
0

> <r_i_glide_einternal>
3.96992

> <r_i_glide_emodel>
-59.6491

> <r_i_glide_energy>
-46.5478

> <r_i_glide_erotb>
0.610919

> <r_i_glide_esite>
0

> <r_i_glide_evdw>
-41.1425

> <r_i_glide_gscore>
-5.42127

> <r_i_glide_hbond>
-0.562333

> <r_i_glide_ligand_efficiency>
-0.225886

> <r_i_glide_ligand_efficiency_ln>
-1.29756

> <r_i_glide_ligand_efficiency_sa>
-0.651568

> <r_i_glide_lipo>
-1.47303

> <r_i_glide_metal>
0

> <r_i_glide_rewards>
-1.12891

> <s_i_glide_gridfile>
wee1_glide-grid

> <s_m_Source_File>
wee1_decoys_glide_SP.sdf

> <s_m_Source_Path>
/Users/zhangxujun/Desktop

> <s_m_entry_id>
5943

> <s_m_entry_name>
wee1_decoys_glide_SP.5668

> <s_m_subgroup_title>
wee1_decoys_glide_SP

> <s_m_subgroupid>
wee1_decoys_glide_SP


$$$$
