ZINC65330828_6080
                    3D
 Schrodinger Suite 2024-2.
 60 64  0  0  1  0            999 V2000
    0.0230   49.2594   23.6619 C   0  0  0  0  0  0
    0.1373   50.2934   24.7695 C   0  0  0  0  0  0
   -0.1807   49.9486   26.0817 C   0  0  0  0  0  0
   -0.0429   50.8860   27.1029 C   0  0  0  0  0  0
    0.4462   52.1610   26.8209 C   0  0  0  0  0  0
    0.7372   52.5158   25.5013 C   0  0  0  0  0  0
    0.5837   51.5838   24.4766 C   0  0  0  0  0  0
    0.7016   53.1375   27.9603 C   0  0  0  0  0  0
    2.1933   53.1622   28.3370 N   0  3  2  0  0  0
    2.7070   51.8673   28.9760 C   0  0  0  0  0  0
    4.0697   52.2567   29.5549 C   0  0  0  0  0  0
    4.0741   53.7903   29.7174 C   0  0  2  0  0  0
    4.3004   54.0226   30.7590 H   0  0  0  0  0  0
    2.6476   54.2419   29.3338 C   0  0  0  0  0  0
    5.1794   54.4960   28.8973 C   0  0  0  0  0  0
    4.9578   54.4956   27.4475 N   0  0  0  0  0  0
    5.9415   54.6662   26.5521 C   0  0  0  0  0  0
    7.1041   54.8868   26.8794 O   0  0  0  0  0  0
    5.5526   54.5600   25.1689 C   0  0  0  0  0  0
    4.4008   54.0030   24.6234 C   0  0  0  0  0  0
    4.4521   53.9140   23.2023 C   0  0  0  0  0  0
    3.5790   53.3532   22.2581 C   0  0  0  0  0  0
    3.8834   53.3809   20.8738 C   0  0  0  0  0  0
    3.0578   52.7873   19.8948 C   0  0  0  0  0  0
    3.3820   52.8953   18.5466 C   0  0  0  0  0  0
    4.5351   53.5688   18.1258 C   0  0  0  0  0  0
    5.3891   54.1372   19.0788 C   0  0  0  0  0  0
    5.0725   54.0501   20.4646 C   0  0  0  0  0  0
    5.9071   54.5968   21.3876 N   0  0  0  0  0  0
    5.6309   54.4968   22.6834 C   0  0  0  0  0  0
    6.7039   55.0630   23.9421 S   0  0  0  0  0  0
    6.8325   54.9480   18.5556 Cl  0  0  0  0  0  0
    4.8702   53.7074   16.7911 O   0  0  0  0  0  0
    4.4390   52.7094   15.8707 C   0  0  0  0  0  0
    0.8658   49.3451   22.9723 H   0  0  0  0  0  0
    0.0456   48.2436   24.0611 H   0  0  0  0  0  0
   -0.8986   49.4035   23.0964 H   0  0  0  0  0  0
   -0.5288   48.9532   26.3278 H   0  0  0  0  0  0
   -0.2863   50.5914   28.1139 H   0  0  0  0  0  0
    1.1027   53.5050   25.2649 H   0  0  0  0  0  0
    0.8193   51.8560   23.4593 H   0  0  0  0  0  0
    0.1530   52.8851   28.8706 H   0  0  0  0  0  0
    0.4661   54.1638   27.6822 H   0  0  0  0  0  0
    2.7044   51.0951   28.2089 H   0  0  0  0  0  0
    1.9748   51.5971   29.7389 H   0  0  0  0  0  0
    4.8885   51.9055   28.9254 H   0  0  0  0  0  0
    4.1893   51.7694   30.5243 H   0  0  0  0  0  0
    1.9326   54.2241   30.1601 H   0  0  0  0  0  0
    2.5720   55.2191   28.8505 H   0  0  0  0  0  0
    6.1465   54.0547   29.1486 H   0  0  0  0  0  0
    5.2825   55.5196   29.2540 H   0  0  0  0  0  0
    4.0193   54.6514   27.1255 H   0  0  0  0  0  0
    3.5886   53.6004   25.2081 H   0  0  0  0  0  0
    2.6688   52.8722   22.5788 H   0  0  0  0  0  0
    2.1555   52.2727   20.1941 H   0  0  0  0  0  0
    2.7172   52.4458   17.8254 H   0  0  0  0  0  0
    4.9714   52.8380   14.9282 H   0  0  0  0  0  0
    3.3740   52.8025   15.6603 H   0  0  0  0  0  0
    4.6392   51.6987   16.2236 H   0  0  0  0  0  0
    2.6897   53.2852   27.4666 H   0  0  0  0  0  0
  1  2  1  0  0  0
  1 35  1  0  0  0
  1 36  1  0  0  0
  1 37  1  0  0  0
  2  7  2  0  0  0
  2  3  1  0  0  0
  3  4  2  0  0  0
  3 38  1  0  0  0
  4  5  1  0  0  0
  4 39  1  0  0  0
  5  6  2  0  0  0
  5  8  1  0  0  0
  6  7  1  0  0  0
  6 40  1  0  0  0
  7 41  1  0  0  0
  8  9  1  0  0  0
  8 42  1  0  0  0
  8 43  1  0  0  0
  9 14  1  0  0  0
  9 10  1  0  0  0
  9 60  1  0  0  0
 10 11  1  0  0  0
 10 44  1  0  0  0
 10 45  1  0  0  0
 11 12  1  0  0  0
 11 46  1  0  0  0
 11 47  1  0  0  0
 12 13  1  0  0  0
 12 14  1  0  0  0
 12 15  1  0  0  0
 14 48  1  0  0  0
 14 49  1  0  0  0
 15 16  1  0  0  0
 15 50  1  0  0  0
 15 51  1  0  0  0
 16 17  1  0  0  0
 16 52  1  0  0  0
 17 18  2  0  0  0
 17 19  1  0  0  0
 19 31  1  0  0  0
 19 20  2  0  0  0
 20 21  1  0  0  0
 20 53  1  0  0  0
 21 30  2  0  0  0
 21 22  1  0  0  0
 22 23  2  0  0  0
 22 54  1  0  0  0
 23 28  1  0  0  0
 23 24  1  0  0  0
 24 25  2  0  0  0
 24 55  1  0  0  0
 25 26  1  0  0  0
 25 56  1  0  0  0
 26 27  2  0  0  0
 26 33  1  0  0  0
 27 28  1  0  0  0
 27 32  1  0  0  0
 28 29  2  0  0  0
 29 30  1  0  0  0
 30 31  1  0  0  0
 33 34  1  0  0  0
 34 57  1  0  0  0
 34 58  1  0  0  0
 34 59  1  0  0  0
M  CHG  1   9   1
M  END
> <i_i_glide_confnum>
57

> <i_i_glide_lignum>
6081

> <i_i_glide_posenum>
341

> <i_i_glide_rotatable_bonds>
7

> <i_m_Source_File_Index>
1249

> <b_m_subgroup_collapsed>
0

> <r_i_docking_score>
-5.27684

> <r_i_glide_ecoul>
-1.69508

> <r_i_glide_eff_state_penalty>
0

> <r_i_glide_einternal>
10.0046

> <r_i_glide_emodel>
-58.5348

> <r_i_glide_energy>
-46.2698

> <r_i_glide_erotb>
0.525952

> <r_i_glide_esite>
0

> <r_i_glide_evdw>
-44.5747

> <r_i_glide_gscore>
-5.27684

> <r_i_glide_hbond>
-0.271617

> <r_i_glide_ligand_efficiency>
-0.159904

> <r_i_glide_ligand_efficiency_ln>
-1.17354

> <r_i_glide_ligand_efficiency_sa>
-0.512899

> <r_i_glide_lipo>
-2.38554

> <r_i_glide_metal>
0

> <r_i_glide_rewards>
-0.662646

> <s_i_glide_gridfile>
wee1_glide-grid

> <s_m_Source_File>
wee1_decoys_glide_SP.sdf

> <s_m_Source_Path>
/Users/zhangxujun/Desktop

> <s_m_entry_id>
1524

> <s_m_entry_name>
wee1_decoys_glide_SP.1249

> <s_m_subgroup_title>
wee1_decoys_glide_SP

> <s_m_subgroupid>
wee1_decoys_glide_SP


$$$$
