ZINC31554389_2553
                    3D
 Schrodinger Suite 2024-2.
 42 44  0  0  1  0            999 V2000
    3.9046   52.5153   30.0824 C   0  0  0  0  0  0
    3.9455   53.2456   28.7339 C   0  0  1  0  0  0
    3.6587   52.5868   27.9108 H   0  0  0  0  0  0
    3.4451   54.6566   28.7261 C   0  0  0  0  0  0
    4.9337   54.3859   28.4773 C   0  0  2  0  0  0
    5.6547   54.6567   29.2500 H   0  0  0  0  0  0
    5.4867   54.4171   27.0342 C   0  0  0  0  0  0
    6.7047   54.5081   26.8815 O   0  0  0  0  0  0
    4.5899   54.3615   26.0241 N   0  0  0  0  0  0
    4.7855   54.3268   24.6321 C   0  0  0  0  0  0
    6.0218   54.4978   23.9942 C   0  0  0  0  0  0
    6.1039   54.4236   22.6076 C   0  0  0  0  0  0
    4.9670   54.1588   21.8307 C   0  0  0  0  0  0
    3.7291   54.0140   22.4756 C   0  0  0  0  0  0
    3.6424   54.0967   23.8631 C   0  0  0  0  0  0
    5.1046   54.0318   20.3272 C   0  0  0  0  0  0
    6.0981   54.4962   19.7604 O   0  0  0  0  0  0
    4.1322   53.3335   19.6939 N   0  0  0  0  0  0
    4.2170   52.8967   18.3468 N   0  0  0  0  0  0
    4.4717   53.8103   17.3110 C   0  0  0  0  0  0
    5.7080   53.7928   16.6485 C   0  0  0  0  0  0
    5.9673   54.6982   15.6171 C   0  0  0  0  0  0
    4.9926   55.6217   15.2353 C   0  0  0  0  0  0
    3.7577   55.6414   15.8850 C   0  0  0  0  0  0
    3.4958   54.7385   16.9174 C   0  0  0  0  0  0
    2.2885   54.7680   17.5318 F   0  0  0  0  0  0
    2.8106   56.5340   15.5101 F   0  0  0  0  0  0
    5.2433   56.4942   14.2314 F   0  0  0  0  0  0
    7.1637   54.6781   14.9836 F   0  0  0  0  0  0
    6.6627   52.8975   17.0028 F   0  0  0  0  0  0
    4.1484   53.1767   30.9137 H   0  0  0  0  0  0
    4.6245   51.6975   30.0953 H   0  0  0  0  0  0
    2.9151   52.0966   30.2692 H   0  0  0  0  0  0
    2.7954   54.9858   27.9144 H   0  0  0  0  0  0
    3.1599   55.1306   29.6661 H   0  0  0  0  0  0
    3.6291   54.2699   26.3108 H   0  0  0  0  0  0
    6.9315   54.6898   24.5395 H   0  0  0  0  0  0
    7.0721   54.5544   22.1444 H   0  0  0  0  0  0
    2.8208   53.8384   21.9170 H   0  0  0  0  0  0
    2.6776   53.9708   24.3329 H   0  0  0  0  0  0
    3.2591   53.0907   20.1385 H   0  0  0  0  0  0
    4.7171   51.9970   18.3035 H   0  0  0  0  0  0
  1  2  1  0  0  0
  1 31  1  0  0  0
  1 32  1  0  0  0
  1 33  1  0  0  0
  2  3  1  0  0  0
  2  5  1  0  0  0
  2  4  1  0  0  0
  4  5  1  0  0  0
  4 34  1  0  0  0
  4 35  1  0  0  0
  5  6  1  0  0  0
  5  7  1  0  0  0
  7  8  2  0  0  0
  7  9  1  0  0  0
  9 10  1  0  0  0
  9 36  1  0  0  0
 10 15  2  0  0  0
 10 11  1  0  0  0
 11 12  2  0  0  0
 11 37  1  0  0  0
 12 13  1  0  0  0
 12 38  1  0  0  0
 13 14  2  0  0  0
 13 16  1  0  0  0
 14 15  1  0  0  0
 14 39  1  0  0  0
 15 40  1  0  0  0
 16 17  2  0  0  0
 16 18  1  0  0  0
 18 19  1  0  0  0
 18 41  1  0  0  0
 19 20  1  0  0  0
 19 42  1  0  0  0
 20 25  2  0  0  0
 20 21  1  0  0  0
 21 22  2  0  0  0
 21 30  1  0  0  0
 22 23  1  0  0  0
 22 29  1  0  0  0
 23 24  2  0  0  0
 23 28  1  0  0  0
 24 25  1  0  0  0
 24 27  1  0  0  0
 25 26  1  0  0  0
M  END
> <i_i_glide_confnum>
13

> <i_i_glide_lignum>
2554

> <i_i_glide_posenum>
156

> <i_i_glide_rotatable_bonds>
7

> <i_m_Source_File_Index>
4612

> <b_m_subgroup_collapsed>
0

> <r_i_docking_score>
-5.66158

> <r_i_glide_ecoul>
-4.96963

> <r_i_glide_eff_state_penalty>
0

> <r_i_glide_einternal>
5.80569

> <r_i_glide_emodel>
-54.0454

> <r_i_glide_energy>
-41.6259

> <r_i_glide_erotb>
0.737272

> <r_i_glide_esite>
-0.178768

> <r_i_glide_evdw>
-36.6563

> <r_i_glide_gscore>
-5.66158

> <r_i_glide_hbond>
-0.180829

> <r_i_glide_ligand_efficiency>
-0.202199

> <r_i_glide_ligand_efficiency_ln>
-1.30686

> <r_i_glide_ligand_efficiency_sa>
-0.613996

> <r_i_glide_lipo>
-2.28849

> <r_i_glide_metal>
0

> <r_i_glide_rewards>
-1.17251

> <s_i_glide_gridfile>
wee1_glide-grid

> <s_m_Source_File>
wee1_decoys_glide_SP.sdf

> <s_m_Source_Path>
/Users/zhangxujun/Desktop

> <s_m_entry_id>
4887

> <s_m_entry_name>
wee1_decoys_glide_SP.4612

> <s_m_subgroup_title>
wee1_decoys_glide_SP

> <s_m_subgroupid>
wee1_decoys_glide_SP


$$$$
