ZINC44453249_3142
                    3D
 Schrodinger Suite 2024-2.
 56 59  0  0  1  0            999 V2000
    6.7047   54.1706   26.0671 C   0  0  0  0  0  0
    6.3545   54.9532   24.8047 C   0  0  0  0  0  0
    5.9048   56.0940   24.9208 O   0  0  0  0  0  0
    6.5760   54.3218   23.6339 N   0  0  0  0  0  0
    5.9760   54.8032   22.4667 N   0  0  0  0  0  0
    6.7590   55.2930   21.4843 C   0  0  0  0  0  0
    7.9054   55.6982   21.6743 O   0  0  0  0  0  0
    6.1675   55.3466   20.1498 C   0  0  0  0  0  0
    6.8442   55.9700   19.0798 C   0  0  0  0  0  0
    6.1380   55.9775   17.8849 C   0  0  0  0  0  0
    4.6156   55.1790   18.0203 S   0  0  0  0  0  0
    4.9426   54.7984   19.6815 C   0  0  0  0  0  0
    3.9307   54.1212   20.3334 N   0  0  0  0  0  0
    4.0624   52.9452   20.9784 C   0  0  0  0  0  0
    5.0633   52.2268   20.9354 O   0  0  0  0  0  0
    2.8789   52.5830   21.8371 C   0  0  0  0  0  0
    2.1589   53.5990   22.4822 C   0  0  0  0  0  0
    1.1475   53.2909   23.3733 C   0  0  0  0  0  0
    0.8782   51.9596   23.6718 C   0  0  0  0  0  0
    1.5577   50.9303   23.0136 C   0  0  0  0  0  0
    2.5485   51.2433   22.0815 C   0  0  0  0  0  0
   -0.2759   51.6207   24.9902 S   0  0  0  0  0  0
   -1.2696   52.7003   24.9975 O   0  0  0  0  0  0
   -0.7123   50.2274   24.8488 O   0  0  0  0  0  0
    0.7045   51.7609   26.4655 N   0  0  0  0  0  0
    0.4254   50.8973   27.6217 C   0  0  0  0  0  0
   -0.3975   51.6842   28.6593 C   0  0  0  0  0  0
    0.3059   52.9887   29.0483 C   0  0  0  0  0  0
    0.1212   53.5487   30.3166 C   0  0  0  0  0  0
    0.7044   54.7667   30.6571 C   0  0  0  0  0  0
    1.5091   55.4319   29.7364 C   0  0  0  0  0  0
    1.7367   54.8670   28.4834 C   0  0  0  0  0  0
    1.1500   53.6480   28.1236 C   0  0  0  0  0  0
    1.4626   52.9997   26.7748 C   0  0  0  0  0  0
    5.8083   54.0295   26.6686 H   0  0  0  0  0  0
    7.4342   54.7078   26.6747 H   0  0  0  0  0  0
    7.1014   53.1864   25.8330 H   0  0  0  0  0  0
    6.8174   53.3440   23.5740 H   0  0  0  0  0  0
    5.1025   54.3370   22.2696 H   0  0  0  0  0  0
    7.8182   56.4295   19.1768 H   0  0  0  0  0  0
    6.4393   56.4072   16.9406 H   0  0  0  0  0  0
    2.9830   54.4061   20.1015 H   0  0  0  0  0  0
    2.3878   54.6430   22.3205 H   0  0  0  0  0  0
    0.6149   54.0914   23.8685 H   0  0  0  0  0  0
    1.3529   49.8941   23.2497 H   0  0  0  0  0  0
    3.0927   50.4435   21.5993 H   0  0  0  0  0  0
   -0.0962   49.9980   27.2888 H   0  0  0  0  0  0
    1.3895   50.6061   28.0432 H   0  0  0  0  0  0
   -1.3440   51.9690   28.2008 H   0  0  0  0  0  0
   -0.6317   51.0662   29.5296 H   0  0  0  0  0  0
   -0.4975   53.0389   31.0434 H   0  0  0  0  0  0
    0.5387   55.1876   31.6379 H   0  0  0  0  0  0
    1.9707   56.3739   29.9995 H   0  0  0  0  0  0
    2.3835   55.3798   27.7845 H   0  0  0  0  0  0
    2.5153   52.7187   26.8243 H   0  0  0  0  0  0
    1.3776   53.7075   25.9542 H   0  0  0  0  0  0
  1  2  1  0  0  0
  1 35  1  0  0  0
  1 36  1  0  0  0
  1 37  1  0  0  0
  2  3  2  0  0  0
  2  4  1  0  0  0
  4  5  1  0  0  0
  4 38  1  0  0  0
  5  6  1  0  0  0
  5 39  1  0  0  0
  6  7  2  0  0  0
  6  8  1  0  0  0
  8 12  2  0  0  0
  8  9  1  0  0  0
  9 10  2  0  0  0
  9 40  1  0  0  0
 10 11  1  0  0  0
 10 41  1  0  0  0
 11 12  1  0  0  0
 12 13  1  0  0  0
 13 14  1  0  0  0
 13 42  1  0  0  0
 14 15  2  0  0  0
 14 16  1  0  0  0
 16 21  2  0  0  0
 16 17  1  0  0  0
 17 18  2  0  0  0
 17 43  1  0  0  0
 18 19  1  0  0  0
 18 44  1  0  0  0
 19 20  2  0  0  0
 19 22  1  0  0  0
 20 21  1  0  0  0
 20 45  1  0  0  0
 21 46  1  0  0  0
 22 23  2  0  0  0
 22 24  2  0  0  0
 22 25  1  0  0  0
 25 34  1  0  0  0
 25 26  1  0  0  0
 26 27  1  0  0  0
 26 47  1  0  0  0
 26 48  1  0  0  0
 27 28  1  0  0  0
 27 49  1  0  0  0
 27 50  1  0  0  0
 28 33  2  0  0  0
 28 29  1  0  0  0
 29 30  2  0  0  0
 29 51  1  0  0  0
 30 31  1  0  0  0
 30 52  1  0  0  0
 31 32  2  0  0  0
 31 53  1  0  0  0
 32 33  1  0  0  0
 32 54  1  0  0  0
 33 34  1  0  0  0
 34 55  1  0  0  0
 34 56  1  0  0  0
M  END
> <i_i_glide_confnum>
167

> <i_i_glide_lignum>
3143

> <i_i_glide_posenum>
121

> <i_i_glide_rotatable_bonds>
9

> <i_m_Source_File_Index>
6045

> <b_m_subgroup_collapsed>
0

> <r_i_docking_score>
-6.00892

> <r_i_glide_ecoul>
-6.09381

> <r_i_glide_eff_state_penalty>
0

> <r_i_glide_einternal>
17.5862

> <r_i_glide_emodel>
-69.8663

> <r_i_glide_energy>
-58.6054

> <r_i_glide_erotb>
0.656757

> <r_i_glide_esite>
-0.0381234

> <r_i_glide_evdw>
-52.5116

> <r_i_glide_gscore>
-6.00892

> <r_i_glide_hbond>
-0.32

> <r_i_glide_ligand_efficiency>
-0.176733

> <r_i_glide_ligand_efficiency_ln>
-1.32754

> <r_i_glide_ligand_efficiency_sa>
-0.572546

> <r_i_glide_lipo>
-2.68607

> <r_i_glide_metal>
0

> <r_i_glide_rewards>
-0.0818382

> <s_i_glide_gridfile>
wee1_glide-grid

> <s_m_Source_File>
wee1_decoys_glide_SP.sdf

> <s_m_Source_Path>
/Users/zhangxujun/Desktop

> <s_m_entry_id>
6320

> <s_m_entry_name>
wee1_decoys_glide_SP.6045

> <s_m_subgroup_title>
wee1_decoys_glide_SP

> <s_m_subgroupid>
wee1_decoys_glide_SP


$$$$
