ZINC19891133_905
                    3D
 Schrodinger Suite 2024-2.
 71 76  0  0  1  0            999 V2000
    0.2447   52.6366   29.7131 C   0  0  0  0  0  0
    0.4858   53.0133   28.3970 C   0  0  0  0  0  0
   -0.3134   52.4968   27.3773 C   0  0  0  0  0  0
   -1.3711   51.6286   27.6708 C   0  0  0  0  0  0
   -1.6279   51.2967   29.0002 C   0  0  0  0  0  0
   -0.7994   51.7692   30.0134 C   0  0  0  0  0  0
   -2.2025   50.9773   26.5492 C   0  0  0  0  0  0
   -3.4211   51.8573   26.2298 C   0  0  0  0  0  0
   -4.6376   51.5972   26.8685 C   0  0  0  0  0  0
   -5.7574   52.3767   26.5881 C   0  0  0  0  0  0
   -5.6607   53.4203   25.6693 C   0  0  0  0  0  0
   -4.4535   53.6919   25.0294 C   0  0  0  0  0  0
   -3.3365   52.9100   25.3100 C   0  0  0  0  0  0
   -1.3631   50.6404   25.3736 N   0  0  0  0  0  0
   -2.0689   50.1499   24.1774 C   0  0  0  0  0  0
   -1.0945   50.0558   22.9721 C   0  0  0  0  0  0
    0.0982   49.2510   23.2782 N   0  0  0  0  0  0
    0.7188   49.5980   24.5681 C   0  0  0  0  0  0
   -0.3170   49.6557   25.7067 C   0  0  0  0  0  0
    1.0447   49.1340   22.1517 C   0  0  0  0  0  0
    1.6813   50.4177   21.6010 C   0  0  0  0  0  0
    2.0828   50.4600   20.3118 N   0  3  0  0  0  0
    2.6876   51.5705   19.8522 C   0  0  0  0  0  0
    2.9576   52.6379   20.6348 N   0  0  0  0  0  0
    2.5614   52.5405   21.9323 C   0  0  0  0  0  0
    1.9129   51.4581   22.4430 N   0  0  0  0  0  0
    2.9076   53.5323   22.8504 N   0  0  0  0  0  0
    1.9105   53.9306   23.8589 C   0  0  0  0  0  0
    2.4300   53.5882   25.2528 C   0  0  0  0  0  0
    3.7358   54.3221   25.5610 C   0  0  0  0  0  0
    4.6181   54.4804   24.3258 C   0  0  0  0  0  0
    4.1815   54.1101   23.0201 C   0  0  0  0  0  0
    5.0724   54.3004   21.9465 C   0  0  0  0  0  0
    6.3122   54.8977   22.1294 C   0  0  0  0  0  0
    6.7045   55.2890   23.4005 C   0  0  0  0  0  0
    5.8844   55.0467   24.4918 C   0  0  0  0  0  0
    3.1044   51.6966   18.5259 N   0  0  0  0  0  0
    0.8738   53.0088   30.5083 H   0  0  0  0  0  0
    1.2998   53.6863   28.1763 H   0  0  0  0  0  0
   -0.1218   52.7597   26.3482 H   0  0  0  0  0  0
   -2.4207   50.6032   29.2472 H   0  0  0  0  0  0
   -0.9497   51.4499   31.0329 H   0  0  0  0  0  0
   -2.5642   50.0079   26.9031 H   0  0  0  0  0  0
   -4.7164   50.7872   27.5806 H   0  0  0  0  0  0
   -6.6975   52.1698   27.0771 H   0  0  0  0  0  0
   -6.5315   54.0213   25.4503 H   0  0  0  0  0  0
   -4.3856   54.5016   24.3181 H   0  0  0  0  0  0
   -2.3992   53.1208   24.8150 H   0  0  0  0  0  0
   -2.5118   49.1726   24.3809 H   0  0  0  0  0  0
   -2.8799   50.8164   23.8901 H   0  0  0  0  0  0
   -0.7855   51.0798   22.7603 H   0  0  0  0  0  0
   -1.6228   49.6541   22.1063 H   0  0  0  0  0  0
    1.1454   50.5962   24.5422 H   0  0  0  0  0  0
    1.5037   48.8964   24.8351 H   0  0  0  0  0  0
    0.2143   49.9370   26.6164 H   0  0  0  0  0  0
   -0.7481   48.6699   25.8966 H   0  0  0  0  0  0
    1.8718   48.4968   22.4673 H   0  0  0  0  0  0
    0.5514   48.6063   21.3345 H   0  0  0  0  0  0
    1.7551   55.0076   23.7721 H   0  0  0  0  0  0
    0.9335   53.4725   23.6909 H   0  0  0  0  0  0
    1.6882   53.8804   25.9884 H   0  0  0  0  0  0
    2.5496   52.5093   25.3528 H   0  0  0  0  0  0
    3.5051   55.3158   25.9429 H   0  0  0  0  0  0
    4.2754   53.8052   26.3556 H   0  0  0  0  0  0
    4.8185   54.0591   20.9296 H   0  0  0  0  0  0
    6.9582   55.0822   21.2838 H   0  0  0  0  0  0
    7.6396   55.8032   23.5378 H   0  0  0  0  0  0
    6.2132   55.3515   25.4755 H   0  0  0  0  0  0
    3.5121   52.5713   18.2352 H   0  0  0  0  0  0
    3.3635   50.8674   17.9981 H   0  0  0  0  0  0
    1.9354   49.6786   19.6923 H   0  0  0  0  0  0
  1  6  2  0  0  0
  1  2  1  0  0  0
  1 38  1  0  0  0
  2  3  2  0  0  0
  2 39  1  0  0  0
  3  4  1  0  0  0
  3 40  1  0  0  0
  4  5  2  0  0  0
  4  7  1  0  0  0
  5  6  1  0  0  0
  5 41  1  0  0  0
  6 42  1  0  0  0
  7  8  1  0  0  0
  7 14  1  0  0  0
  7 43  1  0  0  0
  8 13  2  0  0  0
  8  9  1  0  0  0
  9 10  2  0  0  0
  9 44  1  0  0  0
 10 11  1  0  0  0
 10 45  1  0  0  0
 11 12  2  0  0  0
 11 46  1  0  0  0
 12 13  1  0  0  0
 12 47  1  0  0  0
 13 48  1  0  0  0
 14 19  1  0  0  0
 14 15  1  0  0  0
 15 16  1  0  0  0
 15 49  1  0  0  0
 15 50  1  0  0  0
 16 17  1  0  0  0
 16 51  1  0  0  0
 16 52  1  0  0  0
 17 18  1  0  0  0
 17 20  1  0  0  0
 18 19  1  0  0  0
 18 53  1  0  0  0
 18 54  1  0  0  0
 19 55  1  0  0  0
 19 56  1  0  0  0
 20 21  1  0  0  0
 20 57  1  0  0  0
 20 58  1  0  0  0
 21 26  2  0  0  0
 21 22  1  0  0  0
 22 23  2  0  0  0
 22 71  1  0  0  0
 23 24  1  0  0  0
 23 37  1  0  0  0
 24 25  2  0  0  0
 25 26  1  0  0  0
 25 27  1  0  0  0
 27 32  1  0  0  0
 27 28  1  0  0  0
 28 29  1  0  0  0
 28 59  1  0  0  0
 28 60  1  0  0  0
 29 30  1  0  0  0
 29 61  1  0  0  0
 29 62  1  0  0  0
 30 31  1  0  0  0
 30 63  1  0  0  0
 30 64  1  0  0  0
 31 36  2  0  0  0
 31 32  1  0  0  0
 32 33  2  0  0  0
 33 34  1  0  0  0
 33 65  1  0  0  0
 34 35  2  0  0  0
 34 66  1  0  0  0
 35 36  1  0  0  0
 35 67  1  0  0  0
 36 68  1  0  0  0
 37 69  1  0  0  0
 37 70  1  0  0  0
M  CHG  1  22   1
M  END
> <i_i_glide_confnum>
81

> <i_i_glide_lignum>
906

> <i_i_glide_posenum>
366

> <i_i_glide_rotatable_bonds>
6

> <i_m_Source_File_Index>
2490

> <b_m_subgroup_collapsed>
0

> <r_i_docking_score>
-5.05435

> <r_i_glide_ecoul>
-1.97337

> <r_i_glide_eff_state_penalty>
0

> <r_i_glide_einternal>
9.35848

> <r_i_glide_emodel>
-51.0336

> <r_i_glide_energy>
-38.7569

> <r_i_glide_erotb>
0.503501

> <r_i_glide_esite>
-0.157336

> <r_i_glide_evdw>
-36.7835

> <r_i_glide_gscore>
-5.05435

> <r_i_glide_hbond>
-0.126801

> <r_i_glide_ligand_efficiency>
-0.136604

> <r_i_glide_ligand_efficiency_ln>
-1.09617

> <r_i_glide_ligand_efficiency_sa>
-0.455195

> <r_i_glide_lipo>
-2.59735

> <r_i_glide_metal>
0

> <r_i_glide_rewards>
-0.541176

> <s_i_glide_gridfile>
wee1_glide-grid

> <s_m_Source_File>
wee1_decoys_glide_SP.sdf

> <s_m_Source_Path>
/Users/zhangxujun/Desktop

> <s_m_entry_id>
2765

> <s_m_entry_name>
wee1_decoys_glide_SP.2490

> <s_m_subgroup_title>
wee1_decoys_glide_SP

> <s_m_subgroupid>
wee1_decoys_glide_SP


$$$$
