ZINC01803656_5769
                    3D
 Schrodinger Suite 2024-2.
 62 66  0  0  1  0            999 V2000
    6.6543   59.9375   12.6910 C   0  0  0  0  0  0
    7.5824   58.7086   12.6770 C   0  0  0  0  0  0
    7.7558   58.1681   13.9848 O   0  0  0  0  0  0
    6.8204   57.3709   14.5614 C   0  0  0  0  0  0
    5.7691   57.0612   13.9908 O   0  0  0  0  0  0
    7.1346   56.9119   15.9401 C   0  0  0  0  0  0
    8.2952   57.1689   16.6202 C   0  0  0  0  0  0
    8.5140   56.7391   17.8972 N   0  0  0  0  0  0
    7.5897   56.1548   18.5649 C   0  0  0  0  0  0
    6.3820   55.8163   18.0472 N   0  0  0  0  0  0
    5.4658   55.3003   18.9043 C   0  0  0  0  0  0
    4.3097   55.0096   18.5881 O   0  0  0  0  0  0
    6.0346   55.1541   20.2317 C   0  0  0  0  0  0
    5.2969   54.6723   21.2555 C   0  0  0  0  0  0
    5.7030   54.4844   22.6337 C   0  0  0  0  0  0
    6.9301   54.3760   23.2779 C   0  0  0  0  0  0
    6.6729   54.2223   24.6379 C   0  0  0  0  0  0
    5.2945   54.2153   24.7869 C   0  0  0  0  0  0
    4.7200   54.3726   23.5652 O   0  0  0  0  0  0
    4.3906   54.0217   25.9531 C   0  0  0  0  0  0
    3.0445   53.6976   25.7633 C   0  0  0  0  0  0
    2.2270   53.4146   26.8552 C   0  0  0  0  0  0
    2.7461   53.4554   28.1575 C   0  0  0  0  0  0
    4.0907   53.8119   28.3419 C   0  0  0  0  0  0
    4.9032   54.0950   27.2487 C   0  0  0  0  0  0
    1.9179   53.0895   29.3510 C   0  0  0  0  0  0
    2.3961   53.0024   30.4831 O   0  0  0  0  0  0
    0.6077   52.8820   29.0672 O   0  0  0  0  0  0
   -0.3116   52.5335   30.0951 C   0  0  0  0  0  0
    7.7175   55.6968   20.2602 S   0  0  0  0  0  0
    6.0554   56.0019   16.5935 C   0  0  2  0  0  0
    5.0870   56.4998   16.5221 H   0  0  0  0  0  0
    5.8871   54.6405   15.8967 C   0  0  0  0  0  0
    4.6668   54.3193   15.2957 C   0  0  0  0  0  0
    4.5091   53.0995   14.6447 C   0  0  0  0  0  0
    5.5711   52.1986   14.5975 C   0  0  0  0  0  0
    6.7861   52.5050   15.2029 C   0  0  0  0  0  0
    6.9468   53.7272   15.8519 C   0  0  0  0  0  0
    5.4215   51.0220   13.9483 F   0  0  0  0  0  0
    9.5080   57.9651   16.1394 C   0  0  0  0  0  0
    6.5793   60.3820   11.6965 H   0  0  0  0  0  0
    5.6446   59.6702   13.0107 H   0  0  0  0  0  0
    7.0287   60.7017   13.3767 H   0  0  0  0  0  0
    8.5634   59.0052   12.3024 H   0  0  0  0  0  0
    7.2067   57.9478   11.9837 H   0  0  0  0  0  0
    4.2645   54.3915   21.0846 H   0  0  0  0  0  0
    7.9035   54.4046   22.8161 H   0  0  0  0  0  0
    7.4025   54.1010   25.4221 H   0  0  0  0  0  0
    2.6285   53.6315   24.7674 H   0  0  0  0  0  0
    1.1965   53.1390   26.6693 H   0  0  0  0  0  0
    4.5292   53.8534   29.3304 H   0  0  0  0  0  0
    5.9447   54.3400   27.4160 H   0  0  0  0  0  0
   -1.2659   52.2431   29.6570 H   0  0  0  0  0  0
    0.0478   51.6973   30.6936 H   0  0  0  0  0  0
   -0.4858   53.3771   30.7653 H   0  0  0  0  0  0
    3.8417   55.0167   15.3246 H   0  0  0  0  0  0
    3.5698   52.8510   14.1719 H   0  0  0  0  0  0
    7.6009   51.7962   15.1622 H   0  0  0  0  0  0
    7.8930   53.9635   16.3150 H   0  0  0  0  0  0
    9.2432   59.0163   16.0407 H   0  0  0  0  0  0
   10.3632   57.8999   16.8140 H   0  0  0  0  0  0
    9.8542   57.5982   15.1745 H   0  0  0  0  0  0
  1  2  1  0  0  0
  1 41  1  0  0  0
  1 42  1  0  0  0
  1 43  1  0  0  0
  2  3  1  0  0  0
  2 44  1  0  0  0
  2 45  1  0  0  0
  3  4  1  0  0  0
  4  5  2  0  0  0
  4  6  1  0  0  0
  6 31  1  0  0  0
  6  7  2  0  0  0
  7  8  1  0  0  0
  7 40  1  0  0  0
  8  9  2  0  0  0
  9 30  1  0  0  0
  9 10  1  0  0  0
 10 11  1  0  0  0
 10 31  1  0  0  0
 11 12  2  0  0  0
 11 13  1  0  0  0
 13 14  2  0  0  0
 13 30  1  0  0  0
 14 15  1  0  0  0
 14 46  1  0  0  0
 15 19  1  0  0  0
 15 16  2  0  0  0
 16 17  1  0  0  0
 16 47  1  0  0  0
 17 18  2  0  0  0
 17 48  1  0  0  0
 18 19  1  0  0  0
 18 20  1  0  0  0
 20 25  2  0  0  0
 20 21  1  0  0  0
 21 22  2  0  0  0
 21 49  1  0  0  0
 22 23  1  0  0  0
 22 50  1  0  0  0
 23 24  2  0  0  0
 23 26  1  0  0  0
 24 25  1  0  0  0
 24 51  1  0  0  0
 25 52  1  0  0  0
 26 27  2  0  0  0
 26 28  1  0  0  0
 28 29  1  0  0  0
 29 53  1  0  0  0
 29 54  1  0  0  0
 29 55  1  0  0  0
 31 32  1  0  0  0
 31 33  1  0  0  0
 33 38  2  0  0  0
 33 34  1  0  0  0
 34 35  2  0  0  0
 34 56  1  0  0  0
 35 36  1  0  0  0
 35 57  1  0  0  0
 36 37  2  0  0  0
 36 39  1  0  0  0
 37 38  1  0  0  0
 37 58  1  0  0  0
 38 59  1  0  0  0
 40 60  1  0  0  0
 40 61  1  0  0  0
 40 62  1  0  0  0
M  END
> <i_i_glide_confnum>
43

> <i_i_glide_lignum>
5770

> <i_i_glide_posenum>
2

> <i_i_glide_rotatable_bonds>
8

> <i_m_Source_File_Index>
5688

> <b_m_subgroup_collapsed>
0

> <r_i_docking_score>
-4.99806

> <r_i_glide_ecoul>
-0.704888

> <r_i_glide_eff_state_penalty>
0

> <r_i_glide_einternal>
3.22646

> <r_i_glide_emodel>
-54.2868

> <r_i_glide_energy>
-41.0195

> <r_i_glide_erotb>
0.415968

> <r_i_glide_esite>
-0.0296175

> <r_i_glide_evdw>
-40.3146

> <r_i_glide_gscore>
-4.99806

> <r_i_glide_hbond>
-0.253114

> <r_i_glide_ligand_efficiency>
-0.128155

> <r_i_glide_ligand_efficiency_ln>
-1.07173

> <r_i_glide_ligand_efficiency_sa>
-0.434602

> <r_i_glide_lipo>
-2.71136

> <r_i_glide_metal>
0

> <r_i_glide_rewards>
-0.298469

> <s_i_glide_gridfile>
wee1_glide-grid

> <s_m_Source_File>
wee1_decoys_glide_SP.sdf

> <s_m_Source_Path>
/Users/zhangxujun/Desktop

> <s_m_entry_id>
5963

> <s_m_entry_name>
wee1_decoys_glide_SP.5688

> <s_m_subgroup_title>
wee1_decoys_glide_SP

> <s_m_subgroupid>
wee1_decoys_glide_SP


$$$$
