ZINC05900749_3937
                    3D
 Schrodinger Suite 2024-2.
 48 51  0  0  1  0            999 V2000
    8.0708   55.9202   19.7862 C   0  0  0  0  0  0
    6.8120   55.2980   20.3651 C   0  0  0  0  0  0
    5.7856   54.8964   19.5046 C   0  0  0  0  0  0
    4.6193   54.2962   19.9850 C   0  0  0  0  0  0
    4.4858   54.1014   21.3660 C   0  0  0  0  0  0
    5.5389   54.4965   22.2328 C   0  0  0  0  0  0
    6.7032   55.1088   21.7464 C   0  0  0  0  0  0
    5.0960   54.0969   23.8792 S   0  0  0  0  0  0
    3.5314   53.5652   23.2793 C   0  0  0  0  0  0
    3.3907   53.5744   21.9824 N   0  0  0  0  0  0
    2.4878   53.0956   24.2458 C   0  0  0  0  0  0
    1.5960   52.0546   23.9645 C   0  0  0  0  0  0
    0.7044   51.6099   24.9474 C   0  0  0  0  0  0
    0.6657   52.2100   26.2131 C   0  0  0  0  0  0
    1.5049   53.2988   26.4386 C   0  0  0  0  0  0
    2.4217   53.7165   25.4891 C   0  0  0  0  0  0
   -0.2632   51.7044   27.1452 N   0  0  0  0  0  0
   -0.6185   51.9043   28.5203 C   0  0  0  0  0  0
   -0.0971   52.4964   29.5209 N   0  0  0  0  0  0
    1.1070   53.1765   29.5646 C   0  0  0  0  0  0
    2.2804   52.5054   29.3928 N   0  0  0  0  0  0
    3.3998   53.2778   29.3318 C   0  0  0  0  0  0
    3.3631   54.6729   29.4499 C   0  0  0  0  0  0
    2.1099   55.2511   29.6772 C   0  0  0  0  0  0
    0.9774   54.5129   29.7619 N   0  0  0  0  0  0
    1.9149   56.7479   29.8016 C   0  0  0  0  0  0
    4.6952   52.5420   29.0743 C   0  0  0  0  0  0
   -1.8588   51.2963   28.7485 N   0  0  0  0  0  0
    7.8169   56.6458   19.0117 H   0  0  0  0  0  0
    8.6544   56.4470   20.5422 H   0  0  0  0  0  0
    8.6994   55.1508   19.3327 H   0  0  0  0  0  0
    5.8940   55.0468   18.4393 H   0  0  0  0  0  0
    3.8294   54.0016   19.3092 H   0  0  0  0  0  0
    7.4999   55.4014   22.4168 H   0  0  0  0  0  0
    1.6224   51.5639   23.0025 H   0  0  0  0  0  0
    0.0508   50.7797   24.7197 H   0  0  0  0  0  0
    1.4397   53.8940   27.3209 H   0  0  0  0  0  0
    3.0635   54.5511   25.7269 H   0  0  0  0  0  0
   -0.8956   51.0677   26.6858 H   0  0  0  0  0  0
    4.2567   55.2742   29.3695 H   0  0  0  0  0  0
    2.7015   57.2951   29.2846 H   0  0  0  0  0  0
    1.9021   57.0514   30.8497 H   0  0  0  0  0  0
    0.9739   57.0479   29.3450 H   0  0  0  0  0  0
    5.5528   53.2122   29.1149 H   0  0  0  0  0  0
    4.8378   51.7480   29.8073 H   0  0  0  0  0  0
    4.6716   52.0982   28.0813 H   0  0  0  0  0  0
   -2.1250   51.2485   29.7209 H   0  0  0  0  0  0
   -1.9565   50.3607   28.3668 H   0  0  0  0  0  0
  1  2  1  0  0  0
  1 29  1  0  0  0
  1 30  1  0  0  0
  1 31  1  0  0  0
  2  7  2  0  0  0
  2  3  1  0  0  0
  3  4  2  0  0  0
  3 32  1  0  0  0
  4  5  1  0  0  0
  4 33  1  0  0  0
  5 10  1  0  0  0
  5  6  2  0  0  0
  6  7  1  0  0  0
  6  8  1  0  0  0
  7 34  1  0  0  0
  8  9  1  0  0  0
  9 10  2  0  0  0
  9 11  1  0  0  0
 11 16  2  0  0  0
 11 12  1  0  0  0
 12 13  2  0  0  0
 12 35  1  0  0  0
 13 14  1  0  0  0
 13 36  1  0  0  0
 14 15  2  0  0  0
 14 17  1  0  0  0
 15 16  1  0  0  0
 15 37  1  0  0  0
 16 38  1  0  0  0
 17 18  1  0  0  0
 17 39  1  0  0  0
 18 19  2  0  0  0
 18 28  1  0  0  0
 19 20  1  0  0  0
 20 25  2  0  0  0
 20 21  1  0  0  0
 21 22  2  0  0  0
 22 23  1  0  0  0
 22 27  1  0  0  0
 23 24  2  0  0  0
 23 40  1  0  0  0
 24 25  1  0  0  0
 24 26  1  0  0  0
 26 41  1  0  0  0
 26 42  1  0  0  0
 26 43  1  0  0  0
 27 44  1  0  0  0
 27 45  1  0  0  0
 27 46  1  0  0  0
 28 47  1  0  0  0
 28 48  1  0  0  0
M  END
> <i_i_glide_confnum>
41

> <i_i_glide_lignum>
3938

> <i_i_glide_posenum>
1

> <i_i_glide_rotatable_bonds>
4

> <i_m_Source_File_Index>
5893

> <b_m_subgroup_collapsed>
0

> <r_i_docking_score>
-6.87292

> <r_i_glide_ecoul>
-6.03705

> <r_i_glide_eff_state_penalty>
0

> <r_i_glide_einternal>
7.87227

> <r_i_glide_emodel>
-65.9881

> <r_i_glide_energy>
-49.0764

> <r_i_glide_erotb>
0.516406

> <r_i_glide_esite>
-0.128702

> <r_i_glide_evdw>
-43.0393

> <r_i_glide_gscore>
-6.87292

> <r_i_glide_hbond>
-0.155679

> <r_i_glide_ligand_efficiency>
-0.245461

> <r_i_glide_ligand_efficiency_ln>
-1.58647

> <r_i_glide_ligand_efficiency_sa>
-0.745365

> <r_i_glide_lipo>
-3.06795

> <r_i_glide_metal>
0

> <r_i_glide_rewards>
-0.979472

> <s_i_glide_gridfile>
wee1_glide-grid

> <s_m_Source_File>
wee1_decoys_glide_SP.sdf

> <s_m_Source_Path>
/Users/zhangxujun/Desktop

> <s_m_entry_id>
6168

> <s_m_entry_name>
wee1_decoys_glide_SP.5893

> <s_m_subgroup_title>
wee1_decoys_glide_SP

> <s_m_subgroupid>
wee1_decoys_glide_SP


$$$$
