ZINC09244465_413
                    3D
 Schrodinger Suite 2024-2.
 47 49  0  0  1  0            999 V2000
    1.7178   50.4126   18.0288 C   0  0  0  0  0  0
    1.4952   49.3041   18.8509 C   0  0  0  0  0  0
    1.7326   49.3950   20.2233 C   0  0  0  0  0  0
    2.2087   50.5857   20.7729 C   0  0  0  0  0  0
    2.4724   51.6873   19.9381 C   0  0  0  0  0  0
    2.2044   51.6048   18.5630 C   0  0  0  0  0  0
    2.4737   52.9427   17.4943 Cl  0  0  0  0  0  0
    3.0366   52.8613   20.4585 N   0  0  0  0  0  0
    4.3621   52.9834   20.6715 C   0  0  0  0  0  0
    5.1642   52.0733   20.4839 O   0  0  0  0  0  0
    4.8628   54.3123   21.2329 C   0  0  0  0  0  0
    4.4021   54.3978   22.5801 O   0  0  0  0  0  0
    5.2300   54.2404   23.6467 C   0  0  0  0  0  0
    6.4614   54.2168   23.5979 O   0  0  0  0  0  0
    4.4834   54.0975   24.8912 C   0  0  0  0  0  0
    4.9799   54.0830   26.1809 C   0  0  0  0  0  0
    4.0247   53.8152   27.1698 C   0  0  0  0  0  0
    2.7395   53.6339   26.6361 C   0  0  0  0  0  0
    2.7672   53.8397   24.9089 S   0  0  0  0  0  0
    1.4787   53.2857   27.3977 C   0  0  0  0  0  0
    1.1103   54.3130   28.4826 C   0  0  0  0  0  0
    2.0146   54.2839   29.7349 C   0  0  0  0  0  0
    3.4875   54.6829   29.5133 C   0  0  0  0  0  0
    4.3331   53.7318   28.6490 C   0  0  0  0  0  0
    2.4753   50.6431   22.4814 Cl  0  0  0  0  0  0
    0.9494   47.7749   18.1171 S   0  0  0  0  0  0
    0.7689   46.7857   19.1859 O   0  0  0  0  0  0
   -0.1399   48.1125   17.1968 O   0  0  0  0  0  0
    2.3040   47.2636   17.1556 N   0  0  0  0  0  0
    1.5443   50.3401   16.9662 H   0  0  0  0  0  0
    1.5688   48.5390   20.8627 H   0  0  0  0  0  0
    2.4287   53.6597   20.5954 H   0  0  0  0  0  0
    5.9497   54.3451   21.1443 H   0  0  0  0  0  0
    4.4883   55.1393   20.6336 H   0  0  0  0  0  0
    6.0265   54.2287   26.4056 H   0  0  0  0  0  0
    0.6416   53.1664   26.7119 H   0  0  0  0  0  0
    1.5975   52.3155   27.8809 H   0  0  0  0  0  0
    1.0942   55.3185   28.0610 H   0  0  0  0  0  0
    0.0870   54.1147   28.8052 H   0  0  0  0  0  0
    1.5830   54.9563   30.4784 H   0  0  0  0  0  0
    1.9721   53.2908   30.1850 H   0  0  0  0  0  0
    3.5357   55.6966   29.1109 H   0  0  0  0  0  0
    3.9772   54.7285   30.4816 H   0  0  0  0  0  0
    4.2063   52.7073   29.0050 H   0  0  0  0  0  0
    5.3896   53.9631   28.8204 H   0  0  0  0  0  0
    2.6620   48.0233   16.5594 H   0  0  0  0  0  0
    3.0846   46.9357   17.7288 H   0  0  0  0  0  0
  1  6  2  0  0  0
  1  2  1  0  0  0
  1 30  1  0  0  0
  2  3  2  0  0  0
  2 26  1  0  0  0
  3  4  1  0  0  0
  3 31  1  0  0  0
  4  5  2  0  0  0
  4 25  1  0  0  0
  5  6  1  0  0  0
  5  8  1  0  0  0
  6  7  1  0  0  0
  8  9  1  0  0  0
  8 32  1  0  0  0
  9 10  2  0  0  0
  9 11  1  0  0  0
 11 12  1  0  0  0
 11 33  1  0  0  0
 11 34  1  0  0  0
 12 13  1  0  0  0
 13 14  2  0  0  0
 13 15  1  0  0  0
 15 19  1  0  0  0
 15 16  2  0  0  0
 16 17  1  0  0  0
 16 35  1  0  0  0
 17 24  1  0  0  0
 17 18  2  0  0  0
 18 19  1  0  0  0
 18 20  1  0  0  0
 20 21  1  0  0  0
 20 36  1  0  0  0
 20 37  1  0  0  0
 21 22  1  0  0  0
 21 38  1  0  0  0
 21 39  1  0  0  0
 22 23  1  0  0  0
 22 40  1  0  0  0
 22 41  1  0  0  0
 23 24  1  0  0  0
 23 42  1  0  0  0
 23 43  1  0  0  0
 24 44  1  0  0  0
 24 45  1  0  0  0
 26 27  2  0  0  0
 26 28  2  0  0  0
 26 29  1  0  0  0
 29 46  1  0  0  0
 29 47  1  0  0  0
M  END
> <i_i_glide_confnum>
83

> <i_i_glide_lignum>
414

> <i_i_glide_posenum>
380

> <i_i_glide_rotatable_bonds>
7

> <i_m_Source_File_Index>
5428

> <b_m_subgroup_collapsed>
0

> <r_i_docking_score>
-5.3215

> <r_i_glide_ecoul>
-7.00257

> <r_i_glide_eff_state_penalty>
0

> <r_i_glide_einternal>
5.9702

> <r_i_glide_emodel>
-56.0954

> <r_i_glide_energy>
-45.3728

> <r_i_glide_erotb>
0.444431

> <r_i_glide_esite>
-0.163674

> <r_i_glide_evdw>
-38.3702

> <r_i_glide_gscore>
-5.3215

> <r_i_glide_hbond>
-0.415068

> <r_i_glide_ligand_efficiency>
-0.1835

> <r_i_glide_ligand_efficiency_ln>
-1.21849

> <r_i_glide_ligand_efficiency_sa>
-0.56377

> <r_i_glide_lipo>
-2.12268

> <r_i_glide_metal>
0

> <r_i_glide_rewards>
-0.0956104

> <s_i_glide_gridfile>
wee1_glide-grid

> <s_m_Source_File>
wee1_decoys_glide_SP.sdf

> <s_m_Source_Path>
/Users/zhangxujun/Desktop

> <s_m_entry_id>
5703

> <s_m_entry_name>
wee1_decoys_glide_SP.5428

> <s_m_subgroup_title>
wee1_decoys_glide_SP

> <s_m_subgroupid>
wee1_decoys_glide_SP


$$$$
