ZINC40141825_4447
                    3D
 Schrodinger Suite 2024-2.
 47 50  0  0  1  0            999 V2000
    5.6710   54.9608   25.9080 C   0  0  0  0  0  0
    6.5642   54.3947   26.8139 C   0  0  0  0  0  0
    6.0860   53.6906   27.9136 C   0  0  0  0  0  0
    4.7129   53.5265   28.0874 C   0  0  0  0  0  0
    3.7886   54.0995   27.1962 C   0  0  0  0  0  0
    4.2970   54.8325   26.1146 C   0  0  0  0  0  0
    2.2865   53.9479   27.4626 C   0  0  0  0  0  0
    2.0066   53.5170   28.8990 C   0  0  0  0  0  0
    0.7373   53.6325   29.4831 C   0  0  0  0  0  0
    0.4858   53.1206   30.7563 C   0  0  0  0  0  0
    1.5044   52.4967   31.4703 C   0  0  0  0  0  0
    2.7841   52.4094   30.9237 C   0  0  0  0  0  0
    3.0289   52.9177   29.6524 C   0  0  0  0  0  0
    4.3200   52.8034   29.1913 O   0  0  0  0  0  0
    1.5044   52.6928   26.3987 S   0  0  0  0  0  0
    1.9148   53.0849   24.6648 C   0  0  0  0  0  0
    1.5044   51.9819   23.6783 C   0  0  0  0  0  0
    0.9781   50.9431   24.0817 O   0  0  0  0  0  0
    1.7535   52.2258   22.3752 N   0  0  0  0  0  0
    1.5675   51.3183   21.3189 C   0  0  0  0  0  0
    1.1515   51.8369   20.0924 C   0  0  0  0  0  0
    0.9178   50.9812   19.0199 C   0  0  0  0  0  0
    1.1304   49.6097   19.1676 C   0  0  0  0  0  0
    1.5937   49.0897   20.3754 C   0  0  0  0  0  0
    1.8106   49.9419   21.4525 C   0  0  0  0  0  0
    0.8170   48.5179   17.7920 S   0  0  0  0  0  0
    1.5751   47.2810   18.0063 O   0  0  0  0  0  0
   -0.6349   48.4837   17.5926 O   0  0  0  0  0  0
    1.5044   49.3298   16.4187 N   0  0  0  0  0  0
    6.0402   55.5132   25.0561 H   0  0  0  0  0  0
    7.6265   54.4967   26.6723 H   0  0  0  0  0  0
    6.7805   53.2680   28.6230 H   0  0  0  0  0  0
    3.6164   55.2967   25.4171 H   0  0  0  0  0  0
    1.7823   54.8966   27.2817 H   0  0  0  0  0  0
   -0.0714   54.0832   28.9263 H   0  0  0  0  0  0
   -0.4995   53.1855   31.1918 H   0  0  0  0  0  0
    1.3014   52.0967   32.4545 H   0  0  0  0  0  0
    3.5844   51.9544   31.4892 H   0  0  0  0  0  0
    2.9935   53.1888   24.5735 H   0  0  0  0  0  0
    1.4567   54.0351   24.3903 H   0  0  0  0  0  0
    1.9838   53.1707   22.1072 H   0  0  0  0  0  0
    0.9856   52.8967   19.9685 H   0  0  0  0  0  0
    0.5770   51.3825   18.0760 H   0  0  0  0  0  0
    1.7830   48.0317   20.4818 H   0  0  0  0  0  0
    2.1698   49.5248   22.3826 H   0  0  0  0  0  0
    2.5411   49.2967   16.4815 H   0  0  0  0  0  0
    1.2276   48.8967   15.5374 H   0  0  0  0  0  0
  1  6  2  0  0  0
  1  2  1  0  0  0
  1 30  1  0  0  0
  2  3  2  0  0  0
  2 31  1  0  0  0
  3  4  1  0  0  0
  3 32  1  0  0  0
  4 14  1  0  0  0
  4  5  2  0  0  0
  5  6  1  0  0  0
  5  7  1  0  0  0
  6 33  1  0  0  0
  7  8  1  0  0  0
  7 15  1  0  0  0
  7 34  1  0  0  0
  8 13  2  0  0  0
  8  9  1  0  0  0
  9 10  2  0  0  0
  9 35  1  0  0  0
 10 11  1  0  0  0
 10 36  1  0  0  0
 11 12  2  0  0  0
 11 37  1  0  0  0
 12 13  1  0  0  0
 12 38  1  0  0  0
 13 14  1  0  0  0
 15 16  1  0  0  0
 16 17  1  0  0  0
 16 39  1  0  0  0
 16 40  1  0  0  0
 17 18  2  0  0  0
 17 19  1  0  0  0
 19 20  1  0  0  0
 19 41  1  0  0  0
 20 25  2  0  0  0
 20 21  1  0  0  0
 21 22  2  0  0  0
 21 42  1  0  0  0
 22 23  1  0  0  0
 22 43  1  0  0  0
 23 24  2  0  0  0
 23 26  1  0  0  0
 24 25  1  0  0  0
 24 44  1  0  0  0
 25 45  1  0  0  0
 26 27  2  0  0  0
 26 28  2  0  0  0
 26 29  1  0  0  0
 29 46  1  0  0  0
 29 47  1  0  0  0
M  END
> <i_i_glide_confnum>
11

> <i_i_glide_lignum>
4448

> <i_i_glide_posenum>
42

> <i_i_glide_rotatable_bonds>
6

> <i_m_Source_File_Index>
1760

> <b_m_subgroup_collapsed>
0

> <r_i_docking_score>
-5.87219

> <r_i_glide_ecoul>
-5.17254

> <r_i_glide_eff_state_penalty>
0

> <r_i_glide_einternal>
5.21251

> <r_i_glide_emodel>
-61.0188

> <r_i_glide_energy>
-46.75

> <r_i_glide_erotb>
0.436404

> <r_i_glide_esite>
-0.192435

> <r_i_glide_evdw>
-41.5775

> <r_i_glide_gscore>
-5.87219

> <r_i_glide_hbond>
-0.16

> <r_i_glide_ligand_efficiency>
-0.202489

> <r_i_glide_ligand_efficiency_ln>
-1.34458

> <r_i_glide_ligand_efficiency_sa>
-0.622112

> <r_i_glide_lipo>
-2.99608

> <r_i_glide_metal>
0

> <r_i_glide_rewards>
-0.105331

> <s_i_glide_gridfile>
wee1_glide-grid

> <s_m_Source_File>
wee1_decoys_glide_SP.sdf

> <s_m_Source_Path>
/Users/zhangxujun/Desktop

> <s_m_entry_id>
2035

> <s_m_entry_name>
wee1_decoys_glide_SP.1760

> <s_m_subgroup_title>
wee1_decoys_glide_SP

> <s_m_subgroupid>
wee1_decoys_glide_SP


$$$$
