ZINC39597648_5534
                    3D
 Schrodinger Suite 2024-2.
 67 71  0  0  1  0            999 V2000
    5.6387   54.9523   19.6459 C   0  0  0  0  0  0
    6.8655   55.5506   19.9182 C   0  0  0  0  0  0
    7.3674   55.6456   21.2170 C   0  0  0  0  0  0
    6.5755   55.1082   22.2364 C   0  0  0  0  0  0
    6.7859   55.0307   23.5925 N   0  0  0  0  0  0
    5.7230   54.4239   24.2029 C   0  0  0  0  0  0
    4.7762   54.0684   23.2624 C   0  0  0  0  0  0
    5.3082   54.4968   21.9920 C   0  0  0  0  0  0
    4.8486   54.4222   20.6671 C   0  0  0  0  0  0
    3.4665   53.3509   23.5015 C   0  0  0  0  0  0
    2.2434   54.2522   23.2739 C   0  0  0  0  0  0
    0.9732   53.5865   23.5605 N   0  0  0  0  0  0
    0.4191   52.6021   22.8242 C   0  0  0  0  0  0
    0.9690   52.1275   21.8317 O   0  0  0  0  0  0
   -0.9504   52.0096   23.2531 C   0  0  2  0  0  0
   -1.4819   51.7712   22.3277 H   0  0  0  0  0  0
   -1.8344   53.0476   23.9839 C   0  0  0  0  0  0
   -2.6290   52.2342   24.9092 N   0  0  0  0  0  0
   -2.2620   50.8159   24.8341 C   0  0  0  0  0  0
   -0.8524   50.7967   24.2050 C   0  0  0  0  0  0
    0.2524   50.9654   25.2978 C   0  0  0  0  0  0
    0.2312   49.8297   26.3254 C   0  0  0  0  0  0
    0.3876   48.4967   25.5654 N   0  3  0  0  0  0
   -0.6157   48.2765   24.4137 C   0  0  0  0  0  0
   -0.5128   49.4816   23.4647 C   0  0  0  0  0  0
   -3.6741   52.7496   25.6114 C   0  0  0  0  0  0
   -4.0970   53.8930   25.4197 O   0  0  0  0  0  0
   -4.3235   51.9110   26.6882 C   0  0  0  0  0  0
   -3.5526   51.2387   27.6473 C   0  0  0  0  0  0
   -4.1663   50.4829   28.6444 C   0  0  0  0  0  0
   -5.5661   50.4157   28.7174 C   0  0  0  0  0  0
   -6.3286   51.1155   27.7849 C   0  0  0  0  0  0
   -5.7182   51.8610   26.7802 C   0  0  0  0  0  0
   -6.2728   49.7035   29.6680 O   0  0  0  0  0  0
   -5.5877   48.9336   30.6526 C   0  0  0  0  0  0
   -4.8888   47.9411   30.0999 F   0  0  0  0  0  0
   -6.5075   48.3797   31.4403 F   0  0  0  0  0  0
   -4.8135   49.7032   31.4196 F   0  0  0  0  0  0
    5.2923   54.8953   18.6243 H   0  0  0  0  0  0
    7.4498   55.9416   19.0975 H   0  0  0  0  0  0
    8.3296   56.0953   21.4190 H   0  0  0  0  0  0
    5.7334   54.2689   25.2729 H   0  0  0  0  0  0
    7.6202   55.3277   24.0815 H   0  0  0  0  0  0
    3.8972   53.9656   20.4371 H   0  0  0  0  0  0
    3.4303   52.9492   24.5144 H   0  0  0  0  0  0
    3.4109   52.4968   22.8282 H   0  0  0  0  0  0
    2.2433   54.6410   22.2553 H   0  0  0  0  0  0
    2.3164   55.1211   23.9275 H   0  0  0  0  0  0
    0.4800   53.9116   24.3772 H   0  0  0  0  0  0
   -2.4511   53.6053   23.2778 H   0  0  0  0  0  0
   -1.2403   53.6966   24.6235 H   0  0  0  0  0  0
   -2.3587   50.2171   25.7354 H   0  0  0  0  0  0
   -2.9649   50.3624   24.1343 H   0  0  0  0  0  0
    1.2485   51.0498   24.8613 H   0  0  0  0  0  0
    0.0952   51.8983   25.8405 H   0  0  0  0  0  0
    1.0668   49.8926   27.0238 H   0  0  0  0  0  0
   -0.6989   49.7521   26.8799 H   0  0  0  0  0  0
    1.3274   48.4404   25.1905 H   0  0  0  0  0  0
   -0.3309   47.3385   23.9345 H   0  0  0  0  0  0
   -1.5994   48.1522   24.8701 H   0  0  0  0  0  0
   -1.2256   49.3278   22.6552 H   0  0  0  0  0  0
    0.4648   49.5372   22.9800 H   0  0  0  0  0  0
   -2.4740   51.2933   27.6395 H   0  0  0  0  0  0
   -3.5325   49.9584   29.3452 H   0  0  0  0  0  0
   -7.4069   51.0785   27.8417 H   0  0  0  0  0  0
   -6.3357   52.3943   26.0692 H   0  0  0  0  0  0
    0.3175   47.7245   26.2281 H   0  0  0  0  0  0
  1  2  2  0  0  0
  1 39  1  0  0  0
  1  9  1  0  0  0
  2  3  1  0  0  0
  2 40  1  0  0  0
  3  4  2  0  0  0
  3 41  1  0  0  0
  4  5  1  0  0  0
  4  8  1  0  0  0
  5 43  1  0  0  0
  5  6  1  0  0  0
  6  7  2  0  0  0
  6 42  1  0  0  0
  7  8  1  0  0  0
  7 10  1  0  0  0
  8  9  2  0  0  0
  9 44  1  0  0  0
 10 11  1  0  0  0
 10 45  1  0  0  0
 10 46  1  0  0  0
 11 12  1  0  0  0
 11 47  1  0  0  0
 11 48  1  0  0  0
 12 13  1  0  0  0
 12 49  1  0  0  0
 13 14  2  0  0  0
 13 15  1  0  0  0
 15 16  1  0  0  0
 15 20  1  0  0  0
 15 17  1  0  0  0
 17 18  1  0  0  0
 17 50  1  0  0  0
 17 51  1  0  0  0
 18 19  1  0  0  0
 18 26  1  0  0  0
 19 20  1  0  0  0
 19 52  1  0  0  0
 19 53  1  0  0  0
 20 25  1  0  0  0
 20 21  1  0  0  0
 21 22  1  0  0  0
 21 54  1  0  0  0
 21 55  1  0  0  0
 22 23  1  0  0  0
 22 56  1  0  0  0
 22 57  1  0  0  0
 23 24  1  0  0  0
 23 58  1  0  0  0
 23 67  1  0  0  0
 24 25  1  0  0  0
 24 59  1  0  0  0
 24 60  1  0  0  0
 25 61  1  0  0  0
 25 62  1  0  0  0
 26 27  2  0  0  0
 26 28  1  0  0  0
 28 33  2  0  0  0
 28 29  1  0  0  0
 29 30  2  0  0  0
 29 63  1  0  0  0
 30 31  1  0  0  0
 30 64  1  0  0  0
 31 32  2  0  0  0
 31 34  1  0  0  0
 32 33  1  0  0  0
 32 65  1  0  0  0
 33 66  1  0  0  0
 34 35  1  0  0  0
 35 36  1  0  0  0
 35 37  1  0  0  0
 35 38  1  0  0  0
M  CHG  1  23   1
M  END
> <i_i_glide_confnum>
328

> <i_i_glide_lignum>
5535

> <i_i_glide_posenum>
296

> <i_i_glide_rotatable_bonds>
9

> <i_m_Source_File_Index>
2344

> <b_m_subgroup_collapsed>
0

> <r_i_docking_score>
-5.17254

> <r_i_glide_ecoul>
-8.21848

> <r_i_glide_eff_state_penalty>
0

> <r_i_glide_einternal>
6.75875

> <r_i_glide_emodel>
-59.9895

> <r_i_glide_energy>
-45.66

> <r_i_glide_erotb>
0.540423

> <r_i_glide_esite>
-0.215628

> <r_i_glide_evdw>
-37.4415

> <r_i_glide_gscore>
-5.17254

> <r_i_glide_hbond>
-0.196259

> <r_i_glide_ligand_efficiency>
-0.139798

> <r_i_glide_ligand_efficiency_ln>
-1.1218

> <r_i_glide_ligand_efficiency_sa>
-0.465839

> <r_i_glide_lipo>
-1.83848

> <r_i_glide_metal>
0

> <r_i_glide_rewards>
-0.357751

> <s_i_glide_gridfile>
wee1_glide-grid

> <s_m_Source_File>
wee1_decoys_glide_SP.sdf

> <s_m_Source_Path>
/Users/zhangxujun/Desktop

> <s_m_entry_id>
2619

> <s_m_entry_name>
wee1_decoys_glide_SP.2344

> <s_m_subgroup_title>
wee1_decoys_glide_SP

> <s_m_subgroupid>
wee1_decoys_glide_SP


$$$$
