ZINC14672882_770
                    3D
 Schrodinger Suite 2024-2.
 68 72  0  0  1  0            999 V2000
    5.7570   54.5419   27.3572 C   0  0  0  0  0  0
    4.4080   54.4963   27.0390 C   0  0  0  0  0  0
    4.0120   54.2644   25.7250 C   0  0  0  0  0  0
    4.9462   54.0958   24.6792 C   0  0  0  0  0  0
    6.3048   54.0967   25.0541 C   0  0  0  0  0  0
    6.7046   54.3375   26.3677 C   0  0  0  0  0  0
    4.5376   53.6982   23.2030 C   0  0  0  0  0  0
    3.0479   53.2976   23.0107 C   0  0  0  0  0  0
    2.0143   54.1429   23.4233 C   0  0  0  0  0  0
    0.7070   53.6766   23.4951 C   0  0  0  0  0  0
    0.3946   52.4109   23.0106 C   0  0  0  0  0  0
    1.3870   51.6041   22.4662 C   0  0  0  0  0  0
    2.7057   52.0486   22.4701 C   0  0  0  0  0  0
    4.9994   54.5919   22.1012 N   0  0  0  0  0  0
    6.2944   55.2554   22.3072 C   0  0  0  0  0  0
    6.5622   56.3178   21.2435 C   0  0  0  0  0  0
    6.5736   55.6674   19.9255 N   0  0  0  0  0  0
    5.3401   54.9327   19.5747 C   0  0  0  0  0  0
    4.9034   53.9981   20.7502 C   0  0  0  0  0  0
    7.7538   55.5761   19.2536 C   0  0  0  0  0  0
    8.8116   55.8872   19.7983 O   0  0  0  0  0  0
    7.7966   55.2878   17.7336 C   0  0  0  0  0  0
    9.1120   54.5159   17.3499 N   0  3  2  0  0  0
   10.2891   55.5091   17.1338 C   0  0  0  0  0  0
   11.5920   54.7533   16.8813 C   0  0  0  0  0  0
   12.8151   55.3573   17.2048 C   0  0  0  0  0  0
   14.0265   54.7173   16.9635 C   0  0  0  0  0  0
   14.0327   53.4528   16.3882 C   0  0  0  0  0  0
   12.8267   52.8340   16.0679 C   0  0  0  0  0  0
   11.6001   53.4618   16.3141 C   0  0  0  0  0  0
   10.3027   52.7220   16.0091 C   0  0  0  0  0  0
    9.0364   53.6174   16.0711 C   0  0  1  0  0  0
    8.9188   54.2660   15.2006 H   0  0  0  0  0  0
    7.7838   52.7129   16.1363 C   0  0  0  0  0  0
    7.0633   52.5843   15.1534 O   0  0  0  0  0  0
    7.5045   52.0959   17.2815 N   0  0  0  0  0  0
    6.0701   54.7181   28.3765 H   0  0  0  0  0  0
    3.6655   54.6241   27.8130 H   0  0  0  0  0  0
    2.9508   54.1814   25.5955 H   0  0  0  0  0  0
    7.0761   53.8688   24.3344 H   0  0  0  0  0  0
    7.7462   54.3391   26.6407 H   0  0  0  0  0  0
    5.1074   52.7822   23.0564 H   0  0  0  0  0  0
    2.2397   55.1356   23.7811 H   0  0  0  0  0  0
   -0.0720   54.3058   23.8981 H   0  0  0  0  0  0
   -0.6256   52.0589   23.0429 H   0  0  0  0  0  0
    1.1414   50.6284   22.0723 H   0  0  0  0  0  0
    3.4750   51.3964   22.0820 H   0  0  0  0  0  0
    6.3153   55.7856   23.2564 H   0  0  0  0  0  0
    7.0956   54.5164   22.2673 H   0  0  0  0  0  0
    7.5008   56.8111   21.4867 H   0  0  0  0  0  0
    5.7865   57.0820   21.2797 H   0  0  0  0  0  0
    4.5548   55.6691   19.3990 H   0  0  0  0  0  0
    5.4194   54.3181   18.6796 H   0  0  0  0  0  0
    3.8908   53.6471   20.5508 H   0  0  0  0  0  0
    5.6018   53.1608   20.7387 H   0  0  0  0  0  0
    7.8187   56.2192   17.1654 H   0  0  0  0  0  0
    6.9238   54.7449   17.3929 H   0  0  0  0  0  0
   10.3763   56.1406   18.0183 H   0  0  0  0  0  0
   10.0338   56.1523   16.2892 H   0  0  0  0  0  0
   12.8248   56.3421   17.6484 H   0  0  0  0  0  0
   14.9571   55.2037   17.2206 H   0  0  0  0  0  0
   14.9680   52.9470   16.1982 H   0  0  0  0  0  0
   12.8465   51.8449   15.6329 H   0  0  0  0  0  0
   10.3719   52.2435   15.0299 H   0  0  0  0  0  0
   10.2396   51.9085   16.7350 H   0  0  0  0  0  0
    6.6608   51.5248   17.3591 H   0  0  0  0  0  0
    8.1640   52.0778   18.0411 H   0  0  0  0  0  0
    9.3618   53.9151   18.1248 H   0  0  0  0  0  0
  1  6  2  0  0  0
  1  2  1  0  0  0
  1 37  1  0  0  0
  2  3  2  0  0  0
  2 38  1  0  0  0
  3  4  1  0  0  0
  3 39  1  0  0  0
  4  5  2  0  0  0
  4  7  1  0  0  0
  5  6  1  0  0  0
  5 40  1  0  0  0
  6 41  1  0  0  0
  7  8  1  0  0  0
  7 14  1  0  0  0
  7 42  1  0  0  0
  8 13  2  0  0  0
  8  9  1  0  0  0
  9 10  2  0  0  0
  9 43  1  0  0  0
 10 11  1  0  0  0
 10 44  1  0  0  0
 11 12  2  0  0  0
 11 45  1  0  0  0
 12 13  1  0  0  0
 12 46  1  0  0  0
 13 47  1  0  0  0
 14 19  1  0  0  0
 14 15  1  0  0  0
 15 16  1  0  0  0
 15 48  1  0  0  0
 15 49  1  0  0  0
 16 17  1  0  0  0
 16 50  1  0  0  0
 16 51  1  0  0  0
 17 18  1  0  0  0
 17 20  1  0  0  0
 18 19  1  0  0  0
 18 52  1  0  0  0
 18 53  1  0  0  0
 19 54  1  0  0  0
 19 55  1  0  0  0
 20 21  2  0  0  0
 20 22  1  0  0  0
 22 23  1  0  0  0
 22 56  1  0  0  0
 22 57  1  0  0  0
 23 32  1  0  0  0
 23 24  1  0  0  0
 23 68  1  0  0  0
 24 25  1  0  0  0
 24 58  1  0  0  0
 24 59  1  0  0  0
 25 30  2  0  0  0
 25 26  1  0  0  0
 26 27  2  0  0  0
 26 60  1  0  0  0
 27 28  1  0  0  0
 27 61  1  0  0  0
 28 29  2  0  0  0
 28 62  1  0  0  0
 29 30  1  0  0  0
 29 63  1  0  0  0
 30 31  1  0  0  0
 31 32  1  0  0  0
 31 64  1  0  0  0
 31 65  1  0  0  0
 32 33  1  0  0  0
 32 34  1  0  0  0
 34 35  2  0  0  0
 34 36  1  0  0  0
 36 66  1  0  0  0
 36 67  1  0  0  0
M  CHG  1  23   1
M  END
> <i_i_glide_confnum>
187

> <i_i_glide_lignum>
771

> <i_i_glide_posenum>
383

> <i_i_glide_rotatable_bonds>
7

> <i_m_Source_File_Index>
729

> <b_m_subgroup_collapsed>
0

> <r_i_docking_score>
-4.98461

> <r_i_glide_ecoul>
-0.0221864

> <r_i_glide_eff_state_penalty>
0

> <r_i_glide_einternal>
13.8672

> <r_i_glide_emodel>
-42.7835

> <r_i_glide_energy>
-35.0918

> <r_i_glide_erotb>
0.54957

> <r_i_glide_esite>
-0.0527421

> <r_i_glide_evdw>
-35.0697

> <r_i_glide_gscore>
-4.98461

> <r_i_glide_hbond>
-0.16

> <r_i_glide_ligand_efficiency>
-0.142417

> <r_i_glide_ligand_efficiency_ln>
-1.09423

> <r_i_glide_ligand_efficiency_sa>
-0.465857

> <r_i_glide_lipo>
-3.01347

> <r_i_glide_metal>
0

> <r_i_glide_rewards>
-0.55116

> <s_i_glide_gridfile>
wee1_glide-grid

> <s_m_Source_File>
wee1_decoys_glide_SP.sdf

> <s_m_Source_Path>
/Users/zhangxujun/Desktop

> <s_m_entry_id>
1004

> <s_m_entry_name>
wee1_decoys_glide_SP.729

> <s_m_subgroup_title>
wee1_decoys_glide_SP

> <s_m_subgroupid>
wee1_decoys_glide_SP


$$$$
