ZINC09057655_3531
                    3D
 Schrodinger Suite 2024-2.
 59 62  0  0  1  0            999 V2000
    9.0389   55.3094   19.3549 C   0  0  0  0  0  0
    8.4490   56.5565   18.7057 C   0  0  0  0  0  0
    9.3348   57.4925   18.1613 C   0  0  0  0  0  0
    8.8542   58.6239   17.5043 C   0  0  0  0  0  0
    7.4820   58.8235   17.3765 C   0  0  0  0  0  0
    6.5850   57.9025   17.9136 C   0  0  0  0  0  0
    7.0575   56.7757   18.5902 C   0  0  0  0  0  0
    6.1053   55.8726   19.0837 N   0  0  0  0  0  0
    6.0021   55.4770   20.3663 C   0  0  0  0  0  0
    6.5637   56.0884   21.2782 O   0  0  0  0  0  0
    5.1926   54.2842   20.6086 C   0  0  0  0  0  0
    5.1812   53.1839   19.7892 C   0  0  0  0  0  0
    4.3782   52.1080   20.0848 N   0  0  0  0  0  0
    3.4376   52.0940   21.0850 C   0  0  0  0  0  0
    3.3149   53.1495   21.9196 C   0  0  0  0  0  0
    4.3456   54.2965   21.9232 C   0  0  1  0  0  0
    3.7605   55.2198   21.9451 H   0  0  0  0  0  0
    5.1533   54.2644   23.2246 C   0  0  0  0  0  0
    6.4934   54.0965   23.5614 C   0  0  0  0  0  0
    6.5989   54.2529   24.9436 C   0  0  0  0  0  0
    5.3186   54.4930   25.4044 C   0  0  0  0  0  0
    4.4466   54.4967   24.3657 O   0  0  0  0  0  0
    2.2766   53.1719   22.9011 C   0  0  0  0  0  0
    1.4296   53.2321   23.6883 N   0  0  0  0  0  0
    2.4414   50.6088   21.1108 S   0  0  0  0  0  0
    2.1576   50.2245   19.3489 C   0  0  0  0  0  0
    1.4668   48.8760   19.1196 C   0  0  0  0  0  0
    0.5405   48.5285   19.8517 O   0  0  0  0  0  0
    1.9415   48.1573   18.0818 N   0  0  0  0  0  0
    1.5531   46.8961   17.6000 C   0  0  0  0  0  0
    2.1934   46.4736   16.4306 C   0  0  0  0  0  0
    1.9010   45.2287   15.8741 C   0  0  0  0  0  0
    0.9716   44.3900   16.4877 C   0  0  0  0  0  0
    0.3323   44.7966   17.6591 C   0  0  0  0  0  0
    0.6161   46.0471   18.2135 C   0  0  0  0  0  0
   -0.7951   43.7443   18.4349 Cl  0  0  0  0  0  0
    5.9740   52.8969   18.5104 C   0  0  0  0  0  0
    9.9751   55.0254   18.8787 H   0  0  0  0  0  0
    9.2185   55.4803   20.4157 H   0  0  0  0  0  0
    8.3894   54.4446   19.2436 H   0  0  0  0  0  0
   10.4024   57.3379   18.2422 H   0  0  0  0  0  0
    9.5444   59.3394   17.0822 H   0  0  0  0  0  0
    7.1045   59.6992   16.8679 H   0  0  0  0  0  0
    5.5244   58.0781   17.8052 H   0  0  0  0  0  0
    5.4250   55.5228   18.4265 H   0  0  0  0  0  0
    4.4798   51.2981   19.4791 H   0  0  0  0  0  0
    7.3111   53.9143   22.8816 H   0  0  0  0  0  0
    7.4996   54.1934   25.5345 H   0  0  0  0  0  0
    4.8963   54.6674   26.3830 H   0  0  0  0  0  0
    3.1044   50.2331   18.8129 H   0  0  0  0  0  0
    1.5339   51.0063   18.9171 H   0  0  0  0  0  0
    2.7262   48.5665   17.5721 H   0  0  0  0  0  0
    2.9261   47.1088   15.9493 H   0  0  0  0  0  0
    2.4017   44.9110   14.9715 H   0  0  0  0  0  0
    0.7529   43.4237   16.0572 H   0  0  0  0  0  0
    0.1084   46.3252   19.1225 H   0  0  0  0  0  0
    6.7041   52.1132   18.6999 H   0  0  0  0  0  0
    5.3148   52.5030   17.7321 H   0  0  0  0  0  0
    6.5205   53.7244   18.0754 H   0  0  0  0  0  0
  1  2  1  0  0  0
  1 38  1  0  0  0
  1 39  1  0  0  0
  1 40  1  0  0  0
  2  7  2  0  0  0
  2  3  1  0  0  0
  3  4  2  0  0  0
  3 41  1  0  0  0
  4  5  1  0  0  0
  4 42  1  0  0  0
  5  6  2  0  0  0
  5 43  1  0  0  0
  6  7  1  0  0  0
  6 44  1  0  0  0
  7  8  1  0  0  0
  8  9  1  0  0  0
  8 45  1  0  0  0
  9 10  2  0  0  0
  9 11  1  0  0  0
 11 16  1  0  0  0
 11 12  2  0  0  0
 12 13  1  0  0  0
 12 37  1  0  0  0
 13 14  1  0  0  0
 13 46  1  0  0  0
 14 15  2  0  0  0
 14 25  1  0  0  0
 15 16  1  0  0  0
 15 23  1  0  0  0
 16 17  1  0  0  0
 16 18  1  0  0  0
 18 22  1  0  0  0
 18 19  2  0  0  0
 19 20  1  0  0  0
 19 47  1  0  0  0
 20 21  2  0  0  0
 20 48  1  0  0  0
 21 22  1  0  0  0
 21 49  1  0  0  0
 23 24  3  0  0  0
 25 26  1  0  0  0
 26 27  1  0  0  0
 26 50  1  0  0  0
 26 51  1  0  0  0
 27 28  2  0  0  0
 27 29  1  0  0  0
 29 30  1  0  0  0
 29 52  1  0  0  0
 30 35  2  0  0  0
 30 31  1  0  0  0
 31 32  2  0  0  0
 31 53  1  0  0  0
 32 33  1  0  0  0
 32 54  1  0  0  0
 33 34  2  0  0  0
 33 55  1  0  0  0
 34 35  1  0  0  0
 34 36  1  0  0  0
 35 56  1  0  0  0
 37 57  1  0  0  0
 37 58  1  0  0  0
 37 59  1  0  0  0
M  END
> <i_i_glide_confnum>
144

> <i_i_glide_lignum>
3532

> <i_i_glide_posenum>
253

> <i_i_glide_rotatable_bonds>
10

> <i_m_Source_File_Index>
4660

> <b_m_subgroup_collapsed>
0

> <r_i_docking_score>
-5.51116

> <r_i_glide_ecoul>
-10.207

> <r_i_glide_eff_state_penalty>
0

> <r_i_glide_einternal>
17.7363

> <r_i_glide_emodel>
-65.799

> <r_i_glide_energy>
-54.1697

> <r_i_glide_erotb>
0.610063

> <r_i_glide_esite>
-0.225224

> <r_i_glide_evdw>
-43.9628

> <r_i_glide_gscore>
-5.51116

> <r_i_glide_hbond>
-0.304

> <r_i_glide_ligand_efficiency>
-0.153088

> <r_i_glide_ligand_efficiency_ln>
-1.20239

> <r_i_glide_ligand_efficiency_sa>
-0.505485

> <r_i_glide_lipo>
-1.49618

> <r_i_glide_metal>
0

> <r_i_glide_rewards>
-0.366636

> <s_i_glide_gridfile>
wee1_glide-grid

> <s_m_Source_File>
wee1_decoys_glide_SP.sdf

> <s_m_Source_Path>
/Users/zhangxujun/Desktop

> <s_m_entry_id>
4935

> <s_m_entry_name>
wee1_decoys_glide_SP.4660

> <s_m_subgroup_title>
wee1_decoys_glide_SP

> <s_m_subgroupid>
wee1_decoys_glide_SP


$$$$
