ZINC14276967_5298
                    3D
 Schrodinger Suite 2024-2.
 56 59  0  0  1  0            999 V2000
   -0.6372   51.7040   29.4684 C   0  0  0  0  0  0
    0.0235   52.4171   30.4666 C   0  0  0  0  0  0
    1.3733   52.7169   30.3220 C   0  0  0  0  0  0
    2.0572   52.3286   29.1659 C   0  0  0  0  0  0
    1.3843   51.6134   28.1682 C   0  0  0  0  0  0
    0.0367   51.3008   28.3186 C   0  0  0  0  0  0
    3.5198   52.6637   29.0197 C   0  0  0  0  0  0
    4.3044   52.1788   29.8376 O   0  0  0  0  0  0
    3.8980   53.5051   28.0164 N   0  0  0  0  0  0
    2.9089   54.2948   27.2577 C   0  0  0  0  0  0
    3.5048   54.8394   25.9335 C   0  0  0  0  0  0
    4.6646   54.1376   25.4040 N   0  0  0  0  0  0
    5.7340   54.0238   26.4158 C   0  0  0  0  0  0
    5.3017   53.9275   27.9047 C   0  0  0  0  0  0
    4.8455   54.0967   24.0220 C   0  0  0  0  0  0
    3.8358   53.4949   23.2514 C   0  0  0  0  0  0
    3.9712   53.3172   21.8758 C   0  0  0  0  0  0
    5.1043   53.7940   21.2243 C   0  0  0  0  0  0
    6.0660   54.4969   21.9616 C   0  0  0  0  0  0
    5.9358   54.6722   23.3396 C   0  0  0  0  0  0
    7.1044   55.6868   24.1140 Cl  0  0  0  0  0  0
    5.2912   53.4566   19.8685 N   0  0  0  0  0  0
    5.7527   54.1887   18.8097 C   0  0  0  0  0  0
    5.9084   55.8693   18.8384 S   0  0  0  0  0  0
    6.0619   53.3707   17.7491 N   0  0  0  0  0  0
    6.9046   53.5536   16.6978 C   0  0  0  0  0  0
    7.8243   54.3762   16.6759 O   0  0  0  0  0  0
    6.7222   52.6129   15.5288 C   0  0  0  0  0  0
    5.4520   52.1380   15.1666 C   0  0  0  0  0  0
    5.3057   51.2821   14.0776 C   0  0  0  0  0  0
    6.4235   50.8974   13.3408 C   0  0  0  0  0  0
    7.6886   51.3680   13.6832 C   0  0  0  0  0  0
    7.8368   52.2254   14.7705 C   0  0  0  0  0  0
    6.2430   49.8213   12.0031 Cl  0  0  0  0  0  0
   -1.6757   51.4342   29.5981 H   0  0  0  0  0  0
   -0.4960   52.7071   31.3668 H   0  0  0  0  0  0
    1.8782   53.2491   31.1134 H   0  0  0  0  0  0
    1.9044   51.2857   27.2818 H   0  0  0  0  0  0
   -0.4810   50.7243   27.5645 H   0  0  0  0  0  0
    2.4862   55.1243   27.8259 H   0  0  0  0  0  0
    2.1449   53.6097   26.8957 H   0  0  0  0  0  0
    3.8634   55.8533   26.0817 H   0  0  0  0  0  0
    2.7157   54.8967   25.1826 H   0  0  0  0  0  0
    6.2662   53.1032   26.1804 H   0  0  0  0  0  0
    6.4136   54.8702   26.3746 H   0  0  0  0  0  0
    6.0159   53.3687   28.5128 H   0  0  0  0  0  0
    5.2915   54.9472   28.2935 H   0  0  0  0  0  0
    2.9637   53.0824   23.7381 H   0  0  0  0  0  0
    3.2066   52.7839   21.3289 H   0  0  0  0  0  0
    6.9410   54.8967   21.4696 H   0  0  0  0  0  0
    5.0172   52.5094   19.6465 H   0  0  0  0  0  0
    5.5051   52.5291   17.6822 H   0  0  0  0  0  0
    4.5685   52.4153   15.7251 H   0  0  0  0  0  0
    4.3265   50.9068   13.8188 H   0  0  0  0  0  0
    8.5551   51.0669   13.1113 H   0  0  0  0  0  0
    8.8271   52.5809   15.0224 H   0  0  0  0  0  0
  1  6  2  0  0  0
  1  2  1  0  0  0
  1 35  1  0  0  0
  2  3  2  0  0  0
  2 36  1  0  0  0
  3  4  1  0  0  0
  3 37  1  0  0  0
  4  5  2  0  0  0
  4  7  1  0  0  0
  5  6  1  0  0  0
  5 38  1  0  0  0
  6 39  1  0  0  0
  7  8  2  0  0  0
  7  9  1  0  0  0
  9 14  1  0  0  0
  9 10  1  0  0  0
 10 11  1  0  0  0
 10 40  1  0  0  0
 10 41  1  0  0  0
 11 12  1  0  0  0
 11 42  1  0  0  0
 11 43  1  0  0  0
 12 13  1  0  0  0
 12 15  1  0  0  0
 13 14  1  0  0  0
 13 44  1  0  0  0
 13 45  1  0  0  0
 14 46  1  0  0  0
 14 47  1  0  0  0
 15 20  2  0  0  0
 15 16  1  0  0  0
 16 17  2  0  0  0
 16 48  1  0  0  0
 17 18  1  0  0  0
 17 49  1  0  0  0
 18 19  2  0  0  0
 18 22  1  0  0  0
 19 20  1  0  0  0
 19 50  1  0  0  0
 20 21  1  0  0  0
 22 23  1  0  0  0
 22 51  1  0  0  0
 23 24  2  0  0  0
 23 25  1  0  0  0
 25 26  1  0  0  0
 25 52  1  0  0  0
 26 27  2  0  0  0
 26 28  1  0  0  0
 28 33  2  0  0  0
 28 29  1  0  0  0
 29 30  2  0  0  0
 29 53  1  0  0  0
 30 31  1  0  0  0
 30 54  1  0  0  0
 31 32  2  0  0  0
 31 34  1  0  0  0
 32 33  1  0  0  0
 32 55  1  0  0  0
 33 56  1  0  0  0
M  END
> <i_i_glide_confnum>
432

> <i_i_glide_lignum>
5299

> <i_i_glide_posenum>
315

> <i_i_glide_rotatable_bonds>
8

> <i_m_Source_File_Index>
342

> <b_m_subgroup_collapsed>
0

> <r_i_docking_score>
-5.6372

> <r_i_glide_ecoul>
-4.36994

> <r_i_glide_eff_state_penalty>
0

> <r_i_glide_einternal>
5.68617

> <r_i_glide_emodel>
-60.2841

> <r_i_glide_energy>
-47.3376

> <r_i_glide_erotb>
0.544507

> <r_i_glide_esite>
-0.126282

> <r_i_glide_evdw>
-42.9677

> <r_i_glide_gscore>
-5.6372

> <r_i_glide_hbond>
-0.0855104

> <r_i_glide_ligand_efficiency>
-0.1658

> <r_i_glide_ligand_efficiency_ln>
-1.24542

> <r_i_glide_ligand_efficiency_sa>
-0.537128

> <r_i_glide_lipo>
-2.45761

> <r_i_glide_metal>
0

> <r_i_glide_rewards>
-0.708427

> <s_i_glide_gridfile>
wee1_glide-grid

> <s_m_Source_File>
wee1_decoys_glide_SP.sdf

> <s_m_Source_Path>
/Users/zhangxujun/Desktop

> <s_m_entry_id>
617

> <s_m_entry_name>
wee1_decoys_glide_SP.342

> <s_m_subgroup_title>
wee1_decoys_glide_SP

> <s_m_subgroupid>
wee1_decoys_glide_SP


$$$$
