ZINC23191775_215
                    3D
 Schrodinger Suite 2024-2.
 60 64  0  0  1  0            999 V2000
    2.4328   53.1226   28.9295 C   0  0  0  0  0  0
    3.5022   53.6382   27.9962 C   0  0  0  0  0  0
    4.7491   54.1794   28.3006 C   0  0  0  0  0  0
    5.3578   54.4945   27.1004 C   0  0  0  0  0  0
    4.4405   54.1061   26.1348 N   0  0  0  0  0  0
    3.3198   53.6127   26.6975 N   0  0  0  0  0  0
    4.5472   54.1757   24.7169 C   0  0  0  0  0  0
    3.4060   54.3184   23.9138 C   0  0  0  0  0  0
    3.5289   54.3806   22.5252 C   0  0  0  0  0  0
    4.7894   54.3307   21.9178 C   0  0  0  0  0  0
    5.9166   54.1740   22.7240 C   0  0  0  0  0  0
    5.7995   54.0820   24.1003 C   0  0  0  0  0  0
    4.9608   54.4114   20.5408 N   0  0  0  0  0  0
    3.9090   54.1446   19.5505 C   0  0  0  0  0  0
    4.5010   53.3303   18.3831 C   0  0  0  0  0  0
    5.7193   53.9981   17.7030 C   0  0  0  0  0  0
    6.6900   54.5312   18.7834 C   0  0  0  0  0  0
    5.9839   55.2764   19.9334 C   0  0  0  0  0  0
    6.4172   52.8971   16.8791 N   0  3  0  0  0  0
    7.6123   53.3523   16.0189 C   0  0  0  0  0  0
    8.2522   52.1359   15.3899 C   0  0  0  0  0  0
    9.3832   51.4214   15.8112 C   0  0  0  0  0  0
    9.6077   50.4324   14.8686 C   0  0  0  0  0  0
    8.5867   50.6121   13.9757 N   0  0  0  0  0  0
    8.4586   50.0533   13.1445 H   0  0  0  0  0  0
    7.7654   51.6238   14.2800 N   0  0  0  0  0  0
   10.6778   49.3766   14.6869 C   0  0  0  0  0  0
   12.0976   49.8097   14.4256 C   0  0  0  0  0  0
   11.7362   49.1478   15.7414 C   0  0  0  0  0  0
    6.7047   55.1282   26.8285 C   0  0  0  0  0  0
    2.7430   53.1751   29.9717 H   0  0  0  0  0  0
    1.5092   53.6940   28.8404 H   0  0  0  0  0  0
    2.1869   52.0809   28.7229 H   0  0  0  0  0  0
    5.1658   54.3300   29.2851 H   0  0  0  0  0  0
    2.4219   54.3840   24.3548 H   0  0  0  0  0  0
    2.6359   54.4972   21.9326 H   0  0  0  0  0  0
    6.9023   54.1019   22.2942 H   0  0  0  0  0  0
    6.7014   53.8977   24.6591 H   0  0  0  0  0  0
    3.5037   55.0939   19.1965 H   0  0  0  0  0  0
    3.0938   53.5695   19.9861 H   0  0  0  0  0  0
    3.7475   53.0481   17.6459 H   0  0  0  0  0  0
    4.7956   52.3825   18.8331 H   0  0  0  0  0  0
    5.3309   54.8047   17.0789 H   0  0  0  0  0  0
    7.2345   53.6995   19.2325 H   0  0  0  0  0  0
    7.4717   55.1466   18.3389 H   0  0  0  0  0  0
    5.5075   56.1883   19.5696 H   0  0  0  0  0  0
    6.7316   55.5928   20.6612 H   0  0  0  0  0  0
    5.7294   52.4218   16.3094 H   0  0  0  0  0  0
    8.3011   53.8751   16.6834 H   0  0  0  0  0  0
    7.2014   54.0623   15.2995 H   0  0  0  0  0  0
    9.9861   51.6198   16.6866 H   0  0  0  0  0  0
   10.3403   48.4986   14.1344 H   0  0  0  0  0  0
   12.3231   50.8767   14.4062 H   0  0  0  0  0  0
   12.6750   49.2569   13.6821 H   0  0  0  0  0  0
   12.0896   48.1336   15.9252 H   0  0  0  0  0  0
   11.7109   49.7476   16.6525 H   0  0  0  0  0  0
    7.0414   55.6957   27.6816 H   0  0  0  0  0  0
    7.4783   54.3828   26.6451 H   0  0  0  0  0  0
    6.6858   55.8307   25.9945 H   0  0  0  0  0  0
    6.7289   52.1827   17.5274 H   0  0  0  0  0  0
  1  2  1  0  0  0
  1 31  1  0  0  0
  1 32  1  0  0  0
  1 33  1  0  0  0
  2  6  2  0  0  0
  2  3  1  0  0  0
  3  4  2  0  0  0
  3 34  1  0  0  0
  4  5  1  0  0  0
  4 30  1  0  0  0
  5  6  1  0  0  0
  5  7  1  0  0  0
  7 12  2  0  0  0
  7  8  1  0  0  0
  8  9  2  0  0  0
  8 35  1  0  0  0
  9 10  1  0  0  0
  9 36  1  0  0  0
 10 11  2  0  0  0
 10 13  1  0  0  0
 11 12  1  0  0  0
 11 37  1  0  0  0
 12 38  1  0  0  0
 13 18  1  0  0  0
 13 14  1  0  0  0
 14 15  1  0  0  0
 14 39  1  0  0  0
 14 40  1  0  0  0
 15 16  1  0  0  0
 15 41  1  0  0  0
 15 42  1  0  0  0
 16 17  1  0  0  0
 16 19  1  0  0  0
 16 43  1  0  0  0
 17 18  1  0  0  0
 17 44  1  0  0  0
 17 45  1  0  0  0
 18 46  1  0  0  0
 18 47  1  0  0  0
 19 20  1  0  0  0
 19 48  1  0  0  0
 19 60  1  0  0  0
 20 21  1  0  0  0
 20 49  1  0  0  0
 20 50  1  0  0  0
 21 26  2  0  0  0
 21 22  1  0  0  0
 22 23  2  0  0  0
 22 51  1  0  0  0
 23 24  1  0  0  0
 23 27  1  0  0  0
 24 25  1  0  0  0
 24 26  1  0  0  0
 27 29  1  0  0  0
 27 28  1  0  0  0
 27 52  1  0  0  0
 28 29  1  0  0  0
 28 53  1  0  0  0
 28 54  1  0  0  0
 29 55  1  0  0  0
 29 56  1  0  0  0
 30 57  1  0  0  0
 30 58  1  0  0  0
 30 59  1  0  0  0
M  CHG  1  19   1
M  END
> <i_i_glide_confnum>
114

> <i_i_glide_lignum>
216

> <i_i_glide_posenum>
197

> <i_i_glide_rotatable_bonds>
6

> <i_m_Source_File_Index>
3984

> <b_m_subgroup_collapsed>
0

> <r_i_docking_score>
-5.53592

> <r_i_glide_ecoul>
-3.34294

> <r_i_glide_eff_state_penalty>
0

> <r_i_glide_einternal>
3.14486

> <r_i_glide_emodel>
-54.9362

> <r_i_glide_energy>
-39.2462

> <r_i_glide_erotb>
0.763831

> <r_i_glide_esite>
-0.0586256

> <r_i_glide_evdw>
-35.9033

> <r_i_glide_gscore>
-5.53592

> <r_i_glide_hbond>
-0.033492

> <r_i_glide_ligand_efficiency>
-0.190894

> <r_i_glide_ligand_efficiency_ln>
-1.26758

> <r_i_glide_ligand_efficiency_sa>
-0.586486

> <r_i_glide_lipo>
-2.79082

> <r_i_glide_metal>
0

> <r_i_glide_rewards>
-1.1202

> <s_i_glide_gridfile>
wee1_glide-grid

> <s_m_Source_File>
wee1_decoys_glide_SP.sdf

> <s_m_Source_Path>
/Users/zhangxujun/Desktop

> <s_m_entry_id>
4259

> <s_m_entry_name>
wee1_decoys_glide_SP.3984

> <s_m_subgroup_title>
wee1_decoys_glide_SP

> <s_m_subgroupid>
wee1_decoys_glide_SP


$$$$
