ZINC13356065_4323
                    3D
 Schrodinger Suite 2024-2.
 47 50  0  0  1  0            999 V2000
   -0.1480   50.6286   25.1102 C   0  0  0  0  0  0
    0.1474   51.9225   24.6873 C   0  0  0  0  0  0
    0.7560   52.8123   25.5684 C   0  0  0  0  0  0
    1.0768   52.4075   26.8670 C   0  0  0  0  0  0
    0.7634   51.1138   27.2850 C   0  0  0  0  0  0
    0.1529   50.2227   26.4075 C   0  0  0  0  0  0
    1.9027   53.5196   28.0151 S   0  0  0  0  0  0
    1.6636   53.0039   29.3692 O   0  0  0  0  0  0
    1.5355   54.8964   27.6820 O   0  0  0  0  0  0
    3.6638   53.3942   27.7494 N   0  0  0  0  0  0
    4.5063   53.6148   28.9200 C   0  0  0  0  0  0
    5.9273   53.7370   28.3972 C   0  0  0  0  0  0
    5.7111   54.0951   26.9667 C   0  0  0  0  0  0
    4.3881   53.8388   26.6225 C   0  0  0  0  0  0
    4.0168   53.9240   25.2756 C   0  0  0  0  0  0
    4.9567   54.2356   24.2834 C   0  0  0  0  0  0
    6.2790   54.5198   24.6649 C   0  0  0  0  0  0
    6.6501   54.4381   26.0031 C   0  0  0  0  0  0
    4.5093   54.1522   22.9477 N   0  0  0  0  0  0
    5.1746   54.4152   21.8037 C   0  0  0  0  0  0
    6.2955   54.9182   21.7398 O   0  0  0  0  0  0
    4.4445   54.0202   20.7422 N   0  0  0  0  0  0
    4.8140   53.9167   19.3863 C   0  0  0  0  0  0
    3.8088   53.4857   18.5167 C   0  0  0  0  0  0
    4.0805   53.2981   17.1643 C   0  0  0  0  0  0
    5.3610   53.5432   16.6765 C   0  0  0  0  0  0
    6.3692   53.9847   17.5285 C   0  0  0  0  0  0
    6.1005   54.1723   18.8818 C   0  0  0  0  0  0
    5.7395   53.2592   14.8334 Br  0  0  0  0  0  0
   -0.6234   49.9350   24.4321 H   0  0  0  0  0  0
   -0.0998   52.2346   23.6834 H   0  0  0  0  0  0
    0.9629   53.8189   25.2403 H   0  0  0  0  0  0
    0.9900   50.8005   28.2927 H   0  0  0  0  0  0
   -0.0934   49.2224   26.7373 H   0  0  0  0  0  0
    4.2079   54.5580   29.3819 H   0  0  0  0  0  0
    4.3679   52.8465   29.6814 H   0  0  0  0  0  0
    6.4627   52.7942   28.4815 H   0  0  0  0  0  0
    6.4873   54.4966   28.9399 H   0  0  0  0  0  0
    3.0241   53.6699   24.9675 H   0  0  0  0  0  0
    7.0536   54.7429   23.9486 H   0  0  0  0  0  0
    7.6789   54.5657   26.2847 H   0  0  0  0  0  0
    3.5637   53.8204   22.8448 H   0  0  0  0  0  0
    3.4945   53.7376   20.9256 H   0  0  0  0  0  0
    2.8130   53.2794   18.8829 H   0  0  0  0  0  0
    3.3063   52.9465   16.4992 H   0  0  0  0  0  0
    7.3610   54.1689   17.1432 H   0  0  0  0  0  0
    6.9128   54.4980   19.5106 H   0  0  0  0  0  0
  1  6  2  0  0  0
  1  2  1  0  0  0
  1 30  1  0  0  0
  2  3  2  0  0  0
  2 31  1  0  0  0
  3  4  1  0  0  0
  3 32  1  0  0  0
  4  5  2  0  0  0
  4  7  1  0  0  0
  5  6  1  0  0  0
  5 33  1  0  0  0
  6 34  1  0  0  0
  7  8  2  0  0  0
  7  9  2  0  0  0
  7 10  1  0  0  0
 10 14  1  0  0  0
 10 11  1  0  0  0
 11 12  1  0  0  0
 11 35  1  0  0  0
 11 36  1  0  0  0
 12 13  1  0  0  0
 12 37  1  0  0  0
 12 38  1  0  0  0
 13 18  2  0  0  0
 13 14  1  0  0  0
 14 15  2  0  0  0
 15 16  1  0  0  0
 15 39  1  0  0  0
 16 17  2  0  0  0
 16 19  1  0  0  0
 17 18  1  0  0  0
 17 40  1  0  0  0
 18 41  1  0  0  0
 19 20  1  0  0  0
 19 42  1  0  0  0
 20 21  2  0  0  0
 20 22  1  0  0  0
 22 23  1  0  0  0
 22 43  1  0  0  0
 23 28  2  0  0  0
 23 24  1  0  0  0
 24 25  2  0  0  0
 24 44  1  0  0  0
 25 26  1  0  0  0
 25 45  1  0  0  0
 26 27  2  0  0  0
 26 29  1  0  0  0
 27 28  1  0  0  0
 27 46  1  0  0  0
 28 47  1  0  0  0
M  END
> <i_i_glide_confnum>
5

> <i_i_glide_lignum>
4324

> <i_i_glide_posenum>
221

> <i_i_glide_rotatable_bonds>
6

> <i_m_Source_File_Index>
4046

> <b_m_subgroup_collapsed>
0

> <r_i_docking_score>
-4.51054

> <r_i_glide_ecoul>
-2.42652

> <r_i_glide_eff_state_penalty>
0

> <r_i_glide_einternal>
3.49906

> <r_i_glide_emodel>
-52.7502

> <r_i_glide_energy>
-42.173

> <r_i_glide_erotb>
0.453107

> <r_i_glide_esite>
0

> <r_i_glide_evdw>
-39.7465

> <r_i_glide_gscore>
-4.51054

> <r_i_glide_hbond>
0

> <r_i_glide_ligand_efficiency>
-0.155536

> <r_i_glide_ligand_efficiency_ln>
-1.0328

> <r_i_glide_ligand_efficiency_sa>
-0.477855

> <r_i_glide_lipo>
-2.46961

> <r_i_glide_metal>
0

> <r_i_glide_rewards>
-0.142729

> <s_i_glide_gridfile>
wee1_glide-grid

> <s_m_Source_File>
wee1_decoys_glide_SP.sdf

> <s_m_Source_Path>
/Users/zhangxujun/Desktop

> <s_m_entry_id>
4321

> <s_m_entry_name>
wee1_decoys_glide_SP.4046

> <s_m_subgroup_title>
wee1_decoys_glide_SP

> <s_m_subgroupid>
wee1_decoys_glide_SP


$$$$
