ZINC32520428_3052
                    3D
 Schrodinger Suite 2024-2.
 66 70  0  0  1  0            999 V2000
    0.6167   54.2992   30.6949 C   0  0  0  0  0  0
    1.1798   54.8971   29.5697 C   0  0  0  0  0  0
    1.4559   54.1255   28.4437 C   0  0  0  0  0  0
    1.1660   52.7586   28.4466 C   0  0  0  0  0  0
    0.6060   52.1655   29.5808 C   0  0  0  0  0  0
    0.3320   52.9358   30.7081 C   0  0  0  0  0  0
    1.5048   51.9110   27.2297 C   0  0  0  0  0  0
    0.3008   51.6893   26.2821 N   0  3  2  0  0  0
   -0.6978   50.6438   26.8101 C   0  0  0  0  0  0
   -1.5480   50.2351   25.6049 C   0  0  1  0  0  0
   -2.4536   50.8437   25.6743 H   0  0  0  0  0  0
   -0.7639   50.6696   24.3488 C   0  0  0  0  0  0
    0.5966   51.2205   24.8321 C   0  0  1  0  0  0
    1.3437   50.4279   24.8833 H   0  0  0  0  0  0
    1.1646   52.4031   23.9969 C   0  0  0  0  0  0
    1.2948   53.5248   24.4922 O   0  0  0  0  0  0
    1.5807   52.1189   22.7485 N   0  0  0  0  0  0
    2.3692   53.0269   21.9001 C   0  0  0  0  0  0
    3.8895   52.8777   22.1535 C   0  0  0  0  0  0
    4.7974   53.9353   21.5299 C   0  0  0  0  0  0
    5.8375   54.4960   22.3036 C   0  0  0  0  0  0
    6.7045   55.4573   21.7665 C   0  0  0  0  0  0
    6.4906   55.8491   20.4511 C   0  0  0  0  0  0
    5.5035   55.2970   19.6869 C   0  0  0  0  0  0
    4.6412   54.3258   20.1879 C   0  0  0  0  0  0
    5.5361   55.8455   18.4453 O   0  0  0  0  0  0
    6.4526   56.9056   18.5173 C   0  0  0  0  0  0
    7.1682   56.7694   19.7165 O   0  0  0  0  0  0
   -1.8796   48.8129   25.6816 N   0  0  0  0  0  0
   -3.1226   48.5270   24.9695 C   0  0  0  0  0  0
   -3.7237   47.1508   25.2486 C   0  0  0  0  0  0
   -3.5542   46.4993   26.4787 C   0  0  0  0  0  0
   -4.2096   45.2967   26.7258 C   0  0  0  0  0  0
   -5.0154   44.7287   25.7430 C   0  0  0  0  0  0
   -5.1771   45.3599   24.5122 C   0  0  0  0  0  0
   -4.5354   46.5713   24.2680 C   0  0  0  0  0  0
   -5.7988   43.2211   26.0447 Cl  0  0  0  0  0  0
    0.4033   54.8939   31.5719 H   0  0  0  0  0  0
    1.4029   55.9538   29.5699 H   0  0  0  0  0  0
    1.8967   54.5894   27.5733 H   0  0  0  0  0  0
    0.3757   51.1108   29.5906 H   0  0  0  0  0  0
   -0.0960   52.4777   31.5894 H   0  0  0  0  0  0
    1.8661   50.9226   27.5222 H   0  0  0  0  0  0
    2.2785   52.3931   26.6293 H   0  0  0  0  0  0
   -1.2553   51.0781   27.6417 H   0  0  0  0  0  0
   -0.0966   49.8161   27.1965 H   0  0  0  0  0  0
   -1.3253   51.4707   23.8644 H   0  0  0  0  0  0
   -0.6349   49.8661   23.6228 H   0  0  0  0  0  0
    1.4089   51.1971   22.3744 H   0  0  0  0  0  0
    2.0830   54.0661   22.0832 H   0  0  0  0  0  0
    2.1366   52.8957   20.8423 H   0  0  0  0  0  0
    4.2261   51.8965   21.8177 H   0  0  0  0  0  0
    4.0478   52.8967   23.2320 H   0  0  0  0  0  0
    5.9812   54.1847   23.3287 H   0  0  0  0  0  0
    7.5018   55.8742   22.3648 H   0  0  0  0  0  0
    3.8673   53.8992   19.5657 H   0  0  0  0  0  0
    7.1321   56.8776   17.6649 H   0  0  0  0  0  0
    5.9062   57.8518   18.5231 H   0  0  0  0  0  0
   -1.9303   48.5217   26.6676 H   0  0  0  0  0  0
   -3.8855   49.2326   25.3013 H   0  0  0  0  0  0
   -3.0144   48.6813   23.8940 H   0  0  0  0  0  0
   -2.9426   46.9243   27.2622 H   0  0  0  0  0  0
   -4.0982   44.8068   27.6818 H   0  0  0  0  0  0
   -5.8071   44.9190   23.7527 H   0  0  0  0  0  0
   -4.6873   47.0684   23.3208 H   0  0  0  0  0  0
   -0.1855   52.5746   26.2135 H   0  0  0  0  0  0
  1  6  2  0  0  0
  1  2  1  0  0  0
  1 38  1  0  0  0
  2  3  2  0  0  0
  2 39  1  0  0  0
  3  4  1  0  0  0
  3 40  1  0  0  0
  4  5  2  0  0  0
  4  7  1  0  0  0
  5  6  1  0  0  0
  5 41  1  0  0  0
  6 42  1  0  0  0
  7  8  1  0  0  0
  7 43  1  0  0  0
  7 44  1  0  0  0
  8 13  1  0  0  0
  8  9  1  0  0  0
  8 66  1  0  0  0
  9 10  1  0  0  0
  9 45  1  0  0  0
  9 46  1  0  0  0
 10 11  1  0  0  0
 10 12  1  0  0  0
 10 29  1  0  0  0
 12 13  1  0  0  0
 12 47  1  0  0  0
 12 48  1  0  0  0
 13 14  1  0  0  0
 13 15  1  0  0  0
 15 16  2  0  0  0
 15 17  1  0  0  0
 17 18  1  0  0  0
 17 49  1  0  0  0
 18 19  1  0  0  0
 18 50  1  0  0  0
 18 51  1  0  0  0
 19 20  1  0  0  0
 19 52  1  0  0  0
 19 53  1  0  0  0
 20 25  2  0  0  0
 20 21  1  0  0  0
 21 22  2  0  0  0
 21 54  1  0  0  0
 22 23  1  0  0  0
 22 55  1  0  0  0
 23 28  1  0  0  0
 23 24  2  0  0  0
 24 25  1  0  0  0
 24 26  1  0  0  0
 25 56  1  0  0  0
 26 27  1  0  0  0
 27 28  1  0  0  0
 27 57  1  0  0  0
 27 58  1  0  0  0
 29 30  1  0  0  0
 29 59  1  0  0  0
 30 31  1  0  0  0
 30 60  1  0  0  0
 30 61  1  0  0  0
 31 36  2  0  0  0
 31 32  1  0  0  0
 32 33  2  0  0  0
 32 62  1  0  0  0
 33 34  1  0  0  0
 33 63  1  0  0  0
 34 35  2  0  0  0
 34 37  1  0  0  0
 35 36  1  0  0  0
 35 64  1  0  0  0
 36 65  1  0  0  0
M  CHG  1   8   1
M  END
> <i_i_glide_confnum>
208

> <i_i_glide_lignum>
3053

> <i_i_glide_posenum>
349

> <i_i_glide_rotatable_bonds>
10

> <i_m_Source_File_Index>
5409

> <b_m_subgroup_collapsed>
0

> <r_i_docking_score>
-5.3941

> <r_i_glide_ecoul>
-9.92332

> <r_i_glide_eff_state_penalty>
0

> <r_i_glide_einternal>
9.5546

> <r_i_glide_emodel>
-63.1047

> <r_i_glide_energy>
-49.2709

> <r_i_glide_erotb>
0.754189

> <r_i_glide_esite>
0

> <r_i_glide_evdw>
-39.3476

> <r_i_glide_gscore>
-5.3941

> <r_i_glide_hbond>
-0.340094

> <r_i_glide_ligand_efficiency>
-0.154117

> <r_i_glide_ligand_efficiency_ln>
-1.18412

> <r_i_glide_ligand_efficiency_sa>
-0.504127

> <r_i_glide_lipo>
-2.05076

> <r_i_glide_metal>
0

> <r_i_glide_rewards>
-0.301556

> <s_i_glide_gridfile>
wee1_glide-grid

> <s_m_Source_File>
wee1_decoys_glide_SP.sdf

> <s_m_Source_Path>
/Users/zhangxujun/Desktop

> <s_m_entry_id>
5684

> <s_m_entry_name>
wee1_decoys_glide_SP.5409

> <s_m_subgroup_title>
wee1_decoys_glide_SP

> <s_m_subgroupid>
wee1_decoys_glide_SP


$$$$
