ZINC35754417_5306
                    3D
 Schrodinger Suite 2024-2.
 59 63  0  0  1  0            999 V2000
    6.1082   54.6133   17.8006 C   0  0  0  0  0  0
    6.7129   55.0988   18.9588 C   0  0  0  0  0  0
    6.0291   55.0398   20.1713 C   0  0  0  0  0  0
    4.7400   54.4970   20.2230 C   0  0  0  0  0  0
    4.1350   54.0323   19.0508 C   0  0  0  0  0  0
    4.8209   54.0832   17.8416 C   0  0  0  0  0  0
    4.0230   54.4174   21.5692 C   0  0  0  0  0  0
    3.2112   53.2170   21.8191 N   0  0  0  0  0  0
    2.0204   53.1982   22.6691 C   0  0  1  0  0  0
    1.2868   53.9250   22.3242 H   0  0  0  0  0  0
    1.5100   51.7696   22.4177 C   0  0  1  0  0  0
    0.8897   51.7910   21.5188 H   0  0  0  0  0  0
    2.7048   51.0935   22.0723 O   0  0  0  0  0  0
    3.6554   51.9146   21.5850 C   0  0  0  0  0  0
    4.7037   51.4984   21.0963 O   0  0  0  0  0  0
    0.6651   51.0375   23.4709 C   0  0  0  0  0  0
    1.1009   49.8353   24.0445 C   0  0  0  0  0  0
    0.3449   49.2086   25.0323 C   0  0  0  0  0  0
   -0.8542   49.7725   25.4561 C   0  0  0  0  0  0
   -1.3246   50.9529   24.8788 C   0  0  0  0  0  0
   -0.5622   51.5752   23.8738 C   0  0  0  0  0  0
   -2.5372   51.4401   25.3880 N   0  0  0  0  0  0
   -3.2920   52.4819   24.9791 C   0  0  0  0  0  0
   -3.0352   53.2215   24.0278 O   0  0  0  0  0  0
   -4.4776   52.6764   25.7803 C   0  0  0  0  0  0
   -5.0578   51.8384   26.7448 C   0  0  0  0  0  0
   -6.2390   52.3548   27.2855 C   0  0  0  0  0  0
   -6.5872   53.5808   26.7343 C   0  0  0  0  0  0
   -5.4526   54.0965   25.5333 S   0  0  0  0  0  0
    2.2812   53.5486   24.1642 C   0  0  0  0  0  0
    1.3041   53.7078   24.8856 O   0  0  0  0  0  0
    3.5586   53.6979   24.5858 N   0  0  0  0  0  0
    4.0753   53.9966   25.8618 C   0  0  0  0  0  0
    3.3036   54.1536   27.0235 C   0  0  0  0  0  0
    3.9279   54.4107   28.2439 C   0  0  0  0  0  0
    5.3165   54.4956   28.3097 C   0  0  0  0  0  0
    6.0904   54.3448   27.1602 C   0  0  0  0  0  0
    5.4688   54.0984   25.9403 C   0  0  0  0  0  0
    6.6420   54.6446   16.8630 H   0  0  0  0  0  0
    7.7111   55.5106   18.9159 H   0  0  0  0  0  0
    6.5056   55.4073   21.0693 H   0  0  0  0  0  0
    3.1366   53.6193   19.0785 H   0  0  0  0  0  0
    4.3579   53.7018   16.9424 H   0  0  0  0  0  0
    3.3872   55.2954   21.6810 H   0  0  0  0  0  0
    4.7753   54.4860   22.3534 H   0  0  0  0  0  0
    2.0352   49.3875   23.7441 H   0  0  0  0  0  0
    0.7013   48.2941   25.4844 H   0  0  0  0  0  0
   -1.4069   49.2845   26.2499 H   0  0  0  0  0  0
   -0.8744   52.5054   23.4276 H   0  0  0  0  0  0
   -2.8825   50.9237   26.1807 H   0  0  0  0  0  0
   -4.6488   50.8866   27.0512 H   0  0  0  0  0  0
   -6.8213   51.8524   28.0435 H   0  0  0  0  0  0
   -7.4460   54.1922   26.9680 H   0  0  0  0  0  0
    4.2628   53.5608   23.8795 H   0  0  0  0  0  0
    2.2276   54.0789   27.0159 H   0  0  0  0  0  0
    3.3356   54.5354   29.1374 H   0  0  0  0  0  0
    5.8023   54.6993   29.2534 H   0  0  0  0  0  0
    7.1659   54.4077   27.2233 H   0  0  0  0  0  0
    6.0800   53.9698   25.0585 H   0  0  0  0  0  0
  1  6  2  0  0  0
  1  2  1  0  0  0
  1 39  1  0  0  0
  2  3  2  0  0  0
  2 40  1  0  0  0
  3  4  1  0  0  0
  3 41  1  0  0  0
  4  5  2  0  0  0
  4  7  1  0  0  0
  5  6  1  0  0  0
  5 42  1  0  0  0
  6 43  1  0  0  0
  7  8  1  0  0  0
  7 44  1  0  0  0
  7 45  1  0  0  0
  8 14  1  0  0  0
  8  9  1  0  0  0
  9 10  1  0  0  0
  9 11  1  0  0  0
  9 30  1  0  0  0
 11 12  1  0  0  0
 11 13  1  0  0  0
 11 16  1  0  0  0
 13 14  1  0  0  0
 14 15  2  0  0  0
 16 21  2  0  0  0
 16 17  1  0  0  0
 17 18  2  0  0  0
 17 46  1  0  0  0
 18 19  1  0  0  0
 18 47  1  0  0  0
 19 20  2  0  0  0
 19 48  1  0  0  0
 20 21  1  0  0  0
 20 22  1  0  0  0
 21 49  1  0  0  0
 22 23  1  0  0  0
 22 50  1  0  0  0
 23 24  2  0  0  0
 23 25  1  0  0  0
 25 29  1  0  0  0
 25 26  2  0  0  0
 26 27  1  0  0  0
 26 51  1  0  0  0
 27 28  2  0  0  0
 27 52  1  0  0  0
 28 29  1  0  0  0
 28 53  1  0  0  0
 30 31  2  0  0  0
 30 32  1  0  0  0
 32 33  1  0  0  0
 32 54  1  0  0  0
 33 38  2  0  0  0
 33 34  1  0  0  0
 34 35  2  0  0  0
 34 55  1  0  0  0
 35 36  1  0  0  0
 35 56  1  0  0  0
 36 37  2  0  0  0
 36 57  1  0  0  0
 37 38  1  0  0  0
 37 58  1  0  0  0
 38 59  1  0  0  0
M  END
> <i_i_glide_confnum>
218

> <i_i_glide_lignum>
5307

> <i_i_glide_posenum>
318

> <i_i_glide_rotatable_bonds>
9

> <i_m_Source_File_Index>
3237

> <b_m_subgroup_collapsed>
0

> <r_i_docking_score>
-5.14516

> <r_i_glide_ecoul>
-5.23998

> <r_i_glide_eff_state_penalty>
0

> <r_i_glide_einternal>
7.42804

> <r_i_glide_emodel>
-65.367

> <r_i_glide_energy>
-52.2659

> <r_i_glide_erotb>
0.741604

> <r_i_glide_esite>
-0.0213509

> <r_i_glide_evdw>
-47.0259

> <r_i_glide_gscore>
-5.14516

> <r_i_glide_hbond>
0

> <r_i_glide_ligand_efficiency>
-0.142921

> <r_i_glide_ligand_efficiency_ln>
-1.12253

> <r_i_glide_ligand_efficiency_sa>
-0.471915

> <r_i_glide_lipo>
-2.13418

> <r_i_glide_metal>
0

> <r_i_glide_rewards>
-0.59394

> <s_i_glide_gridfile>
wee1_glide-grid

> <s_m_Source_File>
wee1_decoys_glide_SP.sdf

> <s_m_Source_Path>
/Users/zhangxujun/Desktop

> <s_m_entry_id>
3512

> <s_m_entry_name>
wee1_decoys_glide_SP.3237

> <s_m_subgroup_title>
wee1_decoys_glide_SP

> <s_m_subgroupid>
wee1_decoys_glide_SP


$$$$
