ZINC63835578_2176
                    3D
 Schrodinger Suite 2024-2.
 53 56  0  0  1  0            999 V2000
   -2.4273   52.3454   23.0374 C   0  0  0  0  0  0
   -2.0279   50.8710   23.2404 C   0  0  2  0  0  0
   -2.9366   50.2708   23.1470 H   0  0  0  0  0  0
   -1.3983   50.5101   24.5641 C   0  0  0  0  0  0
   -0.4926   49.5339   24.3552 C   0  0  0  0  0  0
   -0.3750   49.3453   22.9769 N   0  0  0  0  0  0
   -1.0359   50.4183   22.2845 N   0  0  0  0  0  0
   -1.6351   50.0537   21.0030 C   0  0  0  0  0  0
    0.3148   48.6248   25.2531 C   0  0  0  0  0  0
   -1.9474   51.2555   26.1245 S   0  0  0  0  0  0
   -3.1924   50.5859   26.5068 O   0  0  0  0  0  0
   -1.9488   52.7075   25.9314 O   0  0  0  0  0  0
   -0.7441   50.8970   27.3705 N   0  0  0  0  0  0
    0.6859   51.2967   27.2014 C   0  0  0  0  0  0
    0.9625   52.8177   27.3428 C   0  0  1  0  0  0
    0.1900   53.2962   26.7611 H   0  0  0  0  0  0
    0.8042   53.3983   28.7439 C   0  0  0  0  0  0
    1.1035   54.6977   29.1610 C   0  0  0  0  0  0
    0.8130   54.9600   30.4973 C   0  0  0  0  0  0
    0.3043   53.8559   31.1549 C   0  0  0  0  0  0
    0.1714   52.4970   30.1017 S   0  0  0  0  0  0
    2.2294   53.2377   26.6074 C   0  0  0  0  0  0
    2.4186   53.5048   25.3030 C   0  0  0  0  0  0
    1.4860   53.4286   24.1702 C   0  0  0  0  0  0
    1.9041   53.6953   22.9187 C   0  0  0  0  0  0
    3.2949   54.0756   22.7256 C   0  0  0  0  0  0
    4.1682   54.1571   23.7638 C   0  0  0  0  0  0
    3.7444   53.8750   25.0684 C   0  0  0  0  0  0
    4.4275   53.8734   26.1898 N   0  3  0  0  0  0
    3.5687   53.4259   27.2995 C   0  0  0  0  0  0
   -3.2266   52.6417   23.7174 H   0  0  0  0  0  0
   -1.5865   53.0239   23.1873 H   0  0  0  0  0  0
   -2.8042   52.5024   22.0298 H   0  0  0  0  0  0
    0.5339   49.2980   22.5435 H   0  0  0  0  0  0
   -2.1284   50.9067   20.5349 H   0  0  0  0  0  0
   -0.8631   49.7058   20.3163 H   0  0  0  0  0  0
   -2.3671   49.2494   21.1184 H   0  0  0  0  0  0
    1.3677   48.8961   25.2254 H   0  0  0  0  0  0
   -0.0257   48.6486   26.2837 H   0  0  0  0  0  0
    0.2215   47.5960   24.9068 H   0  0  0  0  0  0
   -0.8576   49.9198   27.6809 H   0  0  0  0  0  0
    1.0193   50.9558   26.2233 H   0  0  0  0  0  0
    1.2806   50.7620   27.9426 H   0  0  0  0  0  0
    1.4979   55.4527   28.4971 H   0  0  0  0  0  0
    0.9758   55.9229   30.9631 H   0  0  0  0  0  0
   -0.0055   53.7648   32.1888 H   0  0  0  0  0  0
    0.4536   53.1408   24.3122 H   0  0  0  0  0  0
    1.2272   53.6220   22.0810 H   0  0  0  0  0  0
    3.6372   54.3047   21.7256 H   0  0  0  0  0  0
    5.1894   54.4434   23.5579 H   0  0  0  0  0  0
    3.9841   52.4973   27.6952 H   0  0  0  0  0  0
    3.5827   54.1978   28.0686 H   0  0  0  0  0  0
    5.4154   54.0952   26.2836 H   0  0  0  0  0  0
  1  2  1  0  0  0
  1 31  1  0  0  0
  1 32  1  0  0  0
  1 33  1  0  0  0
  2  3  1  0  0  0
  2  7  1  0  0  0
  2  4  1  0  0  0
  4  5  2  0  0  0
  4 10  1  0  0  0
  5  6  1  0  0  0
  5  9  1  0  0  0
  6  7  1  0  0  0
  6 34  1  0  0  0
  7  8  1  0  0  0
  8 35  1  0  0  0
  8 36  1  0  0  0
  8 37  1  0  0  0
  9 38  1  0  0  0
  9 39  1  0  0  0
  9 40  1  0  0  0
 10 11  2  0  0  0
 10 12  2  0  0  0
 10 13  1  0  0  0
 13 14  1  0  0  0
 13 41  1  0  0  0
 14 15  1  0  0  0
 14 42  1  0  0  0
 14 43  1  0  0  0
 15 16  1  0  0  0
 15 17  1  0  0  0
 15 22  1  0  0  0
 17 21  1  0  0  0
 17 18  2  0  0  0
 18 19  1  0  0  0
 18 44  1  0  0  0
 19 20  2  0  0  0
 19 45  1  0  0  0
 20 21  1  0  0  0
 20 46  1  0  0  0
 22 30  1  0  0  0
 22 23  2  0  0  0
 23 28  1  0  0  0
 23 24  1  0  0  0
 24 25  2  0  0  0
 24 47  1  0  0  0
 25 26  1  0  0  0
 25 48  1  0  0  0
 26 27  2  0  0  0
 26 49  1  0  0  0
 27 28  1  0  0  0
 27 50  1  0  0  0
 28 29  2  0  0  0
 29 30  1  0  0  0
 29 53  1  0  0  0
 30 51  1  0  0  0
 30 52  1  0  0  0
M  CHG  1  29   1
M  END
> <i_i_glide_confnum>
99

> <i_i_glide_lignum>
2177

> <i_i_glide_posenum>
242

> <i_i_glide_rotatable_bonds>
6

> <i_m_Source_File_Index>
35

> <b_m_subgroup_collapsed>
0

> <r_i_docking_score>
-5.20039

> <r_i_glide_ecoul>
-3.98901

> <r_i_glide_eff_state_penalty>
0

> <r_i_glide_einternal>
4.48543

> <r_i_glide_emodel>
-53.9541

> <r_i_glide_energy>
-41.8679

> <r_i_glide_erotb>
0.680172

> <r_i_glide_esite>
-0.188685

> <r_i_glide_evdw>
-37.8789

> <r_i_glide_gscore>
-5.20039

> <r_i_glide_hbond>
-0.16

> <r_i_glide_ligand_efficiency>
-0.185728

> <r_i_glide_ligand_efficiency_ln>
-1.2004

> <r_i_glide_ligand_efficiency_sa>
-0.56398

> <r_i_glide_lipo>
-2.47756

> <r_i_glide_metal>
0

> <r_i_glide_rewards>
-0.562022

> <s_i_glide_gridfile>
wee1_glide-grid

> <s_m_Source_File>
wee1_decoys_glide_SP.sdf

> <s_m_Source_Path>
/Users/zhangxujun/Desktop

> <s_m_entry_id>
310

> <s_m_entry_name>
wee1_decoys_glide_SP.35

> <s_m_subgroup_title>
wee1_decoys_glide_SP

> <s_m_subgroupid>
wee1_decoys_glide_SP


$$$$
