ZINC09317617_8
                    3D
 Schrodinger Suite 2024-2.
 48 50  0  0  1  0            999 V2000
    4.0253   57.5811   16.7285 C   0  0  0  0  0  0
    5.4924   57.9960   16.6819 C   0  0  0  0  0  0
    5.9048   58.8788   15.6785 C   0  0  0  0  0  0
    7.2321   59.2944   15.5992 C   0  0  0  0  0  0
    8.1628   58.8325   16.5261 C   0  0  0  0  0  0
    7.7671   57.9500   17.5286 C   0  0  0  0  0  0
    6.4310   57.5213   17.6193 C   0  0  0  0  0  0
    5.9761   56.6953   18.6660 N   0  0  0  0  0  0
    6.6844   55.8481   19.4436 C   0  0  0  0  0  0
    7.8459   55.5068   19.2154 O   0  0  0  0  0  0
    5.9409   55.3206   20.6855 C   0  0  1  0  0  0
    5.2350   56.0963   20.9627 H   0  0  0  0  0  0
    5.2156   53.9778   20.4376 C   0  0  0  0  0  0
    4.5731   53.5251   21.7518 C   0  0  0  0  0  0
    4.9433   53.6968   22.9578 N   0  0  0  0  0  0
    6.0892   54.4188   23.2908 C   0  0  0  0  0  0
    6.5932   54.6093   24.4690 N   0  0  0  0  0  0
    6.0735   54.0990   25.5750 N   0  0  0  0  0  0
    4.9032   54.4661   25.9685 C   0  0  0  0  0  0
    4.2448   53.9337   27.1687 C   0  0  0  0  0  0
    2.8560   54.0449   27.2985 C   0  0  0  0  0  0
    2.1992   53.5388   28.4186 C   0  0  0  0  0  0
    2.9245   52.8940   29.4296 C   0  0  0  0  0  0
    4.3039   52.7669   29.2924 C   0  0  0  0  0  0
    4.9641   53.2910   28.1835 C   0  0  0  0  0  0
    2.3691   52.3596   30.5771 O   0  0  0  0  0  0
    0.9684   52.4956   30.8022 C   0  0  0  0  0  0
    7.1044   55.2971   22.0833 S   0  0  0  0  0  0
    3.3923   52.8564   21.5751 O   0  0  0  0  0  0
    9.8018   59.3699   16.4481 Cl  0  0  0  0  0  0
    3.9337   56.4996   16.6223 H   0  0  0  0  0  0
    3.5783   57.8581   17.6817 H   0  0  0  0  0  0
    3.4378   58.0524   15.9387 H   0  0  0  0  0  0
    5.1905   59.2688   14.9674 H   0  0  0  0  0  0
    7.5313   59.9909   14.8308 H   0  0  0  0  0  0
    8.5082   57.6318   18.2462 H   0  0  0  0  0  0
    4.9840   56.7474   18.8295 H   0  0  0  0  0  0
    4.4548   54.1032   19.6649 H   0  0  0  0  0  0
    5.9042   53.2088   20.0872 H   0  0  0  0  0  0
    4.3124   55.1909   25.4109 H   0  0  0  0  0  0
    2.2647   54.4967   26.5171 H   0  0  0  0  0  0
    1.1266   53.6408   28.4774 H   0  0  0  0  0  0
    4.8648   52.2510   30.0564 H   0  0  0  0  0  0
    6.0368   53.1739   28.1113 H   0  0  0  0  0  0
    0.7139   52.0718   31.7742 H   0  0  0  0  0  0
    0.6613   53.5423   30.8155 H   0  0  0  0  0  0
    0.3892   51.9619   30.0473 H   0  0  0  0  0  0
    3.1981   52.7745   20.6394 H   0  0  0  0  0  0
  1  2  1  0  0  0
  1 31  1  0  0  0
  1 32  1  0  0  0
  1 33  1  0  0  0
  2  7  2  0  0  0
  2  3  1  0  0  0
  3  4  2  0  0  0
  3 34  1  0  0  0
  4  5  1  0  0  0
  4 35  1  0  0  0
  5  6  2  0  0  0
  5 30  1  0  0  0
  6  7  1  0  0  0
  6 36  1  0  0  0
  7  8  1  0  0  0
  8  9  1  0  0  0
  8 37  1  0  0  0
  9 10  2  0  0  0
  9 11  1  0  0  0
 11 12  1  0  0  0
 11 28  1  0  0  0
 11 13  1  0  0  0
 13 14  1  0  0  0
 13 38  1  0  0  0
 13 39  1  0  0  0
 14 15  2  0  0  0
 14 29  1  0  0  0
 15 16  1  0  0  0
 16 17  2  0  0  0
 16 28  1  0  0  0
 17 18  1  0  0  0
 18 19  2  0  0  0
 19 20  1  0  0  0
 19 40  1  0  0  0
 20 25  2  0  0  0
 20 21  1  0  0  0
 21 22  2  0  0  0
 21 41  1  0  0  0
 22 23  1  0  0  0
 22 42  1  0  0  0
 23 24  2  0  0  0
 23 26  1  0  0  0
 24 25  1  0  0  0
 24 43  1  0  0  0
 25 44  1  0  0  0
 26 27  1  0  0  0
 27 45  1  0  0  0
 27 46  1  0  0  0
 27 47  1  0  0  0
 29 48  1  0  0  0
M  END
> <i_i_glide_confnum>
52

> <i_i_glide_lignum>
9

> <i_i_glide_posenum>
331

> <i_i_glide_rotatable_bonds>
7

> <i_m_Source_File_Index>
2714

> <b_m_subgroup_collapsed>
0

> <r_i_docking_score>
-5.41496

> <r_i_glide_ecoul>
-2.33679

> <r_i_glide_eff_state_penalty>
0

> <r_i_glide_einternal>
1.9865

> <r_i_glide_emodel>
-61.7077

> <r_i_glide_energy>
-47.4878

> <r_i_glide_erotb>
0.535465

> <r_i_glide_esite>
0

> <r_i_glide_evdw>
-45.151

> <r_i_glide_gscore>
-5.41496

> <r_i_glide_hbond>
-0.147498

> <r_i_glide_ligand_efficiency>
-0.186723

> <r_i_glide_ligand_efficiency_ln>
-1.23989

> <r_i_glide_ligand_efficiency_sa>
-0.573671

> <r_i_glide_lipo>
-1.55839

> <r_i_glide_metal>
0

> <r_i_glide_rewards>
-1.63647

> <s_i_glide_gridfile>
wee1_glide-grid

> <s_m_Source_File>
wee1_decoys_glide_SP.sdf

> <s_m_Source_Path>
/Users/zhangxujun/Desktop

> <s_m_entry_id>
2989

> <s_m_entry_name>
wee1_decoys_glide_SP.2714

> <s_m_subgroup_title>
wee1_decoys_glide_SP

> <s_m_subgroupid>
wee1_decoys_glide_SP


$$$$
