ZINC48585751_5865
                    3D
 Schrodinger Suite 2024-2.
 48 51  0  0  1  0            999 V2000
    5.0580   54.4967   21.1255 C   0  0  0  0  0  0
    6.1849   54.8471   21.8505 C   0  0  0  0  0  0
    6.1883   54.6916   23.2298 C   0  0  0  0  0  0
    5.0452   54.2321   23.9215 C   0  0  0  0  0  0
    3.8752   53.8911   23.1876 C   0  0  0  0  0  0
    3.9288   54.0241   21.7851 C   0  0  0  0  0  0
    2.5641   53.3670   23.7790 C   0  0  0  0  0  0
    2.4004   52.8976   24.9929 N   0  0  0  0  0  0
    1.1433   52.3985   25.1948 C   0  0  0  0  0  0
    0.7049   51.7354   26.3496 C   0  0  0  0  0  0
   -0.6141   51.2843   26.4164 C   0  0  0  0  0  0
   -1.4959   51.4903   25.3579 C   0  0  0  0  0  0
   -1.0850   52.1248   24.1863 C   0  0  0  0  0  0
    0.2464   52.5575   24.1147 C   0  0  0  0  0  0
    1.1079   53.2965   22.7944 S   0  0  0  0  0  0
    5.0290   54.0965   25.3287 N   0  0  0  0  0  0
    5.9872   54.4055   26.2445 C   0  0  0  0  0  0
    7.0896   54.8969   25.9944 O   0  0  0  0  0  0
    5.6356   54.1020   27.6509 C   0  0  0  0  0  0
    6.4844   53.6965   28.4476 O   0  0  0  0  0  0
    4.3649   54.3956   28.0015 N   0  0  0  0  0  0
    3.8877   54.4645   29.3830 C   0  0  0  0  0  0
    2.5220   55.1940   29.4480 C   0  0  0  0  0  0
    1.3617   54.3538   28.8786 C   0  0  0  0  0  0
    1.2800   52.9813   29.5730 C   0  0  0  0  0  0
    2.6257   52.2306   29.5146 C   0  0  0  0  0  0
    3.7746   53.0777   30.0742 C   0  0  0  0  0  0
    5.0543   54.5899   20.0490 H   0  0  0  0  0  0
    7.0667   55.2104   21.3436 H   0  0  0  0  0  0
    7.1098   54.9544   23.7196 H   0  0  0  0  0  0
    3.0921   53.7630   21.1560 H   0  0  0  0  0  0
    1.3750   51.5360   27.1614 H   0  0  0  0  0  0
   -0.9557   50.7519   27.2948 H   0  0  0  0  0  0
   -2.5092   51.1238   25.4420 H   0  0  0  0  0  0
   -1.7629   52.2519   23.3552 H   0  0  0  0  0  0
    4.1851   53.6578   25.6726 H   0  0  0  0  0  0
    3.7302   54.7472   27.3017 H   0  0  0  0  0  0
    4.6337   55.0408   29.9355 H   0  0  0  0  0  0
    2.5811   56.1468   28.9192 H   0  0  0  0  0  0
    2.2963   55.4601   30.4799 H   0  0  0  0  0  0
    1.4938   54.2186   27.8043 H   0  0  0  0  0  0
    0.4195   54.8870   29.0034 H   0  0  0  0  0  0
    0.4865   52.3787   29.1304 H   0  0  0  0  0  0
    0.9910   53.1212   30.6162 H   0  0  0  0  0  0
    2.8862   51.9605   28.4936 H   0  0  0  0  0  0
    2.5441   51.2967   30.0633 H   0  0  0  0  0  0
    3.6482   53.2020   31.1477 H   0  0  0  0  0  0
    4.7036   52.5178   29.9671 H   0  0  0  0  0  0
  1  6  2  0  0  0
  1  2  1  0  0  0
  1 28  1  0  0  0
  2  3  2  0  0  0
  2 29  1  0  0  0
  3  4  1  0  0  0
  3 30  1  0  0  0
  4  5  2  0  0  0
  4 16  1  0  0  0
  5  6  1  0  0  0
  5  7  1  0  0  0
  6 31  1  0  0  0
  7 15  1  0  0  0
  7  8  2  0  0  0
  8  9  1  0  0  0
  9 14  2  0  0  0
  9 10  1  0  0  0
 10 11  2  0  0  0
 10 32  1  0  0  0
 11 12  1  0  0  0
 11 33  1  0  0  0
 12 13  2  0  0  0
 12 34  1  0  0  0
 13 14  1  0  0  0
 13 35  1  0  0  0
 14 15  1  0  0  0
 16 17  1  0  0  0
 16 36  1  0  0  0
 17 18  2  0  0  0
 17 19  1  0  0  0
 19 20  2  0  0  0
 19 21  1  0  0  0
 21 22  1  0  0  0
 21 37  1  0  0  0
 22 27  1  0  0  0
 22 23  1  0  0  0
 22 38  1  0  0  0
 23 24  1  0  0  0
 23 39  1  0  0  0
 23 40  1  0  0  0
 24 25  1  0  0  0
 24 41  1  0  0  0
 24 42  1  0  0  0
 25 26  1  0  0  0
 25 43  1  0  0  0
 25 44  1  0  0  0
 26 27  1  0  0  0
 26 45  1  0  0  0
 26 46  1  0  0  0
 27 47  1  0  0  0
 27 48  1  0  0  0
M  END
> <i_i_glide_confnum>
1

> <i_i_glide_lignum>
5866

> <i_i_glide_posenum>
41

> <i_i_glide_rotatable_bonds>
6

> <i_m_Source_File_Index>
2994

> <b_m_subgroup_collapsed>
0

> <r_i_docking_score>
-6.72113

> <r_i_glide_ecoul>
-2.25824

> <r_i_glide_eff_state_penalty>
0

> <r_i_glide_einternal>
2.82137

> <r_i_glide_emodel>
-67.1631

> <r_i_glide_energy>
-47.9392

> <r_i_glide_erotb>
0.673262

> <r_i_glide_esite>
0

> <r_i_glide_evdw>
-45.681

> <r_i_glide_gscore>
-6.72113

> <r_i_glide_hbond>
-0.32

> <r_i_glide_ligand_efficiency>
-0.248931

> <r_i_glide_ligand_efficiency_ln>
-1.56457

> <r_i_glide_ligand_efficiency_sa>
-0.746792

> <r_i_glide_lipo>
-2.73356

> <r_i_glide_metal>
0

> <r_i_glide_rewards>
-1.71804

> <s_i_glide_gridfile>
wee1_glide-grid

> <s_m_Source_File>
wee1_decoys_glide_SP.sdf

> <s_m_Source_Path>
/Users/zhangxujun/Desktop

> <s_m_entry_id>
3269

> <s_m_entry_name>
wee1_decoys_glide_SP.2994

> <s_m_subgroup_title>
wee1_decoys_glide_SP

> <s_m_subgroupid>
wee1_decoys_glide_SP


$$$$
