ZINC61092752_1767
                    3D
 Schrodinger Suite 2024-2.
 29 30  0  0  1  0            999 V2000
   -0.8541   50.9954   27.5099 C   0  0  0  0  0  0
   -0.1742   51.8990   28.4325 N   0  0  0  0  0  0
   -0.4908   52.0177   29.7651 C   0  0  0  0  0  0
    0.3197   52.9451   30.3776 C   0  0  0  0  0  0
    1.1522   53.4239   29.3722 C   0  0  0  0  0  0
    0.8716   52.7755   28.1624 C   0  0  0  0  0  0
    1.5336   52.9227   26.8801 C   0  0  0  0  0  0
    1.2142   52.2427   25.9063 O   0  0  0  0  0  0
    2.5304   53.8363   26.8851 N   0  0  0  0  0  0
    3.5050   54.0418   25.8926 C   0  0  0  0  0  0
    4.8106   54.2717   26.3420 C   0  0  0  0  0  0
    5.8444   54.4973   25.4317 C   0  0  0  0  0  0
    5.5804   54.4877   24.0616 C   0  0  0  0  0  0
    4.2785   54.2870   23.6054 C   0  0  0  0  0  0
    3.2330   54.0979   24.5095 C   0  0  0  0  0  0
    1.9703   54.0105   24.0266 F   0  0  0  0  0  0
    6.5817   54.6912   23.1751 F   0  0  0  0  0  0
    7.0990   54.7209   25.8859 F   0  0  0  0  0  0
    0.3042   53.2964   31.6889 N   0  0  0  0  0  0
   -1.2396   51.5593   26.6606 H   0  0  0  0  0  0
   -1.6891   50.5004   28.0072 H   0  0  0  0  0  0
   -0.1539   50.2294   27.1734 H   0  0  0  0  0  0
   -1.2673   51.3956   30.1889 H   0  0  0  0  0  0
    1.9136   54.1706   29.5328 H   0  0  0  0  0  0
    2.7038   54.2923   27.7651 H   0  0  0  0  0  0
    5.0388   54.2687   27.3983 H   0  0  0  0  0  0
    4.0690   54.3122   22.5455 H   0  0  0  0  0  0
    0.6890   54.1661   32.0298 H   0  0  0  0  0  0
   -0.2957   52.7778   32.3350 H   0  0  0  0  0  0
  1  2  1  0  0  0
  1 20  1  0  0  0
  1 21  1  0  0  0
  1 22  1  0  0  0
  2  6  1  0  0  0
  2  3  1  0  0  0
  3  4  2  0  0  0
  3 23  1  0  0  0
  4  5  1  0  0  0
  4 19  1  0  0  0
  5  6  2  0  0  0
  5 24  1  0  0  0
  6  7  1  0  0  0
  7  8  2  0  0  0
  7  9  1  0  0  0
  9 10  1  0  0  0
  9 25  1  0  0  0
 10 15  2  0  0  0
 10 11  1  0  0  0
 11 12  2  0  0  0
 11 26  1  0  0  0
 12 13  1  0  0  0
 12 18  1  0  0  0
 13 14  2  0  0  0
 13 17  1  0  0  0
 14 15  1  0  0  0
 14 27  1  0  0  0
 15 16  1  0  0  0
 19 28  1  0  0  0
 19 29  1  0  0  0
M  END
> <i_i_glide_confnum>
6

> <i_i_glide_lignum>
1768

> <i_i_glide_posenum>
20

> <i_i_glide_rotatable_bonds>
3

> <i_m_Source_File_Index>
1803

> <b_m_subgroup_collapsed>
0

> <r_i_docking_score>
-6.16392

> <r_i_glide_ecoul>
-4.27291

> <r_i_glide_eff_state_penalty>
0

> <r_i_glide_einternal>
4.76434

> <r_i_glide_emodel>
-45.7398

> <r_i_glide_energy>
-34.5689

> <r_i_glide_erotb>
0.739414

> <r_i_glide_esite>
-0.100647

> <r_i_glide_evdw>
-30.296

> <r_i_glide_gscore>
-6.16392

> <r_i_glide_hbond>
-0.16

> <r_i_glide_ligand_efficiency>
-0.324417

> <r_i_glide_ligand_efficiency_ln>
-1.56269

> <r_i_glide_ligand_efficiency_sa>
-0.865674

> <r_i_glide_lipo>
-1.8066

> <r_i_glide_metal>
0

> <r_i_glide_rewards>
-2.68035

> <s_i_glide_gridfile>
wee1_glide-grid

> <s_m_Source_File>
wee1_decoys_glide_SP.sdf

> <s_m_Source_Path>
/Users/zhangxujun/Desktop

> <s_m_entry_id>
2078

> <s_m_entry_name>
wee1_decoys_glide_SP.1803

> <s_m_subgroup_title>
wee1_decoys_glide_SP

> <s_m_subgroupid>
wee1_decoys_glide_SP


$$$$
