ZINC65021967_5172
                    3D
 Schrodinger Suite 2024-2.
 50 53  0  0  1  0            999 V2000
   -5.4121   43.9777   26.8939 C   0  0  0  0  0  0
   -6.0556   43.6208   25.7115 C   0  0  0  0  0  0
   -5.7929   44.3176   24.5247 C   0  0  0  0  0  0
   -4.8672   45.3700   24.5462 C   0  0  0  0  0  0
   -4.1846   45.7086   25.7267 C   0  0  0  0  0  0
   -4.4943   45.0269   26.9037 C   0  0  0  0  0  0
   -3.1893   46.7022   25.7950 N   0  0  0  0  0  0
   -2.3343   47.0660   24.8147 C   0  0  0  0  0  0
   -2.2406   46.4572   23.7468 O   0  0  0  0  0  0
   -1.3582   48.2206   25.1392 C   0  0  0  0  0  0
   -0.2233   48.3849   24.0782 C   0  0  0  0  0  0
    0.6014   49.6702   24.2865 C   0  0  0  0  0  0
   -0.3099   50.8095   24.4687 N   0  0  0  0  0  0
   -1.1557   50.7237   25.6784 C   0  0  0  0  0  0
   -2.1210   49.5260   25.5326 C   0  0  0  0  0  0
    0.0817   52.3866   23.7629 S   0  0  0  0  0  0
    0.4934   52.1667   22.3724 O   0  0  0  0  0  0
   -1.0218   53.2967   24.0815 O   0  0  0  0  0  0
    1.5258   53.0124   24.6344 C   0  0  0  0  0  0
    1.5051   53.1537   26.0268 C   0  0  0  0  0  0
    2.6198   53.6640   26.7022 C   0  0  0  0  0  0
    3.7572   54.0254   25.9779 C   0  0  0  0  0  0
    3.7777   53.8973   24.5945 C   0  0  0  0  0  0
    2.6630   53.4003   23.9144 C   0  0  0  0  0  0
    5.3241   54.3875   23.9277 S   0  0  0  0  0  0
    5.9592   54.8015   25.5894 C   0  0  0  0  0  0
    7.0789   55.2488   25.8319 O   0  0  0  0  0  0
    4.9468   54.5147   26.4865 N   0  0  0  0  0  0
    5.0964   54.6646   27.4736 H   0  0  0  0  0  0
   -6.4788   43.9312   23.2143 C   0  0  0  0  0  0
   -7.5463   43.1553   23.4155 F   0  0  0  0  0  0
   -5.6107   43.2602   22.4572 F   0  0  0  0  0  0
   -6.8726   45.0185   22.5522 F   0  0  0  0  0  0
   -5.6110   43.4286   27.8032 H   0  0  0  0  0  0
   -6.7553   42.7979   25.7244 H   0  0  0  0  0  0
   -4.6662   45.9080   23.6289 H   0  0  0  0  0  0
   -3.9897   45.2807   27.8256 H   0  0  0  0  0  0
   -3.0343   47.1256   26.7020 H   0  0  0  0  0  0
   -0.8934   47.9217   26.0815 H   0  0  0  0  0  0
    0.4663   47.5424   24.1171 H   0  0  0  0  0  0
   -0.6541   48.4857   23.0774 H   0  0  0  0  0  0
    1.1929   49.5582   25.1959 H   0  0  0  0  0  0
    1.2852   49.8649   23.4579 H   0  0  0  0  0  0
   -0.5140   50.5644   26.5457 H   0  0  0  0  0  0
   -1.6954   51.6601   25.8289 H   0  0  0  0  0  0
   -2.8107   49.8125   24.7357 H   0  0  0  0  0  0
   -2.6514   49.4143   26.4809 H   0  0  0  0  0  0
    0.6246   52.8763   26.5890 H   0  0  0  0  0  0
    2.5865   53.7616   27.7775 H   0  0  0  0  0  0
    2.6885   53.2997   22.8381 H   0  0  0  0  0  0
  1  6  2  0  0  0
  1  2  1  0  0  0
  1 34  1  0  0  0
  2  3  2  0  0  0
  2 35  1  0  0  0
  3  4  1  0  0  0
  3 30  1  0  0  0
  4  5  2  0  0  0
  4 36  1  0  0  0
  5  6  1  0  0  0
  5  7  1  0  0  0
  6 37  1  0  0  0
  7  8  1  0  0  0
  7 38  1  0  0  0
  8  9  2  0  0  0
  8 10  1  0  0  0
 10 15  1  0  0  0
 10 11  1  0  0  0
 10 39  1  0  0  0
 11 12  1  0  0  0
 11 40  1  0  0  0
 11 41  1  0  0  0
 12 13  1  0  0  0
 12 42  1  0  0  0
 12 43  1  0  0  0
 13 14  1  0  0  0
 13 16  1  0  0  0
 14 15  1  0  0  0
 14 44  1  0  0  0
 14 45  1  0  0  0
 15 46  1  0  0  0
 15 47  1  0  0  0
 16 17  2  0  0  0
 16 18  2  0  0  0
 16 19  1  0  0  0
 19 24  2  0  0  0
 19 20  1  0  0  0
 20 21  2  0  0  0
 20 48  1  0  0  0
 21 22  1  0  0  0
 21 49  1  0  0  0
 22 28  1  0  0  0
 22 23  2  0  0  0
 23 24  1  0  0  0
 23 25  1  0  0  0
 24 50  1  0  0  0
 25 26  1  0  0  0
 26 27  2  0  0  0
 26 28  1  0  0  0
 28 29  1  0  0  0
 30 31  1  0  0  0
 30 32  1  0  0  0
 30 33  1  0  0  0
M  END
> <i_i_glide_confnum>
105

> <i_i_glide_lignum>
5173

> <i_i_glide_posenum>
249

> <i_i_glide_rotatable_bonds>
6

> <i_m_Source_File_Index>
3010

> <b_m_subgroup_collapsed>
0

> <r_i_docking_score>
-4.96751

> <r_i_glide_ecoul>
-8.99479

> <r_i_glide_eff_state_penalty>
0

> <r_i_glide_einternal>
4.86762

> <r_i_glide_emodel>
-58.8732

> <r_i_glide_energy>
-46.912

> <r_i_glide_erotb>
0.43094

> <r_i_glide_esite>
-0.160778

> <r_i_glide_evdw>
-37.9172

> <r_i_glide_gscore>
-4.96751

> <r_i_glide_hbond>
-0.32

> <r_i_glide_ligand_efficiency>
-0.155235

> <r_i_glide_ligand_efficiency_ln>
-1.11236

> <r_i_glide_ligand_efficiency_sa>
-0.492839

> <r_i_glide_lipo>
-1.82727

> <r_i_glide_metal>
0

> <r_i_glide_rewards>
0.154679

> <s_i_glide_gridfile>
wee1_glide-grid

> <s_m_Source_File>
wee1_decoys_glide_SP.sdf

> <s_m_Source_Path>
/Users/zhangxujun/Desktop

> <s_m_entry_id>
3285

> <s_m_entry_name>
wee1_decoys_glide_SP.3010

> <s_m_subgroup_title>
wee1_decoys_glide_SP

> <s_m_subgroupid>
wee1_decoys_glide_SP


$$$$
