ZINC39937985_288
                    3D
 Schrodinger Suite 2024-2.
 50 52  0  0  1  0            999 V2000
    1.5975   49.9836   22.8323 C   0  0  0  0  0  0
    2.4446   50.9330   21.9560 C   0  0  0  0  0  0
    2.2772   50.5255   20.4752 C   0  0  0  0  0  0
    2.2251   52.4864   22.1581 C   0  0  1  0  0  0
    1.2138   52.7296   21.8260 H   0  0  0  0  0  0
    2.3076   52.9503   23.6532 C   0  0  0  0  0  0
    3.1675   53.7703   24.0011 O   0  0  0  0  0  0
    1.3781   52.4698   24.5036 N   0  0  0  0  0  0
    1.3514   52.8358   25.8026 N   0  0  0  0  0  0
    0.4359   52.2691   26.4774 C   0  0  0  0  0  0
    0.2200   52.5272   27.8792 C   0  0  0  0  0  0
    0.6385   53.5915   28.6065 C   0  0  0  0  0  0
    1.4498   54.7749   28.2607 C   0  0  0  0  0  0
    1.6755   55.7541   29.1562 C   0  0  0  0  0  0
    1.1046   55.6030   30.4817 C   0  0  0  0  0  0
    0.4033   54.4967   30.8463 C   0  0  0  0  0  0
    0.1598   53.4759   29.9200 C   0  0  0  0  0  0
   -0.4955   52.3517   30.0853 N   0  3  0  0  0  0
   -0.5732   51.6340   28.8030 C   0  0  0  0  0  0
    3.1042   53.2967   21.2893 N   0  0  0  0  0  0
    4.4502   53.2807   21.2617 C   0  0  0  0  0  0
    5.1336   52.4967   21.9188 O   0  0  0  0  0  0
    5.1248   54.3762   20.4771 C   0  0  0  0  0  0
    6.2079   55.0317   21.0810 C   0  0  0  0  0  0
    6.9042   56.0323   20.4138 C   0  0  0  0  0  0
    6.5169   56.4111   19.1321 C   0  0  0  0  0  0
    5.4542   55.7590   18.5070 C   0  0  0  0  0  0
    4.7650   54.7328   19.1598 C   0  0  0  0  0  0
    3.5042   53.9347   18.2783 Cl  0  0  0  0  0  0
    7.3615   57.6756   18.3170 Cl  0  0  0  0  0  0
    0.5357   50.2218   22.7704 H   0  0  0  0  0  0
    1.7188   48.9468   22.5161 H   0  0  0  0  0  0
    1.9035   50.0048   23.8775 H   0  0  0  0  0  0
    3.4787   50.6864   22.1935 H   0  0  0  0  0  0
    1.2782   50.7621   20.1099 H   0  0  0  0  0  0
    2.9944   51.0341   19.8298 H   0  0  0  0  0  0
    2.4392   49.4561   20.3325 H   0  0  0  0  0  0
    0.6768   51.8055   24.2106 H   0  0  0  0  0  0
   -0.2656   51.5361   26.0784 H   0  0  0  0  0  0
    1.8974   54.8914   27.2863 H   0  0  0  0  0  0
    2.2760   56.6177   28.9047 H   0  0  0  0  0  0
    1.2667   56.3874   31.2100 H   0  0  0  0  0  0
    0.0194   54.4310   31.8557 H   0  0  0  0  0  0
   -1.6231   51.4994   28.5359 H   0  0  0  0  0  0
   -0.0957   50.6702   28.9206 H   0  0  0  0  0  0
    2.6215   53.9771   20.7112 H   0  0  0  0  0  0
    6.5280   54.7589   22.0782 H   0  0  0  0  0  0
    7.7508   56.4965   20.8974 H   0  0  0  0  0  0
    5.1715   56.0399   17.5027 H   0  0  0  0  0  0
   -0.9154   52.0295   30.9607 H   0  0  0  0  0  0
  1  2  1  0  0  0
  1 31  1  0  0  0
  1 32  1  0  0  0
  1 33  1  0  0  0
  2  3  1  0  0  0
  2  4  1  0  0  0
  2 34  1  0  0  0
  3 35  1  0  0  0
  3 36  1  0  0  0
  3 37  1  0  0  0
  4  5  1  0  0  0
  4  6  1  0  0  0
  4 20  1  0  0  0
  6  7  2  0  0  0
  6  8  1  0  0  0
  8  9  1  0  0  0
  8 38  1  0  0  0
  9 10  2  0  0  0
 10 11  1  0  0  0
 10 39  1  0  0  0
 11 19  1  0  0  0
 11 12  2  0  0  0
 12 17  1  0  0  0
 12 13  1  0  0  0
 13 14  2  0  0  0
 13 40  1  0  0  0
 14 15  1  0  0  0
 14 41  1  0  0  0
 15 16  2  0  0  0
 15 42  1  0  0  0
 16 17  1  0  0  0
 16 43  1  0  0  0
 17 18  2  0  0  0
 18 19  1  0  0  0
 18 50  1  0  0  0
 19 44  1  0  0  0
 19 45  1  0  0  0
 20 21  1  0  0  0
 20 46  1  0  0  0
 21 22  2  0  0  0
 21 23  1  0  0  0
 23 28  2  0  0  0
 23 24  1  0  0  0
 24 25  2  0  0  0
 24 47  1  0  0  0
 25 26  1  0  0  0
 25 48  1  0  0  0
 26 27  2  0  0  0
 26 30  1  0  0  0
 27 28  1  0  0  0
 27 49  1  0  0  0
 28 29  1  0  0  0
M  CHG  1  18   1
M  END
> <i_i_glide_confnum>
2

> <i_i_glide_lignum>
289

> <i_i_glide_posenum>
161

> <i_i_glide_rotatable_bonds>
8

> <i_m_Source_File_Index>
4870

> <b_m_subgroup_collapsed>
0

> <r_i_docking_score>
-5.94196

> <r_i_glide_ecoul>
-5.37175

> <r_i_glide_eff_state_penalty>
0

> <r_i_glide_einternal>
8.22513

> <r_i_glide_emodel>
-56.71

> <r_i_glide_energy>
-43.3461

> <r_i_glide_erotb>
0.532296

> <r_i_glide_esite>
-0.0632695

> <r_i_glide_evdw>
-37.9744

> <r_i_glide_gscore>
-5.94196

> <r_i_glide_hbond>
-0.400833

> <r_i_glide_ligand_efficiency>
-0.204895

> <r_i_glide_ligand_efficiency_ln>
-1.36056

> <r_i_glide_ligand_efficiency_sa>
-0.629502

> <r_i_glide_lipo>
-2.3707

> <r_i_glide_metal>
0

> <r_i_glide_rewards>
-0.934968

> <s_i_glide_gridfile>
wee1_glide-grid

> <s_m_Source_File>
wee1_decoys_glide_SP.sdf

> <s_m_Source_Path>
/Users/zhangxujun/Desktop

> <s_m_entry_id>
5145

> <s_m_entry_name>
wee1_decoys_glide_SP.4870

> <s_m_subgroup_title>
wee1_decoys_glide_SP

> <s_m_subgroupid>
wee1_decoys_glide_SP


$$$$
