ZINC63598856_296
                    3D
 Schrodinger Suite 2024-2.
 42 44  0  0  1  0            999 V2000
   -0.1155   45.8185   18.8145 C   0  0  0  0  0  0
    0.1216   47.1254   19.2348 C   0  0  0  0  0  0
    1.0001   47.9601   18.5281 C   0  0  0  0  0  0
    1.6329   47.4462   17.3821 C   0  0  0  0  0  0
    1.4134   46.1282   16.9609 C   0  0  0  0  0  0
    0.5285   45.3222   17.6836 C   0  0  0  0  0  0
    2.1394   45.5473   15.7481 C   0  0  0  0  0  0
    3.0961   46.3543   15.2855 F   0  0  0  0  0  0
    2.7024   44.3842   16.0809 F   0  0  0  0  0  0
    1.2633   45.3319   14.7672 F   0  0  0  0  0  0
    1.2382   49.3764   19.0098 C   0  0  0  0  0  0
    0.4791   49.8808   19.8449 O   0  0  0  0  0  0
    2.3041   50.0276   18.4814 N   0  0  0  0  0  0
    2.6251   51.3268   18.8973 N   0  0  0  0  0  0
    3.2039   51.5408   20.1004 C   0  0  0  0  0  0
    3.5074   50.6421   20.8888 O   0  0  0  0  0  0
    3.4536   53.0066   20.4889 C   0  0  2  0  0  0
    3.1184   53.6769   19.6941 H   0  0  0  0  0  0
    4.8524   53.2955   20.9947 C   0  0  0  0  0  0
    4.7827   53.6715   22.2839 C   0  0  0  0  0  0
    5.8295   54.0157   23.2578 C   0  0  0  0  0  0
    5.5312   54.2925   24.5461 C   0  0  0  0  0  0
    4.1049   54.2817   24.9067 C   0  0  0  0  0  0
    3.1236   53.9911   24.0127 C   0  0  0  0  0  0
    3.4481   53.6617   22.6933 C   0  0  0  0  0  0
    2.6640   53.2970   21.6999 N   0  3  0  0  0  0
    6.5619   54.4708   25.4203 O   0  0  0  0  0  0
    6.3262   54.3299   26.8238 C   0  0  0  0  0  0
    7.5045   54.4278   27.4336 F   0  0  0  0  0  0
    5.8048   53.1391   27.1229 F   0  0  0  0  0  0
    5.5432   55.2967   27.2962 F   0  0  0  0  0  0
   -0.7965   45.1898   19.3694 H   0  0  0  0  0  0
   -0.3873   47.4846   20.1190 H   0  0  0  0  0  0
    2.3044   48.0688   16.8079 H   0  0  0  0  0  0
    0.3434   44.3038   17.3705 H   0  0  0  0  0  0
    3.0793   49.5787   17.9999 H   0  0  0  0  0  0
    2.3075   52.0420   18.2590 H   0  0  0  0  0  0
    5.7311   53.1943   20.3733 H   0  0  0  0  0  0
    6.8751   53.9994   22.9845 H   0  0  0  0  0  0
    3.7991   54.5269   25.9112 H   0  0  0  0  0  0
    2.0950   54.0064   24.3445 H   0  0  0  0  0  0
    1.6524   53.2108   21.7476 H   0  0  0  0  0  0
  1  6  2  0  0  0
  1  2  1  0  0  0
  1 32  1  0  0  0
  2  3  2  0  0  0
  2 33  1  0  0  0
  3  4  1  0  0  0
  3 11  1  0  0  0
  4  5  2  0  0  0
  4 34  1  0  0  0
  5  6  1  0  0  0
  5  7  1  0  0  0
  6 35  1  0  0  0
  7  8  1  0  0  0
  7  9  1  0  0  0
  7 10  1  0  0  0
 11 12  2  0  0  0
 11 13  1  0  0  0
 13 14  1  0  0  0
 13 36  1  0  0  0
 14 15  1  0  0  0
 14 37  1  0  0  0
 15 16  2  0  0  0
 15 17  1  0  0  0
 17 18  1  0  0  0
 17 26  1  0  0  0
 17 19  1  0  0  0
 19 20  2  0  0  0
 19 38  1  0  0  0
 20 25  1  0  0  0
 20 21  1  0  0  0
 21 22  2  0  0  0
 21 39  1  0  0  0
 22 23  1  0  0  0
 22 27  1  0  0  0
 23 24  2  0  0  0
 23 40  1  0  0  0
 24 25  1  0  0  0
 24 41  1  0  0  0
 25 26  2  0  0  0
 26 42  1  0  0  0
 27 28  1  0  0  0
 28 29  1  0  0  0
 28 30  1  0  0  0
 28 31  1  0  0  0
M  CHG  1  26   1
M  END
> <i_i_glide_confnum>
13

> <i_i_glide_lignum>
297

> <i_i_glide_posenum>
367

> <i_i_glide_rotatable_bonds>
8

> <i_m_Source_File_Index>
3696

> <b_m_subgroup_collapsed>
0

> <r_i_docking_score>
-5.15261

> <r_i_glide_ecoul>
-5.46975

> <r_i_glide_eff_state_penalty>
0

> <r_i_glide_einternal>
3.01157

> <r_i_glide_emodel>
-51.4188

> <r_i_glide_energy>
-38.0132

> <r_i_glide_erotb>
0.638825

> <r_i_glide_esite>
-0.378912

> <r_i_glide_evdw>
-32.5434

> <r_i_glide_gscore>
-5.15261

> <r_i_glide_hbond>
-0.176877

> <r_i_glide_ligand_efficiency>
-0.171754

> <r_i_glide_ligand_efficiency_ln>
-1.17073

> <r_i_glide_ligand_efficiency_sa>
-0.533678

> <r_i_glide_lipo>
-1.88071

> <r_i_glide_metal>
0

> <r_i_glide_rewards>
-0.907293

> <s_i_glide_gridfile>
wee1_glide-grid

> <s_m_Source_File>
wee1_decoys_glide_SP.sdf

> <s_m_Source_Path>
/Users/zhangxujun/Desktop

> <s_m_entry_id>
3971

> <s_m_entry_name>
wee1_decoys_glide_SP.3696

> <s_m_subgroup_title>
wee1_decoys_glide_SP

> <s_m_subgroupid>
wee1_decoys_glide_SP


$$$$
