ZINC21253811_267
                    3D
 Schrodinger Suite 2024-2.
 45 48  0  0  1  0            999 V2000
   -0.5752   51.8366   30.0833 C   0  0  0  0  0  0
    0.7492   52.0994   29.3786 C   0  0  0  0  0  0
    1.8161   52.1896   29.9874 O   0  0  0  0  0  0
    0.5711   52.1841   27.9722 N   0  3  0  0  0  0
    1.4070   52.6894   27.0535 C   0  0  0  0  0  0
    0.9658   52.6446   25.7175 C   0  0  0  0  0  0
    1.7129   53.1250   24.6912 C   0  0  0  0  0  0
    3.0375   53.6962   24.9065 C   0  0  0  0  0  0
    3.8937   54.1458   23.9494 C   0  0  0  0  0  0
    5.2089   54.6096   24.3993 C   0  0  0  0  0  0
    5.5252   54.6370   25.7127 C   0  0  0  0  0  0
    6.7053   55.0611   26.2282 O   0  0  0  0  0  0
    4.6545   54.2478   26.6826 O   0  0  0  0  0  0
    3.4527   53.7275   26.3102 C   0  0  0  0  0  0
    2.6729   53.2626   27.3141 C   0  0  0  0  0  0
    3.4840   54.3099   22.4872 C   0  0  0  0  0  0
    3.8735   52.8779   21.4213 S   0  0  0  0  0  0
    4.9981   53.5691   20.2435 C   0  0  0  0  0  0
    5.5041   54.7789   20.2491 N   0  0  0  0  0  0
    5.2983   51.9347   18.8808 H   0  0  0  0  0  0
    6.3015   54.7901   19.1876 C   0  0  0  0  0  0
    6.3421   53.6762   18.4845 N   0  0  0  0  0  0
    5.4995   52.8974   19.1622 N   0  0  0  0  0  0
    7.0982   55.9948   18.8104 C   0  0  0  0  0  0
    6.5107   57.2618   18.8622 C   0  0  0  0  0  0
    7.2341   58.3873   18.4812 C   0  0  0  0  0  0
    8.5597   58.2523   18.0813 C   0  0  0  0  0  0
    9.1617   56.9947   18.0389 C   0  0  0  0  0  0
    8.4279   55.8658   18.3933 C   0  0  0  0  0  0
    9.4681   59.6562   17.6621 Cl  0  0  0  0  0  0
   -1.2839   52.6336   29.8753 H   0  0  0  0  0  0
   -0.4381   51.7816   31.1643 H   0  0  0  0  0  0
   -1.0214   50.8968   29.7604 H   0  0  0  0  0  0
   -0.3166   51.8142   27.6488 H   0  0  0  0  0  0
   -0.0015   52.2148   25.4942 H   0  0  0  0  0  0
    1.3118   53.0400   23.6911 H   0  0  0  0  0  0
    5.9398   54.9267   23.6708 H   0  0  0  0  0  0
    3.0447   53.3306   28.3216 H   0  0  0  0  0  0
    2.4117   54.4847   22.4188 H   0  0  0  0  0  0
    3.9067   55.2383   22.1015 H   0  0  0  0  0  0
    5.4824   57.3736   19.1711 H   0  0  0  0  0  0
    6.7668   59.3604   18.5017 H   0  0  0  0  0  0
   10.1922   56.8934   17.7360 H   0  0  0  0  0  0
    8.8969   54.8935   18.3549 H   0  0  0  0  0  0
    6.6710   54.9541   27.1831 H   0  0  0  0  0  0
  1  2  1  0  0  0
  1 31  1  0  0  0
  1 32  1  0  0  0
  1 33  1  0  0  0
  2  3  2  0  0  0
  2  4  1  0  0  0
  4  5  2  3  0  0
  4 34  1  0  0  0
  5 15  1  0  0  0
  5  6  1  0  0  0
  6  7  2  0  0  0
  6 35  1  0  0  0
  7  8  1  0  0  0
  7 36  1  0  0  0
  8 14  1  0  0  0
  8  9  2  0  0  0
  9 10  1  0  0  0
  9 16  1  0  0  0
 10 11  2  0  0  0
 10 37  1  0  0  0
 11 12  1  0  0  0
 11 13  1  0  0  0
 12 45  1  0  0  0
 13 14  1  0  0  0
 14 15  2  0  0  0
 15 38  1  0  0  0
 16 39  1  0  0  0
 16 40  1  0  0  0
 16 17  1  0  0  0
 17 18  1  0  0  0
 18 19  2  0  0  0
 18 23  1  0  0  0
 19 21  1  0  0  0
 20 23  1  0  0  0
 21 24  1  0  0  0
 21 22  2  0  0  0
 22 23  1  0  0  0
 24 29  2  0  0  0
 24 25  1  0  0  0
 25 26  2  0  0  0
 25 41  1  0  0  0
 26 27  1  0  0  0
 26 42  1  0  0  0
 27 28  2  0  0  0
 27 30  1  0  0  0
 28 29  1  0  0  0
 28 43  1  0  0  0
 29 44  1  0  0  0
M  CHG  1   4   1
M  END
> <i_i_glide_confnum>
19

> <i_i_glide_lignum>
268

> <i_i_glide_posenum>
58

> <i_i_glide_rotatable_bonds>
6

> <i_m_Source_File_Index>
3731

> <b_m_subgroup_collapsed>
0

> <r_i_docking_score>
-6.29184

> <r_i_glide_ecoul>
-8.08521

> <r_i_glide_eff_state_penalty>
0

> <r_i_glide_einternal>
2.13569

> <r_i_glide_emodel>
-69.9505

> <r_i_glide_energy>
-48.8949

> <r_i_glide_erotb>
0.542338

> <r_i_glide_esite>
-0.107442

> <r_i_glide_evdw>
-40.8097

> <r_i_glide_gscore>
-6.29184

> <r_i_glide_hbond>
-0.17886

> <r_i_glide_ligand_efficiency>
-0.21696

> <r_i_glide_ligand_efficiency_ln>
-1.44067

> <r_i_glide_ligand_efficiency_sa>
-0.66657

> <r_i_glide_lipo>
-2.10704

> <r_i_glide_metal>
0

> <r_i_glide_rewards>
-1.18757

> <s_i_glide_gridfile>
wee1_glide-grid

> <s_m_Source_File>
wee1_decoys_glide_SP.sdf

> <s_m_Source_Path>
/Users/zhangxujun/Desktop

> <s_m_entry_id>
4006

> <s_m_entry_name>
wee1_decoys_glide_SP.3731

> <s_m_subgroup_title>
wee1_decoys_glide_SP

> <s_m_subgroupid>
wee1_decoys_glide_SP


$$$$
