ZINC21908147_5589
                    3D
 Schrodinger Suite 2024-2.
 54 58  0  0  1  0            999 V2000
    0.6335   54.5275   31.0253 C   0  0  0  0  0  0
    1.3072   53.2433   30.5046 C   0  0  0  0  0  0
    0.2688   52.1261   30.2573 C   0  0  0  0  0  0
    2.1606   53.5249   29.2673 C   0  0  0  0  0  0
    1.5449   53.7200   28.0302 C   0  0  0  0  0  0
    2.3117   53.9456   26.8957 C   0  0  0  0  0  0
    3.7091   53.9971   26.9752 C   0  0  0  0  0  0
    4.3232   53.8227   28.2218 C   0  0  0  0  0  0
    3.5552   53.5825   29.3597 C   0  0  0  0  0  0
    4.5257   54.2266   25.7361 C   0  0  0  0  0  0
    5.8106   54.5152   25.7131 N   0  0  0  0  0  0
    6.3204   54.6394   24.4237 N   0  0  0  0  0  0
    5.4021   54.4342   23.5044 C   0  0  0  0  0  0
    3.8272   54.0969   24.1395 S   0  0  0  0  0  0
    5.5327   54.4967   22.1267 N   0  0  0  0  0  0
    6.4736   55.1897   21.4462 C   0  0  0  0  0  0
    7.4058   55.8033   21.9701 O   0  0  0  0  0  0
    6.3685   55.1214   19.9415 C   0  0  0  0  0  0
    7.5335   55.2348   19.1533 C   0  0  0  0  0  0
    7.4702   55.1634   17.7579 C   0  0  0  0  0  0
    6.2211   54.9880   17.1592 C   0  0  0  0  0  0
    5.0828   54.8873   17.9114 C   0  0  0  0  0  0
    5.1261   54.9476   19.3018 C   0  0  0  0  0  0
    3.9319   54.7336   16.9888 C   0  0  0  0  0  0
    2.7407   54.6293   17.2793 O   0  0  0  0  0  0
    4.4786   54.7452   15.7448 N   0  0  0  0  0  0
    5.8321   54.8852   15.7309 C   0  0  0  0  0  0
    6.5650   54.9270   14.7420 O   0  0  0  0  0  0
    3.6716   54.6690   14.5166 C   0  0  0  0  0  0
    3.0828   56.0124   14.1207 C   0  0  0  0  0  0
    3.1338   57.2976   14.6492 C   0  0  0  0  0  0
    2.3684   58.1134   13.8178 C   0  0  0  0  0  0
    1.8850   57.2928   12.8123 C   0  0  0  0  0  0
    2.3185   56.0191   12.9982 O   0  0  0  0  0  0
    1.3458   55.3444   31.1487 H   0  0  0  0  0  0
    0.1510   54.3584   31.9894 H   0  0  0  0  0  0
   -0.1278   54.8805   30.3323 H   0  0  0  0  0  0
    1.9723   52.8735   31.2873 H   0  0  0  0  0  0
    0.6960   51.2978   29.6869 H   0  0  0  0  0  0
   -0.1114   51.7288   31.1984 H   0  0  0  0  0  0
   -0.5900   52.4875   29.6908 H   0  0  0  0  0  0
    0.4682   53.6871   27.9428 H   0  0  0  0  0  0
    1.7959   54.0829   25.9567 H   0  0  0  0  0  0
    5.4009   53.8569   28.3128 H   0  0  0  0  0  0
    4.0520   53.4298   30.3070 H   0  0  0  0  0  0
    4.7790   54.0957   21.5934 H   0  0  0  0  0  0
    8.5033   55.3693   19.6174 H   0  0  0  0  0  0
    8.3706   55.2488   17.1645 H   0  0  0  0  0  0
    4.2013   54.8795   19.8614 H   0  0  0  0  0  0
    4.2963   54.2857   13.7066 H   0  0  0  0  0  0
    2.8913   53.9229   14.6603 H   0  0  0  0  0  0
    3.6645   57.6093   15.5365 H   0  0  0  0  0  0
    2.1919   59.1727   13.9356 H   0  0  0  0  0  0
    1.2573   57.4589   11.9476 H   0  0  0  0  0  0
  1  2  1  0  0  0
  1 35  1  0  0  0
  1 36  1  0  0  0
  1 37  1  0  0  0
  2  3  1  0  0  0
  2  4  1  0  0  0
  2 38  1  0  0  0
  3 39  1  0  0  0
  3 40  1  0  0  0
  3 41  1  0  0  0
  4  9  2  0  0  0
  4  5  1  0  0  0
  5  6  2  0  0  0
  5 42  1  0  0  0
  6  7  1  0  0  0
  6 43  1  0  0  0
  7  8  2  0  0  0
  7 10  1  0  0  0
  8  9  1  0  0  0
  8 44  1  0  0  0
  9 45  1  0  0  0
 10 14  1  0  0  0
 10 11  2  0  0  0
 11 12  1  0  0  0
 12 13  2  0  0  0
 13 14  1  0  0  0
 13 15  1  0  0  0
 15 16  1  0  0  0
 15 46  1  0  0  0
 16 17  2  0  0  0
 16 18  1  0  0  0
 18 23  2  0  0  0
 18 19  1  0  0  0
 19 20  2  0  0  0
 19 47  1  0  0  0
 20 21  1  0  0  0
 20 48  1  0  0  0
 21 27  1  0  0  0
 21 22  2  0  0  0
 22 23  1  0  0  0
 22 24  1  0  0  0
 23 49  1  0  0  0
 24 25  2  0  0  0
 24 26  1  0  0  0
 26 27  1  0  0  0
 26 29  1  0  0  0
 27 28  2  0  0  0
 29 30  1  0  0  0
 29 50  1  0  0  0
 29 51  1  0  0  0
 30 34  1  0  0  0
 30 31  2  0  0  0
 31 32  1  0  0  0
 31 52  1  0  0  0
 32 33  2  0  0  0
 32 53  1  0  0  0
 33 34  1  0  0  0
 33 54  1  0  0  0
M  END
> <i_i_glide_confnum>
32

> <i_i_glide_lignum>
5590

> <i_i_glide_posenum>
258

> <i_i_glide_rotatable_bonds>
7

> <i_m_Source_File_Index>
4786

> <b_m_subgroup_collapsed>
0

> <r_i_docking_score>
-4.53221

> <r_i_glide_ecoul>
-0.0868839

> <r_i_glide_eff_state_penalty>
0

> <r_i_glide_einternal>
4.79539

> <r_i_glide_emodel>
-51.3436

> <r_i_glide_energy>
-41.9329

> <r_i_glide_erotb>
0.54339

> <r_i_glide_esite>
-0.0015903

> <r_i_glide_evdw>
-41.846

> <r_i_glide_gscore>
-4.53221

> <r_i_glide_hbond>
0

> <r_i_glide_ligand_efficiency>
-0.1333

> <r_i_glide_ligand_efficiency_ln>
-1.00129

> <r_i_glide_ligand_efficiency_sa>
-0.431841

> <r_i_glide_lipo>
-2.42484

> <r_i_glide_metal>
0

> <r_i_glide_rewards>
-0.543843

> <s_i_glide_gridfile>
wee1_glide-grid

> <s_m_Source_File>
wee1_decoys_glide_SP.sdf

> <s_m_Source_Path>
/Users/zhangxujun/Desktop

> <s_m_entry_id>
5061

> <s_m_entry_name>
wee1_decoys_glide_SP.4786

> <s_m_subgroup_title>
wee1_decoys_glide_SP

> <s_m_subgroupid>
wee1_decoys_glide_SP


$$$$
