ZINC33735578_3430
                    3D
 Schrodinger Suite 2024-2.
 55 57  0  0  1  0            999 V2000
    7.6344   54.8979   15.4629 C   0  0  0  0  0  0
    7.3570   53.7458   16.4409 C   0  0  0  0  0  0
    7.3805   54.1480   17.9383 C   0  0  1  0  0  0
    7.1047   53.2391   18.4810 H   0  0  0  0  0  0
    8.8303   54.4820   18.3714 C   0  0  0  0  0  0
    6.3188   55.2504   18.2961 C   0  0  2  0  0  0
    6.5915   56.1601   17.7526 H   0  0  0  0  0  0
    6.4232   55.5862   19.8063 C   0  0  0  0  0  0
    7.1018   56.5575   20.1478 O   0  0  0  0  0  0
    5.7762   54.7640   20.6594 N   0  0  0  0  0  0
    5.9005   54.7906   22.0391 C   0  0  0  0  0  0
    6.8895   55.2938   22.7411 N   0  0  0  0  0  0
    6.6998   55.1517   24.1078 N   0  0  0  0  0  0
    5.5732   54.5523   24.4145 C   0  0  0  0  0  0
    4.6368   54.0954   23.0080 S   0  0  0  0  0  0
    5.1024   54.3259   25.8172 C   0  0  0  0  0  0
    6.0222   54.3745   26.8717 C   0  0  0  0  0  0
    5.5952   54.2087   28.1870 C   0  0  0  0  0  0
    4.2446   53.9917   28.4521 C   0  0  0  0  0  0
    3.3219   53.9331   27.4117 C   0  0  0  0  0  0
    3.7493   54.0973   26.0956 C   0  0  0  0  0  0
    3.7130   53.8091   30.0822 Cl  0  0  0  0  0  0
    4.9652   54.8468   17.8794 N   0  0  0  0  0  0
    3.9588   55.6958   17.6167 C   0  0  0  0  0  0
    4.0804   56.9154   17.6813 O   0  0  0  0  0  0
    2.8321   55.0408   17.2800 N   0  0  0  0  0  0
    1.5817   55.5616   16.8801 C   0  0  0  0  0  0
    0.5127   54.6632   16.8822 C   0  0  0  0  0  0
   -0.7674   55.0886   16.5344 C   0  0  0  0  0  0
   -0.9866   56.4211   16.1768 C   0  0  0  0  0  0
    0.0818   57.3155   16.1348 C   0  0  0  0  0  0
    1.3643   56.8920   16.4819 C   0  0  0  0  0  0
   -2.3819   56.8889   15.8000 C   0  0  0  0  0  0
    7.6935   54.5259   14.4403 H   0  0  0  0  0  0
    6.8397   55.6439   15.4893 H   0  0  0  0  0  0
    8.5764   55.4009   15.6833 H   0  0  0  0  0  0
    8.0801   52.9465   16.2660 H   0  0  0  0  0  0
    6.3892   53.3105   16.1955 H   0  0  0  0  0  0
    9.1500   55.4544   17.9954 H   0  0  0  0  0  0
    8.9394   54.5022   19.4567 H   0  0  0  0  0  0
    9.5393   53.7366   18.0059 H   0  0  0  0  0  0
    5.1658   54.0596   20.2695 H   0  0  0  0  0  0
    7.0728   54.5397   26.6813 H   0  0  0  0  0  0
    6.3122   54.2630   28.9912 H   0  0  0  0  0  0
    2.2739   53.7687   27.6196 H   0  0  0  0  0  0
    3.0182   54.0580   25.3007 H   0  0  0  0  0  0
    4.8425   53.8639   17.6863 H   0  0  0  0  0  0
    2.8583   54.0364   17.3671 H   0  0  0  0  0  0
    0.6626   53.6328   17.1778 H   0  0  0  0  0  0
   -1.5867   54.3845   16.5568 H   0  0  0  0  0  0
   -0.0745   58.3487   15.8497 H   0  0  0  0  0  0
    2.1650   57.6147   16.4419 H   0  0  0  0  0  0
   -2.3352   57.6691   15.0395 H   0  0  0  0  0  0
   -2.9016   57.2834   16.6727 H   0  0  0  0  0  0
   -2.9688   56.0749   15.3749 H   0  0  0  0  0  0
  1  2  1  0  0  0
  1 34  1  0  0  0
  1 35  1  0  0  0
  1 36  1  0  0  0
  2  3  1  0  0  0
  2 37  1  0  0  0
  2 38  1  0  0  0
  3  4  1  0  0  0
  3  5  1  0  0  0
  3  6  1  0  0  0
  5 39  1  0  0  0
  5 40  1  0  0  0
  5 41  1  0  0  0
  6  7  1  0  0  0
  6  8  1  0  0  0
  6 23  1  0  0  0
  8  9  2  0  0  0
  8 10  1  0  0  0
 10 11  1  0  0  0
 10 42  1  0  0  0
 11 15  1  0  0  0
 11 12  2  0  0  0
 12 13  1  0  0  0
 13 14  2  0  0  0
 14 15  1  0  0  0
 14 16  1  0  0  0
 16 21  2  0  0  0
 16 17  1  0  0  0
 17 18  2  0  0  0
 17 43  1  0  0  0
 18 19  1  0  0  0
 18 44  1  0  0  0
 19 20  2  0  0  0
 19 22  1  0  0  0
 20 21  1  0  0  0
 20 45  1  0  0  0
 21 46  1  0  0  0
 23 24  1  0  0  0
 23 47  1  0  0  0
 24 25  2  0  0  0
 24 26  1  0  0  0
 26 27  1  0  0  0
 26 48  1  0  0  0
 27 32  2  0  0  0
 27 28  1  0  0  0
 28 29  2  0  0  0
 28 49  1  0  0  0
 29 30  1  0  0  0
 29 50  1  0  0  0
 30 31  2  0  0  0
 30 33  1  0  0  0
 31 32  1  0  0  0
 31 51  1  0  0  0
 32 52  1  0  0  0
 33 53  1  0  0  0
 33 54  1  0  0  0
 33 55  1  0  0  0
M  END
> <i_i_glide_confnum>
140

> <i_i_glide_lignum>
3431

> <i_i_glide_posenum>
119

> <i_i_glide_rotatable_bonds>
10

> <i_m_Source_File_Index>
3368

> <b_m_subgroup_collapsed>
0

> <r_i_docking_score>
-5.44613

> <r_i_glide_ecoul>
-4.21164

> <r_i_glide_eff_state_penalty>
0

> <r_i_glide_einternal>
11.6345

> <r_i_glide_emodel>
-58.8638

> <r_i_glide_energy>
-48.1246

> <r_i_glide_erotb>
0.862877

> <r_i_glide_esite>
0

> <r_i_glide_evdw>
-43.9129

> <r_i_glide_gscore>
-5.44613

> <r_i_glide_hbond>
-0.235792

> <r_i_glide_ligand_efficiency>
-0.175682

> <r_i_glide_ligand_efficiency_ln>
-1.22827

> <r_i_glide_ligand_efficiency_sa>
-0.551883

> <r_i_glide_lipo>
-2.58967

> <r_i_glide_metal>
0

> <r_i_glide_rewards>
-0.656149

> <s_i_glide_gridfile>
wee1_glide-grid

> <s_m_Source_File>
wee1_decoys_glide_SP.sdf

> <s_m_Source_Path>
/Users/zhangxujun/Desktop

> <s_m_entry_id>
3643

> <s_m_entry_name>
wee1_decoys_glide_SP.3368

> <s_m_subgroup_title>
wee1_decoys_glide_SP

> <s_m_subgroupid>
wee1_decoys_glide_SP


$$$$
