ZINC39733506_3330
                    3D
 Schrodinger Suite 2024-2.
 62 66  0  0  1  0            999 V2000
    0.5888   49.4526   25.8183 C   0  0  0  0  0  0
   -0.7028   48.6583   25.5775 C   0  0  0  0  0  0
   -0.8884   48.3904   24.1931 O   0  0  0  0  0  0
   -1.5214   49.2716   23.3907 C   0  0  0  0  0  0
   -2.0083   50.3504   23.7411 O   0  0  0  0  0  0
   -1.5738   48.7831   21.9277 C   0  0  2  0  0  0
   -1.5014   47.6968   22.0036 H   0  0  0  0  0  0
   -0.4098   49.2581   21.0060 C   0  0  1  0  0  0
    0.0410   48.3456   20.6110 H   0  0  0  0  0  0
   -1.1249   49.9563   19.4931 S   0  0  0  0  0  0
   -2.7940   49.6910   20.0375 C   0  0  0  0  0  0
   -2.9004   49.0585   21.2272 C   0  0  0  0  0  0
   -4.2542   48.7267   21.8612 C   0  0  0  0  0  0
   -5.3991   48.7566   20.8249 C   0  0  0  0  0  0
   -5.3180   50.0103   19.9381 C   0  0  0  0  0  0
   -3.9823   50.0827   19.1632 C   0  0  0  0  0  0
    0.6978   50.0123   21.6244 N   0  0  0  0  0  0
    0.7584   51.3381   21.8686 C   0  0  0  0  0  0
   -0.1870   52.0948   21.6462 O   0  0  0  0  0  0
    2.0898   51.8645   22.4604 C   0  0  1  0  0  0
    2.1955   51.3486   23.4149 H   0  0  0  0  0  0
    3.2936   51.4568   21.5701 C   0  0  0  0  0  0
    2.0122   53.6540   22.8822 S   0  0  0  0  0  0
    3.7064   54.0194   23.2076 C   0  0  0  0  0  0
    4.5756   54.2738   22.2545 N   0  0  0  0  0  0
    5.8166   54.4964   22.8420 N   0  0  0  0  0  0
    5.6358   54.4019   24.1317 C   0  0  0  0  0  0
    4.3190   54.1001   24.4452 N   0  0  0  0  0  0
    3.9043   53.9448   25.7983 C   0  0  0  0  0  0
    4.8849   54.0907   26.7485 C   0  0  0  0  0  0
    6.2803   54.4025   26.3764 C   0  0  0  0  0  0
    7.1043   54.4977   27.2819 O   0  0  0  0  0  0
    6.5754   54.5557   25.0975 N   0  5  0  0  0  0
    4.5766   53.9249   28.2487 C   0  0  0  0  0  0
    3.2693   53.1511   28.4988 C   0  0  0  0  0  0
    2.1320   53.6953   27.6287 C   0  0  0  0  0  0
    2.4522   53.5792   26.1258 C   0  0  0  0  0  0
    0.7272   49.6440   26.8808 H   0  0  0  0  0  0
    1.4538   48.8981   25.4570 H   0  0  0  0  0  0
    0.5637   50.4166   25.3111 H   0  0  0  0  0  0
   -1.5612   49.1800   26.0049 H   0  0  0  0  0  0
   -0.6439   47.6997   26.0853 H   0  0  0  0  0  0
   -4.4741   49.4463   22.6522 H   0  0  0  0  0  0
   -4.2289   47.7664   22.3778 H   0  0  0  0  0  0
   -5.3518   47.8655   20.1952 H   0  0  0  0  0  0
   -6.3657   48.7161   21.3336 H   0  0  0  0  0  0
   -6.1572   50.0289   19.2407 H   0  0  0  0  0  0
   -5.4237   50.8961   20.5653 H   0  0  0  0  0  0
   -4.0304   49.4192   18.2993 H   0  0  0  0  0  0
   -3.8585   51.0837   18.7466 H   0  0  0  0  0  0
    1.5336   49.4793   21.8073 H   0  0  0  0  0  0
    3.2866   50.4013   21.2955 H   0  0  0  0  0  0
    3.3120   52.0375   20.6476 H   0  0  0  0  0  0
    4.2415   51.6207   22.0794 H   0  0  0  0  0  0
    5.3909   53.4274   28.7784 H   0  0  0  0  0  0
    4.5026   54.9146   28.6998 H   0  0  0  0  0  0
    3.4217   52.0937   28.2820 H   0  0  0  0  0  0
    2.9968   53.2117   29.5525 H   0  0  0  0  0  0
    1.2060   53.1625   27.8512 H   0  0  0  0  0  0
    1.9479   54.7405   27.8858 H   0  0  0  0  0  0
    1.7478   54.1921   25.5690 H   0  0  0  0  0  0
    2.2745   52.5559   25.7955 H   0  0  0  0  0  0
  1  2  1  0  0  0
  1 38  1  0  0  0
  1 39  1  0  0  0
  1 40  1  0  0  0
  2  3  1  0  0  0
  2 41  1  0  0  0
  2 42  1  0  0  0
  3  4  1  0  0  0
  4  5  2  0  0  0
  4  6  1  0  0  0
  6  7  1  0  0  0
  6 12  1  0  0  0
  6  8  1  0  0  0
  8  9  1  0  0  0
  8 10  1  0  0  0
  8 17  1  0  0  0
 10 11  1  0  0  0
 11 16  1  0  0  0
 11 12  2  0  0  0
 12 13  1  0  0  0
 13 14  1  0  0  0
 13 43  1  0  0  0
 13 44  1  0  0  0
 14 15  1  0  0  0
 14 45  1  0  0  0
 14 46  1  0  0  0
 15 16  1  0  0  0
 15 47  1  0  0  0
 15 48  1  0  0  0
 16 49  1  0  0  0
 16 50  1  0  0  0
 17 18  1  0  0  0
 17 51  1  0  0  0
 18 19  2  0  0  0
 18 20  1  0  0  0
 20 21  1  0  0  0
 20 22  1  0  0  0
 20 23  1  0  0  0
 22 52  1  0  0  0
 22 53  1  0  0  0
 22 54  1  0  0  0
 23 24  1  0  0  0
 24 28  1  0  0  0
 24 25  2  0  0  0
 25 26  1  0  0  0
 26 27  2  0  0  0
 27 33  1  0  0  0
 27 28  1  0  0  0
 28 29  1  0  0  0
 29 37  1  0  0  0
 29 30  2  0  0  0
 30 31  1  0  0  0
 30 34  1  0  0  0
 31 32  2  0  0  0
 31 33  1  0  0  0
 34 35  1  0  0  0
 34 55  1  0  0  0
 34 56  1  0  0  0
 35 36  1  0  0  0
 35 57  1  0  0  0
 35 58  1  0  0  0
 36 37  1  0  0  0
 36 59  1  0  0  0
 36 60  1  0  0  0
 37 61  1  0  0  0
 37 62  1  0  0  0
M  CHG  1  33  -1
M  END
> <i_i_glide_confnum>
67

> <i_i_glide_lignum>
3331

> <i_i_glide_posenum>
364

> <i_i_glide_rotatable_bonds>
8

> <i_m_Source_File_Index>
1215

> <b_m_subgroup_collapsed>
0

> <r_i_docking_score>
-5.10283

> <r_i_glide_ecoul>
-2.9339

> <r_i_glide_eff_state_penalty>
0

> <r_i_glide_einternal>
7.63264

> <r_i_glide_emodel>
-56.4884

> <r_i_glide_energy>
-44.7325

> <r_i_glide_erotb>
0.485306

> <r_i_glide_esite>
-0.00398679

> <r_i_glide_evdw>
-41.7986

> <r_i_glide_gscore>
-5.10283

> <r_i_glide_hbond>
-0.0855979

> <r_i_glide_ligand_efficiency>
-0.150083

> <r_i_glide_ligand_efficiency_ln>
-1.12736

> <r_i_glide_ligand_efficiency_sa>
-0.486211

> <r_i_glide_lipo>
-1.92194

> <r_i_glide_metal>
0

> <r_i_glide_rewards>
-1.04659

> <s_i_glide_gridfile>
wee1_glide-grid

> <s_m_Source_File>
wee1_decoys_glide_SP.sdf

> <s_m_Source_Path>
/Users/zhangxujun/Desktop

> <s_m_entry_id>
1490

> <s_m_entry_name>
wee1_decoys_glide_SP.1215

> <s_m_subgroup_title>
wee1_decoys_glide_SP

> <s_m_subgroupid>
wee1_decoys_glide_SP


$$$$
