ZINC36017138_5752
                    3D
 Schrodinger Suite 2024-2.
 79 81  0  0  1  0            999 V2000
    0.9445   48.4612   13.3516 C   0  0  0  0  0  0
    1.0749   47.0280   13.8944 C   0  0  0  0  0  0
    2.1416   46.8651   14.9968 C   0  0  0  0  0  0
    1.9032   47.6970   16.1776 N   0  0  0  0  0  0
    0.9852   47.4669   17.1311 C   0  0  0  0  0  0
    0.2993   46.4390   17.1157 O   0  0  0  0  0  0
    0.9229   48.3883   18.1347 N   0  0  0  0  0  0
    0.0534   48.1162   19.2929 C   0  0  0  0  0  0
    0.8551   48.3985   20.5762 C   0  0  0  0  0  0
    1.4346   49.7436   20.6157 N   0  0  0  0  0  0
    2.2961   49.9408   19.4400 C   0  0  0  0  0  0
    1.5403   49.7418   18.0971 C   0  0  2  0  0  0
    2.2863   49.8137   17.3050 H   0  0  0  0  0  0
    0.5321   50.8761   17.8130 C   0  0  0  0  0  0
    2.1620   49.9610   21.8788 C   0  0  0  0  0  0
    1.9038   51.3304   22.5468 C   0  0  0  0  0  0
    2.6595   52.4564   22.3585 C   0  0  0  0  0  0
    2.3037   53.7059   23.1883 C   0  0  1  0  0  0
    2.5784   54.6360   22.6867 H   0  0  0  0  0  0
    0.8400   53.6968   23.3283 N   0  0  0  0  0  0
    0.0930   52.5937   23.5579 C   0  0  0  0  0  0
   -1.0556   52.7772   23.9657 O   0  0  0  0  0  0
    0.7085   51.3928   23.2736 N   0  0  0  0  0  0
   -0.0729   50.2179   23.7334 C   0  0  0  0  0  0
    0.4755   49.6119   25.0328 C   0  0  0  0  0  0
    3.0807   53.8551   24.5145 C   0  0  0  0  0  0
    2.5325   53.4486   25.7406 C   0  0  0  0  0  0
    3.2268   53.6236   26.9478 C   0  0  0  0  0  0
    4.4915   54.2019   26.9121 C   0  0  0  0  0  0
    5.0753   54.6017   25.7132 C   0  0  0  0  0  0
    4.3613   54.4169   24.5179 C   0  0  0  0  0  0
    6.3272   55.1743   25.7997 O   0  0  0  0  0  0
    6.9599   55.6175   24.6103 C   0  0  0  0  0  0
    2.7410   53.2537   28.1886 O   0  0  0  0  0  0
    1.4863   52.5848   28.2692 C   0  0  0  0  0  0
    3.9035   52.5366   21.5467 C   0  0  0  0  0  0
    4.6209   51.5720   21.2815 O   0  0  0  0  0  0
    4.1586   53.7944   21.0982 O   0  0  0  0  0  0
    5.2338   54.0865   20.2089 C   0  0  0  0  0  0
    6.2538   54.9934   20.9047 C   0  0  0  0  0  0
    0.1987   48.5081   12.5569 H   0  0  0  0  0  0
    1.8896   48.8178   12.9417 H   0  0  0  0  0  0
    0.6346   49.1554   14.1342 H   0  0  0  0  0  0
    0.1065   46.6930   14.2705 H   0  0  0  0  0  0
    1.3159   46.3566   13.0707 H   0  0  0  0  0  0
    2.2576   45.8164   15.2773 H   0  0  0  0  0  0
    3.1087   47.1882   14.6091 H   0  0  0  0  0  0
    2.5765   48.4413   16.3350 H   0  0  0  0  0  0
   -0.8237   48.7648   19.2614 H   0  0  0  0  0  0
   -0.3009   47.0825   19.3249 H   0  0  0  0  0  0
    0.1956   48.2225   21.4207 H   0  0  0  0  0  0
    1.6872   47.6952   20.6190 H   0  0  0  0  0  0
    2.7516   50.9310   19.4475 H   0  0  0  0  0  0
    3.1073   49.2112   19.4749 H   0  0  0  0  0  0
    1.0428   51.8395   17.7871 H   0  0  0  0  0  0
    0.0365   50.7392   16.8522 H   0  0  0  0  0  0
   -0.2250   50.9520   18.5931 H   0  0  0  0  0  0
    1.9495   49.1811   22.6088 H   0  0  0  0  0  0
    3.2226   49.8013   21.7178 H   0  0  0  0  0  0
    0.4298   54.5355   23.7091 H   0  0  0  0  0  0
   -1.1184   50.4571   23.9315 H   0  0  0  0  0  0
   -0.1359   49.4679   22.9524 H   0  0  0  0  0  0
   -0.1052   48.7413   25.3375 H   0  0  0  0  0  0
    1.5046   49.2849   24.9126 H   0  0  0  0  0  0
    0.4361   50.3303   25.8517 H   0  0  0  0  0  0
    1.5550   53.0032   25.7605 H   0  0  0  0  0  0
    5.0341   54.3413   27.8340 H   0  0  0  0  0  0
    4.7887   54.7204   23.5747 H   0  0  0  0  0  0
    7.8962   56.0969   24.8676 H   0  0  0  0  0  0
    7.1844   54.7804   23.9515 H   0  0  0  0  0  0
    6.3530   56.3500   24.0811 H   0  0  0  0  0  0
    1.2666   52.3542   29.3110 H   0  0  0  0  0  0
    0.6687   53.2025   27.8933 H   0  0  0  0  0  0
    1.5003   51.6411   27.7218 H   0  0  0  0  0  0
    5.7188   53.1888   19.8222 H   0  0  0  0  0  0
    4.8199   54.6080   19.3443 H   0  0  0  0  0  0
    7.0579   55.2656   20.2205 H   0  0  0  0  0  0
    5.7899   55.9152   21.2549 H   0  0  0  0  0  0
    6.7059   54.4962   21.7607 H   0  0  0  0  0  0
  1  2  1  0  0  0
  1 41  1  0  0  0
  1 42  1  0  0  0
  1 43  1  0  0  0
  2  3  1  0  0  0
  2 44  1  0  0  0
  2 45  1  0  0  0
  3  4  1  0  0  0
  3 46  1  0  0  0
  3 47  1  0  0  0
  4  5  1  0  0  0
  4 48  1  0  0  0
  5  6  2  0  0  0
  5  7  1  0  0  0
  7 12  1  0  0  0
  7  8  1  0  0  0
  8  9  1  0  0  0
  8 49  1  0  0  0
  8 50  1  0  0  0
  9 10  1  0  0  0
  9 51  1  0  0  0
  9 52  1  0  0  0
 10 11  1  0  0  0
 10 15  1  0  0  0
 11 12  1  0  0  0
 11 53  1  0  0  0
 11 54  1  0  0  0
 12 13  1  0  0  0
 12 14  1  0  0  0
 14 55  1  0  0  0
 14 56  1  0  0  0
 14 57  1  0  0  0
 15 16  1  0  0  0
 15 58  1  0  0  0
 15 59  1  0  0  0
 16 23  1  0  0  0
 16 17  2  0  0  0
 17 18  1  0  0  0
 17 36  1  0  0  0
 18 19  1  0  0  0
 18 20  1  0  0  0
 18 26  1  0  0  0
 20 21  1  0  0  0
 20 60  1  0  0  0
 21 22  2  0  0  0
 21 23  1  0  0  0
 23 24  1  0  0  0
 24 25  1  0  0  0
 24 61  1  0  0  0
 24 62  1  0  0  0
 25 63  1  0  0  0
 25 64  1  0  0  0
 25 65  1  0  0  0
 26 31  2  0  0  0
 26 27  1  0  0  0
 27 28  2  0  0  0
 27 66  1  0  0  0
 28 29  1  0  0  0
 28 34  1  0  0  0
 29 30  2  0  0  0
 29 67  1  0  0  0
 30 31  1  0  0  0
 30 32  1  0  0  0
 31 68  1  0  0  0
 32 33  1  0  0  0
 33 69  1  0  0  0
 33 70  1  0  0  0
 33 71  1  0  0  0
 34 35  1  0  0  0
 35 72  1  0  0  0
 35 73  1  0  0  0
 35 74  1  0  0  0
 36 37  2  0  0  0
 36 38  1  0  0  0
 38 39  1  0  0  0
 39 40  1  0  0  0
 39 75  1  0  0  0
 39 76  1  0  0  0
 40 77  1  0  0  0
 40 78  1  0  0  0
 40 79  1  0  0  0
M  END
> <i_i_glide_confnum>
107

> <i_i_glide_lignum>
5753

> <i_i_glide_posenum>
322

> <i_i_glide_rotatable_bonds>
13

> <i_m_Source_File_Index>
1758

> <b_m_subgroup_collapsed>
0

> <r_i_docking_score>
-5.42055

> <r_i_glide_ecoul>
-5.67296

> <r_i_glide_eff_state_penalty>
0

> <r_i_glide_einternal>
19.3009

> <r_i_glide_emodel>
-55.2331

> <r_i_glide_energy>
-47.8899

> <r_i_glide_erotb>
0.583663

> <r_i_glide_esite>
-0.180524

> <r_i_glide_evdw>
-42.2169

> <r_i_glide_gscore>
-5.42055

> <r_i_glide_hbond>
-0.181331

> <r_i_glide_ligand_efficiency>
-0.142646

> <r_i_glide_ligand_efficiency_ln>
-1.16883

> <r_i_glide_ligand_efficiency_sa>
-0.479573

> <r_i_glide_lipo>
-2.36242

> <r_i_glide_metal>
0

> <r_i_glide_rewards>
-0.318143

> <s_i_glide_gridfile>
wee1_glide-grid

> <s_m_Source_File>
wee1_decoys_glide_SP.sdf

> <s_m_Source_Path>
/Users/zhangxujun/Desktop

> <s_m_entry_id>
2033

> <s_m_entry_name>
wee1_decoys_glide_SP.1758

> <s_m_subgroup_title>
wee1_decoys_glide_SP

> <s_m_subgroupid>
wee1_decoys_glide_SP


$$$$
