ZINC39695994_181
                    3D
 Schrodinger Suite 2024-2.
 73 76  0  0  1  0            999 V2000
   -7.3621   50.2466   20.8584 C   0  0  0  0  0  0
   -5.9699   49.7658   21.3071 C   0  0  0  0  0  0
   -5.7007   49.7764   22.8129 C   0  0  0  0  0  0
   -6.4957   50.5007   23.7096 C   0  0  0  0  0  0
   -6.2015   50.4929   25.0710 C   0  0  0  0  0  0
   -5.1106   49.7645   25.5506 C   0  0  0  0  0  0
   -4.3177   49.0391   24.6551 C   0  0  0  0  0  0
   -4.6100   49.0488   23.2942 C   0  0  0  0  0  0
   -4.7626   49.7991   27.0450 C   0  0  1  0  0  0
   -5.3450   50.5946   27.5180 H   0  0  0  0  0  0
   -5.1624   48.4880   27.7416 C   0  0  0  0  0  0
   -3.3532   50.0968   27.3051 N   0  0  0  0  0  0
   -2.7172   51.2321   26.9873 C   0  0  0  0  0  0
   -3.2857   52.2175   26.5109 O   0  0  0  0  0  0
   -1.2069   51.2377   27.3122 C   0  0  2  0  0  0
   -1.0178   50.4967   28.0915 H   0  0  0  0  0  0
   -0.7844   52.6139   27.8433 C   0  0  0  0  0  0
    0.6273   52.6927   27.4759 N   0  0  0  0  0  0
    1.0264   51.5806   26.6017 C   0  0  0  0  0  0
   -0.2918   50.9557   26.0917 C   0  0  0  0  0  0
   -0.2437   49.4408   25.7606 C   0  0  0  0  0  0
    0.7465   49.0896   24.6362 C   0  0  0  0  0  0
    0.4003   49.9116   23.3728 N   0  3  0  0  0  0
    0.2527   51.4324   23.6112 C   0  0  0  0  0  0
   -0.7506   51.6471   24.7643 C   0  0  0  0  0  0
    1.4604   53.5990   28.0535 C   0  0  0  0  0  0
    1.1064   54.3375   28.9745 O   0  0  0  0  0  0
    2.8449   53.7577   27.4802 C   0  0  0  0  0  0
    2.9904   54.0092   26.1115 C   0  0  0  0  0  0
    4.2476   54.1824   25.5492 C   0  0  0  0  0  0
    5.3986   54.1142   26.3456 C   0  0  0  0  0  0
    5.2530   53.9123   27.7190 C   0  0  0  0  0  0
    3.9913   53.7253   28.2927 C   0  0  0  0  0  0
    3.9040   53.5112   29.6475 O   0  0  0  0  0  0
    4.1141   52.1589   30.0294 C   0  0  0  0  0  0
    6.6819   54.2257   25.8509 O   0  0  0  0  0  0
    6.8554   54.2302   24.4361 C   0  0  0  0  0  0
   -7.4736   50.1451   19.7779 H   0  0  0  0  0  0
   -7.5266   51.2972   21.1005 H   0  0  0  0  0  0
   -8.1546   49.6603   21.3259 H   0  0  0  0  0  0
   -5.8329   48.7450   20.9444 H   0  0  0  0  0  0
   -5.2035   50.3736   20.8209 H   0  0  0  0  0  0
   -7.3356   51.0844   23.3669 H   0  0  0  0  0  0
   -6.8163   51.0671   25.7476 H   0  0  0  0  0  0
   -3.4728   48.4721   25.0165 H   0  0  0  0  0  0
   -3.9855   48.4881   22.6147 H   0  0  0  0  0  0
   -6.2250   48.2820   27.6189 H   0  0  0  0  0  0
   -4.6106   47.6358   27.3412 H   0  0  0  0  0  0
   -4.9599   48.5314   28.8124 H   0  0  0  0  0  0
   -2.8073   49.3740   27.7786 H   0  0  0  0  0  0
   -1.2951   53.3995   27.2826 H   0  0  0  0  0  0
   -0.9413   52.6712   28.9221 H   0  0  0  0  0  0
    1.5050   50.8513   27.2588 H   0  0  0  0  0  0
    1.7515   51.8000   25.8248 H   0  0  0  0  0  0
    0.0684   48.8873   26.6493 H   0  0  0  0  0  0
   -1.2383   49.0540   25.5374 H   0  0  0  0  0  0
    1.7846   49.2968   24.8816 H   0  0  0  0  0  0
    0.6873   48.0386   24.3506 H   0  0  0  0  0  0
    1.0984   49.7425   22.6600 H   0  0  0  0  0  0
    1.2512   51.8250   23.8023 H   0  0  0  0  0  0
   -0.1078   51.8516   22.6706 H   0  0  0  0  0  0
   -1.7429   51.3138   24.4552 H   0  0  0  0  0  0
   -0.8558   52.7215   24.9278 H   0  0  0  0  0  0
    2.1237   54.0793   25.4680 H   0  0  0  0  0  0
    4.3051   54.3670   24.4879 H   0  0  0  0  0  0
    6.1334   53.8776   28.3429 H   0  0  0  0  0  0
    4.0391   52.0716   31.1129 H   0  0  0  0  0  0
    3.3623   51.5034   29.5871 H   0  0  0  0  0  0
    5.1043   51.8072   29.7338 H   0  0  0  0  0  0
    7.9024   54.0919   24.2006 H   0  0  0  0  0  0
    6.3260   53.4100   23.9494 H   0  0  0  0  0  0
    6.5339   55.1779   23.9999 H   0  0  0  0  0  0
   -0.4752   49.5644   23.0050 H   0  0  0  0  0  0
  1  2  1  0  0  0
  1 38  1  0  0  0
  1 39  1  0  0  0
  1 40  1  0  0  0
  2  3  1  0  0  0
  2 41  1  0  0  0
  2 42  1  0  0  0
  3  8  2  0  0  0
  3  4  1  0  0  0
  4  5  2  0  0  0
  4 43  1  0  0  0
  5  6  1  0  0  0
  5 44  1  0  0  0
  6  7  2  0  0  0
  6  9  1  0  0  0
  7  8  1  0  0  0
  7 45  1  0  0  0
  8 46  1  0  0  0
  9 10  1  0  0  0
  9 11  1  0  0  0
  9 12  1  0  0  0
 11 47  1  0  0  0
 11 48  1  0  0  0
 11 49  1  0  0  0
 12 13  1  0  0  0
 12 50  1  0  0  0
 13 14  2  0  0  0
 13 15  1  0  0  0
 15 16  1  0  0  0
 15 20  1  0  0  0
 15 17  1  0  0  0
 17 18  1  0  0  0
 17 51  1  0  0  0
 17 52  1  0  0  0
 18 19  1  0  0  0
 18 26  1  0  0  0
 19 20  1  0  0  0
 19 53  1  0  0  0
 19 54  1  0  0  0
 20 25  1  0  0  0
 20 21  1  0  0  0
 21 22  1  0  0  0
 21 55  1  0  0  0
 21 56  1  0  0  0
 22 23  1  0  0  0
 22 57  1  0  0  0
 22 58  1  0  0  0
 23 24  1  0  0  0
 23 59  1  0  0  0
 23 73  1  0  0  0
 24 25  1  0  0  0
 24 60  1  0  0  0
 24 61  1  0  0  0
 25 62  1  0  0  0
 25 63  1  0  0  0
 26 27  2  0  0  0
 26 28  1  0  0  0
 28 33  2  0  0  0
 28 29  1  0  0  0
 29 30  2  0  0  0
 29 64  1  0  0  0
 30 31  1  0  0  0
 30 65  1  0  0  0
 31 32  2  0  0  0
 31 36  1  0  0  0
 32 33  1  0  0  0
 32 66  1  0  0  0
 33 34  1  0  0  0
 34 35  1  0  0  0
 35 67  1  0  0  0
 35 68  1  0  0  0
 35 69  1  0  0  0
 36 37  1  0  0  0
 37 70  1  0  0  0
 37 71  1  0  0  0
 37 72  1  0  0  0
M  CHG  1  23   1
M  END
> <i_i_glide_confnum>
10

> <i_i_glide_lignum>
182

> <i_i_glide_posenum>
60

> <i_i_glide_rotatable_bonds>
9

> <i_m_Source_File_Index>
1354

> <b_m_subgroup_collapsed>
0

> <r_i_docking_score>
-5.24201

> <r_i_glide_ecoul>
-7.33653

> <r_i_glide_eff_state_penalty>
0

> <r_i_glide_einternal>
10.1988

> <r_i_glide_emodel>
-53.6961

> <r_i_glide_energy>
-43.6409

> <r_i_glide_erotb>
0.526775

> <r_i_glide_esite>
-0.160079

> <r_i_glide_evdw>
-36.3044

> <r_i_glide_gscore>
-5.24201

> <r_i_glide_hbond>
-0.16

> <r_i_glide_ligand_efficiency>
-0.149772

> <r_i_glide_ligand_efficiency_ln>
-1.15074

> <r_i_glide_ligand_efficiency_sa>
-0.489913

> <r_i_glide_lipo>
-2.01593

> <r_i_glide_metal>
0

> <r_i_glide_rewards>
-0.517073

> <s_i_glide_gridfile>
wee1_glide-grid

> <s_m_Source_File>
wee1_decoys_glide_SP.sdf

> <s_m_Source_Path>
/Users/zhangxujun/Desktop

> <s_m_entry_id>
1629

> <s_m_entry_name>
wee1_decoys_glide_SP.1354

> <s_m_subgroup_title>
wee1_decoys_glide_SP

> <s_m_subgroupid>
wee1_decoys_glide_SP


$$$$
