ZINC35352454_5999
                    3D
 Schrodinger Suite 2024-2.
 72 76  0  0  1  0            999 V2000
   -3.3951   51.4194   25.2244 C   0  0  0  0  0  0
   -2.2786   50.5623   24.5976 C   0  0  0  0  0  0
   -0.9497   50.7859   24.8039 C   0  0  0  0  0  0
    0.1239   49.9412   24.0883 C   0  0  1  0  0  0
    0.9521   49.7598   24.7770 H   0  0  0  0  0  0
   -0.5177   48.6516   23.7569 N   0  0  0  0  0  0
   -1.8489   48.4142   23.5517 C   0  0  0  0  0  0
   -2.2311   46.8965   22.9579 S   0  0  0  0  0  0
   -2.7131   49.4630   23.8598 N   0  0  0  0  0  0
   -4.1232   49.3142   23.4234 C   0  0  0  0  0  0
    0.7957   50.6569   22.9020 C   0  0  0  0  0  0
    1.9069   51.4623   23.1505 C   0  0  0  0  0  0
    2.5961   52.0770   22.1134 C   0  0  0  0  0  0
    2.1953   51.8826   20.7871 C   0  0  0  0  0  0
    1.0809   51.0766   20.5273 C   0  0  0  0  0  0
    0.3863   50.4666   21.5748 C   0  0  0  0  0  0
    2.8568   52.4364   19.6708 N   0  0  0  0  0  0
    3.9048   53.2934   19.6089 C   0  0  0  0  0  0
    4.4764   53.7560   20.5994 O   0  0  0  0  0  0
    4.3920   53.7442   18.1963 C   0  0  0  0  0  0
    4.0565   55.2605   18.0206 C   0  0  0  0  0  0
    4.5865   55.7655   16.6507 C   0  0  2  0  0  0
    3.9119   54.9615   15.5076 C   0  0  0  0  0  0
    4.2429   53.4536   15.6586 C   0  0  2  0  0  0
    3.7121   52.9492   17.0261 C   0  0  0  0  0  0
    5.7800   53.2501   15.5960 C   0  0  0  0  0  0
    6.4626   54.0538   16.7336 C   0  0  1  0  0  0
    6.1232   55.5614   16.5816 C   0  0  0  0  0  0
    5.9409   53.5474   18.1053 C   0  0  0  0  0  0
   -0.4526   51.9037   25.6068 C   0  0  0  0  0  0
    0.0799   52.8965   25.1094 O   0  0  0  0  0  0
   -0.6254   51.6886   26.9354 O   0  0  0  0  0  0
   -0.2628   52.6547   27.9226 C   0  0  0  0  0  0
    1.2626   52.8059   28.1353 C   0  0  0  0  0  0
    1.5644   53.9314   29.1414 C   0  0  0  0  0  0
    1.9164   51.4842   28.5734 C   0  0  0  0  0  0
   -3.0414   52.1393   25.9599 H   0  0  0  0  0  0
   -3.9143   51.9912   24.4571 H   0  0  0  0  0  0
   -4.1204   50.7902   25.7433 H   0  0  0  0  0  0
    0.0764   47.8684   23.5296 H   0  0  0  0  0  0
   -4.2033   48.8866   22.4237 H   0  0  0  0  0  0
   -4.6650   48.6687   24.1164 H   0  0  0  0  0  0
   -4.6555   50.2629   23.3664 H   0  0  0  0  0  0
    2.2889   51.6058   24.1507 H   0  0  0  0  0  0
    3.4513   52.6770   22.3796 H   0  0  0  0  0  0
    0.7545   50.9063   19.5117 H   0  0  0  0  0  0
   -0.4627   49.8394   21.3460 H   0  0  0  0  0  0
    2.5036   52.1305   18.7775 H   0  0  0  0  0  0
    2.9786   55.4308   18.0837 H   0  0  0  0  0  0
    4.4995   55.8556   18.8213 H   0  0  0  0  0  0
    4.3520   56.8252   16.5380 H   0  0  0  0  0  0
    2.8324   55.1136   15.5249 H   0  0  0  0  0  0
    4.2514   55.3283   14.5376 H   0  0  0  0  0  0
    3.7690   52.8888   14.8536 H   0  0  0  0  0  0
    3.9046   51.8774   17.1171 H   0  0  0  0  0  0
    2.6270   53.0679   17.0489 H   0  0  0  0  0  0
    6.0221   52.1892   15.6863 H   0  0  0  0  0  0
    6.1668   53.5665   14.6256 H   0  0  0  0  0  0
    7.5435   53.9131   16.6805 H   0  0  0  0  0  0
    6.5116   55.9436   15.6363 H   0  0  0  0  0  0
    6.6152   56.1401   17.3659 H   0  0  0  0  0  0
    6.4556   54.0887   18.9024 H   0  0  0  0  0  0
    6.2067   52.4965   18.2363 H   0  0  0  0  0  0
   -0.7221   52.3414   28.8607 H   0  0  0  0  0  0
   -0.7132   53.6162   27.6807 H   0  0  0  0  0  0
    1.7161   53.1015   27.1876 H   0  0  0  0  0  0
    1.1447   53.7128   30.1242 H   0  0  0  0  0  0
    1.1464   54.8811   28.8073 H   0  0  0  0  0  0
    2.6394   54.0736   29.2618 H   0  0  0  0  0  0
    1.5032   51.1360   29.5199 H   0  0  0  0  0  0
    1.7593   50.6978   27.8340 H   0  0  0  0  0  0
    2.9932   51.6021   28.7025 H   0  0  0  0  0  0
  1  2  1  0  0  0
  1 37  1  0  0  0
  1 38  1  0  0  0
  1 39  1  0  0  0
  2  9  1  0  0  0
  2  3  2  0  0  0
  3  4  1  0  0  0
  3 30  1  0  0  0
  4  5  1  0  0  0
  4  6  1  0  0  0
  4 11  1  0  0  0
  6  7  1  0  0  0
  6 40  1  0  0  0
  7  8  2  0  0  0
  7  9  1  0  0  0
  9 10  1  0  0  0
 10 41  1  0  0  0
 10 42  1  0  0  0
 10 43  1  0  0  0
 11 16  2  0  0  0
 11 12  1  0  0  0
 12 13  2  0  0  0
 12 44  1  0  0  0
 13 14  1  0  0  0
 13 45  1  0  0  0
 14 15  2  0  0  0
 14 17  1  0  0  0
 15 16  1  0  0  0
 15 46  1  0  0  0
 16 47  1  0  0  0
 17 18  1  0  0  0
 17 48  1  0  0  0
 18 19  2  0  0  0
 18 20  1  0  0  0
 20 25  1  0  0  0
 20 29  1  0  0  0
 20 21  1  0  0  0
 21 22  1  0  0  0
 21 49  1  0  0  0
 21 50  1  0  0  0
 22 28  1  0  0  0
 22 23  1  0  0  0
 22 51  1  0  0  0
 23 24  1  0  0  0
 23 52  1  0  0  0
 23 53  1  0  0  0
 24 25  1  0  0  0
 24 26  1  0  0  0
 24 54  1  0  0  0
 25 55  1  0  0  0
 25 56  1  0  0  0
 26 27  1  0  0  0
 26 57  1  0  0  0
 26 58  1  0  0  0
 27 28  1  0  0  0
 27 29  1  0  0  0
 27 59  1  0  0  0
 28 60  1  0  0  0
 28 61  1  0  0  0
 29 62  1  0  0  0
 29 63  1  0  0  0
 30 31  2  0  0  0
 30 32  1  0  0  0
 32 33  1  0  0  0
 33 34  1  0  0  0
 33 64  1  0  0  0
 33 65  1  0  0  0
 34 35  1  0  0  0
 34 36  1  0  0  0
 34 66  1  0  0  0
 35 67  1  0  0  0
 35 68  1  0  0  0
 35 69  1  0  0  0
 36 70  1  0  0  0
 36 71  1  0  0  0
 36 72  1  0  0  0
M  END
> <i_i_glide_confnum>
125

> <i_i_glide_lignum>
6000

> <i_i_glide_posenum>
381

> <i_i_glide_rotatable_bonds>
8

> <i_m_Source_File_Index>
144

> <b_m_subgroup_collapsed>
0

> <r_i_docking_score>
-2.05481

> <r_i_glide_ecoul>
-0.961729

> <r_i_glide_eff_state_penalty>
0

> <r_i_glide_einternal>
6.32759

> <r_i_glide_emodel>
-33.0962

> <r_i_glide_energy>
-31.8489

> <r_i_glide_erotb>
0.580836

> <r_i_glide_esite>
-0.096243

> <r_i_glide_evdw>
-30.8871

> <r_i_glide_gscore>
-2.05481

> <r_i_glide_hbond>
0

> <r_i_glide_ligand_efficiency>
-0.0587089

> <r_i_glide_ligand_efficiency_ln>
-0.451077

> <r_i_glide_ligand_efficiency_sa>
-0.192041

> <r_i_glide_lipo>
-0.821392

> <r_i_glide_metal>
0

> <r_i_glide_rewards>
-0.0293976

> <s_i_glide_gridfile>
wee1_glide-grid

> <s_m_Source_File>
wee1_decoys_glide_SP.sdf

> <s_m_Source_Path>
/Users/zhangxujun/Desktop

> <s_m_entry_id>
419

> <s_m_entry_name>
wee1_decoys_glide_SP.144

> <s_m_subgroup_title>
wee1_decoys_glide_SP

> <s_m_subgroupid>
wee1_decoys_glide_SP


$$$$
