ZINC39675308_5109
                    3D
 Schrodinger Suite 2024-2.
 78 81  0  0  1  0            999 V2000
    4.5305   53.4630   23.2252 C   0  0  0  0  0  0
    3.1312   53.3439   23.8656 C   0  0  1  0  0  0
    3.1128   52.5053   24.5605 H   0  0  0  0  0  0
    2.7508   54.5888   24.6856 C   0  0  0  0  0  0
    3.6890   54.9410   25.8561 C   0  0  0  0  0  0
    3.4628   54.1553   27.1440 C   0  0  0  0  0  0
    2.1876   54.0257   27.7079 C   0  0  0  0  0  0
    2.0117   53.3245   28.8984 C   0  0  0  0  0  0
    3.1082   52.7770   29.5584 C   0  0  0  0  0  0
    4.3877   52.9204   28.9993 C   0  0  0  0  0  0
    4.5623   53.6000   27.7993 C   0  0  0  0  0  0
    2.8389   52.1175   30.7403 O   0  0  0  0  0  0
    3.9091   51.8741   31.6466 C   0  0  0  0  0  0
    2.1877   53.0354   22.7948 N   0  0  0  0  0  0
    0.8633   52.8126   22.8738 C   0  0  0  0  0  0
    0.1961   53.0841   23.8677 O   0  0  0  0  0  0
    0.1591   52.0856   21.7021 C   0  0  1  0  0  0
   -0.8150   52.5538   21.5665 H   0  0  0  0  0  0
    0.9479   52.3328   20.3933 C   0  0  0  0  0  0
    0.6188   51.2000   19.5422 N   0  0  0  0  0  0
   -0.0608   50.1492   20.3050 C   0  0  0  0  0  0
    0.0631   50.5322   21.8010 C   0  0  0  0  0  0
    1.3439   49.8208   22.3549 C   0  0  0  0  0  0
    1.5053   49.8826   23.8944 C   0  0  0  0  0  0
    0.2332   49.3357   24.5765 N   0  3  0  0  0  0
   -1.0613   50.0298   24.1008 C   0  0  0  0  0  0
   -1.1557   49.9427   22.5662 C   0  0  0  0  0  0
    0.7861   51.1242   18.1911 C   0  0  0  0  0  0
    0.3090   50.1587   17.5844 O   0  0  0  0  0  0
    1.5249   52.2520   17.3642 C   0  0  0  0  0  0
    1.9269   51.6801   15.9545 C   0  0  0  0  0  0
    2.4527   52.7392   14.9541 C   0  0  0  0  0  0
    1.4892   53.9313   14.8158 C   0  0  0  0  0  0
    1.1005   54.5207   16.1835 C   0  0  0  0  0  0
    0.5414   53.4434   17.1391 C   0  0  0  0  0  0
    2.8400   52.6767   18.0990 C   0  0  0  0  0  0
    5.3214   53.4759   23.9754 H   0  0  0  0  0  0
    4.7468   52.6462   22.5344 H   0  0  0  0  0  0
    4.6217   54.3927   22.6594 H   0  0  0  0  0  0
    1.7388   54.4964   25.0647 H   0  0  0  0  0  0
    2.6994   55.4390   24.0223 H   0  0  0  0  0  0
    3.5175   55.9875   26.0811 H   0  0  0  0  0  0
    4.7366   54.9091   25.5592 H   0  0  0  0  0  0
    1.3219   54.4757   27.2510 H   0  0  0  0  0  0
    1.0196   53.2238   29.3243 H   0  0  0  0  0  0
    5.2577   52.5004   29.4720 H   0  0  0  0  0  0
    5.5589   53.6954   27.3858 H   0  0  0  0  0  0
    3.5301   51.2907   32.4847 H   0  0  0  0  0  0
    4.3031   52.8136   32.0300 H   0  0  0  0  0  0
    4.7128   51.2967   31.2002 H   0  0  0  0  0  0
    2.6200   52.8816   21.8940 H   0  0  0  0  0  0
    0.6767   53.2960   19.9761 H   0  0  0  0  0  0
    2.0211   52.2273   20.5536 H   0  0  0  0  0  0
    0.2456   49.1242   20.0854 H   0  0  0  0  0  0
   -1.1137   50.2173   20.0213 H   0  0  0  0  0  0
    1.3126   48.7626   22.0838 H   0  0  0  0  0  0
    2.2407   50.1902   21.8532 H   0  0  0  0  0  0
    2.3391   49.2957   24.2426 H   0  0  0  0  0  0
    1.7012   50.8620   24.3201 H   0  0  0  0  0  0
    0.1666   48.3404   24.4077 H   0  0  0  0  0  0
   -1.8760   49.5000   24.5990 H   0  0  0  0  0  0
   -1.0369   51.0514   24.4796 H   0  0  0  0  0  0
   -2.0736   50.4210   22.2204 H   0  0  0  0  0  0
   -1.2760   48.8875   22.3118 H   0  0  0  0  0  0
    2.6765   50.8934   16.0592 H   0  0  0  0  0  0
    1.0565   51.2363   15.4631 H   0  0  0  0  0  0
    3.4422   53.0915   15.2503 H   0  0  0  0  0  0
    2.5966   52.2719   13.9779 H   0  0  0  0  0  0
    1.9342   54.7051   14.1905 H   0  0  0  0  0  0
    0.5874   53.6016   14.3002 H   0  0  0  0  0  0
    1.9690   54.9965   16.6378 H   0  0  0  0  0  0
    0.3577   55.3095   16.0489 H   0  0  0  0  0  0
   -0.3863   53.0695   16.6968 H   0  0  0  0  0  0
    0.2683   53.9365   18.0712 H   0  0  0  0  0  0
    3.5837   53.0850   17.4173 H   0  0  0  0  0  0
    2.6796   53.4639   18.8337 H   0  0  0  0  0  0
    3.3348   51.8363   18.5919 H   0  0  0  0  0  0
    0.3101   49.4343   25.5809 H   0  0  0  0  0  0
  1  2  1  0  0  0
  1 37  1  0  0  0
  1 38  1  0  0  0
  1 39  1  0  0  0
  2  3  1  0  0  0
  2  4  1  0  0  0
  2 14  1  0  0  0
  4  5  1  0  0  0
  4 40  1  0  0  0
  4 41  1  0  0  0
  5  6  1  0  0  0
  5 42  1  0  0  0
  5 43  1  0  0  0
  6 11  2  0  0  0
  6  7  1  0  0  0
  7  8  2  0  0  0
  7 44  1  0  0  0
  8  9  1  0  0  0
  8 45  1  0  0  0
  9 10  2  0  0  0
  9 12  1  0  0  0
 10 11  1  0  0  0
 10 46  1  0  0  0
 11 47  1  0  0  0
 12 13  1  0  0  0
 13 48  1  0  0  0
 13 49  1  0  0  0
 13 50  1  0  0  0
 14 15  1  0  0  0
 14 51  1  0  0  0
 15 16  2  0  0  0
 15 17  1  0  0  0
 17 18  1  0  0  0
 17 22  1  0  0  0
 17 19  1  0  0  0
 19 20  1  0  0  0
 19 52  1  0  0  0
 19 53  1  0  0  0
 20 21  1  0  0  0
 20 28  1  0  0  0
 21 22  1  0  0  0
 21 54  1  0  0  0
 21 55  1  0  0  0
 22 27  1  0  0  0
 22 23  1  0  0  0
 23 24  1  0  0  0
 23 56  1  0  0  0
 23 57  1  0  0  0
 24 25  1  0  0  0
 24 58  1  0  0  0
 24 59  1  0  0  0
 25 26  1  0  0  0
 25 60  1  0  0  0
 25 78  1  0  0  0
 26 27  1  0  0  0
 26 61  1  0  0  0
 26 62  1  0  0  0
 27 63  1  0  0  0
 27 64  1  0  0  0
 28 29  2  0  0  0
 28 30  1  0  0  0
 30 35  1  0  0  0
 30 31  1  0  0  0
 30 36  1  0  0  0
 31 32  1  0  0  0
 31 65  1  0  0  0
 31 66  1  0  0  0
 32 33  1  0  0  0
 32 67  1  0  0  0
 32 68  1  0  0  0
 33 34  1  0  0  0
 33 69  1  0  0  0
 33 70  1  0  0  0
 34 35  1  0  0  0
 34 71  1  0  0  0
 34 72  1  0  0  0
 35 73  1  0  0  0
 35 74  1  0  0  0
 36 75  1  0  0  0
 36 76  1  0  0  0
 36 77  1  0  0  0
M  CHG  1  25   1
M  END
> <i_i_glide_confnum>
275

> <i_i_glide_lignum>
5110

> <i_i_glide_posenum>
290

> <i_i_glide_rotatable_bonds>
9

> <i_m_Source_File_Index>
3573

> <b_m_subgroup_collapsed>
0

> <r_i_docking_score>
-4.21797

> <r_i_glide_ecoul>
-3.28811

> <r_i_glide_eff_state_penalty>
0

> <r_i_glide_einternal>
4.35119

> <r_i_glide_emodel>
-44.0452

> <r_i_glide_energy>
-32.5297

> <r_i_glide_erotb>
0.729725

> <r_i_glide_esite>
-0.0591392

> <r_i_glide_evdw>
-29.2415

> <r_i_glide_gscore>
-4.21797

> <r_i_glide_hbond>
-0.32

> <r_i_glide_ligand_efficiency>
-0.124058

> <r_i_glide_ligand_efficiency_ln>
-0.931869

> <r_i_glide_ligand_efficiency_sa>
-0.4019

> <r_i_glide_lipo>
-2.30199

> <r_i_glide_metal>
0

> <r_i_glide_rewards>
-0.311272

> <s_i_glide_gridfile>
wee1_glide-grid

> <s_m_Source_File>
wee1_decoys_glide_SP.sdf

> <s_m_Source_Path>
/Users/zhangxujun/Desktop

> <s_m_entry_id>
3848

> <s_m_entry_name>
wee1_decoys_glide_SP.3573

> <s_m_subgroup_title>
wee1_decoys_glide_SP

> <s_m_subgroupid>
wee1_decoys_glide_SP


$$$$
