ZINC07254202_1518
                    3D
 Schrodinger Suite 2024-2.
 54 57  0  0  1  0            999 V2000
    0.6818   52.4285   27.3945 C   0  0  0  0  0  0
    1.9253   53.3594   27.6226 C   0  0  0  0  0  0
    2.7128   52.5682   28.7533 C   0  0  0  0  0  0
    2.2268   52.0976   29.7827 O   0  0  0  0  0  0
    4.0473   52.6546   28.6765 N   0  0  0  0  0  0
    4.7832   53.4423   27.8102 C   0  0  0  0  0  0
    6.1186   53.6970   28.1125 C   0  0  0  0  0  0
    6.8764   54.5025   27.2792 C   0  0  0  0  0  0
    6.2858   55.1241   26.1847 C   0  0  0  0  0  0
    4.9403   54.8966   25.9081 C   0  0  0  0  0  0
    4.1838   53.9744   26.6586 C   0  0  0  0  0  0
    2.8148   53.6291   26.4074 N   0  0  0  0  0  0
    2.3050   53.6042   25.1215 C   0  0  0  0  0  0
    1.1044   53.6967   24.8822 O   0  0  0  0  0  0
    3.2383   53.5631   23.8770 C   0  0  0  0  0  0
    2.6919   52.9559   22.6398 N   0  0  0  0  0  0
    1.9731   51.6739   22.8083 C   0  0  0  0  0  0
    1.1412   51.3884   21.5331 C   0  0  1  0  0  0
    0.3665   52.1490   21.4203 H   0  0  0  0  0  0
    1.9861   51.3202   20.3790 O   0  0  0  0  0  0
    2.9212   52.3310   20.2958 C   0  0  0  0  0  0
    3.3467   53.0986   21.4045 C   0  0  0  0  0  0
    4.3646   54.0464   21.1920 C   0  0  0  0  0  0
    4.9468   54.2092   19.9351 C   0  0  0  0  0  0
    4.5166   53.4351   18.8610 C   0  0  0  0  0  0
    3.5041   52.4969   19.0411 C   0  0  0  0  0  0
    0.3728   50.0505   21.6481 C   0  0  0  0  0  0
   -0.2655   49.7962   22.6704 O   0  0  0  0  0  0
    0.4017   49.2233   20.5880 N   0  0  0  0  0  0
   -0.3112   47.9571   20.4729 C   0  0  0  0  0  0
    1.5373   54.7014   28.3060 C   0  0  0  0  0  0
    0.1727   52.1451   28.3187 H   0  0  0  0  0  0
   -0.0991   52.8967   26.8009 H   0  0  0  0  0  0
    0.9576   51.5054   26.8819 H   0  0  0  0  0  0
    4.5181   52.2357   29.4623 H   0  0  0  0  0  0
    6.5835   53.2967   28.9966 H   0  0  0  0  0  0
    7.9043   54.6972   27.5357 H   0  0  0  0  0  0
    6.8508   55.8073   25.5680 H   0  0  0  0  0  0
    4.5108   55.4564   25.0990 H   0  0  0  0  0  0
    3.3670   54.6139   23.6299 H   0  0  0  0  0  0
    4.2081   53.1296   24.1030 H   0  0  0  0  0  0
    2.7041   50.8712   22.9027 H   0  0  0  0  0  0
    1.3951   51.5688   23.7258 H   0  0  0  0  0  0
    4.7259   54.6746   21.9899 H   0  0  0  0  0  0
    5.7320   54.9374   19.7922 H   0  0  0  0  0  0
    4.9759   53.5459   17.8897 H   0  0  0  0  0  0
    3.2005   51.8705   18.2130 H   0  0  0  0  0  0
    0.9700   49.5115   19.8020 H   0  0  0  0  0  0
    0.3640   47.1873   20.1047 H   0  0  0  0  0  0
   -0.7332   47.6186   21.4199 H   0  0  0  0  0  0
   -1.1267   48.0576   19.7575 H   0  0  0  0  0  0
    1.0107   54.5549   29.2514 H   0  0  0  0  0  0
    2.4071   55.3277   28.5111 H   0  0  0  0  0  0
    0.8688   55.2890   27.6818 H   0  0  0  0  0  0
  1  2  1  0  0  0
  1 32  1  0  0  0
  1 33  1  0  0  0
  1 34  1  0  0  0
  2 12  1  0  0  0
  2  3  1  0  0  0
  2 31  1  0  0  0
  3  4  2  0  0  0
  3  5  1  0  0  0
  5  6  1  0  0  0
  5 35  1  0  0  0
  6 11  2  0  0  0
  6  7  1  0  0  0
  7  8  2  0  0  0
  7 36  1  0  0  0
  8  9  1  0  0  0
  8 37  1  0  0  0
  9 10  2  0  0  0
  9 38  1  0  0  0
 10 11  1  0  0  0
 10 39  1  0  0  0
 11 12  1  0  0  0
 12 13  1  0  0  0
 13 14  2  0  0  0
 13 15  1  0  0  0
 15 16  1  0  0  0
 15 40  1  0  0  0
 15 41  1  0  0  0
 16 22  1  0  0  0
 16 17  1  0  0  0
 17 18  1  0  0  0
 17 42  1  0  0  0
 17 43  1  0  0  0
 18 19  1  0  0  0
 18 20  1  0  0  0
 18 27  1  0  0  0
 20 21  1  0  0  0
 21 26  2  0  0  0
 21 22  1  0  0  0
 22 23  2  0  0  0
 23 24  1  0  0  0
 23 44  1  0  0  0
 24 25  2  0  0  0
 24 45  1  0  0  0
 25 26  1  0  0  0
 25 46  1  0  0  0
 26 47  1  0  0  0
 27 28  2  0  0  0
 27 29  1  0  0  0
 29 30  1  0  0  0
 29 48  1  0  0  0
 30 49  1  0  0  0
 30 50  1  0  0  0
 30 51  1  0  0  0
 31 52  1  0  0  0
 31 53  1  0  0  0
 31 54  1  0  0  0
M  END
> <i_i_glide_confnum>
31

> <i_i_glide_lignum>
1519

> <i_i_glide_posenum>
323

> <i_i_glide_rotatable_bonds>
5

> <i_m_Source_File_Index>
1046

> <b_m_subgroup_collapsed>
0

> <r_i_docking_score>
-5.80327

> <r_i_glide_ecoul>
0.410701

> <r_i_glide_eff_state_penalty>
0

> <r_i_glide_einternal>
6.51279

> <r_i_glide_emodel>
-53.0786

> <r_i_glide_energy>
-40.1441

> <r_i_glide_erotb>
0.471887

> <r_i_glide_esite>
0

> <r_i_glide_evdw>
-40.5548

> <r_i_glide_gscore>
-5.80327

> <r_i_glide_hbond>
-0.123648

> <r_i_glide_ligand_efficiency>
-0.193442

> <r_i_glide_ligand_efficiency_ln>
-1.31857

> <r_i_glide_ligand_efficiency_sa>
-0.601071

> <r_i_glide_lipo>
-2.54827

> <r_i_glide_metal>
0

> <r_i_glide_rewards>
-1.6371

> <s_i_glide_gridfile>
wee1_glide-grid

> <s_m_Source_File>
wee1_decoys_glide_SP.sdf

> <s_m_Source_Path>
/Users/zhangxujun/Desktop

> <s_m_entry_id>
1321

> <s_m_entry_name>
wee1_decoys_glide_SP.1046

> <s_m_subgroup_title>
wee1_decoys_glide_SP

> <s_m_subgroupid>
wee1_decoys_glide_SP


$$$$
