ZINC66122349_2577
                    3D
 Schrodinger Suite 2024-2.
 35 36  0  0  1  0            999 V2000
    6.6542   55.9638   24.7382 C   0  0  0  0  0  0
    6.0890   54.5241   24.7026 C   0  0  1  0  0  0
    6.9275   53.8297   24.7797 H   0  0  0  0  0  0
    5.2096   54.3186   25.9530 C   0  0  0  0  0  0
    3.8044   54.3191   25.8722 C   0  0  0  0  0  0
    3.0124   54.0970   26.9979 C   0  0  0  0  0  0
    3.6120   53.8981   28.2366 C   0  0  0  0  0  0
    4.9986   53.9088   28.3337 C   0  0  0  0  0  0
    5.7952   54.1080   27.2112 C   0  0  0  0  0  0
    7.5044   54.0967   27.4328 Cl  0  0  0  0  0  0
    2.6490   53.6520   29.6479 Cl  0  0  0  0  0  0
    5.3519   54.0965   23.4928 N   0  0  0  0  0  0
    5.5401   54.3463   22.1577 C   0  0  0  0  0  0
    6.7044   55.3082   21.4612 S   0  0  0  0  0  0
    4.6473   53.7553   21.3022 N   0  0  0  0  0  0
    3.7130   52.7647   21.6719 N   0  0  0  0  0  0
    2.6240   53.0612   22.4175 C   0  0  0  0  0  0
    2.2728   54.1969   22.7391 O   0  0  0  0  0  0
    1.9040   51.9067   22.8793 C   0  0  0  0  0  0
    1.8435   50.5884   22.4302 C   0  0  0  0  0  0
    0.9623   49.9183   23.2809 C   0  0  0  0  0  0
    0.4892   50.8544   24.1842 C   0  0  0  0  0  0
    1.0437   52.0655   23.9227 O   0  0  0  0  0  0
   -0.6077   50.7378   25.5013 Cl  0  0  0  0  0  0
    7.0228   56.2294   25.7268 H   0  0  0  0  0  0
    7.5043   56.0913   24.0730 H   0  0  0  0  0  0
    5.9044   56.7047   24.4817 H   0  0  0  0  0  0
    3.3028   54.5045   24.9375 H   0  0  0  0  0  0
    1.9356   54.0951   26.9087 H   0  0  0  0  0  0
    5.4729   53.7640   29.2817 H   0  0  0  0  0  0
    4.6483   53.4024   23.6962 H   0  0  0  0  0  0
    4.3836   54.2186   20.4432 H   0  0  0  0  0  0
    4.0507   51.8272   21.5121 H   0  0  0  0  0  0
    2.3848   50.1545   21.6011 H   0  0  0  0  0  0
    0.6957   48.8732   23.2487 H   0  0  0  0  0  0
  1  2  1  0  0  0
  1 25  1  0  0  0
  1 26  1  0  0  0
  1 27  1  0  0  0
  2  3  1  0  0  0
  2  4  1  0  0  0
  2 12  1  0  0  0
  4  9  2  0  0  0
  4  5  1  0  0  0
  5  6  2  0  0  0
  5 28  1  0  0  0
  6  7  1  0  0  0
  6 29  1  0  0  0
  7  8  2  0  0  0
  7 11  1  0  0  0
  8  9  1  0  0  0
  8 30  1  0  0  0
  9 10  1  0  0  0
 12 13  1  0  0  0
 12 31  1  0  0  0
 13 14  2  0  0  0
 13 15  1  0  0  0
 15 16  1  0  0  0
 15 32  1  0  0  0
 16 17  1  0  0  0
 16 33  1  0  0  0
 17 18  2  0  0  0
 17 19  1  0  0  0
 19 23  1  0  0  0
 19 20  2  0  0  0
 20 21  1  0  0  0
 20 34  1  0  0  0
 21 22  2  0  0  0
 21 35  1  0  0  0
 22 23  1  0  0  0
 22 24  1  0  0  0
M  END
> <i_i_glide_confnum>
36

> <i_i_glide_lignum>
2578

> <i_i_glide_posenum>
202

> <i_i_glide_rotatable_bonds>
7

> <i_m_Source_File_Index>
4290

> <b_m_subgroup_collapsed>
0

> <r_i_docking_score>
-5.37823

> <r_i_glide_ecoul>
-0.993657

> <r_i_glide_eff_state_penalty>
0

> <r_i_glide_einternal>
3.99303

> <r_i_glide_emodel>
-51.1438

> <r_i_glide_energy>
-39.6532

> <r_i_glide_erotb>
0.633164

> <r_i_glide_esite>
0

> <r_i_glide_evdw>
-38.6595

> <r_i_glide_gscore>
-5.37823

> <r_i_glide_hbond>
0

> <r_i_glide_ligand_efficiency>
-0.233836

> <r_i_glide_ligand_efficiency_ln>
-1.3005

> <r_i_glide_ligand_efficiency_sa>
-0.664999

> <r_i_glide_lipo>
-2.43675

> <r_i_glide_metal>
0

> <r_i_glide_rewards>
-1.49262

> <s_i_glide_gridfile>
wee1_glide-grid

> <s_m_Source_File>
wee1_decoys_glide_SP.sdf

> <s_m_Source_Path>
/Users/zhangxujun/Desktop

> <s_m_entry_id>
4565

> <s_m_entry_name>
wee1_decoys_glide_SP.4290

> <s_m_subgroup_title>
wee1_decoys_glide_SP

> <s_m_subgroupid>
wee1_decoys_glide_SP


$$$$
