ZINC06462137_3096
                    3D
 Schrodinger Suite 2024-2.
 63 66  0  0  1  0            999 V2000
    2.2776   50.7911   19.2206 C   0  0  0  0  0  0
    2.7725   52.2387   19.4346 C   0  0  0  0  0  0
    3.6281   52.5074   20.7149 C   0  0  0  0  0  0
    3.9419   54.0152   20.8579 C   0  0  0  0  0  0
    4.9714   51.7684   20.5710 C   0  0  0  0  0  0
    3.0294   52.0432   21.9713 N   0  0  0  0  0  0
    1.7625   52.1639   22.4075 C   0  0  0  0  0  0
    0.8155   52.4968   21.6949 O   0  0  0  0  0  0
    1.5395   51.8258   23.9102 C   0  0  1  0  0  0
    2.0818   50.8937   24.0707 H   0  0  0  0  0  0
    2.1852   52.8518   24.8250 C   0  0  0  0  0  0
    1.9076   53.2864   26.1189 C   0  0  0  0  0  0
    2.9636   54.0967   26.5305 C   0  0  0  0  0  0
    3.8530   54.1516   25.4743 C   0  0  0  0  0  0
    3.3619   53.4242   24.4373 O   0  0  0  0  0  0
    5.1993   54.8003   25.2739 C   0  0  0  0  0  0
    0.1240   51.5054   24.2581 N   0  0  0  0  0  0
   -0.3291   50.1866   24.0195 C   0  0  0  0  0  0
   -0.2885   49.2333   25.0567 C   0  0  0  0  0  0
   -0.8605   47.9657   24.8816 C   0  0  0  0  0  0
   -1.3923   47.6593   23.6358 C   0  0  0  0  0  0
   -1.3805   48.5589   22.6096 C   0  0  0  0  0  0
   -0.8642   49.8400   22.7621 C   0  0  0  0  0  0
   -1.9836   48.0088   21.5244 O   0  0  0  0  0  0
   -2.1604   46.6542   21.8428 C   0  0  0  0  0  0
   -2.0185   46.5219   23.2319 O   0  0  0  0  0  0
   -0.8175   52.4968   24.3885 C   0  0  0  0  0  0
   -0.6129   53.6724   24.0817 O   0  0  0  0  0  0
   -2.0911   52.1458   24.9639 C   0  0  0  0  0  0
   -2.4049   51.6232   26.2196 C   0  0  0  0  0  0
   -3.8021   51.4756   26.3593 C   0  0  0  0  0  0
   -4.5483   51.8711   25.3406 N   0  0  0  0  0  0
   -3.5456   52.4632   24.0872 S   0  0  0  0  0  0
   -4.5089   51.0078   27.5306 C   0  0  0  0  0  0
   -5.4419   51.6355   28.0312 O   0  0  0  0  0  0
   -4.0957   49.8351   28.0217 N   0  0  0  0  0  0
   -1.4750   51.3184   27.1866 N   0  0  0  0  0  0
    1.6545   50.7320   18.3285 H   0  0  0  0  0  0
    1.6795   50.4322   20.0588 H   0  0  0  0  0  0
    3.1045   50.0952   19.0743 H   0  0  0  0  0  0
    3.3464   52.5305   18.5524 H   0  0  0  0  0  0
    1.9046   52.8971   19.4284 H   0  0  0  0  0  0
    4.1927   54.4724   19.9005 H   0  0  0  0  0  0
    3.1044   54.5652   21.2813 H   0  0  0  0  0  0
    4.7803   54.1919   21.5341 H   0  0  0  0  0  0
    5.5162   52.0973   19.6843 H   0  0  0  0  0  0
    5.6140   51.9365   21.4355 H   0  0  0  0  0  0
    4.8243   50.6936   20.4822 H   0  0  0  0  0  0
    3.7029   51.7382   22.6538 H   0  0  0  0  0  0
    1.0531   53.0092   26.7172 H   0  0  0  0  0  0
    3.0781   54.5728   27.4921 H   0  0  0  0  0  0
    5.5423   55.3014   26.1785 H   0  0  0  0  0  0
    5.9577   54.0642   25.0061 H   0  0  0  0  0  0
    5.1744   55.5447   24.4816 H   0  0  0  0  0  0
    0.1299   49.4827   26.0213 H   0  0  0  0  0  0
   -0.8953   47.2675   25.7054 H   0  0  0  0  0  0
   -0.8986   50.5549   21.9538 H   0  0  0  0  0  0
   -1.3865   46.0655   21.3454 H   0  0  0  0  0  0
   -3.1413   46.3089   21.5154 H   0  0  0  0  0  0
   -3.2427   49.3877   27.7017 H   0  0  0  0  0  0
   -4.5632   49.4493   28.8282 H   0  0  0  0  0  0
   -1.7188   50.7804   28.0118 H   0  0  0  0  0  0
   -0.4865   51.4311   27.0252 H   0  0  0  0  0  0
  1  2  1  0  0  0
  1 38  1  0  0  0
  1 39  1  0  0  0
  1 40  1  0  0  0
  2  3  1  0  0  0
  2 41  1  0  0  0
  2 42  1  0  0  0
  3  4  1  0  0  0
  3  5  1  0  0  0
  3  6  1  0  0  0
  4 43  1  0  0  0
  4 44  1  0  0  0
  4 45  1  0  0  0
  5 46  1  0  0  0
  5 47  1  0  0  0
  5 48  1  0  0  0
  6  7  1  0  0  0
  6 49  1  0  0  0
  7  8  2  0  0  0
  7  9  1  0  0  0
  9 10  1  0  0  0
  9 11  1  0  0  0
  9 17  1  0  0  0
 11 15  1  0  0  0
 11 12  2  0  0  0
 12 13  1  0  0  0
 12 50  1  0  0  0
 13 14  2  0  0  0
 13 51  1  0  0  0
 14 15  1  0  0  0
 14 16  1  0  0  0
 16 52  1  0  0  0
 16 53  1  0  0  0
 16 54  1  0  0  0
 17 18  1  0  0  0
 17 27  1  0  0  0
 18 23  2  0  0  0
 18 19  1  0  0  0
 19 20  2  0  0  0
 19 55  1  0  0  0
 20 21  1  0  0  0
 20 56  1  0  0  0
 21 26  1  0  0  0
 21 22  2  0  0  0
 22 23  1  0  0  0
 22 24  1  0  0  0
 23 57  1  0  0  0
 24 25  1  0  0  0
 25 26  1  0  0  0
 25 58  1  0  0  0
 25 59  1  0  0  0
 27 28  2  0  0  0
 27 29  1  0  0  0
 29 33  1  0  0  0
 29 30  2  0  0  0
 30 31  1  0  0  0
 30 37  1  0  0  0
 31 32  2  0  0  0
 31 34  1  0  0  0
 32 33  1  0  0  0
 34 35  2  0  0  0
 34 36  1  0  0  0
 36 60  1  0  0  0
 36 61  1  0  0  0
 37 62  1  0  0  0
 37 63  1  0  0  0
M  END
> <i_i_glide_confnum>
4

> <i_i_glide_lignum>
3097

> <i_i_glide_posenum>
167

> <i_i_glide_rotatable_bonds>
10

> <i_m_Source_File_Index>
4286

> <b_m_subgroup_collapsed>
0

> <r_i_docking_score>
-1.78022

> <r_i_glide_ecoul>
-4.8207

> <r_i_glide_eff_state_penalty>
0

> <r_i_glide_einternal>
12.2338

> <r_i_glide_emodel>
-34.6188

> <r_i_glide_energy>
-41.5346

> <r_i_glide_erotb>
0.622009

> <r_i_glide_esite>
-0.209302

> <r_i_glide_evdw>
-36.7139

> <r_i_glide_gscore>
-1.78022

> <r_i_glide_hbond>
-0.0986675

> <r_i_glide_ligand_efficiency>
-0.0494505

> <r_i_glide_ligand_efficiency_ln>
-0.388395

> <r_i_glide_ligand_efficiency_sa>
-0.163282

> <r_i_glide_lipo>
-1.27299

> <r_i_glide_metal>
0

> <r_i_glide_rewards>
1.73753

> <s_i_glide_gridfile>
wee1_glide-grid

> <s_m_Source_File>
wee1_decoys_glide_SP.sdf

> <s_m_Source_Path>
/Users/zhangxujun/Desktop

> <s_m_entry_id>
4561

> <s_m_entry_name>
wee1_decoys_glide_SP.4286

> <s_m_subgroup_title>
wee1_decoys_glide_SP

> <s_m_subgroupid>
wee1_decoys_glide_SP


$$$$
