ZINC21786099_532
                    3D
 Schrodinger Suite 2024-2.
 50 54  0  0  1  0            999 V2000
    1.1044   52.3437   31.6807 C   0  0  0  0  0  0
    0.6129   53.1449   30.4703 C   0  0  2  0  0  0
   -0.0950   53.9142   30.7839 H   0  0  0  0  0  0
   -0.0415   52.2779   29.3794 C   0  0  0  0  0  0
    0.7229   52.6779   28.1632 C   0  0  0  0  0  0
    0.6128   52.2836   26.8320 C   0  0  0  0  0  0
    1.5011   52.7975   25.8760 C   0  0  0  0  0  0
    2.5028   53.6967   26.2754 C   0  0  0  0  0  0
    2.6223   54.0792   27.6168 C   0  0  0  0  0  0
    1.7194   53.5563   28.5391 C   0  0  0  0  0  0
    1.7329   53.8202   29.8851 O   0  0  0  0  0  0
    1.3674   52.3453   24.4635 C   0  0  0  0  0  0
    0.8325   51.2176   23.8807 C   0  0  0  0  0  0
    1.0090   51.3690   22.4950 C   0  0  0  0  0  0
    1.6381   52.5026   22.2460 N   0  0  0  0  0  0
    1.8547   53.1349   23.4744 O   0  0  0  0  0  0
    0.6679   50.3892   21.4805 C   0  0  0  0  0  0
    1.2429   50.3718   20.3923 O   0  0  0  0  0  0
   -0.2990   49.5261   21.8676 N   0  0  0  0  0  0
   -0.7366   48.3243   21.2811 C   0  0  0  0  0  0
   -0.2433   47.7803   20.0827 C   0  0  0  0  0  0
   -0.6609   46.5143   19.6703 C   0  0  0  0  0  0
   -1.5713   45.7908   20.4455 C   0  0  0  0  0  0
   -2.0951   46.3523   21.6112 C   0  0  0  0  0  0
   -1.6815   47.6136   22.0241 C   0  0  0  0  0  0
   -2.0602   44.1261   19.9716 S   0  0  0  0  0  0
   -3.3338   43.8938   20.6614 O   0  0  0  0  0  0
   -2.0948   44.1316   18.5059 O   0  0  0  0  0  0
   -0.8954   43.2967   20.6233 N   0  5  0  0  0  0
    0.2626   42.8790   20.0736 C   0  0  0  0  0  0
    1.1203   42.1223   20.7172 N   0  0  0  0  0  0
    2.1039   41.6890   19.9541 C   0  0  0  0  0  0
    2.0770   42.0966   18.6286 C   0  0  0  0  0  0
    0.7028   43.1355   18.4010 S   0  0  0  0  0  0
    0.3073   51.7176   32.0819 H   0  0  0  0  0  0
    1.4337   52.9921   32.4838 H   0  0  0  0  0  0
    1.9390   51.6967   31.4153 H   0  0  0  0  0  0
    0.1028   51.2152   29.5725 H   0  0  0  0  0  0
   -1.1051   52.4954   29.2899 H   0  0  0  0  0  0
   -0.1539   51.5793   26.5415 H   0  0  0  0  0  0
    3.1986   54.0885   25.5473 H   0  0  0  0  0  0
    3.4021   54.7605   27.9216 H   0  0  0  0  0  0
    0.3951   50.3807   24.4056 H   0  0  0  0  0  0
   -0.7125   49.7167   22.7664 H   0  0  0  0  0  0
    0.4858   48.2965   19.4783 H   0  0  0  0  0  0
   -0.2598   46.0869   18.7626 H   0  0  0  0  0  0
   -2.8060   45.8041   22.2111 H   0  0  0  0  0  0
   -2.0746   48.0142   22.9476 H   0  0  0  0  0  0
    2.8588   41.0495   20.3878 H   0  0  0  0  0  0
    2.7676   41.8772   17.8268 H   0  0  0  0  0  0
  1  2  1  0  0  0
  1 35  1  0  0  0
  1 36  1  0  0  0
  1 37  1  0  0  0
  2  3  1  0  0  0
  2 11  1  0  0  0
  2  4  1  0  0  0
  4  5  1  0  0  0
  4 38  1  0  0  0
  4 39  1  0  0  0
  5 10  2  0  0  0
  5  6  1  0  0  0
  6  7  2  0  0  0
  6 40  1  0  0  0
  7  8  1  0  0  0
  7 12  1  0  0  0
  8  9  2  0  0  0
  8 41  1  0  0  0
  9 10  1  0  0  0
  9 42  1  0  0  0
 10 11  1  0  0  0
 12 16  1  0  0  0
 12 13  2  0  0  0
 13 14  1  0  0  0
 13 43  1  0  0  0
 14 15  2  0  0  0
 14 17  1  0  0  0
 15 16  1  0  0  0
 17 18  2  0  0  0
 17 19  1  0  0  0
 19 20  1  0  0  0
 19 44  1  0  0  0
 20 25  2  0  0  0
 20 21  1  0  0  0
 21 22  2  0  0  0
 21 45  1  0  0  0
 22 23  1  0  0  0
 22 46  1  0  0  0
 23 24  2  0  0  0
 23 26  1  0  0  0
 24 25  1  0  0  0
 24 47  1  0  0  0
 25 48  1  0  0  0
 26 27  2  0  0  0
 26 28  2  0  0  0
 26 29  1  0  0  0
 29 30  1  0  0  0
 30 34  1  0  0  0
 30 31  2  0  0  0
 31 32  1  0  0  0
 32 33  2  0  0  0
 32 49  1  0  0  0
 33 34  1  0  0  0
 33 50  1  0  0  0
M  CHG  1  29  -1
M  END
> <i_i_glide_confnum>
162

> <i_i_glide_lignum>
533

> <i_i_glide_posenum>
131

> <i_i_glide_rotatable_bonds>
7

> <i_m_Source_File_Index>
4243

> <b_m_subgroup_collapsed>
0

> <r_i_docking_score>
-3.42208

> <r_i_glide_ecoul>
-1.29717

> <r_i_glide_eff_state_penalty>
0

> <r_i_glide_einternal>
5.31048

> <r_i_glide_emodel>
-50.0975

> <r_i_glide_energy>
-40.751

> <r_i_glide_erotb>
0.612456

> <r_i_glide_esite>
-0.0512308

> <r_i_glide_evdw>
-39.4539

> <r_i_glide_gscore>
-3.42208

> <r_i_glide_hbond>
-0.233074

> <r_i_glide_ligand_efficiency>
-0.103699

> <r_i_glide_ligand_efficiency_ln>
-0.761053

> <r_i_glide_ligand_efficiency_sa>
-0.33262

> <r_i_glide_lipo>
-1.43895

> <r_i_glide_metal>
0

> <r_i_glide_rewards>
-0.144017

> <s_i_glide_gridfile>
wee1_glide-grid

> <s_m_Source_File>
wee1_decoys_glide_SP.sdf

> <s_m_Source_Path>
/Users/zhangxujun/Desktop

> <s_m_entry_id>
4518

> <s_m_entry_name>
wee1_decoys_glide_SP.4243

> <s_m_subgroup_title>
wee1_decoys_glide_SP

> <s_m_subgroupid>
wee1_decoys_glide_SP


$$$$
