ZINC50829997_1488
                    3D
 Schrodinger Suite 2024-2.
 27 29  0  0  1  0            999 V2000
    0.1650   53.4932   29.7904 C   0  0  0  0  0  0
   -0.1444   52.2031   29.4067 C   0  0  0  0  0  0
    1.1067   51.4295   28.4661 S   0  0  0  0  0  0
    2.1206   52.8372   28.6511 C   0  0  0  0  0  0
    1.4574   53.8921   29.3445 C   0  0  0  0  0  0
    2.1900   55.0945   29.4540 C   0  0  0  0  0  0
    3.4409   55.2042   28.9399 N   0  0  0  0  0  0
    3.9543   54.1137   28.3191 C   0  0  0  0  0  0
    3.3551   52.9084   28.1538 N   0  0  0  0  0  0
    5.3124   54.2721   27.6467 C   0  0  0  0  0  0
    5.2967   54.3525   26.1810 N   0  0  0  0  0  0
    6.3696   54.5698   25.3630 C   0  0  0  0  0  0
    5.8872   54.5622   24.0701 C   0  0  0  0  0  0
    4.5102   54.2705   24.2020 C   0  0  0  0  0  0
    4.1688   54.1730   25.4757 N   0  0  0  0  0  0
    3.5312   54.1074   23.1597 N   0  3  0  0  0  0
    3.9307   54.0735   22.0014 O   0  0  0  0  0  0
    2.3466   54.0250   23.4775 O   0  5  0  0  0  0
    6.9016   54.8960   22.4920 Br  0  0  0  0  0  0
    1.6659   56.2296   30.0796 N   0  0  0  0  0  0
   -0.4950   54.1270   30.3601 H   0  0  0  0  0  0
   -1.0529   51.6497   29.6119 H   0  0  0  0  0  0
    5.9370   53.4191   27.9164 H   0  0  0  0  0  0
    5.8203   55.1638   28.0263 H   0  0  0  0  0  0
    7.3556   54.7138   25.7666 H   0  0  0  0  0  0
    0.7293   56.2152   30.4556 H   0  0  0  0  0  0
    2.2266   57.0709   30.1219 H   0  0  0  0  0  0
  1  5  1  0  0  0
  1  2  2  0  0  0
  1 21  1  0  0  0
  2  3  1  0  0  0
  2 22  1  0  0  0
  3  4  1  0  0  0
  4  9  2  0  0  0
  4  5  1  0  0  0
  5  6  2  0  0  0
  6  7  1  0  0  0
  6 20  1  0  0  0
  7  8  2  0  0  0
  8  9  1  0  0  0
  8 10  1  0  0  0
 10 11  1  0  0  0
 10 23  1  0  0  0
 10 24  1  0  0  0
 11 15  1  0  0  0
 11 12  1  0  0  0
 12 13  2  0  0  0
 12 25  1  0  0  0
 13 14  1  0  0  0
 13 19  1  0  0  0
 14 15  2  0  0  0
 14 16  1  0  0  0
 16 17  2  0  0  0
 16 18  1  0  0  0
 20 26  1  0  0  0
 20 27  1  0  0  0
M  CHG  2  16   1  18  -1
M  END
> <i_i_glide_confnum>
4

> <i_i_glide_lignum>
1489

> <i_i_glide_posenum>
143

> <i_i_glide_rotatable_bonds>
3

> <i_m_Source_File_Index>
126

> <b_m_subgroup_collapsed>
0

> <r_i_docking_score>
-5.63109

> <r_i_glide_ecoul>
0.530879

> <r_i_glide_eff_state_penalty>
0

> <r_i_glide_einternal>
1.89689

> <r_i_glide_emodel>
-53.9485

> <r_i_glide_energy>
-39.2449

> <r_i_glide_erotb>
0.303098

> <r_i_glide_esite>
0

> <r_i_glide_evdw>
-39.7757

> <r_i_glide_gscore>
-5.63109

> <r_i_glide_hbond>
-0.0277281

> <r_i_glide_ligand_efficiency>
-0.281555

> <r_i_glide_ligand_efficiency_ln>
-1.40928

> <r_i_glide_ligand_efficiency_sa>
-0.764257

> <r_i_glide_lipo>
-2.03585

> <r_i_glide_metal>
0

> <r_i_glide_rewards>
-1.96145

> <s_i_glide_gridfile>
wee1_glide-grid

> <s_m_Source_File>
wee1_decoys_glide_SP.sdf

> <s_m_Source_Path>
/Users/zhangxujun/Desktop

> <s_m_entry_id>
401

> <s_m_entry_name>
wee1_decoys_glide_SP.126

> <s_m_subgroup_title>
wee1_decoys_glide_SP

> <s_m_subgroupid>
wee1_decoys_glide_SP


$$$$
