ZINC35705159_4634
                    3D
 Schrodinger Suite 2024-2.
 63 66  0  0  1  0            999 V2000
   -1.9005   50.9456   21.3868 C   0  0  0  0  0  0
   -2.8955   51.6938   22.2762 C   0  0  0  0  0  0
   -2.5448   51.5296   23.6351 O   0  0  0  0  0  0
   -3.0435   52.3305   24.5997 C   0  0  0  0  0  0
   -3.8529   53.2422   24.4197 O   0  0  0  0  0  0
   -2.5018   51.9989   25.9165 C   0  0  0  0  0  0
   -3.2717   51.5002   26.9327 C   0  0  0  0  0  0
   -2.7585   51.2967   28.1868 N   0  0  0  0  0  0
   -1.5581   51.6588   28.4442 C   0  0  0  0  0  0
   -0.6142   52.1600   27.5541 N   0  0  0  0  0  0
   -0.9800   52.2641   26.1090 C   0  0  1  0  0  0
   -0.8034   53.2942   25.8234 H   0  0  0  0  0  0
   -0.1394   51.3496   25.2088 C   0  0  0  0  0  0
   -0.2807   49.9705   25.3866 C   0  0  0  0  0  0
    0.2310   49.0795   24.4506 C   0  0  0  0  0  0
    1.0088   49.5575   23.3946 C   0  0  0  0  0  0
    1.2146   50.9265   23.2423 C   0  0  0  0  0  0
    0.5995   51.8337   24.1097 C   0  0  0  0  0  0
    0.6732   53.3158   23.7770 C   0  0  0  0  0  0
   -0.1444   47.6167   24.5456 C   0  0  0  0  0  0
    0.6068   52.5079   28.1273 C   0  0  0  0  0  0
    0.6086   52.3402   29.4599 C   0  0  0  0  0  0
   -0.8956   51.6967   30.0816 S   0  0  0  0  0  0
    1.7455   53.0403   27.3996 C   0  0  0  0  0  0
    2.7493   53.8331   27.8433 C   0  0  0  0  0  0
    2.9854   54.3249   29.0068 O   0  5  0  0  0  0
    3.7589   54.2570   27.0115 N   0  0  0  0  0  0
    3.7934   53.9759   25.5825 C   0  0  0  0  0  0
    4.9170   54.6158   24.7735 C   0  0  2  0  0  0
    4.8963   55.6966   24.9029 H   0  0  0  0  0  0
    4.8394   54.2104   23.2988 C   0  0  0  0  0  0
    6.2751   54.0523   22.8641 C   0  0  0  0  0  0
    7.0855   54.2603   24.1385 C   0  0  0  0  0  0
    6.1658   54.0968   25.2089 O   0  0  0  0  0  0
   -4.7873   51.1890   26.8662 C   0  0  0  0  0  0
   -5.4827   52.3068   27.0817 F   0  0  0  0  0  0
   -5.1314   50.6986   25.6736 F   0  0  0  0  0  0
   -5.1577   50.2822   27.7767 F   0  0  0  0  0  0
   -2.2038   50.9893   20.3410 H   0  0  0  0  0  0
   -0.9053   51.3828   21.4598 H   0  0  0  0  0  0
   -1.8285   49.8952   21.6712 H   0  0  0  0  0  0
   -3.8993   51.2966   22.1256 H   0  0  0  0  0  0
   -2.8956   52.7520   22.0149 H   0  0  0  0  0  0
   -0.8877   49.5952   26.2013 H   0  0  0  0  0  0
    1.4313   48.8747   22.6734 H   0  0  0  0  0  0
    1.7890   51.2796   22.3982 H   0  0  0  0  0  0
    1.4376   53.5389   23.0312 H   0  0  0  0  0  0
   -0.2953   53.6435   23.4075 H   0  0  0  0  0  0
    0.8908   53.9159   24.6555 H   0  0  0  0  0  0
   -0.4875   47.2498   23.5783 H   0  0  0  0  0  0
    0.7044   47.0301   24.8813 H   0  0  0  0  0  0
   -0.9632   47.4567   25.2490 H   0  0  0  0  0  0
    1.4243   52.5544   30.1329 H   0  0  0  0  0  0
    1.7847   52.7306   26.3730 H   0  0  0  0  0  0
    4.6676   54.3586   27.4366 H   0  0  0  0  0  0
    2.8572   54.3426   25.1726 H   0  0  0  0  0  0
    3.8060   52.8968   25.4343 H   0  0  0  0  0  0
    4.2496   54.8967   22.6937 H   0  0  0  0  0  0
    4.3422   53.2454   23.1939 H   0  0  0  0  0  0
    6.5585   54.7601   22.0841 H   0  0  0  0  0  0
    6.4173   53.0430   22.4817 H   0  0  0  0  0  0
    7.5044   55.2642   24.2033 H   0  0  0  0  0  0
    7.9043   53.5497   24.2226 H   0  0  0  0  0  0
  1  2  1  0  0  0
  1 39  1  0  0  0
  1 40  1  0  0  0
  1 41  1  0  0  0
  2  3  1  0  0  0
  2 42  1  0  0  0
  2 43  1  0  0  0
  3  4  1  0  0  0
  4  5  2  0  0  0
  4  6  1  0  0  0
  6 11  1  0  0  0
  6  7  2  0  0  0
  7  8  1  0  0  0
  7 35  1  0  0  0
  8  9  2  0  0  0
  9 23  1  0  0  0
  9 10  1  0  0  0
 10 11  1  0  0  0
 10 21  1  0  0  0
 11 12  1  0  0  0
 11 13  1  0  0  0
 13 18  2  0  0  0
 13 14  1  0  0  0
 14 15  2  0  0  0
 14 44  1  0  0  0
 15 16  1  0  0  0
 15 20  1  0  0  0
 16 17  2  0  0  0
 16 45  1  0  0  0
 17 18  1  0  0  0
 17 46  1  0  0  0
 18 19  1  0  0  0
 19 47  1  0  0  0
 19 48  1  0  0  0
 19 49  1  0  0  0
 20 50  1  0  0  0
 20 51  1  0  0  0
 20 52  1  0  0  0
 21 22  2  0  0  0
 21 24  1  0  0  0
 22 23  1  0  0  0
 22 53  1  0  0  0
 24 25  2  0  0  0
 24 54  1  0  0  0
 25 26  1  0  0  0
 25 27  1  0  0  0
 27 28  1  0  0  0
 27 55  1  0  0  0
 28 29  1  0  0  0
 28 56  1  0  0  0
 28 57  1  0  0  0
 29 30  1  0  0  0
 29 34  1  0  0  0
 29 31  1  0  0  0
 31 32  1  0  0  0
 31 58  1  0  0  0
 31 59  1  0  0  0
 32 33  1  0  0  0
 32 60  1  0  0  0
 32 61  1  0  0  0
 33 34  1  0  0  0
 33 62  1  0  0  0
 33 63  1  0  0  0
 35 36  1  0  0  0
 35 37  1  0  0  0
 35 38  1  0  0  0
M  CHG  1  26  -1
M  END
> <i_i_glide_confnum>
46

> <i_i_glide_lignum>
4635

> <i_i_glide_posenum>
52

> <i_i_glide_rotatable_bonds>
9

> <i_m_Source_File_Index>
4165

> <b_m_subgroup_collapsed>
0

> <r_i_docking_score>
-3.42357

> <r_i_glide_ecoul>
0.34543

> <r_i_glide_eff_state_penalty>
0

> <r_i_glide_einternal>
7.66078

> <r_i_glide_emodel>
-35.979

> <r_i_glide_energy>
-34.0159

> <r_i_glide_erotb>
0.451855

> <r_i_glide_esite>
-0.129959

> <r_i_glide_evdw>
-34.3614

> <r_i_glide_gscore>
-3.42357

> <r_i_glide_hbond>
0

> <r_i_glide_ligand_efficiency>
-0.0950991

> <r_i_glide_ligand_efficiency_ln>
-0.74693

> <r_i_glide_ligand_efficiency_sa>
-0.31401

> <r_i_glide_lipo>
-2.00778

> <r_i_glide_metal>
0

> <r_i_glide_rewards>
-0.0714262

> <s_i_glide_gridfile>
wee1_glide-grid

> <s_m_Source_File>
wee1_decoys_glide_SP.sdf

> <s_m_Source_Path>
/Users/zhangxujun/Desktop

> <s_m_entry_id>
4440

> <s_m_entry_name>
wee1_decoys_glide_SP.4165

> <s_m_subgroup_title>
wee1_decoys_glide_SP

> <s_m_subgroupid>
wee1_decoys_glide_SP


$$$$
