ZINC12401668_468
                    3D
 Schrodinger Suite 2024-2.
 58 62  0  0  1  0            999 V2000
    4.8785   53.8152   25.7454 C   0  0  0  0  0  0
    5.4284   54.7268   24.6305 C   0  0  0  0  0  0
    6.7363   55.3902   25.0792 C   0  0  0  0  0  0
    5.6326   53.9411   22.9940 S   0  0  0  0  0  0
    3.9761   53.4663   22.6100 C   0  0  0  0  0  0
    2.8819   54.0269   23.0733 N   0  0  0  0  0  0
    1.7237   53.3663   22.6821 N   0  0  0  0  0  0
    1.9732   52.3115   21.9412 C   0  0  0  0  0  0
    3.6621   52.0968   21.5821 S   0  0  0  0  0  0
    1.0277   51.4071   21.4695 N   0  0  0  0  0  0
    0.5699   50.3829   22.3268 C   0  0  0  0  0  0
   -0.4120   49.5119   21.9209 C   0  0  0  0  0  0
   -0.9497   48.4744   22.8623 C   0  0  0  0  0  0
   -1.6740   47.5480   22.4997 O   0  0  0  0  0  0
   -0.4404   48.4806   24.3071 C   0  0  0  0  0  0
    0.0454   49.8597   24.7910 C   0  0  0  0  0  0
    1.1231   50.3314   23.7789 C   0  0  0  0  0  0
    0.7020   49.6388   26.1672 C   0  0  0  0  0  0
   -1.1329   50.8695   24.8679 C   0  0  0  0  0  0
   -1.0060   49.5583   20.4694 C   0  0  1  0  0  0
   -1.0143   48.2376   19.7357 C   0  0  0  0  0  0
    0.0201   47.3686   19.3756 C   0  0  0  0  0  0
   -0.2825   46.1833   18.7006 C   0  0  0  0  0  0
   -1.6070   45.8775   18.3755 C   0  0  0  0  0  0
   -2.6393   46.7498   18.7295 C   0  0  0  0  0  0
   -2.3231   47.9226   19.4131 C   0  0  0  0  0  0
   -3.1686   48.9145   19.8856 N   0  0  0  0  0  0
   -2.5194   49.9032   20.5278 C   0  0  0  0  0  0
   -3.0241   50.8945   21.0538 O   0  0  0  0  0  0
    0.7054   45.3251   18.3643 F   0  0  0  0  0  0
   -0.3343   50.6601   19.6305 C   0  0  0  0  0  0
    0.5899   51.5012   20.1396 C   0  0  0  0  0  0
    1.1493   52.4966   19.3611 N   0  0  0  0  0  0
   -0.7306   50.8082   18.2591 C   0  0  0  0  0  0
   -1.0752   50.9506   17.1640 N   0  0  0  0  0  0
    4.6392   54.3967   26.6364 H   0  0  0  0  0  0
    5.6066   53.0636   26.0490 H   0  0  0  0  0  0
    3.9657   53.2989   25.4502 H   0  0  0  0  0  0
    4.7048   55.5220   24.4841 H   0  0  0  0  0  0
    6.6090   55.9443   26.0094 H   0  0  0  0  0  0
    7.5045   54.6365   25.2426 H   0  0  0  0  0  0
    7.1065   56.0882   24.3276 H   0  0  0  0  0  0
    0.4063   47.7934   24.3185 H   0  0  0  0  0  0
   -1.1988   48.0530   24.9649 H   0  0  0  0  0  0
    2.0144   49.7009   23.7786 H   0  0  0  0  0  0
    1.3930   51.3113   24.1672 H   0  0  0  0  0  0
   -0.0361   49.2774   26.8819 H   0  0  0  0  0  0
    1.5034   48.8969   26.1333 H   0  0  0  0  0  0
    1.1044   50.5664   26.5747 H   0  0  0  0  0  0
   -1.9052   50.5155   25.5524 H   0  0  0  0  0  0
   -0.7949   51.8368   25.2408 H   0  0  0  0  0  0
   -1.6154   51.0510   23.9072 H   0  0  0  0  0  0
    1.0476   47.5982   19.6167 H   0  0  0  0  0  0
   -1.8304   44.9614   17.8495 H   0  0  0  0  0  0
   -3.6606   46.5047   18.4778 H   0  0  0  0  0  0
   -4.1719   48.9004   19.7883 H   0  0  0  0  0  0
    0.9519   52.5569   18.3721 H   0  0  0  0  0  0
    1.6658   53.2629   19.7739 H   0  0  0  0  0  0
  1  2  1  0  0  0
  1 36  1  0  0  0
  1 37  1  0  0  0
  1 38  1  0  0  0
  2  3  1  0  0  0
  2  4  1  0  0  0
  2 39  1  0  0  0
  3 40  1  0  0  0
  3 41  1  0  0  0
  3 42  1  0  0  0
  4  5  1  0  0  0
  5  9  1  0  0  0
  5  6  2  0  0  0
  6  7  1  0  0  0
  7  8  2  0  0  0
  8  9  1  0  0  0
  8 10  1  0  0  0
 10 32  1  0  0  0
 10 11  1  0  0  0
 11 17  1  0  0  0
 11 12  2  0  0  0
 12 13  1  0  0  0
 12 20  1  0  0  0
 13 14  2  0  0  0
 13 15  1  0  0  0
 15 16  1  0  0  0
 15 43  1  0  0  0
 15 44  1  0  0  0
 16 17  1  0  0  0
 16 18  1  0  0  0
 16 19  1  0  0  0
 17 45  1  0  0  0
 17 46  1  0  0  0
 18 47  1  0  0  0
 18 48  1  0  0  0
 18 49  1  0  0  0
 19 50  1  0  0  0
 19 51  1  0  0  0
 19 52  1  0  0  0
 20 28  1  0  0  0
 20 21  1  0  0  0
 20 31  1  0  0  0
 21 26  2  0  0  0
 21 22  1  0  0  0
 22 23  2  0  0  0
 22 53  1  0  0  0
 23 24  1  0  0  0
 23 30  1  0  0  0
 24 25  2  0  0  0
 24 54  1  0  0  0
 25 26  1  0  0  0
 25 55  1  0  0  0
 26 27  1  0  0  0
 27 28  1  0  0  0
 27 56  1  0  0  0
 28 29  2  0  0  0
 31 32  2  0  0  0
 31 34  1  0  0  0
 32 33  1  0  0  0
 33 57  1  0  0  0
 33 58  1  0  0  0
 34 35  3  0  0  0
M  END
> <i_i_glide_confnum>
8

> <i_i_glide_lignum>
469

> <i_i_glide_posenum>
27

> <i_i_glide_rotatable_bonds>
4

> <i_m_Source_File_Index>
5178

> <b_m_subgroup_collapsed>
0

> <r_i_docking_score>
-3.84024

> <r_i_glide_ecoul>
-4.16806

> <r_i_glide_eff_state_penalty>
0

> <r_i_glide_einternal>
2.64368

> <r_i_glide_emodel>
-46.2922

> <r_i_glide_energy>
-38.6487

> <r_i_glide_erotb>
0.157161

> <r_i_glide_esite>
-0.0423525

> <r_i_glide_evdw>
-34.4806

> <r_i_glide_gscore>
-3.84024

> <r_i_glide_hbond>
-0.234249

> <r_i_glide_ligand_efficiency>
-0.109721

> <r_i_glide_ligand_efficiency_ln>
-0.843018

> <r_i_glide_ligand_efficiency_sa>
-0.358905

> <r_i_glide_lipo>
-1.34876

> <r_i_glide_metal>
0

> <r_i_glide_rewards>
-0.0228024

> <s_i_glide_gridfile>
wee1_glide-grid

> <s_m_Source_File>
wee1_decoys_glide_SP.sdf

> <s_m_Source_Path>
/Users/zhangxujun/Desktop

> <s_m_entry_id>
5453

> <s_m_entry_name>
wee1_decoys_glide_SP.5178

> <s_m_subgroup_title>
wee1_decoys_glide_SP

> <s_m_subgroupid>
wee1_decoys_glide_SP


$$$$
