ZINC35335624_5596
                    3D
 Schrodinger Suite 2024-2.
 66 69  0  0  1  0            999 V2000
    1.6454   54.1675   29.5740 C   0  0  0  0  0  0
    2.5647   53.0088   29.1143 C   0  0  0  0  0  0
    3.2927   52.4633   30.3725 C   0  0  0  0  0  0
    1.6935   51.8595   28.5509 C   0  0  0  0  0  0
    3.5356   53.5163   28.0149 C   0  0  0  0  0  0
    4.9287   53.4755   28.1728 C   0  0  0  0  0  0
    5.7742   53.9312   27.1670 C   0  0  0  0  0  0
    5.2539   54.4278   25.9638 C   0  0  0  0  0  0
    3.8651   54.4944   25.8072 C   0  0  0  0  0  0
    3.0210   54.0389   26.8175 C   0  0  0  0  0  0
    6.2094   54.9666   24.9220 C   0  0  0  0  0  0
    7.1043   55.6969   25.3364 O   0  0  0  0  0  0
    6.0939   54.6486   23.5982 N   0  0  0  0  0  0
    7.0969   55.1733   22.6406 C   0  0  0  0  0  0
    6.4551   55.4604   21.2581 C   0  0  0  0  0  0
    5.4829   54.4719   20.7618 N   0  0  0  0  0  0
    4.5431   54.0363   21.8031 C   0  0  0  0  0  0
    5.2215   53.5756   23.1051 C   0  0  0  0  0  0
    5.3150   54.1486   19.4143 C   0  0  0  0  0  0
    4.0510   53.8392   18.8870 C   0  0  0  0  0  0
    3.9120   53.4126   17.5689 C   0  0  0  0  0  0
    5.0406   53.2966   16.7457 C   0  0  0  0  0  0
    6.2941   53.6385   17.2499 C   0  0  0  0  0  0
    6.4276   54.0647   18.5678 C   0  0  0  0  0  0
    5.0219   52.7797   15.4378 N   0  0  0  0  0  0
    3.9719   52.5270   14.6241 C   0  0  0  0  0  0
    2.8124   52.8772   14.8517 O   0  0  0  0  0  0
    4.3076   51.8166   13.3305 C   0  0  0  0  0  0
    3.4962   52.0101   12.2036 C   0  0  0  0  0  0
    3.7864   51.3724   10.9999 C   0  0  0  0  0  0
    4.8907   50.5294   10.9051 C   0  0  0  0  0  0
    5.7156   50.3017   12.0143 C   0  0  0  0  0  0
    5.4057   50.9448   13.2252 C   0  0  0  0  0  0
    6.8947   49.4046   11.9082 N   0  3  0  0  0  0
    7.6310   49.2966   12.8836 O   0  0  0  0  0  0
    7.0997   48.8150   10.8461 O   0  5  0  0  0  0
    0.9681   53.8524   30.3699 H   0  0  0  0  0  0
    1.0208   54.5452   28.7637 H   0  0  0  0  0  0
    2.2224   55.0122   29.9548 H   0  0  0  0  0  0
    3.9475   51.6265   30.1277 H   0  0  0  0  0  0
    3.9028   53.2293   30.8520 H   0  0  0  0  0  0
    2.5869   52.1033   31.1240 H   0  0  0  0  0  0
    2.3045   51.0253   28.2046 H   0  0  0  0  0  0
    1.0074   51.4644   29.3012 H   0  0  0  0  0  0
    1.0825   52.1800   27.7060 H   0  0  0  0  0  0
    5.3882   53.0903   29.0687 H   0  0  0  0  0  0
    6.8424   53.8924   27.3300 H   0  0  0  0  0  0
    3.4285   54.9148   24.9116 H   0  0  0  0  0  0
    1.9531   54.0967   26.6635 H   0  0  0  0  0  0
    7.5908   56.0860   22.9842 H   0  0  0  0  0  0
    7.8437   54.3946   22.4837 H   0  0  0  0  0  0
    7.2378   55.6578   20.5275 H   0  0  0  0  0  0
    5.8886   56.3869   21.3347 H   0  0  0  0  0  0
    3.9085   53.2296   21.4396 H   0  0  0  0  0  0
    3.8851   54.8833   22.0056 H   0  0  0  0  0  0
    5.8242   52.6969   22.8787 H   0  0  0  0  0  0
    4.4519   53.2769   23.8068 H   0  0  0  0  0  0
    3.1550   53.9002   19.4922 H   0  0  0  0  0  0
    2.9279   53.1358   17.2264 H   0  0  0  0  0  0
    7.1794   53.5431   16.6391 H   0  0  0  0  0  0
    7.4215   54.2697   18.9352 H   0  0  0  0  0  0
    5.9279   52.5314   15.0776 H   0  0  0  0  0  0
    2.6355   52.6623   12.2537 H   0  0  0  0  0  0
    3.1551   51.5366   10.1388 H   0  0  0  0  0  0
    5.0973   50.0510    9.9580 H   0  0  0  0  0  0
    6.0266   50.7519   14.0893 H   0  0  0  0  0  0
  1  2  1  0  0  0
  1 37  1  0  0  0
  1 38  1  0  0  0
  1 39  1  0  0  0
  2  3  1  0  0  0
  2  4  1  0  0  0
  2  5  1  0  0  0
  3 40  1  0  0  0
  3 41  1  0  0  0
  3 42  1  0  0  0
  4 43  1  0  0  0
  4 44  1  0  0  0
  4 45  1  0  0  0
  5 10  2  0  0  0
  5  6  1  0  0  0
  6  7  2  0  0  0
  6 46  1  0  0  0
  7  8  1  0  0  0
  7 47  1  0  0  0
  8  9  2  0  0  0
  8 11  1  0  0  0
  9 10  1  0  0  0
  9 48  1  0  0  0
 10 49  1  0  0  0
 11 12  2  0  0  0
 11 13  1  0  0  0
 13 18  1  0  0  0
 13 14  1  0  0  0
 14 15  1  0  0  0
 14 50  1  0  0  0
 14 51  1  0  0  0
 15 16  1  0  0  0
 15 52  1  0  0  0
 15 53  1  0  0  0
 16 17  1  0  0  0
 16 19  1  0  0  0
 17 18  1  0  0  0
 17 54  1  0  0  0
 17 55  1  0  0  0
 18 56  1  0  0  0
 18 57  1  0  0  0
 19 24  2  0  0  0
 19 20  1  0  0  0
 20 21  2  0  0  0
 20 58  1  0  0  0
 21 22  1  0  0  0
 21 59  1  0  0  0
 22 23  2  0  0  0
 22 25  1  0  0  0
 23 24  1  0  0  0
 23 60  1  0  0  0
 24 61  1  0  0  0
 25 26  1  0  0  0
 25 62  1  0  0  0
 26 27  2  0  0  0
 26 28  1  0  0  0
 28 33  2  0  0  0
 28 29  1  0  0  0
 29 30  2  0  0  0
 29 63  1  0  0  0
 30 31  1  0  0  0
 30 64  1  0  0  0
 31 32  2  0  0  0
 31 65  1  0  0  0
 32 33  1  0  0  0
 32 34  1  0  0  0
 33 66  1  0  0  0
 34 35  2  0  0  0
 34 36  1  0  0  0
M  CHG  2  34   1  36  -1
M  END
> <i_i_glide_confnum>
501

> <i_i_glide_lignum>
5597

> <i_i_glide_posenum>
347

> <i_i_glide_rotatable_bonds>
8

> <i_m_Source_File_Index>
1824

> <b_m_subgroup_collapsed>
0

> <r_i_docking_score>
-6.8368

> <r_i_glide_ecoul>
-4.13011

> <r_i_glide_eff_state_penalty>
0

> <r_i_glide_einternal>
4.34296

> <r_i_glide_emodel>
-68.3515

> <r_i_glide_energy>
-50.1555

> <r_i_glide_erotb>
0.515068

> <r_i_glide_esite>
-0.146723

> <r_i_glide_evdw>
-46.0254

> <r_i_glide_gscore>
-6.8368

> <r_i_glide_hbond>
-0.32

> <r_i_glide_ligand_efficiency>
-0.189911

> <r_i_glide_ligand_efficiency_ln>
-1.49161

> <r_i_glide_ligand_efficiency_sa>
-0.627073

> <r_i_glide_lipo>
-2.76281

> <r_i_glide_metal>
0

> <r_i_glide_rewards>
-1.20154

> <s_i_glide_gridfile>
wee1_glide-grid

> <s_m_Source_File>
wee1_decoys_glide_SP.sdf

> <s_m_Source_Path>
/Users/zhangxujun/Desktop

> <s_m_entry_id>
2099

> <s_m_entry_name>
wee1_decoys_glide_SP.1824

> <s_m_subgroup_title>
wee1_decoys_glide_SP

> <s_m_subgroupid>
wee1_decoys_glide_SP


$$$$
