ZINC11815649_3253
                    3D
 Schrodinger Suite 2024-2.
 56 60  0  0  1  0            999 V2000
    3.5941   54.1966   26.8835 C   0  0  0  0  0  0
    2.3277   53.3875   26.6563 C   0  0  0  0  0  0
    1.5346   52.9010   27.7483 C   0  0  0  0  0  0
    1.7419   53.0302   29.1348 C   0  0  0  0  0  0
    0.8194   52.4965   30.0301 C   0  0  0  0  0  0
   -0.3163   51.8368   29.5758 C   0  0  0  0  0  0
   -0.5587   51.6722   28.2169 C   0  0  0  0  0  0
    0.3719   52.1992   27.3101 C   0  0  0  0  0  0
    0.2937   52.1000   25.5663 S   0  0  0  0  0  0
    1.7746   53.0191   25.4340 C   0  0  0  0  0  0
    2.4016   53.4694   23.7922 S   0  0  0  0  0  0
    3.8464   53.6975   23.8767 O   0  0  0  0  0  0
    1.5006   54.4968   23.2737 O   0  0  0  0  0  0
    2.1281   51.9862   22.8925 N   0  0  0  0  0  0
    2.3201   52.0482   21.4266 C   0  0  2  0  0  0
    0.9295   52.2745   20.7848 C   0  0  0  0  0  0
   -0.0612   51.1213   21.0564 C   0  0  0  0  0  0
    0.5347   49.7675   20.5909 C   0  0  1  0  0  0
    1.9320   49.5064   21.2105 C   0  0  0  0  0  0
    2.8874   50.6949   20.9394 C   0  0  0  0  0  0
   -0.3655   48.6701   20.9732 N   0  0  0  0  0  0
   -0.9892   48.4067   22.1698 C   0  0  0  0  0  0
   -1.6969   47.2137   21.9658 C   0  0  0  0  0  0
   -1.4470   46.7910   20.7348 N   0  0  0  0  0  0
   -0.6176   47.6927   20.0986 N   0  0  0  0  0  0
   -2.4961   46.4729   22.9172 C   0  0  0  0  0  0
   -2.8471   45.3080   22.6961 O   0  0  0  0  0  0
   -2.8233   47.1426   24.0366 N   0  0  0  0  0  0
   -3.6235   46.5980   25.1268 C   0  0  0  0  0  0
   -2.8997   46.0974   26.3584 C   0  0  0  0  0  0
   -3.6955   47.3784   26.4177 C   0  0  0  0  0  0
    1.1045   52.6247   31.7241 Cl  0  0  0  0  0  0
    3.5208   54.8496   27.7527 H   0  0  0  0  0  0
    4.4547   53.5485   27.0377 H   0  0  0  0  0  0
    3.8287   54.8569   26.0499 H   0  0  0  0  0  0
    2.6150   53.5366   29.5113 H   0  0  0  0  0  0
   -1.0071   51.4177   30.2958 H   0  0  0  0  0  0
   -1.4316   51.1267   27.8791 H   0  0  0  0  0  0
    2.6834   51.2157   23.2685 H   0  0  0  0  0  0
    2.9148   52.9211   21.1413 H   0  0  0  0  0  0
    1.0486   52.4053   19.7075 H   0  0  0  0  0  0
    0.5014   53.2054   21.1539 H   0  0  0  0  0  0
   -0.9599   51.3291   20.4736 H   0  0  0  0  0  0
   -0.3789   51.1043   22.1001 H   0  0  0  0  0  0
    0.5830   49.7382   19.4989 H   0  0  0  0  0  0
    1.8664   49.2549   22.2716 H   0  0  0  0  0  0
    2.3743   48.6330   20.7260 H   0  0  0  0  0  0
    3.8500   50.4984   21.4133 H   0  0  0  0  0  0
    3.0902   50.7546   19.8654 H   0  0  0  0  0  0
   -0.8698   49.0573   23.0209 H   0  0  0  0  0  0
   -2.5384   48.1099   24.1295 H   0  0  0  0  0  0
   -4.5306   46.0803   24.8042 H   0  0  0  0  0  0
   -1.8113   46.1704   26.4107 H   0  0  0  0  0  0
   -3.2809   45.2204   26.8833 H   0  0  0  0  0  0
   -4.6339   47.3928   26.9713 H   0  0  0  0  0  0
   -3.1586   48.3249   26.4968 H   0  0  0  0  0  0
  1  2  1  0  0  0
  1 33  1  0  0  0
  1 34  1  0  0  0
  1 35  1  0  0  0
  2 10  2  0  0  0
  2  3  1  0  0  0
  3  8  2  0  0  0
  3  4  1  0  0  0
  4  5  2  0  0  0
  4 36  1  0  0  0
  5  6  1  0  0  0
  5 32  1  0  0  0
  6  7  2  0  0  0
  6 37  1  0  0  0
  7  8  1  0  0  0
  7 38  1  0  0  0
  8  9  1  0  0  0
  9 10  1  0  0  0
 10 11  1  0  0  0
 11 12  2  0  0  0
 11 13  2  0  0  0
 11 14  1  0  0  0
 14 15  1  0  0  0
 14 39  1  0  0  0
 15 20  1  0  0  0
 15 16  1  0  0  0
 15 40  1  0  0  0
 16 17  1  0  0  0
 16 41  1  0  0  0
 16 42  1  0  0  0
 17 18  1  0  0  0
 17 43  1  0  0  0
 17 44  1  0  0  0
 18 19  1  0  0  0
 18 21  1  0  0  0
 18 45  1  0  0  0
 19 20  1  0  0  0
 19 46  1  0  0  0
 19 47  1  0  0  0
 20 48  1  0  0  0
 20 49  1  0  0  0
 21 25  1  0  0  0
 21 22  1  0  0  0
 22 23  2  0  0  0
 22 50  1  0  0  0
 23 24  1  0  0  0
 23 26  1  0  0  0
 24 25  2  0  0  0
 26 27  2  0  0  0
 26 28  1  0  0  0
 28 29  1  0  0  0
 28 51  1  0  0  0
 29 31  1  0  0  0
 29 30  1  0  0  0
 29 52  1  0  0  0
 30 31  1  0  0  0
 30 53  1  0  0  0
 30 54  1  0  0  0
 31 55  1  0  0  0
 31 56  1  0  0  0
M  END
> <i_i_glide_confnum>
29

> <i_i_glide_lignum>
3254

> <i_i_glide_posenum>
164

> <i_i_glide_rotatable_bonds>
7

> <i_m_Source_File_Index>
2870

> <b_m_subgroup_collapsed>
0

> <r_i_docking_score>
-1.29546

> <r_i_glide_ecoul>
-4.62951

> <r_i_glide_eff_state_penalty>
0

> <r_i_glide_einternal>
12.1617

> <r_i_glide_emodel>
-37.3371

> <r_i_glide_energy>
-46.4652

> <r_i_glide_erotb>
0.584386

> <r_i_glide_esite>
-0.0580684

> <r_i_glide_evdw>
-41.8357

> <r_i_glide_gscore>
-1.29546

> <r_i_glide_hbond>
-0.079496

> <r_i_glide_ligand_efficiency>
-0.040483

> <r_i_glide_ligand_efficiency_ln>
-0.290088

> <r_i_glide_ligand_efficiency_sa>
-0.128525

> <r_i_glide_lipo>
-1.2342

> <r_i_glide_metal>
0

> <r_i_glide_rewards>
2.27813

> <s_i_glide_gridfile>
wee1_glide-grid

> <s_m_Source_File>
wee1_decoys_glide_SP.sdf

> <s_m_Source_Path>
/Users/zhangxujun/Desktop

> <s_m_entry_id>
3145

> <s_m_entry_name>
wee1_decoys_glide_SP.2870

> <s_m_subgroup_title>
wee1_decoys_glide_SP

> <s_m_subgroupid>
wee1_decoys_glide_SP


$$$$
