ZINC22539596_5196
                    3D
 Schrodinger Suite 2024-2.
 71 73  0  0  1  0            999 V2000
   -7.4703   54.9474   26.8293 C   0  0  0  0  0  0
   -6.4590   53.8499   26.5485 C   0  0  0  0  0  0
   -6.4573   52.6817   27.3008 C   0  0  0  0  0  0
   -5.5322   51.6651   27.0474 C   0  0  0  0  0  0
   -4.5823   51.8119   26.0071 C   0  0  0  0  0  0
   -4.5731   53.0166   25.2627 C   0  0  0  0  0  0
   -5.5203   54.0037   25.5343 C   0  0  0  0  0  0
   -3.5424   53.3495   24.1881 C   0  0  0  0  0  0
   -3.4960   50.4159   25.5726 S   0  0  0  0  0  0
   -4.2378   49.1724   25.8062 O   0  0  0  0  0  0
   -2.9154   50.6551   24.2469 O   0  0  0  0  0  0
   -2.2134   50.4966   26.7702 N   0  0  0  0  0  0
   -0.8459   50.9388   26.4070 C   0  0  2  0  0  0
   -0.9101   51.6139   25.5532 H   0  0  0  0  0  0
    0.0621   49.7290   26.0562 C   0  0  0  0  0  0
   -0.3228   48.9823   24.7939 C   0  0  0  0  0  0
   -1.2212   47.8961   24.8609 C   0  0  0  0  0  0
   -1.6951   47.3157   23.6928 C   0  0  0  0  0  0
   -1.2997   47.8108   22.4556 C   0  0  0  0  0  0
   -0.4357   48.8970   22.3748 C   0  0  0  0  0  0
    0.0479   49.4916   23.5318 C   0  0  0  0  0  0
   -0.2697   51.7532   27.5896 C   0  0  0  0  0  0
   -0.7508   51.6967   28.7244 O   0  0  0  0  0  0
    0.8080   52.4955   27.2911 N   0  0  0  0  0  0
    1.5726   53.2987   28.2464 C   0  0  2  0  0  0
    1.7464   52.6194   29.0850 H   0  0  0  0  0  0
    0.7934   54.5348   28.7391 C   0  0  0  0  0  0
    2.9490   53.7098   27.7103 C   0  0  0  0  0  0
    3.1366   53.9071   26.3333 C   0  0  0  0  0  0
    4.3789   54.2637   25.8112 C   0  0  0  0  0  0
    5.4584   54.4551   26.6826 C   0  0  0  0  0  0
    5.2856   54.2522   28.0524 C   0  0  0  0  0  0
    4.0489   53.8722   28.5734 C   0  0  0  0  0  0
    3.9496   53.6763   30.0786 C   0  0  0  0  0  0
    6.8214   54.8765   26.1749 C   0  0  0  0  0  0
    4.5279   54.4355   24.3064 C   0  0  0  0  0  0
   -5.5702   50.4561   27.9760 C   0  0  0  0  0  0
   -8.2714   54.6058   27.4848 H   0  0  0  0  0  0
   -7.9334   55.2805   25.9011 H   0  0  0  0  0  0
   -6.9827   55.8115   27.2813 H   0  0  0  0  0  0
   -7.1793   52.5620   28.0948 H   0  0  0  0  0  0
   -5.5204   54.8967   24.9364 H   0  0  0  0  0  0
   -2.5368   53.1397   24.5527 H   0  0  0  0  0  0
   -3.7100   52.7651   23.2847 H   0  0  0  0  0  0
   -3.5525   54.4036   23.9094 H   0  0  0  0  0  0
   -2.2397   49.7744   27.5070 H   0  0  0  0  0  0
    1.0906   50.0554   25.9218 H   0  0  0  0  0  0
    0.0915   49.0168   26.8800 H   0  0  0  0  0  0
   -1.5569   47.5360   25.8239 H   0  0  0  0  0  0
   -2.3891   46.4918   23.7490 H   0  0  0  0  0  0
   -1.6792   47.3580   21.5506 H   0  0  0  0  0  0
   -0.1479   49.2861   21.4096 H   0  0  0  0  0  0
    0.6943   50.3534   23.4616 H   0  0  0  0  0  0
    1.1892   52.4271   26.3601 H   0  0  0  0  0  0
    1.2928   55.0261   29.5724 H   0  0  0  0  0  0
    0.7022   55.2774   27.9484 H   0  0  0  0  0  0
   -0.2057   54.2699   29.0826 H   0  0  0  0  0  0
    2.3086   53.7922   25.6504 H   0  0  0  0  0  0
    6.1226   54.3930   28.7230 H   0  0  0  0  0  0
    4.5992   54.3995   30.5703 H   0  0  0  0  0  0
    2.9522   53.8477   30.4795 H   0  0  0  0  0  0
    4.2761   52.6721   30.3576 H   0  0  0  0  0  0
    6.7707   55.8704   25.7281 H   0  0  0  0  0  0
    7.5336   54.8936   26.9939 H   0  0  0  0  0  0
    7.1757   54.1805   25.4138 H   0  0  0  0  0  0
    3.5685   54.6091   23.8146 H   0  0  0  0  0  0
    5.1553   55.2966   24.0821 H   0  0  0  0  0  0
    5.0001   53.5545   23.8688 H   0  0  0  0  0  0
   -4.5671   50.1059   28.2164 H   0  0  0  0  0  0
   -6.0281   50.7002   28.9340 H   0  0  0  0  0  0
   -6.1267   49.6384   27.5237 H   0  0  0  0  0  0
  1  2  1  0  0  0
  1 38  1  0  0  0
  1 39  1  0  0  0
  1 40  1  0  0  0
  2  7  2  0  0  0
  2  3  1  0  0  0
  3  4  2  0  0  0
  3 41  1  0  0  0
  4  5  1  0  0  0
  4 37  1  0  0  0
  5  6  2  0  0  0
  5  9  1  0  0  0
  6  7  1  0  0  0
  6  8  1  0  0  0
  7 42  1  0  0  0
  8 43  1  0  0  0
  8 44  1  0  0  0
  8 45  1  0  0  0
  9 10  2  0  0  0
  9 11  2  0  0  0
  9 12  1  0  0  0
 12 13  1  0  0  0
 12 46  1  0  0  0
 13 14  1  0  0  0
 13 15  1  0  0  0
 13 22  1  0  0  0
 15 16  1  0  0  0
 15 47  1  0  0  0
 15 48  1  0  0  0
 16 21  2  0  0  0
 16 17  1  0  0  0
 17 18  2  0  0  0
 17 49  1  0  0  0
 18 19  1  0  0  0
 18 50  1  0  0  0
 19 20  2  0  0  0
 19 51  1  0  0  0
 20 21  1  0  0  0
 20 52  1  0  0  0
 21 53  1  0  0  0
 22 23  2  0  0  0
 22 24  1  0  0  0
 24 25  1  0  0  0
 24 54  1  0  0  0
 25 26  1  0  0  0
 25 27  1  0  0  0
 25 28  1  0  0  0
 27 55  1  0  0  0
 27 56  1  0  0  0
 27 57  1  0  0  0
 28 33  2  0  0  0
 28 29  1  0  0  0
 29 30  2  0  0  0
 29 58  1  0  0  0
 30 31  1  0  0  0
 30 36  1  0  0  0
 31 32  2  0  0  0
 31 35  1  0  0  0
 32 33  1  0  0  0
 32 59  1  0  0  0
 33 34  1  0  0  0
 34 60  1  0  0  0
 34 61  1  0  0  0
 34 62  1  0  0  0
 35 63  1  0  0  0
 35 64  1  0  0  0
 35 65  1  0  0  0
 36 66  1  0  0  0
 36 67  1  0  0  0
 36 68  1  0  0  0
 37 69  1  0  0  0
 37 70  1  0  0  0
 37 71  1  0  0  0
M  END
> <i_i_glide_confnum>
179

> <i_i_glide_lignum>
5197

> <i_i_glide_posenum>
314

> <i_i_glide_rotatable_bonds>
9

> <i_m_Source_File_Index>
1971

> <b_m_subgroup_collapsed>
0

> <r_i_docking_score>
-4.68789

> <r_i_glide_ecoul>
0.404069

> <r_i_glide_eff_state_penalty>
0

> <r_i_glide_einternal>
8.07969

> <r_i_glide_emodel>
-54.4377

> <r_i_glide_energy>
-44.3682

> <r_i_glide_erotb>
0.671245

> <r_i_glide_esite>
-0.182646

> <r_i_glide_evdw>
-44.7722

> <r_i_glide_gscore>
-4.68789

> <r_i_glide_hbond>
-0.16

> <r_i_glide_ligand_efficiency>
-0.13394

> <r_i_glide_ligand_efficiency_ln>
-1.02909

> <r_i_glide_ligand_efficiency_sa>
-0.438125

> <r_i_glide_lipo>
-2.73907

> <r_i_glide_metal>
0

> <r_i_glide_rewards>
-0.0994094

> <s_i_glide_gridfile>
wee1_glide-grid

> <s_m_Source_File>
wee1_decoys_glide_SP.sdf

> <s_m_Source_Path>
/Users/zhangxujun/Desktop

> <s_m_entry_id>
2246

> <s_m_entry_name>
wee1_decoys_glide_SP.1971

> <s_m_subgroup_title>
wee1_decoys_glide_SP

> <s_m_subgroupid>
wee1_decoys_glide_SP


$$$$
