ZINC15091334_826
                    3D
 Schrodinger Suite 2024-2.
 48 51  0  0  1  0            999 V2000
    9.1109   56.8443   18.4806 C   0  0  0  0  0  0
    9.8884   57.6965   17.7013 C   0  0  0  0  0  0
    9.2812   58.7310   16.9939 C   0  0  0  0  0  0
    7.9016   58.9133   17.0519 C   0  0  0  0  0  0
    7.1227   58.0607   17.8289 C   0  0  0  0  0  0
    7.7262   57.0287   18.5539 C   0  0  0  0  0  0
    6.8849   56.1512   19.4120 C   0  0  0  0  0  0
    5.6195   55.6261   19.1697 C   0  0  0  0  0  0
    5.1046   54.8962   20.2462 C   0  0  0  0  0  0
    5.9536   54.8695   21.3500 C   0  0  0  0  0  0
    7.4492   55.6967   20.9931 S   0  0  0  0  0  0
    5.6845   54.2684   22.6367 C   0  0  0  0  0  0
    4.5760   53.7826   22.8795 O   0  0  0  0  0  0
    6.7043   54.3290   23.5205 N   0  0  0  0  0  0
    6.5365   53.7313   24.7604 N   0  0  0  0  0  0
    6.5877   54.4940   25.8657 C   0  0  0  0  0  0
    6.7045   55.7169   25.8523 O   0  0  0  0  0  0
    6.5302   53.7394   27.1997 C   0  0  0  0  0  0
    5.8501   54.4940   28.3688 C   0  0  0  0  0  0
    4.4024   54.0983   28.5793 C   0  0  0  0  0  0
    3.5889   53.5087   27.7460 N   0  0  0  0  0  0
    2.4851   53.3873   28.4619 C   0  0  0  0  0  0
    2.5401   53.8856   29.6818 N   0  0  0  0  0  0
    3.8385   54.3788   29.7770 O   0  0  0  0  0  0
    1.2499   52.7225   27.9222 C   0  0  0  0  0  0
    0.2277   52.3068   28.7877 C   0  0  0  0  0  0
   -0.9170   51.6965   28.2832 C   0  0  0  0  0  0
   -1.0519   51.5023   26.9118 C   0  0  0  0  0  0
   -0.0425   51.8997   26.0409 C   0  0  0  0  0  0
    1.1053   52.5050   26.5444 C   0  0  0  0  0  0
   -2.1741   50.9319   26.4194 F   0  0  0  0  0  0
   10.0386   59.5689   16.2510 F   0  0  0  0  0  0
    9.5908   56.0464   19.0294 H   0  0  0  0  0  0
   10.9582   57.5580   17.6496 H   0  0  0  0  0  0
    7.4349   59.7248   16.5105 H   0  0  0  0  0  0
    6.0550   58.2239   17.8805 H   0  0  0  0  0  0
    5.0795   55.7764   18.2461 H   0  0  0  0  0  0
    4.1269   54.4334   20.2317 H   0  0  0  0  0  0
    7.6740   54.4528   23.2611 H   0  0  0  0  0  0
    6.6632   52.7300   24.7562 H   0  0  0  0  0  0
    7.5775   53.6239   27.4720 H   0  0  0  0  0  0
    6.1742   52.7122   27.1193 H   0  0  0  0  0  0
    5.9043   55.5739   28.2373 H   0  0  0  0  0  0
    6.4090   54.2908   29.2801 H   0  0  0  0  0  0
    0.3153   52.4453   29.8558 H   0  0  0  0  0  0
   -1.6966   51.3606   28.9519 H   0  0  0  0  0  0
   -0.1528   51.7382   24.9791 H   0  0  0  0  0  0
    1.8796   52.8101   25.8547 H   0  0  0  0  0  0
  1  6  2  0  0  0
  1  2  1  0  0  0
  1 33  1  0  0  0
  2  3  2  0  0  0
  2 34  1  0  0  0
  3  4  1  0  0  0
  3 32  1  0  0  0
  4  5  2  0  0  0
  4 35  1  0  0  0
  5  6  1  0  0  0
  5 36  1  0  0  0
  6  7  1  0  0  0
  7 11  1  0  0  0
  7  8  2  0  0  0
  8  9  1  0  0  0
  8 37  1  0  0  0
  9 10  2  0  0  0
  9 38  1  0  0  0
 10 11  1  0  0  0
 10 12  1  0  0  0
 12 13  2  0  0  0
 12 14  1  0  0  0
 14 15  1  0  0  0
 14 39  1  0  0  0
 15 16  1  0  0  0
 15 40  1  0  0  0
 16 17  2  0  0  0
 16 18  1  0  0  0
 18 19  1  0  0  0
 18 41  1  0  0  0
 18 42  1  0  0  0
 19 20  1  0  0  0
 19 43  1  0  0  0
 19 44  1  0  0  0
 20 24  1  0  0  0
 20 21  2  0  0  0
 21 22  1  0  0  0
 22 23  2  0  0  0
 22 25  1  0  0  0
 23 24  1  0  0  0
 25 30  2  0  0  0
 25 26  1  0  0  0
 26 27  2  0  0  0
 26 45  1  0  0  0
 27 28  1  0  0  0
 27 46  1  0  0  0
 28 29  2  0  0  0
 28 31  1  0  0  0
 29 30  1  0  0  0
 29 47  1  0  0  0
 30 48  1  0  0  0
M  END
> <i_i_glide_confnum>
1

> <i_i_glide_lignum>
827

> <i_i_glide_posenum>
362

> <i_i_glide_rotatable_bonds>
9

> <i_m_Source_File_Index>
4780

> <b_m_subgroup_collapsed>
0

> <r_i_docking_score>
-6.24118

> <r_i_glide_ecoul>
-7.68151

> <r_i_glide_eff_state_penalty>
0

> <r_i_glide_einternal>
5.8681

> <r_i_glide_emodel>
-73.1637

> <r_i_glide_energy>
-54.7429

> <r_i_glide_erotb>
0.875104

> <r_i_glide_esite>
-0.0872906

> <r_i_glide_evdw>
-47.0614

> <r_i_glide_gscore>
-6.24118

> <r_i_glide_hbond>
-0.527421

> <r_i_glide_ligand_efficiency>
-0.195037

> <r_i_glide_ligand_efficiency_ln>
-1.39757

> <r_i_glide_ligand_efficiency_sa>
-0.619203

> <r_i_glide_lipo>
-1.70424

> <r_i_glide_metal>
0

> <r_i_glide_rewards>
-1.29203

> <s_i_glide_gridfile>
wee1_glide-grid

> <s_m_Source_File>
wee1_decoys_glide_SP.sdf

> <s_m_Source_Path>
/Users/zhangxujun/Desktop

> <s_m_entry_id>
5055

> <s_m_entry_name>
wee1_decoys_glide_SP.4780

> <s_m_subgroup_title>
wee1_decoys_glide_SP

> <s_m_subgroupid>
wee1_decoys_glide_SP


$$$$
