ZINC02417773_3195
                    3D
 Schrodinger Suite 2024-2.
 54 59  0  0  1  0            999 V2000
   -2.3315   51.9149   17.6473 C   0  0  0  0  0  0
   -0.9865   51.2208   17.7684 C   0  0  0  0  0  0
   -0.1184   51.1720   16.6736 C   0  0  0  0  0  0
    1.1209   50.5400   16.7886 C   0  0  0  0  0  0
    1.5033   49.9627   17.9989 C   0  0  0  0  0  0
    0.6421   50.0140   19.0984 C   0  0  0  0  0  0
   -0.6015   50.6412   18.9816 C   0  0  0  0  0  0
    1.1324   49.2966   20.6585 S   0  0  0  0  0  0
    2.3043   48.4465   20.4306 O   0  0  0  0  0  0
   -0.0802   48.7656   21.2941 O   0  0  0  0  0  0
    1.6793   50.7070   21.6422 C   0  0  0  0  0  0
    1.2335   51.0348   22.9553 C   0  0  0  0  0  0
    1.8527   52.2505   23.3166 C   0  0  0  0  0  0
    1.6422   52.8332   24.4947 N   0  0  0  0  0  0
    0.8516   52.2056   25.3988 C   0  0  0  0  0  0
    0.7046   52.7427   26.6961 C   0  0  0  0  0  0
   -0.1424   52.1188   27.6061 C   0  0  0  0  0  0
   -0.8304   50.9627   27.2501 C   0  0  0  0  0  0
   -0.6612   50.3796   25.9937 C   0  0  0  0  0  0
    0.1915   50.9930   25.0462 C   0  0  0  0  0  0
    0.3967   50.4381   23.8131 N   0  0  0  0  0  0
    2.6721   52.6618   22.2746 N   0  0  0  0  0  0
    2.6055   51.6831   21.2816 C   0  0  0  0  0  0
    3.3650   51.7728   20.1470 N   0  0  0  0  0  0
    3.4449   53.9225   22.2381 C   0  0  0  0  0  0
    4.4932   54.0968   23.3383 C   0  0  0  0  0  0
    5.8640   53.9128   23.0695 C   0  0  0  0  0  0
    6.8316   54.0968   24.0704 C   0  0  0  0  0  0
    6.3857   54.4293   25.3452 C   0  0  0  0  0  0
    5.0625   54.6042   25.6092 C   0  0  0  0  0  0
    4.0967   54.4970   24.6237 C   0  0  0  0  0  0
    4.8875   54.8964   26.9186 O   0  0  0  0  0  0
    6.1500   54.7867   27.5081 C   0  0  0  0  0  0
    7.1011   54.6494   26.4805 O   0  0  0  0  0  0
   -2.2753   52.7506   16.9479 H   0  0  0  0  0  0
   -3.0949   51.2171   17.2973 H   0  0  0  0  0  0
   -2.6468   52.3294   18.6054 H   0  0  0  0  0  0
   -0.4014   51.6202   15.7321 H   0  0  0  0  0  0
    1.7954   50.4990   15.9459 H   0  0  0  0  0  0
    2.4691   49.4801   18.0818 H   0  0  0  0  0  0
   -1.2643   50.6775   19.8351 H   0  0  0  0  0  0
    1.2326   53.6466   26.9639 H   0  0  0  0  0  0
   -0.2738   52.5348   28.5953 H   0  0  0  0  0  0
   -1.4878   50.4982   27.9701 H   0  0  0  0  0  0
   -1.1707   49.4576   25.7527 H   0  0  0  0  0  0
    3.4117   51.0227   19.4677 H   0  0  0  0  0  0
    3.9433   52.5731   19.9408 H   0  0  0  0  0  0
    2.7256   54.7386   22.3033 H   0  0  0  0  0  0
    3.9110   54.0449   21.2621 H   0  0  0  0  0  0
    6.1839   53.6397   22.0781 H   0  0  0  0  0  0
    7.8858   53.9583   23.8535 H   0  0  0  0  0  0
    3.0719   54.7339   24.8534 H   0  0  0  0  0  0
    6.3051   55.6954   28.0816 H   0  0  0  0  0  0
    6.1838   53.9064   28.1533 H   0  0  0  0  0  0
  1  2  1  0  0  0
  1 35  1  0  0  0
  1 36  1  0  0  0
  1 37  1  0  0  0
  2  7  2  0  0  0
  2  3  1  0  0  0
  3  4  2  0  0  0
  3 38  1  0  0  0
  4  5  1  0  0  0
  4 39  1  0  0  0
  5  6  2  0  0  0
  5 40  1  0  0  0
  6  7  1  0  0  0
  6  8  1  0  0  0
  7 41  1  0  0  0
  8  9  2  0  0  0
  8 10  2  0  0  0
  8 11  1  0  0  0
 11 23  2  0  0  0
 11 12  1  0  0  0
 12 21  2  0  0  0
 12 13  1  0  0  0
 13 14  2  0  0  0
 13 22  1  0  0  0
 14 15  1  0  0  0
 15 20  2  0  0  0
 15 16  1  0  0  0
 16 17  2  0  0  0
 16 42  1  0  0  0
 17 18  1  0  0  0
 17 43  1  0  0  0
 18 19  2  0  0  0
 18 44  1  0  0  0
 19 20  1  0  0  0
 19 45  1  0  0  0
 20 21  1  0  0  0
 22 23  1  0  0  0
 22 25  1  0  0  0
 23 24  1  0  0  0
 24 46  1  0  0  0
 24 47  1  0  0  0
 25 26  1  0  0  0
 25 48  1  0  0  0
 25 49  1  0  0  0
 26 31  2  0  0  0
 26 27  1  0  0  0
 27 28  2  0  0  0
 27 50  1  0  0  0
 28 29  1  0  0  0
 28 51  1  0  0  0
 29 34  1  0  0  0
 29 30  2  0  0  0
 30 31  1  0  0  0
 30 32  1  0  0  0
 31 52  1  0  0  0
 32 33  1  0  0  0
 33 34  1  0  0  0
 33 53  1  0  0  0
 33 54  1  0  0  0
M  END
> <i_i_glide_confnum>
6

> <i_i_glide_lignum>
3196

> <i_i_glide_posenum>
161

> <i_i_glide_rotatable_bonds>
4

> <i_m_Source_File_Index>
2503

> <b_m_subgroup_collapsed>
0

> <r_i_docking_score>
-6.352

> <r_i_glide_ecoul>
-5.65734

> <r_i_glide_eff_state_penalty>
0

> <r_i_glide_einternal>
3.36381

> <r_i_glide_emodel>
-62.2662

> <r_i_glide_energy>
-45.0458

> <r_i_glide_erotb>
0.36226

> <r_i_glide_esite>
-0.0862533

> <r_i_glide_evdw>
-39.3885

> <r_i_glide_gscore>
-6.352

> <r_i_glide_hbond>
-0.304072

> <r_i_glide_ligand_efficiency>
-0.186823

> <r_i_glide_ligand_efficiency_ln>
-1.40333

> <r_i_glide_ligand_efficiency_sa>
-0.605235

> <r_i_glide_lipo>
-2.10546

> <r_i_glide_metal>
0

> <r_i_glide_rewards>
-1.40045

> <s_i_glide_gridfile>
wee1_glide-grid

> <s_m_Source_File>
wee1_decoys_glide_SP.sdf

> <s_m_Source_Path>
/Users/zhangxujun/Desktop

> <s_m_entry_id>
2778

> <s_m_entry_name>
wee1_decoys_glide_SP.2503

> <s_m_subgroup_title>
wee1_decoys_glide_SP

> <s_m_subgroupid>
wee1_decoys_glide_SP


$$$$
