ZINC12755892_2749
                    3D
 Schrodinger Suite 2024-2.
 48 50  0  0  1  0            999 V2000
    0.2807   53.8474   32.1290 C   0  0  0  0  0  0
    0.8920   53.8253   30.7402 C   0  0  0  0  0  0
    1.2939   52.6119   30.1852 C   0  0  0  0  0  0
    1.8999   52.5817   28.9332 C   0  0  0  0  0  0
    2.0936   53.7754   28.2260 C   0  0  0  0  0  0
    1.6945   54.9959   28.7890 C   0  0  0  0  0  0
    1.1044   55.0192   30.0496 C   0  0  0  0  0  0
    2.6853   53.7493   26.9366 N   0  0  0  0  0  0
    3.9981   54.1904   26.8661 C   0  0  0  0  0  0
    4.6880   54.4959   27.8443 O   0  0  0  0  0  0
    4.5231   54.2890   25.4516 C   0  0  0  0  0  0
    5.8217   54.7400   25.1888 C   0  0  0  0  0  0
    6.2573   54.8277   23.8647 C   0  0  0  0  0  0
    5.3975   54.4821   22.8176 C   0  0  0  0  0  0
    4.1101   54.0210   23.0901 C   0  0  0  0  0  0
    3.6798   53.9177   24.4080 C   0  0  0  0  0  0
    2.4227   53.3627   24.6496 N   0  0  0  0  0  0
    1.9458   53.2959   25.8421 C   0  0  0  0  0  0
    0.3177   52.4966   26.0350 S   0  0  0  0  0  0
    0.2790   51.2715   24.6778 C   0  0  1  0  0  0
    1.2986   50.9026   24.5539 H   0  0  0  0  0  0
   -0.5594   50.0401   25.0781 C   0  0  0  0  0  0
   -0.2027   51.8637   23.3388 C   0  0  0  0  0  0
   -1.3648   52.2693   23.2351 O   0  0  0  0  0  0
    0.7175   51.8743   22.3470 N   0  0  0  0  0  0
    0.4994   52.0345   21.0254 C   0  0  0  0  0  0
   -0.6079   52.0966   20.4824 O   0  0  0  0  0  0
    1.6606   52.0968   20.3536 N   0  0  0  0  0  0
    1.7798   52.2433   18.9064 C   0  0  0  0  0  0
    5.9045   54.6498   21.1793 Cl  0  0  0  0  0  0
    0.7045   53.0653   32.7610 H   0  0  0  0  0  0
    0.4685   54.7953   32.6309 H   0  0  0  0  0  0
   -0.7939   53.6896   32.0829 H   0  0  0  0  0  0
    1.1335   51.6968   30.7309 H   0  0  0  0  0  0
    2.2038   51.6351   28.5085 H   0  0  0  0  0  0
    1.8456   55.9232   28.2554 H   0  0  0  0  0  0
    0.8090   55.9637   30.4839 H   0  0  0  0  0  0
    6.4884   55.0219   25.9927 H   0  0  0  0  0  0
    7.2558   55.1808   23.6481 H   0  0  0  0  0  0
    3.4475   53.7497   22.2839 H   0  0  0  0  0  0
   -0.5725   49.2842   24.2914 H   0  0  0  0  0  0
   -0.1561   49.5622   25.9729 H   0  0  0  0  0  0
   -1.5938   50.3088   25.2959 H   0  0  0  0  0  0
    1.6660   51.6839   22.6270 H   0  0  0  0  0  0
    2.5275   52.1166   20.8664 H   0  0  0  0  0  0
    2.5946   51.6196   18.5361 H   0  0  0  0  0  0
    2.0051   53.2810   18.6551 H   0  0  0  0  0  0
    0.8707   51.9527   18.3779 H   0  0  0  0  0  0
  1  2  1  0  0  0
  1 31  1  0  0  0
  1 32  1  0  0  0
  1 33  1  0  0  0
  2  7  2  0  0  0
  2  3  1  0  0  0
  3  4  2  0  0  0
  3 34  1  0  0  0
  4  5  1  0  0  0
  4 35  1  0  0  0
  5  6  2  0  0  0
  5  8  1  0  0  0
  6  7  1  0  0  0
  6 36  1  0  0  0
  7 37  1  0  0  0
  8 18  1  0  0  0
  8  9  1  0  0  0
  9 10  2  0  0  0
  9 11  1  0  0  0
 11 16  2  0  0  0
 11 12  1  0  0  0
 12 13  2  0  0  0
 12 38  1  0  0  0
 13 14  1  0  0  0
 13 39  1  0  0  0
 14 15  2  0  0  0
 14 30  1  0  0  0
 15 16  1  0  0  0
 15 40  1  0  0  0
 16 17  1  0  0  0
 17 18  2  0  0  0
 18 19  1  0  0  0
 19 20  1  0  0  0
 20 21  1  0  0  0
 20 22  1  0  0  0
 20 23  1  0  0  0
 22 41  1  0  0  0
 22 42  1  0  0  0
 22 43  1  0  0  0
 23 24  2  0  0  0
 23 25  1  0  0  0
 25 26  1  0  0  0
 25 44  1  0  0  0
 26 27  2  0  0  0
 26 28  1  0  0  0
 28 29  1  0  0  0
 28 45  1  0  0  0
 29 46  1  0  0  0
 29 47  1  0  0  0
 29 48  1  0  0  0
M  END
> <i_i_glide_confnum>
10

> <i_i_glide_lignum>
2750

> <i_i_glide_posenum>
313

> <i_i_glide_rotatable_bonds>
7

> <i_m_Source_File_Index>
847

> <b_m_subgroup_collapsed>
0

> <r_i_docking_score>
-6.45856

> <r_i_glide_ecoul>
-4.20579

> <r_i_glide_eff_state_penalty>
0

> <r_i_glide_einternal>
4.65054

> <r_i_glide_emodel>
-64.9941

> <r_i_glide_energy>
-48.3519

> <r_i_glide_erotb>
0.642558

> <r_i_glide_esite>
-0.0323752

> <r_i_glide_evdw>
-44.1461

> <r_i_glide_gscore>
-6.45856

> <r_i_glide_hbond>
0

> <r_i_glide_ligand_efficiency>
-0.222709

> <r_i_glide_ligand_efficiency_ln>
-1.47885

> <r_i_glide_ligand_efficiency_sa>
-0.684232

> <r_i_glide_lipo>
-3.11475

> <r_i_glide_metal>
0

> <r_i_glide_rewards>
-1.11581

> <s_i_glide_gridfile>
wee1_glide-grid

> <s_m_Source_File>
wee1_decoys_glide_SP.sdf

> <s_m_Source_Path>
/Users/zhangxujun/Desktop

> <s_m_entry_id>
1122

> <s_m_entry_name>
wee1_decoys_glide_SP.847

> <s_m_subgroup_title>
wee1_decoys_glide_SP

> <s_m_subgroupid>
wee1_decoys_glide_SP


$$$$
