ZINC33731893_5748
                    3D
 Schrodinger Suite 2024-2.
 75 78  0  0  1  0            999 V2000
    7.9958   57.1534   17.0986 C   0  0  0  0  0  0
    7.4052   57.3633   18.5064 C   0  0  0  0  0  0
    6.7946   58.7680   18.6567 C   0  0  0  0  0  0
    6.4117   56.2629   18.8894 C   0  0  0  0  0  0
    6.6032   55.5276   20.0617 C   0  0  0  0  0  0
    5.7283   54.4964   20.3914 C   0  0  0  0  0  0
    4.6567   54.1777   19.5476 C   0  0  0  0  0  0
    4.4453   54.9370   18.3957 C   0  0  0  0  0  0
    5.3166   55.9734   18.0682 C   0  0  0  0  0  0
    3.7274   53.1465   19.7854 N   0  0  0  0  0  0
    3.7334   52.1460   20.6997 C   0  0  0  0  0  0
    4.6864   51.9214   21.4508 O   0  0  0  0  0  0
    2.5795   51.4116   20.7553 N   0  0  0  0  0  0
    2.1875   50.7615   22.0284 C   0  0  0  0  0  0
    1.2078   51.6160   22.8785 C   0  0  0  0  0  0
    0.9067   52.7444   22.4804 O   0  0  0  0  0  0
    0.7165   51.1114   24.0476 N   0  0  0  0  0  0
   -0.2156   51.8910   24.8976 C   0  0  0  0  0  0
    0.2092   52.0930   26.3834 C   0  0  0  0  0  0
    1.5437   52.8051   26.6285 C   0  0  0  0  0  0
    2.1845   52.7046   27.8675 C   0  0  0  0  0  0
    3.4347   53.2973   28.0701 C   0  0  0  0  0  0
    4.0747   53.9857   27.0252 C   0  0  0  0  0  0
    3.4324   54.0973   25.7882 C   0  0  0  0  0  0
    2.1584   53.5450   25.6198 C   0  0  0  0  0  0
    4.1039   54.7444   24.7702 O   0  0  0  0  0  0
    3.7021   54.4789   23.4322 C   0  0  0  0  0  0
    5.3303   54.5552   27.1123 O   0  0  0  0  0  0
    6.1136   54.3734   28.2771 C   0  0  0  0  0  0
    0.9021   49.7113   24.4590 C   0  0  0  0  0  0
   -0.3001   48.8478   24.1398 C   0  0  0  0  0  0
   -1.0791   48.0967   25.0166 C   0  0  0  0  0  0
   -2.1243   47.3968   24.4111 C   0  0  0  0  0  0
   -2.1603   47.5849   23.0416 C   0  0  0  0  0  0
   -0.8959   48.6415   22.5131 S   0  0  0  0  0  0
    1.5385   51.4504   19.7061 C   0  0  0  0  0  0
    1.9019   51.2333   18.2449 C   0  0  0  0  0  0
    1.1739   50.1572   19.0063 C   0  0  0  0  0  0
    8.4154   56.1517   16.9903 H   0  0  0  0  0  0
    7.2473   57.2872   16.3170 H   0  0  0  0  0  0
    8.7989   57.8641   16.9029 H   0  0  0  0  0  0
    8.2495   57.3024   19.1961 H   0  0  0  0  0  0
    6.4872   58.9616   19.6819 H   0  0  0  0  0  0
    7.5085   59.5443   18.3841 H   0  0  0  0  0  0
    5.9174   58.8975   18.0201 H   0  0  0  0  0  0
    7.4383   55.7365   20.7145 H   0  0  0  0  0  0
    5.9047   53.9525   21.3044 H   0  0  0  0  0  0
    3.6119   54.7218   17.7416 H   0  0  0  0  0  0
    5.1448   56.5429   17.1661 H   0  0  0  0  0  0
    2.9101   53.1802   19.1956 H   0  0  0  0  0  0
    3.0628   50.4987   22.6240 H   0  0  0  0  0  0
    1.7043   49.8153   21.7861 H   0  0  0  0  0  0
   -1.1749   51.3711   24.8862 H   0  0  0  0  0  0
   -0.4563   52.8646   24.4697 H   0  0  0  0  0  0
    0.2106   51.1271   26.8915 H   0  0  0  0  0  0
   -0.5694   52.6655   26.8876 H   0  0  0  0  0  0
    1.7224   52.1465   28.6693 H   0  0  0  0  0  0
    3.9072   53.1927   29.0342 H   0  0  0  0  0  0
    1.6467   53.6792   24.6852 H   0  0  0  0  0  0
    4.4278   54.8966   22.7430 H   0  0  0  0  0  0
    3.6634   53.4059   23.2595 H   0  0  0  0  0  0
    2.7265   54.8984   23.1932 H   0  0  0  0  0  0
    7.0835   54.8314   28.0817 H   0  0  0  0  0  0
    6.2781   53.3171   28.4961 H   0  0  0  0  0  0
    5.6687   54.8646   29.1427 H   0  0  0  0  0  0
    1.8007   49.2967   24.0051 H   0  0  0  0  0  0
    1.1042   49.6755   25.5288 H   0  0  0  0  0  0
   -0.8947   48.0637   26.0816 H   0  0  0  0  0  0
   -2.8238   46.7845   24.9612 H   0  0  0  0  0  0
   -2.8596   47.1733   22.3292 H   0  0  0  0  0  0
    0.7120   52.1198   19.9469 H   0  0  0  0  0  0
    1.3679   51.8068   17.4868 H   0  0  0  0  0  0
    2.9442   51.0553   17.9685 H   0  0  0  0  0  0
    1.7144   49.2455   19.2651 H   0  0  0  0  0  0
    0.1227   49.9675   18.7891 H   0  0  0  0  0  0
  1  2  1  0  0  0
  1 39  1  0  0  0
  1 40  1  0  0  0
  1 41  1  0  0  0
  2  3  1  0  0  0
  2  4  1  0  0  0
  2 42  1  0  0  0
  3 43  1  0  0  0
  3 44  1  0  0  0
  3 45  1  0  0  0
  4  9  2  0  0  0
  4  5  1  0  0  0
  5  6  2  0  0  0
  5 46  1  0  0  0
  6  7  1  0  0  0
  6 47  1  0  0  0
  7  8  2  0  0  0
  7 10  1  0  0  0
  8  9  1  0  0  0
  8 48  1  0  0  0
  9 49  1  0  0  0
 10 11  1  0  0  0
 10 50  1  0  0  0
 11 12  2  0  0  0
 11 13  1  0  0  0
 13 14  1  0  0  0
 13 36  1  0  0  0
 14 15  1  0  0  0
 14 51  1  0  0  0
 14 52  1  0  0  0
 15 16  2  0  0  0
 15 17  1  0  0  0
 17 18  1  0  0  0
 17 30  1  0  0  0
 18 19  1  0  0  0
 18 53  1  0  0  0
 18 54  1  0  0  0
 19 20  1  0  0  0
 19 55  1  0  0  0
 19 56  1  0  0  0
 20 25  2  0  0  0
 20 21  1  0  0  0
 21 22  2  0  0  0
 21 57  1  0  0  0
 22 23  1  0  0  0
 22 58  1  0  0  0
 23 24  2  0  0  0
 23 28  1  0  0  0
 24 25  1  0  0  0
 24 26  1  0  0  0
 25 59  1  0  0  0
 26 27  1  0  0  0
 27 60  1  0  0  0
 27 61  1  0  0  0
 27 62  1  0  0  0
 28 29  1  0  0  0
 29 63  1  0  0  0
 29 64  1  0  0  0
 29 65  1  0  0  0
 30 31  1  0  0  0
 30 66  1  0  0  0
 30 67  1  0  0  0
 31 35  1  0  0  0
 31 32  2  0  0  0
 32 33  1  0  0  0
 32 68  1  0  0  0
 33 34  2  0  0  0
 33 69  1  0  0  0
 34 35  1  0  0  0
 34 70  1  0  0  0
 36 38  1  0  0  0
 36 37  1  0  0  0
 36 71  1  0  0  0
 37 38  1  0  0  0
 37 72  1  0  0  0
 37 73  1  0  0  0
 38 74  1  0  0  0
 38 75  1  0  0  0
M  END
> <i_i_glide_confnum>
298

> <i_i_glide_lignum>
5749

> <i_i_glide_posenum>
294

> <i_i_glide_rotatable_bonds>
15

> <i_m_Source_File_Index>
1582

> <b_m_subgroup_collapsed>
0

> <r_i_docking_score>
-4.52483

> <r_i_glide_ecoul>
-4.61685

> <r_i_glide_eff_state_penalty>
0

> <r_i_glide_einternal>
4.0804

> <r_i_glide_emodel>
-64.6359

> <r_i_glide_energy>
-51.388

> <r_i_glide_erotb>
0.71944

> <r_i_glide_esite>
-0.0305582

> <r_i_glide_evdw>
-46.7711

> <r_i_glide_gscore>
-4.52483

> <r_i_glide_hbond>
0

> <r_i_glide_ligand_efficiency>
-0.119075

> <r_i_glide_ligand_efficiency_ln>
-0.975687

> <r_i_glide_ligand_efficiency_sa>
-0.400326

> <r_i_glide_lipo>
-2.05448

> <r_i_glide_metal>
0

> <r_i_glide_rewards>
-0.128151

> <s_i_glide_gridfile>
wee1_glide-grid

> <s_m_Source_File>
wee1_decoys_glide_SP.sdf

> <s_m_Source_Path>
/Users/zhangxujun/Desktop

> <s_m_entry_id>
1857

> <s_m_entry_name>
wee1_decoys_glide_SP.1582

> <s_m_subgroup_title>
wee1_decoys_glide_SP

> <s_m_subgroupid>
wee1_decoys_glide_SP


$$$$
