ZINC03011436_580
                    3D
 Schrodinger Suite 2024-2.
 48 51  0  0  1  0            999 V2000
    6.6515   56.4430   20.0939 C   0  0  0  0  0  0
    6.2700   55.3351   19.1052 C   0  0  0  0  0  0
    5.3801   54.2985   19.4677 C   0  0  0  0  0  0
    5.0435   53.3186   18.5212 C   0  0  0  0  0  0
    5.5823   53.3551   17.2396 C   0  0  0  0  0  0
    6.4641   54.3697   16.8839 C   0  0  0  0  0  0
    6.8106   55.3555   17.8057 C   0  0  0  0  0  0
    7.9293   56.5766   17.3011 Cl  0  0  0  0  0  0
    4.8984   54.2720   20.7907 N   0  0  0  0  0  0
    3.9042   53.5517   21.3608 C   0  0  0  0  0  0
    3.1715   52.7482   20.7833 O   0  0  0  0  0  0
    3.7553   53.8037   22.7790 C   0  0  0  0  0  0
    2.7025   53.3424   23.5914 C   0  0  0  0  0  0
    3.0044   53.7259   24.8852 C   0  0  0  0  0  0
    4.2317   54.3490   24.7895 N   0  0  0  0  0  0
    4.6287   54.4585   23.5180 N   0  0  0  0  0  0
    4.9743   54.9778   25.8784 C   0  0  1  0  0  0
    4.6813   56.0244   25.8972 H   0  0  0  0  0  0
    4.4984   54.3101   27.1786 C   0  0  0  0  0  0
    2.9610   54.1722   27.2995 C   0  0  1  0  0  0
    2.5463   55.1799   27.3491 H   0  0  0  0  0  0
    2.4015   53.5045   26.1117 N   0  0  0  0  0  0
    2.5067   53.5423   28.6231 C   0  0  0  0  0  0
    1.1384   53.4951   28.9184 C   0  0  0  0  0  0
    0.6960   52.9332   30.1128 C   0  0  0  0  0  0
    1.6263   52.4290   31.0171 C   0  0  0  0  0  0
    2.9868   52.4844   30.7480 C   0  0  0  0  0  0
    3.4272   53.0338   29.5544 C   0  0  0  0  0  0
    1.1045   51.6968   32.4817 Cl  0  0  0  0  0  0
    6.5085   54.9253   25.7212 C   0  0  0  0  0  0
    6.9452   55.7257   24.7531 F   0  0  0  0  0  0
    7.1043   55.2964   26.8505 F   0  0  0  0  0  0
    6.9403   53.6996   25.4493 F   0  0  0  0  0  0
    5.9047   56.6001   20.8725 H   0  0  0  0  0  0
    7.6128   56.2181   20.5595 H   0  0  0  0  0  0
    6.7302   57.4037   19.5870 H   0  0  0  0  0  0
    4.3903   52.4944   18.7567 H   0  0  0  0  0  0
    5.3272   52.5784   16.5337 H   0  0  0  0  0  0
    6.8861   54.3854   15.8899 H   0  0  0  0  0  0
    5.3695   54.9063   21.4150 H   0  0  0  0  0  0
    1.8459   52.7683   23.2695 H   0  0  0  0  0  0
    4.9640   53.3239   27.2463 H   0  0  0  0  0  0
    4.8920   54.8719   28.0276 H   0  0  0  0  0  0
    1.3958   53.4418   26.1523 H   0  0  0  0  0  0
    0.4134   53.8882   28.2201 H   0  0  0  0  0  0
   -0.3596   52.8780   30.3365 H   0  0  0  0  0  0
    3.7001   52.0964   31.4611 H   0  0  0  0  0  0
    4.4912   53.0466   29.3815 H   0  0  0  0  0  0
  1  2  1  0  0  0
  1 34  1  0  0  0
  1 35  1  0  0  0
  1 36  1  0  0  0
  2  7  2  0  0  0
  2  3  1  0  0  0
  3  4  2  0  0  0
  3  9  1  0  0  0
  4  5  1  0  0  0
  4 37  1  0  0  0
  5  6  2  0  0  0
  5 38  1  0  0  0
  6  7  1  0  0  0
  6 39  1  0  0  0
  7  8  1  0  0  0
  9 10  1  0  0  0
  9 40  1  0  0  0
 10 11  2  0  0  0
 10 12  1  0  0  0
 12 16  2  0  0  0
 12 13  1  0  0  0
 13 14  2  0  0  0
 13 41  1  0  0  0
 14 22  1  0  0  0
 14 15  1  0  0  0
 15 16  1  0  0  0
 15 17  1  0  0  0
 17 18  1  0  0  0
 17 19  1  0  0  0
 17 30  1  0  0  0
 19 20  1  0  0  0
 19 42  1  0  0  0
 19 43  1  0  0  0
 20 21  1  0  0  0
 20 22  1  0  0  0
 20 23  1  0  0  0
 22 44  1  0  0  0
 23 28  2  0  0  0
 23 24  1  0  0  0
 24 25  2  0  0  0
 24 45  1  0  0  0
 25 26  1  0  0  0
 25 46  1  0  0  0
 26 27  2  0  0  0
 26 29  1  0  0  0
 27 28  1  0  0  0
 27 47  1  0  0  0
 28 48  1  0  0  0
 30 31  1  0  0  0
 30 32  1  0  0  0
 30 33  1  0  0  0
M  END
> <i_i_glide_confnum>
20

> <i_i_glide_lignum>
581

> <i_i_glide_posenum>
391

> <i_i_glide_rotatable_bonds>
5

> <i_m_Source_File_Index>
5259

> <b_m_subgroup_collapsed>
0

> <r_i_docking_score>
-4.81955

> <r_i_glide_ecoul>
1.83519

> <r_i_glide_eff_state_penalty>
0

> <r_i_glide_einternal>
4.49193

> <r_i_glide_emodel>
-49.2844

> <r_i_glide_energy>
-38.3222

> <r_i_glide_erotb>
0.366823

> <r_i_glide_esite>
-0.00935736

> <r_i_glide_evdw>
-40.1574

> <r_i_glide_gscore>
-4.81955

> <r_i_glide_hbond>
0

> <r_i_glide_ligand_efficiency>
-0.155469

> <r_i_glide_ligand_efficiency_ln>
-1.08696

> <r_i_glide_ligand_efficiency_sa>
-0.488389

> <r_i_glide_lipo>
-2.41772

> <r_i_glide_metal>
0

> <r_i_glide_rewards>
-1.02671

> <s_i_glide_gridfile>
wee1_glide-grid

> <s_m_Source_File>
wee1_decoys_glide_SP.sdf

> <s_m_Source_Path>
/Users/zhangxujun/Desktop

> <s_m_entry_id>
5534

> <s_m_entry_name>
wee1_decoys_glide_SP.5259

> <s_m_subgroup_title>
wee1_decoys_glide_SP

> <s_m_subgroupid>
wee1_decoys_glide_SP


$$$$
