ZINC09662710_2085
                    3D
 Schrodinger Suite 2024-2.
 54 56  0  0  1  0            999 V2000
   -5.5172   51.9963   24.7686 C   0  0  0  0  0  0
   -4.0793   52.4900   24.9964 C   0  0  0  0  0  0
   -3.4963   51.9324   26.3176 C   0  0  0  0  0  0
   -2.0632   52.4514   26.5524 C   0  0  0  0  0  0
   -1.2166   52.1798   25.3697 N   0  0  0  0  0  0
   -1.7106   52.6523   24.0582 C   0  0  0  0  0  0
   -3.1386   52.1196   23.8227 C   0  0  0  0  0  0
    0.3630   51.4150   25.5457 S   0  0  0  0  0  0
    0.7952   50.9420   24.2241 O   0  0  0  0  0  0
    0.3087   50.5144   26.7016 O   0  0  0  0  0  0
    1.5038   52.7256   26.0182 C   0  0  0  0  0  0
    2.4530   53.2005   25.1067 C   0  0  0  0  0  0
    3.4859   54.0673   25.5173 C   0  0  0  0  0  0
    3.4962   54.4973   26.8556 C   0  0  0  0  0  0
    2.5040   54.0844   27.7488 C   0  0  0  0  0  0
    1.5158   53.1919   27.3347 C   0  0  0  0  0  0
    2.5245   54.7164   29.5460 Br  0  0  0  0  0  0
    4.5988   54.4963   24.5788 C   0  0  0  0  0  0
    5.5312   55.1795   25.0067 O   0  0  0  0  0  0
    4.4700   54.0962   23.2912 N   0  0  0  0  0  0
    5.2644   54.3777   22.1645 C   0  0  0  0  0  0
    4.7557   53.9272   20.9421 C   0  0  0  0  0  0
    5.4420   54.1766   19.7592 C   0  0  0  0  0  0
    6.6366   54.8975   19.7851 C   0  0  0  0  0  0
    7.1631   55.3357   21.0078 C   0  0  0  0  0  0
    6.4884   55.0657   22.1959 C   0  0  0  0  0  0
    7.2949   55.0923   18.5643 N   0  0  0  0  0  0
    8.0163   56.1698   18.2018 C   0  0  0  0  0  0
    8.1507   57.1893   18.8816 O   0  0  0  0  0  0
    8.6705   56.0934   16.8293 C   0  0  0  0  0  0
   -5.5612   50.9079   24.7014 H   0  0  0  0  0  0
   -6.1744   52.3026   25.5848 H   0  0  0  0  0  0
   -5.9355   52.4018   23.8485 H   0  0  0  0  0  0
   -4.0935   53.5791   25.0756 H   0  0  0  0  0  0
   -3.4976   50.8413   26.3043 H   0  0  0  0  0  0
   -4.1377   52.1954   27.1590 H   0  0  0  0  0  0
   -1.6213   51.9797   27.4317 H   0  0  0  0  0  0
   -2.0697   53.5237   26.7351 H   0  0  0  0  0  0
   -1.6919   53.7402   24.0615 H   0  0  0  0  0  0
   -1.0320   52.3237   23.2715 H   0  0  0  0  0  0
   -3.5275   52.5006   22.8823 H   0  0  0  0  0  0
   -3.1167   51.0355   23.6914 H   0  0  0  0  0  0
    2.4211   52.8137   24.1006 H   0  0  0  0  0  0
    4.2724   55.1586   27.2150 H   0  0  0  0  0  0
    0.7864   52.8313   28.0468 H   0  0  0  0  0  0
    3.6491   53.5537   23.0807 H   0  0  0  0  0  0
    3.8207   53.3867   20.8962 H   0  0  0  0  0  0
    5.0329   53.8175   18.8253 H   0  0  0  0  0  0
    8.1074   55.8576   21.0476 H   0  0  0  0  0  0
    6.9378   55.4071   23.1124 H   0  0  0  0  0  0
    7.1492   54.3784   17.8642 H   0  0  0  0  0  0
    7.9495   55.7917   16.0687 H   0  0  0  0  0  0
    9.4875   55.3713   16.8437 H   0  0  0  0  0  0
    9.0806   57.0659   16.5439 H   0  0  0  0  0  0
  1  2  1  0  0  0
  1 31  1  0  0  0
  1 32  1  0  0  0
  1 33  1  0  0  0
  2  7  1  0  0  0
  2  3  1  0  0  0
  2 34  1  0  0  0
  3  4  1  0  0  0
  3 35  1  0  0  0
  3 36  1  0  0  0
  4  5  1  0  0  0
  4 37  1  0  0  0
  4 38  1  0  0  0
  5  6  1  0  0  0
  5  8  1  0  0  0
  6  7  1  0  0  0
  6 39  1  0  0  0
  6 40  1  0  0  0
  7 41  1  0  0  0
  7 42  1  0  0  0
  8  9  2  0  0  0
  8 10  2  0  0  0
  8 11  1  0  0  0
 11 16  2  0  0  0
 11 12  1  0  0  0
 12 13  2  0  0  0
 12 43  1  0  0  0
 13 14  1  0  0  0
 13 18  1  0  0  0
 14 15  2  0  0  0
 14 44  1  0  0  0
 15 16  1  0  0  0
 15 17  1  0  0  0
 16 45  1  0  0  0
 18 19  2  0  0  0
 18 20  1  0  0  0
 20 21  1  0  0  0
 20 46  1  0  0  0
 21 26  2  0  0  0
 21 22  1  0  0  0
 22 23  2  0  0  0
 22 47  1  0  0  0
 23 24  1  0  0  0
 23 48  1  0  0  0
 24 25  2  0  0  0
 24 27  1  0  0  0
 25 26  1  0  0  0
 25 49  1  0  0  0
 26 50  1  0  0  0
 27 28  1  0  0  0
 27 51  1  0  0  0
 28 29  2  0  0  0
 28 30  1  0  0  0
 30 52  1  0  0  0
 30 53  1  0  0  0
 30 54  1  0  0  0
M  END
> <i_i_glide_confnum>
131

> <i_i_glide_lignum>
2086

> <i_i_glide_posenum>
400

> <i_i_glide_rotatable_bonds>
7

> <i_m_Source_File_Index>
5991

> <b_m_subgroup_collapsed>
0

> <r_i_docking_score>
-4.14915

> <r_i_glide_ecoul>
-1.4091

> <r_i_glide_eff_state_penalty>
0

> <r_i_glide_einternal>
5.42999

> <r_i_glide_emodel>
-48.4747

> <r_i_glide_energy>
-40.0429

> <r_i_glide_erotb>
0.500213

> <r_i_glide_esite>
-0.0633039

> <r_i_glide_evdw>
-38.6338

> <r_i_glide_gscore>
-4.14915

> <r_i_glide_hbond>
-0.00530248

> <r_i_glide_ligand_efficiency>
-0.138305

> <r_i_glide_ligand_efficiency_ln>
-0.942732

> <r_i_glide_ligand_efficiency_sa>
-0.429746

> <r_i_glide_lipo>
-2.27281

> <r_i_glide_metal>
0

> <r_i_glide_rewards>
-0.164885

> <s_i_glide_gridfile>
wee1_glide-grid

> <s_m_Source_File>
wee1_decoys_glide_SP.sdf

> <s_m_Source_Path>
/Users/zhangxujun/Desktop

> <s_m_entry_id>
6266

> <s_m_entry_name>
wee1_decoys_glide_SP.5991

> <s_m_subgroup_title>
wee1_decoys_glide_SP

> <s_m_subgroupid>
wee1_decoys_glide_SP


$$$$
