ZINC63526316_5268
                    3D
 Schrodinger Suite 2024-2.
 58 62  0  0  1  0            999 V2000
    9.6590   58.4532   16.9724 C   0  0  0  0  0  0
   10.0349   57.1388   17.3776 O   0  0  0  0  0  0
    9.1472   56.1141   17.2327 C   0  0  0  0  0  0
    9.5585   54.7888   17.6808 C   0  0  0  0  0  0
    8.7528   53.6970   17.6022 C   0  0  0  0  0  0
    7.4576   53.8063   17.0832 C   0  0  0  0  0  0
    6.5029   52.8969   16.9744 N   0  3  0  0  0  0
    5.2900   53.5004   16.3727 C   0  0  1  0  0  0
    5.1417   53.0109   15.4094 H   0  0  0  0  0  0
    3.9699   53.4512   17.2013 C   0  0  2  0  0  0
    3.5523   52.4562   17.0306 H   0  0  0  0  0  0
    2.9760   54.3872   16.6580 N   0  0  0  0  0  0
    3.4328   55.7777   16.5728 C   0  0  0  0  0  0
    4.7050   55.9192   15.7010 C   0  0  0  0  0  0
    5.7497   54.9283   16.1866 C   0  0  0  0  0  0
    7.0158   55.0473   16.6127 C   0  0  0  0  0  0
    7.8987   56.2168   16.7087 C   0  0  0  0  0  0
    4.1537   53.5178   18.7270 C   0  0  0  0  0  0
    4.8866   54.5305   19.3511 C   0  0  0  0  0  0
    5.1260   54.4929   20.7199 C   0  0  0  0  0  0
    4.6172   53.4507   21.5116 C   0  0  0  0  0  0
    3.8525   52.4431   20.9001 C   0  0  0  0  0  0
    3.6255   52.4957   19.5163 C   0  0  0  0  0  0
    3.3789   51.4205   21.7023 O   0  0  0  0  0  0
    2.5797   50.3842   21.1394 C   0  0  0  0  0  0
    4.8243   53.3541   22.8779 O   0  0  0  0  0  0
    5.7141   54.2544   23.5405 C   0  0  0  0  0  0
    5.4378   54.2706   25.0365 C   0  0  0  0  0  0
    6.4948   54.4301   25.9346 C   0  0  0  0  0  0
    6.2525   54.4829   27.3066 C   0  0  0  0  0  0
    4.9480   54.3857   27.7934 C   0  0  0  0  0  0
    3.8818   54.2212   26.8990 C   0  0  0  0  0  0
    4.1312   54.1666   25.5265 C   0  0  0  0  0  0
    2.2489   54.0979   27.4560 Cl  0  0  0  0  0  0
    4.6824   54.4944   29.4984 Cl  0  0  0  0  0  0
    9.4379   58.4993   15.9046 H   0  0  0  0  0  0
    8.7987   58.8196   17.5348 H   0  0  0  0  0  0
   10.4879   59.1348   17.1621 H   0  0  0  0  0  0
   10.5526   54.6766   18.0914 H   0  0  0  0  0  0
    9.1366   52.7487   17.9499 H   0  0  0  0  0  0
    2.6346   54.0704   15.7618 H   0  0  0  0  0  0
    2.6392   56.3873   16.1373 H   0  0  0  0  0  0
    3.6247   56.1794   17.5681 H   0  0  0  0  0  0
    4.4599   55.7380   14.6543 H   0  0  0  0  0  0
    5.0691   56.9455   15.7506 H   0  0  0  0  0  0
    7.5467   57.1757   16.3621 H   0  0  0  0  0  0
    5.3070   55.3438   18.7827 H   0  0  0  0  0  0
    5.7214   55.2897   21.1335 H   0  0  0  0  0  0
    3.0685   51.7111   19.0274 H   0  0  0  0  0  0
    2.3242   49.6665   21.9197 H   0  0  0  0  0  0
    1.6466   50.7785   20.7331 H   0  0  0  0  0  0
    3.1072   49.8396   20.3549 H   0  0  0  0  0  0
    6.7421   53.9454   23.3410 H   0  0  0  0  0  0
    5.6070   55.2856   23.2138 H   0  0  0  0  0  0
    7.5046   54.5080   25.5640 H   0  0  0  0  0  0
    7.0751   54.6060   27.9970 H   0  0  0  0  0  0
    3.3053   54.0458   24.8398 H   0  0  0  0  0  0
    6.5465   51.9246   17.2837 H   0  0  0  0  0  0
  1  2  1  0  0  0
  1 36  1  0  0  0
  1 37  1  0  0  0
  1 38  1  0  0  0
  2  3  1  0  0  0
  3 17  2  0  0  0
  3  4  1  0  0  0
  4  5  2  0  0  0
  4 39  1  0  0  0
  5  6  1  0  0  0
  5 40  1  0  0  0
  6 16  1  0  0  0
  6  7  2  0  0  0
  7  8  1  0  0  0
  7 58  1  0  0  0
  8  9  1  0  0  0
  8 15  1  0  0  0
  8 10  1  0  0  0
 10 11  1  0  0  0
 10 12  1  0  0  0
 10 18  1  0  0  0
 12 13  1  0  0  0
 12 41  1  0  0  0
 13 14  1  0  0  0
 13 42  1  0  0  0
 13 43  1  0  0  0
 14 15  1  0  0  0
 14 44  1  0  0  0
 14 45  1  0  0  0
 15 16  2  0  0  0
 16 17  1  0  0  0
 17 46  1  0  0  0
 18 23  2  0  0  0
 18 19  1  0  0  0
 19 20  2  0  0  0
 19 47  1  0  0  0
 20 21  1  0  0  0
 20 48  1  0  0  0
 21 22  2  0  0  0
 21 26  1  0  0  0
 22 23  1  0  0  0
 22 24  1  0  0  0
 23 49  1  0  0  0
 24 25  1  0  0  0
 25 50  1  0  0  0
 25 51  1  0  0  0
 25 52  1  0  0  0
 26 27  1  0  0  0
 27 28  1  0  0  0
 27 53  1  0  0  0
 27 54  1  0  0  0
 28 33  2  0  0  0
 28 29  1  0  0  0
 29 30  2  0  0  0
 29 55  1  0  0  0
 30 31  1  0  0  0
 30 56  1  0  0  0
 31 32  2  0  0  0
 31 35  1  0  0  0
 32 33  1  0  0  0
 32 34  1  0  0  0
 33 57  1  0  0  0
M  CHG  1   7   1
M  END
> <i_i_glide_confnum>
102

> <i_i_glide_lignum>
5269

> <i_i_glide_posenum>
291

> <i_i_glide_rotatable_bonds>
6

> <i_m_Source_File_Index>
1921

> <b_m_subgroup_collapsed>
0

> <r_i_docking_score>
-5.22566

> <r_i_glide_ecoul>
-3.06148

> <r_i_glide_eff_state_penalty>
0

> <r_i_glide_einternal>
3.72528

> <r_i_glide_emodel>
-54.5988

> <r_i_glide_energy>
-40.2808

> <r_i_glide_erotb>
0.346196

> <r_i_glide_esite>
-0.059722

> <r_i_glide_evdw>
-37.2193

> <r_i_glide_gscore>
-5.22566

> <r_i_glide_hbond>
-0.162475

> <r_i_glide_ligand_efficiency>
-0.158353

> <r_i_glide_ligand_efficiency_ln>
-1.16216

> <r_i_glide_ligand_efficiency_sa>
-0.507923

> <r_i_glide_lipo>
-2.8314

> <r_i_glide_metal>
0

> <r_i_glide_rewards>
-0.198073

> <s_i_glide_gridfile>
wee1_glide-grid

> <s_m_Source_File>
wee1_decoys_glide_SP.sdf

> <s_m_Source_Path>
/Users/zhangxujun/Desktop

> <s_m_entry_id>
2196

> <s_m_entry_name>
wee1_decoys_glide_SP.1921

> <s_m_subgroup_title>
wee1_decoys_glide_SP

> <s_m_subgroupid>
wee1_decoys_glide_SP


$$$$
