ZINC20701853_4535
                    3D
 Schrodinger Suite 2024-2.
 54 57  0  0  1  0            999 V2000
   -0.3541   51.5260   28.6808 C   0  0  0  0  0  0
    0.8790   52.4272   28.4890 C   0  0  0  0  0  0
    1.0748   53.5110   29.5737 C   0  0  1  0  0  0
    0.1966   54.1564   29.5190 H   0  0  0  0  0  0
    1.1151   52.9711   31.0155 C   0  0  0  0  0  0
    2.2368   54.4079   29.3006 N   0  0  0  0  0  0
    3.9309   53.8708   29.2817 S   0  0  0  0  0  0
    4.7038   54.8584   30.0263 O   0  0  0  0  0  0
    3.9911   52.4416   29.6125 O   0  0  0  0  0  0
    4.5161   54.0496   27.6159 C   0  0  0  0  0  0
    5.7765   54.5771   27.3265 C   0  0  0  0  0  0
    6.1818   54.7012   25.9970 C   0  0  0  0  0  0
    5.3398   54.2961   24.9595 C   0  0  0  0  0  0
    4.0901   53.7334   25.2621 C   0  0  0  0  0  0
    3.6937   53.6412   26.5889 C   0  0  0  0  0  0
    3.1869   53.1385   24.2177 C   0  0  1  0  0  0
    3.0973   52.0968   24.4808 H   0  0  0  0  0  0
    1.8048   53.7331   24.2050 C   0  0  0  0  0  0
    1.6195   54.4439   23.0948 C   0  0  0  0  0  0
    2.8359   54.3824   22.1934 C   0  0  0  0  0  0
    3.7071   53.3086   22.7902 C   0  0  1  0  0  0
    3.4527   52.3838   22.2645 H   0  0  0  0  0  0
    5.2337   53.5491   22.5592 C   0  0  2  0  0  0
    5.7411   52.5841   22.6041 H   0  0  0  0  0  0
    5.8244   54.3591   23.6408 N   0  0  0  0  0  0
    5.5047   54.0940   21.1265 C   0  0  0  0  0  0
    5.9756   55.4051   20.9440 C   0  0  0  0  0  0
    6.1770   55.9346   19.6744 C   0  0  0  0  0  0
    5.9317   55.1532   18.5499 C   0  0  0  0  0  0
    5.4880   53.8416   18.6947 C   0  0  0  0  0  0
    5.2751   53.3094   19.9757 C   0  0  0  0  0  0
    4.8586   52.0084   20.0927 O   0  0  0  0  0  0
    5.2090   52.8977   17.2685 Cl  0  0  0  0  0  0
    6.7053   57.5677   19.5013 Cl  0  0  0  0  0  0
   -0.4802   50.8544   27.8308 H   0  0  0  0  0  0
   -1.2719   52.1054   28.7731 H   0  0  0  0  0  0
   -0.2703   50.8992   29.5660 H   0  0  0  0  0  0
    1.7664   51.7984   28.4092 H   0  0  0  0  0  0
    0.7593   52.9229   27.5275 H   0  0  0  0  0  0
    0.2411   52.3639   31.2454 H   0  0  0  0  0  0
    1.9919   52.3553   31.2077 H   0  0  0  0  0  0
    1.1042   53.7890   31.7329 H   0  0  0  0  0  0
    2.1016   55.3861   29.5673 H   0  0  0  0  0  0
    6.4344   54.8938   28.1243 H   0  0  0  0  0  0
    7.1522   55.1099   25.7727 H   0  0  0  0  0  0
    2.7435   53.1927   26.8131 H   0  0  0  0  0  0
    1.1081   53.6205   25.0227 H   0  0  0  0  0  0
    0.7444   55.0296   22.8817 H   0  0  0  0  0  0
    3.3632   55.3205   22.1895 H   0  0  0  0  0  0
    2.6960   54.0952   21.1596 H   0  0  0  0  0  0
    6.7864   54.6262   23.4774 H   0  0  0  0  0  0
    6.1770   56.0473   21.7872 H   0  0  0  0  0  0
    6.0878   55.5659   17.5638 H   0  0  0  0  0  0
    5.0093   51.4828   19.2838 H   0  0  0  0  0  0
  1  2  1  0  0  0
  1 35  1  0  0  0
  1 36  1  0  0  0
  1 37  1  0  0  0
  2  3  1  0  0  0
  2 38  1  0  0  0
  2 39  1  0  0  0
  3  4  1  0  0  0
  3  5  1  0  0  0
  3  6  1  0  0  0
  5 40  1  0  0  0
  5 41  1  0  0  0
  5 42  1  0  0  0
  6  7  1  0  0  0
  6 43  1  0  0  0
  7  8  2  0  0  0
  7  9  2  0  0  0
  7 10  1  0  0  0
 10 15  2  0  0  0
 10 11  1  0  0  0
 11 12  2  0  0  0
 11 44  1  0  0  0
 12 13  1  0  0  0
 12 45  1  0  0  0
 13 25  1  0  0  0
 13 14  2  0  0  0
 14 15  1  0  0  0
 14 16  1  0  0  0
 15 46  1  0  0  0
 16 17  1  0  0  0
 16 21  1  0  0  0
 16 18  1  0  0  0
 18 19  2  0  0  0
 18 47  1  0  0  0
 19 20  1  0  0  0
 19 48  1  0  0  0
 20 21  1  0  0  0
 20 49  1  0  0  0
 20 50  1  0  0  0
 21 22  1  0  0  0
 21 23  1  0  0  0
 23 24  1  0  0  0
 23 25  1  0  0  0
 23 26  1  0  0  0
 25 51  1  0  0  0
 26 31  2  0  0  0
 26 27  1  0  0  0
 27 28  2  0  0  0
 27 52  1  0  0  0
 28 29  1  0  0  0
 28 34  1  0  0  0
 29 30  2  0  0  0
 29 53  1  0  0  0
 30 31  1  0  0  0
 30 33  1  0  0  0
 31 32  1  0  0  0
 32 54  1  0  0  0
M  END
> <i_i_glide_confnum>
39

> <i_i_glide_lignum>
4536

> <i_i_glide_posenum>
72

> <i_i_glide_rotatable_bonds>
6

> <i_m_Source_File_Index>
95

> <b_m_subgroup_collapsed>
0

> <r_i_docking_score>
-4.98802

> <r_i_glide_ecoul>
-6.3973

> <r_i_glide_eff_state_penalty>
0

> <r_i_glide_einternal>
4.346

> <r_i_glide_emodel>
-42.3761

> <r_i_glide_energy>
-34.7234

> <r_i_glide_erotb>
0.369516

> <r_i_glide_esite>
-0.0169714

> <r_i_glide_evdw>
-28.3261

> <r_i_glide_gscore>
-4.98802

> <r_i_glide_hbond>
-0.16

> <r_i_glide_ligand_efficiency>
-0.166267

> <r_i_glide_ligand_efficiency_ln>
-1.13333

> <r_i_glide_ligand_efficiency_sa>
-0.516632

> <r_i_glide_lipo>
-3.01231

> <r_i_glide_metal>
0

> <r_i_glide_rewards>
0.207649

> <s_i_glide_gridfile>
wee1_glide-grid

> <s_m_Source_File>
wee1_decoys_glide_SP.sdf

> <s_m_Source_Path>
/Users/zhangxujun/Desktop

> <s_m_entry_id>
370

> <s_m_entry_name>
wee1_decoys_glide_SP.95

> <s_m_subgroup_title>
wee1_decoys_glide_SP

> <s_m_subgroupid>
wee1_decoys_glide_SP


$$$$
