ZINC39426047_4142
                    3D
 Schrodinger Suite 2024-2.
 50 53  0  0  1  0            999 V2000
    4.3746   51.3221   21.3173 C   0  0  0  0  0  0
    3.4330   52.4611   20.8482 C   0  0  0  0  0  0
    2.2294   51.8856   20.0550 C   0  0  0  0  0  0
    1.3048   51.0171   20.9482 C   0  0  0  0  0  0
    1.2144   51.2385   22.2969 C   0  0  0  0  0  0
    0.3755   50.3146   23.2235 C   0  0  2  0  0  0
    1.1344   49.8993   23.8837 H   0  0  0  0  0  0
   -0.1835   49.1102   22.4643 C   0  0  0  0  0  0
   -0.0370   48.9682   21.1298 C   0  0  0  0  0  0
    0.6643   49.9108   20.3597 N   0  0  0  0  0  0
    0.6446   49.8154   18.9745 C   0  0  0  0  0  0
    1.3546   48.9776   18.2579 N   0  0  0  0  0  0
    1.1014   49.1005   16.8983 N   0  0  0  0  0  0
    0.2245   50.0322   16.6084 C   0  0  0  0  0  0
   -0.3970   50.8382   18.0287 S   0  0  0  0  0  0
   -0.2710   50.3966   14.9512 S   0  0  0  0  0  0
   -1.3572   51.8311   15.1981 C   0  0  0  0  0  0
   -0.5665   47.8822   20.4589 N   0  0  0  0  0  0
   -0.9058   48.1285   23.2165 C   0  0  0  0  0  0
   -1.4937   47.3063   23.7809 N   0  0  0  0  0  0
   -0.6686   50.9775   24.1545 C   0  0  0  0  0  0
   -1.6772   51.8117   23.6240 C   0  0  0  0  0  0
   -2.6157   52.4090   24.4664 C   0  0  0  0  0  0
   -2.5873   52.1706   25.8367 C   0  0  0  0  0  0
   -1.6189   51.3274   26.3712 C   0  0  0  0  0  0
   -0.6640   50.7326   25.5468 C   0  0  0  0  0  0
    0.4942   49.6966   26.3126 Cl  0  0  0  0  0  0
   -1.8442   52.0999   21.9237 Cl  0  0  0  0  0  0
    1.9165   52.3792   22.9418 C   0  0  0  0  0  0
    1.6931   52.7312   24.0991 O   0  0  0  0  0  0
    2.8488   53.2255   22.0606 C   0  0  0  0  0  0
    4.1653   53.4840   19.9546 C   0  0  0  0  0  0
    5.1210   51.6900   22.0224 H   0  0  0  0  0  0
    3.8411   50.4988   21.7918 H   0  0  0  0  0  0
    4.9186   50.8966   20.4767 H   0  0  0  0  0  0
    2.7002   51.2887   19.2707 H   0  0  0  0  0  0
    1.6181   52.6582   19.5855 H   0  0  0  0  0  0
   -1.7099   52.1883   14.2308 H   0  0  0  0  0  0
   -2.2314   51.5623   15.7912 H   0  0  0  0  0  0
   -0.8206   52.6489   15.6797 H   0  0  0  0  0  0
   -1.1070   47.1818   20.9457 H   0  0  0  0  0  0
   -0.4324   47.7710   19.4641 H   0  0  0  0  0  0
   -3.3835   53.0468   24.0535 H   0  0  0  0  0  0
   -3.3241   52.6247   26.4828 H   0  0  0  0  0  0
   -1.6115   51.1210   27.4327 H   0  0  0  0  0  0
    3.6199   53.6782   22.6840 H   0  0  0  0  0  0
    2.2329   54.0411   21.6839 H   0  0  0  0  0  0
    4.9973   53.9496   20.4843 H   0  0  0  0  0  0
    4.5773   53.0059   19.0641 H   0  0  0  0  0  0
    3.5046   54.2835   19.6172 H   0  0  0  0  0  0
  1  2  1  0  0  0
  1 33  1  0  0  0
  1 34  1  0  0  0
  1 35  1  0  0  0
  2 31  1  0  0  0
  2  3  1  0  0  0
  2 32  1  0  0  0
  3  4  1  0  0  0
  3 36  1  0  0  0
  3 37  1  0  0  0
  4 10  1  0  0  0
  4  5  2  0  0  0
  5  6  1  0  0  0
  5 29  1  0  0  0
  6  7  1  0  0  0
  6  8  1  0  0  0
  6 21  1  0  0  0
  8  9  2  0  0  0
  8 19  1  0  0  0
  9 10  1  0  0  0
  9 18  1  0  0  0
 10 11  1  0  0  0
 11 15  1  0  0  0
 11 12  2  0  0  0
 12 13  1  0  0  0
 13 14  2  0  0  0
 14 15  1  0  0  0
 14 16  1  0  0  0
 16 17  1  0  0  0
 17 38  1  0  0  0
 17 39  1  0  0  0
 17 40  1  0  0  0
 18 41  1  0  0  0
 18 42  1  0  0  0
 19 20  3  0  0  0
 21 26  2  0  0  0
 21 22  1  0  0  0
 22 23  2  0  0  0
 22 28  1  0  0  0
 23 24  1  0  0  0
 23 43  1  0  0  0
 24 25  2  0  0  0
 24 44  1  0  0  0
 25 26  1  0  0  0
 25 45  1  0  0  0
 26 27  1  0  0  0
 29 30  2  0  0  0
 29 31  1  0  0  0
 31 46  1  0  0  0
 31 47  1  0  0  0
 32 48  1  0  0  0
 32 49  1  0  0  0
 32 50  1  0  0  0
M  END
> <i_i_glide_confnum>
4

> <i_i_glide_lignum>
4143

> <i_i_glide_posenum>
234

> <i_i_glide_rotatable_bonds>
4

> <i_m_Source_File_Index>
2682

> <b_m_subgroup_collapsed>
0

> <r_i_docking_score>
-1.94614

> <r_i_glide_ecoul>
-0.349875

> <r_i_glide_eff_state_penalty>
0

> <r_i_glide_einternal>
1.27233

> <r_i_glide_emodel>
-32.5603

> <r_i_glide_energy>
-29.4346

> <r_i_glide_erotb>
0.167953

> <r_i_glide_esite>
-0.158209

> <r_i_glide_evdw>
-29.0847

> <r_i_glide_gscore>
-1.94614

> <r_i_glide_hbond>
0

> <r_i_glide_ligand_efficiency>
-0.0627788

> <r_i_glide_ligand_efficiency_ln>
-0.438915

> <r_i_glide_ligand_efficiency_sa>
-0.197212

> <r_i_glide_lipo>
-0.251209

> <r_i_glide_metal>
0

> <r_i_glide_rewards>
-0.197961

> <s_i_glide_gridfile>
wee1_glide-grid

> <s_m_Source_File>
wee1_decoys_glide_SP.sdf

> <s_m_Source_Path>
/Users/zhangxujun/Desktop

> <s_m_entry_id>
2957

> <s_m_entry_name>
wee1_decoys_glide_SP.2682

> <s_m_subgroup_title>
wee1_decoys_glide_SP

> <s_m_subgroupid>
wee1_decoys_glide_SP


$$$$
