ZINC20167907_5486
                    3D
 Schrodinger Suite 2024-2.
 58 61  0  0  1  0            999 V2000
    1.9047   48.2014   19.0366 C   0  0  0  0  0  0
    0.7903   48.4320   20.0584 C   0  0  0  0  0  0
    1.2926   49.2173   21.1306 O   0  0  0  0  0  0
    0.4669   49.6940   22.0936 C   0  0  0  0  0  0
   -0.7334   49.4126   22.1431 O   0  0  0  0  0  0
    1.1221   50.6436   23.0476 C   0  0  0  0  0  0
    2.2008   51.4042   22.7906 C   0  0  0  0  0  0
    2.3041   52.4068   23.8334 C   0  0  0  0  0  0
    3.1133   53.5026   23.8367 C   0  0  0  0  0  0
    4.1451   53.9522   22.8792 C   0  0  0  0  0  0
    3.9056   54.0748   21.5080 C   0  0  0  0  0  0
    4.9205   54.4994   20.6546 C   0  0  0  0  0  0
    6.1458   54.8965   21.1832 C   0  0  0  0  0  0
    6.3937   54.7912   22.5488 C   0  0  0  0  0  0
    5.3990   54.3042   23.3929 C   0  0  0  0  0  0
    7.1099   55.3735   20.3651 F   0  0  0  0  0  0
    1.3632   51.9552   24.8810 C   0  0  0  0  0  0
    1.2350   52.3862   26.1844 C   0  0  0  0  0  0
    0.0496   51.6704   27.3198 S   0  0  0  0  0  0
   -1.0267   50.8445   26.1309 C   0  0  2  0  0  0
   -1.5197   50.0684   26.7193 H   0  0  0  0  0  0
   -0.2023   50.0969   25.0593 C   0  0  0  0  0  0
   -0.3453   48.8848   24.8829 O   0  0  0  0  0  0
    0.6505   50.8943   24.3270 N   0  0  0  0  0  0
   -2.1471   51.7678   25.6085 C   0  0  0  0  0  0
   -2.1193   52.4072   24.3576 C   0  0  0  0  0  0
   -3.1268   53.2960   24.0017 C   0  0  0  0  0  0
   -4.1658   53.5655   24.8836 C   0  0  0  0  0  0
   -4.2249   52.9212   26.1124 C   0  0  0  0  0  0
   -3.2166   52.0314   26.4754 C   0  0  0  0  0  0
   -5.1134   54.4717   24.5508 F   0  0  0  0  0  0
    2.1561   53.3143   26.8635 C   0  0  0  0  0  0
    3.3824   53.2966   26.7235 O   0  0  0  0  0  0
    1.5264   54.1618   27.7186 O   0  0  0  0  0  0
    2.2653   55.0275   28.5745 C   0  0  0  0  0  0
    2.9821   54.2360   29.6819 C   0  0  0  0  0  0
    2.9889   51.3190   21.6693 N   0  0  0  0  0  0
    1.5636   47.5790   18.2105 H   0  0  0  0  0  0
    2.2587   49.1431   18.6137 H   0  0  0  0  0  0
    2.7595   47.7057   19.4938 H   0  0  0  0  0  0
    0.4220   47.4795   20.4399 H   0  0  0  0  0  0
   -0.0479   48.9396   19.5782 H   0  0  0  0  0  0
    3.0156   54.2132   24.6355 H   0  0  0  0  0  0
    2.9346   53.8408   21.0970 H   0  0  0  0  0  0
    4.7372   54.5825   19.5925 H   0  0  0  0  0  0
    7.3561   55.0819   22.9454 H   0  0  0  0  0  0
    5.5989   54.2212   24.4516 H   0  0  0  0  0  0
   -1.3258   52.2494   23.6460 H   0  0  0  0  0  0
   -3.0937   53.7905   23.0456 H   0  0  0  0  0  0
   -5.0395   53.1256   26.7909 H   0  0  0  0  0  0
   -3.2586   51.5540   27.4442 H   0  0  0  0  0  0
    2.9780   55.6160   27.9964 H   0  0  0  0  0  0
    1.5689   55.7367   29.0230 H   0  0  0  0  0  0
    3.5504   54.8964   30.3268 H   0  0  0  0  0  0
    2.2647   53.6897   30.2959 H   0  0  0  0  0  0
    3.6907   53.5115   29.2806 H   0  0  0  0  0  0
    2.8136   50.6101   20.9710 H   0  0  0  0  0  0
    3.7589   51.9554   21.5212 H   0  0  0  0  0  0
  1  2  1  0  0  0
  1 38  1  0  0  0
  1 39  1  0  0  0
  1 40  1  0  0  0
  2  3  1  0  0  0
  2 41  1  0  0  0
  2 42  1  0  0  0
  3  4  1  0  0  0
  4  5  2  0  0  0
  4  6  1  0  0  0
  6 24  1  0  0  0
  6  7  2  0  0  0
  7  8  1  0  0  0
  7 37  1  0  0  0
  8  9  2  0  0  0
  8 17  1  0  0  0
  9 10  1  0  0  0
  9 43  1  0  0  0
 10 15  2  0  0  0
 10 11  1  0  0  0
 11 12  2  0  0  0
 11 44  1  0  0  0
 12 13  1  0  0  0
 12 45  1  0  0  0
 13 14  2  0  0  0
 13 16  1  0  0  0
 14 15  1  0  0  0
 14 46  1  0  0  0
 15 47  1  0  0  0
 17 24  1  0  0  0
 17 18  2  0  0  0
 18 19  1  0  0  0
 18 32  1  0  0  0
 19 20  1  0  0  0
 20 21  1  0  0  0
 20 22  1  0  0  0
 20 25  1  0  0  0
 22 23  2  0  0  0
 22 24  1  0  0  0
 25 30  2  0  0  0
 25 26  1  0  0  0
 26 27  2  0  0  0
 26 48  1  0  0  0
 27 28  1  0  0  0
 27 49  1  0  0  0
 28 29  2  0  0  0
 28 31  1  0  0  0
 29 30  1  0  0  0
 29 50  1  0  0  0
 30 51  1  0  0  0
 32 33  2  0  0  0
 32 34  1  0  0  0
 34 35  1  0  0  0
 35 36  1  0  0  0
 35 52  1  0  0  0
 35 53  1  0  0  0
 36 54  1  0  0  0
 36 55  1  0  0  0
 36 56  1  0  0  0
 37 57  1  0  0  0
 37 58  1  0  0  0
M  END
> <i_i_glide_confnum>
25

> <i_i_glide_lignum>
5487

> <i_i_glide_posenum>
392

> <i_i_glide_rotatable_bonds>
8

> <i_m_Source_File_Index>
4836

> <b_m_subgroup_collapsed>
0

> <r_i_docking_score>
-4.87745

> <r_i_glide_ecoul>
-0.946855

> <r_i_glide_eff_state_penalty>
0

> <r_i_glide_einternal>
2.70257

> <r_i_glide_emodel>
-57.3628

> <r_i_glide_energy>
-45.288

> <r_i_glide_erotb>
0.390207

> <r_i_glide_esite>
-0.0337002

> <r_i_glide_evdw>
-44.3411

> <r_i_glide_gscore>
-4.87745

> <r_i_glide_hbond>
0

> <r_i_glide_ligand_efficiency>
-0.135485

> <r_i_glide_ligand_efficiency_ln>
-1.06413

> <r_i_glide_ligand_efficiency_sa>
-0.447361

> <r_i_glide_lipo>
-2.35024

> <r_i_glide_metal>
0

> <r_i_glide_rewards>
-0.524625

> <s_i_glide_gridfile>
wee1_glide-grid

> <s_m_Source_File>
wee1_decoys_glide_SP.sdf

> <s_m_Source_Path>
/Users/zhangxujun/Desktop

> <s_m_entry_id>
5111

> <s_m_entry_name>
wee1_decoys_glide_SP.4836

> <s_m_subgroup_title>
wee1_decoys_glide_SP

> <s_m_subgroupid>
wee1_decoys_glide_SP


$$$$
