ZINC63485961_754
                    3D
 Schrodinger Suite 2024-2.
 63 68  0  0  1  0            999 V2000
   -2.8343   52.8963   24.9583 C   0  0  0  0  0  0
   -1.9319   51.6902   25.2728 C   0  0  1  0  0  0
   -1.3599   51.4926   24.3673 H   0  0  0  0  0  0
   -0.9496   51.9741   26.4044 C   0  0  0  0  0  0
    0.3385   52.4783   26.1807 C   0  0  0  0  0  0
    1.2131   52.6379   27.2693 C   0  0  0  0  0  0
    0.7759   52.2474   28.5577 C   0  0  0  0  0  0
   -0.5029   51.7471   28.8081 C   0  0  0  0  0  0
   -1.3519   51.6307   27.7082 C   0  0  0  0  0  0
   -2.6381   51.2033   27.9809 O   0  0  0  0  0  0
   -3.3680   50.5091   27.0472 C   0  0  0  0  0  0
   -4.4665   50.0851   27.4011 O   0  0  0  0  0  0
   -2.7551   50.4055   25.6286 C   0  0  2  0  0  0
   -3.6039   50.3350   24.9497 H   0  0  0  0  0  0
   -1.9496   49.0735   25.5117 C   0  0  0  0  0  0
   -1.4607   48.8193   24.0835 C   0  0  0  0  0  0
   -2.2753   48.6627   23.1757 O   0  0  0  0  0  0
   -0.1340   48.8603   23.8807 N   0  0  0  0  0  0
    0.4946   48.8981   22.5653 C   0  0  0  0  0  0
    0.5628   50.3346   22.0103 C   0  0  0  0  0  0
    1.1737   50.4508   20.6234 C   0  0  0  0  0  0
    0.6758   50.9811   19.4923 C   0  0  0  0  0  0
   -0.6210   51.6197   19.2170 C   0  0  0  0  0  0
   -0.9123   52.1104   17.9938 C   0  0  0  0  0  0
    0.1055   51.9761   16.9558 C   0  0  0  0  0  0
    1.3088   51.3842   17.1897 C   0  0  0  0  0  0
    1.6114   50.8814   18.4595 C   0  0  0  0  0  0
    2.7043   50.2950   18.8826 N   0  3  0  0  0  0
    2.5736   49.9620   20.3098 C   0  0  0  0  0  0
   -2.1002   52.7026   17.7420 F   0  0  0  0  0  0
    1.7611   52.4280   29.4864 O   0  0  0  0  0  0
    2.8200   52.9482   28.8038 C   0  0  0  0  0  0
    2.5431   53.1302   27.4513 C   0  0  0  0  0  0
    3.5577   53.6965   26.4652 C   0  0  0  0  0  0
    4.7515   54.3159   27.2378 C   0  0  0  0  0  0
    5.2248   53.4616   28.4315 C   0  0  0  0  0  0
    4.1223   53.2781   29.5084 C   0  0  0  0  0  0
   -3.3111   53.2947   25.8558 H   0  0  0  0  0  0
   -2.2668   53.6959   24.4822 H   0  0  0  0  0  0
   -3.6289   52.6226   24.2638 H   0  0  0  0  0  0
    0.6581   52.7423   25.1849 H   0  0  0  0  0  0
   -0.8253   51.4653   29.8024 H   0  0  0  0  0  0
   -1.0950   49.0812   26.1922 H   0  0  0  0  0  0
   -2.5562   48.2155   25.8136 H   0  0  0  0  0  0
    0.4751   48.9012   24.6852 H   0  0  0  0  0  0
    1.5072   48.5039   22.6519 H   0  0  0  0  0  0
   -0.0455   48.2559   21.8594 H   0  0  0  0  0  0
   -0.4398   50.7605   21.9819 H   0  0  0  0  0  0
    1.1471   50.9617   22.6852 H   0  0  0  0  0  0
   -1.3753   51.7079   19.9858 H   0  0  0  0  0  0
   -0.1098   52.3578   15.9689 H   0  0  0  0  0  0
    2.0280   51.3102   16.3830 H   0  0  0  0  0  0
    3.3572   50.4947   20.8505 H   0  0  0  0  0  0
    2.7043   48.8822   20.4108 H   0  0  0  0  0  0
    3.9073   52.9031   25.8069 H   0  0  0  0  0  0
    3.1015   54.4477   25.8202 H   0  0  0  0  0  0
    5.5801   54.4912   26.5499 H   0  0  0  0  0  0
    4.4577   55.2947   27.6113 H   0  0  0  0  0  0
    5.5463   52.4883   28.0606 H   0  0  0  0  0  0
    6.1083   53.9162   28.8814 H   0  0  0  0  0  0
    4.0172   54.1953   30.0860 H   0  0  0  0  0  0
    4.4101   52.4810   30.1951 H   0  0  0  0  0  0
    3.5477   50.1144   18.3190 H   0  0  0  0  0  0
  1  2  1  0  0  0
  1 38  1  0  0  0
  1 39  1  0  0  0
  1 40  1  0  0  0
  2  3  1  0  0  0
  2 13  1  0  0  0
  2  4  1  0  0  0
  4  9  2  0  0  0
  4  5  1  0  0  0
  5  6  2  0  0  0
  5 41  1  0  0  0
  6 33  1  0  0  0
  6  7  1  0  0  0
  7  8  2  0  0  0
  7 31  1  0  0  0
  8  9  1  0  0  0
  8 42  1  0  0  0
  9 10  1  0  0  0
 10 11  1  0  0  0
 11 12  2  0  0  0
 11 13  1  0  0  0
 13 14  1  0  0  0
 13 15  1  0  0  0
 15 16  1  0  0  0
 15 43  1  0  0  0
 15 44  1  0  0  0
 16 17  2  0  0  0
 16 18  1  0  0  0
 18 19  1  0  0  0
 18 45  1  0  0  0
 19 20  1  0  0  0
 19 46  1  0  0  0
 19 47  1  0  0  0
 20 21  1  0  0  0
 20 48  1  0  0  0
 20 49  1  0  0  0
 21 29  1  0  0  0
 21 22  2  0  0  0
 22 27  1  0  0  0
 22 23  1  0  0  0
 23 24  2  0  0  0
 23 50  1  0  0  0
 24 25  1  0  0  0
 24 30  1  0  0  0
 25 26  2  0  0  0
 25 51  1  0  0  0
 26 27  1  0  0  0
 26 52  1  0  0  0
 27 28  2  0  0  0
 28 29  1  0  0  0
 28 63  1  0  0  0
 29 53  1  0  0  0
 29 54  1  0  0  0
 31 32  1  0  0  0
 32 37  1  0  0  0
 32 33  2  0  0  0
 33 34  1  0  0  0
 34 35  1  0  0  0
 34 55  1  0  0  0
 34 56  1  0  0  0
 35 36  1  0  0  0
 35 57  1  0  0  0
 35 58  1  0  0  0
 36 37  1  0  0  0
 36 59  1  0  0  0
 36 60  1  0  0  0
 37 61  1  0  0  0
 37 62  1  0  0  0
M  CHG  1  28   1
M  END
> <i_i_glide_confnum>
12

> <i_i_glide_lignum>
755

> <i_i_glide_posenum>
233

> <i_i_glide_rotatable_bonds>
6

> <i_m_Source_File_Index>
4426

> <b_m_subgroup_collapsed>
0

> <r_i_docking_score>
-4.18395

> <r_i_glide_ecoul>
-3.13763

> <r_i_glide_eff_state_penalty>
0

> <r_i_glide_einternal>
6.98661

> <r_i_glide_emodel>
-45.7101

> <r_i_glide_energy>
-37.1602

> <r_i_glide_erotb>
0.447598

> <r_i_glide_esite>
-0.229788

> <r_i_glide_evdw>
-34.0226

> <r_i_glide_gscore>
-4.18395

> <r_i_glide_hbond>
-0.368076

> <r_i_glide_ligand_efficiency>
-0.119542

> <r_i_glide_ligand_efficiency_ln>
-0.918471

> <r_i_glide_ligand_efficiency_sa>
-0.391028

> <r_i_glide_lipo>
-1.69713

> <r_i_glide_metal>
0

> <r_i_glide_rewards>
-0.164789

> <s_i_glide_gridfile>
wee1_glide-grid

> <s_m_Source_File>
wee1_decoys_glide_SP.sdf

> <s_m_Source_Path>
/Users/zhangxujun/Desktop

> <s_m_entry_id>
4701

> <s_m_entry_name>
wee1_decoys_glide_SP.4426

> <s_m_subgroup_title>
wee1_decoys_glide_SP

> <s_m_subgroupid>
wee1_decoys_glide_SP


$$$$
