ZINC59045348_3644
                    3D
 Schrodinger Suite 2024-2.
 45 47  0  0  1  0            999 V2000
    6.6519   54.3000   26.0218 C   0  0  0  0  0  0
    7.0405   54.5732   24.5630 C   0  0  0  0  0  0
    5.6192   54.4661   23.4453 S   0  0  0  0  0  0
    6.0816   54.8274   21.7607 C   0  0  0  0  0  0
    7.3363   55.3877   21.4997 C   0  0  0  0  0  0
    7.7231   55.7075   20.2008 C   0  0  0  0  0  0
    6.8410   55.5029   19.1432 C   0  0  0  0  0  0
    5.5772   54.9631   19.3849 C   0  0  0  0  0  0
    5.1993   54.5929   20.6789 C   0  0  0  0  0  0
    3.9045   54.0705   20.8149 N   0  0  0  0  0  0
    3.5783   52.8737   21.3379 C   0  0  0  0  0  0
    4.4036   52.0248   21.6803 O   0  0  0  0  0  0
    2.0673   52.6123   21.4601 C   0  0  0  0  0  0
    1.5757   51.3572   22.6943 S   0  0  0  0  0  0
    1.6997   52.3182   24.1764 C   0  0  0  0  0  0
    2.5602   53.2848   24.3614 N   0  0  0  0  0  0
    2.4536   53.6969   25.6758 N   0  0  0  0  0  0
    1.5069   52.9914   26.2517 C   0  0  0  0  0  0
    0.9815   52.0967   25.3349 N   0  0  0  0  0  0
   -0.0288   51.1663   25.5161 N   0  0  0  0  0  0
    1.1105   53.1965   27.6908 C   0  0  0  0  0  0
    1.4546   54.4136   28.2985 C   0  0  0  0  0  0
    1.1047   54.6757   29.6176 C   0  0  0  0  0  0
    0.4056   53.7180   30.3420 C   0  0  0  0  0  0
    0.0693   52.4962   29.7667 C   0  0  0  0  0  0
    0.4252   52.2341   28.4456 C   0  0  0  0  0  0
   -0.0929   54.0943   32.1339 Br  0  0  0  0  0  0
    7.5040   54.3770   26.6942 H   0  0  0  0  0  0
    5.8977   55.0102   26.3649 H   0  0  0  0  0  0
    6.2342   53.2977   26.1347 H   0  0  0  0  0  0
    7.7847   53.8490   24.2296 H   0  0  0  0  0  0
    7.4913   55.5624   24.4826 H   0  0  0  0  0  0
    8.0193   55.5942   22.3014 H   0  0  0  0  0  0
    8.7024   56.1257   20.0166 H   0  0  0  0  0  0
    7.1325   55.7637   18.1373 H   0  0  0  0  0  0
    4.9047   54.8097   18.5521 H   0  0  0  0  0  0
    3.1871   54.4983   20.2446 H   0  0  0  0  0  0
    1.5392   53.5396   21.6826 H   0  0  0  0  0  0
    1.7196   52.2762   20.4844 H   0  0  0  0  0  0
   -0.8331   51.3576   24.9361 H   0  0  0  0  0  0
    0.3099   50.2147   25.4594 H   0  0  0  0  0  0
    1.9858   55.1731   27.7437 H   0  0  0  0  0  0
    1.3601   55.6232   30.0702 H   0  0  0  0  0  0
   -0.4677   51.7557   30.3433 H   0  0  0  0  0  0
    0.1589   51.2752   28.0301 H   0  0  0  0  0  0
  1  2  1  0  0  0
  1 28  1  0  0  0
  1 29  1  0  0  0
  1 30  1  0  0  0
  2  3  1  0  0  0
  2 31  1  0  0  0
  2 32  1  0  0  0
  3  4  1  0  0  0
  4  9  2  0  0  0
  4  5  1  0  0  0
  5  6  2  0  0  0
  5 33  1  0  0  0
  6  7  1  0  0  0
  6 34  1  0  0  0
  7  8  2  0  0  0
  7 35  1  0  0  0
  8  9  1  0  0  0
  8 36  1  0  0  0
  9 10  1  0  0  0
 10 11  1  0  0  0
 10 37  1  0  0  0
 11 12  2  0  0  0
 11 13  1  0  0  0
 13 14  1  0  0  0
 13 38  1  0  0  0
 13 39  1  0  0  0
 14 15  1  0  0  0
 15 19  1  0  0  0
 15 16  2  0  0  0
 16 17  1  0  0  0
 17 18  2  0  0  0
 18 19  1  0  0  0
 18 21  1  0  0  0
 19 20  1  0  0  0
 20 40  1  0  0  0
 20 41  1  0  0  0
 21 26  2  0  0  0
 21 22  1  0  0  0
 22 23  2  0  0  0
 22 42  1  0  0  0
 23 24  1  0  0  0
 23 43  1  0  0  0
 24 25  2  0  0  0
 24 27  1  0  0  0
 25 26  1  0  0  0
 25 44  1  0  0  0
 26 45  1  0  0  0
M  END
> <i_i_glide_confnum>
16

> <i_i_glide_lignum>
3645

> <i_i_glide_posenum>
50

> <i_i_glide_rotatable_bonds>
8

> <i_m_Source_File_Index>
396

> <b_m_subgroup_collapsed>
0

> <r_i_docking_score>
-6.25031

> <r_i_glide_ecoul>
-7.11132

> <r_i_glide_eff_state_penalty>
0

> <r_i_glide_einternal>
4.61442

> <r_i_glide_emodel>
-69.2689

> <r_i_glide_energy>
-51.8308

> <r_i_glide_erotb>
0.654301

> <r_i_glide_esite>
-0.0225211

> <r_i_glide_evdw>
-44.7194

> <r_i_glide_gscore>
-6.25031

> <r_i_glide_hbond>
-0.314313

> <r_i_glide_ligand_efficiency>
-0.231493

> <r_i_glide_ligand_efficiency_ln>
-1.45497

> <r_i_glide_ligand_efficiency_sa>
-0.694479

> <r_i_glide_lipo>
-2.33992

> <r_i_glide_metal>
0

> <r_i_glide_rewards>
-0.925182

> <s_i_glide_gridfile>
wee1_glide-grid

> <s_m_Source_File>
wee1_decoys_glide_SP.sdf

> <s_m_Source_Path>
/Users/zhangxujun/Desktop

> <s_m_entry_id>
671

> <s_m_entry_name>
wee1_decoys_glide_SP.396

> <s_m_subgroup_title>
wee1_decoys_glide_SP

> <s_m_subgroupid>
wee1_decoys_glide_SP


$$$$
