ZINC23292338_4126
                    3D
 Schrodinger Suite 2024-2.
 53 56  0  0  1  0            999 V2000
   -2.9631   46.6028   25.2024 C   0  0  0  0  0  0
   -1.9723   47.4846   24.4658 C   0  0  0  0  0  0
   -2.0678   47.6674   23.0854 C   0  0  0  0  0  0
   -1.1578   48.4946   22.4312 C   0  0  0  0  0  0
   -0.1458   49.1402   23.1557 C   0  0  0  0  0  0
   -0.0449   48.9374   24.5364 C   0  0  0  0  0  0
   -0.9618   48.1172   25.1861 C   0  0  0  0  0  0
    0.7659   49.9964   22.4896 N   0  0  0  0  0  0
    1.2124   51.2524   22.8621 C   0  0  0  0  0  0
    2.0645   51.6404   21.8357 C   0  0  0  0  0  0
    2.0456   50.5948   20.8975 C   0  0  0  0  0  0
    1.2775   49.6134   21.3068 N   0  0  0  0  0  0
    2.7458   50.4792   19.5640 C   0  0  0  0  0  0
    2.7308   52.8476   21.7610 N   0  0  0  0  0  0
    4.0739   52.9554   21.7713 C   0  0  0  0  0  0
    4.8492   52.0017   21.6812 O   0  0  0  0  0  0
    4.6119   54.3811   21.9284 C   0  0  0  0  0  0
    6.2766   54.5004   22.6781 S   0  0  0  0  0  0
    5.8971   54.5955   24.3988 C   0  0  0  0  0  0
    4.7751   54.0967   25.0099 N   0  0  0  0  0  0
    4.0114   53.6233   24.5514 H   0  0  0  0  0  0
    4.9249   54.2643   26.3634 C   0  0  0  0  0  0
    6.1589   54.8967   26.4585 C   0  0  0  0  0  0
    6.7247   55.0967   25.2821 N   0  0  0  0  0  0
    3.9540   53.8232   27.4020 C   0  0  0  0  0  0
    4.4303   53.5314   28.6830 C   0  0  0  0  0  0
    3.5498   53.1257   29.6816 C   0  0  0  0  0  0
    2.1905   53.0195   29.3996 C   0  0  0  0  0  0
    1.7067   53.2995   28.1230 C   0  0  0  0  0  0
    2.5893   53.6997   27.1222 C   0  0  0  0  0  0
    0.9855   52.4993   30.7763 Br  0  0  0  0  0  0
    0.7845   51.9792   24.1244 C   0  0  0  0  0  0
   -2.4312   45.8507   25.7862 H   0  0  0  0  0  0
   -3.6529   46.0977   24.5260 H   0  0  0  0  0  0
   -3.5398   47.2030   25.9077 H   0  0  0  0  0  0
   -2.8491   47.1826   22.5190 H   0  0  0  0  0  0
   -1.2490   48.6388   21.3638 H   0  0  0  0  0  0
    0.7423   49.3984   25.1146 H   0  0  0  0  0  0
   -0.8905   47.9695   26.2543 H   0  0  0  0  0  0
    3.2568   51.3995   19.2808 H   0  0  0  0  0  0
    3.5039   49.6983   19.5823 H   0  0  0  0  0  0
    2.0580   50.2386   18.7529 H   0  0  0  0  0  0
    2.1744   53.6867   21.8320 H   0  0  0  0  0  0
    4.6775   54.8035   20.9259 H   0  0  0  0  0  0
    3.9047   54.9977   22.4814 H   0  0  0  0  0  0
    6.6409   55.2075   27.3754 H   0  0  0  0  0  0
    5.4852   53.6128   28.9021 H   0  0  0  0  0  0
    3.9203   52.8975   30.6700 H   0  0  0  0  0  0
    0.6508   53.2106   27.9129 H   0  0  0  0  0  0
    2.2069   53.9256   26.1381 H   0  0  0  0  0  0
    0.8960   53.0582   24.0236 H   0  0  0  0  0  0
   -0.2615   51.7995   24.3724 H   0  0  0  0  0  0
    1.3813   51.6796   24.9842 H   0  0  0  0  0  0
  1  2  1  0  0  0
  1 33  1  0  0  0
  1 34  1  0  0  0
  1 35  1  0  0  0
  2  7  2  0  0  0
  2  3  1  0  0  0
  3  4  2  0  0  0
  3 36  1  0  0  0
  4  5  1  0  0  0
  4 37  1  0  0  0
  5  6  2  0  0  0
  5  8  1  0  0  0
  6  7  1  0  0  0
  6 38  1  0  0  0
  7 39  1  0  0  0
  8 12  1  0  0  0
  8  9  1  0  0  0
  9 10  2  0  0  0
  9 32  1  0  0  0
 10 11  1  0  0  0
 10 14  1  0  0  0
 11 12  2  0  0  0
 11 13  1  0  0  0
 13 40  1  0  0  0
 13 41  1  0  0  0
 13 42  1  0  0  0
 14 15  1  0  0  0
 14 43  1  0  0  0
 15 16  2  0  0  0
 15 17  1  0  0  0
 17 18  1  0  0  0
 17 44  1  0  0  0
 17 45  1  0  0  0
 18 19  1  0  0  0
 19 24  2  0  0  0
 19 20  1  0  0  0
 20 21  1  0  0  0
 20 22  1  0  0  0
 22 23  2  0  0  0
 22 25  1  0  0  0
 23 24  1  0  0  0
 23 46  1  0  0  0
 25 30  2  0  0  0
 25 26  1  0  0  0
 26 27  2  0  0  0
 26 47  1  0  0  0
 27 28  1  0  0  0
 27 48  1  0  0  0
 28 29  2  0  0  0
 28 31  1  0  0  0
 29 30  1  0  0  0
 29 49  1  0  0  0
 30 50  1  0  0  0
 32 51  1  0  0  0
 32 52  1  0  0  0
 32 53  1  0  0  0
M  END
> <i_i_glide_confnum>
94

> <i_i_glide_lignum>
4127

> <i_i_glide_posenum>
193

> <i_i_glide_rotatable_bonds>
7

> <i_m_Source_File_Index>
3398

> <b_m_subgroup_collapsed>
0

> <r_i_docking_score>
-6.66451

> <r_i_glide_ecoul>
-3.99632

> <r_i_glide_eff_state_penalty>
0

> <r_i_glide_einternal>
1.98117

> <r_i_glide_emodel>
-76.3961

> <r_i_glide_energy>
-55.4774

> <r_i_glide_erotb>
0.579238

> <r_i_glide_esite>
0

> <r_i_glide_evdw>
-51.481

> <r_i_glide_gscore>
-6.66451

> <r_i_glide_hbond>
-0.183943

> <r_i_glide_ligand_efficiency>
-0.214984

> <r_i_glide_ligand_efficiency_ln>
-1.50305

> <r_i_glide_ligand_efficiency_sa>
-0.675347

> <r_i_glide_lipo>
-2.47156

> <r_i_glide_metal>
0

> <r_i_glide_rewards>
-1.41475

> <s_i_glide_gridfile>
wee1_glide-grid

> <s_m_Source_File>
wee1_decoys_glide_SP.sdf

> <s_m_Source_Path>
/Users/zhangxujun/Desktop

> <s_m_entry_id>
3673

> <s_m_entry_name>
wee1_decoys_glide_SP.3398

> <s_m_subgroup_title>
wee1_decoys_glide_SP

> <s_m_subgroupid>
wee1_decoys_glide_SP


$$$$
