ZINC39667112_3686
                    3D
 Schrodinger Suite 2024-2.
 71 74  0  0  1  0            999 V2000
    2.8361   53.9088   26.4622 C   0  0  0  0  0  0
    3.5289   54.0971   25.1259 C   0  0  0  0  0  0
    2.7846   54.2820   23.9618 C   0  0  0  0  0  0
    3.4323   54.4617   22.7428 C   0  0  0  0  0  0
    4.8311   54.4212   22.6456 C   0  0  0  0  0  0
    5.5814   54.2351   23.8254 C   0  0  0  0  0  0
    4.9223   54.0968   25.0531 C   0  0  0  0  0  0
    7.0999   54.1975   23.8219 C   0  0  0  0  0  0
    5.4893   54.6827   21.2779 C   0  0  0  0  0  0
    5.2953   53.6208   20.1615 C   0  0  0  0  0  0
    3.9226   53.1423   19.9950 N   0  0  0  0  0  0
    3.4347   52.0186   20.5456 C   0  0  0  0  0  0
    4.1080   51.2966   21.2820 O   0  0  0  0  0  0
    1.9276   51.7606   20.3343 C   0  0  2  0  0  0
    1.4629   52.6908   19.9992 H   0  0  0  0  0  0
    1.2983   51.3470   21.6786 C   0  0  0  0  0  0
    0.0678   50.6758   21.2521 N   0  0  0  0  0  0
    0.1107   50.3354   19.8243 C   0  0  0  0  0  0
    1.5637   50.6054   19.3627 C   0  0  0  0  0  0
    2.4598   49.3326   19.5177 C   0  0  0  0  0  0
    1.9577   48.1467   18.6648 C   0  0  0  0  0  0
    1.9044   48.6059   17.1915 N   0  3  0  0  0  0
    1.1041   49.9051   16.9522 C   0  0  0  0  0  0
    1.6944   50.9970   17.8709 C   0  0  0  0  0  0
   -1.1034   50.7331   21.9363 C   0  0  0  0  0  0
   -2.1895   50.5490   21.3818 O   0  0  0  0  0  0
   -1.0755   51.0201   23.4252 C   0  0  0  0  0  0
   -0.0745   50.4950   24.2575 C   0  0  0  0  0  0
   -0.0975   50.7296   25.6307 C   0  0  0  0  0  0
   -1.1215   51.4865   26.2059 C   0  0  0  0  0  0
   -2.1395   52.0069   25.3878 C   0  0  0  0  0  0
   -2.1093   51.7633   24.0104 C   0  0  0  0  0  0
   -3.2842   52.8265   25.9636 C   0  0  0  0  0  0
   -1.1158   51.7006   27.7133 C   0  0  0  0  0  0
    3.2495   54.5959   27.2011 H   0  0  0  0  0  0
    1.7641   54.0946   26.3991 H   0  0  0  0  0  0
    2.9977   52.8950   26.8289 H   0  0  0  0  0  0
    1.7050   54.3042   23.9991 H   0  0  0  0  0  0
    2.8336   54.6365   21.8616 H   0  0  0  0  0  0
    5.4950   53.9536   25.9587 H   0  0  0  0  0  0
    7.4634   53.3708   23.2111 H   0  0  0  0  0  0
    7.5034   55.1232   23.4134 H   0  0  0  0  0  0
    7.5042   54.0802   24.8264 H   0  0  0  0  0  0
    5.1044   55.6346   20.9166 H   0  0  0  0  0  0
    6.5552   54.8733   21.3841 H   0  0  0  0  0  0
    5.6075   54.0309   19.2002 H   0  0  0  0  0  0
    5.9042   52.7431   20.3680 H   0  0  0  0  0  0
    3.3076   53.7193   19.4378 H   0  0  0  0  0  0
    1.9407   50.5903   22.1315 H   0  0  0  0  0  0
    1.1600   52.2323   22.3017 H   0  0  0  0  0  0
   -0.5164   51.0741   19.3200 H   0  0  0  0  0  0
   -0.3216   49.3741   19.5501 H   0  0  0  0  0  0
    3.5029   49.5489   19.2818 H   0  0  0  0  0  0
    2.4664   49.0061   20.5587 H   0  0  0  0  0  0
    2.6466   47.3014   18.6819 H   0  0  0  0  0  0
    0.9611   47.7958   18.9294 H   0  0  0  0  0  0
    2.8790   48.8209   16.8879 H   0  0  0  0  0  0
    1.2345   50.1448   15.8961 H   0  0  0  0  0  0
    0.0534   49.6833   17.1459 H   0  0  0  0  0  0
    1.1348   51.9148   17.6857 H   0  0  0  0  0  0
    2.7309   51.2287   17.6091 H   0  0  0  0  0  0
    0.7144   49.8717   23.8602 H   0  0  0  0  0  0
    0.6825   50.3056   26.2480 H   0  0  0  0  0  0
   -2.9026   52.1536   23.3874 H   0  0  0  0  0  0
   -2.8914   53.6976   26.4819 H   0  0  0  0  0  0
   -3.9718   53.1772   25.1952 H   0  0  0  0  0  0
   -3.8505   52.2377   26.6844 H   0  0  0  0  0  0
   -0.3850   51.0615   28.2139 H   0  0  0  0  0  0
   -0.8957   52.7430   27.9496 H   0  0  0  0  0  0
   -2.0910   51.4539   28.1390 H   0  0  0  0  0  0
    1.5799   47.8632   16.5898 H   0  0  0  0  0  0
  1  2  1  0  0  0
  1 35  1  0  0  0
  1 36  1  0  0  0
  1 37  1  0  0  0
  2  7  2  0  0  0
  2  3  1  0  0  0
  3  4  2  0  0  0
  3 38  1  0  0  0
  4  5  1  0  0  0
  4 39  1  0  0  0
  5  6  2  0  0  0
  5  9  1  0  0  0
  6  7  1  0  0  0
  6  8  1  0  0  0
  7 40  1  0  0  0
  8 41  1  0  0  0
  8 42  1  0  0  0
  8 43  1  0  0  0
  9 10  1  0  0  0
  9 44  1  0  0  0
  9 45  1  0  0  0
 10 11  1  0  0  0
 10 46  1  0  0  0
 10 47  1  0  0  0
 11 12  1  0  0  0
 11 48  1  0  0  0
 12 13  2  0  0  0
 12 14  1  0  0  0
 14 15  1  0  0  0
 14 19  1  0  0  0
 14 16  1  0  0  0
 16 17  1  0  0  0
 16 49  1  0  0  0
 16 50  1  0  0  0
 17 18  1  0  0  0
 17 25  1  0  0  0
 18 19  1  0  0  0
 18 51  1  0  0  0
 18 52  1  0  0  0
 19 24  1  0  0  0
 19 20  1  0  0  0
 20 21  1  0  0  0
 20 53  1  0  0  0
 20 54  1  0  0  0
 21 22  1  0  0  0
 21 55  1  0  0  0
 21 56  1  0  0  0
 22 23  1  0  0  0
 22 57  1  0  0  0
 22 71  1  0  0  0
 23 24  1  0  0  0
 23 58  1  0  0  0
 23 59  1  0  0  0
 24 60  1  0  0  0
 24 61  1  0  0  0
 25 26  2  0  0  0
 25 27  1  0  0  0
 27 32  2  0  0  0
 27 28  1  0  0  0
 28 29  2  0  0  0
 28 62  1  0  0  0
 29 30  1  0  0  0
 29 63  1  0  0  0
 30 31  2  0  0  0
 30 34  1  0  0  0
 31 32  1  0  0  0
 31 33  1  0  0  0
 32 64  1  0  0  0
 33 65  1  0  0  0
 33 66  1  0  0  0
 33 67  1  0  0  0
 34 68  1  0  0  0
 34 69  1  0  0  0
 34 70  1  0  0  0
M  CHG  1  22   1
M  END
> <i_i_glide_confnum>
13

> <i_i_glide_lignum>
3687

> <i_i_glide_posenum>
102

> <i_i_glide_rotatable_bonds>
7

> <i_m_Source_File_Index>
4176

> <b_m_subgroup_collapsed>
0

> <r_i_docking_score>
-4.81653

> <r_i_glide_ecoul>
-9.81528

> <r_i_glide_eff_state_penalty>
0

> <r_i_glide_einternal>
4.87349

> <r_i_glide_emodel>
-55.5859

> <r_i_glide_energy>
-43.5368

> <r_i_glide_erotb>
0.696809

> <r_i_glide_esite>
-0.130499

> <r_i_glide_evdw>
-33.7215

> <r_i_glide_gscore>
-4.81653

> <r_i_glide_hbond>
-0.122682

> <r_i_glide_ligand_efficiency>
-0.145956

> <r_i_glide_ligand_efficiency_ln>
-1.07117

> <r_i_glide_ligand_efficiency_sa>
-0.468158

> <r_i_glide_lipo>
-1.79143

> <r_i_glide_metal>
0

> <r_i_glide_rewards>
-0.310361

> <s_i_glide_gridfile>
wee1_glide-grid

> <s_m_Source_File>
wee1_decoys_glide_SP.sdf

> <s_m_Source_Path>
/Users/zhangxujun/Desktop

> <s_m_entry_id>
4451

> <s_m_entry_name>
wee1_decoys_glide_SP.4176

> <s_m_subgroup_title>
wee1_decoys_glide_SP

> <s_m_subgroupid>
wee1_decoys_glide_SP


$$$$
