ZINC65451796_1615
                    3D
 Schrodinger Suite 2024-2.
 42 43  0  0  1  0            999 V2000
    6.4322   53.6181   27.6424 C   0  0  0  0  0  0
    5.2049   54.2794   26.9563 C   0  0  1  0  0  0
    5.0819   55.2807   27.3774 H   0  0  0  0  0  0
    5.4717   54.4869   25.4541 C   0  0  0  0  0  0
    4.6968   53.9194   24.4269 C   0  0  0  0  0  0
    5.0402   54.1073   23.0833 C   0  0  0  0  0  0
    6.1487   54.8966   22.7640 C   0  0  0  0  0  0
    6.8917   55.4785   23.7800 C   0  0  0  0  0  0
    6.5466   55.2970   25.1080 C   0  0  0  0  0  0
    6.5579   55.3944   21.0899 S   0  0  0  0  0  0
    5.9048   56.6858   20.8811 O   0  0  0  0  0  0
    8.0105   55.2967   20.9389 O   0  0  0  0  0  0
    5.8023   54.2455   20.0174 N   0  0  0  0  0  0
    3.9484   53.5786   27.2360 N   0  0  0  0  0  0
    3.4388   53.2967   28.4441 C   0  0  0  0  0  0
    3.9903   53.5468   29.5164 O   0  0  0  0  0  0
    2.2327   52.7213   28.3331 N   0  0  0  0  0  0
    1.3669   52.3073   29.4380 C   0  0  2  0  0  0
    1.8556   51.4426   29.8904 H   0  0  0  0  0  0
    0.0396   51.7652   28.8776 C   0  0  0  0  0  0
    1.1998   53.3695   30.5662 C   0  0  0  0  0  0
    1.1108   54.8534   30.2423 C   0  0  0  0  0  0
   -0.0888   54.1190   30.7782 C   0  0  0  0  0  0
    7.3629   54.1428   27.4308 H   0  0  0  0  0  0
    6.3442   53.6053   28.7280 H   0  0  0  0  0  0
    6.5528   52.5866   27.3161 H   0  0  0  0  0  0
    3.8442   53.2981   24.6538 H   0  0  0  0  0  0
    4.4302   53.6748   22.3040 H   0  0  0  0  0  0
    7.7372   56.0972   23.5323 H   0  0  0  0  0  0
    7.1057   55.8001   25.8782 H   0  0  0  0  0  0
    4.9527   54.6002   19.5712 H   0  0  0  0  0  0
    6.4442   53.7970   19.3572 H   0  0  0  0  0  0
    3.3109   53.5326   26.4595 H   0  0  0  0  0  0
    1.9297   52.4356   27.4151 H   0  0  0  0  0  0
   -0.6346   51.4810   29.6877 H   0  0  0  0  0  0
   -0.4829   52.5064   28.2716 H   0  0  0  0  0  0
    0.1920   50.8681   28.2765 H   0  0  0  0  0  0
    1.7937   53.1075   31.4412 H   0  0  0  0  0  0
    1.1093   55.1679   29.1988 H   0  0  0  0  0  0
    1.6220   55.5729   30.8813 H   0  0  0  0  0  0
   -0.4236   54.2901   31.8025 H   0  0  0  0  0  0
   -0.8964   53.9435   30.0820 H   0  0  0  0  0  0
  1  2  1  0  0  0
  1 24  1  0  0  0
  1 25  1  0  0  0
  1 26  1  0  0  0
  2  3  1  0  0  0
  2  4  1  0  0  0
  2 14  1  0  0  0
  4  9  2  0  0  0
  4  5  1  0  0  0
  5  6  2  0  0  0
  5 27  1  0  0  0
  6  7  1  0  0  0
  6 28  1  0  0  0
  7  8  2  0  0  0
  7 10  1  0  0  0
  8  9  1  0  0  0
  8 29  1  0  0  0
  9 30  1  0  0  0
 10 11  2  0  0  0
 10 12  2  0  0  0
 10 13  1  0  0  0
 13 31  1  0  0  0
 13 32  1  0  0  0
 14 15  1  0  0  0
 14 33  1  0  0  0
 15 16  2  0  0  0
 15 17  1  0  0  0
 17 18  1  0  0  0
 17 34  1  0  0  0
 18 19  1  0  0  0
 18 20  1  0  0  0
 18 21  1  0  0  0
 20 35  1  0  0  0
 20 36  1  0  0  0
 20 37  1  0  0  0
 21 23  1  0  0  0
 21 22  1  0  0  0
 21 38  1  0  0  0
 22 23  1  0  0  0
 22 39  1  0  0  0
 22 40  1  0  0  0
 23 41  1  0  0  0
 23 42  1  0  0  0
M  END
> <i_i_glide_confnum>
73

> <i_i_glide_lignum>
1616

> <i_i_glide_posenum>
324

> <i_i_glide_rotatable_bonds>
7

> <i_m_Source_File_Index>
1839

> <b_m_subgroup_collapsed>
0

> <r_i_docking_score>
-4.2214

> <r_i_glide_ecoul>
-1.88908

> <r_i_glide_eff_state_penalty>
0

> <r_i_glide_einternal>
11.2486

> <r_i_glide_emodel>
-35.1606

> <r_i_glide_energy>
-33.1193

> <r_i_glide_erotb>
0.956205

> <r_i_glide_esite>
-0.0147008

> <r_i_glide_evdw>
-31.2303

> <r_i_glide_gscore>
-4.2214

> <r_i_glide_hbond>
0

> <r_i_glide_ligand_efficiency>
-0.201019

> <r_i_glide_ligand_efficiency_ln>
-1.04373

> <r_i_glide_ligand_efficiency_sa>
-0.554596

> <r_i_glide_lipo>
-2.49661

> <r_i_glide_metal>
0

> <r_i_glide_rewards>
-0.821421

> <s_i_glide_gridfile>
wee1_glide-grid

> <s_m_Source_File>
wee1_decoys_glide_SP.sdf

> <s_m_Source_Path>
/Users/zhangxujun/Desktop

> <s_m_entry_id>
2114

> <s_m_entry_name>
wee1_decoys_glide_SP.1839

> <s_m_subgroup_title>
wee1_decoys_glide_SP

> <s_m_subgroupid>
wee1_decoys_glide_SP


$$$$
