ZINC09382053_4165
                    3D
 Schrodinger Suite 2024-2.
 45 48  0  0  1  0            999 V2000
    5.5880   54.4880   23.8862 C   0  0  0  0  0  0
    6.5337   54.8965   22.9533 C   0  0  0  0  0  0
    6.1976   54.9419   21.6040 C   0  0  0  0  0  0
    4.9487   54.4977   21.1715 C   0  0  0  0  0  0
    3.9980   54.0905   22.1055 C   0  0  0  0  0  0
    4.3044   54.1188   23.4722 C   0  0  0  0  0  0
    3.2790   53.8052   24.5563 C   0  0  0  0  0  0
    1.5207   53.9387   24.0812 S   0  0  0  0  0  0
    1.1569   52.2154   24.0689 C   0  0  0  0  0  0
    1.2859   51.4957   22.9830 N   0  0  0  0  0  0
    0.9273   50.1952   23.2944 N   0  0  0  0  0  0
    0.5912   50.1810   24.5586 C   0  0  0  0  0  0
    0.7047   51.4395   25.1300 N   0  0  0  0  0  0
    0.4639   51.8049   26.4808 C   0  0  0  0  0  0
   -0.7214   51.4125   27.1152 C   0  0  0  0  0  0
   -0.9148   51.6969   28.4651 C   0  0  0  0  0  0
    0.0561   52.3963   29.1758 C   0  0  0  0  0  0
    1.2294   52.8026   28.5514 C   0  0  0  0  0  0
    1.4374   52.4990   27.2102 C   0  0  0  0  0  0
   -0.1349   52.6814   30.4825 F   0  0  0  0  0  0
    0.1058   48.9227   25.2601 C   0  0  0  0  0  0
   -1.3540   48.5354   25.0549 C   0  0  0  0  0  0
   -2.2479   49.2412   24.3192 C   0  0  0  0  0  0
   -3.6256   48.7971   24.2097 C   0  0  0  0  0  0
   -4.5111   49.4144   23.6248 O   0  0  0  0  0  0
   -3.8414   47.6079   24.8383 N   0  0  0  0  0  0
   -4.7759   47.2421   24.7510 H   0  0  0  0  0  0
   -2.9675   46.8264   25.5442 C   0  0  0  0  0  0
   -3.2594   45.6965   25.9222 O   0  0  0  0  0  0
   -1.7257   47.3743   25.6815 N   0  0  0  0  0  0
   -1.0865   46.8962   26.3052 H   0  0  0  0  0  0
    7.4338   55.6874   20.3612 Br  0  0  0  0  0  0
    5.8432   54.4998   24.9359 H   0  0  0  0  0  0
    7.5046   55.2318   23.2814 H   0  0  0  0  0  0
    4.6952   54.5198   20.1214 H   0  0  0  0  0  0
    3.0192   53.7928   21.7563 H   0  0  0  0  0  0
    3.4197   54.5086   25.3782 H   0  0  0  0  0  0
    3.5024   52.8262   24.9615 H   0  0  0  0  0  0
   -1.4835   50.8605   26.5853 H   0  0  0  0  0  0
   -1.8123   51.3626   28.9651 H   0  0  0  0  0  0
    1.9819   53.3356   29.1128 H   0  0  0  0  0  0
    2.3745   52.7848   26.7697 H   0  0  0  0  0  0
    0.3003   48.9735   26.3333 H   0  0  0  0  0  0
    0.7052   48.0799   24.9168 H   0  0  0  0  0  0
   -1.9676   50.1542   23.8170 H   0  0  0  0  0  0
  1  6  2  0  0  0
  1  2  1  0  0  0
  1 33  1  0  0  0
  2  3  2  0  0  0
  2 34  1  0  0  0
  3  4  1  0  0  0
  3 32  1  0  0  0
  4  5  2  0  0  0
  4 35  1  0  0  0
  5  6  1  0  0  0
  5 36  1  0  0  0
  6  7  1  0  0  0
  7  8  1  0  0  0
  7 37  1  0  0  0
  7 38  1  0  0  0
  8  9  1  0  0  0
  9 13  1  0  0  0
  9 10  2  0  0  0
 10 11  1  0  0  0
 11 12  2  0  0  0
 12 13  1  0  0  0
 12 21  1  0  0  0
 13 14  1  0  0  0
 14 19  2  0  0  0
 14 15  1  0  0  0
 15 16  2  0  0  0
 15 39  1  0  0  0
 16 17  1  0  0  0
 16 40  1  0  0  0
 17 18  2  0  0  0
 17 20  1  0  0  0
 18 19  1  0  0  0
 18 41  1  0  0  0
 19 42  1  0  0  0
 21 22  1  0  0  0
 21 43  1  0  0  0
 21 44  1  0  0  0
 22 30  1  0  0  0
 22 23  2  0  0  0
 23 24  1  0  0  0
 23 45  1  0  0  0
 24 25  2  0  0  0
 24 26  1  0  0  0
 26 27  1  0  0  0
 26 28  1  0  0  0
 28 29  2  0  0  0
 28 30  1  0  0  0
 30 31  1  0  0  0
M  END
> <i_i_glide_confnum>
101

> <i_i_glide_lignum>
4166

> <i_i_glide_posenum>
165

> <i_i_glide_rotatable_bonds>
6

> <i_m_Source_File_Index>
1349

> <b_m_subgroup_collapsed>
0

> <r_i_docking_score>
-6.22778

> <r_i_glide_ecoul>
-8.39088

> <r_i_glide_eff_state_penalty>
0

> <r_i_glide_einternal>
4.80542

> <r_i_glide_emodel>
-66.9848

> <r_i_glide_energy>
-49.6143

> <r_i_glide_erotb>
0.511654

> <r_i_glide_esite>
-0.265803

> <r_i_glide_evdw>
-41.2235

> <r_i_glide_gscore>
-6.22778

> <r_i_glide_hbond>
-0.48

> <r_i_glide_ligand_efficiency>
-0.207593

> <r_i_glide_ligand_efficiency_ln>
-1.41502

> <r_i_glide_ligand_efficiency_sa>
-0.645039

> <r_i_glide_lipo>
-2.32735

> <r_i_glide_metal>
0

> <r_i_glide_rewards>
-0.346478

> <s_i_glide_gridfile>
wee1_glide-grid

> <s_m_Source_File>
wee1_decoys_glide_SP.sdf

> <s_m_Source_Path>
/Users/zhangxujun/Desktop

> <s_m_entry_id>
1624

> <s_m_entry_name>
wee1_decoys_glide_SP.1349

> <s_m_subgroup_title>
wee1_decoys_glide_SP

> <s_m_subgroupid>
wee1_decoys_glide_SP


$$$$
