ZINC09298600_4014
                    3D
 Schrodinger Suite 2024-2.
 64 68  0  0  1  0            999 V2000
   -6.5556   43.1303   26.2364 C   0  0  0  0  0  0
   -5.7339   44.3691   25.9280 C   0  0  0  0  0  0
   -4.7066   44.7567   26.7906 C   0  0  0  0  0  0
   -3.9467   45.8863   26.5049 C   0  0  0  0  0  0
   -4.2257   46.6343   25.3581 C   0  0  0  0  0  0
   -5.2574   46.2554   24.4987 C   0  0  0  0  0  0
   -6.0076   45.1165   24.7826 C   0  0  0  0  0  0
   -3.2310   48.0771   25.0002 S   0  0  0  0  0  0
   -1.8533   47.5929   24.8754 O   0  0  0  0  0  0
   -3.8757   48.8206   23.9137 O   0  0  0  0  0  0
   -3.2944   49.0400   26.4814 N   0  0  0  0  0  0
   -4.3829   49.8443   26.8403 C   0  0  0  0  0  0
   -5.1012   49.4608   27.9764 C   0  0  0  0  0  0
   -6.2190   50.1812   28.3862 C   0  0  0  0  0  0
   -6.6143   51.3126   27.6757 C   0  0  0  0  0  0
   -5.8699   51.7429   26.5784 C   0  0  0  0  0  0
   -4.7336   51.0368   26.1608 C   0  0  0  0  0  0
   -3.8708   51.6489   25.0753 C   0  0  0  0  0  0
   -4.4170   51.9656   24.0163 O   0  0  0  0  0  0
   -2.5489   51.8764   25.3215 N   0  0  0  0  0  0
   -1.7198   52.4238   24.2322 C   0  0  0  0  0  0
   -0.2391   52.0271   24.4442 C   0  0  0  0  0  0
    0.2874   52.2705   25.7967 N   0  0  0  0  0  0
   -0.5932   51.6730   26.8096 C   0  0  0  0  0  0
   -2.0673   52.1090   26.6941 C   0  0  0  0  0  0
    1.4999   52.8740   26.0471 C   0  0  0  0  0  0
    2.3090   53.3208   25.1251 N   0  0  0  0  0  0
    3.4391   53.8535   25.6578 C   0  0  0  0  0  0
    4.4959   54.3788   24.9051 C   0  0  0  0  0  0
    5.6184   54.8635   25.5785 C   0  0  0  0  0  0
    5.6765   54.8573   26.9733 C   0  0  0  0  0  0
    4.6250   54.3649   27.7544 C   0  0  0  0  0  0
    3.5101   53.8510   27.0736 C   0  0  0  0  0  0
    2.0399   53.1235   27.7039 S   0  0  0  0  0  0
    4.7239   54.4065   29.2687 C   0  0  0  0  0  0
    6.7781   55.4164   24.7794 C   0  0  0  0  0  0
   -6.4753   42.4106   25.4187 H   0  0  0  0  0  0
   -7.6089   43.3948   26.3388 H   0  0  0  0  0  0
   -6.2329   42.6389   27.1564 H   0  0  0  0  0  0
   -4.4955   44.1827   27.6813 H   0  0  0  0  0  0
   -3.1453   46.1821   27.1706 H   0  0  0  0  0  0
   -5.4754   46.8351   23.6117 H   0  0  0  0  0  0
   -6.8035   44.8235   24.1164 H   0  0  0  0  0  0
   -2.6983   48.6894   27.2331 H   0  0  0  0  0  0
   -4.8018   48.5809   28.5303 H   0  0  0  0  0  0
   -6.7812   49.8585   29.2500 H   0  0  0  0  0  0
   -7.4868   51.8676   27.9880 H   0  0  0  0  0  0
   -6.1690   52.6437   26.0659 H   0  0  0  0  0  0
   -2.0252   52.0579   23.2499 H   0  0  0  0  0  0
   -1.7568   53.5127   24.2660 H   0  0  0  0  0  0
    0.3772   52.5226   23.6933 H   0  0  0  0  0  0
   -0.1008   50.9594   24.2641 H   0  0  0  0  0  0
   -0.2502   51.8887   27.8205 H   0  0  0  0  0  0
   -0.4955   50.5887   26.7202 H   0  0  0  0  0  0
   -2.0893   53.1824   26.8816 H   0  0  0  0  0  0
   -2.6337   51.5880   27.4666 H   0  0  0  0  0  0
    4.4482   54.3856   23.8256 H   0  0  0  0  0  0
    6.5552   55.2510   27.4671 H   0  0  0  0  0  0
    5.6352   54.8975   29.6171 H   0  0  0  0  0  0
    3.8699   54.9457   29.6802 H   0  0  0  0  0  0
    4.7020   53.3932   29.6688 H   0  0  0  0  0  0
    6.4436   55.8362   23.8318 H   0  0  0  0  0  0
    7.2690   56.2235   25.3215 H   0  0  0  0  0  0
    7.5043   54.6288   24.5774 H   0  0  0  0  0  0
  1  2  1  0  0  0
  1 37  1  0  0  0
  1 38  1  0  0  0
  1 39  1  0  0  0
  2  7  2  0  0  0
  2  3  1  0  0  0
  3  4  2  0  0  0
  3 40  1  0  0  0
  4  5  1  0  0  0
  4 41  1  0  0  0
  5  6  2  0  0  0
  5  8  1  0  0  0
  6  7  1  0  0  0
  6 42  1  0  0  0
  7 43  1  0  0  0
  8  9  2  0  0  0
  8 10  2  0  0  0
  8 11  1  0  0  0
 11 12  1  0  0  0
 11 44  1  0  0  0
 12 17  2  0  0  0
 12 13  1  0  0  0
 13 14  2  0  0  0
 13 45  1  0  0  0
 14 15  1  0  0  0
 14 46  1  0  0  0
 15 16  2  0  0  0
 15 47  1  0  0  0
 16 17  1  0  0  0
 16 48  1  0  0  0
 17 18  1  0  0  0
 18 19  2  0  0  0
 18 20  1  0  0  0
 20 25  1  0  0  0
 20 21  1  0  0  0
 21 22  1  0  0  0
 21 49  1  0  0  0
 21 50  1  0  0  0
 22 23  1  0  0  0
 22 51  1  0  0  0
 22 52  1  0  0  0
 23 24  1  0  0  0
 23 26  1  0  0  0
 24 25  1  0  0  0
 24 53  1  0  0  0
 24 54  1  0  0  0
 25 55  1  0  0  0
 25 56  1  0  0  0
 26 34  1  0  0  0
 26 27  2  0  0  0
 27 28  1  0  0  0
 28 33  2  0  0  0
 28 29  1  0  0  0
 29 30  2  0  0  0
 29 57  1  0  0  0
 30 31  1  0  0  0
 30 36  1  0  0  0
 31 32  2  0  0  0
 31 58  1  0  0  0
 32 33  1  0  0  0
 32 35  1  0  0  0
 33 34  1  0  0  0
 35 59  1  0  0  0
 35 60  1  0  0  0
 35 61  1  0  0  0
 36 62  1  0  0  0
 36 63  1  0  0  0
 36 64  1  0  0  0
M  END
> <i_i_glide_confnum>
462

> <i_i_glide_lignum>
4015

> <i_i_glide_posenum>
302

> <i_i_glide_rotatable_bonds>
6

> <i_m_Source_File_Index>
2763

> <b_m_subgroup_collapsed>
0

> <r_i_docking_score>
-4.22238

> <r_i_glide_ecoul>
-4.67493

> <r_i_glide_eff_state_penalty>
0

> <r_i_glide_einternal>
10.933

> <r_i_glide_emodel>
-47.9731

> <r_i_glide_energy>
-44.1241

> <r_i_glide_erotb>
0.45488

> <r_i_glide_esite>
-0.212724

> <r_i_glide_evdw>
-39.4491

> <r_i_glide_gscore>
-4.22238

> <r_i_glide_hbond>
-0.16

> <r_i_glide_ligand_efficiency>
-0.117288

> <r_i_glide_ligand_efficiency_ln>
-0.921209

> <r_i_glide_ligand_efficiency_sa>
-0.387277

> <r_i_glide_lipo>
-2.46886

> <r_i_glide_metal>
0

> <r_i_glide_rewards>
0.838024

> <s_i_glide_gridfile>
wee1_glide-grid

> <s_m_Source_File>
wee1_decoys_glide_SP.sdf

> <s_m_Source_Path>
/Users/zhangxujun/Desktop

> <s_m_entry_id>
3038

> <s_m_entry_name>
wee1_decoys_glide_SP.2763

> <s_m_subgroup_title>
wee1_decoys_glide_SP

> <s_m_subgroupid>
wee1_decoys_glide_SP


$$$$
