ZINC00940867_2388
                    3D
 Schrodinger Suite 2024-2.
 42 44  0  0  1  0            999 V2000
    9.8777   50.2323   16.1234 C   0  0  0  0  0  0
    9.5099   51.6396   16.5545 C   0  0  0  0  0  0
   10.4693   52.6525   16.6422 C   0  0  0  0  0  0
   10.0216   53.9017   17.0778 C   0  0  0  0  0  0
    8.7228   54.1418   17.3984 N   0  0  0  0  0  0
    7.8557   53.1038   17.2576 C   0  0  0  0  0  0
    8.2027   51.8535   16.8552 N   0  0  0  0  0  0
    6.4871   53.2978   17.4728 N   0  0  0  0  0  0
    5.7286   54.7833   18.0893 S   0  0  0  0  0  0
    4.3231   54.7152   17.6753 O   0  0  0  0  0  0
    6.5550   55.9398   17.7248 O   0  0  0  0  0  0
    5.7403   54.6227   19.8712 C   0  0  0  0  0  0
    4.7757   53.8082   20.4612 C   0  0  0  0  0  0
    4.7347   53.6763   21.8427 C   0  0  0  0  0  0
    5.6549   54.3545   22.6420 C   0  0  0  0  0  0
    6.6404   55.1631   22.0483 C   0  0  0  0  0  0
    6.6785   55.2973   20.6577 C   0  0  0  0  0  0
    5.4692   54.1825   24.0222 N   0  0  0  0  0  0
    6.1002   54.7513   25.0690 C   0  0  0  0  0  0
    7.1040   55.4612   25.0083 O   0  0  0  0  0  0
    5.4846   54.4764   26.3419 C   0  0  0  0  0  0
    6.0841   54.6094   27.5899 C   0  0  0  0  0  0
    5.1990   54.4084   28.6502 C   0  0  0  0  0  0
    3.9103   54.1134   28.2371 C   0  0  0  0  0  0
    3.7818   54.0965   26.5083 S   0  0  0  0  0  0
    2.3862   53.7939   29.3300 Br  0  0  0  0  0  0
   10.9637   55.0844   17.1870 C   0  0  0  0  0  0
   10.9141   50.1778   15.7888 H   0  0  0  0  0  0
    9.7536   49.5402   16.9571 H   0  0  0  0  0  0
    9.2407   49.8973   15.3029 H   0  0  0  0  0  0
   11.5052   52.4734   16.3956 H   0  0  0  0  0  0
    5.8909   52.4912   17.3383 H   0  0  0  0  0  0
    4.0483   53.2878   19.8540 H   0  0  0  0  0  0
    3.9654   53.0538   22.2780 H   0  0  0  0  0  0
    7.3717   55.6945   22.6366 H   0  0  0  0  0  0
    7.4359   55.9161   20.1974 H   0  0  0  0  0  0
    4.6913   53.5894   24.2624 H   0  0  0  0  0  0
    7.1213   54.8780   27.7309 H   0  0  0  0  0  0
    5.4938   54.4972   29.6825 H   0  0  0  0  0  0
   12.0044   54.7609   17.2274 H   0  0  0  0  0  0
   10.8385   55.7327   16.3201 H   0  0  0  0  0  0
   10.7556   55.6738   18.0783 H   0  0  0  0  0  0
  1  2  1  0  0  0
  1 28  1  0  0  0
  1 29  1  0  0  0
  1 30  1  0  0  0
  2  7  2  0  0  0
  2  3  1  0  0  0
  3  4  2  0  0  0
  3 31  1  0  0  0
  4  5  1  0  0  0
  4 27  1  0  0  0
  5  6  2  0  0  0
  6  7  1  0  0  0
  6  8  1  0  0  0
  8  9  1  0  0  0
  8 32  1  0  0  0
  9 10  2  0  0  0
  9 11  2  0  0  0
  9 12  1  0  0  0
 12 17  2  0  0  0
 12 13  1  0  0  0
 13 14  2  0  0  0
 13 33  1  0  0  0
 14 15  1  0  0  0
 14 34  1  0  0  0
 15 16  2  0  0  0
 15 18  1  0  0  0
 16 17  1  0  0  0
 16 35  1  0  0  0
 17 36  1  0  0  0
 18 19  1  0  0  0
 18 37  1  0  0  0
 19 20  2  0  0  0
 19 21  1  0  0  0
 21 25  1  0  0  0
 21 22  2  0  0  0
 22 23  1  0  0  0
 22 38  1  0  0  0
 23 24  2  0  0  0
 23 39  1  0  0  0
 24 25  1  0  0  0
 24 26  1  0  0  0
 27 40  1  0  0  0
 27 41  1  0  0  0
 27 42  1  0  0  0
M  END
> <i_i_glide_confnum>
2

> <i_i_glide_lignum>
2389

> <i_i_glide_posenum>
213

> <i_i_glide_rotatable_bonds>
6

> <i_m_Source_File_Index>
4760

> <b_m_subgroup_collapsed>
0

> <r_i_docking_score>
-5.69973

> <r_i_glide_ecoul>
-3.36925

> <r_i_glide_eff_state_penalty>
0

> <r_i_glide_einternal>
5.04432

> <r_i_glide_emodel>
-59.7383

> <r_i_glide_energy>
-46.5622

> <r_i_glide_erotb>
0.554375

> <r_i_glide_esite>
-0.0552493

> <r_i_glide_evdw>
-43.1929

> <r_i_glide_gscore>
-5.69973

> <r_i_glide_hbond>
-0.367631

> <r_i_glide_ligand_efficiency>
-0.211101

> <r_i_glide_ligand_efficiency_ln>
-1.3268

> <r_i_glide_ligand_efficiency_sa>
-0.633303

> <r_i_glide_lipo>
-2.50338

> <r_i_glide_metal>
0

> <r_i_glide_rewards>
-0.66281

> <s_i_glide_gridfile>
wee1_glide-grid

> <s_m_Source_File>
wee1_decoys_glide_SP.sdf

> <s_m_Source_Path>
/Users/zhangxujun/Desktop

> <s_m_entry_id>
5035

> <s_m_entry_name>
wee1_decoys_glide_SP.4760

> <s_m_subgroup_title>
wee1_decoys_glide_SP

> <s_m_subgroupid>
wee1_decoys_glide_SP


$$$$
