ZINC20755832_682
                    3D
 Schrodinger Suite 2024-2.
 61 64  0  0  1  0            999 V2000
   -2.0948   46.5933   25.4595 C   0  0  0  0  0  0
   -1.8984   47.6687   24.3788 C   0  0  0  0  0  0
   -3.0086   48.7352   24.4494 C   0  0  0  0  0  0
   -2.8585   49.7737   23.3200 C   0  0  0  0  0  0
   -1.4839   50.3463   23.2440 N   0  0  0  0  0  0
   -0.3358   49.4001   23.3586 C   0  0  0  0  0  0
   -0.5359   48.3809   24.5054 C   0  0  0  0  0  0
   -1.2232   52.0498   23.6751 S   0  0  0  0  0  0
   -2.4829   52.7840   23.4910 O   0  0  0  0  0  0
    0.0125   52.4950   23.0171 O   0  0  0  0  0  0
   -0.8944   52.0158   25.4353 C   0  0  0  0  0  0
   -1.9140   51.7010   26.3342 C   0  0  0  0  0  0
   -1.6387   51.6170   27.6950 C   0  0  0  0  0  0
   -0.3553   51.8843   28.1702 C   0  0  0  0  0  0
    0.6761   52.2363   27.2856 C   0  0  0  0  0  0
    0.3946   52.2629   25.9096 C   0  0  0  0  0  0
    2.0586   52.5542   27.8115 C   0  0  0  0  0  0
    2.4109   52.1456   28.9197 O   0  0  0  0  0  0
    2.8230   53.2957   26.9783 N   0  0  0  0  0  0
    4.1695   53.7152   27.0644 C   0  0  0  0  0  0
    4.8624   53.7050   28.2863 C   0  0  0  0  0  0
    6.1948   54.0909   28.3459 C   0  0  0  0  0  0
    6.8601   54.4954   27.2046 C   0  0  0  0  0  0
    6.1894   54.5433   25.9901 C   0  0  0  0  0  0
    4.8366   54.1580   25.8845 C   0  0  0  0  0  0
    4.1659   54.1713   24.5136 C   0  0  0  0  0  0
    2.9389   54.2334   24.4046 O   0  0  0  0  0  0
    5.0005   54.0856   23.4518 N   0  0  0  0  0  0
    4.6608   53.8993   22.1042 C   0  0  0  0  0  0
    5.4951   54.4848   21.1477 C   0  0  0  0  0  0
    5.2370   54.2882   19.7923 C   0  0  0  0  0  0
    4.1597   53.4945   19.4005 C   0  0  0  0  0  0
    3.3354   52.8965   20.3493 C   0  0  0  0  0  0
    3.5793   53.1010   21.7032 C   0  0  0  0  0  0
    3.9094   53.3131   18.0847 F   0  0  0  0  0  0
   -2.0372   47.0170   26.4646 H   0  0  0  0  0  0
   -3.0603   46.0985   25.3625 H   0  0  0  0  0  0
   -1.3233   45.8296   25.3850 H   0  0  0  0  0  0
   -1.9441   47.1927   23.3990 H   0  0  0  0  0  0
   -3.0024   49.2171   25.4280 H   0  0  0  0  0  0
   -3.9903   48.2636   24.3914 H   0  0  0  0  0  0
   -3.5707   50.5827   23.4832 H   0  0  0  0  0  0
   -3.1074   49.3588   22.3417 H   0  0  0  0  0  0
   -0.1937   48.9134   22.3932 H   0  0  0  0  0  0
    0.5721   49.9727   23.5415 H   0  0  0  0  0  0
    0.2777   47.6523   24.5024 H   0  0  0  0  0  0
   -0.4489   48.8678   25.4775 H   0  0  0  0  0  0
   -2.9103   51.4941   25.9763 H   0  0  0  0  0  0
   -2.4157   51.3305   28.3889 H   0  0  0  0  0  0
   -0.1703   51.8154   29.2351 H   0  0  0  0  0  0
    1.1702   52.4867   25.1903 H   0  0  0  0  0  0
    2.4028   53.5415   26.0903 H   0  0  0  0  0  0
    4.3917   53.4049   29.2080 H   0  0  0  0  0  0
    6.7259   54.0922   29.2820 H   0  0  0  0  0  0
    7.8999   54.7813   27.2824 H   0  0  0  0  0  0
    6.7450   54.8899   25.1329 H   0  0  0  0  0  0
    5.9873   54.1441   23.6443 H   0  0  0  0  0  0
    6.3373   55.0947   21.4429 H   0  0  0  0  0  0
    5.8686   54.7418   19.0411 H   0  0  0  0  0  0
    2.5056   52.2876   20.0310 H   0  0  0  0  0  0
    2.9345   52.6270   22.4271 H   0  0  0  0  0  0
  1  2  1  0  0  0
  1 36  1  0  0  0
  1 37  1  0  0  0
  1 38  1  0  0  0
  2  7  1  0  0  0
  2  3  1  0  0  0
  2 39  1  0  0  0
  3  4  1  0  0  0
  3 40  1  0  0  0
  3 41  1  0  0  0
  4  5  1  0  0  0
  4 42  1  0  0  0
  4 43  1  0  0  0
  5  6  1  0  0  0
  5  8  1  0  0  0
  6  7  1  0  0  0
  6 44  1  0  0  0
  6 45  1  0  0  0
  7 46  1  0  0  0
  7 47  1  0  0  0
  8  9  2  0  0  0
  8 10  2  0  0  0
  8 11  1  0  0  0
 11 16  2  0  0  0
 11 12  1  0  0  0
 12 13  2  0  0  0
 12 48  1  0  0  0
 13 14  1  0  0  0
 13 49  1  0  0  0
 14 15  2  0  0  0
 14 50  1  0  0  0
 15 16  1  0  0  0
 15 17  1  0  0  0
 16 51  1  0  0  0
 17 18  2  0  0  0
 17 19  1  0  0  0
 19 20  1  0  0  0
 19 52  1  0  0  0
 20 25  2  0  0  0
 20 21  1  0  0  0
 21 22  2  0  0  0
 21 53  1  0  0  0
 22 23  1  0  0  0
 22 54  1  0  0  0
 23 24  2  0  0  0
 23 55  1  0  0  0
 24 25  1  0  0  0
 24 56  1  0  0  0
 25 26  1  0  0  0
 26 27  2  0  0  0
 26 28  1  0  0  0
 28 29  1  0  0  0
 28 57  1  0  0  0
 29 34  2  0  0  0
 29 30  1  0  0  0
 30 31  2  0  0  0
 30 58  1  0  0  0
 31 32  1  0  0  0
 31 59  1  0  0  0
 32 33  2  0  0  0
 32 35  1  0  0  0
 33 34  1  0  0  0
 33 60  1  0  0  0
 34 61  1  0  0  0
M  END
> <i_i_glide_confnum>
82

> <i_i_glide_lignum>
683

> <i_i_glide_posenum>
176

> <i_i_glide_rotatable_bonds>
8

> <i_m_Source_File_Index>
2369

> <b_m_subgroup_collapsed>
0

> <r_i_docking_score>
-4.42269

> <r_i_glide_ecoul>
-1.41875

> <r_i_glide_eff_state_penalty>
0

> <r_i_glide_einternal>
4.65593

> <r_i_glide_emodel>
-62.6082

> <r_i_glide_energy>
-51.3631

> <r_i_glide_erotb>
0.664085

> <r_i_glide_esite>
-0.0496733

> <r_i_glide_evdw>
-49.9443

> <r_i_glide_gscore>
-4.42269

> <r_i_glide_hbond>
0

> <r_i_glide_ligand_efficiency>
-0.126363

> <r_i_glide_ligand_efficiency_ln>
-0.970879

> <r_i_glide_ligand_efficiency_sa>
-0.413341

> <r_i_glide_lipo>
-2.09404

> <r_i_glide_metal>
0

> <r_i_glide_rewards>
-0.233038

> <s_i_glide_gridfile>
wee1_glide-grid

> <s_m_Source_File>
wee1_decoys_glide_SP.sdf

> <s_m_Source_Path>
/Users/zhangxujun/Desktop

> <s_m_entry_id>
2644

> <s_m_entry_name>
wee1_decoys_glide_SP.2369

> <s_m_subgroup_title>
wee1_decoys_glide_SP

> <s_m_subgroupid>
wee1_decoys_glide_SP


$$$$
