ZINC25072353_6043
                    3D
 Schrodinger Suite 2024-2.
 60 63  0  0  1  0            999 V2000
    7.7243   56.8915   17.8295 C   0  0  0  0  0  0
    7.3463   55.5602   18.0318 C   0  0  0  0  0  0
    5.9717   55.3640   18.1906 C   0  0  0  0  0  0
    5.1569   56.8995   18.0670 S   0  0  0  0  0  0
    6.6410   57.7510   17.8205 C   0  0  0  0  0  0
    5.2107   54.0714   18.4752 C   0  0  2  0  0  0
    5.9325   53.2512   18.4991 H   0  0  0  0  0  0
    4.2081   53.7709   17.3541 C   0  0  0  0  0  0
    2.9791   54.4415   17.2823 C   0  0  0  0  0  0
    2.0779   54.1491   16.2629 C   0  0  0  0  0  0
    2.3980   53.1793   15.3164 C   0  0  0  0  0  0
    3.6115   52.5016   15.3794 C   0  0  0  0  0  0
    4.5157   52.8017   16.3942 C   0  0  0  0  0  0
    1.5192   52.8887   14.3318 F   0  0  0  0  0  0
    4.5503   54.0414   19.7933 N   0  0  0  0  0  0
    5.0131   54.4953   20.9769 C   0  0  0  0  0  0
    6.0563   55.1446   21.0899 O   0  0  0  0  0  0
    4.1303   54.1386   22.2036 C   0  0  0  0  0  0
    4.7091   54.4966   23.5215 N   0  0  0  0  0  0
    5.9956   53.8802   23.8496 C   0  0  0  0  0  0
    6.8541   54.6322   24.8751 C   0  0  0  0  0  0
    6.5895   54.2695   26.3498 C   0  0  0  0  0  0
    5.0943   54.1859   26.7487 N   0  3  2  0  0  0
    4.1606   55.1371   25.9575 C   0  0  0  0  0  0
    3.7144   54.5628   24.5962 C   0  0  0  0  0  0
    4.9500   54.2854   28.2904 C   0  0  0  0  0  0
    3.5435   54.0279   28.8149 C   0  0  0  0  0  0
    2.7609   55.0921   29.2745 C   0  0  0  0  0  0
    1.4661   54.8570   29.7253 C   0  0  0  0  0  0
    0.9609   53.5584   29.7262 C   0  0  0  0  0  0
    1.7426   52.4908   29.2901 C   0  0  0  0  0  0
    3.0390   52.7251   28.8392 C   0  0  0  0  0  0
   -0.3002   53.3335   30.1519 F   0  0  0  0  0  0
    8.7477   57.2095   17.6921 H   0  0  0  0  0  0
    8.0619   54.7517   18.0722 H   0  0  0  0  0  0
    6.6329   58.8240   17.6810 H   0  0  0  0  0  0
    2.7199   55.1866   18.0205 H   0  0  0  0  0  0
    1.1318   54.6667   16.2098 H   0  0  0  0  0  0
    3.8433   51.7342   14.6553 H   0  0  0  0  0  0
    5.4422   52.2467   16.4478 H   0  0  0  0  0  0
    3.7334   53.4475   19.8194 H   0  0  0  0  0  0
    3.1717   54.6408   22.0615 H   0  0  0  0  0  0
    3.9295   53.0661   22.1806 H   0  0  0  0  0  0
    5.7414   52.8974   24.2054 H   0  0  0  0  0  0
    6.6244   53.7370   22.9698 H   0  0  0  0  0  0
    7.9037   54.4549   24.6511 H   0  0  0  0  0  0
    6.6929   55.7042   24.7517 H   0  0  0  0  0  0
    6.9847   53.2830   26.6013 H   0  0  0  0  0  0
    7.0522   55.0062   27.0100 H   0  0  0  0  0  0
    4.6666   56.0955   25.8619 H   0  0  0  0  0  0
    3.2732   55.2964   26.5663 H   0  0  0  0  0  0
    2.7940   55.0513   24.2692 H   0  0  0  0  0  0
    3.4256   53.5323   24.8138 H   0  0  0  0  0  0
    5.6504   53.5520   28.6974 H   0  0  0  0  0  0
    5.3101   55.2803   28.5597 H   0  0  0  0  0  0
    3.1475   56.1011   29.2753 H   0  0  0  0  0  0
    0.8551   55.6778   30.0729 H   0  0  0  0  0  0
    1.3362   51.4890   29.2939 H   0  0  0  0  0  0
    3.6390   51.8975   28.4909 H   0  0  0  0  0  0
    4.7816   53.2538   26.5087 H   0  0  0  0  0  0
  1  5  2  0  0  0
  1  2  1  0  0  0
  1 34  1  0  0  0
  2  3  2  0  0  0
  2 35  1  0  0  0
  3  4  1  0  0  0
  3  6  1  0  0  0
  4  5  1  0  0  0
  5 36  1  0  0  0
  6  7  1  0  0  0
  6  8  1  0  0  0
  6 15  1  0  0  0
  8 13  2  0  0  0
  8  9  1  0  0  0
  9 10  2  0  0  0
  9 37  1  0  0  0
 10 11  1  0  0  0
 10 38  1  0  0  0
 11 12  2  0  0  0
 11 14  1  0  0  0
 12 13  1  0  0  0
 12 39  1  0  0  0
 13 40  1  0  0  0
 15 16  1  0  0  0
 15 41  1  0  0  0
 16 17  2  0  0  0
 16 18  1  0  0  0
 18 19  1  0  0  0
 18 42  1  0  0  0
 18 43  1  0  0  0
 19 25  1  0  0  0
 19 20  1  0  0  0
 20 21  1  0  0  0
 20 44  1  0  0  0
 20 45  1  0  0  0
 21 22  1  0  0  0
 21 46  1  0  0  0
 21 47  1  0  0  0
 22 23  1  0  0  0
 22 48  1  0  0  0
 22 49  1  0  0  0
 23 24  1  0  0  0
 23 26  1  0  0  0
 23 60  1  0  0  0
 24 25  1  0  0  0
 24 50  1  0  0  0
 24 51  1  0  0  0
 25 52  1  0  0  0
 25 53  1  0  0  0
 26 27  1  0  0  0
 26 54  1  0  0  0
 26 55  1  0  0  0
 27 32  2  0  0  0
 27 28  1  0  0  0
 28 29  2  0  0  0
 28 56  1  0  0  0
 29 30  1  0  0  0
 29 57  1  0  0  0
 30 31  2  0  0  0
 30 33  1  0  0  0
 31 32  1  0  0  0
 31 58  1  0  0  0
 32 59  1  0  0  0
M  CHG  1  23   1
M  END
> <i_i_glide_confnum>
70

> <i_i_glide_lignum>
6044

> <i_i_glide_posenum>
93

> <i_i_glide_rotatable_bonds>
8

> <i_m_Source_File_Index>
1697

> <b_m_subgroup_collapsed>
0

> <r_i_docking_score>
-5.09105

> <r_i_glide_ecoul>
-2.48598

> <r_i_glide_eff_state_penalty>
0

> <r_i_glide_einternal>
8.34106

> <r_i_glide_emodel>
-51.4228

> <r_i_glide_energy>
-40.8525

> <r_i_glide_erotb>
0.771303

> <r_i_glide_esite>
-0.0209143

> <r_i_glide_evdw>
-38.3665

> <r_i_glide_gscore>
-5.09105

> <r_i_glide_hbond>
0

> <r_i_glide_ligand_efficiency>
-0.159095

> <r_i_glide_ligand_efficiency_ln>
-1.14003

> <r_i_glide_ligand_efficiency_sa>
-0.505096

> <r_i_glide_lipo>
-3.06613

> <r_i_glide_metal>
0

> <r_i_glide_rewards>
-0.484088

> <s_i_glide_gridfile>
wee1_glide-grid

> <s_m_Source_File>
wee1_decoys_glide_SP.sdf

> <s_m_Source_Path>
/Users/zhangxujun/Desktop

> <s_m_entry_id>
1972

> <s_m_entry_name>
wee1_decoys_glide_SP.1697

> <s_m_subgroup_title>
wee1_decoys_glide_SP

> <s_m_subgroupid>
wee1_decoys_glide_SP


$$$$
