ZINC03764235_5733
                    3D
 Schrodinger Suite 2024-2.
 68 72  0  0  1  0            999 V2000
    5.4232   46.5875   10.2698 C   0  0  0  0  0  0
    5.9275   47.9013   10.0815 O   0  0  0  0  0  0
    5.8538   48.8049   11.1218 C   0  0  0  0  0  0
    6.3913   50.0676   10.8825 C   0  0  0  0  0  0
    6.3392   51.0561   11.8606 C   0  0  0  0  0  0
    5.7244   50.7912   13.0938 C   0  0  0  0  0  0
    5.2082   49.5203   13.3437 C   0  0  0  0  0  0
    5.2756   48.5303   12.3697 C   0  0  0  0  0  0
    5.6140   51.7332   14.1337 N   0  0  0  0  0  0
    5.6259   53.0813   14.0412 C   0  0  0  0  0  0
    5.7000   53.7069   12.9816 O   0  0  0  0  0  0
    5.4783   53.8566   15.3537 C   0  0  0  0  0  0
    6.6510   55.2496   15.4988 S   0  0  0  0  0  0
    6.9809   55.1454   17.2272 C   0  0  0  0  0  0
    8.1821   54.9546   17.7051 N   0  0  0  0  0  0
    8.0721   54.8967   19.0867 N   0  0  0  0  0  0
    6.8074   55.0529   19.3975 C   0  0  0  0  0  0
    6.0695   55.3210   18.2554 N   0  0  0  0  0  0
    4.6379   55.6302   18.1360 C   0  0  0  0  0  0
    4.2824   56.9442   17.4488 C   0  0  0  0  0  0
    5.1210   57.9384   17.1071 C   0  0  0  0  0  0
    6.3041   54.8970   20.8019 C   0  0  0  0  0  0
    5.1110   54.2190   21.0679 C   0  0  0  0  0  0
    4.6965   54.0102   22.3786 C   0  0  0  0  0  0
    5.4834   54.4614   23.4471 C   0  0  0  0  0  0
    6.7034   55.0874   23.1876 C   0  0  0  0  0  0
    7.1032   55.3161   21.8728 C   0  0  0  0  0  0
    5.1113   54.2873   24.7934 N   0  0  0  0  0  0
    3.8524   54.2765   25.2913 C   0  0  0  0  0  0
    2.8438   54.4639   24.6098 O   0  0  0  0  0  0
    3.7645   54.0458   26.7227 C   0  0  0  0  0  0
    4.7239   54.4967   27.6371 C   0  0  0  0  0  0
    4.3052   54.1958   29.2815 S   0  0  0  0  0  0
    2.8257   53.4517   28.7961 C   0  0  0  0  0  0
    2.6573   53.4542   27.3987 C   0  0  0  0  0  0
    1.3803   52.8895   26.7588 C   0  0  0  0  0  0
    0.2588   52.7227   27.8103 C   0  0  0  0  0  0
    0.7697   52.0575   29.0992 C   0  0  0  0  0  0
    1.8120   52.9407   29.8127 C   0  0  0  0  0  0
    5.5041   46.0030    9.3549 H   0  0  0  0  0  0
    4.3731   46.5777   10.5654 H   0  0  0  0  0  0
    6.0296   46.0968   11.0236 H   0  0  0  0  0  0
    6.8490   50.2861    9.9296 H   0  0  0  0  0  0
    6.7813   52.0158   11.6424 H   0  0  0  0  0  0
    4.7447   49.2923   14.2935 H   0  0  0  0  0  0
    4.8649   47.5621   12.6017 H   0  0  0  0  0  0
    5.4152   51.3401   15.0429 H   0  0  0  0  0  0
    4.4636   54.2524   15.3911 H   0  0  0  0  0  0
    5.5968   53.1801   16.2023 H   0  0  0  0  0  0
    4.1487   54.7988   17.6314 H   0  0  0  0  0  0
    4.1972   55.6914   19.1264 H   0  0  0  0  0  0
    3.2317   57.0754   17.2307 H   0  0  0  0  0  0
    4.7530   58.8354   16.6272 H   0  0  0  0  0  0
    6.1830   57.8847   17.2985 H   0  0  0  0  0  0
    4.5086   53.8200   20.2650 H   0  0  0  0  0  0
    3.7724   53.4777   22.5458 H   0  0  0  0  0  0
    7.3383   55.4196   23.9952 H   0  0  0  0  0  0
    8.0533   55.7998   21.6908 H   0  0  0  0  0  0
    5.8667   54.1930   25.4524 H   0  0  0  0  0  0
    5.6465   55.0196   27.4324 H   0  0  0  0  0  0
    1.0196   53.5194   25.9495 H   0  0  0  0  0  0
    1.5912   51.9226   26.3052 H   0  0  0  0  0  0
   -0.5566   52.1351   27.3853 H   0  0  0  0  0  0
   -0.1689   53.6968   28.0552 H   0  0  0  0  0  0
    1.2034   51.0844   28.8612 H   0  0  0  0  0  0
   -0.0655   51.8540   29.7731 H   0  0  0  0  0  0
    2.2939   52.3790   30.6147 H   0  0  0  0  0  0
    1.3026   53.7845   30.2797 H   0  0  0  0  0  0
  1  2  1  0  0  0
  1 40  1  0  0  0
  1 41  1  0  0  0
  1 42  1  0  0  0
  2  3  1  0  0  0
  3  8  2  0  0  0
  3  4  1  0  0  0
  4  5  2  0  0  0
  4 43  1  0  0  0
  5  6  1  0  0  0
  5 44  1  0  0  0
  6  7  2  0  0  0
  6  9  1  0  0  0
  7  8  1  0  0  0
  7 45  1  0  0  0
  8 46  1  0  0  0
  9 10  1  0  0  0
  9 47  1  0  0  0
 10 11  2  0  0  0
 10 12  1  0  0  0
 12 13  1  0  0  0
 12 48  1  0  0  0
 12 49  1  0  0  0
 13 14  1  0  0  0
 14 18  1  0  0  0
 14 15  2  0  0  0
 15 16  1  0  0  0
 16 17  2  0  0  0
 17 18  1  0  0  0
 17 22  1  0  0  0
 18 19  1  0  0  0
 19 20  1  0  0  0
 19 50  1  0  0  0
 19 51  1  0  0  0
 20 21  2  0  0  0
 20 52  1  0  0  0
 21 53  1  0  0  0
 21 54  1  0  0  0
 22 27  2  0  0  0
 22 23  1  0  0  0
 23 24  2  0  0  0
 23 55  1  0  0  0
 24 25  1  0  0  0
 24 56  1  0  0  0
 25 26  2  0  0  0
 25 28  1  0  0  0
 26 27  1  0  0  0
 26 57  1  0  0  0
 27 58  1  0  0  0
 28 29  1  0  0  0
 28 59  1  0  0  0
 29 30  2  0  0  0
 29 31  1  0  0  0
 31 35  1  0  0  0
 31 32  2  0  0  0
 32 33  1  0  0  0
 32 60  1  0  0  0
 33 34  1  0  0  0
 34 39  1  0  0  0
 34 35  2  0  0  0
 35 36  1  0  0  0
 36 37  1  0  0  0
 36 61  1  0  0  0
 36 62  1  0  0  0
 37 38  1  0  0  0
 37 63  1  0  0  0
 37 64  1  0  0  0
 38 39  1  0  0  0
 38 65  1  0  0  0
 38 66  1  0  0  0
 39 67  1  0  0  0
 39 68  1  0  0  0
M  END
> <i_i_glide_confnum>
162

> <i_i_glide_lignum>
5734

> <i_i_glide_posenum>
102

> <i_i_glide_rotatable_bonds>
12

> <i_m_Source_File_Index>
5292

> <b_m_subgroup_collapsed>
0

> <r_i_docking_score>
-5.60106

> <r_i_glide_ecoul>
-3.55828

> <r_i_glide_eff_state_penalty>
0

> <r_i_glide_einternal>
9.29378

> <r_i_glide_emodel>
-63.6818

> <r_i_glide_energy>
-49.5431

> <r_i_glide_erotb>
0.650648

> <r_i_glide_esite>
-0.0149055

> <r_i_glide_evdw>
-45.9848

> <r_i_glide_gscore>
-5.60106

> <r_i_glide_hbond>
-0.158702

> <r_i_glide_ligand_efficiency>
-0.143617

> <r_i_glide_ligand_efficiency_ln>
-1.20103

> <r_i_glide_ligand_efficiency_sa>
-0.487036

> <r_i_glide_lipo>
-2.78319

> <r_i_glide_metal>
0

> <r_i_glide_rewards>
-0.461933

> <s_i_glide_gridfile>
wee1_glide-grid

> <s_m_Source_File>
wee1_decoys_glide_SP.sdf

> <s_m_Source_Path>
/Users/zhangxujun/Desktop

> <s_m_entry_id>
5567

> <s_m_entry_name>
wee1_decoys_glide_SP.5292

> <s_m_subgroup_title>
wee1_decoys_glide_SP

> <s_m_subgroupid>
wee1_decoys_glide_SP


$$$$
