ZINC61324571_1912
                    3D
 Schrodinger Suite 2024-2.
 36 38  0  0  1  0            999 V2000
    0.5175   52.6664   30.1040 C   0  0  0  0  0  0
    1.5723   53.1421   29.3220 C   0  0  0  0  0  0
    1.5483   52.9817   27.9295 C   0  0  0  0  0  0
    0.3998   52.4638   27.3311 C   0  0  0  0  0  0
   -0.6903   52.0657   28.1030 C   0  0  0  0  0  0
   -0.6006   52.0984   29.4967 C   0  0  0  0  0  0
   -2.1993   51.5725   27.2819 S   0  0  0  0  0  0
   -3.2085   51.2779   28.3034 O   0  0  0  0  0  0
   -2.4668   52.5618   26.2331 O   0  0  0  0  0  0
   -1.7983   50.0967   26.4817 N   0  0  0  0  0  0
    2.6015   53.2969   27.0584 N   0  0  0  0  0  0
    3.8138   54.0641   27.3317 C   0  0  1  0  0  0
    3.5094   55.0369   27.7202 H   0  0  0  0  0  0
    4.7390   53.3541   28.3611 C   0  0  0  0  0  0
    6.0878   54.0795   28.4607 C   0  0  0  0  0  0
    6.9066   53.9389   27.1730 C   0  0  0  0  0  0
    6.0121   54.2364   25.9855 C   0  0  0  0  0  0
    4.6083   54.2509   26.0262 C   0  0  0  0  0  0
    4.0693   54.4473   24.7423 C   0  0  0  0  0  0
    5.0295   54.4966   23.7438 C   0  0  0  0  0  0
    6.6343   54.4378   24.3788 S   0  0  0  0  0  0
    0.5555   52.7439   31.1816 H   0  0  0  0  0  0
    2.3942   53.6127   29.8254 H   0  0  0  0  0  0
    0.3355   52.3853   26.2549 H   0  0  0  0  0  0
   -1.4087   51.7273   30.1120 H   0  0  0  0  0  0
   -1.6957   49.3352   27.1836 H   0  0  0  0  0  0
   -2.5204   49.8146   25.8187 H   0  0  0  0  0  0
    2.5179   52.9574   26.1113 H   0  0  0  0  0  0
    4.9047   52.3159   28.0737 H   0  0  0  0  0  0
    4.3191   53.3166   29.3588 H   0  0  0  0  0  0
    6.6857   53.6933   29.2814 H   0  0  0  0  0  0
    5.9045   55.1321   28.6855 H   0  0  0  0  0  0
    7.2754   52.9132   27.1012 H   0  0  0  0  0  0
    7.7791   54.5868   27.2150 H   0  0  0  0  0  0
    3.0093   54.5098   24.5435 H   0  0  0  0  0  0
    4.8706   54.6065   22.6808 H   0  0  0  0  0  0
  1  6  2  0  0  0
  1  2  1  0  0  0
  1 22  1  0  0  0
  2  3  2  0  0  0
  2 23  1  0  0  0
  3  4  1  0  0  0
  3 11  1  0  0  0
  4  5  2  0  0  0
  4 24  1  0  0  0
  5  6  1  0  0  0
  5  7  1  0  0  0
  6 25  1  0  0  0
  7  8  2  0  0  0
  7  9  2  0  0  0
  7 10  1  0  0  0
 10 26  1  0  0  0
 10 27  1  0  0  0
 11 12  1  0  0  0
 11 28  1  0  0  0
 12 13  1  0  0  0
 12 18  1  0  0  0
 12 14  1  0  0  0
 14 15  1  0  0  0
 14 29  1  0  0  0
 14 30  1  0  0  0
 15 16  1  0  0  0
 15 31  1  0  0  0
 15 32  1  0  0  0
 16 17  1  0  0  0
 16 33  1  0  0  0
 16 34  1  0  0  0
 17 21  1  0  0  0
 17 18  2  0  0  0
 18 19  1  0  0  0
 19 20  2  0  0  0
 19 35  1  0  0  0
 20 21  1  0  0  0
 20 36  1  0  0  0
M  END
> <i_i_glide_confnum>
1

> <i_i_glide_lignum>
1913

> <i_i_glide_posenum>
333

> <i_i_glide_rotatable_bonds>
3

> <i_m_Source_File_Index>
1017

> <b_m_subgroup_collapsed>
0

> <r_i_docking_score>
-6.09868

> <r_i_glide_ecoul>
-5.42

> <r_i_glide_eff_state_penalty>
0

> <r_i_glide_einternal>
3.02657

> <r_i_glide_emodel>
-50.9764

> <r_i_glide_energy>
-38.6235

> <r_i_glide_erotb>
0.388995

> <r_i_glide_esite>
-0.232073

> <r_i_glide_evdw>
-33.2035

> <r_i_glide_gscore>
-6.09868

> <r_i_glide_hbond>
-0.16

> <r_i_glide_ligand_efficiency>
-0.304934

> <r_i_glide_ligand_efficiency_ln>
-1.5263

> <r_i_glide_ligand_efficiency_sa>
-0.827718

> <r_i_glide_lipo>
-2.6893

> <r_i_glide_metal>
0

> <r_i_glide_rewards>
-0.933126

> <s_i_glide_gridfile>
wee1_glide-grid

> <s_m_Source_File>
wee1_decoys_glide_SP.sdf

> <s_m_Source_Path>
/Users/zhangxujun/Desktop

> <s_m_entry_id>
1292

> <s_m_entry_name>
wee1_decoys_glide_SP.1017

> <s_m_subgroup_title>
wee1_decoys_glide_SP

> <s_m_subgroupid>
wee1_decoys_glide_SP


$$$$
