ZINC02764155_3755
                    3D
 Schrodinger Suite 2024-2.
 40 42  0  0  1  0            999 V2000
   -2.6413   50.9849   29.2809 C   0  0  0  0  0  0
   -1.2628   51.5806   29.0262 C   0  0  0  0  0  0
   -0.5057   52.0966   30.0820 C   0  0  0  0  0  0
    0.7684   52.5978   29.8555 C   0  0  0  0  0  0
    1.2947   52.5721   28.5598 C   0  0  0  0  0  0
    0.5477   52.0389   27.5074 C   0  0  0  0  0  0
   -0.7316   51.5481   27.7386 C   0  0  0  0  0  0
    2.5528   53.0640   28.2077 N   0  0  0  0  0  0
    3.4187   53.8440   28.8834 C   0  0  0  0  0  0
    3.3381   54.0977   30.0816 O   0  0  0  0  0  0
    4.4530   54.3349   28.1683 N   0  0  0  0  0  0
    4.6363   54.3893   26.7861 C   0  0  0  0  0  0
    5.8021   54.7111   26.2981 N   0  0  0  0  0  0
    5.8084   54.6830   24.9803 C   0  0  0  0  0  0
    4.5989   54.3704   24.3530 C   0  0  0  0  0  0
    3.4060   54.0967   25.5708 S   0  0  0  0  0  0
    4.3869   54.1695   22.8593 C   0  0  0  0  0  0
    5.6632   54.6174   22.0953 C   0  0  1  0  0  0
    5.6603   55.6966   21.9903 H   0  0  0  0  0  0
    6.9575   54.2122   22.8468 C   0  0  0  0  0  0
    7.0840   54.9203   24.2120 C   0  0  0  0  0  0
    5.5983   54.0968   20.6481 C   0  0  0  0  0  0
   -2.8140   50.0975   28.6704 H   0  0  0  0  0  0
   -3.4283   51.6963   29.0379 H   0  0  0  0  0  0
   -2.7496   50.6643   30.3182 H   0  0  0  0  0  0
   -0.8955   52.0966   31.0884 H   0  0  0  0  0  0
    1.3215   52.9847   30.6966 H   0  0  0  0  0  0
    0.9479   52.0027   26.5039 H   0  0  0  0  0  0
   -1.3007   51.1210   26.9254 H   0  0  0  0  0  0
    2.8092   52.8825   27.2499 H   0  0  0  0  0  0
    5.2057   54.7255   28.7163 H   0  0  0  0  0  0
    4.1940   53.1136   22.6647 H   0  0  0  0  0  0
    3.5223   54.7357   22.5092 H   0  0  0  0  0  0
    7.0158   53.1287   22.9605 H   0  0  0  0  0  0
    7.8203   54.4951   22.2403 H   0  0  0  0  0  0
    7.2752   55.9861   24.0816 H   0  0  0  0  0  0
    7.9042   54.5001   24.7860 H   0  0  0  0  0  0
    5.5074   53.0103   20.6103 H   0  0  0  0  0  0
    4.7316   54.5058   20.1269 H   0  0  0  0  0  0
    6.4802   54.3875   20.0763 H   0  0  0  0  0  0
  1  2  1  0  0  0
  1 23  1  0  0  0
  1 24  1  0  0  0
  1 25  1  0  0  0
  2  7  2  0  0  0
  2  3  1  0  0  0
  3  4  2  0  0  0
  3 26  1  0  0  0
  4  5  1  0  0  0
  4 27  1  0  0  0
  5  6  2  0  0  0
  5  8  1  0  0  0
  6  7  1  0  0  0
  6 28  1  0  0  0
  7 29  1  0  0  0
  8  9  1  0  0  0
  8 30  1  0  0  0
  9 10  2  0  0  0
  9 11  1  0  0  0
 11 12  1  0  0  0
 11 31  1  0  0  0
 12 16  1  0  0  0
 12 13  2  0  0  0
 13 14  1  0  0  0
 14 21  1  0  0  0
 14 15  2  0  0  0
 15 16  1  0  0  0
 15 17  1  0  0  0
 17 18  1  0  0  0
 17 32  1  0  0  0
 17 33  1  0  0  0
 18 19  1  0  0  0
 18 20  1  0  0  0
 18 22  1  0  0  0
 20 21  1  0  0  0
 20 34  1  0  0  0
 20 35  1  0  0  0
 21 36  1  0  0  0
 21 37  1  0  0  0
 22 38  1  0  0  0
 22 39  1  0  0  0
 22 40  1  0  0  0
M  END
> <i_i_glide_confnum>
11

> <i_i_glide_lignum>
3756

> <i_i_glide_posenum>
69

> <i_i_glide_rotatable_bonds>
4

> <i_m_Source_File_Index>
699

> <b_m_subgroup_collapsed>
0

> <r_i_docking_score>
-4.7301

> <r_i_glide_ecoul>
-6.0558

> <r_i_glide_eff_state_penalty>
0

> <r_i_glide_einternal>
5.19639

> <r_i_glide_emodel>
-43.7114

> <r_i_glide_energy>
-38.3754

> <r_i_glide_erotb>
0.810003

> <r_i_glide_esite>
0

> <r_i_glide_evdw>
-32.3196

> <r_i_glide_gscore>
-4.7301

> <r_i_glide_hbond>
-0.32

> <r_i_glide_ligand_efficiency>
-0.225243

> <r_i_glide_ligand_efficiency_ln>
-1.16951

> <r_i_glide_ligand_efficiency_sa>
-0.621427

> <r_i_glide_lipo>
-1.8635

> <r_i_glide_metal>
0

> <r_i_glide_rewards>
-0.832254

> <s_i_glide_gridfile>
wee1_glide-grid

> <s_m_Source_File>
wee1_decoys_glide_SP.sdf

> <s_m_Source_Path>
/Users/zhangxujun/Desktop

> <s_m_entry_id>
974

> <s_m_entry_name>
wee1_decoys_glide_SP.699

> <s_m_subgroup_title>
wee1_decoys_glide_SP

> <s_m_subgroupid>
wee1_decoys_glide_SP


$$$$
