ZINC00461491_3862
                    3D
 Schrodinger Suite 2024-2.
 34 35  0  0  1  0            999 V2000
    6.1236   54.2133   27.0982 C   0  0  0  0  0  0
    6.4683   54.4116   25.7601 C   0  0  0  0  0  0
    5.4829   54.4716   24.7732 C   0  0  0  0  0  0
    4.1276   54.3774   25.1455 C   0  0  0  0  0  0
    3.7888   54.1777   26.4847 C   0  0  0  0  0  0
    4.7827   54.0964   27.4598 C   0  0  0  0  0  0
    4.3054   53.8514   29.2855 Br  0  0  0  0  0  0
    3.1336   54.4966   24.2350 F   0  0  0  0  0  0
    5.9050   54.7361   23.4595 N   0  0  0  0  0  0
    5.4803   54.0976   22.3528 C   0  0  0  0  0  0
    4.7842   53.0830   22.3559 O   0  0  0  0  0  0
    5.9045   54.7048   21.2323 N   0  0  0  0  0  0
    5.7337   54.1887   19.8695 C   0  0  0  0  0  0
    4.3040   54.2929   19.2929 C   0  0  0  0  0  0
    4.1818   53.7378   17.8586 C   0  0  0  0  0  0
    5.2298   54.3471   16.9112 C   0  0  0  0  0  0
    6.6547   54.1482   17.4574 C   0  0  0  0  0  0
    6.8095   54.7087   18.8858 C   0  0  0  0  0  0
    6.8928   54.1545   27.8534 H   0  0  0  0  0  0
    7.5039   54.4970   25.4827 H   0  0  0  0  0  0
    2.7507   54.0927   26.7681 H   0  0  0  0  0  0
    6.7510   55.2782   23.3687 H   0  0  0  0  0  0
    6.2884   55.6333   21.3047 H   0  0  0  0  0  0
    5.9044   53.1093   19.9271 H   0  0  0  0  0  0
    3.9976   55.3389   19.2815 H   0  0  0  0  0  0
    3.5944   53.7717   19.9373 H   0  0  0  0  0  0
    3.1769   53.9241   17.4756 H   0  0  0  0  0  0
    4.3033   52.6511   17.8819 H   0  0  0  0  0  0
    5.0315   55.4132   16.7812 H   0  0  0  0  0  0
    5.1431   53.8956   15.9210 H   0  0  0  0  0  0
    7.3771   54.6225   16.7928 H   0  0  0  0  0  0
    6.8946   53.0825   17.4575 H   0  0  0  0  0  0
    7.8092   54.4746   19.2561 H   0  0  0  0  0  0
    6.7483   55.7980   18.8332 H   0  0  0  0  0  0
  1  6  2  0  0  0
  1  2  1  0  0  0
  1 19  1  0  0  0
  2  3  2  0  0  0
  2 20  1  0  0  0
  3  4  1  0  0  0
  3  9  1  0  0  0
  4  5  2  0  0  0
  4  8  1  0  0  0
  5  6  1  0  0  0
  5 21  1  0  0  0
  6  7  1  0  0  0
  9 10  1  0  0  0
  9 22  1  0  0  0
 10 11  2  0  0  0
 10 12  1  0  0  0
 12 13  1  0  0  0
 12 23  1  0  0  0
 13 18  1  0  0  0
 13 14  1  0  0  0
 13 24  1  0  0  0
 14 15  1  0  0  0
 14 25  1  0  0  0
 14 26  1  0  0  0
 15 16  1  0  0  0
 15 27  1  0  0  0
 15 28  1  0  0  0
 16 17  1  0  0  0
 16 29  1  0  0  0
 16 30  1  0  0  0
 17 18  1  0  0  0
 17 31  1  0  0  0
 17 32  1  0  0  0
 18 33  1  0  0  0
 18 34  1  0  0  0
M  END
> <i_i_glide_confnum>
1

> <i_i_glide_lignum>
3863

> <i_i_glide_posenum>
351

> <i_i_glide_rotatable_bonds>
4

> <i_m_Source_File_Index>
2552

> <b_m_subgroup_collapsed>
0

> <r_i_docking_score>
-4.93677

> <r_i_glide_ecoul>
-0.13615

> <r_i_glide_eff_state_penalty>
0

> <r_i_glide_einternal>
3.74521

> <r_i_glide_emodel>
-38.9735

> <r_i_glide_energy>
-29.1116

> <r_i_glide_erotb>
0.374453

> <r_i_glide_esite>
0

> <r_i_glide_evdw>
-28.9754

> <r_i_glide_gscore>
-4.93677

> <r_i_glide_hbond>
0

> <r_i_glide_ligand_efficiency>
-0.274265

> <r_i_glide_ligand_efficiency_ln>
-1.26897

> <r_i_glide_ligand_efficiency_sa>
-0.718777

> <r_i_glide_lipo>
-1.93013

> <r_i_glide_metal>
0

> <r_i_glide_rewards>
-1.9119

> <s_i_glide_gridfile>
wee1_glide-grid

> <s_m_Source_File>
wee1_decoys_glide_SP.sdf

> <s_m_Source_Path>
/Users/zhangxujun/Desktop

> <s_m_entry_id>
2827

> <s_m_entry_name>
wee1_decoys_glide_SP.2552

> <s_m_subgroup_title>
wee1_decoys_glide_SP

> <s_m_subgroupid>
wee1_decoys_glide_SP


$$$$
