ZINC39553935_4955
                    3D
 Schrodinger Suite 2024-2.
 61 64  0  0  1  0            999 V2000
    2.4796   53.6186   27.2496 C   0  0  0  0  0  0
    3.8660   54.1062   26.8928 C   0  0  0  0  0  0
    4.8865   54.4966   27.7554 C   0  0  0  0  0  0
    6.0177   54.8870   27.0879 O   0  0  0  0  0  0
    5.7352   54.7496   25.7653 C   0  0  0  0  0  0
    4.4168   54.2764   25.5816 C   0  0  0  0  0  0
    4.0099   54.0970   24.2499 C   0  0  0  0  0  0
    4.8789   54.3663   23.2371 N   0  0  0  0  0  0
    6.1137   54.8352   23.5481 C   0  0  0  0  0  0
    6.6121   55.0471   24.8005 N   0  0  0  0  0  0
    7.1294   55.2960   22.1763 S   0  0  0  0  0  0
    6.1666   54.9914   20.6523 C   0  0  0  0  0  0
    7.0024   55.0430   19.3656 C   0  0  0  0  0  0
    7.8589   55.9247   19.2418 O   0  0  0  0  0  0
    6.7034   54.0935   18.4458 N   0  0  0  0  0  0
    7.2887   53.8947   17.2460 C   0  0  0  0  0  0
    8.2326   54.5475   16.7891 O   0  0  0  0  0  0
    6.6899   52.8974   16.5671 N   0  0  0  0  0  0
    7.0289   52.4897   15.1997 C   0  0  0  0  0  0
    8.3839   51.7444   15.0782 C   0  0  0  0  0  0
    8.6913   51.2107   13.6653 C   0  0  0  0  0  0
    7.5200   50.4141   13.0685 C   0  0  0  0  0  0
    6.2336   51.2554   13.0627 C   0  0  0  0  0  0
    5.8699   51.7673   14.4690 C   0  0  0  0  0  0
    2.7097   53.6342   23.9955 N   0  0  0  0  0  0
    2.2298   53.0682   22.8651 C   0  0  0  0  0  0
    2.9176   52.8775   21.8573 O   0  0  0  0  0  0
    0.7706   52.6567   22.8858 C   0  0  0  0  0  0
    0.2043   52.0695   21.7433 C   0  0  0  0  0  0
   -1.1359   51.6963   21.7239 C   0  0  0  0  0  0
   -1.9285   51.9067   22.8474 C   0  0  0  0  0  0
   -1.3877   52.4834   23.9935 C   0  0  0  0  0  0
   -0.0461   52.8558   24.0147 C   0  0  0  0  0  0
    4.9340   54.5845   29.2580 C   0  0  0  0  0  0
    2.3336   53.5518   28.3284 H   0  0  0  0  0  0
    1.7034   54.2825   26.8688 H   0  0  0  0  0  0
    2.2907   52.6254   26.8417 H   0  0  0  0  0  0
    5.3904   55.7494   20.5783 H   0  0  0  0  0  0
    5.6617   54.0271   20.7320 H   0  0  0  0  0  0
    5.9545   53.4596   18.6820 H   0  0  0  0  0  0
    6.0669   52.2725   17.0661 H   0  0  0  0  0  0
    7.1552   53.4064   14.6178 H   0  0  0  0  0  0
    8.3700   50.8950   15.7613 H   0  0  0  0  0  0
    9.2029   52.3925   15.3955 H   0  0  0  0  0  0
    9.5874   50.5888   13.6905 H   0  0  0  0  0  0
    8.9280   52.0467   13.0061 H   0  0  0  0  0  0
    7.3639   49.5012   13.6461 H   0  0  0  0  0  0
    7.7650   50.0958   12.0559 H   0  0  0  0  0  0
    5.4074   50.6700   12.6564 H   0  0  0  0  0  0
    6.3593   52.1025   12.3881 H   0  0  0  0  0  0
    4.9991   52.4214   14.4013 H   0  0  0  0  0  0
    5.5595   50.9005   15.0513 H   0  0  0  0  0  0
    2.0903   53.6692   24.7890 H   0  0  0  0  0  0
    0.8002   51.9045   20.8551 H   0  0  0  0  0  0
   -1.5572   51.2406   20.8376 H   0  0  0  0  0  0
   -2.9680   51.6117   22.8367 H   0  0  0  0  0  0
   -2.0060   52.6389   24.8654 H   0  0  0  0  0  0
    0.3371   53.2945   24.9230 H   0  0  0  0  0  0
    4.7042   53.6177   29.6987 H   0  0  0  0  0  0
    5.9047   54.8997   29.6349 H   0  0  0  0  0  0
    4.1968   55.2938   29.6368 H   0  0  0  0  0  0
  1  2  1  0  0  0
  1 35  1  0  0  0
  1 36  1  0  0  0
  1 37  1  0  0  0
  2  6  1  0  0  0
  2  3  2  0  0  0
  3  4  1  0  0  0
  3 34  1  0  0  0
  4  5  1  0  0  0
  5 10  2  0  0  0
  5  6  1  0  0  0
  6  7  2  0  0  0
  7  8  1  0  0  0
  7 25  1  0  0  0
  8  9  2  0  0  0
  9 10  1  0  0  0
  9 11  1  0  0  0
 11 12  1  0  0  0
 12 13  1  0  0  0
 12 38  1  0  0  0
 12 39  1  0  0  0
 13 14  2  0  0  0
 13 15  1  0  0  0
 15 16  1  0  0  0
 15 40  1  0  0  0
 16 17  2  0  0  0
 16 18  1  0  0  0
 18 19  1  0  0  0
 18 41  1  0  0  0
 19 24  1  0  0  0
 19 20  1  0  0  0
 19 42  1  0  0  0
 20 21  1  0  0  0
 20 43  1  0  0  0
 20 44  1  0  0  0
 21 22  1  0  0  0
 21 45  1  0  0  0
 21 46  1  0  0  0
 22 23  1  0  0  0
 22 47  1  0  0  0
 22 48  1  0  0  0
 23 24  1  0  0  0
 23 49  1  0  0  0
 23 50  1  0  0  0
 24 51  1  0  0  0
 24 52  1  0  0  0
 25 26  1  0  0  0
 25 53  1  0  0  0
 26 27  2  0  0  0
 26 28  1  0  0  0
 28 33  2  0  0  0
 28 29  1  0  0  0
 29 30  2  0  0  0
 29 54  1  0  0  0
 30 31  1  0  0  0
 30 55  1  0  0  0
 31 32  2  0  0  0
 31 56  1  0  0  0
 32 33  1  0  0  0
 32 57  1  0  0  0
 33 58  1  0  0  0
 34 59  1  0  0  0
 34 60  1  0  0  0
 34 61  1  0  0  0
M  END
> <i_i_glide_confnum>
52

> <i_i_glide_lignum>
4956

> <i_i_glide_posenum>
388

> <i_i_glide_rotatable_bonds>
10

> <i_m_Source_File_Index>
2161

> <b_m_subgroup_collapsed>
0

> <r_i_docking_score>
-5.6335

> <r_i_glide_ecoul>
-0.383144

> <r_i_glide_eff_state_penalty>
0

> <r_i_glide_einternal>
2.9631

> <r_i_glide_emodel>
-63.9929

> <r_i_glide_energy>
-45.8854

> <r_i_glide_erotb>
0.787318

> <r_i_glide_esite>
-0.0460714

> <r_i_glide_evdw>
-45.5023

> <r_i_glide_gscore>
-5.6335

> <r_i_glide_hbond>
-0.072387

> <r_i_glide_ligand_efficiency>
-0.165691

> <r_i_glide_ligand_efficiency_ln>
-1.2446

> <r_i_glide_ligand_efficiency_sa>
-0.536775

> <r_i_glide_lipo>
-2.31799

> <r_i_glide_metal>
0

> <r_i_glide_rewards>
-1.65178

> <s_i_glide_gridfile>
wee1_glide-grid

> <s_m_Source_File>
wee1_decoys_glide_SP.sdf

> <s_m_Source_Path>
/Users/zhangxujun/Desktop

> <s_m_entry_id>
2436

> <s_m_entry_name>
wee1_decoys_glide_SP.2161

> <s_m_subgroup_title>
wee1_decoys_glide_SP

> <s_m_subgroupid>
wee1_decoys_glide_SP


$$$$
