ZINC14275623_5185
                    3D
 Schrodinger Suite 2024-2.
 42 44  0  0  1  0            999 V2000
   -0.6042   49.3676   25.7685 C   0  0  0  0  0  0
   -0.0216   50.6786   25.2624 C   0  0  0  0  0  0
   -0.1514   50.9849   23.9069 C   0  0  0  0  0  0
    0.4356   52.1315   23.3846 C   0  0  0  0  0  0
    1.1575   52.9833   24.2147 C   0  0  0  0  0  0
    1.3279   52.6831   25.5758 C   0  0  0  0  0  0
    0.7024   51.5384   26.1107 C   0  0  0  0  0  0
    0.8846   51.2056   27.4343 O   0  0  0  0  0  0
   -0.2084   51.5245   28.2878 C   0  0  0  0  0  0
    2.2386   53.5350   26.4251 C   0  0  0  0  0  0
    1.8700   53.9600   27.5222 O   0  0  0  0  0  0
    3.4448   53.7677   25.8529 N   0  0  0  0  0  0
    4.6731   54.0865   26.3756 C   0  0  0  0  0  0
    5.1048   54.0964   27.9922 S   0  0  0  0  0  0
    5.6714   54.4356   25.5080 N   0  0  0  0  0  0
    5.6852   54.4972   24.1152 C   0  0  0  0  0  0
    6.7044   55.0642   23.5399 N   0  0  0  0  0  0
    6.5774   55.0914   22.1866 C   0  0  0  0  0  0
    7.5036   55.6645   21.3086 C   0  0  0  0  0  0
    7.2338   55.6459   19.9407 C   0  0  0  0  0  0
    6.0597   55.0597   19.4399 C   0  0  0  0  0  0
    5.1280   54.4741   20.3040 C   0  0  0  0  0  0
    5.3960   54.4968   21.6780 C   0  0  0  0  0  0
    4.4516   53.8719   23.0189 S   0  0  0  0  0  0
    5.7770   55.0434   17.9441 C   0  0  0  0  0  0
    8.3976   56.3660   18.8831 Cl  0  0  0  0  0  0
    0.3038   52.4964   21.5224 Br  0  0  0  0  0  0
    0.0593   48.9065   26.5001 H   0  0  0  0  0  0
   -1.5752   49.5259   26.2369 H   0  0  0  0  0  0
   -0.7160   48.6377   24.9667 H   0  0  0  0  0  0
   -0.6887   50.3189   23.2477 H   0  0  0  0  0  0
    1.6080   53.8637   23.7785 H   0  0  0  0  0  0
    0.0627   51.2966   29.3186 H   0  0  0  0  0  0
   -0.4615   52.5852   28.2390 H   0  0  0  0  0  0
   -1.1000   50.9437   28.0495 H   0  0  0  0  0  0
    3.4928   53.4325   24.9038 H   0  0  0  0  0  0
    6.5066   54.8014   25.9384 H   0  0  0  0  0  0
    8.4187   56.0957   21.6816 H   0  0  0  0  0  0
    4.2217   54.0207   19.9243 H   0  0  0  0  0  0
    6.5709   54.5141   17.4156 H   0  0  0  0  0  0
    4.8294   54.5603   17.7020 H   0  0  0  0  0  0
    5.7475   56.0614   17.5538 H   0  0  0  0  0  0
  1  2  1  0  0  0
  1 28  1  0  0  0
  1 29  1  0  0  0
  1 30  1  0  0  0
  2  7  2  0  0  0
  2  3  1  0  0  0
  3  4  2  0  0  0
  3 31  1  0  0  0
  4  5  1  0  0  0
  4 27  1  0  0  0
  5  6  2  0  0  0
  5 32  1  0  0  0
  6  7  1  0  0  0
  6 10  1  0  0  0
  7  8  1  0  0  0
  8  9  1  0  0  0
  9 33  1  0  0  0
  9 34  1  0  0  0
  9 35  1  0  0  0
 10 11  2  0  0  0
 10 12  1  0  0  0
 12 13  1  0  0  0
 12 36  1  0  0  0
 13 14  2  0  0  0
 13 15  1  0  0  0
 15 16  1  0  0  0
 15 37  1  0  0  0
 16 24  1  0  0  0
 16 17  2  0  0  0
 17 18  1  0  0  0
 18 23  2  0  0  0
 18 19  1  0  0  0
 19 20  2  0  0  0
 19 38  1  0  0  0
 20 21  1  0  0  0
 20 26  1  0  0  0
 21 22  2  0  0  0
 21 25  1  0  0  0
 22 23  1  0  0  0
 22 39  1  0  0  0
 23 24  1  0  0  0
 25 40  1  0  0  0
 25 41  1  0  0  0
 25 42  1  0  0  0
M  END
> <i_i_glide_confnum>
59

> <i_i_glide_lignum>
5186

> <i_i_glide_posenum>
46

> <i_i_glide_rotatable_bonds>
6

> <i_m_Source_File_Index>
2791

> <b_m_subgroup_collapsed>
0

> <r_i_docking_score>
-4.92782

> <r_i_glide_ecoul>
-1.67089

> <r_i_glide_eff_state_penalty>
0

> <r_i_glide_einternal>
10.8911

> <r_i_glide_emodel>
-54.0898

> <r_i_glide_energy>
-46.6708

> <r_i_glide_erotb>
0.43205

> <r_i_glide_esite>
0

> <r_i_glide_evdw>
-44.9999

> <r_i_glide_gscore>
-4.92782

> <r_i_glide_hbond>
0

> <r_i_glide_ligand_efficiency>
-0.182512

> <r_i_glide_ligand_efficiency_ln>
-1.14711

> <r_i_glide_ligand_efficiency_sa>
-0.547535

> <r_i_glide_lipo>
-1.90001

> <r_i_glide_metal>
0

> <r_i_glide_rewards>
-0.959226

> <s_i_glide_gridfile>
wee1_glide-grid

> <s_m_Source_File>
wee1_decoys_glide_SP.sdf

> <s_m_Source_Path>
/Users/zhangxujun/Desktop

> <s_m_entry_id>
3066

> <s_m_entry_name>
wee1_decoys_glide_SP.2791

> <s_m_subgroup_title>
wee1_decoys_glide_SP

> <s_m_subgroupid>
wee1_decoys_glide_SP


$$$$
