ZINC09739843_2037
                    3D
 Schrodinger Suite 2024-2.
 55 58  0  0  1  0            999 V2000
   10.2045   54.2837   17.6833 C   0  0  0  0  0  0
    9.0050   54.7733   18.5154 C   0  0  0  0  0  0
    8.3194   56.0716   18.0584 C   0  0  0  0  0  0
    8.9115   56.8794   17.0740 C   0  0  0  0  0  0
    8.2882   58.0431   16.6267 C   0  0  0  0  0  0
    7.0537   58.4183   17.1506 C   0  0  0  0  0  0
    6.4495   57.6333   18.1282 C   0  0  0  0  0  0
    7.0758   56.4758   18.6006 C   0  0  0  0  0  0
    6.3996   55.7619   19.6052 N   0  0  0  0  0  0
    6.8415   55.6276   20.8739 C   0  0  0  0  0  0
    7.9070   56.0953   21.2817 O   0  0  0  0  0  0
    5.9040   54.8960   21.7731 C   0  0  0  0  0  0
    4.8573   54.3840   21.3674 O   0  0  0  0  0  0
    6.3342   54.8969   23.0579 N   0  0  0  0  0  0
    5.6828   54.4825   24.2345 C   0  0  0  0  0  0
    6.4613   54.4618   25.3866 C   0  0  0  0  0  0
    5.9042   54.0976   26.6073 C   0  0  0  0  0  0
    4.5579   53.7316   26.7126 C   0  0  0  0  0  0
    3.7581   53.7148   25.5414 C   0  0  0  0  0  0
    4.3283   54.1337   24.3261 C   0  0  0  0  0  0
    2.3896   53.3191   25.6090 N   0  0  0  0  0  0
    1.7403   53.4347   26.9202 C   0  0  0  0  0  0
    2.5986   52.7587   27.9971 C   0  0  0  0  0  0
    3.9834   53.4078   28.0881 C   0  0  0  0  0  0
    1.4036   52.7669   24.2051 S   0  0  0  0  0  0
    0.2790   53.6963   24.0732 O   0  0  0  0  0  0
    2.2825   52.4374   23.0780 O   0  0  0  0  0  0
    0.6788   51.1953   24.7234 C   0  0  0  0  0  0
    1.1018   49.9271   24.3345 C   0  0  0  0  0  0
    0.3063   48.9105   24.8798 C   0  0  0  0  0  0
   -0.7137   49.3971   25.6815 C   0  0  0  0  0  0
   -0.7180   51.1231   25.7569 S   0  0  0  0  0  0
   10.5678   53.3282   18.0613 H   0  0  0  0  0  0
    9.9315   54.1344   16.6383 H   0  0  0  0  0  0
   11.0397   54.9840   17.7278 H   0  0  0  0  0  0
    9.3337   54.9003   19.5465 H   0  0  0  0  0  0
    8.2548   53.9826   18.5134 H   0  0  0  0  0  0
    9.8629   56.6204   16.6363 H   0  0  0  0  0  0
    8.7592   58.6543   15.8700 H   0  0  0  0  0  0
    6.5651   59.3199   16.8076 H   0  0  0  0  0  0
    5.4980   57.9473   18.5282 H   0  0  0  0  0  0
    5.4837   55.3979   19.3846 H   0  0  0  0  0  0
    7.2555   55.2944   23.1895 H   0  0  0  0  0  0
    7.5044   54.7313   25.3414 H   0  0  0  0  0  0
    6.5258   54.1127   27.4924 H   0  0  0  0  0  0
    3.7100   54.2228   23.4517 H   0  0  0  0  0  0
    1.6567   54.5047   27.1094 H   0  0  0  0  0  0
    0.7196   53.0627   26.9225 H   0  0  0  0  0  0
    2.0957   52.7988   28.9632 H   0  0  0  0  0  0
    2.6926   51.6971   27.7647 H   0  0  0  0  0  0
    4.6638   52.7673   28.6533 H   0  0  0  0  0  0
    3.8991   54.3441   28.6426 H   0  0  0  0  0  0
    1.9498   49.7424   23.6895 H   0  0  0  0  0  0
    0.4833   47.8568   24.7199 H   0  0  0  0  0  0
   -1.4493   48.8313   26.2346 H   0  0  0  0  0  0
  1  2  1  0  0  0
  1 33  1  0  0  0
  1 34  1  0  0  0
  1 35  1  0  0  0
  2  3  1  0  0  0
  2 36  1  0  0  0
  2 37  1  0  0  0
  3  8  2  0  0  0
  3  4  1  0  0  0
  4  5  2  0  0  0
  4 38  1  0  0  0
  5  6  1  0  0  0
  5 39  1  0  0  0
  6  7  2  0  0  0
  6 40  1  0  0  0
  7  8  1  0  0  0
  7 41  1  0  0  0
  8  9  1  0  0  0
  9 10  1  0  0  0
  9 42  1  0  0  0
 10 11  2  0  0  0
 10 12  1  0  0  0
 12 13  2  0  0  0
 12 14  1  0  0  0
 14 15  1  0  0  0
 14 43  1  0  0  0
 15 20  2  0  0  0
 15 16  1  0  0  0
 16 17  2  0  0  0
 16 44  1  0  0  0
 17 18  1  0  0  0
 17 45  1  0  0  0
 18 24  1  0  0  0
 18 19  2  0  0  0
 19 20  1  0  0  0
 19 21  1  0  0  0
 20 46  1  0  0  0
 21 22  1  0  0  0
 21 25  1  0  0  0
 22 23  1  0  0  0
 22 47  1  0  0  0
 22 48  1  0  0  0
 23 24  1  0  0  0
 23 49  1  0  0  0
 23 50  1  0  0  0
 24 51  1  0  0  0
 24 52  1  0  0  0
 25 26  2  0  0  0
 25 27  2  0  0  0
 25 28  1  0  0  0
 28 32  1  0  0  0
 28 29  2  0  0  0
 29 30  1  0  0  0
 29 53  1  0  0  0
 30 31  2  0  0  0
 30 54  1  0  0  0
 31 32  1  0  0  0
 31 55  1  0  0  0
M  END
> <i_i_glide_confnum>
469

> <i_i_glide_lignum>
2038

> <i_i_glide_posenum>
374

> <i_i_glide_rotatable_bonds>
8

> <i_m_Source_File_Index>
4118

> <b_m_subgroup_collapsed>
0

> <r_i_docking_score>
-5.42385

> <r_i_glide_ecoul>
-3.79227

> <r_i_glide_eff_state_penalty>
0

> <r_i_glide_einternal>
12.2842

> <r_i_glide_emodel>
-58.4102

> <r_i_glide_energy>
-47.9868

> <r_i_glide_erotb>
0.641213

> <r_i_glide_esite>
0

> <r_i_glide_evdw>
-44.1945

> <r_i_glide_gscore>
-5.42385

> <r_i_glide_hbond>
-0.0726706

> <r_i_glide_ligand_efficiency>
-0.169495

> <r_i_glide_ligand_efficiency_ln>
-1.21455

> <r_i_glide_ligand_efficiency_sa>
-0.538114

> <r_i_glide_lipo>
-2.34833

> <r_i_glide_metal>
0

> <r_i_glide_rewards>
-0.865502

> <s_i_glide_gridfile>
wee1_glide-grid

> <s_m_Source_File>
wee1_decoys_glide_SP.sdf

> <s_m_Source_Path>
/Users/zhangxujun/Desktop

> <s_m_entry_id>
4393

> <s_m_entry_name>
wee1_decoys_glide_SP.4118

> <s_m_subgroup_title>
wee1_decoys_glide_SP

> <s_m_subgroupid>
wee1_decoys_glide_SP


$$$$
