ZINC48271078_4592
                    3D
 Schrodinger Suite 2024-2.
 48 49  0  0  1  0            999 V2000
    4.8134   57.0358   17.6099 C   0  0  0  0  0  0
    6.3042   57.3195   17.7396 C   0  0  0  0  0  0
    6.8104   58.4968   17.1833 C   0  0  0  0  0  0
    8.1764   58.7682   17.2199 C   0  0  0  0  0  0
    9.0593   57.8453   17.7922 C   0  0  0  0  0  0
    8.5669   56.6596   18.3432 C   0  0  0  0  0  0
    7.1901   56.4112   18.3543 C   0  0  0  0  0  0
    6.7314   55.2577   19.0038 N   0  0  0  0  0  0
    6.0587   55.2862   20.1696 C   0  0  0  0  0  0
    5.9498   56.2857   20.8800 O   0  0  0  0  0  0
    5.5038   54.0968   20.4548 N   0  0  0  0  0  0
    4.5423   53.7991   21.5307 C   0  0  1  0  0  0
    3.6875   54.4558   21.3409 H   0  0  0  0  0  0
    4.0558   52.3462   21.3829 C   0  0  0  0  0  0
    4.9917   54.0718   22.9790 C   0  0  0  0  0  0
    6.3407   54.2110   23.3209 C   0  0  0  0  0  0
    6.7050   54.4967   24.6316 C   0  0  0  0  0  0
    5.7431   54.6359   25.6256 C   0  0  0  0  0  0
    4.3912   54.4923   25.2950 C   0  0  0  0  0  0
    4.0209   54.2077   23.9800 C   0  0  0  0  0  0
    6.1881   54.9703   26.8864 O   0  0  0  0  0  0
    5.6990   54.2229   27.9982 C   0  0  0  0  0  0
    4.4308   54.5006   28.3018 F   0  0  0  0  0  0
    5.8779   52.9121   27.8545 F   0  0  0  0  0  0
   10.4396   58.0720   17.8163 N   0  0  0  0  0  0
   11.0310   59.1555   18.3583 C   0  0  0  0  0  0
   10.4334   60.0998   18.8825 O   0  0  0  0  0  0
   12.5550   59.1517   18.3291 C   0  0  0  0  0  0
    4.2953   57.2839   18.5321 H   0  0  0  0  0  0
    4.3662   57.6027   16.7918 H   0  0  0  0  0  0
    4.6354   55.9826   17.3888 H   0  0  0  0  0  0
    6.1432   59.2138   16.7258 H   0  0  0  0  0  0
    8.5417   59.6912   16.7939 H   0  0  0  0  0  0
    9.2475   55.9569   18.8044 H   0  0  0  0  0  0
    6.9503   54.3708   18.5770 H   0  0  0  0  0  0
    5.4926   53.4265   19.7012 H   0  0  0  0  0  0
    3.2357   52.1262   22.0678 H   0  0  0  0  0  0
    3.6904   52.1476   20.3740 H   0  0  0  0  0  0
    4.8585   51.6360   21.5870 H   0  0  0  0  0  0
    7.1171   54.1150   22.5769 H   0  0  0  0  0  0
    7.7481   54.6161   24.8781 H   0  0  0  0  0  0
    3.6230   54.6177   26.0420 H   0  0  0  0  0  0
    2.9729   54.1123   23.7359 H   0  0  0  0  0  0
    6.2812   54.4989   28.8768 H   0  0  0  0  0  0
   11.0273   57.2852   17.5817 H   0  0  0  0  0  0
   12.9437   58.3558   18.9638 H   0  0  0  0  0  0
   12.9509   60.1008   18.6914 H   0  0  0  0  0  0
   12.9210   58.9967   17.3139 H   0  0  0  0  0  0
  1  2  1  0  0  0
  1 29  1  0  0  0
  1 30  1  0  0  0
  1 31  1  0  0  0
  2  7  2  0  0  0
  2  3  1  0  0  0
  3  4  2  0  0  0
  3 32  1  0  0  0
  4  5  1  0  0  0
  4 33  1  0  0  0
  5  6  2  0  0  0
  5 25  1  0  0  0
  6  7  1  0  0  0
  6 34  1  0  0  0
  7  8  1  0  0  0
  8  9  1  0  0  0
  8 35  1  0  0  0
  9 10  2  0  0  0
  9 11  1  0  0  0
 11 12  1  0  0  0
 11 36  1  0  0  0
 12 13  1  0  0  0
 12 14  1  0  0  0
 12 15  1  0  0  0
 14 37  1  0  0  0
 14 38  1  0  0  0
 14 39  1  0  0  0
 15 20  2  0  0  0
 15 16  1  0  0  0
 16 17  2  0  0  0
 16 40  1  0  0  0
 17 18  1  0  0  0
 17 41  1  0  0  0
 18 19  2  0  0  0
 18 21  1  0  0  0
 19 20  1  0  0  0
 19 42  1  0  0  0
 20 43  1  0  0  0
 21 22  1  0  0  0
 22 23  1  0  0  0
 22 24  1  0  0  0
 22 44  1  0  0  0
 25 26  1  0  0  0
 25 45  1  0  0  0
 26 27  2  0  0  0
 26 28  1  0  0  0
 28 46  1  0  0  0
 28 47  1  0  0  0
 28 48  1  0  0  0
M  END
> <i_i_glide_confnum>
102

> <i_i_glide_lignum>
4593

> <i_i_glide_posenum>
160

> <i_i_glide_rotatable_bonds>
9

> <i_m_Source_File_Index>
1687

> <b_m_subgroup_collapsed>
0

> <r_i_docking_score>
-4.70178

> <r_i_glide_ecoul>
-7.61505

> <r_i_glide_eff_state_penalty>
0

> <r_i_glide_einternal>
7.71772

> <r_i_glide_emodel>
-48.9408

> <r_i_glide_energy>
-42.9633

> <r_i_glide_erotb>
0.951942

> <r_i_glide_esite>
-0.0292732

> <r_i_glide_evdw>
-35.3482

> <r_i_glide_gscore>
-4.70178

> <r_i_glide_hbond>
-0.16

> <r_i_glide_ligand_efficiency>
-0.17414

> <r_i_glide_ligand_efficiency_ln>
-1.0945

> <r_i_glide_ligand_efficiency_sa>
-0.52242

> <r_i_glide_lipo>
-2.27972

> <r_i_glide_metal>
0

> <r_i_glide_rewards>
-0.275055

> <s_i_glide_gridfile>
wee1_glide-grid

> <s_m_Source_File>
wee1_decoys_glide_SP.sdf

> <s_m_Source_Path>
/Users/zhangxujun/Desktop

> <s_m_entry_id>
1962

> <s_m_entry_name>
wee1_decoys_glide_SP.1687

> <s_m_subgroup_title>
wee1_decoys_glide_SP

> <s_m_subgroupid>
wee1_decoys_glide_SP


$$$$
