ZINC39684170_2931
                    3D
 Schrodinger Suite 2024-2.
 75 79  0  0  1  0            999 V2000
    5.4506   54.2109   22.4485 C   0  0  0  0  0  0
    4.0636   53.7067   22.8989 C   0  0  0  0  0  0
    3.4468   54.1666   24.2696 C   0  0  2  0  0  0
    3.1071   55.1914   24.1151 H   0  0  0  0  0  0
    4.5113   54.2937   25.4043 C   0  0  0  0  0  0
    5.5076   55.2668   25.2884 C   0  0  0  0  0  0
    6.5524   55.3383   26.1959 C   0  0  0  0  0  0
    6.5891   54.4856   27.2895 C   0  0  0  0  0  0
    5.5750   53.5573   27.4761 C   0  0  0  0  0  0
    4.5518   53.4593   26.5371 C   0  0  0  0  0  0
    2.1168   53.4482   24.7306 C   0  0  0  0  0  0
    1.7266   53.6967   25.8730 O   0  0  0  0  0  0
    1.3783   52.5811   23.9769 N   0  0  0  0  0  0
    1.5488   52.2000   22.5763 C   0  0  0  0  0  0
    0.3413   51.2886   22.2636 C   0  0  2  0  0  0
   -0.4641   51.9133   21.8737 H   0  0  0  0  0  0
   -0.0561   50.6746   23.6358 C   0  0  0  0  0  0
    0.2051   51.9001   24.5442 C   0  0  0  0  0  0
   -1.5097   50.1465   23.7080 C   0  0  0  0  0  0
   -1.9053   49.7764   25.1583 C   0  0  0  0  0  0
   -0.9410   48.6841   25.6817 N   0  3  0  0  0  0
    0.5622   49.0123   25.5104 C   0  0  0  0  0  0
    0.8245   49.4579   24.0569 C   0  0  0  0  0  0
    0.6924   50.3099   21.1047 C   0  0  0  0  0  0
    0.0758   49.2499   20.9907 O   0  0  0  0  0  0
    1.6469   50.6840   20.2304 N   0  0  0  0  0  0
    2.0808   49.9424   19.0453 C   0  0  0  0  0  0
    1.2032   50.1974   17.7998 C   0  0  0  0  0  0
    0.8849   51.6646   17.5479 C   0  0  0  0  0  0
    1.8181   52.7353   17.2887 C   0  0  0  0  0  0
    3.2145   52.8034   17.1765 C   0  0  0  0  0  0
    3.8169   54.0339   16.9336 C   0  0  0  0  0  0
    3.0581   55.1911   16.7934 C   0  0  0  0  0  0
    1.6619   55.1896   16.8814 C   0  0  0  0  0  0
    1.0668   53.9433   17.1307 C   0  0  0  0  0  0
   -0.2579   53.5966   17.2782 N   0  0  0  0  0  0
   -0.3660   52.2527   17.5228 C   0  0  0  0  0  0
    0.9113   56.5009   16.7255 C   0  0  0  0  0  0
    5.6871   53.8095   21.4630 H   0  0  0  0  0  0
    5.5037   55.2947   22.3570 H   0  0  0  0  0  0
    6.2429   53.8741   23.1181 H   0  0  0  0  0  0
    4.1468   52.6264   22.8792 H   0  0  0  0  0  0
    3.3861   53.9964   22.0972 H   0  0  0  0  0  0
    5.5046   55.9743   24.4811 H   0  0  0  0  0  0
    7.2986   56.0984   26.0530 H   0  0  0  0  0  0
    7.3916   54.5516   28.0106 H   0  0  0  0  0  0
    5.5942   52.8951   28.3298 H   0  0  0  0  0  0
    3.8074   52.6971   26.6999 H   0  0  0  0  0  0
    1.5552   53.0506   21.8946 H   0  0  0  0  0  0
    2.4516   51.5923   22.5286 H   0  0  0  0  0  0
    0.2725   51.6586   25.6038 H   0  0  0  0  0  0
   -0.6422   52.5819   24.4502 H   0  0  0  0  0  0
   -2.1918   50.9315   23.3795 H   0  0  0  0  0  0
   -1.6728   49.3179   23.0164 H   0  0  0  0  0  0
   -1.8329   50.6113   25.8580 H   0  0  0  0  0  0
   -2.9080   49.3507   25.2253 H   0  0  0  0  0  0
   -1.1366   48.4969   26.6721 H   0  0  0  0  0  0
    0.8101   49.7542   26.2698 H   0  0  0  0  0  0
    1.1044   48.0970   25.7370 H   0  0  0  0  0  0
    0.7134   48.6116   23.3784 H   0  0  0  0  0  0
    1.8805   49.7276   23.9964 H   0  0  0  0  0  0
    2.0836   51.5855   20.3522 H   0  0  0  0  0  0
    3.1039   50.2593   18.8338 H   0  0  0  0  0  0
    2.1365   48.8726   19.2586 H   0  0  0  0  0  0
    1.7083   49.7729   16.9304 H   0  0  0  0  0  0
    0.2811   49.6246   17.9051 H   0  0  0  0  0  0
    3.8216   51.9135   17.2776 H   0  0  0  0  0  0
    4.8927   54.0908   16.8518 H   0  0  0  0  0  0
    3.5774   56.1204   16.6056 H   0  0  0  0  0  0
   -1.3422   51.8093   17.6615 H   0  0  0  0  0  0
   -1.0572   54.2077   17.2100 H   0  0  0  0  0  0
    1.5808   57.3477   16.5705 H   0  0  0  0  0  0
    0.2358   56.4462   15.8719 H   0  0  0  0  0  0
    0.3193   56.7054   17.6180 H   0  0  0  0  0  0
   -1.1357   47.8180   25.2006 H   0  0  0  0  0  0
  1  2  1  0  0  0
  1 39  1  0  0  0
  1 40  1  0  0  0
  1 41  1  0  0  0
  2  3  1  0  0  0
  2 42  1  0  0  0
  2 43  1  0  0  0
  3  4  1  0  0  0
  3  5  1  0  0  0
  3 11  1  0  0  0
  5 10  2  0  0  0
  5  6  1  0  0  0
  6  7  2  0  0  0
  6 44  1  0  0  0
  7  8  1  0  0  0
  7 45  1  0  0  0
  8  9  2  0  0  0
  8 46  1  0  0  0
  9 10  1  0  0  0
  9 47  1  0  0  0
 10 48  1  0  0  0
 11 12  2  0  0  0
 11 13  1  0  0  0
 13 18  1  0  0  0
 13 14  1  0  0  0
 14 15  1  0  0  0
 14 49  1  0  0  0
 14 50  1  0  0  0
 15 16  1  0  0  0
 15 17  1  0  0  0
 15 24  1  0  0  0
 17 23  1  0  0  0
 17 18  1  0  0  0
 17 19  1  0  0  0
 18 51  1  0  0  0
 18 52  1  0  0  0
 19 20  1  0  0  0
 19 53  1  0  0  0
 19 54  1  0  0  0
 20 21  1  0  0  0
 20 55  1  0  0  0
 20 56  1  0  0  0
 21 22  1  0  0  0
 21 57  1  0  0  0
 21 75  1  0  0  0
 22 23  1  0  0  0
 22 58  1  0  0  0
 22 59  1  0  0  0
 23 60  1  0  0  0
 23 61  1  0  0  0
 24 25  2  0  0  0
 24 26  1  0  0  0
 26 27  1  0  0  0
 26 62  1  0  0  0
 27 28  1  0  0  0
 27 63  1  0  0  0
 27 64  1  0  0  0
 28 65  1  0  0  0
 28 66  1  0  0  0
 28 29  1  0  0  0
 29 30  1  0  0  0
 29 37  2  0  0  0
 30 31  2  0  0  0
 30 35  1  0  0  0
 31 32  1  0  0  0
 31 67  1  0  0  0
 32 33  2  0  0  0
 32 68  1  0  0  0
 33 34  1  0  0  0
 33 69  1  0  0  0
 34 35  2  0  0  0
 34 38  1  0  0  0
 35 36  1  0  0  0
 36 71  1  0  0  0
 36 37  1  0  0  0
 37 70  1  0  0  0
 38 72  1  0  0  0
 38 73  1  0  0  0
 38 74  1  0  0  0
M  CHG  1  21   1
M  END
> <i_i_glide_confnum>
271

> <i_i_glide_lignum>
2932

> <i_i_glide_posenum>
71

> <i_i_glide_rotatable_bonds>
9

> <i_m_Source_File_Index>
5812

> <b_m_subgroup_collapsed>
0

> <r_i_docking_score>
-5.04814

> <r_i_glide_ecoul>
-4.51082

> <r_i_glide_eff_state_penalty>
0

> <r_i_glide_einternal>
8.97382

> <r_i_glide_emodel>
-51.1354

> <r_i_glide_energy>
-38.9981

> <r_i_glide_erotb>
0.683941

> <r_i_glide_esite>
-0.123671

> <r_i_glide_evdw>
-34.4873

> <r_i_glide_gscore>
-5.04814

> <r_i_glide_hbond>
-0.2

> <r_i_glide_ligand_efficiency>
-0.140226

> <r_i_glide_ligand_efficiency_ln>
-1.10137

> <r_i_glide_ligand_efficiency_sa>
-0.463016

> <r_i_glide_lipo>
-2.37249

> <r_i_glide_metal>
0

> <r_i_glide_rewards>
-0.634938

> <s_i_glide_gridfile>
wee1_glide-grid

> <s_m_Source_File>
wee1_decoys_glide_SP.sdf

> <s_m_Source_Path>
/Users/zhangxujun/Desktop

> <s_m_entry_id>
6087

> <s_m_entry_name>
wee1_decoys_glide_SP.5812

> <s_m_subgroup_title>
wee1_decoys_glide_SP

> <s_m_subgroupid>
wee1_decoys_glide_SP


$$$$
