ZINC27199722_3731
                    3D
 Schrodinger Suite 2024-2.
 68 72  0  0  1  0            999 V2000
    1.8814   51.5283   15.8365 C   0  0  0  0  0  0
    3.1623   52.3892   15.8983 C   0  0  2  0  0  0
    4.0449   51.7479   15.8420 H   0  0  0  0  0  0
    3.2339   53.1438   17.2399 C   0  0  0  0  0  0
    2.6794   54.2372   17.3803 O   0  0  0  0  0  0
    3.9043   52.4967   18.2154 N   0  0  0  0  0  0
    4.0375   53.0263   19.5003 N   0  0  0  0  0  0
    5.0104   53.9213   19.7908 C   0  0  0  0  0  0
    5.7613   54.4167   18.9472 O   0  0  0  0  0  0
    5.2008   54.2329   21.2636 C   0  0  0  0  0  0
    4.2662   53.8293   22.2287 C   0  0  0  0  0  0
    4.5087   54.0505   23.5792 C   0  0  0  0  0  0
    5.6902   54.6708   24.0043 C   0  0  0  0  0  0
    6.6094   55.0975   23.0467 C   0  0  0  0  0  0
    6.3609   54.8968   21.6910 C   0  0  0  0  0  0
    5.9692   54.9594   25.4818 C   0  0  0  0  0  0
    4.8087   54.7511   26.3441 N   0  0  0  0  0  0
    4.7868   54.1658   27.5533 C   0  0  0  0  0  0
    5.8218   53.8866   28.1604 O   0  0  0  0  0  0
    3.3853   53.8132   28.1466 C   0  0  0  0  0  0
    2.8807   54.9477   29.0891 C   0  0  0  0  0  0
    1.5046   54.5524   29.7050 C   0  0  1  0  0  0
    0.4741   54.3243   28.5817 C   0  0  0  0  0  0
    0.9540   53.2077   27.6152 C   0  0  1  0  0  0
    2.3233   53.5955   27.0112 C   0  0  0  0  0  0
    1.1044   51.8871   28.3980 C   0  0  0  0  0  0
    2.1110   52.1174   29.5449 C   0  0  2  0  0  0
    1.6150   53.2239   30.4818 C   0  0  0  0  0  0
    3.5005   52.5125   28.9987 C   0  0  0  0  0  0
    3.1777   53.3478   14.8336 O   0  0  0  0  0  0
    3.4145   52.9523   13.5278 C   0  0  0  0  0  0
    3.8156   51.6609   13.1444 C   0  0  0  0  0  0
    4.0201   51.3628   11.7980 C   0  0  0  0  0  0
    3.8323   52.3473   10.8325 C   0  0  0  0  0  0
    3.4479   53.6337   11.2025 C   0  0  0  0  0  0
    3.2432   53.9334   12.5483 C   0  0  0  0  0  0
    4.0229   52.0525    9.5250 F   0  0  0  0  0  0
    1.8541   50.8011   16.6498 H   0  0  0  0  0  0
    0.9833   52.1441   15.9037 H   0  0  0  0  0  0
    1.8168   50.9630   14.9092 H   0  0  0  0  0  0
    4.4088   51.6166   18.0855 H   0  0  0  0  0  0
    3.2349   52.8471   20.0809 H   0  0  0  0  0  0
    3.3467   53.3305   21.9555 H   0  0  0  0  0  0
    3.7691   53.7116   24.2878 H   0  0  0  0  0  0
    7.5044   55.6138   23.3492 H   0  0  0  0  0  0
    7.0994   55.2306   20.9746 H   0  0  0  0  0  0
    6.8196   54.3520   25.8007 H   0  0  0  0  0  0
    6.2801   55.9998   25.5872 H   0  0  0  0  0  0
    3.9360   55.1110   25.9901 H   0  0  0  0  0  0
    3.6043   55.1320   29.8830 H   0  0  0  0  0  0
    2.7745   55.8895   28.5488 H   0  0  0  0  0  0
    1.1567   55.3418   30.3729 H   0  0  0  0  0  0
   -0.4924   54.0524   29.0105 H   0  0  0  0  0  0
    0.3055   55.2696   28.0744 H   0  0  0  0  0  0
    0.2256   53.0633   26.8177 H   0  0  0  0  0  0
    2.1965   54.4958   26.4101 H   0  0  0  0  0  0
    2.6520   52.8133   26.3240 H   0  0  0  0  0  0
    0.1401   51.5650   28.7964 H   0  0  0  0  0  0
    1.4449   51.0851   27.7414 H   0  0  0  0  0  0
    2.1949   51.2257   30.1267 H   0  0  0  0  0  0
    2.3370   53.2934   31.2820 H   0  0  0  0  0  0
    0.6623   52.9527   30.9401 H   0  0  0  0  0  0
    3.9032   51.6975   28.4117 H   0  0  0  0  0  0
    4.1984   52.6447   29.8284 H   0  0  0  0  0  0
    3.9730   50.8776   13.8704 H   0  0  0  0  0  0
    4.3205   50.3680   11.5051 H   0  0  0  0  0  0
    3.3098   54.3929   10.4482 H   0  0  0  0  0  0
    2.9443   54.9318   12.8366 H   0  0  0  0  0  0
  1  2  1  0  0  0
  1 38  1  0  0  0
  1 39  1  0  0  0
  1 40  1  0  0  0
  2  3  1  0  0  0
  2  4  1  0  0  0
  2 30  1  0  0  0
  4  5  2  0  0  0
  4  6  1  0  0  0
  6  7  1  0  0  0
  6 41  1  0  0  0
  7  8  1  0  0  0
  7 42  1  0  0  0
  8  9  2  0  0  0
  8 10  1  0  0  0
 10 15  2  0  0  0
 10 11  1  0  0  0
 11 12  2  0  0  0
 11 43  1  0  0  0
 12 13  1  0  0  0
 12 44  1  0  0  0
 13 14  2  0  0  0
 13 16  1  0  0  0
 14 15  1  0  0  0
 14 45  1  0  0  0
 15 46  1  0  0  0
 16 17  1  0  0  0
 16 47  1  0  0  0
 16 48  1  0  0  0
 17 18  1  0  0  0
 17 49  1  0  0  0
 18 19  2  0  0  0
 18 20  1  0  0  0
 20 25  1  0  0  0
 20 29  1  0  0  0
 20 21  1  0  0  0
 21 22  1  0  0  0
 21 50  1  0  0  0
 21 51  1  0  0  0
 22 28  1  0  0  0
 22 23  1  0  0  0
 22 52  1  0  0  0
 23 24  1  0  0  0
 23 53  1  0  0  0
 23 54  1  0  0  0
 24 25  1  0  0  0
 24 26  1  0  0  0
 24 55  1  0  0  0
 25 56  1  0  0  0
 25 57  1  0  0  0
 26 27  1  0  0  0
 26 58  1  0  0  0
 26 59  1  0  0  0
 27 28  1  0  0  0
 27 29  1  0  0  0
 27 60  1  0  0  0
 28 61  1  0  0  0
 28 62  1  0  0  0
 29 63  1  0  0  0
 29 64  1  0  0  0
 30 31  1  0  0  0
 31 36  2  0  0  0
 31 32  1  0  0  0
 32 33  2  0  0  0
 32 65  1  0  0  0
 33 34  1  0  0  0
 33 66  1  0  0  0
 34 35  2  0  0  0
 34 37  1  0  0  0
 35 36  1  0  0  0
 35 67  1  0  0  0
 36 68  1  0  0  0
M  END
> <i_i_glide_confnum>
275

> <i_i_glide_lignum>
3732

> <i_i_glide_posenum>
322

> <i_i_glide_rotatable_bonds>
11

> <i_m_Source_File_Index>
3745

> <b_m_subgroup_collapsed>
0

> <r_i_docking_score>
-5.56907

> <r_i_glide_ecoul>
-2.19725

> <r_i_glide_eff_state_penalty>
0

> <r_i_glide_einternal>
7.66326

> <r_i_glide_emodel>
-55.2747

> <r_i_glide_energy>
-41.1254

> <r_i_glide_erotb>
0.752642

> <r_i_glide_esite>
-0.152171

> <r_i_glide_evdw>
-38.9282

> <r_i_glide_gscore>
-5.56907

> <r_i_glide_hbond>
-0.16

> <r_i_glide_ligand_efficiency>
-0.154696

> <r_i_glide_ligand_efficiency_ln>
-1.21502

> <r_i_glide_ligand_efficiency_sa>
-0.510796

> <r_i_glide_lipo>
-3.26273

> <r_i_glide_metal>
0

> <r_i_glide_rewards>
-0.47081

> <s_i_glide_gridfile>
wee1_glide-grid

> <s_m_Source_File>
wee1_decoys_glide_SP.sdf

> <s_m_Source_Path>
/Users/zhangxujun/Desktop

> <s_m_entry_id>
4020

> <s_m_entry_name>
wee1_decoys_glide_SP.3745

> <s_m_subgroup_title>
wee1_decoys_glide_SP

> <s_m_subgroupid>
wee1_decoys_glide_SP


$$$$
