ZINC36218194_5506
                    3D
 Schrodinger Suite 2024-2.
 65 69  0  0  1  0            999 V2000
   11.1528   60.0541   16.5527 C   0  0  0  0  0  0
   10.0952   59.2115   17.2415 C   0  0  0  0  0  0
    8.7608   59.6173   17.2227 C   0  0  0  0  0  0
    7.7882   58.8359   17.8383 C   0  0  0  0  0  0
    8.1377   57.6410   18.4818 C   0  0  0  0  0  0
    9.4806   57.2330   18.4815 C   0  0  0  0  0  0
   10.4532   58.0164   17.8663 C   0  0  0  0  0  0
    7.0674   56.8254   19.1690 C   0  0  0  0  0  0
    5.9042   56.8645   18.7635 O   0  0  0  0  0  0
    7.4556   56.1337   20.2675 N   0  0  0  0  0  0
    6.6318   55.2967   21.0350 C   0  0  0  0  0  0
    5.7711   54.3806   20.4212 C   0  0  0  0  0  0
    5.0422   53.4909   21.1995 C   0  0  0  0  0  0
    5.1018   53.5669   22.5893 C   0  0  0  0  0  0
    5.8827   54.5308   23.2331 C   0  0  0  0  0  0
    6.7045   55.3456   22.4350 C   0  0  0  0  0  0
    5.8471   54.7487   24.7656 C   0  0  1  0  0  0
    6.3381   55.7166   24.8902 H   0  0  0  0  0  0
    4.5579   54.8670   25.6226 C   0  0  2  0  0  0
    4.2530   55.9094   25.6817 H   0  0  0  0  0  0
    5.0662   54.4303   26.9331 N   0  0  0  0  0  0
    6.3091   53.8120   26.8116 C   0  0  0  0  0  0
    7.0244   53.2967   27.6676 O   0  0  0  0  0  0
    6.6525   53.8602   25.5034 O   0  0  0  0  0  0
    4.4599   54.6469   28.2607 C   0  0  0  0  0  0
    3.1712   53.9073   28.5753 C   0  0  0  0  0  0
    3.1651   52.5144   28.6546 C   0  0  0  0  0  0
    1.9722   51.8379   28.8956 C   0  0  0  0  0  0
    0.8019   52.5598   29.1137 C   0  0  0  0  0  0
    0.8138   53.9511   29.0837 C   0  0  0  0  0  0
    1.9976   54.6290   28.8088 C   0  0  0  0  0  0
   -0.3562   51.9077   29.3559 F   0  0  0  0  0  0
    3.2934   54.0967   25.1466 C   0  0  0  0  0  0
    2.8892   53.1003   25.7341 O   0  0  0  0  0  0
    2.6367   54.5846   24.0817 N   0  0  0  0  0  0
    1.3726   54.0523   23.5713 C   0  0  0  0  0  0
    1.4270   52.6197   22.9988 C   0  0  0  0  0  0
    0.4137   52.1725   21.9748 C   0  0  0  0  0  0
    1.8663   52.3646   21.5808 C   0  0  0  0  0  0
   11.9731   59.4338   16.1884 H   0  0  0  0  0  0
   10.7371   60.5623   15.6810 H   0  0  0  0  0  0
   11.5542   60.8036   17.2356 H   0  0  0  0  0  0
    8.4643   60.5349   16.7341 H   0  0  0  0  0  0
    6.7612   59.1793   17.8153 H   0  0  0  0  0  0
    9.7892   56.3085   18.9494 H   0  0  0  0  0  0
   11.4824   57.6869   17.8756 H   0  0  0  0  0  0
    8.4088   56.2424   20.5805 H   0  0  0  0  0  0
    5.7086   54.3086   19.3444 H   0  0  0  0  0  0
    4.4271   52.7475   20.7160 H   0  0  0  0  0  0
    4.4913   52.8967   23.1618 H   0  0  0  0  0  0
    7.3658   56.0595   22.9053 H   0  0  0  0  0  0
    4.2517   55.6967   28.3680 H   0  0  0  0  0  0
    5.1740   54.4091   29.0519 H   0  0  0  0  0  0
    4.0776   51.9648   28.4816 H   0  0  0  0  0  0
    1.9474   50.7593   28.8996 H   0  0  0  0  0  0
   -0.0976   54.4966   29.2617 H   0  0  0  0  0  0
    1.9950   55.7087   28.7668 H   0  0  0  0  0  0
    3.0352   55.3656   23.5818 H   0  0  0  0  0  0
    0.5365   54.1650   24.2622 H   0  0  0  0  0  0
    1.1044   54.7258   22.7582 H   0  0  0  0  0  0
    1.6805   51.8826   23.7623 H   0  0  0  0  0  0
    0.0135   51.1609   22.0523 H   0  0  0  0  0  0
   -0.3244   52.8814   21.6040 H   0  0  0  0  0  0
    2.1330   53.2151   20.9522 H   0  0  0  0  0  0
    2.4792   51.4860   21.3768 H   0  0  0  0  0  0
  1  2  1  0  0  0
  1 40  1  0  0  0
  1 41  1  0  0  0
  1 42  1  0  0  0
  2  7  2  0  0  0
  2  3  1  0  0  0
  3  4  2  0  0  0
  3 43  1  0  0  0
  4  5  1  0  0  0
  4 44  1  0  0  0
  5  6  2  0  0  0
  5  8  1  0  0  0
  6  7  1  0  0  0
  6 45  1  0  0  0
  7 46  1  0  0  0
  8  9  2  0  0  0
  8 10  1  0  0  0
 10 11  1  0  0  0
 10 47  1  0  0  0
 11 16  2  0  0  0
 11 12  1  0  0  0
 12 13  2  0  0  0
 12 48  1  0  0  0
 13 14  1  0  0  0
 13 49  1  0  0  0
 14 15  2  0  0  0
 14 50  1  0  0  0
 15 16  1  0  0  0
 15 17  1  0  0  0
 16 51  1  0  0  0
 17 18  1  0  0  0
 17 24  1  0  0  0
 17 19  1  0  0  0
 19 20  1  0  0  0
 19 21  1  0  0  0
 19 33  1  0  0  0
 21 22  1  0  0  0
 21 25  1  0  0  0
 22 23  2  0  0  0
 22 24  1  0  0  0
 25 26  1  0  0  0
 25 52  1  0  0  0
 25 53  1  0  0  0
 26 31  2  0  0  0
 26 27  1  0  0  0
 27 28  2  0  0  0
 27 54  1  0  0  0
 28 29  1  0  0  0
 28 55  1  0  0  0
 29 30  2  0  0  0
 29 32  1  0  0  0
 30 31  1  0  0  0
 30 56  1  0  0  0
 31 57  1  0  0  0
 33 34  2  0  0  0
 33 35  1  0  0  0
 35 36  1  0  0  0
 35 58  1  0  0  0
 36 37  1  0  0  0
 36 59  1  0  0  0
 36 60  1  0  0  0
 37 39  1  0  0  0
 37 38  1  0  0  0
 37 61  1  0  0  0
 38 39  1  0  0  0
 38 62  1  0  0  0
 38 63  1  0  0  0
 39 64  1  0  0  0
 39 65  1  0  0  0
M  END
> <i_i_glide_confnum>
323

> <i_i_glide_lignum>
5507

> <i_i_glide_posenum>
241

> <i_i_glide_rotatable_bonds>
10

> <i_m_Source_File_Index>
4203

> <b_m_subgroup_collapsed>
0

> <r_i_docking_score>
-6.22599

> <r_i_glide_ecoul>
-0.410461

> <r_i_glide_eff_state_penalty>
0

> <r_i_glide_einternal>
13.881

> <r_i_glide_emodel>
-59.148

> <r_i_glide_energy>
-48.2014

> <r_i_glide_erotb>
0.730844

> <r_i_glide_esite>
-0.0499437

> <r_i_glide_evdw>
-47.7909

> <r_i_glide_gscore>
-6.22599

> <r_i_glide_hbond>
0

> <r_i_glide_ligand_efficiency>
-0.16827

> <r_i_glide_ligand_efficiency_ln>
-1.35027

> <r_i_glide_ligand_efficiency_sa>
-0.560713

> <r_i_glide_lipo>
-3.41871

> <r_i_glide_metal>
0

> <r_i_glide_rewards>
-1.03706

> <s_i_glide_gridfile>
wee1_glide-grid

> <s_m_Source_File>
wee1_decoys_glide_SP.sdf

> <s_m_Source_Path>
/Users/zhangxujun/Desktop

> <s_m_entry_id>
4478

> <s_m_entry_name>
wee1_decoys_glide_SP.4203

> <s_m_subgroup_title>
wee1_decoys_glide_SP

> <s_m_subgroupid>
wee1_decoys_glide_SP


$$$$
