ZINC50891939_3593
                    3D
 Schrodinger Suite 2024-2.
 36 38  0  0  1  0            999 V2000
    2.2646   53.6326   23.7045 C   0  0  0  0  0  0
    3.7052   54.0438   23.4046 C   0  0  0  0  0  0
    4.1026   54.0963   22.0652 C   0  0  0  0  0  0
    5.3891   54.4960   21.7221 C   0  0  0  0  0  0
    6.3001   54.8358   22.7161 C   0  0  0  0  0  0
    5.9208   54.8021   24.0586 C   0  0  0  0  0  0
    4.6187   54.3731   24.4290 C   0  0  0  0  0  0
    4.1268   54.2758   25.7592 N   0  0  0  0  0  0
    4.7447   53.8358   26.8798 C   0  0  0  0  0  0
    5.9676   53.6952   26.9810 O   0  0  0  0  0  0
    3.8470   53.4545   28.0464 C   0  0  0  0  0  0
    4.4328   52.9227   29.2102 C   0  0  0  0  0  0
    3.6655   52.4968   30.2926 C   0  0  0  0  0  0
    2.2875   52.6165   30.2027 C   0  0  0  0  0  0
    1.6690   53.1423   29.0874 C   0  0  0  0  0  0
    2.4396   53.5601   27.9981 C   0  0  0  0  0  0
    0.1932   53.0647   29.3110 C   0  0  0  0  0  0
    0.1043   52.5727   30.7661 C   0  0  0  0  0  0
    1.4232   52.2075   31.1806 O   0  0  0  0  0  0
    6.8687   55.2644   24.9660 N   0  0  0  0  0  0
    5.8780   54.6469   19.8900 Br  0  0  0  0  0  0
    2.2411   52.7791   24.3846 H   0  0  0  0  0  0
    1.7295   54.4552   24.1826 H   0  0  0  0  0  0
    1.7201   53.3529   22.8024 H   0  0  0  0  0  0
    3.4025   53.8570   21.2751 H   0  0  0  0  0  0
    7.2884   55.1683   22.4349 H   0  0  0  0  0  0
    3.1250   54.3357   25.8209 H   0  0  0  0  0  0
    5.5048   52.8199   29.2799 H   0  0  0  0  0  0
    4.1429   52.0885   31.1707 H   0  0  0  0  0  0
    1.9345   53.9421   27.1232 H   0  0  0  0  0  0
   -0.3195   54.0199   29.1914 H   0  0  0  0  0  0
   -0.2783   52.3363   28.6482 H   0  0  0  0  0  0
   -0.5966   51.7445   30.8806 H   0  0  0  0  0  0
   -0.2334   53.3894   31.4047 H   0  0  0  0  0  0
    6.8102   54.7652   25.8538 H   0  0  0  0  0  0
    7.7849   55.3896   24.5519 H   0  0  0  0  0  0
  1  2  1  0  0  0
  1 22  1  0  0  0
  1 23  1  0  0  0
  1 24  1  0  0  0
  2  7  2  0  0  0
  2  3  1  0  0  0
  3  4  2  0  0  0
  3 25  1  0  0  0
  4  5  1  0  0  0
  4 21  1  0  0  0
  5  6  2  0  0  0
  5 26  1  0  0  0
  6  7  1  0  0  0
  6 20  1  0  0  0
  7  8  1  0  0  0
  8  9  1  0  0  0
  8 27  1  0  0  0
  9 10  2  0  0  0
  9 11  1  0  0  0
 11 16  2  0  0  0
 11 12  1  0  0  0
 12 13  2  0  0  0
 12 28  1  0  0  0
 13 14  1  0  0  0
 13 29  1  0  0  0
 14 19  1  0  0  0
 14 15  2  0  0  0
 15 16  1  0  0  0
 15 17  1  0  0  0
 16 30  1  0  0  0
 17 18  1  0  0  0
 17 31  1  0  0  0
 17 32  1  0  0  0
 18 19  1  0  0  0
 18 33  1  0  0  0
 18 34  1  0  0  0
 20 35  1  0  0  0
 20 36  1  0  0  0
M  END
> <i_i_glide_confnum>
1

> <i_i_glide_lignum>
3594

> <i_i_glide_posenum>
162

> <i_i_glide_rotatable_bonds>
3

> <i_m_Source_File_Index>
5123

> <b_m_subgroup_collapsed>
0

> <r_i_docking_score>
-6.25538

> <r_i_glide_ecoul>
-2.70852

> <r_i_glide_eff_state_penalty>
0

> <r_i_glide_einternal>
2.63554

> <r_i_glide_emodel>
-54.2814

> <r_i_glide_energy>
-41.0924

> <r_i_glide_erotb>
0.47336

> <r_i_glide_esite>
0

> <r_i_glide_evdw>
-38.3839

> <r_i_glide_gscore>
-6.25538

> <r_i_glide_hbond>
-0.297283

> <r_i_glide_ligand_efficiency>
-0.297875

> <r_i_glide_ligand_efficiency_ln>
-1.54663

> <r_i_glide_ligand_efficiency_sa>
-0.821815

> <r_i_glide_lipo>
-2.77136

> <r_i_glide_metal>
0

> <r_i_glide_rewards>
-1.33462

> <s_i_glide_gridfile>
wee1_glide-grid

> <s_m_Source_File>
wee1_decoys_glide_SP.sdf

> <s_m_Source_Path>
/Users/zhangxujun/Desktop

> <s_m_entry_id>
5398

> <s_m_entry_name>
wee1_decoys_glide_SP.5123

> <s_m_subgroup_title>
wee1_decoys_glide_SP

> <s_m_subgroupid>
wee1_decoys_glide_SP


$$$$
