ZINC20687752_1270
                    3D
 Schrodinger Suite 2024-2.
 63 66  0  0  1  0            999 V2000
    3.3379   51.6545   19.2837 C   0  0  0  0  0  0
    3.1129   52.7027   20.3726 C   0  0  1  0  0  0
    2.7044   53.6047   19.9196 H   0  0  0  0  0  0
    2.1115   52.1411   21.4086 C   0  0  0  0  0  0
    2.5290   51.6919   22.4812 O   0  0  0  0  0  0
    0.8077   52.1795   21.0367 N   0  0  0  0  0  0
   -0.2987   51.7236   21.6742 C   0  0  0  0  0  0
   -1.3984   51.8559   21.1419 O   0  0  0  0  0  0
   -0.1350   51.1194   22.8702 N   0  0  0  0  0  0
   -0.9552   50.0830   23.4979 C   0  0  0  0  0  0
   -2.3875   50.5787   23.8832 C   0  0  0  0  0  0
   -3.1896   49.4655   24.6048 C   0  0  2  0  0  0
   -2.4432   49.0535   25.9000 C   0  0  0  0  0  0
   -1.0307   48.5236   25.5385 C   0  0  2  0  0  0
   -0.2394   49.6336   24.8083 C   0  0  0  0  0  0
   -1.1585   47.2919   24.6111 C   0  0  0  0  0  0
   -1.9040   47.6999   23.3129 C   0  0  1  0  0  0
   -3.3175   48.2324   23.6728 C   0  0  0  0  0  0
   -1.1085   48.8181   22.5918 C   0  0  0  0  0  0
    4.3822   53.2369   21.0998 N   0  3  1  0  0  0
    5.5033   53.5638   20.0816 C   0  0  0  0  0  0
    4.1207   54.4313   22.0571 C   0  0  0  0  0  0
    4.7739   54.3227   23.4303 C   0  0  0  0  0  0
    6.1388   54.5766   23.5806 C   0  0  0  0  0  0
    6.7046   54.6005   24.8489 C   0  0  0  0  0  0
    5.9319   54.3703   25.9846 C   0  0  0  0  0  0
    4.5619   54.1091   25.8327 C   0  0  0  0  0  0
    3.9865   54.0900   24.5609 C   0  0  0  0  0  0
    6.6009   54.4353   27.1927 O   0  0  0  0  0  0
    5.9445   54.0636   28.4042 C   0  0  0  0  0  0
    5.5010   52.8114   28.3824 F   0  0  0  0  0  0
    4.9624   54.8967   28.7423 F   0  0  0  0  0  0
    2.3989   51.2828   18.8675 H   0  0  0  0  0  0
    3.9012   52.0919   18.4572 H   0  0  0  0  0  0
    3.9013   50.8091   19.6824 H   0  0  0  0  0  0
    0.6274   52.5998   20.1383 H   0  0  0  0  0  0
    0.7560   51.2801   23.3211 H   0  0  0  0  0  0
   -2.3212   51.4612   24.5225 H   0  0  0  0  0  0
   -2.9362   50.8978   22.9950 H   0  0  0  0  0  0
   -4.1846   49.8337   24.8592 H   0  0  0  0  0  0
   -3.0041   48.2951   26.4481 H   0  0  0  0  0  0
   -2.3582   49.9036   26.5783 H   0  0  0  0  0  0
   -0.4958   48.2374   26.4465 H   0  0  0  0  0  0
    0.7676   49.2745   24.5865 H   0  0  0  0  0  0
   -0.1108   50.4851   25.4796 H   0  0  0  0  0  0
   -0.1674   46.9014   24.3819 H   0  0  0  0  0  0
   -1.6889   46.4928   25.1282 H   0  0  0  0  0  0
   -1.9946   46.8342   22.6550 H   0  0  0  0  0  0
   -3.9043   47.4571   24.1644 H   0  0  0  0  0  0
   -3.8656   48.4992   22.7679 H   0  0  0  0  0  0
   -1.6147   49.0770   21.6605 H   0  0  0  0  0  0
   -0.1226   48.4533   22.3004 H   0  0  0  0  0  0
    5.0732   54.1953   19.3015 H   0  0  0  0  0  0
    6.3032   54.0960   20.5966 H   0  0  0  0  0  0
    5.8664   52.6204   19.6711 H   0  0  0  0  0  0
    3.0410   54.5719   22.1429 H   0  0  0  0  0  0
    4.4980   55.2967   21.5280 H   0  0  0  0  0  0
    6.7648   54.7916   22.7283 H   0  0  0  0  0  0
    7.7572   54.8104   24.9548 H   0  0  0  0  0  0
    3.9318   53.9259   26.6887 H   0  0  0  0  0  0
    2.9257   53.9051   24.4636 H   0  0  0  0  0  0
    6.6745   54.1055   29.2129 H   0  0  0  0  0  0
    4.7139   52.4740   21.6776 H   0  0  0  0  0  0
  1  2  1  0  0  0
  1 33  1  0  0  0
  1 34  1  0  0  0
  1 35  1  0  0  0
  2  3  1  0  0  0
  2  4  1  0  0  0
  2 20  1  0  0  0
  4  5  2  0  0  0
  4  6  1  0  0  0
  6  7  1  0  0  0
  6 36  1  0  0  0
  7  8  2  0  0  0
  7  9  1  0  0  0
  9 10  1  0  0  0
  9 37  1  0  0  0
 10 15  1  0  0  0
 10 19  1  0  0  0
 10 11  1  0  0  0
 11 12  1  0  0  0
 11 38  1  0  0  0
 11 39  1  0  0  0
 12 18  1  0  0  0
 12 13  1  0  0  0
 12 40  1  0  0  0
 13 14  1  0  0  0
 13 41  1  0  0  0
 13 42  1  0  0  0
 14 15  1  0  0  0
 14 16  1  0  0  0
 14 43  1  0  0  0
 15 44  1  0  0  0
 15 45  1  0  0  0
 16 17  1  0  0  0
 16 46  1  0  0  0
 16 47  1  0  0  0
 17 18  1  0  0  0
 17 19  1  0  0  0
 17 48  1  0  0  0
 18 49  1  0  0  0
 18 50  1  0  0  0
 19 51  1  0  0  0
 19 52  1  0  0  0
 20 21  1  0  0  0
 20 22  1  0  0  0
 20 63  1  0  0  0
 21 53  1  0  0  0
 21 54  1  0  0  0
 21 55  1  0  0  0
 22 23  1  0  0  0
 22 56  1  0  0  0
 22 57  1  0  0  0
 23 28  2  0  0  0
 23 24  1  0  0  0
 24 25  2  0  0  0
 24 58  1  0  0  0
 25 26  1  0  0  0
 25 59  1  0  0  0
 26 27  2  0  0  0
 26 29  1  0  0  0
 27 28  1  0  0  0
 27 60  1  0  0  0
 28 61  1  0  0  0
 29 30  1  0  0  0
 30 31  1  0  0  0
 30 32  1  0  0  0
 30 62  1  0  0  0
M  CHG  1  20   1
M  END
> <i_i_glide_confnum>
197

> <i_i_glide_lignum>
1271

> <i_i_glide_posenum>
276

> <i_i_glide_rotatable_bonds>
10

> <i_m_Source_File_Index>
5537

> <b_m_subgroup_collapsed>
0

> <r_i_docking_score>
-3.54813

> <r_i_glide_ecoul>
-4.74932

> <r_i_glide_eff_state_penalty>
0

> <r_i_glide_einternal>
8.04287

> <r_i_glide_emodel>
-41.111

> <r_i_glide_energy>
-37.7686

> <r_i_glide_erotb>
0.836902

> <r_i_glide_esite>
-0.0175977

> <r_i_glide_evdw>
-33.0193

> <r_i_glide_gscore>
-3.54813

> <r_i_glide_hbond>
0

> <r_i_glide_ligand_efficiency>
-0.114456

> <r_i_glide_ligand_efficiency_ln>
-0.800212

> <r_i_glide_ligand_efficiency_sa>
-0.359549

> <r_i_glide_lipo>
-1.87237

> <r_i_glide_metal>
0

> <r_i_glide_rewards>
-0.131703

> <s_i_glide_gridfile>
wee1_glide-grid

> <s_m_Source_File>
wee1_decoys_glide_SP.sdf

> <s_m_Source_Path>
/Users/zhangxujun/Desktop

> <s_m_entry_id>
5812

> <s_m_entry_name>
wee1_decoys_glide_SP.5537

> <s_m_subgroup_title>
wee1_decoys_glide_SP

> <s_m_subgroupid>
wee1_decoys_glide_SP


$$$$
