ZINC62960037_1716
                    3D
 Schrodinger Suite 2024-2.
 43 45  0  0  1  0            999 V2000
    3.7766   54.2937   23.2534 C   0  0  0  0  0  0
    3.3234   53.6977   22.0784 C   0  0  0  0  0  0
    4.2049   52.9150   21.3303 C   0  0  0  0  0  0
    5.4815   52.7165   21.7285 N   0  0  0  0  0  0
    5.9044   53.2962   22.8816 C   0  0  0  0  0  0
    5.0753   54.0377   23.7074 C   0  0  0  0  0  0
    5.6998   54.6107   25.2876 S   0  0  0  0  0  0
    5.5044   56.0591   25.2817 O   0  0  0  0  0  0
    7.0656   54.1008   25.4439 O   0  0  0  0  0  0
    4.7139   53.8515   26.5852 N   0  0  0  0  0  0
    3.2519   53.6288   26.4484 C   0  0  0  0  0  0
    2.4859   54.4827   27.4488 C   0  0  0  0  0  0
    2.8528   54.1084   28.8927 C   0  0  0  0  0  0
    1.9798   55.0204   29.7894 C   0  0  0  0  0  0
    0.7787   54.1733   30.2097 C   0  0  0  0  0  0
    1.3795   52.7830   30.3932 C   0  0  0  0  0  0
    2.4448   52.6586   29.2920 C   0  0  0  0  0  0
    4.3745   54.3890   29.0526 C   0  0  0  0  0  0
    5.2605   53.6968   27.9682 C   0  0  0  0  0  0
    3.8404   52.2802   20.1348 N   0  0  0  0  0  0
    2.5590   52.4964   19.4844 N   0  0  0  0  0  0
    3.0977   54.9213   23.8043 H   0  0  0  0  0  0
    2.3038   53.8272   21.7640 H   0  0  0  0  0  0
    6.9337   53.1298   23.1605 H   0  0  0  0  0  0
    3.0552   52.5633   26.5592 H   0  0  0  0  0  0
    2.9134   53.8754   25.4601 H   0  0  0  0  0  0
    1.4159   54.3551   27.2816 H   0  0  0  0  0  0
    2.7044   55.5381   27.2817 H   0  0  0  0  0  0
    1.6984   55.9738   29.3369 H   0  0  0  0  0  0
    2.5331   55.3000   30.6752 H   0  0  0  0  0  0
    0.0259   54.1589   29.4193 H   0  0  0  0  0  0
    0.3015   54.5443   31.1177 H   0  0  0  0  0  0
    0.6209   52.0006   30.3297 H   0  0  0  0  0  0
    1.8424   52.7032   31.3791 H   0  0  0  0  0  0
    3.2839   52.0761   29.6752 H   0  0  0  0  0  0
    1.9989   52.1146   28.4577 H   0  0  0  0  0  0
    4.5429   55.4573   28.9876 H   0  0  0  0  0  0
    4.7045   54.1252   30.0567 H   0  0  0  0  0  0
    5.3685   52.6295   28.1616 H   0  0  0  0  0  0
    6.2722   54.1056   27.9903 H   0  0  0  0  0  0
    4.5254   51.8504   19.5133 H   0  0  0  0  0  0
    1.8394   51.9987   19.9906 H   0  0  0  0  0  0
    2.3708   53.4924   19.4264 H   0  0  0  0  0  0
  1  6  2  0  0  0
  1  2  1  0  0  0
  1 22  1  0  0  0
  2  3  2  0  0  0
  2 23  1  0  0  0
  3  4  1  0  0  0
  3 20  1  0  0  0
  4  5  2  0  0  0
  5  6  1  0  0  0
  5 24  1  0  0  0
  6  7  1  0  0  0
  7  8  2  0  0  0
  7  9  2  0  0  0
  7 10  1  0  0  0
 10 19  1  0  0  0
 10 11  1  0  0  0
 11 12  1  0  0  0
 11 25  1  0  0  0
 11 26  1  0  0  0
 12 13  1  0  0  0
 12 27  1  0  0  0
 12 28  1  0  0  0
 13 17  1  0  0  0
 13 14  1  0  0  0
 13 18  1  0  0  0
 14 15  1  0  0  0
 14 29  1  0  0  0
 14 30  1  0  0  0
 15 16  1  0  0  0
 15 31  1  0  0  0
 15 32  1  0  0  0
 16 17  1  0  0  0
 16 33  1  0  0  0
 16 34  1  0  0  0
 17 35  1  0  0  0
 17 36  1  0  0  0
 18 19  1  0  0  0
 18 37  1  0  0  0
 18 38  1  0  0  0
 19 39  1  0  0  0
 19 40  1  0  0  0
 20 21  1  0  0  0
 20 41  1  0  0  0
 21 42  1  0  0  0
 21 43  1  0  0  0
M  END
> <i_i_glide_confnum>
18

> <i_i_glide_lignum>
1717

> <i_i_glide_posenum>
243

> <i_i_glide_rotatable_bonds>
3

> <i_m_Source_File_Index>
4995

> <b_m_subgroup_collapsed>
0

> <r_i_docking_score>
-4.59541

> <r_i_glide_ecoul>
-5.54868

> <r_i_glide_eff_state_penalty>
0

> <r_i_glide_einternal>
5.29306

> <r_i_glide_emodel>
-34.0477

> <r_i_glide_energy>
-33.9415

> <r_i_glide_erotb>
0.384616

> <r_i_glide_esite>
-0.0400246

> <r_i_glide_evdw>
-28.3928

> <r_i_glide_gscore>
-4.59541

> <r_i_glide_hbond>
-0.355383

> <r_i_glide_ligand_efficiency>
-0.218829

> <r_i_glide_ligand_efficiency_ln>
-1.13621

> <r_i_glide_ligand_efficiency_sa>
-0.603733

> <r_i_glide_lipo>
-2.4921

> <r_i_glide_metal>
0

> <r_i_glide_rewards>
0.159422

> <s_i_glide_gridfile>
wee1_glide-grid

> <s_m_Source_File>
wee1_decoys_glide_SP.sdf

> <s_m_Source_Path>
/Users/zhangxujun/Desktop

> <s_m_entry_id>
5270

> <s_m_entry_name>
wee1_decoys_glide_SP.4995

> <s_m_subgroup_title>
wee1_decoys_glide_SP

> <s_m_subgroupid>
wee1_decoys_glide_SP


$$$$
