ZINC01436334_4377
                    3D
 Schrodinger Suite 2024-2.
 57 61  0  0  1  0            999 V2000
   -0.0327   52.0220   18.4099 C   0  0  0  0  0  0
    1.0292   51.1355   17.7019 C   0  0  0  0  0  0
    2.3724   51.8906   17.5262 C   0  0  0  0  0  0
    3.0727   52.1898   18.8789 C   0  0  0  0  0  0
    2.8140   51.4242   19.9860 C   0  0  0  0  0  0
    3.3822   51.7859   21.3845 C   0  0  1  0  0  0
    3.9342   50.9120   21.7350 H   0  0  0  0  0  0
    4.3891   52.9397   21.2851 C   0  0  0  0  0  0
    4.5825   53.6392   20.1483 C   0  0  0  0  0  0
    3.9066   53.3211   18.9601 N   0  0  0  0  0  0
    4.1732   54.0723   17.7883 C   0  0  0  0  0  0
    3.6809   55.3765   17.6667 C   0  0  0  0  0  0
    3.9504   56.1227   16.5211 C   0  0  0  0  0  0
    4.7128   55.5729   15.4902 C   0  0  0  0  0  0
    5.2209   54.2701   15.6017 C   0  0  0  0  0  0
    4.9537   53.5310   16.7603 C   0  0  0  0  0  0
    6.0618   53.6540   14.4831 C   0  0  0  0  0  0
    6.5496   54.5834   13.6570 F   0  0  0  0  0  0
    7.0882   52.9691   14.9896 F   0  0  0  0  0  0
    5.2994   52.8219   13.7749 F   0  0  0  0  0  0
    5.4833   54.6859   20.0961 N   0  0  0  0  0  0
    5.1020   53.3214   22.4647 C   0  0  0  0  0  0
    5.7006   53.7008   23.3789 N   0  0  0  0  0  0
    2.3045   51.9974   22.4673 C   0  0  0  0  0  0
    1.7608   53.2815   22.6898 C   0  0  0  0  0  0
    0.8178   53.5055   23.7010 C   0  0  0  0  0  0
    0.4189   52.4148   24.4661 C   0  0  0  0  0  0
    0.9236   51.1674   24.2535 C   0  0  0  0  0  0
    1.8810   50.9226   23.2764 C   0  0  0  0  0  0
    0.3966   50.3000   25.1561 O   0  0  0  0  0  0
   -0.5981   51.0160   25.8367 C   0  0  0  0  0  0
   -0.4441   52.3753   25.5178 O   0  0  0  0  0  0
    2.0104   50.1742   19.8836 C   0  0  0  0  0  0
    2.0256   49.3052   20.7539 O   0  0  0  0  0  0
    1.3355   49.8749   18.5378 C   0  0  0  0  0  0
    0.5608   50.6604   16.3094 C   0  0  0  0  0  0
   -0.9411   51.4535   18.6143 H   0  0  0  0  0  0
    0.3126   52.4303   19.3612 H   0  0  0  0  0  0
   -0.3158   52.8713   17.7851 H   0  0  0  0  0  0
    2.0930   52.8138   17.0170 H   0  0  0  0  0  0
    3.0848   51.3503   16.8971 H   0  0  0  0  0  0
    3.0990   55.8040   18.4661 H   0  0  0  0  0  0
    3.5698   57.1309   16.4318 H   0  0  0  0  0  0
    4.9071   56.1660   14.6079 H   0  0  0  0  0  0
    5.3429   52.5266   16.8672 H   0  0  0  0  0  0
    5.9998   54.9684   20.9177 H   0  0  0  0  0  0
    5.6782   55.1650   19.2254 H   0  0  0  0  0  0
    2.0749   54.1169   22.0809 H   0  0  0  0  0  0
    0.4289   54.4913   23.8836 H   0  0  0  0  0  0
    2.2955   49.9320   23.1565 H   0  0  0  0  0  0
   -1.5783   50.6714   25.4987 H   0  0  0  0  0  0
   -0.5021   50.8491   26.9126 H   0  0  0  0  0  0
    0.4592   49.2492   18.7070 H   0  0  0  0  0  0
    2.0630   49.2692   17.9897 H   0  0  0  0  0  0
   -0.3628   50.0823   16.3763 H   0  0  0  0  0  0
    0.3704   51.5034   15.6434 H   0  0  0  0  0  0
    1.3079   50.0266   15.8266 H   0  0  0  0  0  0
  1  2  1  0  0  0
  1 37  1  0  0  0
  1 38  1  0  0  0
  1 39  1  0  0  0
  2 35  1  0  0  0
  2  3  1  0  0  0
  2 36  1  0  0  0
  3  4  1  0  0  0
  3 40  1  0  0  0
  3 41  1  0  0  0
  4 10  1  0  0  0
  4  5  2  0  0  0
  5  6  1  0  0  0
  5 33  1  0  0  0
  6  7  1  0  0  0
  6  8  1  0  0  0
  6 24  1  0  0  0
  8  9  2  0  0  0
  8 22  1  0  0  0
  9 10  1  0  0  0
  9 21  1  0  0  0
 10 11  1  0  0  0
 11 16  2  0  0  0
 11 12  1  0  0  0
 12 13  2  0  0  0
 12 42  1  0  0  0
 13 14  1  0  0  0
 13 43  1  0  0  0
 14 15  2  0  0  0
 14 44  1  0  0  0
 15 16  1  0  0  0
 15 17  1  0  0  0
 16 45  1  0  0  0
 17 18  1  0  0  0
 17 19  1  0  0  0
 17 20  1  0  0  0
 21 46  1  0  0  0
 21 47  1  0  0  0
 22 23  3  0  0  0
 24 29  2  0  0  0
 24 25  1  0  0  0
 25 26  2  0  0  0
 25 48  1  0  0  0
 26 27  1  0  0  0
 26 49  1  0  0  0
 27 32  1  0  0  0
 27 28  2  0  0  0
 28 29  1  0  0  0
 28 30  1  0  0  0
 29 50  1  0  0  0
 30 31  1  0  0  0
 31 32  1  0  0  0
 31 51  1  0  0  0
 31 52  1  0  0  0
 33 34  2  0  0  0
 33 35  1  0  0  0
 35 53  1  0  0  0
 35 54  1  0  0  0
 36 55  1  0  0  0
 36 56  1  0  0  0
 36 57  1  0  0  0
M  END
> <i_i_glide_confnum>
7

> <i_i_glide_lignum>
4378

> <i_i_glide_posenum>
154

> <i_i_glide_rotatable_bonds>
4

> <i_m_Source_File_Index>
4806

> <b_m_subgroup_collapsed>
0

> <r_i_docking_score>
-3.10624

> <r_i_glide_ecoul>
-2.18206

> <r_i_glide_eff_state_penalty>
0

> <r_i_glide_einternal>
3.48145

> <r_i_glide_emodel>
-41.1623

> <r_i_glide_energy>
-35.2289

> <r_i_glide_erotb>
0.175027

> <r_i_glide_esite>
-0.106158

> <r_i_glide_evdw>
-33.0468

> <r_i_glide_gscore>
-3.10624

> <r_i_glide_hbond>
0

> <r_i_glide_ligand_efficiency>
-0.0887498

> <r_i_glide_ligand_efficiency_ln>
-0.681889

> <r_i_glide_ligand_efficiency_sa>
-0.290307

> <r_i_glide_lipo>
-0.82509

> <r_i_glide_metal>
0

> <r_i_glide_rewards>
-0.370371

> <s_i_glide_gridfile>
wee1_glide-grid

> <s_m_Source_File>
wee1_decoys_glide_SP.sdf

> <s_m_Source_Path>
/Users/zhangxujun/Desktop

> <s_m_entry_id>
5081

> <s_m_entry_name>
wee1_decoys_glide_SP.4806

> <s_m_subgroup_title>
wee1_decoys_glide_SP

> <s_m_subgroupid>
wee1_decoys_glide_SP


$$$$
