ZINC00716530_4111
                    3D
 Schrodinger Suite 2024-2.
 50 53  0  0  1  0            999 V2000
    6.3073   54.6529   22.8389 C   0  0  0  0  0  0
    6.5687   54.9302   24.1773 C   0  0  0  0  0  0
    5.5923   54.6325   25.1252 C   0  0  0  0  0  0
    4.3475   54.0964   24.7141 C   0  0  0  0  0  0
    4.0712   53.8398   23.3628 C   0  0  0  0  0  0
    5.0723   54.1221   22.4264 C   0  0  0  0  0  0
    4.7866   53.8353   21.0772 N   0  0  0  0  0  0
    5.2488   54.5022   19.9942 C   0  0  0  0  0  0
    5.9383   55.5233   20.0501 O   0  0  0  0  0  0
    4.8523   53.9297   18.6585 C   0  0  0  0  0  0
    3.5142   53.5708   18.4222 C   0  0  0  0  0  0
    3.1218   53.0582   17.1865 C   0  0  0  0  0  0
    4.0582   52.8949   16.1699 C   0  0  0  0  0  0
    5.3939   53.2323   16.3927 C   0  0  0  0  0  0
    5.8021   53.7341   17.6297 C   0  0  0  0  0  0
    7.4936   54.0731   17.8329 Cl  0  0  0  0  0  0
    3.5736   52.2657   14.6393 Cl  0  0  0  0  0  0
    3.3681   53.8289   26.1416 S   0  0  0  0  0  0
    4.7039   54.4032   27.1249 C   0  0  0  0  0  0
    5.7426   54.8205   26.4582 N   0  0  0  0  0  0
    4.6110   54.4932   28.8821 S   0  0  0  0  0  0
    4.0985   52.7866   29.2766 C   0  0  0  0  0  0
    2.6299   52.6407   29.6763 C   0  0  0  0  0  0
    2.3349   52.0967   30.7375 O   0  0  0  0  0  0
    1.7255   53.0879   28.7937 N   0  0  0  0  0  0
    0.2772   52.8906   28.8536 C   0  0  0  0  0  0
   -0.1861   51.5535   28.2174 C   0  0  1  0  0  0
    0.0428   50.7404   28.9032 H   0  0  0  0  0  0
   -1.5948   51.5480   27.6155 C   0  0  0  0  0  0
   -1.5336   50.6238   26.4187 C   0  0  0  0  0  0
   -0.0460   50.3509   26.2296 C   0  0  0  0  0  0
    0.6035   51.3218   27.0447 O   0  0  0  0  0  0
    7.0847   54.8603   22.1188 H   0  0  0  0  0  0
    7.5067   55.3576   24.4748 H   0  0  0  0  0  0
    3.1189   53.4274   23.0618 H   0  0  0  0  0  0
    4.1447   53.0761   20.9020 H   0  0  0  0  0  0
    2.7599   53.6967   19.1887 H   0  0  0  0  0  0
    2.0906   52.7863   17.0172 H   0  0  0  0  0  0
    6.1216   53.0830   15.6083 H   0  0  0  0  0  0
    4.7054   52.4525   30.1144 H   0  0  0  0  0  0
    4.3241   52.0979   28.4616 H   0  0  0  0  0  0
    2.0723   53.5204   27.9498 H   0  0  0  0  0  0
   -0.1753   53.7284   28.3206 H   0  0  0  0  0  0
   -0.0911   52.9600   29.8799 H   0  0  0  0  0  0
   -1.8702   52.5455   27.2790 H   0  0  0  0  0  0
   -2.3428   51.2635   28.3562 H   0  0  0  0  0  0
   -1.9612   51.0979   25.5351 H   0  0  0  0  0  0
   -2.0813   49.6966   26.5909 H   0  0  0  0  0  0
    0.2798   50.4432   25.1923 H   0  0  0  0  0  0
    0.2467   49.3504   26.5558 H   0  0  0  0  0  0
  1  6  2  0  0  0
  1  2  1  0  0  0
  1 33  1  0  0  0
  2  3  2  0  0  0
  2 34  1  0  0  0
  3 20  1  0  0  0
  3  4  1  0  0  0
  4  5  2  0  0  0
  4 18  1  0  0  0
  5  6  1  0  0  0
  5 35  1  0  0  0
  6  7  1  0  0  0
  7  8  1  0  0  0
  7 36  1  0  0  0
  8  9  2  0  0  0
  8 10  1  0  0  0
 10 15  2  0  0  0
 10 11  1  0  0  0
 11 12  2  0  0  0
 11 37  1  0  0  0
 12 13  1  0  0  0
 12 38  1  0  0  0
 13 14  2  0  0  0
 13 17  1  0  0  0
 14 15  1  0  0  0
 14 39  1  0  0  0
 15 16  1  0  0  0
 18 19  1  0  0  0
 19 20  2  0  0  0
 19 21  1  0  0  0
 21 22  1  0  0  0
 22 23  1  0  0  0
 22 40  1  0  0  0
 22 41  1  0  0  0
 23 24  2  0  0  0
 23 25  1  0  0  0
 25 26  1  0  0  0
 25 42  1  0  0  0
 26 27  1  0  0  0
 26 43  1  0  0  0
 26 44  1  0  0  0
 27 28  1  0  0  0
 27 32  1  0  0  0
 27 29  1  0  0  0
 29 30  1  0  0  0
 29 45  1  0  0  0
 29 46  1  0  0  0
 30 31  1  0  0  0
 30 47  1  0  0  0
 30 48  1  0  0  0
 31 32  1  0  0  0
 31 49  1  0  0  0
 31 50  1  0  0  0
M  END
> <i_i_glide_confnum>
38

> <i_i_glide_lignum>
4112

> <i_i_glide_posenum>
222

> <i_i_glide_rotatable_bonds>
9

> <i_m_Source_File_Index>
5451

> <b_m_subgroup_collapsed>
0

> <r_i_docking_score>
-5.77836

> <r_i_glide_ecoul>
-4.79466

> <r_i_glide_eff_state_penalty>
0

> <r_i_glide_einternal>
8.51204

> <r_i_glide_emodel>
-68.1985

> <r_i_glide_energy>
-52.446

> <r_i_glide_erotb>
0.661967

> <r_i_glide_esite>
0

> <r_i_glide_evdw>
-47.6513

> <r_i_glide_gscore>
-5.77836

> <r_i_glide_hbond>
-0.32

> <r_i_glide_ligand_efficiency>
-0.186399

> <r_i_glide_ligand_efficiency_ln>
-1.3032

> <r_i_glide_ligand_efficiency_sa>
-0.58555

> <r_i_glide_lipo>
-2.73114

> <r_i_glide_metal>
0

> <r_i_glide_rewards>
-0.287429

> <s_i_glide_gridfile>
wee1_glide-grid

> <s_m_Source_File>
wee1_decoys_glide_SP.sdf

> <s_m_Source_Path>
/Users/zhangxujun/Desktop

> <s_m_entry_id>
5726

> <s_m_entry_name>
wee1_decoys_glide_SP.5451

> <s_m_subgroup_title>
wee1_decoys_glide_SP

> <s_m_subgroupid>
wee1_decoys_glide_SP


$$$$
