ZINC20876915_2969
                    3D
 Schrodinger Suite 2024-2.
 58 61  0  0  1  0            999 V2000
    0.9238   51.8928   24.0550 C   0  0  0  0  0  0
    1.1053   52.0968   25.4520 O   0  0  0  0  0  0
    0.0648   51.8462   26.3245 C   0  0  0  0  0  0
   -1.2080   51.4236   25.9113 C   0  0  0  0  0  0
   -2.1925   51.1073   26.8495 C   0  0  0  0  0  0
   -1.9410   51.2970   28.2087 C   0  0  0  0  0  0
   -0.7001   51.7683   28.6288 C   0  0  0  0  0  0
    0.3125   52.0074   27.6965 C   0  0  0  0  0  0
    1.5650   52.3586   28.1406 O   0  0  0  0  0  0
    1.8130   53.7560   28.2221 C   0  0  0  0  0  0
    3.1983   54.0281   27.6729 C   0  0  0  0  0  0
    4.2877   54.2040   28.5360 C   0  0  0  0  0  0
    5.5519   54.4960   28.0204 C   0  0  0  0  0  0
    5.7265   54.6111   26.6429 C   0  0  0  0  0  0
    4.6485   54.3743   25.7742 C   0  0  0  0  0  0
    3.3882   54.1008   26.2896 C   0  0  0  0  0  0
    4.7599   54.4968   24.4022 O   0  0  0  0  0  0
    6.1064   54.6222   23.9232 C   0  0  0  0  0  0
    6.9132   55.5466   24.8615 C   0  0  0  0  0  0
    6.9736   54.9579   26.1656 O   0  0  0  0  0  0
   -0.4010   52.0950   30.4817 Br  0  0  0  0  0  0
   -3.5053   50.4856   26.3983 C   0  0  0  0  0  0
   -3.4447   49.0296   26.4816 N   0  0  0  0  0  0
   -2.5638   48.4409   25.4734 C   0  0  0  0  0  0
   -2.3849   46.9255   25.7036 C   0  0  1  0  0  0
   -2.0595   46.7699   26.7365 H   0  0  0  0  0  0
   -3.6417   46.0963   25.4549 C   0  0  0  0  0  0
   -4.2557   46.0970   24.1982 C   0  0  0  0  0  0
   -5.3793   45.3058   23.9709 C   0  0  0  0  0  0
   -5.8821   44.5089   24.9974 C   0  0  0  0  0  0
   -5.2749   44.5010   26.2513 C   0  0  0  0  0  0
   -4.1568   45.2971   26.4823 C   0  0  0  0  0  0
   -1.2959   46.4969   24.9078 O   0  0  0  0  0  0
    1.8542   52.1285   23.5389 H   0  0  0  0  0  0
    0.6776   50.8541   23.8293 H   0  0  0  0  0  0
    0.1487   52.5449   23.6496 H   0  0  0  0  0  0
   -1.4233   51.2650   24.8660 H   0  0  0  0  0  0
   -2.6927   51.0510   28.9440 H   0  0  0  0  0  0
    1.0849   54.3641   27.6797 H   0  0  0  0  0  0
    1.7516   54.0659   29.2666 H   0  0  0  0  0  0
    4.1580   54.1297   29.6051 H   0  0  0  0  0  0
    6.3820   54.6510   28.6901 H   0  0  0  0  0  0
    2.5580   53.9838   25.6117 H   0  0  0  0  0  0
    6.1047   55.0091   22.9047 H   0  0  0  0  0  0
    6.5726   53.6353   23.9025 H   0  0  0  0  0  0
    6.3870   56.4969   24.9283 H   0  0  0  0  0  0
    7.9041   55.7648   24.4826 H   0  0  0  0  0  0
   -3.7713   50.8053   25.3889 H   0  0  0  0  0  0
   -4.3014   50.8394   27.0575 H   0  0  0  0  0  0
   -3.0348   48.7919   27.3905 H   0  0  0  0  0  0
   -1.5759   48.8918   25.5550 H   0  0  0  0  0  0
   -2.9436   48.6414   24.4703 H   0  0  0  0  0  0
   -3.8596   46.7055   23.3990 H   0  0  0  0  0  0
   -5.8594   45.3087   23.0040 H   0  0  0  0  0  0
   -6.7541   43.8942   24.8214 H   0  0  0  0  0  0
   -5.6672   43.8779   27.0418 H   0  0  0  0  0  0
   -3.6885   45.2823   27.4570 H   0  0  0  0  0  0
   -0.4998   46.7338   25.4020 H   0  0  0  0  0  0
  1  2  1  0  0  0
  1 34  1  0  0  0
  1 35  1  0  0  0
  1 36  1  0  0  0
  2  3  1  0  0  0
  3  8  2  0  0  0
  3  4  1  0  0  0
  4  5  2  0  0  0
  4 37  1  0  0  0
  5  6  1  0  0  0
  5 22  1  0  0  0
  6  7  2  0  0  0
  6 38  1  0  0  0
  7  8  1  0  0  0
  7 21  1  0  0  0
  8  9  1  0  0  0
  9 10  1  0  0  0
 10 11  1  0  0  0
 10 39  1  0  0  0
 10 40  1  0  0  0
 11 16  2  0  0  0
 11 12  1  0  0  0
 12 13  2  0  0  0
 12 41  1  0  0  0
 13 14  1  0  0  0
 13 42  1  0  0  0
 14 20  1  0  0  0
 14 15  2  0  0  0
 15 16  1  0  0  0
 15 17  1  0  0  0
 16 43  1  0  0  0
 17 18  1  0  0  0
 18 19  1  0  0  0
 18 44  1  0  0  0
 18 45  1  0  0  0
 19 20  1  0  0  0
 19 46  1  0  0  0
 19 47  1  0  0  0
 22 23  1  0  0  0
 22 48  1  0  0  0
 22 49  1  0  0  0
 23 24  1  0  0  0
 23 50  1  0  0  0
 24 25  1  0  0  0
 24 51  1  0  0  0
 24 52  1  0  0  0
 25 26  1  0  0  0
 25 27  1  0  0  0
 25 33  1  0  0  0
 27 32  2  0  0  0
 27 28  1  0  0  0
 28 29  2  0  0  0
 28 53  1  0  0  0
 29 30  1  0  0  0
 29 54  1  0  0  0
 30 31  2  0  0  0
 30 55  1  0  0  0
 31 32  1  0  0  0
 31 56  1  0  0  0
 32 57  1  0  0  0
 33 58  1  0  0  0
M  END
> <i_i_glide_confnum>
330

> <i_i_glide_lignum>
2970

> <i_i_glide_posenum>
238

> <i_i_glide_rotatable_bonds>
10

> <i_m_Source_File_Index>
5535

> <b_m_subgroup_collapsed>
0

> <r_i_docking_score>
-6.77182

> <r_i_glide_ecoul>
-10.9466

> <r_i_glide_eff_state_penalty>
0

> <r_i_glide_einternal>
5.30391

> <r_i_glide_emodel>
-70.3468

> <r_i_glide_energy>
-49.3819

> <r_i_glide_erotb>
0.570868

> <r_i_glide_esite>
0

> <r_i_glide_evdw>
-38.4353

> <r_i_glide_gscore>
-6.77182

> <r_i_glide_hbond>
-0.738969

> <r_i_glide_ligand_efficiency>
-0.211619

> <r_i_glide_ligand_efficiency_ln>
-1.51639

> <r_i_glide_ligand_efficiency_sa>
-0.671849

> <r_i_glide_lipo>
-2.41496

> <r_i_glide_metal>
0

> <r_i_glide_rewards>
-0.625

> <s_i_glide_gridfile>
wee1_glide-grid

> <s_m_Source_File>
wee1_decoys_glide_SP.sdf

> <s_m_Source_Path>
/Users/zhangxujun/Desktop

> <s_m_entry_id>
5810

> <s_m_entry_name>
wee1_decoys_glide_SP.5535

> <s_m_subgroup_title>
wee1_decoys_glide_SP

> <s_m_subgroupid>
wee1_decoys_glide_SP


$$$$
