ZINC36048484_620
                    3D
 Schrodinger Suite 2024-2.
 70 72  0  0  1  0            999 V2000
    2.5538   49.9618   22.0081 C   0  0  0  0  0  0
    1.6722   50.4805   23.1566 C   0  0  0  0  0  0
    1.0831   51.9173   23.0281 C   0  0  1  0  0  0
    0.1816   51.9006   23.6361 H   0  0  0  0  0  0
    1.9511   53.0889   23.6398 C   0  0  1  0  0  0
    1.4672   54.0398   23.4034 H   0  0  0  0  0  0
    2.1044   53.0603   25.1970 C   0  0  0  0  0  0
    1.0978   52.5514   26.0428 C   0  0  0  0  0  0
    1.2186   52.5091   27.4422 C   0  0  0  0  0  0
    2.3719   53.0174   28.0418 C   0  0  0  0  0  0
    3.3561   53.5816   27.2266 C   0  0  0  0  0  0
    3.2488   53.5941   25.8343 C   0  0  0  0  0  0
    4.4470   54.0766   25.0465 C   0  0  0  0  0  0
    4.1433   54.3749   23.5835 C   0  0  0  0  0  0
    3.3622   53.2030   22.9525 N   0  3  2  0  0  0
    3.2712   53.3572   21.4039 C   0  0  0  0  0  0
    4.4785   53.7210   20.5344 C   0  0  0  0  0  0
    5.1235   54.9475   20.6668 C   0  0  0  0  0  0
    6.1404   55.3339   19.7994 C   0  0  0  0  0  0
    6.4901   54.5027   18.7461 C   0  0  0  0  0  0
    5.8316   53.2957   18.5680 C   0  0  0  0  0  0
    4.8364   52.8968   19.4656 C   0  0  0  0  0  0
    7.4672   54.8726   17.8886 F   0  0  0  0  0  0
    2.4907   52.9102   29.4174 O   0  0  0  0  0  0
    3.7482   53.1725   30.0334 C   0  0  0  0  0  0
    0.2617   51.9726   28.2873 O   0  0  0  0  0  0
   -0.8691   51.2968   27.7457 C   0  0  0  0  0  0
    0.5122   52.2233   21.7045 N   0  0  0  0  0  0
   -0.5930   51.6895   21.1644 C   0  0  0  0  0  0
   -1.5085   51.2026   21.8245 O   0  0  0  0  0  0
   -0.5505   51.7303   19.8219 N   0  0  0  0  0  0
   -1.5046   51.1572   18.8615 C   0  0  0  0  0  0
   -1.6446   49.6269   19.0490 C   0  0  0  0  0  0
   -0.9496   51.4216   17.4467 C   0  0  0  0  0  0
   -2.8908   51.8331   18.9766 C   0  0  0  0  0  0
    2.7879   48.9083   22.1620 H   0  0  0  0  0  0
    2.0555   50.0396   21.0414 H   0  0  0  0  0  0
    3.5018   50.4949   21.9513 H   0  0  0  0  0  0
    2.2357   50.3902   24.0799 H   0  0  0  0  0  0
    0.8393   49.7822   23.2591 H   0  0  0  0  0  0
    0.1862   52.1697   25.6207 H   0  0  0  0  0  0
    4.2586   53.9746   27.6668 H   0  0  0  0  0  0
    5.2154   53.3008   25.1002 H   0  0  0  0  0  0
    4.8844   54.9611   25.5129 H   0  0  0  0  0  0
    5.1199   54.4254   23.1072 H   0  0  0  0  0  0
    3.5682   55.2932   23.4285 H   0  0  0  0  0  0
    2.8799   52.4121   21.0445 H   0  0  0  0  0  0
    2.5044   54.0966   21.2823 H   0  0  0  0  0  0
    4.8353   55.6545   21.4221 H   0  0  0  0  0  0
    6.6356   56.2850   19.9195 H   0  0  0  0  0  0
    6.0904   52.6493   17.7418 H   0  0  0  0  0  0
    4.3145   51.9655   19.2856 H   0  0  0  0  0  0
    3.6987   52.8967   31.0869 H   0  0  0  0  0  0
    4.5475   52.5791   29.5857 H   0  0  0  0  0  0
    4.0097   54.2294   29.9768 H   0  0  0  0  0  0
   -1.4731   50.8971   28.5613 H   0  0  0  0  0  0
   -1.5032   51.9736   27.1717 H   0  0  0  0  0  0
   -0.5708   50.4571   27.1168 H   0  0  0  0  0  0
    1.0326   52.8741   21.1362 H   0  0  0  0  0  0
    0.2547   52.1665   19.3983 H   0  0  0  0  0  0
   -2.2962   49.1892   18.2909 H   0  0  0  0  0  0
   -2.0721   49.3709   20.0182 H   0  0  0  0  0  0
   -0.6794   49.1250   18.9766 H   0  0  0  0  0  0
   -0.8364   52.4891   17.2472 H   0  0  0  0  0  0
    0.0300   50.9612   17.3048 H   0  0  0  0  0  0
   -1.6079   51.0191   16.6753 H   0  0  0  0  0  0
   -2.8250   52.9059   18.7952 H   0  0  0  0  0  0
   -3.5954   51.4251   18.2492 H   0  0  0  0  0  0
   -3.3325   51.6878   19.9633 H   0  0  0  0  0  0
    3.8815   52.3556   23.1274 H   0  0  0  0  0  0
  1  2  1  0  0  0
  1 36  1  0  0  0
  1 37  1  0  0  0
  1 38  1  0  0  0
  2  3  1  0  0  0
  2 39  1  0  0  0
  2 40  1  0  0  0
  3  4  1  0  0  0
  3  5  1  0  0  0
  3 28  1  0  0  0
  5  6  1  0  0  0
  5 15  1  0  0  0
  5  7  1  0  0  0
  7 12  2  0  0  0
  7  8  1  0  0  0
  8  9  2  0  0  0
  8 41  1  0  0  0
  9 10  1  0  0  0
  9 26  1  0  0  0
 10 11  2  0  0  0
 10 24  1  0  0  0
 11 12  1  0  0  0
 11 42  1  0  0  0
 12 13  1  0  0  0
 13 14  1  0  0  0
 13 43  1  0  0  0
 13 44  1  0  0  0
 14 15  1  0  0  0
 14 45  1  0  0  0
 14 46  1  0  0  0
 15 16  1  0  0  0
 15 70  1  0  0  0
 16 17  1  0  0  0
 16 47  1  0  0  0
 16 48  1  0  0  0
 17 22  2  0  0  0
 17 18  1  0  0  0
 18 19  2  0  0  0
 18 49  1  0  0  0
 19 20  1  0  0  0
 19 50  1  0  0  0
 20 21  2  0  0  0
 20 23  1  0  0  0
 21 22  1  0  0  0
 21 51  1  0  0  0
 22 52  1  0  0  0
 24 25  1  0  0  0
 25 53  1  0  0  0
 25 54  1  0  0  0
 25 55  1  0  0  0
 26 27  1  0  0  0
 27 56  1  0  0  0
 27 57  1  0  0  0
 27 58  1  0  0  0
 28 29  1  0  0  0
 28 59  1  0  0  0
 29 30  2  0  0  0
 29 31  1  0  0  0
 31 32  1  0  0  0
 31 60  1  0  0  0
 32 33  1  0  0  0
 32 34  1  0  0  0
 32 35  1  0  0  0
 33 61  1  0  0  0
 33 62  1  0  0  0
 33 63  1  0  0  0
 34 64  1  0  0  0
 34 65  1  0  0  0
 34 66  1  0  0  0
 35 67  1  0  0  0
 35 68  1  0  0  0
 35 69  1  0  0  0
M  CHG  1  15   1
M  END
> <i_i_glide_confnum>
63

> <i_i_glide_lignum>
621

> <i_i_glide_posenum>
330

> <i_i_glide_rotatable_bonds>
10

> <i_m_Source_File_Index>
336

> <b_m_subgroup_collapsed>
0

> <r_i_docking_score>
-3.83335

> <r_i_glide_ecoul>
-2.41426

> <r_i_glide_eff_state_penalty>
0

> <r_i_glide_einternal>
16.969

> <r_i_glide_emodel>
-30.457

> <r_i_glide_energy>
-32.7166

> <r_i_glide_erotb>
0.573855

> <r_i_glide_esite>
-0.0277473

> <r_i_glide_evdw>
-30.3023

> <r_i_glide_gscore>
-3.83335

> <r_i_glide_hbond>
0

> <r_i_glide_ligand_efficiency>
-0.116162

> <r_i_glide_ligand_efficiency_ln>
-0.852516

> <r_i_glide_ligand_efficiency_sa>
-0.372594

> <r_i_glide_lipo>
-2.26218

> <r_i_glide_metal>
0

> <r_i_glide_rewards>
-0.240016

> <s_i_glide_gridfile>
wee1_glide-grid

> <s_m_Source_File>
wee1_decoys_glide_SP.sdf

> <s_m_Source_Path>
/Users/zhangxujun/Desktop

> <s_m_entry_id>
611

> <s_m_entry_name>
wee1_decoys_glide_SP.336

> <s_m_subgroup_title>
wee1_decoys_glide_SP

> <s_m_subgroupid>
wee1_decoys_glide_SP


$$$$
