ZINC32101475_27
                    3D
 Schrodinger Suite 2024-2.
 56 60  0  0  1  0            999 V2000
   -3.5388   52.7330   24.4681 C   0  0  0  0  0  0
   -2.4348   52.2442   23.7783 C   0  0  0  0  0  0
   -1.6046   51.2846   24.3854 C   0  0  0  0  0  0
   -1.9350   50.8551   25.7129 C   0  0  0  0  0  0
   -3.0568   51.3374   26.4025 C   0  0  0  0  0  0
   -3.8547   52.2718   25.7392 C   0  0  0  0  0  0
   -5.2868   52.8757   26.4877 Cl  0  0  0  0  0  0
   -0.9742   49.9372   26.0812 N   0  0  0  0  0  0
   -0.9384   49.4037   26.9512 H   0  0  0  0  0  0
   -0.0730   49.7819   25.0528 C   0  0  0  0  0  0
   -0.4127   50.5771   23.9650 C   0  0  0  0  0  0
    0.2971   50.6455   22.5930 C   0  0  1  0  0  0
    1.0255   49.8402   22.4887 H   0  0  0  0  0  0
   -0.7140   50.5485   21.4049 C   0  0  0  0  0  0
   -1.2806   49.4441   21.2437 O   0  0  0  0  0  0
   -0.9414   51.5625   20.6970 O   0  5  0  0  0  0
    1.1201   51.9630   22.3814 N   0  3  0  0  0  0
    2.5617   51.7197   21.8675 C   0  0  0  0  0  0
    3.3682   53.0436   21.7025 C   0  0  0  0  0  0
    3.2113   54.0332   22.7885 N   0  0  0  0  0  0
    1.7861   54.2732   23.0297 C   0  0  0  0  0  0
    1.0581   53.0127   23.5028 C   0  0  0  0  0  0
    4.1590   54.1743   23.8095 C   0  0  0  0  0  0
    5.5241   54.4599   23.5917 C   0  0  0  0  0  0
    6.3763   54.4859   24.6994 C   0  0  0  0  0  0
    5.8904   54.2636   25.9893 C   0  0  0  0  0  0
    4.5006   54.0919   26.1434 C   0  0  0  0  0  0
    3.6751   54.0262   25.0728 N   0  0  0  0  0  0
    3.8720   53.8987   27.5201 C   0  0  0  0  0  0
    4.8626   53.2776   28.5197 C   0  0  0  0  0  0
    6.1488   54.1132   28.5374 C   0  0  0  0  0  0
    6.8500   54.1181   27.1709 C   0  0  0  0  0  0
    6.0764   54.8335   22.2917 C   0  0  0  0  0  0
    6.5103   55.1451   21.2676 N   0  0  0  0  0  0
   -4.1765   53.4670   24.0040 H   0  0  0  0  0  0
   -2.2259   52.5959   22.7818 H   0  0  0  0  0  0
   -3.3045   50.9900   27.3947 H   0  0  0  0  0  0
    0.7365   49.0685   25.1651 H   0  0  0  0  0  0
    3.0346   51.0120   22.5415 H   0  0  0  0  0  0
    2.4237   51.2533   20.8922 H   0  0  0  0  0  0
    2.9808   53.5606   20.8253 H   0  0  0  0  0  0
    4.4141   52.8208   21.4974 H   0  0  0  0  0  0
    1.6468   55.0854   23.7415 H   0  0  0  0  0  0
    1.3574   54.6000   22.0828 H   0  0  0  0  0  0
    1.4518   52.5681   24.4180 H   0  0  0  0  0  0
    0.0095   53.2675   23.6303 H   0  0  0  0  0  0
    7.4351   54.6532   24.5581 H   0  0  0  0  0  0
    2.9723   53.2857   27.4499 H   0  0  0  0  0  0
    3.5518   54.8739   27.8898 H   0  0  0  0  0  0
    5.0891   52.2453   28.2483 H   0  0  0  0  0  0
    4.4183   53.2470   29.5165 H   0  0  0  0  0  0
    6.8517   53.7383   29.2813 H   0  0  0  0  0  0
    5.9035   55.1356   28.8345 H   0  0  0  0  0  0
    7.5988   54.9045   27.1607 H   0  0  0  0  0  0
    7.3859   53.1741   27.0544 H   0  0  0  0  0  0
    0.6489   52.4163   21.6048 H   0  0  0  0  0  0
  1  6  2  0  0  0
  1  2  1  0  0  0
  1 35  1  0  0  0
  2  3  2  0  0  0
  2 36  1  0  0  0
  3 11  1  0  0  0
  3  4  1  0  0  0
  4  5  2  0  0  0
  4  8  1  0  0  0
  5  6  1  0  0  0
  5 37  1  0  0  0
  6  7  1  0  0  0
  8  9  1  0  0  0
  8 10  1  0  0  0
 10 11  2  0  0  0
 10 38  1  0  0  0
 11 12  1  0  0  0
 12 13  1  0  0  0
 12 14  1  0  0  0
 12 17  1  0  0  0
 14 15  2  0  0  0
 14 16  1  0  0  0
 17 22  1  0  0  0
 17 18  1  0  0  0
 17 56  1  0  0  0
 18 19  1  0  0  0
 18 39  1  0  0  0
 18 40  1  0  0  0
 19 20  1  0  0  0
 19 41  1  0  0  0
 19 42  1  0  0  0
 20 21  1  0  0  0
 20 23  1  0  0  0
 21 22  1  0  0  0
 21 43  1  0  0  0
 21 44  1  0  0  0
 22 45  1  0  0  0
 22 46  1  0  0  0
 23 28  2  0  0  0
 23 24  1  0  0  0
 24 25  2  0  0  0
 24 33  1  0  0  0
 25 26  1  0  0  0
 25 47  1  0  0  0
 26 32  1  0  0  0
 26 27  2  0  0  0
 27 28  1  0  0  0
 27 29  1  0  0  0
 29 30  1  0  0  0
 29 48  1  0  0  0
 29 49  1  0  0  0
 30 31  1  0  0  0
 30 50  1  0  0  0
 30 51  1  0  0  0
 31 32  1  0  0  0
 31 52  1  0  0  0
 31 53  1  0  0  0
 32 54  1  0  0  0
 32 55  1  0  0  0
 33 34  3  0  0  0
M  CHG  2  16  -1  17   1
M  END
> <i_i_glide_confnum>
8

> <i_i_glide_lignum>
28

> <i_i_glide_posenum>
72

> <i_i_glide_rotatable_bonds>
5

> <i_m_Source_File_Index>
952

> <b_m_subgroup_collapsed>
0

> <r_i_docking_score>
-6.49785

> <r_i_glide_ecoul>
-4.49974

> <r_i_glide_eff_state_penalty>
0

> <r_i_glide_einternal>
10.5132

> <r_i_glide_emodel>
-59.0843

> <r_i_glide_energy>
-43.9561

> <r_i_glide_erotb>
0.297051

> <r_i_glide_esite>
-0.0971852

> <r_i_glide_evdw>
-39.4564

> <r_i_glide_gscore>
-6.49785

> <r_i_glide_hbond>
-0.16

> <r_i_glide_ligand_efficiency>
-0.203058

> <r_i_glide_ligand_efficiency_ln>
-1.45504

> <r_i_glide_ligand_efficiency_sa>
-0.644668

> <r_i_glide_lipo>
-2.8926

> <r_i_glide_metal>
0

> <r_i_glide_rewards>
-0.997334

> <s_i_glide_gridfile>
wee1_glide-grid

> <s_m_Source_File>
wee1_decoys_glide_SP.sdf

> <s_m_Source_Path>
/Users/zhangxujun/Desktop

> <s_m_entry_id>
1227

> <s_m_entry_name>
wee1_decoys_glide_SP.952

> <s_m_subgroup_title>
wee1_decoys_glide_SP

> <s_m_subgroupid>
wee1_decoys_glide_SP


$$$$
