ZINC35271286_941
                    3D
 Schrodinger Suite 2024-2.
 80 82  0  0  1  0            999 V2000
    0.4728   54.3874   30.6981 C   0  0  0  0  0  0
    1.4169   54.3045   29.5073 C   0  0  0  0  0  0
    1.4108   53.4143   28.4875 C   0  0  0  0  0  0
    2.4109   53.5162   27.3409 C   0  0  0  0  0  0
    0.4754   52.2723   28.4272 C   0  0  0  0  0  0
    0.0320   51.7135   29.4335 O   0  0  0  0  0  0
    0.1527   51.8897   27.1563 O   0  0  0  0  0  0
   -0.8035   50.8506   26.9114 C   0  0  1  0  0  0
   -0.6113   50.0981   27.6736 H   0  0  0  0  0  0
   -2.2573   51.3688   27.0313 C   0  0  1  0  0  0
   -2.3359   51.9930   27.9215 H   0  0  0  0  0  0
   -2.6166   52.2180   25.7795 C   0  0  1  0  0  0
   -2.0060   53.1214   25.7962 H   0  0  0  0  0  0
   -2.3216   51.5050   24.5676 O   0  0  0  0  0  0
   -0.9572   51.1797   24.4216 C   0  0  1  0  0  0
   -0.3932   52.1112   24.4698 H   0  0  0  0  0  0
   -0.5768   50.1926   25.5340 C   0  0  2  0  0  0
    0.4807   49.9374   25.4302 H   0  0  0  0  0  0
   -1.3807   49.0077   25.4562 O   0  0  0  0  0  0
   -0.9401   47.8794   24.9006 C   0  0  0  0  0  0
    0.1809   47.6902   24.4484 O   0  0  0  0  0  0
   -1.9802   46.7740   24.9013 C   0  0  0  0  0  0
   -0.7248   50.5122   23.2085 O   0  0  0  0  0  0
   -0.7343   51.1641   21.9249 C   0  0  2  0  0  0
   -1.3358   50.1112   20.9598 C   0  0  0  0  0  0
   -0.4465   48.8717   20.7734 C   0  0  0  0  0  0
    0.9252   49.2831   20.2106 C   0  0  1  0  0  0
    0.7379   49.7687   19.2521 H   0  0  0  0  0  0
    1.6660   50.3242   21.1182 C   0  0  2  0  0  0
    0.7175   51.5448   21.4350 C   0  0  2  0  0  0
    0.5476   52.0410   20.4758 H   0  0  0  0  0  0
    1.4402   52.6173   22.3126 C   0  0  0  0  0  0
    2.9049   52.8736   21.9102 C   0  0  0  0  0  0
    3.5258   52.0690   21.0166 C   0  0  0  0  0  0
    2.8965   50.8691   20.3323 C   0  0  0  0  0  0
    3.6242   54.0448   22.6082 C   0  0  0  0  0  0
    3.2871   54.1762   24.1064 C   0  0  0  0  0  0
    5.1569   54.0958   22.4200 C   0  0  0  0  0  0
    2.1756   49.6442   22.4234 C   0  0  0  0  0  0
    1.6988   48.1303   19.9126 O   0  0  0  0  0  0
   -1.7024   52.3781   21.9163 C   0  0  0  0  0  0
   -4.0820   52.6786   25.7322 C   0  0  0  0  0  0
   -3.1652   50.3019   27.2828 O   0  0  0  0  0  0
    0.2919   55.4343   30.9498 H   0  0  0  0  0  0
    0.9120   53.8926   31.5650 H   0  0  0  0  0  0
   -0.4953   53.9190   30.4993 H   0  0  0  0  0  0
    2.1575   55.0908   29.4866 H   0  0  0  0  0  0
    2.9440   52.5728   27.1960 H   0  0  0  0  0  0
    1.8807   53.7632   26.4204 H   0  0  0  0  0  0
    3.1565   54.2946   27.5125 H   0  0  0  0  0  0
   -2.9646   47.1865   24.6855 H   0  0  0  0  0  0
   -1.7303   46.0300   24.1475 H   0  0  0  0  0  0
   -2.0033   46.3002   25.8823 H   0  0  0  0  0  0
   -2.3239   49.8058   21.3105 H   0  0  0  0  0  0
   -1.5160   50.5635   19.9833 H   0  0  0  0  0  0
   -0.3311   48.3595   21.7305 H   0  0  0  0  0  0
   -0.9290   48.1564   20.1057 H   0  0  0  0  0  0
    0.9067   53.5676   22.2947 H   0  0  0  0  0  0
    1.4397   52.3061   23.3555 H   0  0  0  0  0  0
    4.5491   52.2785   20.7503 H   0  0  0  0  0  0
    3.6487   50.0966   20.1815 H   0  0  0  0  0  0
    2.6064   51.2255   19.3431 H   0  0  0  0  0  0
    3.2240   54.9378   22.1257 H   0  0  0  0  0  0
    2.2338   54.4123   24.2523 H   0  0  0  0  0  0
    3.5062   53.2506   24.6373 H   0  0  0  0  0  0
    3.8602   54.9690   24.5874 H   0  0  0  0  0  0
    5.4290   54.2665   21.3778 H   0  0  0  0  0  0
    5.6136   54.8964   23.0003 H   0  0  0  0  0  0
    5.6230   53.1641   22.7438 H   0  0  0  0  0  0
    2.7041   50.3286   23.0824 H   0  0  0  0  0  0
    1.3580   49.2312   22.9999 H   0  0  0  0  0  0
    2.8540   48.8172   22.2073 H   0  0  0  0  0  0
    2.4839   48.4092   19.4348 H   0  0  0  0  0  0
   -1.6812   52.8899   20.9578 H   0  0  0  0  0  0
   -2.7342   52.0676   22.0922 H   0  0  0  0  0  0
   -1.4680   53.1023   22.6938 H   0  0  0  0  0  0
   -4.3551   53.2243   26.6316 H   0  0  0  0  0  0
   -4.2562   53.3334   24.8786 H   0  0  0  0  0  0
   -4.7588   51.8296   25.6369 H   0  0  0  0  0  0
   -2.6989   49.6179   27.7921 H   0  0  0  0  0  0
  1  2  1  0  0  0
  1 44  1  0  0  0
  1 45  1  0  0  0
  1 46  1  0  0  0
  2  3  2  0  0  0
  2 47  1  0  0  0
  3  4  1  0  0  0
  3  5  1  0  0  0
  4 48  1  0  0  0
  4 49  1  0  0  0
  4 50  1  0  0  0
  5  6  2  0  0  0
  5  7  1  0  0  0
  7  8  1  0  0  0
  8  9  1  0  0  0
  8 17  1  0  0  0
  8 10  1  0  0  0
 10 11  1  0  0  0
 10 12  1  0  0  0
 10 43  1  0  0  0
 12 13  1  0  0  0
 12 14  1  0  0  0
 12 42  1  0  0  0
 14 15  1  0  0  0
 15 16  1  0  0  0
 15 17  1  0  0  0
 15 23  1  0  0  0
 17 18  1  0  0  0
 17 19  1  0  0  0
 19 20  1  0  0  0
 20 21  2  0  0  0
 20 22  1  0  0  0
 22 51  1  0  0  0
 22 52  1  0  0  0
 22 53  1  0  0  0
 23 24  1  0  0  0
 24 30  1  0  0  0
 24 25  1  0  0  0
 24 41  1  0  0  0
 25 26  1  0  0  0
 25 54  1  0  0  0
 25 55  1  0  0  0
 26 27  1  0  0  0
 26 56  1  0  0  0
 26 57  1  0  0  0
 27 28  1  0  0  0
 27 29  1  0  0  0
 27 40  1  0  0  0
 29 35  1  0  0  0
 29 30  1  0  0  0
 29 39  1  0  0  0
 30 31  1  0  0  0
 30 32  1  0  0  0
 32 33  1  0  0  0
 32 58  1  0  0  0
 32 59  1  0  0  0
 33 34  2  0  0  0
 33 36  1  0  0  0
 34 35  1  0  0  0
 34 60  1  0  0  0
 35 61  1  0  0  0
 35 62  1  0  0  0
 36 37  1  0  0  0
 36 38  1  0  0  0
 36 63  1  0  0  0
 37 64  1  0  0  0
 37 65  1  0  0  0
 37 66  1  0  0  0
 38 67  1  0  0  0
 38 68  1  0  0  0
 38 69  1  0  0  0
 39 70  1  0  0  0
 39 71  1  0  0  0
 39 72  1  0  0  0
 40 73  1  0  0  0
 41 74  1  0  0  0
 41 75  1  0  0  0
 41 76  1  0  0  0
 42 77  1  0  0  0
 42 78  1  0  0  0
 42 79  1  0  0  0
 43 80  1  0  0  0
M  END
> <i_i_glide_confnum>
48

> <i_i_glide_lignum>
942

> <i_i_glide_posenum>
319

> <i_i_glide_rotatable_bonds>
10

> <i_m_Source_File_Index>
2162

> <b_m_subgroup_collapsed>
0

> <r_i_docking_score>
-4.00038

> <r_i_glide_ecoul>
-3.43558

> <r_i_glide_eff_state_penalty>
0

> <r_i_glide_einternal>
11.051

> <r_i_glide_emodel>
-44.2211

> <r_i_glide_energy>
-39.2511

> <r_i_glide_erotb>
0.474832

> <r_i_glide_esite>
-0.0769489

> <r_i_glide_evdw>
-35.8155

> <r_i_glide_gscore>
-4.00038

> <r_i_glide_hbond>
-0.0210752

> <r_i_glide_ligand_efficiency>
-0.111122

> <r_i_glide_ligand_efficiency_ln>
-0.872774

> <r_i_glide_ligand_efficiency_sa>
-0.366915

> <r_i_glide_lipo>
-1.91287

> <r_i_glide_metal>
0

> <r_i_glide_rewards>
-0.158203

> <s_i_glide_gridfile>
wee1_glide-grid

> <s_m_Source_File>
wee1_decoys_glide_SP.sdf

> <s_m_Source_Path>
/Users/zhangxujun/Desktop

> <s_m_entry_id>
2437

> <s_m_entry_name>
wee1_decoys_glide_SP.2162

> <s_m_subgroup_title>
wee1_decoys_glide_SP

> <s_m_subgroupid>
wee1_decoys_glide_SP


$$$$
