ZINC67133247_1564
                    3D
 Schrodinger Suite 2024-2.
 44 47  0  0  1  0            999 V2000
    2.5148   54.0702   24.8751 C   0  0  0  0  0  0
    3.7717   54.1876   25.7263 C   0  0  0  0  0  0
    5.1400   54.2534   25.3697 C   0  0  0  0  0  0
    5.8632   54.3637   26.4727 N   0  0  0  0  0  0
    5.0249   54.4050   27.5633 N   0  0  0  0  0  0
    3.7684   54.2786   27.1148 N   0  0  0  0  0  0
    2.7035   54.2822   28.0661 C   0  0  0  0  0  0
    2.6807   55.3080   29.0198 C   0  0  0  0  0  0
    1.6935   55.3906   29.9934 C   0  0  0  0  0  0
    0.7063   54.4191   30.0762 C   0  0  0  0  0  0
    0.6840   53.3499   29.1525 C   0  0  0  0  0  0
    1.6859   53.2703   28.1289 C   0  0  0  0  0  0
    1.6844   52.2303   27.2476 N   0  0  0  0  0  0
    0.7037   51.2970   27.3113 C   0  0  0  0  0  0
   -0.3014   51.3167   28.2666 C   0  0  0  0  0  0
   -0.3082   52.3381   29.2105 C   0  0  0  0  0  0
    5.7392   54.1039   24.0515 C   0  0  0  0  0  0
    6.8979   53.6978   23.9178 O   0  0  0  0  0  0
    4.9156   54.3935   23.0178 N   0  0  0  0  0  0
    5.3236   54.2714   21.6781 N   0  0  0  0  0  0
    6.1899   55.1475   21.1116 C   0  0  0  0  0  0
    6.7043   56.0968   21.7012 O   0  0  0  0  0  0
    6.5040   54.8961   19.6549 C   0  0  0  0  0  0
    5.5573   54.2961   18.8050 C   0  0  0  0  0  0
    5.8695   54.0181   17.4750 C   0  0  0  0  0  0
    7.1265   54.3390   16.9714 C   0  0  0  0  0  0
    8.0697   54.9487   17.7951 C   0  0  0  0  0  0
    7.7659   55.2261   19.1273 C   0  0  0  0  0  0
    8.7217   55.7954   19.8953 F   0  0  0  0  0  0
    2.5038   53.1367   24.3126 H   0  0  0  0  0  0
    1.5883   54.0991   25.4462 H   0  0  0  0  0  0
    2.4370   54.8842   24.1534 H   0  0  0  0  0  0
    3.4390   56.0735   29.0079 H   0  0  0  0  0  0
    1.7062   56.2082   30.7002 H   0  0  0  0  0  0
   -0.0530   54.4746   30.8433 H   0  0  0  0  0  0
    0.7373   50.5046   26.5771 H   0  0  0  0  0  0
   -1.0513   50.5374   28.2847 H   0  0  0  0  0  0
   -1.0646   52.3602   29.9820 H   0  0  0  0  0  0
    4.0237   54.8554   23.1203 H   0  0  0  0  0  0
    5.1963   53.3344   21.3265 H   0  0  0  0  0  0
    4.5734   54.0277   19.1632 H   0  0  0  0  0  0
    5.1375   53.5405   16.8395 H   0  0  0  0  0  0
    7.3687   54.1180   15.9429 H   0  0  0  0  0  0
    9.0450   55.2007   17.4051 H   0  0  0  0  0  0
  1  2  1  0  0  0
  1 30  1  0  0  0
  1 31  1  0  0  0
  1 32  1  0  0  0
  2  6  1  0  0  0
  2  3  2  0  0  0
  3  4  1  0  0  0
  3 17  1  0  0  0
  4  5  2  0  0  0
  5  6  1  0  0  0
  6  7  1  0  0  0
  7 12  2  0  0  0
  7  8  1  0  0  0
  8  9  2  0  0  0
  8 33  1  0  0  0
  9 10  1  0  0  0
  9 34  1  0  0  0
 10 11  2  0  0  0
 10 35  1  0  0  0
 11 16  1  0  0  0
 11 12  1  0  0  0
 12 13  1  0  0  0
 13 14  2  0  0  0
 14 15  1  0  0  0
 14 36  1  0  0  0
 15 16  2  0  0  0
 15 37  1  0  0  0
 16 38  1  0  0  0
 17 18  2  0  0  0
 17 19  1  0  0  0
 19 20  1  0  0  0
 19 39  1  0  0  0
 20 21  1  0  0  0
 20 40  1  0  0  0
 21 22  2  0  0  0
 21 23  1  0  0  0
 23 28  2  0  0  0
 23 24  1  0  0  0
 24 25  2  0  0  0
 24 41  1  0  0  0
 25 26  1  0  0  0
 25 42  1  0  0  0
 26 27  2  0  0  0
 26 43  1  0  0  0
 27 28  1  0  0  0
 27 44  1  0  0  0
 28 29  1  0  0  0
M  END
> <i_i_glide_confnum>
20

> <i_i_glide_lignum>
1565

> <i_i_glide_posenum>
87

> <i_i_glide_rotatable_bonds>
6

> <i_m_Source_File_Index>
5338

> <b_m_subgroup_collapsed>
0

> <r_i_docking_score>
-6.45242

> <r_i_glide_ecoul>
-2.90364

> <r_i_glide_eff_state_penalty>
0

> <r_i_glide_einternal>
6.36449

> <r_i_glide_emodel>
-65.8135

> <r_i_glide_energy>
-47.5429

> <r_i_glide_erotb>
0.639933

> <r_i_glide_esite>
0

> <r_i_glide_evdw>
-44.6393

> <r_i_glide_gscore>
-6.45242

> <r_i_glide_hbond>
0

> <r_i_glide_ligand_efficiency>
-0.222497

> <r_i_glide_ligand_efficiency_ln>
-1.47744

> <r_i_glide_ligand_efficiency_sa>
-0.683582

> <r_i_glide_lipo>
-2.53318

> <r_i_glide_metal>
0

> <r_i_glide_rewards>
-1.89166

> <s_i_glide_gridfile>
wee1_glide-grid

> <s_m_Source_File>
wee1_decoys_glide_SP.sdf

> <s_m_Source_Path>
/Users/zhangxujun/Desktop

> <s_m_entry_id>
5613

> <s_m_entry_name>
wee1_decoys_glide_SP.5338

> <s_m_subgroup_title>
wee1_decoys_glide_SP

> <s_m_subgroupid>
wee1_decoys_glide_SP


$$$$
