ZINC03198766_2955
                    3D
 Schrodinger Suite 2024-2.
 64 68  0  0  1  0            999 V2000
   -6.0653   51.0633   31.0999 C   0  0  0  0  0  0
   -5.7019   49.6948   30.5391 C   0  0  0  0  0  0
   -6.0880   48.5749   31.2820 C   0  0  0  0  0  0
   -5.7196   47.2945   30.8811 C   0  0  0  0  0  0
   -4.9707   47.1172   29.7222 C   0  0  0  0  0  0
   -4.6023   48.2182   28.9596 C   0  0  0  0  0  0
   -4.9517   49.5232   29.3483 C   0  0  0  0  0  0
   -4.5422   50.6853   28.4670 C   0  0  0  0  0  0
   -5.2965   51.6529   28.3302 O   0  0  0  0  0  0
   -3.3199   50.5555   27.8891 N   0  0  0  0  0  0
   -2.6809   51.2487   26.8947 C   0  0  0  0  0  0
   -3.3257   52.4964   25.9529 S   0  0  0  0  0  0
   -1.3962   50.7955   26.7822 N   0  0  0  0  0  0
   -0.3558   51.4708   26.1720 C   0  0  0  0  0  0
    0.1020   51.3594   24.8726 C   0  0  0  0  0  0
    1.1763   52.2457   24.7678 C   0  0  0  0  0  0
    1.3770   52.8610   25.9139 N   0  0  0  0  0  0
    0.4740   52.3897   26.7973 N   0  0  0  0  0  0
    0.5022   52.8610   28.1467 C   0  0  0  0  0  0
   -0.0487   52.1001   29.1883 C   0  0  0  0  0  0
   -0.0485   52.5812   30.4918 C   0  0  0  0  0  0
    0.5205   53.8196   30.7739 C   0  0  0  0  0  0
    1.1035   54.5779   29.7624 C   0  0  0  0  0  0
    1.0952   54.1000   28.4549 C   0  0  0  0  0  0
    2.0393   52.4727   23.6059 C   0  0  0  0  0  0
    2.1060   51.6528   22.4819 C   0  0  0  0  0  0
    3.1128   52.1004   21.6471 C   0  0  0  0  0  0
    3.6492   53.2489   22.2161 N   0  0  0  0  0  0
    2.9866   53.4827   23.4204 C   0  0  0  0  0  0
    3.3014   54.6497   24.3452 C   0  0  0  0  0  0
    4.6994   54.0326   21.6646 C   0  0  0  0  0  0
    5.8289   54.3610   22.4276 C   0  0  0  0  0  0
    6.8037   55.2033   21.8958 C   0  0  0  0  0  0
    6.6775   55.6713   20.5906 C   0  0  0  0  0  0
    5.5859   55.3015   19.8079 C   0  0  0  0  0  0
    4.5931   54.4922   20.3459 C   0  0  0  0  0  0
    7.6186   56.4964   20.0802 F   0  0  0  0  0  0
    3.6205   51.4855   20.3572 C   0  0  0  0  0  0
   -5.1817   51.6964   31.0944 H   0  0  0  0  0  0
   -6.8418   51.5393   30.4995 H   0  0  0  0  0  0
   -6.3999   51.0117   32.1367 H   0  0  0  0  0  0
   -6.6487   48.6922   32.1980 H   0  0  0  0  0  0
   -6.0044   46.4447   31.4815 H   0  0  0  0  0  0
   -4.6632   46.1317   29.4082 H   0  0  0  0  0  0
   -4.0241   48.0370   28.0637 H   0  0  0  0  0  0
   -2.8178   49.7296   28.2013 H   0  0  0  0  0  0
   -1.1990   49.8660   27.1384 H   0  0  0  0  0  0
   -0.2951   50.7166   24.1014 H   0  0  0  0  0  0
   -0.4754   51.1223   29.0275 H   0  0  0  0  0  0
   -0.4959   51.9931   31.2814 H   0  0  0  0  0  0
    0.5090   54.1917   31.7872 H   0  0  0  0  0  0
    1.5431   55.5365   29.9904 H   0  0  0  0  0  0
    1.5376   54.7133   27.6832 H   0  0  0  0  0  0
    1.5088   50.7687   22.3127 H   0  0  0  0  0  0
    3.5843   54.3034   25.3403 H   0  0  0  0  0  0
    4.1062   55.2965   24.0175 H   0  0  0  0  0  0
    2.4301   55.2910   24.4676 H   0  0  0  0  0  0
    5.9401   53.9980   23.4406 H   0  0  0  0  0  0
    7.6652   55.4849   22.4843 H   0  0  0  0  0  0
    5.4990   55.6676   18.7959 H   0  0  0  0  0  0
    3.7269   54.2574   19.7435 H   0  0  0  0  0  0
    3.2222   50.4832   20.2025 H   0  0  0  0  0  0
    3.3396   52.0652   19.4755 H   0  0  0  0  0  0
    4.7078   51.3917   20.3457 H   0  0  0  0  0  0
  1  2  1  0  0  0
  1 39  1  0  0  0
  1 40  1  0  0  0
  1 41  1  0  0  0
  2  7  2  0  0  0
  2  3  1  0  0  0
  3  4  2  0  0  0
  3 42  1  0  0  0
  4  5  1  0  0  0
  4 43  1  0  0  0
  5  6  2  0  0  0
  5 44  1  0  0  0
  6  7  1  0  0  0
  6 45  1  0  0  0
  7  8  1  0  0  0
  8  9  2  0  0  0
  8 10  1  0  0  0
 10 11  1  0  0  0
 10 46  1  0  0  0
 11 12  2  0  0  0
 11 13  1  0  0  0
 13 14  1  0  0  0
 13 47  1  0  0  0
 14 18  1  0  0  0
 14 15  2  0  0  0
 15 16  1  0  0  0
 15 48  1  0  0  0
 16 17  2  0  0  0
 16 25  1  0  0  0
 17 18  1  0  0  0
 18 19  1  0  0  0
 19 24  2  0  0  0
 19 20  1  0  0  0
 20 21  2  0  0  0
 20 49  1  0  0  0
 21 22  1  0  0  0
 21 50  1  0  0  0
 22 23  2  0  0  0
 22 51  1  0  0  0
 23 24  1  0  0  0
 23 52  1  0  0  0
 24 53  1  0  0  0
 25 29  2  0  0  0
 25 26  1  0  0  0
 26 27  2  0  0  0
 26 54  1  0  0  0
 27 28  1  0  0  0
 27 38  1  0  0  0
 28 29  1  0  0  0
 28 31  1  0  0  0
 29 30  1  0  0  0
 30 55  1  0  0  0
 30 56  1  0  0  0
 30 57  1  0  0  0
 31 36  2  0  0  0
 31 32  1  0  0  0
 32 33  2  0  0  0
 32 58  1  0  0  0
 33 34  1  0  0  0
 33 59  1  0  0  0
 34 35  2  0  0  0
 34 37  1  0  0  0
 35 36  1  0  0  0
 35 60  1  0  0  0
 36 61  1  0  0  0
 38 62  1  0  0  0
 38 63  1  0  0  0
 38 64  1  0  0  0
M  END
> <i_i_glide_confnum>
54

> <i_i_glide_lignum>
2956

> <i_i_glide_posenum>
322

> <i_i_glide_rotatable_bonds>
8

> <i_m_Source_File_Index>
2936

> <b_m_subgroup_collapsed>
0

> <r_i_docking_score>
-4.22058

> <r_i_glide_ecoul>
-8.39844

> <r_i_glide_eff_state_penalty>
0

> <r_i_glide_einternal>
3.40994

> <r_i_glide_emodel>
-65.0625

> <r_i_glide_energy>
-56.7211

> <r_i_glide_erotb>
0.600223

> <r_i_glide_esite>
-0.325452

> <r_i_glide_evdw>
-48.3226

> <r_i_glide_gscore>
-4.22058

> <r_i_glide_hbond>
-0.304

> <r_i_glide_ligand_efficiency>
-0.111068

> <r_i_glide_ligand_efficiency_ln>
-0.910081

> <r_i_glide_ligand_efficiency_sa>
-0.373408

> <r_i_glide_lipo>
-2.28058

> <r_i_glide_metal>
0

> <r_i_glide_rewards>
1.76512

> <s_i_glide_gridfile>
wee1_glide-grid

> <s_m_Source_File>
wee1_decoys_glide_SP.sdf

> <s_m_Source_Path>
/Users/zhangxujun/Desktop

> <s_m_entry_id>
3211

> <s_m_entry_name>
wee1_decoys_glide_SP.2936

> <s_m_subgroup_title>
wee1_decoys_glide_SP

> <s_m_subgroupid>
wee1_decoys_glide_SP


$$$$
