ZINC14271244_3523
                    3D
 Schrodinger Suite 2024-2.
 57 60  0  0  1  0            999 V2000
    7.2900   53.7967   28.2178 C   0  0  0  0  0  0
    5.9154   54.0821   28.0479 O   0  0  0  0  0  0
    5.4054   54.1895   26.7678 C   0  0  0  0  0  0
    6.2124   54.3310   25.6252 C   0  0  0  0  0  0
    5.6477   54.3555   24.3262 C   0  0  0  0  0  0
    6.4369   54.4990   23.1597 C   0  0  0  0  0  0
    5.8431   54.4966   21.8994 C   0  0  0  0  0  0
    4.4701   54.3170   21.7633 C   0  0  0  0  0  0
    3.6641   54.1865   22.8886 C   0  0  0  0  0  0
    4.2378   54.2297   24.1847 C   0  0  0  0  0  0
    3.4448   54.1587   25.3445 C   0  0  0  0  0  0
    4.0119   54.1384   26.6245 C   0  0  0  0  0  0
    3.1207   54.0018   27.8341 C   0  0  0  0  0  0
    3.1751   54.8179   28.7591 O   0  0  0  0  0  0
    2.3141   52.9189   27.7655 N   0  0  0  0  0  0
    1.2695   52.4728   28.5352 C   0  0  0  0  0  0
    0.9482   52.8697   30.1253 S   0  0  0  0  0  0
    0.4426   51.5707   27.9230 N   0  0  0  0  0  0
    0.3123   51.2861   26.5464 C   0  0  0  0  0  0
    0.0285   49.9828   26.1447 C   0  0  0  0  0  0
   -0.0830   49.6759   24.7878 C   0  0  0  0  0  0
    0.0804   50.6763   23.8227 C   0  0  0  0  0  0
    0.3302   51.9926   24.2324 C   0  0  0  0  0  0
    0.4511   52.2871   25.5808 C   0  0  0  0  0  0
   -0.0585   50.3045   22.4717 N   0  0  0  0  0  0
    0.3435   50.9782   21.3696 C   0  0  0  0  0  0
    0.9896   52.0255   21.3824 O   0  0  0  0  0  0
   -0.0355   50.3589   20.0194 C   0  0  0  0  0  0
   -0.8962   51.3074   19.1867 C   0  0  0  0  0  0
   -0.2902   52.3061   18.4152 C   0  0  0  0  0  0
   -1.0745   53.1767   17.6646 C   0  0  0  0  0  0
   -2.4628   53.0574   17.6945 C   0  0  0  0  0  0
   -3.0740   52.0783   18.4755 C   0  0  0  0  0  0
   -2.2913   51.2028   19.2238 C   0  0  0  0  0  0
    7.5140   53.6971   29.2794 H   0  0  0  0  0  0
    7.5504   52.8555   27.7311 H   0  0  0  0  0  0
    7.9106   54.5970   27.8224 H   0  0  0  0  0  0
    7.2843   54.3995   25.7037 H   0  0  0  0  0  0
    7.5046   54.6120   23.2554 H   0  0  0  0  0  0
    6.4517   54.6174   21.0159 H   0  0  0  0  0  0
    4.0214   54.3010   20.7805 H   0  0  0  0  0  0
    2.5951   54.0708   22.7698 H   0  0  0  0  0  0
    2.3805   54.1364   25.2020 H   0  0  0  0  0  0
    2.4746   52.3604   26.9411 H   0  0  0  0  0  0
   -0.2350   51.1109   28.5177 H   0  0  0  0  0  0
   -0.0948   49.2017   26.8807 H   0  0  0  0  0  0
   -0.2861   48.6550   24.4993 H   0  0  0  0  0  0
    0.4272   52.8073   23.5308 H   0  0  0  0  0  0
    0.6807   53.2962   25.8740 H   0  0  0  0  0  0
   -0.4703   49.3976   22.3228 H   0  0  0  0  0  0
   -0.5584   49.4131   20.1626 H   0  0  0  0  0  0
    0.8840   50.1245   19.4805 H   0  0  0  0  0  0
    0.7856   52.4044   18.4010 H   0  0  0  0  0  0
   -0.6068   53.9449   17.0656 H   0  0  0  0  0  0
   -3.0701   53.7302   17.1087 H   0  0  0  0  0  0
   -4.1503   51.9915   18.4909 H   0  0  0  0  0  0
   -2.7691   50.4433   19.8256 H   0  0  0  0  0  0
  1  2  1  0  0  0
  1 35  1  0  0  0
  1 36  1  0  0  0
  1 37  1  0  0  0
  2  3  1  0  0  0
  3 12  2  0  0  0
  3  4  1  0  0  0
  4  5  2  0  0  0
  4 38  1  0  0  0
  5 10  1  0  0  0
  5  6  1  0  0  0
  6  7  2  0  0  0
  6 39  1  0  0  0
  7  8  1  0  0  0
  7 40  1  0  0  0
  8  9  2  0  0  0
  8 41  1  0  0  0
  9 10  1  0  0  0
  9 42  1  0  0  0
 10 11  2  0  0  0
 11 12  1  0  0  0
 11 43  1  0  0  0
 12 13  1  0  0  0
 13 14  2  0  0  0
 13 15  1  0  0  0
 15 16  1  0  0  0
 15 44  1  0  0  0
 16 17  2  0  0  0
 16 18  1  0  0  0
 18 19  1  0  0  0
 18 45  1  0  0  0
 19 24  2  0  0  0
 19 20  1  0  0  0
 20 21  2  0  0  0
 20 46  1  0  0  0
 21 22  1  0  0  0
 21 47  1  0  0  0
 22 23  2  0  0  0
 22 25  1  0  0  0
 23 24  1  0  0  0
 23 48  1  0  0  0
 24 49  1  0  0  0
 25 26  1  0  0  0
 25 50  1  0  0  0
 26 27  2  0  0  0
 26 28  1  0  0  0
 28 29  1  0  0  0
 28 51  1  0  0  0
 28 52  1  0  0  0
 29 34  2  0  0  0
 29 30  1  0  0  0
 30 31  2  0  0  0
 30 53  1  0  0  0
 31 32  1  0  0  0
 31 54  1  0  0  0
 32 33  2  0  0  0
 32 55  1  0  0  0
 33 34  1  0  0  0
 33 56  1  0  0  0
 34 57  1  0  0  0
M  END
> <i_i_glide_confnum>
62

> <i_i_glide_lignum>
3524

> <i_i_glide_posenum>
56

> <i_i_glide_rotatable_bonds>
10

> <i_m_Source_File_Index>
115

> <b_m_subgroup_collapsed>
0

> <r_i_docking_score>
-5.85157

> <r_i_glide_ecoul>
-3.48113

> <r_i_glide_eff_state_penalty>
0

> <r_i_glide_einternal>
5.85093

> <r_i_glide_emodel>
-71.8439

> <r_i_glide_energy>
-53.6087

> <r_i_glide_erotb>
0.732879

> <r_i_glide_esite>
-0.00412588

> <r_i_glide_evdw>
-50.1275

> <r_i_glide_gscore>
-5.85157

> <r_i_glide_hbond>
0

> <r_i_glide_ligand_efficiency>
-0.172105

> <r_i_glide_ligand_efficiency_ln>
-1.29278

> <r_i_glide_ligand_efficiency_sa>
-0.557554

> <r_i_glide_lipo>
-2.66461

> <r_i_glide_metal>
0

> <r_i_glide_rewards>
-0.887169

> <s_i_glide_gridfile>
wee1_glide-grid

> <s_m_Source_File>
wee1_decoys_glide_SP.sdf

> <s_m_Source_Path>
/Users/zhangxujun/Desktop

> <s_m_entry_id>
390

> <s_m_entry_name>
wee1_decoys_glide_SP.115

> <s_m_subgroup_title>
wee1_decoys_glide_SP

> <s_m_subgroupid>
wee1_decoys_glide_SP


$$$$
