ZINC22921522_4982
                    3D
 Schrodinger Suite 2024-2.
 68 72  0  0  1  0            999 V2000
    3.4589   54.4020   22.8351 C   0  0  0  0  0  0
    4.1791   54.3454   21.6456 C   0  0  0  0  0  0
    4.1464   53.1915   20.8704 C   0  0  0  0  0  0
    3.4025   52.0897   21.2796 C   0  0  0  0  0  0
    2.7017   52.1418   22.4841 C   0  0  0  0  0  0
    2.7351   53.2970   23.2925 C   0  0  0  0  0  0
    2.0370   53.3906   24.6831 C   0  0  0  0  0  0
    2.9947   53.7027   25.8829 C   0  0  0  0  0  0
    4.3929   53.6970   25.7389 C   0  0  0  0  0  0
    5.2344   54.0086   26.8032 C   0  0  0  0  0  0
    4.6907   54.3565   28.0320 C   0  0  0  0  0  0
    3.3133   54.4178   28.1949 C   0  0  0  0  0  0
    2.4783   54.1027   27.1265 C   0  0  0  0  0  0
    5.5027   54.6561   29.0671 F   0  0  0  0  0  0
    1.0312   52.2984   24.8781 N   0  0  0  0  0  0
    0.6515   51.9338   26.2590 C   0  0  0  0  0  0
   -0.3256   50.7463   26.3317 C   0  0  0  0  0  0
   -1.5773   51.1159   25.5066 N   0  3  0  0  0  0
   -1.1502   51.3443   24.0429 C   0  0  0  0  0  0
   -0.1466   52.5198   24.0090 C   0  0  0  0  0  0
   -2.6743   50.0325   25.6599 C   0  0  0  0  0  0
   -3.5409   50.3698   26.8831 C   0  0  0  0  0  0
   -3.6709   51.5424   27.2418 O   0  0  0  0  0  0
   -4.0957   49.2967   27.4800 N   0  0  0  0  0  0
   -4.8566   49.2201   28.6436 C   0  0  0  0  0  0
   -5.2683   48.0248   29.2673 C   0  0  0  0  0  0
   -6.1676   48.2779   30.3367 C   0  0  0  0  0  0
   -6.2985   49.6471   30.6152 C   0  0  0  0  0  0
   -5.4039   50.6287   29.5123 S   0  0  0  0  0  0
   -7.0811   50.2377   31.7780 C   0  0  0  0  0  0
   -8.1031   49.1945   32.2730 C   0  0  0  0  0  0
   -7.4523   47.8168   32.4817 C   0  0  0  0  0  0
   -6.8786   47.2156   31.1842 C   0  0  0  0  0  0
   -4.9382   46.6844   28.8090 C   0  0  0  0  0  0
   -5.7331   45.7501   28.8683 O   0  0  0  0  0  0
   -3.6955   46.4966   28.3590 N   0  0  0  0  0  0
    4.8470   53.1412   19.7159 F   0  0  0  0  0  0
    3.4984   55.2964   23.4353 H   0  0  0  0  0  0
    4.7564   55.1946   21.3141 H   0  0  0  0  0  0
    3.3827   51.1981   20.6689 H   0  0  0  0  0  0
    2.1593   51.2620   22.8015 H   0  0  0  0  0  0
    1.4524   54.3095   24.6060 H   0  0  0  0  0  0
    4.8589   53.4067   24.8099 H   0  0  0  0  0  0
    6.3062   53.9653   26.6814 H   0  0  0  0  0  0
    2.8947   54.7259   29.1412 H   0  0  0  0  0  0
    1.4208   54.2339   27.2764 H   0  0  0  0  0  0
    0.1144   52.7791   26.6876 H   0  0  0  0  0  0
    1.5249   51.6882   26.8625 H   0  0  0  0  0  0
   -0.6635   50.5971   27.3593 H   0  0  0  0  0  0
    0.0950   49.8140   25.9461 H   0  0  0  0  0  0
   -0.7378   50.4088   23.6524 H   0  0  0  0  0  0
   -2.0587   51.6129   23.4987 H   0  0  0  0  0  0
    0.1370   52.7145   22.9733 H   0  0  0  0  0  0
   -0.6666   53.3970   24.3986 H   0  0  0  0  0  0
   -2.1896   49.0547   25.7023 H   0  0  0  0  0  0
   -3.2960   50.0873   24.7657 H   0  0  0  0  0  0
   -3.8478   48.3963   27.0987 H   0  0  0  0  0  0
   -7.5878   51.1606   31.4935 H   0  0  0  0  0  0
   -6.3952   50.4907   32.5892 H   0  0  0  0  0  0
   -8.9199   49.1078   31.5555 H   0  0  0  0  0  0
   -8.5554   49.5446   33.2015 H   0  0  0  0  0  0
   -8.1831   47.1158   32.8807 H   0  0  0  0  0  0
   -6.6586   47.9016   33.2277 H   0  0  0  0  0  0
   -6.2073   46.3944   31.4414 H   0  0  0  0  0  0
   -7.6854   46.7712   30.6012 H   0  0  0  0  0  0
   -3.3942   45.5572   28.1321 H   0  0  0  0  0  0
   -2.9863   47.2221   28.4810 H   0  0  0  0  0  0
   -1.9784   51.9723   25.8704 H   0  0  0  0  0  0
  1  6  2  0  0  0
  1  2  1  0  0  0
  1 38  1  0  0  0
  2  3  2  0  0  0
  2 39  1  0  0  0
  3  4  1  0  0  0
  3 37  1  0  0  0
  4  5  2  0  0  0
  4 40  1  0  0  0
  5  6  1  0  0  0
  5 41  1  0  0  0
  6  7  1  0  0  0
  7  8  1  0  0  0
  7 15  1  0  0  0
  7 42  1  0  0  0
  8 13  2  0  0  0
  8  9  1  0  0  0
  9 10  2  0  0  0
  9 43  1  0  0  0
 10 11  1  0  0  0
 10 44  1  0  0  0
 11 12  2  0  0  0
 11 14  1  0  0  0
 12 13  1  0  0  0
 12 45  1  0  0  0
 13 46  1  0  0  0
 15 20  1  0  0  0
 15 16  1  0  0  0
 16 17  1  0  0  0
 16 47  1  0  0  0
 16 48  1  0  0  0
 17 18  1  0  0  0
 17 49  1  0  0  0
 17 50  1  0  0  0
 18 19  1  0  0  0
 18 21  1  0  0  0
 18 68  1  0  0  0
 19 20  1  0  0  0
 19 51  1  0  0  0
 19 52  1  0  0  0
 20 53  1  0  0  0
 20 54  1  0  0  0
 21 22  1  0  0  0
 21 55  1  0  0  0
 21 56  1  0  0  0
 22 23  2  0  0  0
 22 24  1  0  0  0
 24 25  1  0  0  0
 24 57  1  0  0  0
 25 29  1  0  0  0
 25 26  2  0  0  0
 26 27  1  0  0  0
 26 34  1  0  0  0
 27 33  1  0  0  0
 27 28  2  0  0  0
 28 29  1  0  0  0
 28 30  1  0  0  0
 30 31  1  0  0  0
 30 58  1  0  0  0
 30 59  1  0  0  0
 31 32  1  0  0  0
 31 60  1  0  0  0
 31 61  1  0  0  0
 32 33  1  0  0  0
 32 62  1  0  0  0
 32 63  1  0  0  0
 33 64  1  0  0  0
 33 65  1  0  0  0
 34 35  2  0  0  0
 34 36  1  0  0  0
 36 66  1  0  0  0
 36 67  1  0  0  0
M  CHG  1  18   1
M  END
> <i_i_glide_confnum>
102

> <i_i_glide_lignum>
4983

> <i_i_glide_posenum>
6

> <i_i_glide_rotatable_bonds>
8

> <i_m_Source_File_Index>
2129

> <b_m_subgroup_collapsed>
0

> <r_i_docking_score>
-5.77702

> <r_i_glide_ecoul>
-8.97652

> <r_i_glide_eff_state_penalty>
0

> <r_i_glide_einternal>
14.3353

> <r_i_glide_emodel>
-55.2552

> <r_i_glide_energy>
-44.2681

> <r_i_glide_erotb>
0.521507

> <r_i_glide_esite>
-0.455257

> <r_i_glide_evdw>
-35.2916

> <r_i_glide_gscore>
-5.77702

> <r_i_glide_hbond>
-0.373908

> <r_i_glide_ligand_efficiency>
-0.156136

> <r_i_glide_ligand_efficiency_ln>
-1.2529

> <r_i_glide_ligand_efficiency_sa>
-0.520278

> <r_i_glide_lipo>
-2.31257

> <r_i_glide_metal>
0

> <r_i_glide_rewards>
-0.0457319

> <s_i_glide_gridfile>
wee1_glide-grid

> <s_m_Source_File>
wee1_decoys_glide_SP.sdf

> <s_m_Source_Path>
/Users/zhangxujun/Desktop

> <s_m_entry_id>
2404

> <s_m_entry_name>
wee1_decoys_glide_SP.2129

> <s_m_subgroup_title>
wee1_decoys_glide_SP

> <s_m_subgroupid>
wee1_decoys_glide_SP


$$$$
