ZINC39631834_373
                    3D
 Schrodinger Suite 2024-2.
 78 81  0  0  1  0            999 V2000
   -1.1844   47.7126   18.9307 C   0  0  0  0  0  0
    0.2311   48.2964   18.7631 C   0  0  1  0  0  0
    0.9337   47.6142   19.2532 H   0  0  0  0  0  0
    0.6952   48.4003   17.2937 C   0  0  0  0  0  0
    0.7291   47.0541   16.5450 C   0  0  0  0  0  0
    1.3897   47.1477   15.1529 C   0  0  0  0  0  0
    1.3790   45.8416   14.3160 C   0  0  0  0  0  0
    2.1079   44.6902   15.0367 C   0  0  0  0  0  0
   -0.0489   45.3983   13.9397 C   0  0  0  0  0  0
    2.0652   46.0972   13.1109 O   0  0  0  0  0  0
    0.3148   49.6068   19.4085 N   0  0  0  0  0  0
    0.6902   49.8140   20.6813 C   0  0  0  0  0  0
    0.9736   48.8967   21.4484 O   0  0  0  0  0  0
    0.6978   51.2751   21.1757 C   0  0  1  0  0  0
   -0.0978   51.8213   20.6653 H   0  0  0  0  0  0
    0.4313   51.2900   22.6962 C   0  0  0  0  0  0
    1.0918   52.5142   23.1479 N   0  0  0  0  0  0
    1.9176   53.1052   22.0915 C   0  0  0  0  0  0
    2.0558   52.0053   21.0043 C   0  0  0  0  0  0
    3.3085   51.1125   21.2875 C   0  0  0  0  0  0
    4.6245   51.9175   21.1920 C   0  0  0  0  0  0
    4.7248   52.4968   19.7610 N   0  3  0  0  0  0
    3.5045   53.3627   19.3770 C   0  0  0  0  0  0
    2.2434   52.4986   19.5455 C   0  0  0  0  0  0
    1.0444   53.0287   24.4054 C   0  0  0  0  0  0
    1.7319   53.9942   24.7363 O   0  0  0  0  0  0
    0.0977   52.4130   25.4151 C   0  0  0  0  0  0
   -1.2671   52.2548   25.1220 C   0  0  0  0  0  0
   -2.1282   51.6852   26.0610 C   0  0  0  0  0  0
   -1.6052   51.2966   27.2927 C   0  0  0  0  0  0
   -0.3057   51.4774   27.6244 N   0  0  0  0  0  0
    0.5207   52.0428   26.7074 C   0  0  0  0  0  0
    1.7989   52.2643   27.1622 O   0  0  0  0  0  0
    2.0832   53.3814   27.9254 C   0  0  0  0  0  0
    3.4286   53.6305   28.2003 C   0  0  0  0  0  0
    3.8009   54.7900   28.8756 C   0  0  0  0  0  0
    2.8209   55.6965   29.2728 C   0  0  0  0  0  0
    1.4772   55.4346   29.0613 C   0  0  0  0  0  0
    1.1048   54.2744   28.3932 C   0  0  0  0  0  0
   -1.2567   46.7113   18.5092 H   0  0  0  0  0  0
   -1.4615   47.6358   19.9824 H   0  0  0  0  0  0
   -1.9276   48.3240   18.4193 H   0  0  0  0  0  0
    1.7017   48.8279   17.2771 H   0  0  0  0  0  0
    0.0649   49.1074   16.7515 H   0  0  0  0  0  0
   -0.2886   46.6792   16.4403 H   0  0  0  0  0  0
    1.2677   46.3261   17.1527 H   0  0  0  0  0  0
    2.4222   47.4802   15.2843 H   0  0  0  0  0  0
    0.9014   47.9404   14.5817 H   0  0  0  0  0  0
    1.5660   44.3598   15.9227 H   0  0  0  0  0  0
    3.1043   44.9962   15.3592 H   0  0  0  0  0  0
    2.2226   43.8180   14.3922 H   0  0  0  0  0  0
   -0.6311   45.1123   14.8148 H   0  0  0  0  0  0
   -0.5915   46.1966   13.4320 H   0  0  0  0  0  0
   -0.0408   44.5362   13.2710 H   0  0  0  0  0  0
    1.9029   45.3624   12.5144 H   0  0  0  0  0  0
    0.1277   50.4053   18.8197 H   0  0  0  0  0  0
   -0.6357   51.2253   22.8964 H   0  0  0  0  0  0
    0.9639   50.4844   23.2084 H   0  0  0  0  0  0
    2.8614   53.5431   22.4106 H   0  0  0  0  0  0
    1.3161   53.9125   21.6842 H   0  0  0  0  0  0
    3.2297   50.6780   22.2853 H   0  0  0  0  0  0
    3.3578   50.2571   20.6130 H   0  0  0  0  0  0
    4.6974   52.7543   21.8857 H   0  0  0  0  0  0
    5.5039   51.2965   21.3342 H   0  0  0  0  0  0
    5.5718   53.0393   19.6572 H   0  0  0  0  0  0
    3.5052   54.2447   20.0198 H   0  0  0  0  0  0
    3.6610   53.6678   18.3409 H   0  0  0  0  0  0
    2.2546   51.6611   18.8444 H   0  0  0  0  0  0
    1.3865   53.1048   19.2516 H   0  0  0  0  0  0
   -1.6721   52.5795   24.1749 H   0  0  0  0  0  0
   -3.1730   51.5370   25.8357 H   0  0  0  0  0  0
   -2.2241   50.8126   28.0380 H   0  0  0  0  0  0
    4.1836   52.9417   27.8494 H   0  0  0  0  0  0
    4.8454   55.0078   29.0408 H   0  0  0  0  0  0
    3.1044   56.6502   29.6822 H   0  0  0  0  0  0
    0.7321   56.1481   29.3808 H   0  0  0  0  0  0
    0.0549   54.1012   28.2077 H   0  0  0  0  0  0
    4.8074   51.7232   19.0941 H   0  0  0  0  0  0
  1  2  1  0  0  0
  1 40  1  0  0  0
  1 41  1  0  0  0
  1 42  1  0  0  0
  2  3  1  0  0  0
  2  4  1  0  0  0
  2 11  1  0  0  0
  4  5  1  0  0  0
  4 43  1  0  0  0
  4 44  1  0  0  0
  5  6  1  0  0  0
  5 45  1  0  0  0
  5 46  1  0  0  0
  6  7  1  0  0  0
  6 47  1  0  0  0
  6 48  1  0  0  0
  7  8  1  0  0  0
  7  9  1  0  0  0
  7 10  1  0  0  0
  8 49  1  0  0  0
  8 50  1  0  0  0
  8 51  1  0  0  0
  9 52  1  0  0  0
  9 53  1  0  0  0
  9 54  1  0  0  0
 10 55  1  0  0  0
 11 12  1  0  0  0
 11 56  1  0  0  0
 12 13  2  0  0  0
 12 14  1  0  0  0
 14 15  1  0  0  0
 14 19  1  0  0  0
 14 16  1  0  0  0
 16 17  1  0  0  0
 16 57  1  0  0  0
 16 58  1  0  0  0
 17 18  1  0  0  0
 17 25  1  0  0  0
 18 19  1  0  0  0
 18 59  1  0  0  0
 18 60  1  0  0  0
 19 24  1  0  0  0
 19 20  1  0  0  0
 20 21  1  0  0  0
 20 61  1  0  0  0
 20 62  1  0  0  0
 21 22  1  0  0  0
 21 63  1  0  0  0
 21 64  1  0  0  0
 22 23  1  0  0  0
 22 65  1  0  0  0
 22 78  1  0  0  0
 23 24  1  0  0  0
 23 66  1  0  0  0
 23 67  1  0  0  0
 24 68  1  0  0  0
 24 69  1  0  0  0
 25 26  2  0  0  0
 25 27  1  0  0  0
 27 32  2  0  0  0
 27 28  1  0  0  0
 28 29  2  0  0  0
 28 70  1  0  0  0
 29 30  1  0  0  0
 29 71  1  0  0  0
 30 31  2  0  0  0
 30 72  1  0  0  0
 31 32  1  0  0  0
 32 33  1  0  0  0
 33 34  1  0  0  0
 34 39  2  0  0  0
 34 35  1  0  0  0
 35 36  2  0  0  0
 35 73  1  0  0  0
 36 37  1  0  0  0
 36 74  1  0  0  0
 37 38  2  0  0  0
 37 75  1  0  0  0
 38 39  1  0  0  0
 38 76  1  0  0  0
 39 77  1  0  0  0
M  CHG  1  22   1
M  END
> <i_i_glide_confnum>
46

> <i_i_glide_lignum>
374

> <i_i_glide_posenum>
325

> <i_i_glide_rotatable_bonds>
12

> <i_m_Source_File_Index>
5617

> <b_m_subgroup_collapsed>
0

> <r_i_docking_score>
-4.7093

> <r_i_glide_ecoul>
-6.97929

> <r_i_glide_eff_state_penalty>
0

> <r_i_glide_einternal>
7.09753

> <r_i_glide_emodel>
-52.3494

> <r_i_glide_energy>
-40.662

> <r_i_glide_erotb>
0.867342

> <r_i_glide_esite>
-0.0830011

> <r_i_glide_evdw>
-33.6828

> <r_i_glide_gscore>
-4.7093

> <r_i_glide_hbond>
-0.52

> <r_i_glide_ligand_efficiency>
-0.127278

> <r_i_glide_ligand_efficiency_ln>
-1.02134

> <r_i_glide_ligand_efficiency_sa>
-0.42412

> <r_i_glide_lipo>
-1.81277

> <r_i_glide_metal>
0

> <r_i_glide_rewards>
-0.429841

> <s_i_glide_gridfile>
wee1_glide-grid

> <s_m_Source_File>
wee1_decoys_glide_SP.sdf

> <s_m_Source_Path>
/Users/zhangxujun/Desktop

> <s_m_entry_id>
5892

> <s_m_entry_name>
wee1_decoys_glide_SP.5617

> <s_m_subgroup_title>
wee1_decoys_glide_SP

> <s_m_subgroupid>
wee1_decoys_glide_SP


$$$$
