ZINC36643278_5703
                    3D
 Schrodinger Suite 2024-2.
 69 71  0  0  1  0            999 V2000
    1.4227   56.4679   16.7802 C   0  0  0  0  0  0
    2.2627   55.1795   16.7817 C   0  0  0  0  0  0
    3.2148   55.0454   15.5696 C   0  0  0  0  0  0
    4.5920   55.5718   15.7991 N   0  0  0  0  0  0
    4.6892   57.0169   16.1419 C   0  0  0  0  0  0
    6.0140   57.6886   15.7461 C   0  0  0  0  0  0
    5.9887   59.1763   16.0812 C   0  0  0  0  0  0
    5.7944   54.4211   16.4542 S   0  0  0  0  0  0
    7.1463   54.9610   16.2759 O   0  0  0  0  0  0
    5.4791   53.0901   15.9208 O   0  0  0  0  0  0
    5.5009   54.3761   18.2221 C   0  0  0  0  0  0
    5.9919   55.3851   19.0501 C   0  0  0  0  0  0
    5.8134   55.2945   20.4297 C   0  0  0  0  0  0
    5.1481   54.1951   20.9946 C   0  0  0  0  0  0
    4.6722   53.1870   20.1477 C   0  0  0  0  0  0
    4.8211   53.2948   18.7714 C   0  0  0  0  0  0
    5.1160   54.0530   22.5024 C   0  0  0  0  0  0
    6.2231   53.9572   23.0342 O   0  0  0  0  0  0
    3.9153   54.0594   23.1841 N   0  0  0  0  0  0
    2.6566   53.6963   22.4759 C   0  0  0  0  0  0
    2.3372   52.1756   22.3614 C   0  0  0  0  0  0
    1.4501   51.5609   23.4690 C   0  0  0  0  0  0
    1.2777   50.0305   23.2797 N   0  3  0  0  0  0
    0.5501   49.3915   24.4864 C   0  0  0  0  0  0
    0.5743   49.6432   21.9583 C   0  0  0  0  0  0
    3.8493   54.0937   24.6071 C   0  0  0  0  0  0
    2.7430   53.8233   25.2564 N   0  0  0  0  0  0
    2.9298   53.7240   26.5964 C   0  0  0  0  0  0
    1.9439   53.3204   27.5084 C   0  0  0  0  0  0
    2.3005   53.1928   28.8521 C   0  0  0  0  0  0
    3.5954   53.4735   29.2886 C   0  0  0  0  0  0
    4.5797   53.9195   28.4058 C   0  0  0  0  0  0
    4.2364   54.0303   27.0511 C   0  0  0  0  0  0
    5.2134   54.4974   25.6721 S   0  0  0  0  0  0
    3.9033   53.2939   30.5892 F   0  0  0  0  0  0
    0.7087   56.4649   17.6043 H   0  0  0  0  0  0
    2.0302   57.3661   16.8821 H   0  0  0  0  0  0
    0.8517   56.5620   15.8558 H   0  0  0  0  0  0
    1.5701   54.3361   16.7616 H   0  0  0  0  0  0
    2.8046   55.0886   17.7232 H   0  0  0  0  0  0
    2.8011   55.5237   14.6819 H   0  0  0  0  0  0
    3.3001   53.9902   15.3102 H   0  0  0  0  0  0
    3.8786   57.5350   15.6254 H   0  0  0  0  0  0
    4.5012   57.1259   17.2114 H   0  0  0  0  0  0
    6.8577   57.2771   16.2945 H   0  0  0  0  0  0
    6.2096   57.5509   14.6817 H   0  0  0  0  0  0
    6.9262   59.6672   15.8186 H   0  0  0  0  0  0
    5.1839   59.6955   15.5609 H   0  0  0  0  0  0
    5.8349   59.2968   17.1535 H   0  0  0  0  0  0
    6.5328   56.2212   18.6284 H   0  0  0  0  0  0
    6.2278   56.0685   21.0605 H   0  0  0  0  0  0
    4.2218   52.2849   20.5245 H   0  0  0  0  0  0
    4.4634   52.4966   18.1368 H   0  0  0  0  0  0
    1.8103   54.2290   22.9129 H   0  0  0  0  0  0
    2.6999   54.0984   21.4651 H   0  0  0  0  0  0
    1.8157   52.0510   21.4130 H   0  0  0  0  0  0
    3.2518   51.5940   22.2826 H   0  0  0  0  0  0
    1.9037   51.6399   24.4544 H   0  0  0  0  0  0
    0.4493   51.9934   23.5000 H   0  0  0  0  0  0
   -0.4656   49.7894   24.5255 H   0  0  0  0  0  0
    0.5494   48.3096   24.3439 H   0  0  0  0  0  0
    1.1039   49.6377   25.3930 H   0  0  0  0  0  0
   -0.3737   50.1820   21.9098 H   0  0  0  0  0  0
    1.2320   49.9124   21.1306 H   0  0  0  0  0  0
    0.4119   48.5649   21.9624 H   0  0  0  0  0  0
    0.9432   53.0856   27.1770 H   0  0  0  0  0  0
    1.5656   52.8538   29.5691 H   0  0  0  0  0  0
    5.5786   54.1420   28.7545 H   0  0  0  0  0  0
    2.2043   49.6184   23.2648 H   0  0  0  0  0  0
  1  2  1  0  0  0
  1 36  1  0  0  0
  1 37  1  0  0  0
  1 38  1  0  0  0
  2  3  1  0  0  0
  2 39  1  0  0  0
  2 40  1  0  0  0
  3  4  1  0  0  0
  3 41  1  0  0  0
  3 42  1  0  0  0
  4  5  1  0  0  0
  4  8  1  0  0  0
  5  6  1  0  0  0
  5 43  1  0  0  0
  5 44  1  0  0  0
  6  7  1  0  0  0
  6 45  1  0  0  0
  6 46  1  0  0  0
  7 47  1  0  0  0
  7 48  1  0  0  0
  7 49  1  0  0  0
  8  9  2  0  0  0
  8 10  2  0  0  0
  8 11  1  0  0  0
 11 16  2  0  0  0
 11 12  1  0  0  0
 12 13  2  0  0  0
 12 50  1  0  0  0
 13 14  1  0  0  0
 13 51  1  0  0  0
 14 15  2  0  0  0
 14 17  1  0  0  0
 15 16  1  0  0  0
 15 52  1  0  0  0
 16 53  1  0  0  0
 17 18  2  0  0  0
 17 19  1  0  0  0
 19 20  1  0  0  0
 19 26  1  0  0  0
 20 21  1  0  0  0
 20 54  1  0  0  0
 20 55  1  0  0  0
 21 22  1  0  0  0
 21 56  1  0  0  0
 21 57  1  0  0  0
 22 23  1  0  0  0
 22 58  1  0  0  0
 22 59  1  0  0  0
 23 24  1  0  0  0
 23 25  1  0  0  0
 23 69  1  0  0  0
 24 60  1  0  0  0
 24 61  1  0  0  0
 24 62  1  0  0  0
 25 63  1  0  0  0
 25 64  1  0  0  0
 25 65  1  0  0  0
 26 34  1  0  0  0
 26 27  2  0  0  0
 27 28  1  0  0  0
 28 33  2  0  0  0
 28 29  1  0  0  0
 29 30  2  0  0  0
 29 66  1  0  0  0
 30 31  1  0  0  0
 30 67  1  0  0  0
 31 32  2  0  0  0
 31 35  1  0  0  0
 32 33  1  0  0  0
 32 68  1  0  0  0
 33 34  1  0  0  0
M  CHG  1  23   1
M  END
> <i_i_glide_confnum>
73

> <i_i_glide_lignum>
5704

> <i_i_glide_posenum>
235

> <i_i_glide_rotatable_bonds>
13

> <i_m_Source_File_Index>
3747

> <b_m_subgroup_collapsed>
0

> <r_i_docking_score>
-4.79169

> <r_i_glide_ecoul>
-3.18756

> <r_i_glide_eff_state_penalty>
0

> <r_i_glide_einternal>
6.17365

> <r_i_glide_emodel>
-62.2992

> <r_i_glide_energy>
-46.8106

> <r_i_glide_erotb>
0.755397

> <r_i_glide_esite>
-0.0435002

> <r_i_glide_evdw>
-43.6231

> <r_i_glide_gscore>
-4.79169

> <r_i_glide_hbond>
0

> <r_i_glide_ligand_efficiency>
-0.136906

> <r_i_glide_ligand_efficiency_ln>
-1.05188

> <r_i_glide_ligand_efficiency_sa>
-0.447827

> <r_i_glide_lipo>
-2.34686

> <r_i_glide_metal>
0

> <r_i_glide_rewards>
-0.497448

> <s_i_glide_gridfile>
wee1_glide-grid

> <s_m_Source_File>
wee1_decoys_glide_SP.sdf

> <s_m_Source_Path>
/Users/zhangxujun/Desktop

> <s_m_entry_id>
4022

> <s_m_entry_name>
wee1_decoys_glide_SP.3747

> <s_m_subgroup_title>
wee1_decoys_glide_SP

> <s_m_subgroupid>
wee1_decoys_glide_SP


$$$$
