ZINC51634160_1804
                    3D
 Schrodinger Suite 2024-2.
 38 40  0  0  1  0            999 V2000
    6.3761   54.6902   26.3161 C   0  0  0  0  0  0
    5.2020   54.4961   27.0318 C   0  0  0  0  0  0
    4.0214   54.2026   26.3547 C   0  0  0  0  0  0
    3.9915   54.0959   24.9577 C   0  0  0  0  0  0
    5.1952   54.2709   24.2283 C   0  0  0  0  0  0
    6.3693   54.5828   24.9266 C   0  0  0  0  0  0
    5.2413   54.0545   22.7077 C   0  0  0  0  0  0
    3.8500   54.1949   22.0587 C   0  0  0  0  0  0
    2.8745   53.2856   22.8125 C   0  0  1  0  0  0
    3.2491   52.2657   22.8816 H   0  0  0  0  0  0
    2.6639   53.8054   24.2495 C   0  0  0  0  0  0
    1.5537   53.2965   22.1532 N   0  0  0  0  0  0
    0.7474   51.7688   21.8438 S   0  0  0  0  0  0
   -0.4824   52.0889   21.1135 O   0  0  0  0  0  0
    1.7386   50.8418   21.2856 O   0  0  0  0  0  0
    0.2521   51.1398   23.4481 C   0  0  0  0  0  0
    0.7148   49.8969   23.9019 C   0  0  0  0  0  0
    0.3051   49.4513   25.1606 C   0  0  0  0  0  0
   -0.5138   50.1784   25.9622 N   0  0  0  0  0  0
   -0.9595   51.3768   25.5115 C   0  0  0  0  0  0
   -0.6031   51.8932   24.2624 C   0  0  0  0  0  0
   -1.8021   52.0893   26.3556 N   0  0  0  0  0  0
    7.2910   54.9032   26.8473 H   0  0  0  0  0  0
    5.2060   54.5674   28.1092 H   0  0  0  0  0  0
    3.1128   54.0611   26.9205 H   0  0  0  0  0  0
    7.2953   54.7113   24.3847 H   0  0  0  0  0  0
    5.9483   54.7419   22.2399 H   0  0  0  0  0  0
    5.6210   53.0489   22.5166 H   0  0  0  0  0  0
    3.5172   55.2331   22.1094 H   0  0  0  0  0  0
    3.8909   53.9322   20.9993 H   0  0  0  0  0  0
    2.0713   53.0963   24.8289 H   0  0  0  0  0  0
    2.0966   54.7377   24.2203 H   0  0  0  0  0  0
    1.5067   53.9294   21.3430 H   0  0  0  0  0  0
    1.3794   49.2906   23.3021 H   0  0  0  0  0  0
    0.6382   48.4997   25.5537 H   0  0  0  0  0  0
   -0.9745   52.8514   23.9321 H   0  0  0  0  0  0
   -2.2320   52.9447   26.0367 H   0  0  0  0  0  0
   -2.0702   51.6489   27.2249 H   0  0  0  0  0  0
  1  6  2  0  0  0
  1  2  1  0  0  0
  1 23  1  0  0  0
  2  3  2  0  0  0
  2 24  1  0  0  0
  3  4  1  0  0  0
  3 25  1  0  0  0
  4 11  1  0  0  0
  4  5  2  0  0  0
  5  6  1  0  0  0
  5  7  1  0  0  0
  6 26  1  0  0  0
  7  8  1  0  0  0
  7 27  1  0  0  0
  7 28  1  0  0  0
  8  9  1  0  0  0
  8 29  1  0  0  0
  8 30  1  0  0  0
  9 10  1  0  0  0
  9 11  1  0  0  0
  9 12  1  0  0  0
 11 31  1  0  0  0
 11 32  1  0  0  0
 12 13  1  0  0  0
 12 33  1  0  0  0
 13 14  2  0  0  0
 13 15  2  0  0  0
 13 16  1  0  0  0
 16 21  2  0  0  0
 16 17  1  0  0  0
 17 18  2  0  0  0
 17 34  1  0  0  0
 18 19  1  0  0  0
 18 35  1  0  0  0
 19 20  2  0  0  0
 20 21  1  0  0  0
 20 22  1  0  0  0
 21 36  1  0  0  0
 22 37  1  0  0  0
 22 38  1  0  0  0
M  END
> <i_i_glide_confnum>
16

> <i_i_glide_lignum>
1805

> <i_i_glide_posenum>
352

> <i_i_glide_rotatable_bonds>
3

> <i_m_Source_File_Index>
902

> <b_m_subgroup_collapsed>
0

> <r_i_docking_score>
-5.02304

> <r_i_glide_ecoul>
-3.39174

> <r_i_glide_eff_state_penalty>
0

> <r_i_glide_einternal>
2.43869

> <r_i_glide_emodel>
-44.0138

> <r_i_glide_energy>
-35.7217

> <r_i_glide_erotb>
0.6006

> <r_i_glide_esite>
-0.0335735

> <r_i_glide_evdw>
-32.33

> <r_i_glide_gscore>
-5.02304

> <r_i_glide_hbond>
-0.32

> <r_i_glide_ligand_efficiency>
-0.239192

> <r_i_glide_ligand_efficiency_ln>
-1.24194

> <r_i_glide_ligand_efficiency_sa>
-0.659914

> <r_i_glide_lipo>
-2.48025

> <r_i_glide_metal>
0

> <r_i_glide_rewards>
-0.664558

> <s_i_glide_gridfile>
wee1_glide-grid

> <s_m_Source_File>
wee1_decoys_glide_SP.sdf

> <s_m_Source_Path>
/Users/zhangxujun/Desktop

> <s_m_entry_id>
1177

> <s_m_entry_name>
wee1_decoys_glide_SP.902

> <s_m_subgroup_title>
wee1_decoys_glide_SP

> <s_m_subgroupid>
wee1_decoys_glide_SP


$$$$
