ZINC09281352_2739
                    3D
 Schrodinger Suite 2024-2.
 52 56  0  0  1  0            999 V2000
   -0.0370   51.0916   26.9620 C   0  0  0  0  0  0
    0.2247   50.1647   25.7618 C   0  0  0  0  0  0
    0.9569   48.8971   26.1917 C   0  0  0  0  0  0
   -1.0737   49.7636   25.0855 C   0  0  0  0  0  0
   -1.6181   50.0544   23.8436 C   0  0  0  0  0  0
   -2.8505   49.3804   23.8522 C   0  0  0  0  0  0
   -3.0833   48.6968   24.9433 N   0  0  0  0  0  0
   -1.9979   48.9376   25.6817 N   0  0  0  0  0  0
   -1.8884   48.5623   26.6271 H   0  0  0  0  0  0
   -3.7796   49.4043   22.8439 O   0  0  0  0  0  0
   -3.4499   50.1775   21.7757 C   0  0  0  0  0  0
   -2.3138   50.9033   21.6119 C   0  0  0  0  0  0
   -1.1647   50.9023   22.6523 C   0  0  2  0  0  0
    0.1431   50.4517   22.0747 C   0  0  0  0  0  0
    0.5056   49.2664   21.4335 C   0  0  0  0  0  0
    1.7901   49.1379   20.8998 C   0  0  0  0  0  0
    2.7042   50.1872   21.0180 C   0  0  0  0  0  0
    2.3501   51.3593   21.6850 C   0  0  0  0  0  0
    1.0616   51.4781   22.2074 C   0  0  0  0  0  0
    0.4723   52.5557   22.8628 N   0  0  0  0  0  0
   -0.8390   52.3280   23.1471 C   0  0  0  0  0  0
   -1.6396   53.0974   23.6857 O   0  0  0  0  0  0
    1.1045   53.8560   23.1333 C   0  0  0  0  0  0
    2.3039   53.8702   24.0722 C   0  0  0  0  0  0
    3.5445   54.3048   23.5982 C   0  0  0  0  0  0
    4.6191   54.4397   24.4747 C   0  0  0  0  0  0
    4.4529   54.1346   25.8238 C   0  0  0  0  0  0
    3.2182   53.6975   26.3020 C   0  0  0  0  0  0
    2.1447   53.5631   25.4243 C   0  0  0  0  0  0
    5.7868   54.3044   26.9071 Cl  0  0  0  0  0  0
   -2.1538   51.6231   20.3882 C   0  0  0  0  0  0
   -2.0947   52.1899   19.3817 N   0  0  0  0  0  0
   -4.4937   50.0948   20.8938 N   0  0  0  0  0  0
   -0.5845   51.9856   26.6613 H   0  0  0  0  0  0
    0.8971   51.4086   27.4276 H   0  0  0  0  0  0
   -0.6278   50.5915   27.7313 H   0  0  0  0  0  0
    0.8641   50.6926   25.0542 H   0  0  0  0  0  0
    1.1050   48.2276   25.3452 H   0  0  0  0  0  0
    1.9016   49.0380   26.7159 H   0  0  0  0  0  0
    0.3045   48.3854   26.8818 H   0  0  0  0  0  0
   -0.2051   48.4615   21.3199 H   0  0  0  0  0  0
    2.0777   48.2340   20.3830 H   0  0  0  0  0  0
    3.6873   50.0955   20.5845 H   0  0  0  0  0  0
    3.0682   52.1614   21.7618 H   0  0  0  0  0  0
    1.4117   54.2712   22.1728 H   0  0  0  0  0  0
    0.3798   54.5507   23.5533 H   0  0  0  0  0  0
    3.6723   54.5619   22.5568 H   0  0  0  0  0  0
    5.5764   54.7804   24.1091 H   0  0  0  0  0  0
    3.0916   53.4665   27.3492 H   0  0  0  0  0  0
    1.1819   53.2555   25.7989 H   0  0  0  0  0  0
   -4.4264   50.4932   19.9688 H   0  0  0  0  0  0
   -5.4025   49.7910   21.2113 H   0  0  0  0  0  0
  1  2  1  0  0  0
  1 34  1  0  0  0
  1 35  1  0  0  0
  1 36  1  0  0  0
  2  3  1  0  0  0
  2  4  1  0  0  0
  2 37  1  0  0  0
  3 38  1  0  0  0
  3 39  1  0  0  0
  3 40  1  0  0  0
  4  8  1  0  0  0
  4  5  2  0  0  0
  5 13  1  0  0  0
  5  6  1  0  0  0
  6  7  2  0  0  0
  6 10  1  0  0  0
  7  8  1  0  0  0
  8  9  1  0  0  0
 10 11  1  0  0  0
 11 12  2  0  0  0
 11 33  1  0  0  0
 12 13  1  0  0  0
 12 31  1  0  0  0
 13 21  1  0  0  0
 13 14  1  0  0  0
 14 19  2  0  0  0
 14 15  1  0  0  0
 15 16  2  0  0  0
 15 41  1  0  0  0
 16 17  1  0  0  0
 16 42  1  0  0  0
 17 18  2  0  0  0
 17 43  1  0  0  0
 18 19  1  0  0  0
 18 44  1  0  0  0
 19 20  1  0  0  0
 20 21  1  0  0  0
 20 23  1  0  0  0
 21 22  2  0  0  0
 23 24  1  0  0  0
 23 45  1  0  0  0
 23 46  1  0  0  0
 24 29  2  0  0  0
 24 25  1  0  0  0
 25 26  2  0  0  0
 25 47  1  0  0  0
 26 27  1  0  0  0
 26 48  1  0  0  0
 27 28  2  0  0  0
 27 30  1  0  0  0
 28 29  1  0  0  0
 28 49  1  0  0  0
 29 50  1  0  0  0
 31 32  3  0  0  0
 33 51  1  0  0  0
 33 52  1  0  0  0
M  END
> <i_i_glide_confnum>
7

> <i_i_glide_lignum>
2740

> <i_i_glide_posenum>
71

> <i_i_glide_rotatable_bonds>
4

> <i_m_Source_File_Index>
1479

> <b_m_subgroup_collapsed>
0

> <r_i_docking_score>
-5.727

> <r_i_glide_ecoul>
-7.98012

> <r_i_glide_eff_state_penalty>
0

> <r_i_glide_einternal>
2.99903

> <r_i_glide_emodel>
-50.4929

> <r_i_glide_energy>
-39.843

> <r_i_glide_erotb>
0.2013

> <r_i_glide_esite>
-0.133231

> <r_i_glide_evdw>
-31.8629

> <r_i_glide_gscore>
-5.727

> <r_i_glide_hbond>
-0.419578

> <r_i_glide_ligand_efficiency>
-0.178969

> <r_i_glide_ligand_efficiency_ln>
-1.28243

> <r_i_glide_ligand_efficiency_sa>
-0.568191

> <r_i_glide_lipo>
-2.02318

> <r_i_glide_metal>
0

> <r_i_glide_rewards>
-0.562149

> <s_i_glide_gridfile>
wee1_glide-grid

> <s_m_Source_File>
wee1_decoys_glide_SP.sdf

> <s_m_Source_Path>
/Users/zhangxujun/Desktop

> <s_m_entry_id>
1754

> <s_m_entry_name>
wee1_decoys_glide_SP.1479

> <s_m_subgroup_title>
wee1_decoys_glide_SP

> <s_m_subgroupid>
wee1_decoys_glide_SP


$$$$
