ZINC59740540_2274
                    3D
 Schrodinger Suite 2024-2.
 58 61  0  0  1  0            999 V2000
    0.6846   52.6529   31.5915 C   0  0  0  0  0  0
    1.6692   53.0060   30.4913 C   0  0  0  0  0  0
    2.9228   52.3960   30.4574 C   0  0  0  0  0  0
    3.8134   52.6929   29.4320 C   0  0  0  0  0  0
    3.4651   53.6313   28.4530 C   0  0  0  0  0  0
    2.2293   54.2857   28.5237 C   0  0  0  0  0  0
    1.3256   53.9580   29.5311 C   0  0  0  0  0  0
    4.3890   53.9439   27.4291 N   0  0  0  0  0  0
    4.2123   54.0736   26.0576 C   0  0  0  0  0  0
    5.4912   54.4250   25.5857 C   0  0  0  0  0  0
    6.3272   54.5061   26.6091 N   0  0  0  0  0  0
    5.6605   54.1865   27.7652 N   0  0  0  0  0  0
    5.8860   54.8011   24.2493 C   0  0  0  0  0  0
    6.7160   55.6966   24.1206 O   0  0  0  0  0  0
    5.2900   54.1300   23.2292 N   0  0  0  0  0  0
    5.4219   54.3042   21.8175 C   0  0  0  0  0  0
    6.3050   55.2590   21.2666 C   0  0  0  0  0  0
    6.4466   55.4161   19.8929 C   0  0  0  0  0  0
    5.7065   54.6274   19.0263 C   0  0  0  0  0  0
    4.8253   53.6821   19.5353 C   0  0  0  0  0  0
    4.6590   53.4967   20.9218 C   0  0  0  0  0  0
    3.6651   52.4445   21.3902 C   0  0  0  0  0  0
    3.1049   52.5456   22.4807 O   0  0  0  0  0  0
    3.4467   51.4029   20.5573 N   0  0  0  0  0  0
    2.5902   50.2327   20.8024 C   0  0  2  0  0  0
    3.1208   49.6144   21.5272 H   0  0  0  0  0  0
    2.4620   49.3993   19.5145 C   0  0  0  0  0  0
    1.2075   50.5342   21.3951 C   0  0  0  0  0  0
    0.8174   49.9257   22.5942 C   0  0  0  0  0  0
   -0.4301   50.2049   23.1453 C   0  0  0  0  0  0
   -1.2890   51.0890   22.4962 C   0  0  0  0  0  0
   -0.9097   51.6977   21.3021 C   0  0  0  0  0  0
    0.3402   51.4249   20.7533 C   0  0  0  0  0  0
    2.8937   53.8210   25.3390 C   0  0  0  0  0  0
   -0.2744   52.3652   31.1588 H   0  0  0  0  0  0
    0.5021   53.5125   32.2369 H   0  0  0  0  0  0
    1.0241   51.8189   32.2089 H   0  0  0  0  0  0
    3.2098   51.6961   31.2265 H   0  0  0  0  0  0
    4.7749   52.1985   29.4046 H   0  0  0  0  0  0
    1.9631   55.0557   27.8147 H   0  0  0  0  0  0
    0.3657   54.4525   29.5733 H   0  0  0  0  0  0
    4.6055   53.4319   23.4893 H   0  0  0  0  0  0
    6.9229   55.9008   21.8684 H   0  0  0  0  0  0
    7.1369   56.1473   19.4989 H   0  0  0  0  0  0
    5.8143   54.7469   17.9580 H   0  0  0  0  0  0
    4.2629   53.0977   18.8193 H   0  0  0  0  0  0
    4.0575   51.3186   19.7536 H   0  0  0  0  0  0
    1.9363   48.4627   19.6994 H   0  0  0  0  0  0
    1.9190   49.9392   18.7382 H   0  0  0  0  0  0
    3.4369   49.1453   19.0969 H   0  0  0  0  0  0
    1.4813   49.2447   23.1079 H   0  0  0  0  0  0
   -0.7277   49.7396   24.0740 H   0  0  0  0  0  0
   -2.2566   51.3040   22.9258 H   0  0  0  0  0  0
   -1.5789   52.3828   20.8056 H   0  0  0  0  0  0
    0.6398   51.9081   19.8345 H   0  0  0  0  0  0
    2.7774   52.7655   25.0987 H   0  0  0  0  0  0
    2.0054   54.0960   25.8983 H   0  0  0  0  0  0
    2.8284   54.3716   24.4012 H   0  0  0  0  0  0
  1  2  1  0  0  0
  1 35  1  0  0  0
  1 36  1  0  0  0
  1 37  1  0  0  0
  2  7  2  0  0  0
  2  3  1  0  0  0
  3  4  2  0  0  0
  3 38  1  0  0  0
  4  5  1  0  0  0
  4 39  1  0  0  0
  5  6  2  0  0  0
  5  8  1  0  0  0
  6  7  1  0  0  0
  6 40  1  0  0  0
  7 41  1  0  0  0
  8 12  1  0  0  0
  8  9  1  0  0  0
  9 10  2  0  0  0
  9 34  1  0  0  0
 10 11  1  0  0  0
 10 13  1  0  0  0
 11 12  2  0  0  0
 13 14  2  0  0  0
 13 15  1  0  0  0
 15 16  1  0  0  0
 15 42  1  0  0  0
 16 21  2  0  0  0
 16 17  1  0  0  0
 17 18  2  0  0  0
 17 43  1  0  0  0
 18 19  1  0  0  0
 18 44  1  0  0  0
 19 20  2  0  0  0
 19 45  1  0  0  0
 20 21  1  0  0  0
 20 46  1  0  0  0
 21 22  1  0  0  0
 22 23  2  0  0  0
 22 24  1  0  0  0
 24 25  1  0  0  0
 24 47  1  0  0  0
 25 26  1  0  0  0
 25 27  1  0  0  0
 25 28  1  0  0  0
 27 48  1  0  0  0
 27 49  1  0  0  0
 27 50  1  0  0  0
 28 33  2  0  0  0
 28 29  1  0  0  0
 29 30  2  0  0  0
 29 51  1  0  0  0
 30 31  1  0  0  0
 30 52  1  0  0  0
 31 32  2  0  0  0
 31 53  1  0  0  0
 32 33  1  0  0  0
 32 54  1  0  0  0
 33 55  1  0  0  0
 34 56  1  0  0  0
 34 57  1  0  0  0
 34 58  1  0  0  0
M  END
> <i_i_glide_confnum>
83

> <i_i_glide_lignum>
2275

> <i_i_glide_posenum>
394

> <i_i_glide_rotatable_bonds>
8

> <i_m_Source_File_Index>
5345

> <b_m_subgroup_collapsed>
0

> <r_i_docking_score>
-5.9053

> <r_i_glide_ecoul>
-1.83779

> <r_i_glide_eff_state_penalty>
0

> <r_i_glide_einternal>
9.08318

> <r_i_glide_emodel>
-72.5272

> <r_i_glide_energy>
-56.4003

> <r_i_glide_erotb>
0.723265

> <r_i_glide_esite>
-0.0309754

> <r_i_glide_evdw>
-54.5625

> <r_i_glide_gscore>
-5.9053

> <r_i_glide_hbond>
-0.0575183

> <r_i_glide_ligand_efficiency>
-0.178948

> <r_i_glide_ligand_efficiency_ln>
-1.31331

> <r_i_glide_ligand_efficiency_sa>
-0.573983

> <r_i_glide_lipo>
-2.30537

> <r_i_glide_metal>
0

> <r_i_glide_rewards>
-1.2309

> <s_i_glide_gridfile>
wee1_glide-grid

> <s_m_Source_File>
wee1_decoys_glide_SP.sdf

> <s_m_Source_Path>
/Users/zhangxujun/Desktop

> <s_m_entry_id>
5620

> <s_m_entry_name>
wee1_decoys_glide_SP.5345

> <s_m_subgroup_title>
wee1_decoys_glide_SP

> <s_m_subgroupid>
wee1_decoys_glide_SP


$$$$
