ZINC67174443_1414
                    3D
 Schrodinger Suite 2024-2.
 36 38  0  0  1  0            999 V2000
    0.0640   52.2134   29.6792 C   0  0  0  0  0  0
    1.4311   52.6941   29.2529 C   0  0  0  0  0  0
    2.6036   52.7852   29.9951 C   0  0  0  0  0  0
    3.6978   53.2742   29.2764 C   0  0  0  0  0  0
    3.4103   53.5794   27.9545 C   0  0  0  0  0  0
    1.7352   53.2329   27.6229 S   0  0  0  0  0  0
    4.3425   54.0821   26.9411 C   0  0  0  0  0  0
    4.0174   54.0864   25.6578 N   0  0  0  0  0  0
    5.0402   54.4679   24.9378 C   0  0  0  0  0  0
    6.4039   54.8967   25.8863 S   0  0  0  0  0  0
    5.5469   54.4961   27.3080 N   0  0  0  0  0  0
    5.1683   54.4914   23.5608 N   0  0  0  0  0  0
    4.3268   53.9262   22.6674 C   0  0  0  0  0  0
    3.2941   53.3123   22.9418 O   0  0  0  0  0  0
    4.7465   54.0899   21.3017 C   0  0  0  0  0  0
    4.2848   53.5040   20.1280 C   0  0  0  0  0  0
    5.0409   54.0341   19.0811 C   0  0  0  0  0  0
    5.9052   54.9533   19.6563 C   0  0  0  0  0  0
    5.7490   54.9628   21.0032 O   0  0  0  0  0  0
    7.1848   56.0203   18.9633 S   0  0  0  0  0  0
    8.4130   55.2216   18.9298 O   0  0  0  0  0  0
    7.1042   57.2966   19.6818 O   0  0  0  0  0  0
    6.6170   56.2426   17.3147 N   0  0  0  0  0  0
    5.3699   56.9959   17.0747 C   0  0  0  0  0  0
    0.0138   52.0047   30.7488 H   0  0  0  0  0  0
   -0.7063   52.9542   29.4677 H   0  0  0  0  0  0
   -0.2203   51.2962   29.1615 H   0  0  0  0  0  0
    2.6596   52.4962   31.0343 H   0  0  0  0  0  0
    4.6895   53.3964   29.6817 H   0  0  0  0  0  0
    6.0158   54.8972   23.1923 H   0  0  0  0  0  0
    3.4961   52.7696   20.0434 H   0  0  0  0  0  0
    4.9575   53.7824   18.0335 H   0  0  0  0  0  0
    6.8262   55.4759   16.6704 H   0  0  0  0  0  0
    5.3685   57.9235   17.6494 H   0  0  0  0  0  0
    4.5077   56.3871   17.3468 H   0  0  0  0  0  0
    5.2896   57.2345   16.0140 H   0  0  0  0  0  0
  1  2  1  0  0  0
  1 25  1  0  0  0
  1 26  1  0  0  0
  1 27  1  0  0  0
  2  6  1  0  0  0
  2  3  2  0  0  0
  3  4  1  0  0  0
  3 28  1  0  0  0
  4  5  2  0  0  0
  4 29  1  0  0  0
  5  6  1  0  0  0
  5  7  1  0  0  0
  7 11  2  0  0  0
  7  8  1  0  0  0
  8  9  2  0  0  0
  9 10  1  0  0  0
  9 12  1  0  0  0
 10 11  1  0  0  0
 12 13  1  0  0  0
 12 30  1  0  0  0
 13 14  2  0  0  0
 13 15  1  0  0  0
 15 19  1  0  0  0
 15 16  2  0  0  0
 16 17  1  0  0  0
 16 31  1  0  0  0
 17 18  2  0  0  0
 17 32  1  0  0  0
 18 19  1  0  0  0
 18 20  1  0  0  0
 20 21  2  0  0  0
 20 22  2  0  0  0
 20 23  1  0  0  0
 23 24  1  0  0  0
 23 33  1  0  0  0
 24 34  1  0  0  0
 24 35  1  0  0  0
 24 36  1  0  0  0
M  END
> <i_i_glide_confnum>
81

> <i_i_glide_lignum>
1415

> <i_i_glide_posenum>
326

> <i_i_glide_rotatable_bonds>
6

> <i_m_Source_File_Index>
4785

> <b_m_subgroup_collapsed>
0

> <r_i_docking_score>
-4.4289

> <r_i_glide_ecoul>
-2.52846

> <r_i_glide_eff_state_penalty>
0

> <r_i_glide_einternal>
5.99295

> <r_i_glide_emodel>
-53.576

> <r_i_glide_energy>
-45.6453

> <r_i_glide_erotb>
0.657709

> <r_i_glide_esite>
-0.0483126

> <r_i_glide_evdw>
-43.1168

> <r_i_glide_gscore>
-4.4289

> <r_i_glide_hbond>
0

> <r_i_glide_ligand_efficiency>
-0.184538

> <r_i_glide_ligand_efficiency_ln>
-1.06004

> <r_i_glide_ligand_efficiency_sa>
-0.532299

> <r_i_glide_lipo>
-1.62426

> <r_i_glide_metal>
0

> <r_i_glide_rewards>
-0.878925

> <s_i_glide_gridfile>
wee1_glide-grid

> <s_m_Source_File>
wee1_decoys_glide_SP.sdf

> <s_m_Source_Path>
/Users/zhangxujun/Desktop

> <s_m_entry_id>
5060

> <s_m_entry_name>
wee1_decoys_glide_SP.4785

> <s_m_subgroup_title>
wee1_decoys_glide_SP

> <s_m_subgroupid>
wee1_decoys_glide_SP


$$$$
