ZINC66190216_251
                    3D
 Schrodinger Suite 2024-2.
 60 62  0  0  1  0            999 V2000
    1.3884   55.8564   30.2633 C   0  0  0  0  0  0
    0.5274   54.5893   30.4102 C   0  0  0  0  0  0
    0.4906   53.6889   29.1504 C   0  0  0  0  0  0
    1.4624   52.4685   29.1626 C   0  0  2  0  0  0
    1.1733   51.9489   30.0792 H   0  0  0  0  0  0
    2.9712   52.7809   29.3636 C   0  0  0  0  0  0
    3.5203   52.2123   30.3131 O   0  0  0  0  0  0
    3.6147   53.6988   28.5901 N   0  0  0  0  0  0
    4.9141   54.2522   29.0188 C   0  0  0  0  0  0
    6.0251   53.7508   28.0685 C   0  0  0  0  0  0
    5.6073   54.0967   26.6512 C   0  0  0  0  0  0
    4.2722   54.2530   26.2688 C   0  0  0  0  0  0
    4.1489   54.4944   24.8950 C   0  0  0  0  0  0
    5.3700   54.4967   24.2334 C   0  0  0  0  0  0
    6.7007   54.2671   25.3156 S   0  0  0  0  0  0
    3.1296   54.1797   27.2805 C   0  0  0  0  0  0
    1.2105   51.4058   28.1765 N   0  0  0  0  0  0
    0.5913   51.4819   26.9877 C   0  0  0  0  0  0
    0.3024   52.5224   26.4059 O   0  0  0  0  0  0
    0.3043   50.2723   26.4906 N   0  0  0  0  0  0
   -0.2920   50.0161   25.1753 C   0  0  2  0  0  0
    0.3154   50.5293   24.4246 H   0  0  0  0  0  0
   -1.7524   50.4791   25.0826 C   0  0  0  0  0  0
   -2.6089   49.3357   25.6364 C   0  0  0  0  0  0
   -1.6527   48.1209   25.6817 N   0  3  2  0  0  0
   -0.3765   48.5177   24.9134 C   0  0  0  0  0  0
   -2.2282   46.7232   25.3638 C   0  0  0  0  0  0
   -3.1560   46.3115   26.5196 C   0  0  0  0  0  0
   -2.9013   46.6763   23.9747 C   0  0  0  0  0  0
    1.3439   56.4639   31.1683 H   0  0  0  0  0  0
    2.4353   55.6208   30.0826 H   0  0  0  0  0  0
    1.0480   56.4795   29.4360 H   0  0  0  0  0  0
   -0.4917   54.8966   30.6468 H   0  0  0  0  0  0
    0.8552   54.0174   31.2802 H   0  0  0  0  0  0
    0.6079   54.2935   28.2517 H   0  0  0  0  0  0
   -0.5198   53.2869   29.0739 H   0  0  0  0  0  0
    5.1042   54.1224   30.0807 H   0  0  0  0  0  0
    4.8396   55.3315   28.9306 H   0  0  0  0  0  0
    6.1737   52.6767   28.1823 H   0  0  0  0  0  0
    6.9752   54.2208   28.3245 H   0  0  0  0  0  0
    3.2003   54.6410   24.3992 H   0  0  0  0  0  0
    5.5510   54.6366   23.1777 H   0  0  0  0  0  0
    2.6517   55.1519   27.4004 H   0  0  0  0  0  0
    2.3429   53.5541   26.8780 H   0  0  0  0  0  0
    1.5328   50.4974   28.4712 H   0  0  0  0  0  0
    0.4109   49.4682   27.0936 H   0  0  0  0  0  0
   -1.9382   51.4295   25.5854 H   0  0  0  0  0  0
   -2.0147   50.6479   24.0368 H   0  0  0  0  0  0
   -2.8947   49.5095   26.6765 H   0  0  0  0  0  0
   -3.4706   49.1427   25.0017 H   0  0  0  0  0  0
   -0.5380   48.2875   23.8609 H   0  0  0  0  0  0
    0.4574   47.9166   25.2814 H   0  0  0  0  0  0
   -1.3346   46.0965   25.3798 H   0  0  0  0  0  0
   -3.5160   45.2895   26.4099 H   0  0  0  0  0  0
   -2.6381   46.3626   27.4795 H   0  0  0  0  0  0
   -4.0278   46.9618   26.5883 H   0  0  0  0  0  0
   -3.2151   45.6652   23.7258 H   0  0  0  0  0  0
   -3.7999   47.2899   23.9259 H   0  0  0  0  0  0
   -2.2333   47.0033   23.1784 H   0  0  0  0  0  0
   -1.3645   48.0814   26.6650 H   0  0  0  0  0  0
  1  2  1  0  0  0
  1 30  1  0  0  0
  1 31  1  0  0  0
  1 32  1  0  0  0
  2  3  1  0  0  0
  2 33  1  0  0  0
  2 34  1  0  0  0
  3  4  1  0  0  0
  3 35  1  0  0  0
  3 36  1  0  0  0
  4  5  1  0  0  0
  4  6  1  0  0  0
  4 17  1  0  0  0
  6  7  2  0  0  0
  6  8  1  0  0  0
  8 16  1  0  0  0
  8  9  1  0  0  0
  9 10  1  0  0  0
  9 37  1  0  0  0
  9 38  1  0  0  0
 10 11  1  0  0  0
 10 39  1  0  0  0
 10 40  1  0  0  0
 11 15  1  0  0  0
 11 12  2  0  0  0
 12 13  1  0  0  0
 12 16  1  0  0  0
 13 14  2  0  0  0
 13 41  1  0  0  0
 14 15  1  0  0  0
 14 42  1  0  0  0
 16 43  1  0  0  0
 16 44  1  0  0  0
 17 18  1  0  0  0
 17 45  1  0  0  0
 18 19  2  0  0  0
 18 20  1  0  0  0
 20 21  1  0  0  0
 20 46  1  0  0  0
 21 22  1  0  0  0
 21 26  1  0  0  0
 21 23  1  0  0  0
 23 24  1  0  0  0
 23 47  1  0  0  0
 23 48  1  0  0  0
 24 25  1  0  0  0
 24 49  1  0  0  0
 24 50  1  0  0  0
 25 26  1  0  0  0
 25 27  1  0  0  0
 25 60  1  0  0  0
 26 51  1  0  0  0
 26 52  1  0  0  0
 27 28  1  0  0  0
 27 29  1  0  0  0
 27 53  1  0  0  0
 28 54  1  0  0  0
 28 55  1  0  0  0
 28 56  1  0  0  0
 29 57  1  0  0  0
 29 58  1  0  0  0
 29 59  1  0  0  0
M  CHG  1  25   1
M  END
> <i_i_glide_confnum>
168

> <i_i_glide_lignum>
252

> <i_i_glide_posenum>
120

> <i_i_glide_rotatable_bonds>
9

> <i_m_Source_File_Index>
1716

> <b_m_subgroup_collapsed>
0

> <r_i_docking_score>
-7.1504

> <r_i_glide_ecoul>
-5.3957

> <r_i_glide_eff_state_penalty>
0

> <r_i_glide_einternal>
21.6586

> <r_i_glide_emodel>
-60.8443

> <r_i_glide_energy>
-48.6839

> <r_i_glide_erotb>
0.756748

> <r_i_glide_esite>
-0.166109

> <r_i_glide_evdw>
-43.2882

> <r_i_glide_gscore>
-7.1504

> <r_i_glide_hbond>
-0.365567

> <r_i_glide_ligand_efficiency>
-0.26483

> <r_i_glide_ligand_efficiency_ln>
-1.6645

> <r_i_glide_ligand_efficiency_sa>
-0.794489

> <r_i_glide_lipo>
-3.07444

> <r_i_glide_metal>
0

> <r_i_glide_rewards>
-1.32727

> <s_i_glide_gridfile>
wee1_glide-grid

> <s_m_Source_File>
wee1_decoys_glide_SP.sdf

> <s_m_Source_Path>
/Users/zhangxujun/Desktop

> <s_m_entry_id>
1991

> <s_m_entry_name>
wee1_decoys_glide_SP.1716

> <s_m_subgroup_title>
wee1_decoys_glide_SP

> <s_m_subgroupid>
wee1_decoys_glide_SP


$$$$
