ZINC14544898_4531
                    3D
 Schrodinger Suite 2024-2.
 61 66  0  0  1  0            999 V2000
    0.2198   49.7562   17.6455 C   0  0  0  0  0  0
   -0.1645   49.2231   19.0221 C   0  0  0  0  0  0
   -1.3157   48.4403   19.1368 C   0  0  0  0  0  0
   -1.6910   47.9103   20.3674 C   0  0  0  0  0  0
   -0.8968   48.1302   21.4870 C   0  0  0  0  0  0
    0.2699   48.8968   21.3962 C   0  0  0  0  0  0
    0.6187   49.4846   20.1630 C   0  0  0  0  0  0
    1.7328   50.3294   20.0634 N   0  0  0  0  0  0
    1.5585   52.0891   20.1675 S   0  0  0  0  0  0
    2.8473   52.6478   19.7502 O   0  0  0  0  0  0
    0.3044   52.4543   19.4966 O   0  0  0  0  0  0
    1.3525   52.4242   21.9084 C   0  0  0  0  0  0
    2.4475   52.7980   22.6826 C   0  0  0  0  0  0
    2.3058   52.9027   24.0612 C   0  0  0  0  0  0
    1.0781   52.6501   24.6686 C   0  0  0  0  0  0
   -0.0503   52.3155   23.9007 C   0  0  0  0  0  0
    0.1094   52.2229   22.5127 C   0  0  0  0  0  0
   -1.4073   52.0792   24.5519 C   0  0  1  0  0  0
   -2.0865   52.8066   24.1045 H   0  0  0  0  0  0
   -1.9850   50.6931   24.3492 C   0  0  0  0  0  0
   -2.6462   50.2887   25.4436 C   0  0  0  0  0  0
   -2.5371   51.3043   26.5573 C   0  0  0  0  0  0
   -1.4152   52.2477   26.0851 C   0  0  1  0  0  0
   -1.6973   53.2770   26.3152 H   0  0  0  0  0  0
   -0.0444   51.9697   26.7849 C   0  0  1  0  0  0
    0.1500   50.8961   26.7332 H   0  0  0  0  0  0
    1.0476   52.6236   26.0667 N   0  0  0  0  0  0
   -0.0506   52.3975   28.2532 C   0  0  0  0  0  0
   -0.5965   51.6975   29.3176 C   0  0  0  0  0  0
   -0.4940   52.4114   30.4823 N   0  0  0  0  0  0
   -0.8722   52.0889   31.3731 H   0  0  0  0  0  0
    0.1419   53.6039   30.2298 C   0  0  0  0  0  0
    0.4820   53.6118   28.8442 C   0  0  0  0  0  0
    1.1935   54.7247   28.3490 C   0  0  0  0  0  0
    1.5042   55.7831   29.1981 C   0  0  0  0  0  0
    1.1047   55.7633   30.5268 C   0  0  0  0  0  0
    0.4339   54.6702   31.0786 C   0  0  0  0  0  0
    1.1618   48.9921   22.6352 C   0  0  0  0  0  0
   -0.1004   50.7922   17.5291 H   0  0  0  0  0  0
    1.2989   49.7138   17.4988 H   0  0  0  0  0  0
   -0.2172   49.1599   16.8438 H   0  0  0  0  0  0
   -1.9275   48.2422   18.2694 H   0  0  0  0  0  0
   -2.5847   47.3097   20.4470 H   0  0  0  0  0  0
   -1.1783   47.6786   22.4270 H   0  0  0  0  0  0
    2.6510   49.9422   19.9171 H   0  0  0  0  0  0
    3.4133   52.9651   22.2273 H   0  0  0  0  0  0
    3.1724   53.1473   24.6595 H   0  0  0  0  0  0
   -0.7347   51.9348   21.9000 H   0  0  0  0  0  0
   -1.9279   50.1700   23.4061 H   0  0  0  0  0  0
   -3.1924   49.3636   25.5614 H   0  0  0  0  0  0
   -2.3035   50.7952   27.4892 H   0  0  0  0  0  0
   -3.4789   51.8346   26.7042 H   0  0  0  0  0  0
    1.9131   52.6492   26.5862 H   0  0  0  0  0  0
   -1.1031   50.7448   29.3387 H   0  0  0  0  0  0
    1.4841   54.7819   27.3116 H   0  0  0  0  0  0
    2.0352   56.6433   28.8160 H   0  0  0  0  0  0
    1.3416   56.6110   31.1570 H   0  0  0  0  0  0
    0.1586   54.6553   32.1227 H   0  0  0  0  0  0
    1.3986   50.0150   22.9051 H   0  0  0  0  0  0
    0.7050   48.5215   23.5106 H   0  0  0  0  0  0
    2.1190   48.4983   22.4557 H   0  0  0  0  0  0
  1  2  1  0  0  0
  1 39  1  0  0  0
  1 40  1  0  0  0
  1 41  1  0  0  0
  2  7  2  0  0  0
  2  3  1  0  0  0
  3  4  2  0  0  0
  3 42  1  0  0  0
  4  5  1  0  0  0
  4 43  1  0  0  0
  5  6  2  0  0  0
  5 44  1  0  0  0
  6  7  1  0  0  0
  6 38  1  0  0  0
  7  8  1  0  0  0
  8  9  1  0  0  0
  8 45  1  0  0  0
  9 10  2  0  0  0
  9 11  2  0  0  0
  9 12  1  0  0  0
 12 17  2  0  0  0
 12 13  1  0  0  0
 13 14  2  0  0  0
 13 46  1  0  0  0
 14 15  1  0  0  0
 14 47  1  0  0  0
 15 27  1  0  0  0
 15 16  2  0  0  0
 16 17  1  0  0  0
 16 18  1  0  0  0
 17 48  1  0  0  0
 18 19  1  0  0  0
 18 23  1  0  0  0
 18 20  1  0  0  0
 20 21  2  0  0  0
 20 49  1  0  0  0
 21 22  1  0  0  0
 21 50  1  0  0  0
 22 23  1  0  0  0
 22 51  1  0  0  0
 22 52  1  0  0  0
 23 24  1  0  0  0
 23 25  1  0  0  0
 25 26  1  0  0  0
 25 27  1  0  0  0
 25 28  1  0  0  0
 27 53  1  0  0  0
 28 33  1  0  0  0
 28 29  2  0  0  0
 29 30  1  0  0  0
 29 54  1  0  0  0
 30 31  1  0  0  0
 30 32  1  0  0  0
 32 37  2  0  0  0
 32 33  1  0  0  0
 33 34  2  0  0  0
 34 35  1  0  0  0
 34 55  1  0  0  0
 35 36  2  0  0  0
 35 56  1  0  0  0
 36 37  1  0  0  0
 36 57  1  0  0  0
 37 58  1  0  0  0
 38 59  1  0  0  0
 38 60  1  0  0  0
 38 61  1  0  0  0
M  END
> <i_i_glide_confnum>
24

> <i_i_glide_lignum>
4532

> <i_i_glide_posenum>
368

> <i_i_glide_rotatable_bonds>
4

> <i_m_Source_File_Index>
2262

> <b_m_subgroup_collapsed>
0

> <r_i_docking_score>
-4.5397

> <r_i_glide_ecoul>
-3.95437

> <r_i_glide_eff_state_penalty>
0

> <r_i_glide_einternal>
4.26311

> <r_i_glide_emodel>
-48.4757

> <r_i_glide_energy>
-38.6852

> <r_i_glide_erotb>
0.366378

> <r_i_glide_esite>
-0.189969

> <r_i_glide_evdw>
-34.7308

> <r_i_glide_gscore>
-4.5397

> <r_i_glide_hbond>
-0.16

> <r_i_glide_ligand_efficiency>
-0.13352

> <r_i_glide_ligand_efficiency_ln>
-1.00295

> <r_i_glide_ligand_efficiency_sa>
-0.432554

> <r_i_glide_lipo>
-2.05197

> <r_i_glide_metal>
0

> <r_i_glide_rewards>
-0.174439

> <s_i_glide_gridfile>
wee1_glide-grid

> <s_m_Source_File>
wee1_decoys_glide_SP.sdf

> <s_m_Source_Path>
/Users/zhangxujun/Desktop

> <s_m_entry_id>
2537

> <s_m_entry_name>
wee1_decoys_glide_SP.2262

> <s_m_subgroup_title>
wee1_decoys_glide_SP

> <s_m_subgroupid>
wee1_decoys_glide_SP


$$$$
