ZINC64590223_5673
                    3D
 Schrodinger Suite 2024-2.
 62 65  0  0  1  0            999 V2000
    4.9341   54.5749   29.2867 C   0  0  0  0  0  0
    4.7818   54.4731   27.7862 C   0  0  0  0  0  0
    5.8989   54.6743   26.9723 C   0  0  0  0  0  0
    5.7787   54.5984   25.5891 C   0  0  0  0  0  0
    4.5409   54.3121   25.0194 C   0  0  0  0  0  0
    3.4089   54.1032   25.8202 C   0  0  0  0  0  0
    3.5304   54.1747   27.2211 C   0  0  0  0  0  0
    2.3151   53.9733   28.1385 C   0  0  0  0  0  0
    2.2085   53.7380   25.2349 N   0  0  0  0  0  0
    1.6765   54.4381   24.0613 C   0  0  0  0  0  0
    1.5369   53.5219   22.8349 C   0  0  0  0  0  0
    0.6449   52.3701   23.0655 N   0  0  0  0  0  0
    0.5531   51.9964   24.4861 C   0  0  0  0  0  0
    1.8574   52.3151   25.2435 C   0  0  0  0  0  0
    0.5360   51.4551   22.0311 C   0  0  0  0  0  0
    1.2023   50.2298   22.0411 C   0  0  0  0  0  0
    1.1845   49.4113   20.9134 C   0  0  0  0  0  0
    0.4872   49.7893   19.7491 C   0  0  0  0  0  0
   -0.2254   51.0219   19.7387 C   0  0  0  0  0  0
   -0.1613   51.8264   20.8866 C   0  0  0  0  0  0
   -1.0450   51.5277   18.5711 C   0  0  0  0  0  0
   -1.8462   52.4731   18.7855 O   0  0  0  0  0  0
   -0.8973   50.9819   17.4523 O   0  5  0  0  0  0
    0.5431   49.0056   18.5717 N   0  0  0  0  0  0
    0.9577   47.7321   18.3777 C   0  0  0  0  0  0
    1.1176   46.9093   19.2822 O   0  0  0  0  0  0
    1.1832   47.3186   16.9387 C   0  0  0  0  0  0
    1.1301   45.9644   16.5840 C   0  0  0  0  0  0
    1.3733   45.5661   15.2715 C   0  0  0  0  0  0
    1.6756   46.5063   14.2882 C   0  0  0  0  0  0
    1.7372   47.8619   14.6374 C   0  0  0  0  0  0
    1.4972   48.2616   15.9488 C   0  0  0  0  0  0
    1.9051   46.0200   13.0155 O   0  0  0  0  0  0
    2.1912   46.9368   11.9625 C   0  0  0  0  0  0
    4.2217   55.2946   29.6825 H   0  0  0  0  0  0
    4.7062   53.6001   29.7129 H   0  0  0  0  0  0
    5.9242   54.8976   29.5982 H   0  0  0  0  0  0
    6.8602   54.8936   27.4140 H   0  0  0  0  0  0
    6.6427   54.7493   24.9585 H   0  0  0  0  0  0
    4.4655   54.2313   23.9448 H   0  0  0  0  0  0
    2.1994   54.8230   28.8103 H   0  0  0  0  0  0
    1.3663   53.8819   27.6095 H   0  0  0  0  0  0
    2.4508   53.0820   28.7511 H   0  0  0  0  0  0
    2.3005   55.2954   23.8084 H   0  0  0  0  0  0
    0.7053   54.8398   24.3329 H   0  0  0  0  0  0
    2.5290   53.1840   22.5307 H   0  0  0  0  0  0
    1.1078   54.1422   22.0635 H   0  0  0  0  0  0
   -0.2983   52.4991   24.9466 H   0  0  0  0  0  0
    0.3541   50.9272   24.5662 H   0  0  0  0  0  0
    1.7544   51.9671   26.2715 H   0  0  0  0  0  0
    2.6592   51.7901   24.7368 H   0  0  0  0  0  0
    1.7798   49.9290   22.9036 H   0  0  0  0  0  0
    1.7665   48.5038   20.9553 H   0  0  0  0  0  0
   -0.6598   52.7829   20.8989 H   0  0  0  0  0  0
    0.2266   49.5215   17.7547 H   0  0  0  0  0  0
    0.9058   45.2102   17.3251 H   0  0  0  0  0  0
    1.3303   44.5185   15.0134 H   0  0  0  0  0  0
    1.9871   48.6209   13.9128 H   0  0  0  0  0  0
    1.5969   49.3121   16.1869 H   0  0  0  0  0  0
    2.3279   46.3852   11.0327 H   0  0  0  0  0  0
    3.1108   47.4927   12.1549 H   0  0  0  0  0  0
    1.3715   47.6412   11.8103 H   0  0  0  0  0  0
  1  2  1  0  0  0
  1 35  1  0  0  0
  1 36  1  0  0  0
  1 37  1  0  0  0
  2  7  2  0  0  0
  2  3  1  0  0  0
  3  4  2  0  0  0
  3 38  1  0  0  0
  4  5  1  0  0  0
  4 39  1  0  0  0
  5  6  2  0  0  0
  5 40  1  0  0  0
  6  7  1  0  0  0
  6  9  1  0  0  0
  7  8  1  0  0  0
  8 41  1  0  0  0
  8 42  1  0  0  0
  8 43  1  0  0  0
  9 14  1  0  0  0
  9 10  1  0  0  0
 10 11  1  0  0  0
 10 44  1  0  0  0
 10 45  1  0  0  0
 11 12  1  0  0  0
 11 46  1  0  0  0
 11 47  1  0  0  0
 12 13  1  0  0  0
 12 15  1  0  0  0
 13 14  1  0  0  0
 13 48  1  0  0  0
 13 49  1  0  0  0
 14 50  1  0  0  0
 14 51  1  0  0  0
 15 20  2  0  0  0
 15 16  1  0  0  0
 16 17  2  0  0  0
 16 52  1  0  0  0
 17 18  1  0  0  0
 17 53  1  0  0  0
 18 19  2  0  0  0
 18 24  1  0  0  0
 19 20  1  0  0  0
 19 21  1  0  0  0
 20 54  1  0  0  0
 21 22  2  0  0  0
 21 23  1  0  0  0
 24 25  1  0  0  0
 24 55  1  0  0  0
 25 26  2  0  0  0
 25 27  1  0  0  0
 27 32  2  0  0  0
 27 28  1  0  0  0
 28 29  2  0  0  0
 28 56  1  0  0  0
 29 30  1  0  0  0
 29 57  1  0  0  0
 30 31  2  0  0  0
 30 33  1  0  0  0
 31 32  1  0  0  0
 31 58  1  0  0  0
 32 59  1  0  0  0
 33 34  1  0  0  0
 34 60  1  0  0  0
 34 61  1  0  0  0
 34 62  1  0  0  0
M  CHG  1  23  -1
M  END
> <i_i_glide_confnum>
119

> <i_i_glide_lignum>
5674

> <i_i_glide_posenum>
114

> <i_i_glide_rotatable_bonds>
7

> <i_m_Source_File_Index>
505

> <b_m_subgroup_collapsed>
0

> <r_i_docking_score>
-5.42861

> <r_i_glide_ecoul>
-4.23578

> <r_i_glide_eff_state_penalty>
0

> <r_i_glide_einternal>
16.5935

> <r_i_glide_emodel>
-42.3062

> <r_i_glide_energy>
-37.1383

> <r_i_glide_erotb>
0.478326

> <r_i_glide_esite>
-0.0595846

> <r_i_glide_evdw>
-32.9025

> <r_i_glide_gscore>
-5.42861

> <r_i_glide_hbond>
-0.348003

> <r_i_glide_ligand_efficiency>
-0.159665

> <r_i_glide_ligand_efficiency_ln>
-1.19933

> <r_i_glide_ligand_efficiency_sa>
-0.517252

> <r_i_glide_lipo>
-2.52416

> <r_i_glide_metal>
0

> <r_i_glide_rewards>
-0.694688

> <s_i_glide_gridfile>
wee1_glide-grid

> <s_m_Source_File>
wee1_decoys_glide_SP.sdf

> <s_m_Source_Path>
/Users/zhangxujun/Desktop

> <s_m_entry_id>
780

> <s_m_entry_name>
wee1_decoys_glide_SP.505

> <s_m_subgroup_title>
wee1_decoys_glide_SP

> <s_m_subgroupid>
wee1_decoys_glide_SP


$$$$
