ZINC33713307_164
                    3D
 Schrodinger Suite 2024-2.
 62 66  0  0  1  0            999 V2000
    0.6121   51.6999   28.7330 C   0  0  0  0  0  0
    0.1197   51.7845   27.2925 C   0  0  0  0  0  0
    0.6778   52.4963   26.2768 C   0  0  0  0  0  0
    0.0205   52.4971   24.8669 C   0  0  2  0  0  0
   -0.1402   53.5377   24.5770 H   0  0  0  0  0  0
   -1.3336   51.8896   24.9302 N   0  0  0  0  0  0
   -2.2208   52.2761   23.8164 C   0  0  0  0  0  0
   -3.0833   51.0715   23.3874 C   0  0  0  0  0  0
   -4.0016   50.5310   24.4918 C   0  0  0  0  0  0
   -3.0346   49.9401   25.8991 S   0  0  0  0  0  0
   -1.7338   51.0835   25.9291 C   0  0  0  0  0  0
   -1.0015   51.0247   27.0437 N   0  3  0  0  0  0
    0.8668   51.8560   23.7664 C   0  0  0  0  0  0
    1.1061   50.4782   23.7849 C   0  0  0  0  0  0
    1.9063   49.8944   22.8076 C   0  0  0  0  0  0
    2.4845   50.6789   21.8119 C   0  0  0  0  0  0
    2.2538   52.0606   21.7877 C   0  0  0  0  0  0
    1.4135   52.6386   22.7415 C   0  0  0  0  0  0
    2.8415   52.8962   20.8298 N   0  0  0  0  0  0
    4.1318   52.8577   20.4403 C   0  0  0  0  0  0
    4.9848   52.1376   20.9665 O   0  0  0  0  0  0
    4.5148   53.8798   19.3562 C   0  0  0  0  0  0
    5.9201   53.6967   18.7484 C   0  0  0  0  0  0
    5.2821   54.0657   17.3981 C   0  0  0  0  0  0
    3.9520   53.5385   17.9637 C   0  0  0  0  0  0
    1.8428   53.3581   26.5087 C   0  0  0  0  0  0
    1.9873   53.9946   27.5546 O   0  0  0  0  0  0
    2.7187   53.4083   25.4847 N   0  0  0  0  0  0
    3.9875   54.0141   25.3991 C   0  0  0  0  0  0
    4.7454   54.4307   26.5053 C   0  0  0  0  0  0
    6.0467   54.8949   26.3203 C   0  0  0  0  0  0
    6.5910   54.9356   25.0375 C   0  0  0  0  0  0
    5.8473   54.5224   23.9371 C   0  0  0  0  0  0
    4.5407   54.0852   24.1183 C   0  0  0  0  0  0
    1.6893   51.5377   28.7702 H   0  0  0  0  0  0
    0.3863   52.6268   29.2597 H   0  0  0  0  0  0
    0.1356   50.8948   29.2852 H   0  0  0  0  0  0
   -2.8389   53.1057   24.1617 H   0  0  0  0  0  0
   -1.6276   52.6324   22.9728 H   0  0  0  0  0  0
   -3.6935   51.3497   22.5279 H   0  0  0  0  0  0
   -2.4341   50.2695   23.0273 H   0  0  0  0  0  0
   -4.6723   51.3081   24.8615 H   0  0  0  0  0  0
   -4.6172   49.7024   24.1383 H   0  0  0  0  0  0
    0.6907   49.8587   24.5680 H   0  0  0  0  0  0
    2.1061   48.8357   22.8355 H   0  0  0  0  0  0
    3.1191   50.2143   21.0699 H   0  0  0  0  0  0
    1.2330   53.7044   22.7169 H   0  0  0  0  0  0
    2.2742   53.6595   20.4796 H   0  0  0  0  0  0
    4.3209   54.9035   19.6822 H   0  0  0  0  0  0
    6.3004   52.6702   18.7480 H   0  0  0  0  0  0
    6.6937   54.3711   19.1171 H   0  0  0  0  0  0
    5.6711   53.5302   16.5307 H   0  0  0  0  0  0
    5.2804   55.1374   17.1879 H   0  0  0  0  0  0
    3.0509   54.0772   17.6666 H   0  0  0  0  0  0
    3.8224   52.4691   17.7667 H   0  0  0  0  0  0
    2.4399   52.9059   24.6543 H   0  0  0  0  0  0
    4.3648   54.3680   27.5128 H   0  0  0  0  0  0
    6.6324   55.2064   27.1740 H   0  0  0  0  0  0
    7.5997   55.2840   24.8811 H   0  0  0  0  0  0
    6.2786   54.5464   22.9467 H   0  0  0  0  0  0
    3.9822   53.7546   23.2570 H   0  0  0  0  0  0
   -1.2942   50.3323   27.7280 H   0  0  0  0  0  0
  1  2  1  0  0  0
  1 35  1  0  0  0
  1 36  1  0  0  0
  1 37  1  0  0  0
  2 12  1  0  0  0
  2  3  2  0  0  0
  3  4  1  0  0  0
  3 26  1  0  0  0
  4  5  1  0  0  0
  4  6  1  0  0  0
  4 13  1  0  0  0
  6 11  1  0  0  0
  6  7  1  0  0  0
  7  8  1  0  0  0
  7 38  1  0  0  0
  7 39  1  0  0  0
  8  9  1  0  0  0
  8 40  1  0  0  0
  8 41  1  0  0  0
  9 10  1  0  0  0
  9 42  1  0  0  0
  9 43  1  0  0  0
 10 11  1  0  0  0
 11 12  2  0  0  0
 12 62  1  0  0  0
 13 18  2  0  0  0
 13 14  1  0  0  0
 14 15  2  0  0  0
 14 44  1  0  0  0
 15 16  1  0  0  0
 15 45  1  0  0  0
 16 17  2  0  0  0
 16 46  1  0  0  0
 17 18  1  0  0  0
 17 19  1  0  0  0
 18 47  1  0  0  0
 19 20  1  0  0  0
 19 48  1  0  0  0
 20 21  2  0  0  0
 20 22  1  0  0  0
 22 25  1  0  0  0
 22 23  1  0  0  0
 22 49  1  0  0  0
 23 24  1  0  0  0
 23 50  1  0  0  0
 23 51  1  0  0  0
 24 25  1  0  0  0
 24 52  1  0  0  0
 24 53  1  0  0  0
 25 54  1  0  0  0
 25 55  1  0  0  0
 26 27  2  0  0  0
 26 28  1  0  0  0
 28 29  1  0  0  0
 28 56  1  0  0  0
 29 34  2  0  0  0
 29 30  1  0  0  0
 30 31  2  0  0  0
 30 57  1  0  0  0
 31 32  1  0  0  0
 31 58  1  0  0  0
 32 33  2  0  0  0
 32 59  1  0  0  0
 33 34  1  0  0  0
 33 60  1  0  0  0
 34 61  1  0  0  0
M  CHG  1  12   1
M  END
> <i_i_glide_confnum>
223

> <i_i_glide_lignum>
165

> <i_i_glide_posenum>
129

> <i_i_glide_rotatable_bonds>
7

> <i_m_Source_File_Index>
1982

> <b_m_subgroup_collapsed>
0

> <r_i_docking_score>
-5.73007

> <r_i_glide_ecoul>
-4.97021

> <r_i_glide_eff_state_penalty>
0

> <r_i_glide_einternal>
12.393

> <r_i_glide_emodel>
-60.9241

> <r_i_glide_energy>
-49.1058

> <r_i_glide_erotb>
0.661563

> <r_i_glide_esite>
-0.142613

> <r_i_glide_evdw>
-44.1356

> <r_i_glide_gscore>
-5.73007

> <r_i_glide_hbond>
-0.497739

> <r_i_glide_ligand_efficiency>
-0.173638

> <r_i_glide_ligand_efficiency_ln>
-1.27434

> <r_i_glide_ligand_efficiency_sa>
-0.556951

> <r_i_glide_lipo>
-2.49076

> <r_i_glide_metal>
0

> <r_i_glide_rewards>
-0.308209

> <s_i_glide_gridfile>
wee1_glide-grid

> <s_m_Source_File>
wee1_decoys_glide_SP.sdf

> <s_m_Source_Path>
/Users/zhangxujun/Desktop

> <s_m_entry_id>
2257

> <s_m_entry_name>
wee1_decoys_glide_SP.1982

> <s_m_subgroup_title>
wee1_decoys_glide_SP

> <s_m_subgroupid>
wee1_decoys_glide_SP


$$$$
