ZINC34835397_4036
                    3D
 Schrodinger Suite 2024-2.
 70 74  0  0  1  0            999 V2000
   -6.8095   50.1284   18.5364 C   0  0  0  0  0  0
   -5.6545   50.9531   19.1410 C   0  0  0  0  0  0
   -4.3325   50.1895   19.2719 C   0  0  0  0  0  0
   -4.2415   48.9827   19.0352 O   0  0  0  0  0  0
   -3.3216   50.9941   19.6706 O   0  0  0  0  0  0
   -2.0072   50.4696   19.8601 C   0  0  0  0  0  0
   -1.2623   51.2207   20.9766 C   0  0  0  0  0  0
   -1.6929   52.2824   21.4272 O   0  0  0  0  0  0
   -0.0019   50.5065   21.5728 C   0  0  2  0  0  0
    0.3993   50.9017   23.0037 C   0  0  1  0  0  0
    1.2227   50.2962   23.3951 H   0  0  0  0  0  0
    1.0041   52.3047   22.9393 C   0  0  0  0  0  0
    1.5684   52.3328   21.4872 C   0  0  2  0  0  0
    0.8478   52.9710   20.9701 H   0  0  0  0  0  0
    1.3383   50.9123   20.8317 C   0  0  2  0  0  0
    1.3682   51.1625   19.2810 C   0  0  0  0  0  0
    2.4435   52.1969   18.7652 C   0  0  1  0  0  0
    1.9127   53.1143   18.5076 H   0  0  0  0  0  0
    3.5607   52.6149   19.7944 C   0  0  2  0  0  0
    2.9221   53.0435   21.1533 C   0  0  2  0  0  0
    2.7052   54.0969   21.0453 H   0  0  0  0  0  0
    3.9813   53.0522   22.2583 C   0  0  0  0  0  0
    5.4340   53.3222   21.8174 C   0  0  1  0  0  0
    5.9047   52.3689   21.5879 H   0  0  0  0  0  0
    5.4436   54.2180   20.5703 C   0  0  0  0  0  0
    6.0324   55.4413   20.5351 C   0  0  0  0  0  0
    5.9279   56.3695   19.4087 C   0  0  0  0  0  0
    6.6347   57.3701   19.3084 O   0  0  0  0  0  0
    4.8461   56.0177   18.4838 C   0  0  0  0  0  0
    4.2497   54.8037   18.4692 C   0  0  0  0  0  0
    4.7158   53.6147   19.3249 C   0  0  2  0  0  0
    5.8105   52.9132   18.4682 C   0  0  0  0  0  0
    6.1111   53.8867   22.8225 F   0  0  0  0  0  0
    4.2065   51.4865   20.0821 F   0  0  0  0  0  0
    2.9262   51.7505   17.5151 O   0  0  0  0  0  0
    2.4039   49.8104   21.1651 C   0  0  0  0  0  0
   -0.7099   50.4694   23.7533 O   0  0  0  0  0  0
   -0.9995   49.2043   23.2059 C   0  0  0  0  0  0
   -0.3810   49.1732   21.9259 O   0  0  0  0  0  0
   -2.5130   49.0379   23.0927 C   0  0  0  0  0  0
   -0.3783   48.1174   24.0801 C   0  0  0  0  0  0
   -6.5623   49.7705   17.5347 H   0  0  0  0  0  0
   -7.0461   49.2592   19.1550 H   0  0  0  0  0  0
   -7.7163   50.7319   18.4538 H   0  0  0  0  0  0
   -5.4817   51.8397   18.5314 H   0  0  0  0  0  0
   -5.9433   51.2953   20.1341 H   0  0  0  0  0  0
   -2.0338   49.4089   20.1163 H   0  0  0  0  0  0
   -1.4608   50.5782   18.9243 H   0  0  0  0  0  0
    0.2407   53.0593   23.1315 H   0  0  0  0  0  0
    1.7885   52.3741   23.6931 H   0  0  0  0  0  0
    1.3699   50.2204   18.7308 H   0  0  0  0  0  0
    0.4360   51.6205   18.9548 H   0  0  0  0  0  0
    3.6766   53.5930   23.1540 H   0  0  0  0  0  0
    4.0017   52.0025   22.4817 H   0  0  0  0  0  0
    6.5404   55.7903   21.4218 H   0  0  0  0  0  0
    4.4842   56.7696   17.7988 H   0  0  0  0  0  0
    3.4701   54.6462   17.7383 H   0  0  0  0  0  0
    5.4055   52.4979   17.5462 H   0  0  0  0  0  0
    6.6049   53.6004   18.1729 H   0  0  0  0  0  0
    6.3045   52.1019   19.0004 H   0  0  0  0  0  0
    3.6707   51.1417   17.6577 H   0  0  0  0  0  0
    1.9610   48.8603   21.4588 H   0  0  0  0  0  0
    3.0273   49.5520   20.3101 H   0  0  0  0  0  0
    3.0659   50.0950   21.9794 H   0  0  0  0  0  0
   -2.9747   49.8954   22.6057 H   0  0  0  0  0  0
   -2.7479   48.1389   22.5221 H   0  0  0  0  0  0
   -2.9508   48.9509   24.0877 H   0  0  0  0  0  0
   -0.7429   48.2048   25.1044 H   0  0  0  0  0  0
   -0.6397   47.1321   23.6940 H   0  0  0  0  0  0
    0.7054   48.2066   24.0965 H   0  0  0  0  0  0
  1  2  1  0  0  0
  1 42  1  0  0  0
  1 43  1  0  0  0
  1 44  1  0  0  0
  2  3  1  0  0  0
  2 45  1  0  0  0
  2 46  1  0  0  0
  3  4  2  0  0  0
  3  5  1  0  0  0
  5  6  1  0  0  0
  6  7  1  0  0  0
  6 47  1  0  0  0
  6 48  1  0  0  0
  7  8  2  0  0  0
  7  9  1  0  0  0
  9 15  1  0  0  0
  9 39  1  0  0  0
  9 10  1  0  0  0
 10 11  1  0  0  0
 10 12  1  0  0  0
 10 37  1  0  0  0
 12 13  1  0  0  0
 12 49  1  0  0  0
 12 50  1  0  0  0
 13 14  1  0  0  0
 13 20  1  0  0  0
 13 15  1  0  0  0
 15 16  1  0  0  0
 15 36  1  0  0  0
 16 17  1  0  0  0
 16 51  1  0  0  0
 16 52  1  0  0  0
 17 18  1  0  0  0
 17 19  1  0  0  0
 17 35  1  0  0  0
 19 31  1  0  0  0
 19 20  1  0  0  0
 19 34  1  0  0  0
 20 21  1  0  0  0
 20 22  1  0  0  0
 22 23  1  0  0  0
 22 53  1  0  0  0
 22 54  1  0  0  0
 23 24  1  0  0  0
 23 25  1  0  0  0
 23 33  1  0  0  0
 25 31  1  0  0  0
 25 26  2  0  0  0
 26 27  1  0  0  0
 26 55  1  0  0  0
 27 28  2  0  0  0
 27 29  1  0  0  0
 29 30  2  0  0  0
 29 56  1  0  0  0
 30 31  1  0  0  0
 30 57  1  0  0  0
 31 32  1  0  0  0
 32 58  1  0  0  0
 32 59  1  0  0  0
 32 60  1  0  0  0
 35 61  1  0  0  0
 36 62  1  0  0  0
 36 63  1  0  0  0
 36 64  1  0  0  0
 37 38  1  0  0  0
 38 39  1  0  0  0
 38 40  1  0  0  0
 38 41  1  0  0  0
 40 65  1  0  0  0
 40 66  1  0  0  0
 40 67  1  0  0  0
 41 68  1  0  0  0
 41 69  1  0  0  0
 41 70  1  0  0  0
M  END
> <i_i_glide_confnum>
2

> <i_i_glide_lignum>
4037

> <i_i_glide_posenum>
282

> <i_i_glide_rotatable_bonds>
6

> <i_m_Source_File_Index>
1119

> <b_m_subgroup_collapsed>
0

> <r_i_docking_score>
-3.52952

> <r_i_glide_ecoul>
-6.72569

> <r_i_glide_eff_state_penalty>
0

> <r_i_glide_einternal>
5.5247

> <r_i_glide_emodel>
-32.7053

> <r_i_glide_energy>
-29.1262

> <r_i_glide_erotb>
0.31666

> <r_i_glide_esite>
-0.107687

> <r_i_glide_evdw>
-22.4005

> <r_i_glide_gscore>
-3.52952

> <r_i_glide_hbond>
-0.290693

> <r_i_glide_ligand_efficiency>
-0.0980422

> <r_i_glide_ligand_efficiency_ln>
-0.770046

> <r_i_glide_ligand_efficiency_sa>
-0.323728

> <r_i_glide_lipo>
-0.833829

> <r_i_glide_metal>
0

> <r_i_glide_rewards>
-0.485091

> <s_i_glide_gridfile>
wee1_glide-grid

> <s_m_Source_File>
wee1_decoys_glide_SP.sdf

> <s_m_Source_Path>
/Users/zhangxujun/Desktop

> <s_m_entry_id>
1394

> <s_m_entry_name>
wee1_decoys_glide_SP.1119

> <s_m_subgroup_title>
wee1_decoys_glide_SP

> <s_m_subgroupid>
wee1_decoys_glide_SP


$$$$
