ZINC16363895_4877
                    3D
 Schrodinger Suite 2024-2.
 70 75  0  0  1  0            999 V2000
    1.9958   54.2663   27.9954 C   0  0  0  0  0  0
    3.4022   54.2012   27.6031 N   0  0  0  0  0  0
    3.8976   54.2649   26.3201 C   0  0  0  0  0  0
    3.2771   54.3958   25.0820 C   0  0  0  0  0  0
    4.0779   54.4604   23.9401 C   0  0  0  0  0  0
    5.4838   54.3860   24.0360 C   0  0  0  0  0  0
    6.0736   54.2272   25.2963 C   0  0  0  0  0  0
    5.2552   54.1669   26.4212 C   0  0  0  0  0  0
    5.5422   54.0207   27.7547 N   0  0  0  0  0  0
    4.4090   54.0684   28.5073 C   0  0  0  0  0  0
    4.3043   54.0064   29.7348 O   0  0  0  0  0  0
    6.8825   53.8621   28.3053 C   0  0  0  0  0  0
    6.3933   54.4815   22.8074 C   0  0  1  0  0  0
    7.1404   53.6861   22.8824 H   0  0  0  0  0  0
    5.6813   54.3267   21.4533 C   0  0  0  0  0  0
    5.0917   53.0291   21.4253 O   0  0  0  0  0  0
    4.2048   52.7183   20.4211 C   0  0  0  0  0  0
    3.5833   51.4757   20.5121 C   0  0  0  0  0  0
    2.7037   51.0532   19.5220 C   0  0  0  0  0  0
    2.4304   51.8882   18.4367 C   0  0  0  0  0  0
    3.0039   53.1601   18.3731 C   0  0  0  0  0  0
    3.9052   53.5678   19.3489 C   0  0  0  0  0  0
    1.5206   51.4118   17.3218 C   0  0  0  0  0  0
    3.0635   51.9415   15.2413 C   0  0  1  0  0  0
    3.8394   51.1751   14.1234 C   0  0  1  0  0  0
    2.8641   50.4262   13.1669 C   0  0  0  0  0  0
    1.8988   51.4432   12.5040 C   0  0  2  0  0  0
    2.7242   52.4745   11.6871 C   0  0  0  0  0  0
    3.7018   53.2267   12.6287 C   0  0  2  0  0  0
    4.6589   52.2054   13.2989 C   0  0  0  0  0  0
    2.8900   53.9634   13.7295 C   0  0  0  0  0  0
    2.0690   52.9360   14.5582 C   0  0  1  0  0  0
    1.0921   52.1908   13.6011 C   0  0  0  0  0  0
    7.1045   55.6966   22.7815 O   0  0  0  0  0  0
    1.5989   55.2605   27.7958 H   0  0  0  0  0  0
    1.4161   53.5440   27.4220 H   0  0  0  0  0  0
    1.8470   54.0502   29.0547 H   0  0  0  0  0  0
    2.2023   54.4627   24.9871 H   0  0  0  0  0  0
    3.5822   54.5741   22.9892 H   0  0  0  0  0  0
    7.1459   54.1583   25.3818 H   0  0  0  0  0  0
    7.5730   54.5347   27.7997 H   0  0  0  0  0  0
    7.2303   52.8420   28.1518 H   0  0  0  0  0  0
    6.9263   54.0967   29.3642 H   0  0  0  0  0  0
    4.9405   55.1190   21.3358 H   0  0  0  0  0  0
    6.3901   54.4448   20.6323 H   0  0  0  0  0  0
    3.8057   50.8232   21.3425 H   0  0  0  0  0  0
    2.2633   50.0681   19.5853 H   0  0  0  0  0  0
    2.7776   53.8243   17.5531 H   0  0  0  0  0  0
    4.3569   54.5416   19.2480 H   0  0  0  0  0  0
    0.9260   50.5511   17.6312 H   0  0  0  0  0  0
    0.8452   52.1932   16.9724 H   0  0  0  0  0  0
    3.7956   52.4138   15.9001 H   0  0  0  0  0  0
    4.5363   50.4680   14.5702 H   0  0  0  0  0  0
    3.4291   49.8937   12.4014 H   0  0  0  0  0  0
    2.3047   49.6572   13.7022 H   0  0  0  0  0  0
    1.2122   50.9186   11.8384 H   0  0  0  0  0  0
    2.0600   53.1847   11.1908 H   0  0  0  0  0  0
    3.2800   51.9707   10.8929 H   0  0  0  0  0  0
    4.2839   53.9499   12.0558 H   0  0  0  0  0  0
    5.3748   52.7208   13.9429 H   0  0  0  0  0  0
    5.2572   51.6942   12.5433 H   0  0  0  0  0  0
    2.2268   54.7028   13.2761 H   0  0  0  0  0  0
    3.5616   54.5281   14.3811 H   0  0  0  0  0  0
    1.5004   53.4893   15.3070 H   0  0  0  0  0  0
    0.4606   51.4916   14.1540 H   0  0  0  0  0  0
    0.4075   52.9047   13.1377 H   0  0  0  0  0  0
    7.9952   55.5479   23.1322 H   0  0  0  0  0  0
    2.3041   50.8970   16.0962 N   0  3  0  0  0  0
    2.9937   50.1975   16.4032 H   0  0  0  0  0  0
    1.6727   50.4064   15.4830 H   0  0  0  0  0  0
  1  2  1  0  0  0
  1 35  1  0  0  0
  1 36  1  0  0  0
  1 37  1  0  0  0
  2 10  1  0  0  0
  2  3  1  0  0  0
  3  8  2  0  0  0
  3  4  1  0  0  0
  4  5  2  0  0  0
  4 38  1  0  0  0
  5  6  1  0  0  0
  5 39  1  0  0  0
  6  7  2  0  0  0
  6 13  1  0  0  0
  7  8  1  0  0  0
  7 40  1  0  0  0
  8  9  1  0  0  0
  9 10  1  0  0  0
  9 12  1  0  0  0
 10 11  2  0  0  0
 12 41  1  0  0  0
 12 42  1  0  0  0
 12 43  1  0  0  0
 13 14  1  0  0  0
 13 15  1  0  0  0
 13 34  1  0  0  0
 15 16  1  0  0  0
 15 44  1  0  0  0
 15 45  1  0  0  0
 16 17  1  0  0  0
 17 22  2  0  0  0
 17 18  1  0  0  0
 18 19  2  0  0  0
 18 46  1  0  0  0
 19 20  1  0  0  0
 19 47  1  0  0  0
 20 21  2  0  0  0
 20 23  1  0  0  0
 21 22  1  0  0  0
 21 48  1  0  0  0
 22 49  1  0  0  0
 23 50  1  0  0  0
 23 51  1  0  0  0
 23 68  1  0  0  0
 24 32  1  0  0  0
 24 25  1  0  0  0
 24 52  1  0  0  0
 24 68  1  0  0  0
 25 30  1  0  0  0
 25 26  1  0  0  0
 25 53  1  0  0  0
 26 27  1  0  0  0
 26 54  1  0  0  0
 26 55  1  0  0  0
 27 33  1  0  0  0
 27 28  1  0  0  0
 27 56  1  0  0  0
 28 29  1  0  0  0
 28 57  1  0  0  0
 28 58  1  0  0  0
 29 30  1  0  0  0
 29 31  1  0  0  0
 29 59  1  0  0  0
 30 60  1  0  0  0
 30 61  1  0  0  0
 31 32  1  0  0  0
 31 62  1  0  0  0
 31 63  1  0  0  0
 32 33  1  0  0  0
 32 64  1  0  0  0
 33 65  1  0  0  0
 33 66  1  0  0  0
 34 67  1  0  0  0
 68 69  1  0  0  0
 68 70  1  0  0  0
M  CHG  1  68   1
M  END
> <i_i_glide_confnum>
92

> <i_i_glide_lignum>
4878

> <i_i_glide_posenum>
69

> <i_i_glide_rotatable_bonds>
8

> <i_m_Source_File_Index>
4159

> <b_m_subgroup_collapsed>
0

> <r_i_docking_score>
-6.99295

> <r_i_glide_ecoul>
-9.38572

> <r_i_glide_eff_state_penalty>
0

> <r_i_glide_einternal>
7.6193

> <r_i_glide_emodel>
-63.0268

> <r_i_glide_energy>
-44.6877

> <r_i_glide_erotb>
0.65895

> <r_i_glide_esite>
-0.1

> <r_i_glide_evdw>
-35.302

> <r_i_glide_gscore>
-6.99295

> <r_i_glide_hbond>
-0.52

> <r_i_glide_ligand_efficiency>
-0.205675

> <r_i_glide_ligand_efficiency_ln>
-1.54494

> <r_i_glide_ligand_efficiency_sa>
-0.666307

> <r_i_glide_lipo>
-2.39258

> <r_i_glide_metal>
0

> <r_i_glide_rewards>
-1.46636

> <s_i_glide_gridfile>
wee1_glide-grid

> <s_m_Source_File>
wee1_decoys_glide_SP.sdf

> <s_m_Source_Path>
/Users/zhangxujun/Desktop

> <s_m_entry_id>
4434

> <s_m_entry_name>
wee1_decoys_glide_SP.4159

> <s_m_subgroup_title>
wee1_decoys_glide_SP

> <s_m_subgroupid>
wee1_decoys_glide_SP


$$$$
