ZINC16220331_2380
                    3D
 Schrodinger Suite 2024-2.
 53 56  0  0  1  0            999 V2000
   -2.0477   51.0092   27.4042 C   0  0  0  0  0  0
   -0.6856   51.5709   27.7870 C   0  0  0  0  0  0
   -0.5050   52.0813   29.0772 C   0  0  0  0  0  0
    0.7260   52.5871   29.4808 C   0  0  0  0  0  0
    1.8026   52.5931   28.5927 C   0  0  0  0  0  0
    1.6292   52.0973   27.3031 C   0  0  0  0  0  0
    0.3987   51.5664   26.8928 C   0  0  0  0  0  0
    0.3047   50.9321   25.6359 N   0  0  0  0  0  0
    0.5448   51.4225   24.3813 C   0  0  0  0  0  0
    0.7224   53.0571   24.0413 S   0  0  0  0  0  0
    0.6557   50.4264   23.4488 N   0  0  0  0  0  0
    1.0487   50.6319   22.0405 C   0  0  2  0  0  0
    1.7606   51.4507   21.9172 H   0  0  0  0  0  0
   -0.1622   50.8227   21.0904 C   0  0  0  0  0  0
    0.0561   49.7293   20.0221 C   0  0  1  0  0  0
   -0.8358   49.5066   19.4353 H   0  0  0  0  0  0
    1.2984   50.0469   19.1598 C   0  0  0  0  0  0
    2.4661   49.7661   20.1284 C   0  0  0  0  0  0
    1.7351   49.3767   21.4360 C   0  0  2  0  0  0
    2.3759   48.8362   22.1359 H   0  0  0  0  0  0
    0.5572   48.5749   20.8814 C   0  0  0  0  0  0
    3.4034   53.1809   29.1315 S   0  0  0  0  0  0
    3.2208   53.6967   30.4817 O   0  0  0  0  0  0
    4.4036   52.1434   28.8818 O   0  0  0  0  0  0
    3.8036   54.5853   28.1498 N   0  0  0  0  0  0
    4.4558   54.4964   26.9207 C   0  0  0  0  0  0
    3.7093   54.4870   25.7459 C   0  0  0  0  0  0
    4.3515   54.4760   24.5112 C   0  0  0  0  0  0
    5.7428   54.4776   24.4602 C   0  0  0  0  0  0
    6.4908   54.4887   25.6346 C   0  0  0  0  0  0
    5.8496   54.4974   26.8712 C   0  0  0  0  0  0
    6.5472   54.4681   22.9335 Cl  0  0  0  0  0  0
   -2.6462   50.7645   28.2841 H   0  0  0  0  0  0
   -2.5927   51.7180   26.7798 H   0  0  0  0  0  0
   -1.9387   50.0811   26.8462 H   0  0  0  0  0  0
   -1.3121   52.0587   29.7922 H   0  0  0  0  0  0
    0.8352   52.9498   30.4931 H   0  0  0  0  0  0
    2.4698   52.0967   26.6281 H   0  0  0  0  0  0
   -0.0132   49.9747   25.6878 H   0  0  0  0  0  0
    0.5098   49.4724   23.7445 H   0  0  0  0  0  0
   -0.1929   51.8230   20.6568 H   0  0  0  0  0  0
   -1.1119   50.6511   21.6010 H   0  0  0  0  0  0
    1.2988   51.0756   18.7960 H   0  0  0  0  0  0
    1.3545   49.3917   18.2884 H   0  0  0  0  0  0
    3.0823   48.9469   19.7530 H   0  0  0  0  0  0
    3.1233   50.6280   20.2506 H   0  0  0  0  0  0
   -0.1586   48.2592   21.6435 H   0  0  0  0  0  0
    0.8563   47.6987   20.3010 H   0  0  0  0  0  0
    3.5454   55.4935   28.5015 H   0  0  0  0  0  0
    2.6323   54.4967   25.7925 H   0  0  0  0  0  0
    3.7715   54.4691   23.5994 H   0  0  0  0  0  0
    7.5640   54.4970   25.5780 H   0  0  0  0  0  0
    6.4290   54.5193   27.7839 H   0  0  0  0  0  0
  1  2  1  0  0  0
  1 33  1  0  0  0
  1 34  1  0  0  0
  1 35  1  0  0  0
  2  7  2  0  0  0
  2  3  1  0  0  0
  3  4  2  0  0  0
  3 36  1  0  0  0
  4  5  1  0  0  0
  4 37  1  0  0  0
  5  6  2  0  0  0
  5 22  1  0  0  0
  6  7  1  0  0  0
  6 38  1  0  0  0
  7  8  1  0  0  0
  8  9  1  0  0  0
  8 39  1  0  0  0
  9 10  2  0  0  0
  9 11  1  0  0  0
 11 12  1  0  0  0
 11 40  1  0  0  0
 12 13  1  0  0  0
 12 19  1  0  0  0
 12 14  1  0  0  0
 14 15  1  0  0  0
 14 41  1  0  0  0
 14 42  1  0  0  0
 15 16  1  0  0  0
 15 21  1  0  0  0
 15 17  1  0  0  0
 17 18  1  0  0  0
 17 43  1  0  0  0
 17 44  1  0  0  0
 18 19  1  0  0  0
 18 45  1  0  0  0
 18 46  1  0  0  0
 19 20  1  0  0  0
 19 21  1  0  0  0
 21 47  1  0  0  0
 21 48  1  0  0  0
 22 23  2  0  0  0
 22 24  2  0  0  0
 22 25  1  0  0  0
 25 26  1  0  0  0
 25 49  1  0  0  0
 26 31  2  0  0  0
 26 27  1  0  0  0
 27 28  2  0  0  0
 27 50  1  0  0  0
 28 29  1  0  0  0
 28 51  1  0  0  0
 29 30  2  0  0  0
 29 32  1  0  0  0
 30 31  1  0  0  0
 30 52  1  0  0  0
 31 53  1  0  0  0
M  END
> <i_i_glide_confnum>
78

> <i_i_glide_lignum>
2381

> <i_i_glide_posenum>
226

> <i_i_glide_rotatable_bonds>
7

> <i_m_Source_File_Index>
1646

> <b_m_subgroup_collapsed>
0

> <r_i_docking_score>
-5.18866

> <r_i_glide_ecoul>
-6.07127

> <r_i_glide_eff_state_penalty>
0

> <r_i_glide_einternal>
5.52894

> <r_i_glide_emodel>
-55.1273

> <r_i_glide_energy>
-44.351

> <r_i_glide_erotb>
0.593894

> <r_i_glide_esite>
-0.0399948

> <r_i_glide_evdw>
-38.2797

> <r_i_glide_gscore>
-5.18866

> <r_i_glide_hbond>
0

> <r_i_glide_ligand_efficiency>
-0.178919

> <r_i_glide_ligand_efficiency_ln>
-1.18807

> <r_i_glide_ligand_efficiency_sa>
-0.549697

> <r_i_glide_lipo>
-2.50292

> <r_i_glide_metal>
0

> <r_i_glide_rewards>
-0.414965

> <s_i_glide_gridfile>
wee1_glide-grid

> <s_m_Source_File>
wee1_decoys_glide_SP.sdf

> <s_m_Source_Path>
/Users/zhangxujun/Desktop

> <s_m_entry_id>
1921

> <s_m_entry_name>
wee1_decoys_glide_SP.1646

> <s_m_subgroup_title>
wee1_decoys_glide_SP

> <s_m_subgroupid>
wee1_decoys_glide_SP


$$$$
