ZINC09891529_1997
                    3D
 Schrodinger Suite 2024-2.
 47 49  0  0  1  0            999 V2000
   -0.2734   51.9228   29.9270 C   0  0  0  0  0  0
    0.8077   52.3994   29.0201 N   0  0  0  0  0  0
    2.0846   52.7939   29.4397 C   0  0  0  0  0  0
    2.3111   52.5907   30.6949 O   0  5  0  0  0  0
    3.0301   53.3142   28.6139 C   0  0  0  0  0  0
    4.3666   53.7585   29.0334 C   0  0  0  0  0  0
    5.2700   54.2101   28.1335 C   0  0  0  0  0  0
    4.9311   54.2666   26.7040 C   0  0  0  0  0  0
    3.6773   53.9024   26.3009 C   0  0  0  0  0  0
    2.6679   53.4094   27.2042 C   0  0  0  0  0  0
    1.5053   53.0263   26.8107 N   0  0  0  0  0  0
    0.5216   52.4971   27.6501 C   0  0  0  0  0  0
   -0.9023   52.0276   26.9032 S   0  0  0  0  0  0
    5.9431   54.6648   25.7429 C   0  0  0  0  0  0
    6.7045   55.6189   25.9153 O   0  0  0  0  0  0
    5.9913   53.8758   24.6543 N   0  0  0  0  0  0
    6.8479   54.0260   23.4847 C   0  0  0  0  0  0
    6.4547   55.2578   22.6620 C   0  0  0  0  0  0
    7.0121   55.3158   21.3141 N   0  0  0  0  0  0
    6.3540   54.8964   20.1387 C   0  0  0  0  0  0
    5.0579   54.3593   20.1954 C   0  0  0  0  0  0
    4.4055   53.9161   19.0508 C   0  0  0  0  0  0
    5.0343   53.9939   17.8094 C   0  0  0  0  0  0
    6.3274   54.5161   17.7407 C   0  0  0  0  0  0
    7.0077   54.9795   18.8813 C   0  0  0  0  0  0
    8.3819   55.5386   18.7027 N   0  3  0  0  0  0
    8.9518   56.0807   19.6422 O   0  0  0  0  0  0
    8.9081   55.4528   17.5971 O   0  5  0  0  0  0
    4.3324   53.5139   16.5396 C   0  0  0  0  0  0
    3.3098   52.6989   16.8046 F   0  0  0  0  0  0
    3.8607   54.5776   15.8888 F   0  0  0  0  0  0
    5.1842   52.8730   15.7384 F   0  0  0  0  0  0
   -0.5440   50.8970   29.6874 H   0  0  0  0  0  0
   -0.0091   51.9527   30.9837 H   0  0  0  0  0  0
   -1.1671   52.5360   29.8172 H   0  0  0  0  0  0
    4.6324   53.7378   30.0810 H   0  0  0  0  0  0
    6.2433   54.5355   28.4791 H   0  0  0  0  0  0
    3.4250   53.9491   25.2504 H   0  0  0  0  0  0
    5.3566   53.0908   24.6432 H   0  0  0  0  0  0
    7.9006   54.0370   23.7681 H   0  0  0  0  0  0
    6.7163   53.1293   22.8818 H   0  0  0  0  0  0
    5.3717   55.2967   22.6127 H   0  0  0  0  0  0
    6.7602   56.1532   23.1977 H   0  0  0  0  0  0
    7.9772   55.6137   21.2149 H   0  0  0  0  0  0
    4.5212   54.2566   21.1227 H   0  0  0  0  0  0
    3.4054   53.5157   19.1357 H   0  0  0  0  0  0
    6.8049   54.5682   16.7715 H   0  0  0  0  0  0
  1  2  1  0  0  0
  1 33  1  0  0  0
  1 34  1  0  0  0
  1 35  1  0  0  0
  2 12  1  0  0  0
  2  3  1  0  0  0
  3  4  1  0  0  0
  3  5  2  0  0  0
  5 10  1  0  0  0
  5  6  1  0  0  0
  6  7  2  0  0  0
  6 36  1  0  0  0
  7  8  1  0  0  0
  7 37  1  0  0  0
  8  9  2  0  0  0
  8 14  1  0  0  0
  9 10  1  0  0  0
  9 38  1  0  0  0
 10 11  2  0  0  0
 11 12  1  0  0  0
 12 13  2  0  0  0
 14 15  2  0  0  0
 14 16  1  0  0  0
 16 17  1  0  0  0
 16 39  1  0  0  0
 17 18  1  0  0  0
 17 40  1  0  0  0
 17 41  1  0  0  0
 18 19  1  0  0  0
 18 42  1  0  0  0
 18 43  1  0  0  0
 19 20  1  0  0  0
 19 44  1  0  0  0
 20 25  2  0  0  0
 20 21  1  0  0  0
 21 22  2  0  0  0
 21 45  1  0  0  0
 22 23  1  0  0  0
 22 46  1  0  0  0
 23 24  2  0  0  0
 23 29  1  0  0  0
 24 25  1  0  0  0
 24 47  1  0  0  0
 25 26  1  0  0  0
 26 27  2  0  0  0
 26 28  1  0  0  0
 29 30  1  0  0  0
 29 31  1  0  0  0
 29 32  1  0  0  0
M  CHG  3   4  -1  26   1  28  -1
M  END
> <i_i_glide_confnum>
33

> <i_i_glide_lignum>
1998

> <i_i_glide_posenum>
300

> <i_i_glide_rotatable_bonds>
8

> <i_m_Source_File_Index>
5522

> <b_m_subgroup_collapsed>
0

> <r_i_docking_score>
-5.97616

> <r_i_glide_ecoul>
-2.1207

> <r_i_glide_eff_state_penalty>
0

> <r_i_glide_einternal>
4.56905

> <r_i_glide_emodel>
-65.3423

> <r_i_glide_energy>
-46.9755

> <r_i_glide_erotb>
0.55643

> <r_i_glide_esite>
-0.116267

> <r_i_glide_evdw>
-44.8548

> <r_i_glide_gscore>
-5.97616

> <r_i_glide_hbond>
-0.360076

> <r_i_glide_ligand_efficiency>
-0.186755

> <r_i_glide_ligand_efficiency_ln>
-1.33823

> <r_i_glide_ligand_efficiency_sa>
-0.59291

> <r_i_glide_lipo>
-2.31018

> <r_i_glide_metal>
0

> <r_i_glide_rewards>
-1.18523

> <s_i_glide_gridfile>
wee1_glide-grid

> <s_m_Source_File>
wee1_decoys_glide_SP.sdf

> <s_m_Source_Path>
/Users/zhangxujun/Desktop

> <s_m_entry_id>
5797

> <s_m_entry_name>
wee1_decoys_glide_SP.5522

> <s_m_subgroup_title>
wee1_decoys_glide_SP

> <s_m_subgroupid>
wee1_decoys_glide_SP


$$$$
