ZINC52522886_1332
                    3D
 Schrodinger Suite 2024-2.
 65 66  0  0  1  0            999 V2000
    1.5971   50.6591   21.1620 C   0  0  0  0  0  0
    2.4856   51.7278   21.8205 C   0  0  2  0  0  0
    3.1723   51.2149   22.4816 H   0  0  0  0  0  0
    1.6417   52.7362   22.6328 C   0  0  0  0  0  0
    2.5109   53.8280   23.2880 C   0  0  0  0  0  0
    3.3789   54.5730   22.2430 C   0  0  0  0  0  0
    4.2383   53.6295   21.3383 C   0  0  2  0  0  0
    3.3045   52.5092   20.7693 C   0  0  0  0  0  0
    5.3873   53.0187   22.2011 C   0  0  0  0  0  0
    6.3164   53.9696   22.8110 N   0  0  0  0  0  0
    6.3418   54.5267   24.0257 C   0  0  0  0  0  0
    6.6958   55.7002   24.1200 O   0  0  0  0  0  0
    6.0450   53.7651   25.1012 N   0  0  0  0  0  0
    6.2206   54.2600   26.4819 C   0  0  0  0  0  0
    5.1774   55.3037   26.8321 C   0  0  0  0  0  0
    3.7109   54.8641   27.0123 C   0  0  0  0  0  0
    3.7127   53.8151   28.0427 N   0  0  0  0  0  0
    4.6302   52.7190   27.7397 C   0  0  0  0  0  0
    6.0750   53.2571   27.6309 C   0  0  0  0  0  0
    3.0811   53.9604   29.2379 C   0  0  0  0  0  0
    2.5813   55.0359   29.5814 O   0  0  0  0  0  0
    2.7764   52.7013   30.0951 C   0  0  0  0  0  0
    3.9039   52.3804   31.1001 C   0  0  0  0  0  0
    1.3974   52.7781   30.7971 C   0  0  0  0  0  0
    4.9083   54.3526   20.1023 N   0  3  0  0  0  0
    4.0907   54.5612   18.7907 C   0  0  0  0  0  0
    5.7825   55.6098   20.3631 C   0  0  0  0  0  0
    0.8862   51.1000   20.4629 H   0  0  0  0  0  0
    2.1971   49.9355   20.6082 H   0  0  0  0  0  0
    1.0284   50.1039   21.9068 H   0  0  0  0  0  0
    0.9087   53.2060   21.9758 H   0  0  0  0  0  0
    1.0460   52.2122   23.3800 H   0  0  0  0  0  0
    1.8699   54.5422   23.8097 H   0  0  0  0  0  0
    3.1395   53.3755   24.0581 H   0  0  0  0  0  0
    3.9911   55.2925   22.7590 H   0  0  0  0  0  0
    2.7045   55.1854   21.6817 H   0  0  0  0  0  0
    2.5530   52.9446   20.1099 H   0  0  0  0  0  0
    3.8628   51.8215   20.1276 H   0  0  0  0  0  0
    5.9031   52.2312   21.6555 H   0  0  0  0  0  0
    4.9373   52.4984   23.0164 H   0  0  0  0  0  0
    6.9379   54.4318   22.1588 H   0  0  0  0  0  0
    5.9862   52.7683   24.9818 H   0  0  0  0  0  0
    7.2060   54.7247   26.5568 H   0  0  0  0  0  0
    5.1984   56.0962   26.0835 H   0  0  0  0  0  0
    5.5110   55.6969   27.7885 H   0  0  0  0  0  0
    3.3413   54.4226   26.0857 H   0  0  0  0  0  0
    3.0497   55.6953   27.2669 H   0  0  0  0  0  0
    4.5039   51.8330   28.3576 H   0  0  0  0  0  0
    4.3048   52.4961   26.7311 H   0  0  0  0  0  0
    6.3642   53.7065   28.5860 H   0  0  0  0  0  0
    6.8252   52.4963   27.4790 H   0  0  0  0  0  0
    2.6700   51.8481   29.4239 H   0  0  0  0  0  0
    4.7254   51.8697   30.5992 H   0  0  0  0  0  0
    3.5622   51.7155   31.8952 H   0  0  0  0  0  0
    4.3038   53.2741   31.5840 H   0  0  0  0  0  0
    0.5924   52.8597   30.0653 H   0  0  0  0  0  0
    1.1951   51.8906   31.3968 H   0  0  0  0  0  0
    1.3044   53.6371   31.4616 H   0  0  0  0  0  0
    3.3222   55.3156   18.9327 H   0  0  0  0  0  0
    4.7957   54.9025   18.0321 H   0  0  0  0  0  0
    3.6844   53.6112   18.4500 H   0  0  0  0  0  0
    5.5004   56.0952   21.2910 H   0  0  0  0  0  0
    6.8180   55.2666   20.4131 H   0  0  0  0  0  0
    5.6728   56.3224   19.5432 H   0  0  0  0  0  0
    5.5701   53.6493   19.8013 H   0  0  0  0  0  0
  1  2  1  0  0  0
  1 28  1  0  0  0
  1 29  1  0  0  0
  1 30  1  0  0  0
  2  3  1  0  0  0
  2  8  1  0  0  0
  2  4  1  0  0  0
  4  5  1  0  0  0
  4 31  1  0  0  0
  4 32  1  0  0  0
  5  6  1  0  0  0
  5 33  1  0  0  0
  5 34  1  0  0  0
  6  7  1  0  0  0
  6 35  1  0  0  0
  6 36  1  0  0  0
  7  8  1  0  0  0
  7  9  1  0  0  0
  7 25  1  0  0  0
  8 37  1  0  0  0
  8 38  1  0  0  0
  9 10  1  0  0  0
  9 39  1  0  0  0
  9 40  1  0  0  0
 10 11  1  0  0  0
 10 41  1  0  0  0
 11 12  2  0  0  0
 11 13  1  0  0  0
 13 14  1  0  0  0
 13 42  1  0  0  0
 14 19  1  0  0  0
 14 15  1  0  0  0
 14 43  1  0  0  0
 15 16  1  0  0  0
 15 44  1  0  0  0
 15 45  1  0  0  0
 16 17  1  0  0  0
 16 46  1  0  0  0
 16 47  1  0  0  0
 17 18  1  0  0  0
 17 20  1  0  0  0
 18 19  1  0  0  0
 18 48  1  0  0  0
 18 49  1  0  0  0
 19 50  1  0  0  0
 19 51  1  0  0  0
 20 21  2  0  0  0
 20 22  1  0  0  0
 22 23  1  0  0  0
 22 24  1  0  0  0
 22 52  1  0  0  0
 23 53  1  0  0  0
 23 54  1  0  0  0
 23 55  1  0  0  0
 24 56  1  0  0  0
 24 57  1  0  0  0
 24 58  1  0  0  0
 25 26  1  0  0  0
 25 27  1  0  0  0
 25 65  1  0  0  0
 26 59  1  0  0  0
 26 60  1  0  0  0
 26 61  1  0  0  0
 27 62  1  0  0  0
 27 63  1  0  0  0
 27 64  1  0  0  0
M  CHG  1  25   1
M  END
> <i_i_glide_confnum>
52

> <i_i_glide_lignum>
1333

> <i_i_glide_posenum>
344

> <i_i_glide_rotatable_bonds>
8

> <i_m_Source_File_Index>
2596

> <b_m_subgroup_collapsed>
0

> <r_i_docking_score>
-2.84151

> <r_i_glide_ecoul>
-1.72673

> <r_i_glide_eff_state_penalty>
0

> <r_i_glide_einternal>
10.1728

> <r_i_glide_emodel>
-21.8892

> <r_i_glide_energy>
-27.0534

> <r_i_glide_erotb>
0.85541

> <r_i_glide_esite>
0

> <r_i_glide_evdw>
-25.3267

> <r_i_glide_gscore>
-2.84151

> <r_i_glide_hbond>
-0.0757551

> <r_i_glide_ligand_efficiency>
-0.109289

> <r_i_glide_ligand_efficiency_ln>
-0.66732

> <r_i_glide_ligand_efficiency_sa>
-0.323768

> <r_i_glide_lipo>
-2.10664

> <r_i_glide_metal>
0

> <r_i_glide_rewards>
0.0108157

> <s_i_glide_gridfile>
wee1_glide-grid

> <s_m_Source_File>
wee1_decoys_glide_SP.sdf

> <s_m_Source_Path>
/Users/zhangxujun/Desktop

> <s_m_entry_id>
2871

> <s_m_entry_name>
wee1_decoys_glide_SP.2596

> <s_m_subgroup_title>
wee1_decoys_glide_SP

> <s_m_subgroupid>
wee1_decoys_glide_SP


$$$$
