ZINC04833256_2132
                    3D
 Schrodinger Suite 2024-2.
 42 43  0  0  1  0            999 V2000
    4.0627   52.1136   31.2688 C   0  0  0  0  0  0
    2.9378   52.0969   30.4017 O   0  0  0  0  0  0
    3.0445   52.6098   29.1197 C   0  0  0  0  0  0
    4.1927   53.2546   28.6297 C   0  0  0  0  0  0
    4.2522   53.6965   27.3094 C   0  0  0  0  0  0
    3.1587   53.5219   26.4518 C   0  0  0  0  0  0
    1.9953   52.9220   26.9545 C   0  0  0  0  0  0
    1.9351   52.4454   28.2764 C   0  0  0  0  0  0
    0.8384   51.7895   28.8090 O   0  0  0  0  0  0
   -0.2622   51.4505   27.9722 C   0  0  0  0  0  0
    3.2215   53.9601   25.0100 C   0  0  0  0  0  0
    2.2542   54.4967   24.4816 O   0  0  0  0  0  0
    4.3701   53.6967   24.3594 N   0  0  0  0  0  0
    4.8066   54.1980   23.0473 C   0  0  1  0  0  0
    4.0943   54.9358   22.6770 H   0  0  0  0  0  0
    6.2275   54.8442   23.1650 C   0  0  0  0  0  0
    6.3044   56.0507   24.4830 Cl  0  0  0  0  0  0
    7.4513   53.5954   23.5299 Cl  0  0  0  0  0  0
    6.6674   55.6532   21.6352 Cl  0  0  0  0  0  0
    4.7999   53.1383   22.0080 N   0  0  0  0  0  0
    3.6755   52.5285   21.3675 C   0  0  0  0  0  0
    2.3396   52.7990   21.6881 C   0  0  0  0  0  0
    1.3044   52.1354   21.0229 C   0  0  0  0  0  0
    1.6094   51.2234   20.0122 C   0  0  0  0  0  0
    2.9457   51.0023   19.6830 C   0  0  0  0  0  0
    3.8329   51.5409   32.1664 H   0  0  0  0  0  0
    4.3041   53.1302   31.5749 H   0  0  0  0  0  0
    4.9414   51.6652   30.8069 H   0  0  0  0  0  0
    5.0593   53.4066   29.2547 H   0  0  0  0  0  0
    5.1584   54.1745   26.9632 H   0  0  0  0  0  0
    1.1486   52.7962   26.2956 H   0  0  0  0  0  0
   -0.9988   50.8965   28.5545 H   0  0  0  0  0  0
   -0.7550   52.3398   27.5776 H   0  0  0  0  0  0
    0.0463   50.8098   27.1446 H   0  0  0  0  0  0
    5.0274   53.0977   24.8379 H   0  0  0  0  0  0
    5.7140   52.8889   21.6605 H   0  0  0  0  0  0
    2.0758   53.5360   22.4175 H   0  0  0  0  0  0
    0.2756   52.3473   21.2741 H   0  0  0  0  0  0
    0.8224   50.7152   19.4731 H   0  0  0  0  0  0
    3.2776   50.3461   18.8860 H   0  0  0  0  0  0
    3.9132   51.6533   20.3640 N   0  3  0  0  0  0
    4.8624   51.5135   20.0437 H   0  0  0  0  0  0
  1  2  1  0  0  0
  1 26  1  0  0  0
  1 27  1  0  0  0
  1 28  1  0  0  0
  2  3  1  0  0  0
  3  8  2  0  0  0
  3  4  1  0  0  0
  4  5  2  0  0  0
  4 29  1  0  0  0
  5  6  1  0  0  0
  5 30  1  0  0  0
  6  7  2  0  0  0
  6 11  1  0  0  0
  7  8  1  0  0  0
  7 31  1  0  0  0
  8  9  1  0  0  0
  9 10  1  0  0  0
 10 32  1  0  0  0
 10 33  1  0  0  0
 10 34  1  0  0  0
 11 12  2  0  0  0
 11 13  1  0  0  0
 13 14  1  0  0  0
 13 35  1  0  0  0
 14 15  1  0  0  0
 14 16  1  0  0  0
 14 20  1  0  0  0
 16 17  1  0  0  0
 16 18  1  0  0  0
 16 19  1  0  0  0
 20 21  1  0  0  0
 20 36  1  0  0  0
 21 22  2  0  0  0
 21 41  1  0  0  0
 22 23  1  0  0  0
 22 37  1  0  0  0
 23 24  2  0  0  0
 23 38  1  0  0  0
 24 25  1  0  0  0
 24 39  1  0  0  0
 25 40  1  0  0  0
 25 41  2  0  0  0
 41 42  1  0  0  0
M  CHG  1  41   1
M  END
> <i_i_glide_confnum>
26

> <i_i_glide_lignum>
2133

> <i_i_glide_posenum>
358

> <i_i_glide_rotatable_bonds>
8

> <i_m_Source_File_Index>
4750

> <b_m_subgroup_collapsed>
0

> <r_i_docking_score>
-5.52166

> <r_i_glide_ecoul>
-3.54925

> <r_i_glide_eff_state_penalty>
0

> <r_i_glide_einternal>
4.68701

> <r_i_glide_emodel>
-51.3478

> <r_i_glide_energy>
-37.5603

> <r_i_glide_erotb>
0.477707

> <r_i_glide_esite>
-0.0597601

> <r_i_glide_evdw>
-34.011

> <r_i_glide_gscore>
-5.52166

> <r_i_glide_hbond>
-0.359319

> <r_i_glide_ligand_efficiency>
-0.220867

> <r_i_glide_ligand_efficiency_ln>
-1.3088

> <r_i_glide_ligand_efficiency_sa>
-0.645818

> <r_i_glide_lipo>
-2.07342

> <r_i_glide_metal>
0

> <r_i_glide_rewards>
-1.27394

> <s_i_glide_gridfile>
wee1_glide-grid

> <s_m_Source_File>
wee1_decoys_glide_SP.sdf

> <s_m_Source_Path>
/Users/zhangxujun/Desktop

> <s_m_entry_id>
5025

> <s_m_entry_name>
wee1_decoys_glide_SP.4750

> <s_m_subgroup_title>
wee1_decoys_glide_SP

> <s_m_subgroupid>
wee1_decoys_glide_SP


$$$$
