ZINC01811156_5745
                    3D
 Schrodinger Suite 2024-2.
 66 70  0  0  1  0            999 V2000
   -0.1769   51.1878   23.5189 C   0  0  0  0  0  0
   -0.4739   52.3164   24.5266 C   0  0  0  0  0  0
   -1.5307   51.8958   25.5588 C   0  0  0  0  0  0
    0.6998   52.6788   25.2491 O   0  0  0  0  0  0
    1.6575   53.4746   24.7203 C   0  0  0  0  0  0
    1.6213   53.9432   23.5794 O   0  0  0  0  0  0
    2.7795   53.6962   25.6611 C   0  0  0  0  0  0
    2.7603   53.5198   27.0797 C   0  0  0  0  0  0
    4.0017   53.7812   27.6768 C   0  0  0  0  0  0
    5.1973   54.2832   26.5504 S   0  0  0  0  0  0
    4.0656   54.0965   25.2414 C   0  0  0  0  0  0
    4.4317   54.2828   23.9123 N   0  0  0  0  0  0
    5.6461   54.4963   23.3660 C   0  0  0  0  0  0
    6.7046   54.6059   23.9829 O   0  0  0  0  0  0
    5.5904   54.6327   21.9272 C   0  0  0  0  0  0
    4.5971   54.0981   21.0827 C   0  0  0  0  0  0
    4.9135   54.5071   19.8098 C   0  0  0  0  0  0
    6.1382   55.1403   19.9125 N   0  0  0  0  0  0
    6.4975   55.2632   21.2061 N   0  0  0  0  0  0
    6.8571   55.8124   18.8183 C   0  0  2  0  0  0
    6.5901   56.8663   18.8778 H   0  0  0  0  0  0
    6.3061   55.2438   17.4842 C   0  0  0  0  0  0
    4.7678   55.0859   17.4433 C   0  0  2  0  0  0
    4.3178   56.0798   17.4886 H   0  0  0  0  0  0
    4.2746   54.3343   18.6034 N   0  0  0  0  0  0
    4.3257   54.4913   16.1047 C   0  0  0  0  0  0
    4.3865   53.1114   15.8945 C   0  0  0  0  0  0
    4.0095   52.5674   14.6713 C   0  0  0  0  0  0
    3.5696   53.3944   13.6311 C   0  0  0  0  0  0
    3.5173   54.7800   13.8452 C   0  0  0  0  0  0
    3.8909   55.3256   15.0719 C   0  0  0  0  0  0
    3.1761   52.8131   12.3247 N   0  3  0  0  0  0
    3.2817   51.6024   12.1616 O   0  0  0  0  0  0
    2.7605   53.5685   11.4490 O   0  5  0  0  0  0
    8.4092   55.7292   18.8983 C   0  0  0  0  0  0
    8.9644   56.5168   17.9795 F   0  0  0  0  0  0
    8.8888   56.0976   20.0842 F   0  0  0  0  0  0
    8.8505   54.4959   18.6663 F   0  0  0  0  0  0
    4.3116   53.6793   29.1562 C   0  0  0  0  0  0
    3.2257   52.8423   29.8523 C   0  0  0  0  0  0
    1.8221   53.3137   29.4483 C   0  0  0  0  0  0
    1.5503   53.1127   27.9406 C   0  0  0  0  0  0
   -1.0832   50.8904   22.9855 H   0  0  0  0  0  0
    0.5525   51.5086   22.7708 H   0  0  0  0  0  0
    0.2217   50.3021   24.0203 H   0  0  0  0  0  0
   -0.8594   53.1863   23.9874 H   0  0  0  0  0  0
   -2.4677   51.6178   25.0737 H   0  0  0  0  0  0
   -1.1971   51.0392   26.1474 H   0  0  0  0  0  0
   -1.7504   52.7128   26.2492 H   0  0  0  0  0  0
    3.6647   54.1961   23.2569 H   0  0  0  0  0  0
    3.7215   53.5271   21.3583 H   0  0  0  0  0  0
    6.6463   55.8644   16.6554 H   0  0  0  0  0  0
    6.7639   54.2711   17.2903 H   0  0  0  0  0  0
    3.2663   54.2819   18.6033 H   0  0  0  0  0  0
    4.7265   52.4626   16.6854 H   0  0  0  0  0  0
    4.0659   51.4937   14.5503 H   0  0  0  0  0  0
    3.1838   55.4440   13.0590 H   0  0  0  0  0  0
    3.8470   56.3959   15.2118 H   0  0  0  0  0  0
    4.3626   54.6690   29.6056 H   0  0  0  0  0  0
    5.2878   53.2155   29.2831 H   0  0  0  0  0  0
    3.3500   52.8964   30.9330 H   0  0  0  0  0  0
    3.3474   51.7906   29.5813 H   0  0  0  0  0  0
    1.7038   54.3681   29.7054 H   0  0  0  0  0  0
    1.0658   52.7824   30.0258 H   0  0  0  0  0  0
    1.3175   52.0634   27.7556 H   0  0  0  0  0  0
    0.6599   53.6776   27.6649 H   0  0  0  0  0  0
  1  2  1  0  0  0
  1 43  1  0  0  0
  1 44  1  0  0  0
  1 45  1  0  0  0
  2  3  1  0  0  0
  2  4  1  0  0  0
  2 46  1  0  0  0
  3 47  1  0  0  0
  3 48  1  0  0  0
  3 49  1  0  0  0
  4  5  1  0  0  0
  5  6  2  0  0  0
  5  7  1  0  0  0
  7 11  2  0  0  0
  7  8  1  0  0  0
  8 42  1  0  0  0
  8  9  2  0  0  0
  9 10  1  0  0  0
  9 39  1  0  0  0
 10 11  1  0  0  0
 11 12  1  0  0  0
 12 13  1  0  0  0
 12 50  1  0  0  0
 13 14  2  0  0  0
 13 15  1  0  0  0
 15 19  2  0  0  0
 15 16  1  0  0  0
 16 17  2  0  0  0
 16 51  1  0  0  0
 17 25  1  0  0  0
 17 18  1  0  0  0
 18 19  1  0  0  0
 18 20  1  0  0  0
 20 21  1  0  0  0
 20 22  1  0  0  0
 20 35  1  0  0  0
 22 23  1  0  0  0
 22 52  1  0  0  0
 22 53  1  0  0  0
 23 24  1  0  0  0
 23 25  1  0  0  0
 23 26  1  0  0  0
 25 54  1  0  0  0
 26 31  2  0  0  0
 26 27  1  0  0  0
 27 28  2  0  0  0
 27 55  1  0  0  0
 28 29  1  0  0  0
 28 56  1  0  0  0
 29 30  2  0  0  0
 29 32  1  0  0  0
 30 31  1  0  0  0
 30 57  1  0  0  0
 31 58  1  0  0  0
 32 33  2  0  0  0
 32 34  1  0  0  0
 35 36  1  0  0  0
 35 37  1  0  0  0
 35 38  1  0  0  0
 39 40  1  0  0  0
 39 59  1  0  0  0
 39 60  1  0  0  0
 40 41  1  0  0  0
 40 61  1  0  0  0
 40 62  1  0  0  0
 41 42  1  0  0  0
 41 63  1  0  0  0
 41 64  1  0  0  0
 42 65  1  0  0  0
 42 66  1  0  0  0
M  CHG  2  32   1  34  -1
M  END
> <i_i_glide_confnum>
33

> <i_i_glide_lignum>
5746

> <i_i_glide_posenum>
76

> <i_i_glide_rotatable_bonds>
9

> <i_m_Source_File_Index>
538

> <b_m_subgroup_collapsed>
0

> <r_i_docking_score>
-5.77502

> <r_i_glide_ecoul>
-1.1548

> <r_i_glide_eff_state_penalty>
0

> <r_i_glide_einternal>
2.64194

> <r_i_glide_emodel>
-67.4128

> <r_i_glide_energy>
-50.6492

> <r_i_glide_erotb>
0.27849

> <r_i_glide_esite>
-0.00731855

> <r_i_glide_evdw>
-49.4944

> <r_i_glide_gscore>
-5.77502

> <r_i_glide_hbond>
0

> <r_i_glide_ligand_efficiency>
-0.144376

> <r_i_glide_ligand_efficiency_ln>
-1.23164

> <r_i_glide_ligand_efficiency_sa>
-0.493758

> <r_i_glide_lipo>
-2.44261

> <r_i_glide_metal>
0

> <r_i_glide_rewards>
-0.95565

> <s_i_glide_gridfile>
wee1_glide-grid

> <s_m_Source_File>
wee1_decoys_glide_SP.sdf

> <s_m_Source_Path>
/Users/zhangxujun/Desktop

> <s_m_entry_id>
813

> <s_m_entry_name>
wee1_decoys_glide_SP.538

> <s_m_subgroup_title>
wee1_decoys_glide_SP

> <s_m_subgroupid>
wee1_decoys_glide_SP


$$$$
