ZINC48889317_3783
                    3D
 Schrodinger Suite 2024-2.
 38 39  0  0  1  0            999 V2000
    6.9741   56.0886   18.4739 C   0  0  0  0  0  0
    6.8950   55.6949   19.9304 C   0  0  0  0  0  0
    5.8910   54.9785   20.6005 C   0  0  0  0  0  0
    6.3044   54.8992   21.9289 C   0  0  0  0  0  0
    7.5045   55.5551   21.9372 N   0  0  0  0  0  0
    8.1253   55.6122   22.7378 H   0  0  0  0  0  0
    7.8723   56.0195   20.7430 N   0  0  0  0  0  0
    5.6942   54.2539   23.0531 C   0  0  0  0  0  0
    4.9552   53.2961   22.8796 O   0  0  0  0  0  0
    5.9925   54.7655   24.2638 N   0  0  0  0  0  0
    5.5124   54.2728   25.5666 C   0  0  1  0  0  0
    5.6026   53.1931   25.4828 H   0  0  0  0  0  0
    6.4941   54.6188   26.7090 C   0  0  0  0  0  0
    6.1071   53.9565   28.0473 C   0  0  0  0  0  0
    4.6430   54.2332   28.4146 C   0  0  0  0  0  0
    3.6812   53.7741   27.2949 C   0  0  2  0  0  0
    3.8638   52.7127   27.1193 H   0  0  0  0  0  0
    4.0182   54.5389   25.9722 C   0  0  2  0  0  0
    3.9619   55.5964   26.2260 H   0  0  0  0  0  0
    2.9801   54.2725   24.8552 C   0  0  0  0  0  0
    2.2157   53.9174   27.7623 C   0  0  0  0  0  0
    4.3039   54.2653   19.8262 Br  0  0  0  0  0  0
    6.0381   55.8906   17.9473 H   0  0  0  0  0  0
    7.1903   57.1511   18.3477 H   0  0  0  0  0  0
    7.7566   55.5346   17.9521 H   0  0  0  0  0  0
    6.4532   55.6613   24.2848 H   0  0  0  0  0  0
    7.5043   54.3063   26.4456 H   0  0  0  0  0  0
    6.5265   55.6966   26.8480 H   0  0  0  0  0  0
    6.2678   52.8791   27.9778 H   0  0  0  0  0  0
    6.7607   54.3047   28.8462 H   0  0  0  0  0  0
    4.4055   53.7087   29.3417 H   0  0  0  0  0  0
    4.4868   55.2897   28.6445 H   0  0  0  0  0  0
    2.9924   53.2274   24.5450 H   0  0  0  0  0  0
    1.9620   54.4963   25.1641 H   0  0  0  0  0  0
    3.1578   54.8956   23.9790 H   0  0  0  0  0  0
    1.9278   54.9643   27.8614 H   0  0  0  0  0  0
    1.5209   53.4383   27.0725 H   0  0  0  0  0  0
    2.0625   53.4374   28.7298 H   0  0  0  0  0  0
  1  2  1  0  0  0
  1 23  1  0  0  0
  1 24  1  0  0  0
  1 25  1  0  0  0
  2  7  2  0  0  0
  2  3  1  0  0  0
  3  4  2  0  0  0
  3 22  1  0  0  0
  4  5  1  0  0  0
  4  8  1  0  0  0
  5  6  1  0  0  0
  5  7  1  0  0  0
  8  9  2  0  0  0
  8 10  1  0  0  0
 10 11  1  0  0  0
 10 26  1  0  0  0
 11 12  1  0  0  0
 11 18  1  0  0  0
 11 13  1  0  0  0
 13 14  1  0  0  0
 13 27  1  0  0  0
 13 28  1  0  0  0
 14 15  1  0  0  0
 14 29  1  0  0  0
 14 30  1  0  0  0
 15 16  1  0  0  0
 15 31  1  0  0  0
 15 32  1  0  0  0
 16 17  1  0  0  0
 16 18  1  0  0  0
 16 21  1  0  0  0
 18 19  1  0  0  0
 18 20  1  0  0  0
 20 33  1  0  0  0
 20 34  1  0  0  0
 20 35  1  0  0  0
 21 36  1  0  0  0
 21 37  1  0  0  0
 21 38  1  0  0  0
M  END
> <i_i_glide_confnum>
12

> <i_i_glide_lignum>
3784

> <i_i_glide_posenum>
116

> <i_i_glide_rotatable_bonds>
3

> <i_m_Source_File_Index>
1649

> <b_m_subgroup_collapsed>
0

> <r_i_docking_score>
-6.11433

> <r_i_glide_ecoul>
-2.77304

> <r_i_glide_eff_state_penalty>
0

> <r_i_glide_einternal>
3.47004

> <r_i_glide_emodel>
-45.5072

> <r_i_glide_energy>
-35.1201

> <r_i_glide_erotb>
0.564702

> <r_i_glide_esite>
0

> <r_i_glide_evdw>
-32.347

> <r_i_glide_gscore>
-6.11433

> <r_i_glide_hbond>
-0.384467

> <r_i_glide_ligand_efficiency>
-0.339685

> <r_i_glide_ligand_efficiency_ln>
-1.57166

> <r_i_glide_ligand_efficiency_sa>
-0.890227

> <r_i_glide_lipo>
-2.61963

> <r_i_glide_metal>
0

> <r_i_glide_rewards>
-1.64163

> <s_i_glide_gridfile>
wee1_glide-grid

> <s_m_Source_File>
wee1_decoys_glide_SP.sdf

> <s_m_Source_Path>
/Users/zhangxujun/Desktop

> <s_m_entry_id>
1924

> <s_m_entry_name>
wee1_decoys_glide_SP.1649

> <s_m_subgroup_title>
wee1_decoys_glide_SP

> <s_m_subgroupid>
wee1_decoys_glide_SP


$$$$
