ZINC08455891_5626
                    3D
 Schrodinger Suite 2024-2.
 56 59  0  0  1  0            999 V2000
    1.3692   49.3508   18.4328 C   0  0  0  0  0  0
    2.4720   49.9508   19.3044 C   0  0  0  0  0  0
    1.8900   50.6855   20.3732 O   0  0  0  0  0  0
    2.6729   51.3251   21.2774 C   0  0  0  0  0  0
    3.9044   51.2712   21.2819 O   0  0  0  0  0  0
    1.8805   52.1025   22.2616 C   0  0  0  0  0  0
    2.3923   53.2086   23.0191 C   0  0  0  0  0  0
    1.4322   53.7481   23.8660 C   0  0  0  0  0  0
   -0.0517   52.8994   23.8789 S   0  0  0  0  0  0
    0.5177   51.8674   22.5964 C   0  0  0  0  0  0
   -0.3175   50.9193   22.0033 N   0  0  0  0  0  0
   -1.6154   50.6283   22.2544 C   0  0  0  0  0  0
   -2.3023   51.1583   23.1259 O   0  0  0  0  0  0
   -2.2744   49.5506   21.3539 C   0  0  2  0  0  0
   -3.2863   49.3879   21.7327 H   0  0  0  0  0  0
   -1.4480   48.2349   21.5139 C   0  0  0  0  0  0
   -2.0629   47.0907   20.6736 C   0  0  0  0  0  0
   -2.2248   47.4635   19.1818 C   0  0  0  0  0  0
   -2.9785   48.7993   19.0230 C   0  0  0  0  0  0
   -2.2644   49.9209   19.8274 C   0  0  1  0  0  0
   -1.2427   50.0057   19.4546 H   0  0  0  0  0  0
   -2.9254   51.2972   19.5295 C   0  0  0  0  0  0
   -2.2175   52.3213   19.6702 O   0  0  0  0  0  0
    3.7697   53.8217   22.9554 C   0  0  0  0  0  0
    4.2666   54.1518   21.6897 C   0  0  0  0  0  0
    5.5444   54.6619   21.5146 C   0  0  0  0  0  0
    6.3636   54.8964   22.6102 C   0  0  0  0  0  0
    5.8964   54.6422   23.9212 C   0  0  0  0  0  0
    4.5852   54.0967   24.1104 C   0  0  0  0  0  0
    4.1660   53.8432   25.4500 C   0  0  0  0  0  0
    4.9891   54.1358   26.5330 C   0  0  0  0  0  0
    6.2494   54.6797   26.3341 C   0  0  0  0  0  0
    6.7042   54.9312   25.0452 C   0  0  0  0  0  0
    1.8018   48.8138   17.5880 H   0  0  0  0  0  0
    0.7656   48.6482   19.0023 H   0  0  0  0  0  0
    0.7146   50.1262   18.0337 H   0  0  0  0  0  0
    3.1029   50.6048   18.6992 H   0  0  0  0  0  0
    3.1045   49.1534   19.6943 H   0  0  0  0  0  0
    1.5508   54.6026   24.5108 H   0  0  0  0  0  0
    0.1182   50.4119   21.2458 H   0  0  0  0  0  0
   -0.4261   48.3456   21.1500 H   0  0  0  0  0  0
   -1.4582   47.8858   22.5487 H   0  0  0  0  0  0
   -3.0380   46.8281   21.0846 H   0  0  0  0  0  0
   -1.4470   46.1940   20.7621 H   0  0  0  0  0  0
   -2.7641   46.6728   18.6613 H   0  0  0  0  0  0
   -1.2465   47.5285   18.7057 H   0  0  0  0  0  0
   -3.9967   48.6594   19.3868 H   0  0  0  0  0  0
   -3.0343   49.0518   17.9627 H   0  0  0  0  0  0
    3.6555   53.9880   20.8137 H   0  0  0  0  0  0
    5.9002   54.8774   20.5181 H   0  0  0  0  0  0
    7.3560   55.2992   22.4677 H   0  0  0  0  0  0
    3.2090   53.3857   25.6461 H   0  0  0  0  0  0
    4.6517   53.9232   27.5368 H   0  0  0  0  0  0
    6.8763   54.8968   27.1864 H   0  0  0  0  0  0
    7.6845   55.3540   24.8871 H   0  0  0  0  0  0
   -4.1510   51.3331   19.2828 O   0  5  0  0  0  0
  1  2  1  0  0  0
  1 34  1  0  0  0
  1 35  1  0  0  0
  1 36  1  0  0  0
  2  3  1  0  0  0
  2 37  1  0  0  0
  2 38  1  0  0  0
  3  4  1  0  0  0
  4  5  2  0  0  0
  4  6  1  0  0  0
  6 10  2  0  0  0
  6  7  1  0  0  0
  7  8  2  0  0  0
  7 24  1  0  0  0
  8  9  1  0  0  0
  8 39  1  0  0  0
  9 10  1  0  0  0
 10 11  1  0  0  0
 11 12  1  0  0  0
 11 40  1  0  0  0
 12 13  2  0  0  0
 12 14  1  0  0  0
 14 15  1  0  0  0
 14 20  1  0  0  0
 14 16  1  0  0  0
 16 17  1  0  0  0
 16 41  1  0  0  0
 16 42  1  0  0  0
 17 18  1  0  0  0
 17 43  1  0  0  0
 17 44  1  0  0  0
 18 19  1  0  0  0
 18 45  1  0  0  0
 18 46  1  0  0  0
 19 20  1  0  0  0
 19 47  1  0  0  0
 19 48  1  0  0  0
 20 21  1  0  0  0
 20 22  1  0  0  0
 22 23  2  0  0  0
 22 56  1  0  0  0
 24 29  2  0  0  0
 24 25  1  0  0  0
 25 26  2  0  0  0
 25 49  1  0  0  0
 26 27  1  0  0  0
 26 50  1  0  0  0
 27 28  2  0  0  0
 27 51  1  0  0  0
 28 33  1  0  0  0
 28 29  1  0  0  0
 29 30  1  0  0  0
 30 31  2  0  0  0
 30 52  1  0  0  0
 31 32  1  0  0  0
 31 53  1  0  0  0
 32 33  2  0  0  0
 32 54  1  0  0  0
 33 55  1  0  0  0
M  CHG  1  56  -1
M  END
> <i_i_glide_confnum>
53

> <i_i_glide_lignum>
5627

> <i_i_glide_posenum>
290

> <i_i_glide_rotatable_bonds>
8

> <i_m_Source_File_Index>
1574

> <b_m_subgroup_collapsed>
0

> <r_i_docking_score>
-6.11033

> <r_i_glide_ecoul>
-6.78869

> <r_i_glide_eff_state_penalty>
0

> <r_i_glide_einternal>
6.1998

> <r_i_glide_emodel>
-60.9196

> <r_i_glide_energy>
-44.3182

> <r_i_glide_erotb>
0.592675

> <r_i_glide_esite>
-0.0174999

> <r_i_glide_evdw>
-37.5295

> <r_i_glide_gscore>
-6.11033

> <r_i_glide_hbond>
-0.16

> <r_i_glide_ligand_efficiency>
-0.190948

> <r_i_glide_ligand_efficiency_ln>
-1.36827

> <r_i_glide_ligand_efficiency_sa>
-0.606222

> <r_i_glide_lipo>
-3.11332

> <r_i_glide_metal>
0

> <r_i_glide_rewards>
-0.517406

> <s_i_glide_gridfile>
wee1_glide-grid

> <s_m_Source_File>
wee1_decoys_glide_SP.sdf

> <s_m_Source_Path>
/Users/zhangxujun/Desktop

> <s_m_entry_id>
1849

> <s_m_entry_name>
wee1_decoys_glide_SP.1574

> <s_m_subgroup_title>
wee1_decoys_glide_SP

> <s_m_subgroupid>
wee1_decoys_glide_SP


$$$$
