ZINC04163750_3401
                    3D
 Schrodinger Suite 2024-2.
 53 55  0  0  1  0            999 V2000
    2.6558   50.0586   19.6637 C   0  0  0  0  0  0
    1.8442   51.1584   20.3881 C   0  0  0  0  0  0
    2.8117   52.3462   20.6492 C   0  0  0  0  0  0
    0.7293   51.6754   19.4459 C   0  0  0  0  0  0
    1.2069   50.5826   21.6796 C   0  0  0  0  0  0
    1.4936   51.1085   22.9458 C   0  0  0  0  0  0
    0.8712   50.6013   24.0801 C   0  0  0  0  0  0
   -0.0567   49.5620   23.9905 C   0  0  0  0  0  0
   -0.3196   49.0040   22.7349 C   0  0  0  0  0  0
    0.3028   49.5124   21.5958 C   0  0  0  0  0  0
   -0.7767   49.0827   25.2698 C   0  0  1  0  0  0
    0.0037   49.0523   26.0346 H   0  0  0  0  0  0
   -1.9730   49.9546   25.7693 C   0  0  2  0  0  0
   -2.2239   49.5695   26.7556 H   0  0  0  0  0  0
   -3.2657   49.7114   24.9087 C   0  0  1  0  0  0
   -3.4328   48.2426   24.8137 N   0  0  0  0  0  0
   -2.4848   47.2790   24.9004 C   0  0  0  0  0  0
   -2.7061   46.1138   24.5751 O   0  0  0  0  0  0
   -1.2584   47.6937   25.2811 N   0  0  0  0  0  0
   -4.5463   50.3823   25.5116 C   0  0  0  0  0  0
   -4.4973   51.7160   25.5284 F   0  0  0  0  0  0
   -5.6416   50.0500   24.8220 F   0  0  0  0  0  0
   -4.7520   49.9853   26.7690 F   0  0  0  0  0  0
   -3.0998   50.2248   23.5969 O   0  0  0  0  0  0
   -1.5652   51.4331   26.0109 C   0  0  0  0  0  0
   -1.6385   52.2527   25.0937 O   0  0  0  0  0  0
   -0.9117   51.7556   27.3125 C   0  0  0  0  0  0
    0.2222   52.5780   27.3257 C   0  0  0  0  0  0
    0.8150   52.9411   28.5314 C   0  0  0  0  0  0
    0.2666   52.4970   29.7313 C   0  0  0  0  0  0
   -0.8723   51.6965   29.7299 C   0  0  0  0  0  0
   -1.4597   51.3175   28.5246 C   0  0  0  0  0  0
    1.0064   52.9376   31.2268 Cl  0  0  0  0  0  0
    3.1036   50.4330   18.7409 H   0  0  0  0  0  0
    2.0469   49.1966   19.3895 H   0  0  0  0  0  0
    3.4735   49.6985   20.2868 H   0  0  0  0  0  0
    2.3069   53.1889   21.1255 H   0  0  0  0  0  0
    3.6499   52.0540   21.2836 H   0  0  0  0  0  0
    3.2406   52.7241   19.7188 H   0  0  0  0  0  0
    0.1296   52.4485   19.9294 H   0  0  0  0  0  0
    1.1454   52.1126   18.5364 H   0  0  0  0  0  0
    0.0509   50.8812   19.1325 H   0  0  0  0  0  0
    2.1863   51.9243   23.0781 H   0  0  0  0  0  0
    1.1023   51.0363   25.0391 H   0  0  0  0  0  0
   -1.0182   48.1876   22.6264 H   0  0  0  0  0  0
    0.0676   49.0741   20.6375 H   0  0  0  0  0  0
   -4.3382   47.9159   24.5139 H   0  0  0  0  0  0
   -0.6230   46.9881   25.6310 H   0  0  0  0  0  0
   -2.2355   49.9482   23.2809 H   0  0  0  0  0  0
    0.6514   52.9432   26.4027 H   0  0  0  0  0  0
    1.6943   53.5686   28.5346 H   0  0  0  0  0  0
   -1.2935   51.3465   30.6638 H   0  0  0  0  0  0
   -2.3398   50.6892   28.5585 H   0  0  0  0  0  0
  1  2  1  0  0  0
  1 34  1  0  0  0
  1 35  1  0  0  0
  1 36  1  0  0  0
  2  3  1  0  0  0
  2  4  1  0  0  0
  2  5  1  0  0  0
  3 37  1  0  0  0
  3 38  1  0  0  0
  3 39  1  0  0  0
  4 40  1  0  0  0
  4 41  1  0  0  0
  4 42  1  0  0  0
  5 10  2  0  0  0
  5  6  1  0  0  0
  6  7  2  0  0  0
  6 43  1  0  0  0
  7  8  1  0  0  0
  7 44  1  0  0  0
  8  9  2  0  0  0
  8 11  1  0  0  0
  9 10  1  0  0  0
  9 45  1  0  0  0
 10 46  1  0  0  0
 11 12  1  0  0  0
 11 19  1  0  0  0
 11 13  1  0  0  0
 13 14  1  0  0  0
 13 15  1  0  0  0
 13 25  1  0  0  0
 15 16  1  0  0  0
 15 20  1  0  0  0
 15 24  1  0  0  0
 16 17  1  0  0  0
 16 47  1  0  0  0
 17 18  2  0  0  0
 17 19  1  0  0  0
 19 48  1  0  0  0
 20 21  1  0  0  0
 20 22  1  0  0  0
 20 23  1  0  0  0
 24 49  1  0  0  0
 25 26  2  0  0  0
 25 27  1  0  0  0
 27 32  2  0  0  0
 27 28  1  0  0  0
 28 29  2  0  0  0
 28 50  1  0  0  0
 29 30  1  0  0  0
 29 51  1  0  0  0
 30 31  2  0  0  0
 30 33  1  0  0  0
 31 32  1  0  0  0
 31 52  1  0  0  0
 32 53  1  0  0  0
M  END
> <i_i_glide_confnum>
9

> <i_i_glide_lignum>
3402

> <i_i_glide_posenum>
387

> <i_i_glide_rotatable_bonds>
6

> <i_m_Source_File_Index>
5487

> <b_m_subgroup_collapsed>
0

> <r_i_docking_score>
-3.65105

> <r_i_glide_ecoul>
-7.60351

> <r_i_glide_eff_state_penalty>
0

> <r_i_glide_einternal>
4.21863

> <r_i_glide_emodel>
-42.8308

> <r_i_glide_energy>
-35.6161

> <r_i_glide_erotb>
0.291212

> <r_i_glide_esite>
-0.256667

> <r_i_glide_evdw>
-28.0126

> <r_i_glide_gscore>
-3.65105

> <r_i_glide_hbond>
-0.364407

> <r_i_glide_ligand_efficiency>
-0.117776

> <r_i_glide_ligand_efficiency_ln>
-0.823425

> <r_i_glide_ligand_efficiency_sa>
-0.369979

> <r_i_glide_lipo>
-0.471624

> <r_i_glide_metal>
0

> <r_i_glide_rewards>
-0.308413

> <s_i_glide_gridfile>
wee1_glide-grid

> <s_m_Source_File>
wee1_decoys_glide_SP.sdf

> <s_m_Source_Path>
/Users/zhangxujun/Desktop

> <s_m_entry_id>
5762

> <s_m_entry_name>
wee1_decoys_glide_SP.5487

> <s_m_subgroup_title>
wee1_decoys_glide_SP

> <s_m_subgroupid>
wee1_decoys_glide_SP


$$$$
