ZINC65733858_1453
                    3D
 Schrodinger Suite 2024-2.
 53 56  0  0  1  0            999 V2000
    0.3051   49.0712   25.3472 C   0  0  0  0  0  0
    0.0879   48.8973   23.8510 C   0  0  0  0  0  0
   -0.8594   48.2272   23.4416 O   0  0  0  0  0  0
    0.9630   49.5231   23.0430 N   0  0  0  0  0  0
    0.8625   49.6407   21.5766 C   0  0  1  0  0  0
    0.1506   48.8790   21.2486 H   0  0  0  0  0  0
    0.3104   51.0171   21.1002 C   0  0  2  0  0  0
   -0.0175   50.9278   20.0623 H   0  0  0  0  0  0
    1.4042   52.0989   21.1590 C   0  0  2  0  0  0
    1.0145   53.0056   20.6965 H   0  0  0  0  0  0
    2.6755   51.6314   20.4286 C   0  0  1  0  0  0
    2.4781   51.5759   19.3558 H   0  0  0  0  0  0
    3.7998   52.6483   20.6900 C   0  0  0  0  0  0
    3.9216   52.9531   22.0829 O   0  0  0  0  0  0
    2.7044   53.3725   22.6535 C   0  0  1  0  0  0
    2.3539   54.2916   22.1722 H   0  0  0  0  0  0
    1.7411   52.3580   22.5251 O   0  0  0  0  0  0
    2.9329   53.6699   24.1556 C   0  0  0  0  0  0
    1.9807   53.2990   25.1142 C   0  0  0  0  0  0
    2.2249   53.5161   26.4682 C   0  0  0  0  0  0
    3.4185   54.1110   26.8660 C   0  0  0  0  0  0
    4.3671   54.4973   25.9222 C   0  0  0  0  0  0
    4.1236   54.2772   24.5699 C   0  0  0  0  0  0
    3.1005   50.3683   20.9670 O   0  0  0  0  0  0
    2.1770   49.3168   20.8325 C   0  0  2  0  0  0
    2.7064   48.4969   21.3189 H   0  0  0  0  0  0
    1.9027   49.0277   19.5144 O   0  0  0  0  0  0
   -0.8160   51.4653   21.8597 O   0  0  0  0  0  0
   -2.0359   50.8841   21.7613 C   0  0  0  0  0  0
   -2.3291   50.0588   20.8914 O   0  0  0  0  0  0
   -2.9508   51.2799   22.8773 C   0  0  0  0  0  0
   -2.6928   52.4042   23.6814 C   0  0  0  0  0  0
   -3.5697   52.7488   24.7064 C   0  0  0  0  0  0
   -4.7010   51.9725   24.9393 C   0  0  0  0  0  0
   -4.9647   50.8509   24.1531 C   0  0  0  0  0  0
   -4.0925   50.5019   23.1273 C   0  0  0  0  0  0
    1.3393   48.8688   25.6208 H   0  0  0  0  0  0
    0.0552   50.0895   25.6488 H   0  0  0  0  0  0
   -0.3325   48.3894   25.9131 H   0  0  0  0  0  0
    1.7257   50.0293   23.4685 H   0  0  0  0  0  0
    4.7502   52.2632   20.3198 H   0  0  0  0  0  0
    3.6242   53.5785   20.1459 H   0  0  0  0  0  0
    1.0569   52.8247   24.8167 H   0  0  0  0  0  0
    1.4932   53.2188   27.2047 H   0  0  0  0  0  0
    3.6098   54.2783   27.9155 H   0  0  0  0  0  0
    5.2904   54.9589   26.2390 H   0  0  0  0  0  0
    4.8698   54.5606   23.8416 H   0  0  0  0  0  0
    2.7397   48.8960   19.0565 H   0  0  0  0  0  0
   -1.8182   53.0196   23.5219 H   0  0  0  0  0  0
   -3.3694   53.6124   25.3236 H   0  0  0  0  0  0
   -5.3816   52.2400   25.7343 H   0  0  0  0  0  0
   -5.8449   50.2549   24.3410 H   0  0  0  0  0  0
   -4.3138   49.6263   22.5304 H   0  0  0  0  0  0
  1  2  1  0  0  0
  1 37  1  0  0  0
  1 38  1  0  0  0
  1 39  1  0  0  0
  2  3  2  0  0  0
  2  4  1  0  0  0
  4  5  1  0  0  0
  4 40  1  0  0  0
  5  6  1  0  0  0
  5 25  1  0  0  0
  5  7  1  0  0  0
  7  8  1  0  0  0
  7  9  1  0  0  0
  7 28  1  0  0  0
  9 10  1  0  0  0
  9 17  1  0  0  0
  9 11  1  0  0  0
 11 12  1  0  0  0
 11 13  1  0  0  0
 11 24  1  0  0  0
 13 14  1  0  0  0
 13 41  1  0  0  0
 13 42  1  0  0  0
 14 15  1  0  0  0
 15 16  1  0  0  0
 15 17  1  0  0  0
 15 18  1  0  0  0
 18 23  2  0  0  0
 18 19  1  0  0  0
 19 20  2  0  0  0
 19 43  1  0  0  0
 20 21  1  0  0  0
 20 44  1  0  0  0
 21 22  2  0  0  0
 21 45  1  0  0  0
 22 23  1  0  0  0
 22 46  1  0  0  0
 23 47  1  0  0  0
 24 25  1  0  0  0
 25 26  1  0  0  0
 25 27  1  0  0  0
 27 48  1  0  0  0
 28 29  1  0  0  0
 29 30  2  0  0  0
 29 31  1  0  0  0
 31 36  2  0  0  0
 31 32  1  0  0  0
 32 33  2  0  0  0
 32 49  1  0  0  0
 33 34  1  0  0  0
 33 50  1  0  0  0
 34 35  2  0  0  0
 34 51  1  0  0  0
 35 36  1  0  0  0
 35 52  1  0  0  0
 36 53  1  0  0  0
M  END
> <i_i_glide_confnum>
9

> <i_i_glide_lignum>
1454

> <i_i_glide_posenum>
86

> <i_i_glide_rotatable_bonds>
7

> <i_m_Source_File_Index>
1067

> <b_m_subgroup_collapsed>
0

> <r_i_docking_score>
-4.14771

> <r_i_glide_ecoul>
-3.93268

> <r_i_glide_eff_state_penalty>
0

> <r_i_glide_einternal>
1.98469

> <r_i_glide_emodel>
-49.3911

> <r_i_glide_energy>
-40.2164

> <r_i_glide_erotb>
0.577126

> <r_i_glide_esite>
-0.021933

> <r_i_glide_evdw>
-36.2837

> <r_i_glide_gscore>
-4.14771

> <r_i_glide_hbond>
0

> <r_i_glide_ligand_efficiency>
-0.138257

> <r_i_glide_ligand_efficiency_ln>
-0.942404

> <r_i_glide_ligand_efficiency_sa>
-0.429596

> <r_i_glide_lipo>
-1.53434

> <r_i_glide_metal>
0

> <r_i_glide_rewards>
-0.764476

> <s_i_glide_gridfile>
wee1_glide-grid

> <s_m_Source_File>
wee1_decoys_glide_SP.sdf

> <s_m_Source_Path>
/Users/zhangxujun/Desktop

> <s_m_entry_id>
1342

> <s_m_entry_name>
wee1_decoys_glide_SP.1067

> <s_m_subgroup_title>
wee1_decoys_glide_SP

> <s_m_subgroupid>
wee1_decoys_glide_SP


$$$$
