ZINC44166829_4088
                    3D
 Schrodinger Suite 2024-2.
 59 63  0  0  1  0            999 V2000
   -2.8481   48.3817   22.1665 C   0  0  0  0  0  0
   -1.4553   48.9282   22.4109 C   0  0  0  0  0  0
   -0.7034   48.9231   23.6021 C   0  0  0  0  0  0
    0.8631   49.6034   23.1927 S   0  0  0  0  0  0
    0.3190   49.9076   21.5797 C   0  0  0  0  0  0
   -0.8919   49.4801   21.3529 N   0  0  0  0  0  0
    1.1602   50.6099   20.5610 C   0  0  0  0  0  0
    0.7059   50.8525   19.2555 C   0  0  0  0  0  0
    1.4720   51.4959   18.3371 N   0  0  0  0  0  0
    2.7044   51.9016   18.7368 C   0  0  0  0  0  0
    3.1665   51.6679   20.0340 C   0  0  0  0  0  0
    2.4007   51.0217   20.9498 N   0  0  0  0  0  0
   -1.0398   48.4533   25.0228 C   0  0  2  0  0  0
   -0.6287   47.4554   25.1856 H   0  0  0  0  0  0
   -2.5344   48.4682   25.4287 C   0  0  0  0  0  0
   -3.2984   50.1261   25.3933 S   0  0  0  0  0  0
   -2.1389   50.9376   26.5376 C   0  0  0  0  0  0
   -0.6775   50.7956   26.0581 C   0  0  2  0  0  0
   -0.5027   51.1970   25.0593 H   0  0  0  0  0  0
   -0.2998   49.2956   26.0816 N   0  3  0  0  0  0
    0.2995   51.4992   27.0217 C   0  0  0  0  0  0
    0.9291   50.8967   27.8844 O   0  0  0  0  0  0
    0.4018   52.8259   26.8826 N   0  0  0  0  0  0
    1.1286   53.7316   27.7743 C   0  0  1  0  0  0
    1.1044   54.7133   27.2984 H   0  0  0  0  0  0
    0.3615   53.8909   29.1108 C   0  0  0  0  0  0
    2.6243   53.4162   27.9431 C   0  0  0  0  0  0
    3.0895   52.8882   29.1476 C   0  0  0  0  0  0
    4.4378   52.7610   29.3956 C   0  0  0  0  0  0
    5.3785   53.2148   28.4786 C   0  0  0  0  0  0
    4.9648   53.6968   27.2167 C   0  0  0  0  0  0
    3.5663   53.7600   26.9151 C   0  0  0  0  0  0
    3.1889   54.1482   25.5992 C   0  0  0  0  0  0
    4.1460   54.4967   24.6526 C   0  0  0  0  0  0
    5.4968   54.4959   24.9773 C   0  0  0  0  0  0
    5.9135   54.0971   26.2424 C   0  0  0  0  0  0
   -2.9672   47.3867   22.5926 H   0  0  0  0  0  0
   -3.6128   49.0231   22.6056 H   0  0  0  0  0  0
   -3.0943   48.2852   21.1069 H   0  0  0  0  0  0
   -0.2701   50.5356   18.9219 H   0  0  0  0  0  0
    3.3313   52.3772   17.9969 H   0  0  0  0  0  0
    4.1588   51.9678   20.3340 H   0  0  0  0  0  0
   -2.6557   48.0890   26.4458 H   0  0  0  0  0  0
   -3.1315   47.8112   24.8024 H   0  0  0  0  0  0
   -2.2829   50.4972   27.5285 H   0  0  0  0  0  0
   -2.4411   51.9846   26.6020 H   0  0  0  0  0  0
    0.6977   49.1769   25.9753 H   0  0  0  0  0  0
   -0.0826   53.2633   26.1139 H   0  0  0  0  0  0
    0.8097   54.6563   29.7464 H   0  0  0  0  0  0
   -0.6677   54.1780   28.9300 H   0  0  0  0  0  0
    0.3079   52.9610   29.6786 H   0  0  0  0  0  0
    2.4101   52.5667   29.9206 H   0  0  0  0  0  0
    4.7312   52.3333   30.3401 H   0  0  0  0  0  0
    6.4335   53.1601   28.7038 H   0  0  0  0  0  0
    2.1482   54.1665   25.3162 H   0  0  0  0  0  0
    3.8357   54.7858   23.6596 H   0  0  0  0  0  0
    6.2272   54.7789   24.2335 H   0  0  0  0  0  0
    6.9665   54.0578   26.4779 H   0  0  0  0  0  0
   -0.5486   48.9219   27.0018 H   0  0  0  0  0  0
  1  2  1  0  0  0
  1 37  1  0  0  0
  1 38  1  0  0  0
  1 39  1  0  0  0
  2  6  1  0  0  0
  2  3  2  0  0  0
  3  4  1  0  0  0
  3 13  1  0  0  0
  4  5  1  0  0  0
  5  6  2  0  0  0
  5  7  1  0  0  0
  7 12  2  0  0  0
  7  8  1  0  0  0
  8  9  2  0  0  0
  8 40  1  0  0  0
  9 10  1  0  0  0
 10 11  2  0  0  0
 10 41  1  0  0  0
 11 12  1  0  0  0
 11 42  1  0  0  0
 13 14  1  0  0  0
 13 20  1  0  0  0
 13 15  1  0  0  0
 15 16  1  0  0  0
 15 43  1  0  0  0
 15 44  1  0  0  0
 16 17  1  0  0  0
 17 18  1  0  0  0
 17 45  1  0  0  0
 17 46  1  0  0  0
 18 19  1  0  0  0
 18 20  1  0  0  0
 18 21  1  0  0  0
 20 47  1  0  0  0
 20 59  1  0  0  0
 21 22  2  0  0  0
 21 23  1  0  0  0
 23 24  1  0  0  0
 23 48  1  0  0  0
 24 25  1  0  0  0
 24 26  1  0  0  0
 24 27  1  0  0  0
 26 49  1  0  0  0
 26 50  1  0  0  0
 26 51  1  0  0  0
 27 32  2  0  0  0
 27 28  1  0  0  0
 28 29  2  0  0  0
 28 52  1  0  0  0
 29 30  1  0  0  0
 29 53  1  0  0  0
 30 31  2  0  0  0
 30 54  1  0  0  0
 31 36  1  0  0  0
 31 32  1  0  0  0
 32 33  1  0  0  0
 33 34  2  0  0  0
 33 55  1  0  0  0
 34 35  1  0  0  0
 34 56  1  0  0  0
 35 36  2  0  0  0
 35 57  1  0  0  0
 36 58  1  0  0  0
M  CHG  1  20   1
M  END
> <i_i_glide_confnum>
10

> <i_i_glide_lignum>
4089

> <i_i_glide_posenum>
318

> <i_i_glide_rotatable_bonds>
6

> <i_m_Source_File_Index>
3142

> <b_m_subgroup_collapsed>
0

> <r_i_docking_score>
-5.16373

> <r_i_glide_ecoul>
-3.31191

> <r_i_glide_eff_state_penalty>
0

> <r_i_glide_einternal>
9.43269

> <r_i_glide_emodel>
-52.6832

> <r_i_glide_energy>
-41.3753

> <r_i_glide_erotb>
0.4457

> <r_i_glide_esite>
-0.114584

> <r_i_glide_evdw>
-38.0634

> <r_i_glide_gscore>
-5.16373

> <r_i_glide_hbond>
-0.2

> <r_i_glide_ligand_efficiency>
-0.156477

> <r_i_glide_ligand_efficiency_ln>
-1.14839

> <r_i_glide_ligand_efficiency_sa>
-0.501904

> <r_i_glide_lipo>
-2.66975

> <r_i_glide_metal>
0

> <r_i_glide_rewards>
-0.225134

> <s_i_glide_gridfile>
wee1_glide-grid

> <s_m_Source_File>
wee1_decoys_glide_SP.sdf

> <s_m_Source_Path>
/Users/zhangxujun/Desktop

> <s_m_entry_id>
3417

> <s_m_entry_name>
wee1_decoys_glide_SP.3142

> <s_m_subgroup_title>
wee1_decoys_glide_SP

> <s_m_subgroupid>
wee1_decoys_glide_SP


$$$$
