ZINC15885943_3719
                    3D
 Schrodinger Suite 2024-2.
 65 67  0  0  1  0            999 V2000
   -2.9301   48.9119   22.5834 C   0  0  0  0  0  0
   -1.6014   48.1318   22.5083 C   0  0  2  0  0  0
   -1.8173   47.1239   22.1507 H   0  0  0  0  0  0
   -0.9065   47.9860   23.8959 C   0  0  0  0  0  0
   -0.2957   49.3140   24.4091 C   0  0  2  0  0  0
   -1.0990   50.0475   24.5139 H   0  0  0  0  0  0
    0.6995   49.8287   23.3537 C   0  0  0  0  0  0
   -0.0164   49.9968   22.0701 N   0  0  0  0  0  0
   -0.6173   48.7718   21.4928 C   0  0  0  0  0  0
   -0.3639   51.6113   21.4413 S   0  0  0  0  0  0
   -0.6026   52.4964   22.5896 O   0  0  0  0  0  0
   -1.3325   51.5071   20.3426 O   0  0  0  0  0  0
    1.2028   52.0840   20.7282 C   0  0  0  0  0  0
    1.5048   51.7752   19.4009 C   0  0  0  0  0  0
    2.7589   52.0972   18.8848 C   0  0  0  0  0  0
    3.7106   52.7244   19.6877 C   0  0  0  0  0  0
    3.4283   53.0377   21.0258 C   0  0  0  0  0  0
    2.1607   52.6991   21.5338 C   0  0  0  0  0  0
    4.4783   53.6986   21.8923 C   0  0  0  0  0  0
    5.5048   54.1666   21.4007 O   0  0  0  0  0  0
    4.2115   53.6968   23.2090 N   0  0  0  0  0  0
    5.1783   54.1193   24.1197 N   0  0  0  0  0  0
    4.9308   54.1396   25.4631 C   0  0  0  0  0  0
    6.2064   54.5652   26.4470 S   0  0  0  0  0  0
    3.6638   53.7777   25.8566 N   0  0  0  0  0  0
    2.9788   53.6992   27.0795 C   0  0  0  0  0  0
    1.8790   52.8396   27.0780 C   0  0  0  0  0  0
    1.1378   52.6387   28.2352 C   0  0  0  0  0  0
    1.4688   53.3270   29.4030 C   0  0  0  0  0  0
    2.5394   54.2313   29.3912 C   0  0  0  0  0  0
    3.2971   54.4167   28.2375 C   0  0  0  0  0  0
    0.6727   53.0514   30.6787 C   0  0  0  0  0  0
    1.4777   52.1756   31.6576 C   0  0  0  0  0  0
    0.1281   54.3315   31.3404 C   0  0  0  0  0  0
    0.3733   49.1427   25.7781 C   0  0  0  0  0  0
   -2.7844   49.9482   22.8868 H   0  0  0  0  0  0
   -3.4272   48.9303   21.6137 H   0  0  0  0  0  0
   -3.6181   48.4514   23.2936 H   0  0  0  0  0  0
   -0.1061   47.2484   23.8416 H   0  0  0  0  0  0
   -1.6030   47.5878   24.6379 H   0  0  0  0  0  0
    1.5234   49.1354   23.1958 H   0  0  0  0  0  0
    1.1249   50.7836   23.6592 H   0  0  0  0  0  0
   -1.1316   49.0326   20.5675 H   0  0  0  0  0  0
    0.2026   48.0978   21.2333 H   0  0  0  0  0  0
    0.7822   51.2743   18.7719 H   0  0  0  0  0  0
    3.0084   51.8391   17.8653 H   0  0  0  0  0  0
    4.6795   52.9423   19.2591 H   0  0  0  0  0  0
    1.8937   52.9098   22.5582 H   0  0  0  0  0  0
    3.2747   53.7599   23.5714 H   0  0  0  0  0  0
    5.8493   54.7487   23.6978 H   0  0  0  0  0  0
    3.1109   53.3553   25.1298 H   0  0  0  0  0  0
    1.6111   52.2916   26.1873 H   0  0  0  0  0  0
    0.3151   51.9377   28.2195 H   0  0  0  0  0  0
    2.8024   54.7884   30.2735 H   0  0  0  0  0  0
    4.1095   55.1268   28.2638 H   0  0  0  0  0  0
   -0.2066   52.4650   30.4016 H   0  0  0  0  0  0
    1.8984   51.3080   31.1530 H   0  0  0  0  0  0
    0.8541   51.8210   32.4815 H   0  0  0  0  0  0
    2.3219   52.7061   32.0818 H   0  0  0  0  0  0
   -0.4955   54.8954   30.6473 H   0  0  0  0  0  0
   -0.4900   54.0839   32.2052 H   0  0  0  0  0  0
    0.9139   55.0029   31.6808 H   0  0  0  0  0  0
    1.2508   48.4969   25.7275 H   0  0  0  0  0  0
    0.6819   50.1003   26.1943 H   0  0  0  0  0  0
   -0.3214   48.6907   26.4815 H   0  0  0  0  0  0
  1  2  1  0  0  0
  1 36  1  0  0  0
  1 37  1  0  0  0
  1 38  1  0  0  0
  2  3  1  0  0  0
  2  9  1  0  0  0
  2  4  1  0  0  0
  4  5  1  0  0  0
  4 39  1  0  0  0
  4 40  1  0  0  0
  5  6  1  0  0  0
  5  7  1  0  0  0
  5 35  1  0  0  0
  7  8  1  0  0  0
  7 41  1  0  0  0
  7 42  1  0  0  0
  8  9  1  0  0  0
  8 10  1  0  0  0
  9 43  1  0  0  0
  9 44  1  0  0  0
 10 11  2  0  0  0
 10 12  2  0  0  0
 10 13  1  0  0  0
 13 18  2  0  0  0
 13 14  1  0  0  0
 14 15  2  0  0  0
 14 45  1  0  0  0
 15 16  1  0  0  0
 15 46  1  0  0  0
 16 17  2  0  0  0
 16 47  1  0  0  0
 17 18  1  0  0  0
 17 19  1  0  0  0
 18 48  1  0  0  0
 19 20  2  0  0  0
 19 21  1  0  0  0
 21 22  1  0  0  0
 21 49  1  0  0  0
 22 23  1  0  0  0
 22 50  1  0  0  0
 23 24  2  0  0  0
 23 25  1  0  0  0
 25 26  1  0  0  0
 25 51  1  0  0  0
 26 31  2  0  0  0
 26 27  1  0  0  0
 27 28  2  0  0  0
 27 52  1  0  0  0
 28 29  1  0  0  0
 28 53  1  0  0  0
 29 30  2  0  0  0
 29 32  1  0  0  0
 30 31  1  0  0  0
 30 54  1  0  0  0
 31 55  1  0  0  0
 32 33  1  0  0  0
 32 34  1  0  0  0
 32 56  1  0  0  0
 33 57  1  0  0  0
 33 58  1  0  0  0
 33 59  1  0  0  0
 34 60  1  0  0  0
 34 61  1  0  0  0
 34 62  1  0  0  0
 35 63  1  0  0  0
 35 64  1  0  0  0
 35 65  1  0  0  0
M  END
> <i_i_glide_confnum>
253

> <i_i_glide_lignum>
3720

> <i_i_glide_posenum>
294

> <i_i_glide_rotatable_bonds>
9

> <i_m_Source_File_Index>
1598

> <b_m_subgroup_collapsed>
0

> <r_i_docking_score>
-4.20856

> <r_i_glide_ecoul>
-2.46305

> <r_i_glide_eff_state_penalty>
0

> <r_i_glide_einternal>
10.0003

> <r_i_glide_emodel>
-55.2807

> <r_i_glide_energy>
-48.0056

> <r_i_glide_erotb>
0.681353

> <r_i_glide_esite>
-0.0202423

> <r_i_glide_evdw>
-45.5426

> <r_i_glide_gscore>
-4.20856

> <r_i_glide_hbond>
0

> <r_i_glide_ligand_efficiency>
-0.127532

> <r_i_glide_ligand_efficiency_ln>
-0.935962

> <r_i_glide_ligand_efficiency_sa>
-0.409064

> <r_i_glide_lipo>
-1.15071

> <r_i_glide_metal>
0

> <r_i_glide_rewards>
-1.07238

> <s_i_glide_gridfile>
wee1_glide-grid

> <s_m_Source_File>
wee1_decoys_glide_SP.sdf

> <s_m_Source_Path>
/Users/zhangxujun/Desktop

> <s_m_entry_id>
1873

> <s_m_entry_name>
wee1_decoys_glide_SP.1598

> <s_m_subgroup_title>
wee1_decoys_glide_SP

> <s_m_subgroupid>
wee1_decoys_glide_SP


$$$$
