ZINC39315362_5056
                    3D
 Schrodinger Suite 2024-2.
 52 56  0  0  1  0            999 V2000
    6.5147   55.0450   19.7548 C   0  0  0  0  0  0
    7.2554   55.6959   20.7371 C   0  0  0  0  0  0
    6.9492   55.4920   22.0813 C   0  0  0  0  0  0
    5.9052   54.6349   22.4670 C   0  0  0  0  0  0
    5.1993   53.9711   21.4553 C   0  0  0  0  0  0
    5.4869   54.1775   20.1093 C   0  0  0  0  0  0
    5.5421   54.4561   23.9137 C   0  0  0  0  0  0
    6.4780   54.6373   24.9389 C   0  0  0  0  0  0
    6.0840   54.4678   26.2649 C   0  0  0  0  0  0
    4.7677   54.1012   26.5599 C   0  0  0  0  0  0
    3.8689   53.9141   25.4884 C   0  0  0  0  0  0
    4.2519   54.1018   24.1949 N   0  0  0  0  0  0
    2.1847   53.3823   25.7820 S   0  0  0  0  0  0
    1.1604   53.4879   24.2784 C   0  0  0  0  0  0
    1.4465   52.4494   23.2070 C   0  0  0  0  0  0
    1.1293   51.1530   23.0710 C   0  0  0  0  0  0
    0.3274   50.1026   23.8456 C   0  0  2  0  0  0
    1.0109   49.5467   24.4914 H   0  0  0  0  0  0
   -0.2380   49.0961   22.8305 C   0  0  0  0  0  0
   -0.0087   49.1989   21.5002 C   0  0  0  0  0  0
    0.8049   50.1059   20.8970 O   0  0  0  0  0  0
    1.7496   50.7363   21.7720 C   0  0  1  0  0  0
    2.5882   50.0478   21.8988 H   0  0  0  0  0  0
    2.2318   51.9629   21.2357 N   0  0  0  0  0  0
    2.0513   52.8928   22.0818 N   0  0  0  0  0  0
   -0.4986   48.3800   20.5205 N   0  0  0  0  0  0
   -1.0813   48.0512   23.3212 C   0  0  0  0  0  0
   -1.7482   47.1763   23.6815 N   0  0  0  0  0  0
   -0.7700   50.6987   24.7282 C   0  0  0  0  0  0
   -1.7875   51.4722   24.1536 C   0  0  0  0  0  0
   -2.8263   51.9587   24.9421 C   0  0  0  0  0  0
   -2.8566   51.6599   26.3015 C   0  0  0  0  0  0
   -1.8452   50.9000   26.8813 C   0  0  0  0  0  0
   -0.7998   50.4209   26.0969 C   0  0  0  0  0  0
   -3.8862   52.0971   27.0596 F   0  0  0  0  0  0
    4.3959   53.9346   27.9634 C   0  0  0  0  0  0
    4.1029   53.8053   29.0762 N   0  0  0  0  0  0
    6.7498   55.1995   18.7117 H   0  0  0  0  0  0
    8.0678   56.3493   20.4548 H   0  0  0  0  0  0
    7.5258   56.0273   22.8207 H   0  0  0  0  0  0
    4.4354   53.2651   21.7148 H   0  0  0  0  0  0
    4.9277   53.6521   19.3479 H   0  0  0  0  0  0
    7.5018   54.8942   24.7154 H   0  0  0  0  0  0
    6.8076   54.6115   27.0567 H   0  0  0  0  0  0
    0.1260   53.3691   24.5925 H   0  0  0  0  0  0
    1.2317   54.4971   23.8695 H   0  0  0  0  0  0
   -1.2023   47.6861   20.7256 H   0  0  0  0  0  0
   -0.0505   48.3476   19.6160 H   0  0  0  0  0  0
   -1.7787   51.6807   23.0936 H   0  0  0  0  0  0
   -3.6186   52.5446   24.5012 H   0  0  0  0  0  0
   -1.8851   50.6503   27.9324 H   0  0  0  0  0  0
   -0.0432   49.8007   26.5574 H   0  0  0  0  0  0
  1  6  2  0  0  0
  1  2  1  0  0  0
  1 38  1  0  0  0
  2  3  2  0  0  0
  2 39  1  0  0  0
  3  4  1  0  0  0
  3 40  1  0  0  0
  4  5  2  0  0  0
  4  7  1  0  0  0
  5  6  1  0  0  0
  5 41  1  0  0  0
  6 42  1  0  0  0
  7 12  2  0  0  0
  7  8  1  0  0  0
  8  9  2  0  0  0
  8 43  1  0  0  0
  9 10  1  0  0  0
  9 44  1  0  0  0
 10 11  2  0  0  0
 10 36  1  0  0  0
 11 12  1  0  0  0
 11 13  1  0  0  0
 13 14  1  0  0  0
 14 15  1  0  0  0
 14 45  1  0  0  0
 14 46  1  0  0  0
 15 25  1  0  0  0
 15 16  2  0  0  0
 16 22  1  0  0  0
 16 17  1  0  0  0
 17 18  1  0  0  0
 17 19  1  0  0  0
 17 29  1  0  0  0
 19 20  2  0  0  0
 19 27  1  0  0  0
 20 21  1  0  0  0
 20 26  1  0  0  0
 21 22  1  0  0  0
 22 23  1  0  0  0
 22 24  1  0  0  0
 24 25  2  0  0  0
 26 47  1  0  0  0
 26 48  1  0  0  0
 27 28  3  0  0  0
 29 34  2  0  0  0
 29 30  1  0  0  0
 30 31  2  0  0  0
 30 49  1  0  0  0
 31 32  1  0  0  0
 31 50  1  0  0  0
 32 33  2  0  0  0
 32 35  1  0  0  0
 33 34  1  0  0  0
 33 51  1  0  0  0
 34 52  1  0  0  0
 36 37  3  0  0  0
M  END
> <i_i_glide_confnum>
10

> <i_i_glide_lignum>
5057

> <i_i_glide_posenum>
359

> <i_i_glide_rotatable_bonds>
7

> <i_m_Source_File_Index>
1292

> <b_m_subgroup_collapsed>
0

> <r_i_docking_score>
-5.83365

> <r_i_glide_ecoul>
-2.15428

> <r_i_glide_eff_state_penalty>
0

> <r_i_glide_einternal>
6.97631

> <r_i_glide_emodel>
-64.6084

> <r_i_glide_energy>
-48.8724

> <r_i_glide_erotb>
0.439149

> <r_i_glide_esite>
-0.0252924

> <r_i_glide_evdw>
-46.7181

> <r_i_glide_gscore>
-5.83365

> <r_i_glide_hbond>
0

> <r_i_glide_ligand_efficiency>
-0.166676

> <r_i_glide_ligand_efficiency_ln>
-1.28062

> <r_i_glide_ligand_efficiency_sa>
-0.545207

> <r_i_glide_lipo>
-2.88796

> <r_i_glide_metal>
0

> <r_i_glide_rewards>
-0.700494

> <s_i_glide_gridfile>
wee1_glide-grid

> <s_m_Source_File>
wee1_decoys_glide_SP.sdf

> <s_m_Source_Path>
/Users/zhangxujun/Desktop

> <s_m_entry_id>
1567

> <s_m_entry_name>
wee1_decoys_glide_SP.1292

> <s_m_subgroup_title>
wee1_decoys_glide_SP

> <s_m_subgroupid>
wee1_decoys_glide_SP


$$$$
