ZINC67426688_253
                    3D
 Schrodinger Suite 2024-2.
 57 59  0  0  1  0            999 V2000
    1.9481   52.3782   30.6005 C   0  0  0  0  0  0
    1.0786   52.2941   29.3544 C   0  0  0  0  0  0
   -0.2508   51.8918   29.5292 C   0  0  0  0  0  0
   -1.0862   51.6967   28.4321 C   0  0  0  0  0  0
   -0.6104   51.9256   27.1457 C   0  0  0  0  0  0
    0.7052   52.3387   26.9546 C   0  0  0  0  0  0
    1.5588   52.5363   28.0451 C   0  0  0  0  0  0
    2.8746   52.8966   27.7094 N   0  0  0  0  0  0
    3.6330   53.8874   28.2306 C   0  0  0  0  0  0
    3.3331   54.5930   29.1966 O   0  0  0  0  0  0
    4.9217   54.0517   27.5235 C   0  0  0  0  0  0
    5.9982   53.9976   28.1193 O   0  0  0  0  0  0
    4.8034   54.3005   26.1973 N   0  0  0  0  0  0
    5.9212   54.5941   25.2864 C   0  0  2  0  0  0
    6.6745   53.8208   25.4620 H   0  0  0  0  0  0
    6.5435   55.9639   25.6230 C   0  0  0  0  0  0
    5.5860   54.4920   23.7854 C   0  0  0  0  0  0
    4.3487   54.0194   23.3266 C   0  0  0  0  0  0
    4.0786   53.9558   21.9616 C   0  0  0  0  0  0
    5.0296   54.3800   21.0258 C   0  0  0  0  0  0
    6.2439   54.8966   21.4821 C   0  0  0  0  0  0
    6.5348   54.9062   22.8411 C   0  0  0  0  0  0
    4.7952   54.2939   19.6600 N   0  0  0  0  0  0
    3.9766   53.2087   19.0916 C   0  0  0  0  0  0
    4.2877   52.8966   17.6161 C   0  0  0  0  0  0
    4.1477   54.1857   16.7878 N   0  3  0  0  0  0
    5.1300   55.2432   17.3266 C   0  0  0  0  0  0
    4.8327   55.5034   18.8187 C   0  0  0  0  0  0
    4.4253   53.8912   15.2977 C   0  0  0  0  0  0
   -1.4235   51.7506   26.0799 F   0  0  0  0  0  0
    2.9830   52.1071   30.3921 H   0  0  0  0  0  0
    1.9061   53.3869   31.0047 H   0  0  0  0  0  0
    1.6012   51.6968   31.3779 H   0  0  0  0  0  0
   -0.6363   51.6931   30.5211 H   0  0  0  0  0  0
   -2.0991   51.3518   28.5792 H   0  0  0  0  0  0
    1.0510   52.5012   25.9442 H   0  0  0  0  0  0
    3.2521   52.4230   26.9017 H   0  0  0  0  0  0
    3.8795   54.3623   25.7990 H   0  0  0  0  0  0
    7.5043   56.0970   25.1368 H   0  0  0  0  0  0
    5.8911   56.7667   25.2815 H   0  0  0  0  0  0
    6.7044   56.0957   26.6920 H   0  0  0  0  0  0
    3.5857   53.6838   24.0119 H   0  0  0  0  0  0
    3.1208   53.5782   21.6335 H   0  0  0  0  0  0
    6.9947   55.2282   20.7793 H   0  0  0  0  0  0
    7.5044   55.2653   23.1469 H   0  0  0  0  0  0
    4.0634   52.2983   19.6879 H   0  0  0  0  0  0
    2.9427   53.5529   19.1573 H   0  0  0  0  0  0
    3.5593   52.1846   17.2221 H   0  0  0  0  0  0
    5.2952   52.4971   17.4754 H   0  0  0  0  0  0
    4.9459   56.1470   16.7425 H   0  0  0  0  0  0
    6.1478   54.8849   17.1582 H   0  0  0  0  0  0
    3.8216   55.9100   18.8818 H   0  0  0  0  0  0
    5.5064   56.2609   19.2215 H   0  0  0  0  0  0
    5.4444   53.5098   15.2045 H   0  0  0  0  0  0
    3.6953   53.1490   14.9690 H   0  0  0  0  0  0
    4.2987   54.8252   14.7481 H   0  0  0  0  0  0
    3.2032   54.5327   16.8940 H   0  0  0  0  0  0
  1  2  1  0  0  0
  1 31  1  0  0  0
  1 32  1  0  0  0
  1 33  1  0  0  0
  2  7  2  0  0  0
  2  3  1  0  0  0
  3  4  2  0  0  0
  3 34  1  0  0  0
  4  5  1  0  0  0
  4 35  1  0  0  0
  5  6  2  0  0  0
  5 30  1  0  0  0
  6  7  1  0  0  0
  6 36  1  0  0  0
  7  8  1  0  0  0
  8  9  1  0  0  0
  8 37  1  0  0  0
  9 10  2  0  0  0
  9 11  1  0  0  0
 11 12  2  0  0  0
 11 13  1  0  0  0
 13 14  1  0  0  0
 13 38  1  0  0  0
 14 15  1  0  0  0
 14 16  1  0  0  0
 14 17  1  0  0  0
 16 39  1  0  0  0
 16 40  1  0  0  0
 16 41  1  0  0  0
 17 22  2  0  0  0
 17 18  1  0  0  0
 18 19  2  0  0  0
 18 42  1  0  0  0
 19 20  1  0  0  0
 19 43  1  0  0  0
 20 21  2  0  0  0
 20 23  1  0  0  0
 21 22  1  0  0  0
 21 44  1  0  0  0
 22 45  1  0  0  0
 23 28  1  0  0  0
 23 24  1  0  0  0
 24 25  1  0  0  0
 24 46  1  0  0  0
 24 47  1  0  0  0
 25 26  1  0  0  0
 25 48  1  0  0  0
 25 49  1  0  0  0
 26 27  1  0  0  0
 26 29  1  0  0  0
 26 57  1  0  0  0
 27 28  1  0  0  0
 27 50  1  0  0  0
 27 51  1  0  0  0
 28 52  1  0  0  0
 28 53  1  0  0  0
 29 54  1  0  0  0
 29 55  1  0  0  0
 29 56  1  0  0  0
M  CHG  1  26   1
M  END
> <i_i_glide_confnum>
7

> <i_i_glide_lignum>
254

> <i_i_glide_posenum>
313

> <i_i_glide_rotatable_bonds>
7

> <i_m_Source_File_Index>
1364

> <b_m_subgroup_collapsed>
0

> <r_i_docking_score>
-5.46515

> <r_i_glide_ecoul>
-3.5291

> <r_i_glide_eff_state_penalty>
0

> <r_i_glide_einternal>
8.53297

> <r_i_glide_emodel>
-58.8623

> <r_i_glide_energy>
-45.88

> <r_i_glide_erotb>
0.859503

> <r_i_glide_esite>
-0.031165

> <r_i_glide_evdw>
-42.3509

> <r_i_glide_gscore>
-5.46515

> <r_i_glide_hbond>
0

> <r_i_glide_ligand_efficiency>
-0.188453

> <r_i_glide_ligand_efficiency_ln>
-1.25138

> <r_i_glide_ligand_efficiency_sa>
-0.578988

> <r_i_glide_lipo>
-2.26259

> <r_i_glide_metal>
0

> <r_i_glide_rewards>
-1.38399

> <s_i_glide_gridfile>
wee1_glide-grid

> <s_m_Source_File>
wee1_decoys_glide_SP.sdf

> <s_m_Source_Path>
/Users/zhangxujun/Desktop

> <s_m_entry_id>
1639

> <s_m_entry_name>
wee1_decoys_glide_SP.1364

> <s_m_subgroup_title>
wee1_decoys_glide_SP

> <s_m_subgroupid>
wee1_decoys_glide_SP


$$$$
