ZINC50208585_3841
                    3D
 Schrodinger Suite 2024-2.
 32 34  0  0  1  0            999 V2000
    1.6647   52.8791   30.6601 C   0  0  0  0  0  0
    2.5375   53.2732   29.4813 C   0  0  0  0  0  0
    1.9992   53.2716   28.1954 C   0  0  0  0  0  0
    2.8029   53.5941   27.1067 C   0  0  0  0  0  0
    4.1565   53.9152   27.2860 C   0  0  0  0  0  0
    4.6819   53.9285   28.5860 C   0  0  0  0  0  0
    3.8792   53.6037   29.6757 C   0  0  0  0  0  0
    5.0283   54.2102   26.0970 C   0  0  0  0  0  0
    4.5708   54.1182   24.8591 N   0  0  0  0  0  0
    5.6182   54.4023   24.1299 C   0  0  0  0  0  0
    6.7099   54.6916   24.8835 O   0  0  0  0  0  0
    6.2969   54.5546   26.2061 N   0  0  0  0  0  0
    5.7154   54.4969   22.6308 C   0  0  0  0  0  0
    6.8542   55.1294   22.1104 C   0  0  0  0  0  0
    7.0196   55.3012   20.7379 C   0  0  0  0  0  0
    6.0342   54.8670   19.8549 C   0  0  0  0  0  0
    4.8900   54.2489   20.3524 C   0  0  0  0  0  0
    4.7208   54.0666   21.7282 C   0  0  0  0  0  0
    3.5354   53.4686   22.1500 N   0  0  0  0  0  0
    8.6160   56.0944   20.0787 Br  0  0  0  0  0  0
    2.2595   52.4901   31.4892 H   0  0  0  0  0  0
    0.9706   52.0863   30.3733 H   0  0  0  0  0  0
    1.0787   53.7314   31.0070 H   0  0  0  0  0  0
    0.9622   53.0086   28.0364 H   0  0  0  0  0  0
    2.3663   53.5705   26.1193 H   0  0  0  0  0  0
    5.7193   54.1732   28.7585 H   0  0  0  0  0  0
    4.3019   53.5981   30.6690 H   0  0  0  0  0  0
    7.6303   55.4953   22.7661 H   0  0  0  0  0  0
    6.1602   54.9969   18.7877 H   0  0  0  0  0  0
    4.1291   53.9185   19.6611 H   0  0  0  0  0  0
    3.3526   53.4092   23.1415 H   0  0  0  0  0  0
    2.7796   53.3888   21.4831 H   0  0  0  0  0  0
  1  2  1  0  0  0
  1 21  1  0  0  0
  1 22  1  0  0  0
  1 23  1  0  0  0
  2  7  2  0  0  0
  2  3  1  0  0  0
  3  4  2  0  0  0
  3 24  1  0  0  0
  4  5  1  0  0  0
  4 25  1  0  0  0
  5  6  2  0  0  0
  5  8  1  0  0  0
  6  7  1  0  0  0
  6 26  1  0  0  0
  7 27  1  0  0  0
  8 12  2  0  0  0
  8  9  1  0  0  0
  9 10  2  0  0  0
 10 11  1  0  0  0
 10 13  1  0  0  0
 11 12  1  0  0  0
 13 18  2  0  0  0
 13 14  1  0  0  0
 14 15  2  0  0  0
 14 28  1  0  0  0
 15 16  1  0  0  0
 15 20  1  0  0  0
 16 17  2  0  0  0
 16 29  1  0  0  0
 17 18  1  0  0  0
 17 30  1  0  0  0
 18 19  1  0  0  0
 19 31  1  0  0  0
 19 32  1  0  0  0
M  END
> <i_i_glide_confnum>
2

> <i_i_glide_lignum>
3842

> <i_i_glide_posenum>
293

> <i_i_glide_rotatable_bonds>
2

> <i_m_Source_File_Index>
2873

> <b_m_subgroup_collapsed>
0

> <r_i_docking_score>
-5.64091

> <r_i_glide_ecoul>
-1.9623

> <r_i_glide_eff_state_penalty>
0

> <r_i_glide_einternal>
0.0152451

> <r_i_glide_emodel>
-51.2288

> <r_i_glide_energy>
-37.8683

> <r_i_glide_erotb>
0.344982

> <r_i_glide_esite>
0

> <r_i_glide_evdw>
-35.9059

> <r_i_glide_gscore>
-5.64091

> <r_i_glide_hbond>
0

> <r_i_glide_ligand_efficiency>
-0.282045

> <r_i_glide_ligand_efficiency_ln>
-1.41173

> <r_i_glide_ligand_efficiency_sa>
-0.765589

> <r_i_glide_lipo>
-2.2598

> <r_i_glide_metal>
0

> <r_i_glide_rewards>
-1.63645

> <s_i_glide_gridfile>
wee1_glide-grid

> <s_m_Source_File>
wee1_decoys_glide_SP.sdf

> <s_m_Source_Path>
/Users/zhangxujun/Desktop

> <s_m_entry_id>
3148

> <s_m_entry_name>
wee1_decoys_glide_SP.2873

> <s_m_subgroup_title>
wee1_decoys_glide_SP

> <s_m_subgroupid>
wee1_decoys_glide_SP


$$$$
