ZINC66087204_3042
                    3D
 Schrodinger Suite 2024-2.
 69 72  0  0  1  0            999 V2000
   -4.5139   49.8321   25.1520 C   0  0  0  0  0  0
   -3.4959   49.1805   26.1023 C   0  0  0  0  0  0
   -2.8629   47.9632   25.5594 N   0  0  0  0  0  0
   -3.6691   46.8098   25.5917 C   0  0  0  0  0  0
   -4.4702   46.4719   24.4928 C   0  0  0  0  0  0
   -5.2864   45.3456   24.5538 C   0  0  0  0  0  0
   -5.2954   44.5615   25.7066 C   0  0  0  0  0  0
   -4.4973   44.8974   26.7991 C   0  0  0  0  0  0
   -3.6853   46.0273   26.7482 C   0  0  0  0  0  0
   -1.6939   47.9387   24.8446 C   0  0  0  0  0  0
   -1.2952   46.9180   24.2711 O   0  0  0  0  0  0
   -0.8626   49.1976   24.6914 C   0  0  0  0  0  0
   -0.4242   49.5745   23.4127 C   0  0  0  0  0  0
    0.3504   50.7207   23.2385 C   0  0  0  0  0  0
    0.7046   51.5003   24.3484 C   0  0  0  0  0  0
    0.2891   51.1187   25.6214 C   0  0  0  0  0  0
   -0.4702   49.9677   25.7956 C   0  0  0  0  0  0
    1.4545   52.6849   24.2733 N   0  0  0  0  0  0
    2.3535   53.0516   23.3376 C   0  0  0  0  0  0
    2.6696   52.3708   22.3613 O   0  0  0  0  0  0
    3.0485   54.4005   23.5745 C   0  0  0  0  0  0
    4.4036   54.2233   24.0473 N   0  0  0  0  0  0
    4.8437   54.2772   25.3812 C   0  0  0  0  0  0
    6.2135   54.1617   25.6251 C   0  0  0  0  0  0
    6.7023   54.1703   26.9305 C   0  0  0  0  0  0
    5.8265   54.2990   28.0039 C   0  0  0  0  0  0
    4.4484   54.4306   27.7895 C   0  0  0  0  0  0
    3.9674   54.4156   26.4671 C   0  0  0  0  0  0
    3.5168   54.5747   28.9701 C   0  0  0  0  0  0
    3.8041   54.0974   30.0691 O   0  0  0  0  0  0
    2.4009   55.2957   28.7462 N   0  0  0  0  0  0
    1.3354   55.5563   29.7212 C   0  0  0  0  0  0
    0.3420   54.3868   29.9621 C   0  0  1  0  0  0
   -0.4957   54.7252   30.5699 H   0  0  0  0  0  0
   -0.0553   53.5175   28.7572 C   0  0  0  0  0  0
   -0.3306   52.1643   29.3664 C   0  0  0  0  0  0
    0.6252   52.1018   30.5558 C   0  0  0  0  0  0
    1.0562   53.4477   30.7626 O   0  0  0  0  0  0
   -4.9003   50.7546   25.5858 H   0  0  0  0  0  0
   -4.0659   50.0815   24.1903 H   0  0  0  0  0  0
   -5.3696   49.1811   24.9749 H   0  0  0  0  0  0
   -4.0026   48.9035   27.0276 H   0  0  0  0  0  0
   -2.7836   49.9313   26.4265 H   0  0  0  0  0  0
   -4.4637   47.0870   23.6030 H   0  0  0  0  0  0
   -5.9137   45.0848   23.7134 H   0  0  0  0  0  0
   -5.9253   43.6859   25.7557 H   0  0  0  0  0  0
   -4.4992   44.2764   27.6816 H   0  0  0  0  0  0
   -3.0691   46.2940   27.5977 H   0  0  0  0  0  0
   -0.6870   48.9839   22.5458 H   0  0  0  0  0  0
    0.6518   50.9957   22.2380 H   0  0  0  0  0  0
    0.5737   51.6956   26.4892 H   0  0  0  0  0  0
   -0.7419   49.6958   26.8064 H   0  0  0  0  0  0
    1.3688   53.2909   25.0735 H   0  0  0  0  0  0
    2.4240   55.0441   24.1945 H   0  0  0  0  0  0
    3.0627   54.8981   22.6044 H   0  0  0  0  0  0
    5.0901   53.9337   23.3647 H   0  0  0  0  0  0
    6.9093   54.0536   24.8040 H   0  0  0  0  0  0
    7.7608   54.0780   27.1164 H   0  0  0  0  0  0
    6.2322   54.3102   29.0069 H   0  0  0  0  0  0
    2.9077   54.4871   26.2852 H   0  0  0  0  0  0
    2.2873   55.7085   27.8343 H   0  0  0  0  0  0
    0.7824   56.4279   29.3721 H   0  0  0  0  0  0
    1.7842   55.8592   30.6704 H   0  0  0  0  0  0
    0.7636   53.4499   28.0440 H   0  0  0  0  0  0
   -0.8917   53.9309   28.1887 H   0  0  0  0  0  0
   -0.1718   51.3391   28.6697 H   0  0  0  0  0  0
   -1.3610   52.0986   29.7131 H   0  0  0  0  0  0
    1.4996   51.5001   30.2963 H   0  0  0  0  0  0
    0.1077   51.7098   31.4355 H   0  0  0  0  0  0
  1  2  1  0  0  0
  1 39  1  0  0  0
  1 40  1  0  0  0
  1 41  1  0  0  0
  2  3  1  0  0  0
  2 42  1  0  0  0
  2 43  1  0  0  0
  3  4  1  0  0  0
  3 10  1  0  0  0
  4  9  2  0  0  0
  4  5  1  0  0  0
  5  6  2  0  0  0
  5 44  1  0  0  0
  6  7  1  0  0  0
  6 45  1  0  0  0
  7  8  2  0  0  0
  7 46  1  0  0  0
  8  9  1  0  0  0
  8 47  1  0  0  0
  9 48  1  0  0  0
 10 11  2  0  0  0
 10 12  1  0  0  0
 12 17  2  0  0  0
 12 13  1  0  0  0
 13 14  2  0  0  0
 13 49  1  0  0  0
 14 15  1  0  0  0
 14 50  1  0  0  0
 15 16  2  0  0  0
 15 18  1  0  0  0
 16 17  1  0  0  0
 16 51  1  0  0  0
 17 52  1  0  0  0
 18 19  1  0  0  0
 18 53  1  0  0  0
 19 20  2  0  0  0
 19 21  1  0  0  0
 21 22  1  0  0  0
 21 54  1  0  0  0
 21 55  1  0  0  0
 22 23  1  0  0  0
 22 56  1  0  0  0
 23 28  2  0  0  0
 23 24  1  0  0  0
 24 25  2  0  0  0
 24 57  1  0  0  0
 25 26  1  0  0  0
 25 58  1  0  0  0
 26 27  2  0  0  0
 26 59  1  0  0  0
 27 28  1  0  0  0
 27 29  1  0  0  0
 28 60  1  0  0  0
 29 30  2  0  0  0
 29 31  1  0  0  0
 31 32  1  0  0  0
 31 61  1  0  0  0
 32 33  1  0  0  0
 32 62  1  0  0  0
 32 63  1  0  0  0
 33 34  1  0  0  0
 33 38  1  0  0  0
 33 35  1  0  0  0
 35 36  1  0  0  0
 35 64  1  0  0  0
 35 65  1  0  0  0
 36 37  1  0  0  0
 36 66  1  0  0  0
 36 67  1  0  0  0
 37 38  1  0  0  0
 37 68  1  0  0  0
 37 69  1  0  0  0
M  END
> <i_i_glide_confnum>
424

> <i_i_glide_lignum>
3043

> <i_i_glide_posenum>
174

> <i_i_glide_rotatable_bonds>
13

> <i_m_Source_File_Index>
2839

> <b_m_subgroup_collapsed>
0

> <r_i_docking_score>
-4.37313

> <r_i_glide_ecoul>
-5.86968

> <r_i_glide_eff_state_penalty>
0

> <r_i_glide_einternal>
10.2127

> <r_i_glide_emodel>
-61.4596

> <r_i_glide_energy>
-57.0508

> <r_i_glide_erotb>
0.896397

> <r_i_glide_esite>
-0.151847

> <r_i_glide_evdw>
-51.1811

> <r_i_glide_gscore>
-4.37313

> <r_i_glide_hbond>
-0.321412

> <r_i_glide_ligand_efficiency>
-0.118193

> <r_i_glide_ligand_efficiency_ln>
-0.94843

> <r_i_glide_ligand_efficiency_sa>
-0.393844

> <r_i_glide_lipo>
-2.62114

> <r_i_glide_metal>
0

> <r_i_glide_rewards>
1.26438

> <s_i_glide_gridfile>
wee1_glide-grid

> <s_m_Source_File>
wee1_decoys_glide_SP.sdf

> <s_m_Source_Path>
/Users/zhangxujun/Desktop

> <s_m_entry_id>
3114

> <s_m_entry_name>
wee1_decoys_glide_SP.2839

> <s_m_subgroup_title>
wee1_decoys_glide_SP

> <s_m_subgroupid>
wee1_decoys_glide_SP


$$$$
