ZINC00704321_3806
                    3D
 Schrodinger Suite 2024-2.
 36 38  0  0  1  0            999 V2000
    6.1347   54.2911   27.0217 C   0  0  0  0  0  0
    5.5517   53.5743   28.0621 C   0  0  0  0  0  0
    4.1853   53.3055   28.0392 C   0  0  0  0  0  0
    3.3921   53.7662   26.9805 C   0  0  0  0  0  0
    3.9920   54.4950   25.9439 C   0  0  0  0  0  0
    5.3612   54.7486   25.9586 C   0  0  0  0  0  0
    1.8723   53.5418   26.9692 C   0  0  1  0  0  0
    1.5043   54.4964   26.6119 H   0  0  0  0  0  0
    1.3244   52.5515   25.9284 C   0  0  0  0  0  0
    0.5433   51.5044   26.3047 C   0  0  0  0  0  0
    0.2454   51.2655   27.6147 O   0  0  0  0  0  0
    0.4445   52.2272   28.5494 C   0  0  0  0  0  0
    1.1725   53.3391   28.3196 C   0  0  0  0  0  0
    1.3079   54.3572   29.3091 C   0  0  0  0  0  0
    1.4423   55.2059   30.0817 N   0  0  0  0  0  0
   -0.2585   51.8930   29.6764 N   0  0  0  0  0  0
   -0.0058   50.4246   25.4393 C   0  0  0  0  0  0
    0.7048   49.9260   24.3382 C   0  0  0  0  0  0
    0.1836   48.8957   23.5622 C   0  0  0  0  0  0
   -1.0554   48.3483   23.8786 C   0  0  0  0  0  0
   -1.7850   48.8410   24.9557 C   0  0  0  0  0  0
   -1.2635   49.8778   25.7256 C   0  0  0  0  0  0
   -1.7448   46.9071   22.8459 Br  0  0  0  0  0  0
    1.5915   52.8251   24.5519 C   0  0  0  0  0  0
    1.7992   53.0845   23.4432 N   0  0  0  0  0  0
    7.1949   54.4934   27.0458 H   0  0  0  0  0  0
    6.1625   53.2297   28.8809 H   0  0  0  0  0  0
    3.7489   52.7453   28.8529 H   0  0  0  0  0  0
    3.3986   54.8699   25.1224 H   0  0  0  0  0  0
    5.8160   55.3064   25.1543 H   0  0  0  0  0  0
   -0.1617   52.4042   30.5427 H   0  0  0  0  0  0
   -0.8956   51.1073   29.6698 H   0  0  0  0  0  0
    1.6848   50.3040   24.0878 H   0  0  0  0  0  0
    0.7534   48.4981   22.7353 H   0  0  0  0  0  0
   -2.7415   48.4096   25.2108 H   0  0  0  0  0  0
   -1.8300   50.2256   26.5784 H   0  0  0  0  0  0
  1  6  2  0  0  0
  1  2  1  0  0  0
  1 26  1  0  0  0
  2  3  2  0  0  0
  2 27  1  0  0  0
  3  4  1  0  0  0
  3 28  1  0  0  0
  4  5  2  0  0  0
  4  7  1  0  0  0
  5  6  1  0  0  0
  5 29  1  0  0  0
  6 30  1  0  0  0
  7  8  1  0  0  0
  7 13  1  0  0  0
  7  9  1  0  0  0
  9 10  2  0  0  0
  9 24  1  0  0  0
 10 11  1  0  0  0
 10 17  1  0  0  0
 11 12  1  0  0  0
 12 13  2  0  0  0
 12 16  1  0  0  0
 13 14  1  0  0  0
 14 15  3  0  0  0
 16 31  1  0  0  0
 16 32  1  0  0  0
 17 22  2  0  0  0
 17 18  1  0  0  0
 18 19  2  0  0  0
 18 33  1  0  0  0
 19 20  1  0  0  0
 19 34  1  0  0  0
 20 21  2  0  0  0
 20 23  1  0  0  0
 21 22  1  0  0  0
 21 35  1  0  0  0
 22 36  1  0  0  0
 24 25  3  0  0  0
M  END
> <i_i_glide_confnum>
3

> <i_i_glide_lignum>
3807

> <i_i_glide_posenum>
269

> <i_i_glide_rotatable_bonds>
4

> <i_m_Source_File_Index>
261

> <b_m_subgroup_collapsed>
0

> <r_i_docking_score>
-5.35102

> <r_i_glide_ecoul>
-0.799146

> <r_i_glide_eff_state_penalty>
0

> <r_i_glide_einternal>
2.4471

> <r_i_glide_emodel>
-47.7048

> <r_i_glide_energy>
-36.8226

> <r_i_glide_erotb>
0.270907

> <r_i_glide_esite>
-0.0470959

> <r_i_glide_evdw>
-36.0234

> <r_i_glide_gscore>
-5.35102

> <r_i_glide_hbond>
0

> <r_i_glide_ligand_efficiency>
-0.222959

> <r_i_glide_ligand_efficiency_ln>
-1.28074

> <r_i_glide_ligand_efficiency_sa>
-0.643126

> <r_i_glide_lipo>
-2.18524

> <r_i_glide_metal>
0

> <r_i_glide_rewards>
-1.46855

> <s_i_glide_gridfile>
wee1_glide-grid

> <s_m_Source_File>
wee1_decoys_glide_SP.sdf

> <s_m_Source_Path>
/Users/zhangxujun/Desktop

> <s_m_entry_id>
536

> <s_m_entry_name>
wee1_decoys_glide_SP.261

> <s_m_subgroup_title>
wee1_decoys_glide_SP

> <s_m_subgroupid>
wee1_decoys_glide_SP


$$$$
