ZINC14273958_2857
                    3D
 Schrodinger Suite 2024-2.
 63 66  0  0  1  0            999 V2000
    5.1900   54.4715   24.2640 C   0  0  0  0  0  0
    4.4453   53.8208   23.1027 C   0  0  0  0  0  0
    5.1031   53.6972   21.8757 C   0  0  0  0  0  0
    4.4749   53.0933   20.7827 C   0  0  0  0  0  0
    3.1786   52.5992   20.9266 C   0  0  0  0  0  0
    2.5089   52.7226   22.1441 C   0  0  0  0  0  0
    3.1383   53.3185   23.2460 C   0  0  0  0  0  0
    2.5197   53.4306   24.5081 N   0  0  0  0  0  0
    1.6354   52.5932   25.0878 C   0  0  0  0  0  0
    1.1035   51.6282   24.5359 O   0  0  0  0  0  0
    1.3672   52.8968   26.4754 C   0  0  0  0  0  0
    0.6125   52.1981   27.4214 C   0  0  0  0  0  0
    0.6394   52.9712   28.6231 C   0  0  0  0  0  0
    0.0989   52.8649   29.9143 C   0  0  0  0  0  0
    0.3352   53.8973   30.8259 C   0  0  0  0  0  0
    1.1010   55.0162   30.4810 C   0  0  0  0  0  0
    1.6804   55.1375   29.2176 C   0  0  0  0  0  0
    1.4317   54.1020   28.3106 C   0  0  0  0  0  0
    1.8886   54.0421   27.0249 O   0  0  0  0  0  0
    5.1161   52.8968   19.5470 N   0  0  0  0  0  0
    5.8689   53.7328   18.7620 C   0  0  0  0  0  0
    6.1776   55.3540   19.1303 S   0  0  0  0  0  0
    6.3267   53.0583   17.6551 N   0  0  0  0  0  0
    6.7702   53.5097   16.4527 C   0  0  0  0  0  0
    6.5657   54.6384   15.9984 O   0  0  0  0  0  0
    7.4901   52.4971   15.6018 C   0  0  0  0  0  0
    7.1311   52.3552   14.2575 C   0  0  0  0  0  0
    7.8126   51.4651   13.4310 C   0  0  0  0  0  0
    8.8822   50.7320   13.9352 C   0  0  0  0  0  0
    9.2802   50.8700   15.2652 C   0  0  0  0  0  0
    8.5557   51.7337   16.1085 C   0  0  0  0  0  0
   10.3914   50.1364   15.6268 O   0  0  0  0  0  0
   11.0382   50.3433   16.8821 C   0  0  0  0  0  0
   12.5640   50.1589   16.7071 C   0  0  0  0  0  0
   13.2917   50.2733   18.0591 C   0  0  0  0  0  0
   12.9563   48.8599   15.9717 C   0  0  0  0  0  0
    5.3413   53.7478   25.0661 H   0  0  0  0  0  0
    6.1630   54.8670   23.9645 H   0  0  0  0  0  0
    4.6097   55.2970   24.6759 H   0  0  0  0  0  0
    6.1153   54.0661   21.7836 H   0  0  0  0  0  0
    2.6796   52.1206   20.0963 H   0  0  0  0  0  0
    1.5016   52.3432   22.2156 H   0  0  0  0  0  0
    2.8908   54.1501   25.1085 H   0  0  0  0  0  0
    0.1033   51.2575   27.2458 H   0  0  0  0  0  0
   -0.4983   52.0078   30.1992 H   0  0  0  0  0  0
   -0.0833   53.8259   31.8227 H   0  0  0  0  0  0
    1.2478   55.7992   31.2132 H   0  0  0  0  0  0
    2.2779   55.9963   28.9476 H   0  0  0  0  0  0
    4.9252   51.9920   19.1278 H   0  0  0  0  0  0
    6.3915   52.0533   17.7696 H   0  0  0  0  0  0
    6.3197   52.9349   13.8417 H   0  0  0  0  0  0
    7.5266   51.3604   12.3948 H   0  0  0  0  0  0
    9.4295   50.0634   13.2849 H   0  0  0  0  0  0
    8.8301   51.8503   17.1467 H   0  0  0  0  0  0
   10.6335   49.6370   17.6089 H   0  0  0  0  0  0
   10.8820   51.3462   17.2793 H   0  0  0  0  0  0
   12.9049   50.9862   16.0825 H   0  0  0  0  0  0
   12.9574   49.5038   18.7577 H   0  0  0  0  0  0
   13.1059   51.2426   18.5227 H   0  0  0  0  0  0
   14.3716   50.1701   17.9411 H   0  0  0  0  0  0
   12.7048   47.9731   16.5501 H   0  0  0  0  0  0
   12.4607   48.7801   15.0018 H   0  0  0  0  0  0
   14.0286   48.8293   15.7830 H   0  0  0  0  0  0
  1  2  1  0  0  0
  1 37  1  0  0  0
  1 38  1  0  0  0
  1 39  1  0  0  0
  2  7  2  0  0  0
  2  3  1  0  0  0
  3  4  2  0  0  0
  3 40  1  0  0  0
  4  5  1  0  0  0
  4 20  1  0  0  0
  5  6  2  0  0  0
  5 41  1  0  0  0
  6  7  1  0  0  0
  6 42  1  0  0  0
  7  8  1  0  0  0
  8  9  1  0  0  0
  8 43  1  0  0  0
  9 10  2  0  0  0
  9 11  1  0  0  0
 11 19  1  0  0  0
 11 12  2  0  0  0
 12 13  1  0  0  0
 12 44  1  0  0  0
 13 18  2  0  0  0
 13 14  1  0  0  0
 14 15  2  0  0  0
 14 45  1  0  0  0
 15 16  1  0  0  0
 15 46  1  0  0  0
 16 17  2  0  0  0
 16 47  1  0  0  0
 17 18  1  0  0  0
 17 48  1  0  0  0
 18 19  1  0  0  0
 20 21  1  0  0  0
 20 49  1  0  0  0
 21 22  2  0  0  0
 21 23  1  0  0  0
 23 24  1  0  0  0
 23 50  1  0  0  0
 24 25  2  0  0  0
 24 26  1  0  0  0
 26 31  2  0  0  0
 26 27  1  0  0  0
 27 28  2  0  0  0
 27 51  1  0  0  0
 28 29  1  0  0  0
 28 52  1  0  0  0
 29 30  2  0  0  0
 29 53  1  0  0  0
 30 31  1  0  0  0
 30 32  1  0  0  0
 31 54  1  0  0  0
 32 33  1  0  0  0
 33 34  1  0  0  0
 33 55  1  0  0  0
 33 56  1  0  0  0
 34 35  1  0  0  0
 34 36  1  0  0  0
 34 57  1  0  0  0
 35 58  1  0  0  0
 35 59  1  0  0  0
 35 60  1  0  0  0
 36 61  1  0  0  0
 36 62  1  0  0  0
 36 63  1  0  0  0
M  END
> <i_i_glide_confnum>
187

> <i_i_glide_lignum>
2858

> <i_i_glide_posenum>
135

> <i_i_glide_rotatable_bonds>
11

> <i_m_Source_File_Index>
456

> <b_m_subgroup_collapsed>
0

> <r_i_docking_score>
-5.34916

> <r_i_glide_ecoul>
-4.5054

> <r_i_glide_eff_state_penalty>
0

> <r_i_glide_einternal>
5.42305

> <r_i_glide_emodel>
-65.118

> <r_i_glide_energy>
-50.3287

> <r_i_glide_erotb>
0.811903

> <r_i_glide_esite>
-0.200622

> <r_i_glide_evdw>
-45.8233

> <r_i_glide_gscore>
-5.34916

> <r_i_glide_hbond>
-0.297214

> <r_i_glide_ligand_efficiency>
-0.148588

> <r_i_glide_ligand_efficiency_ln>
-1.16704

> <r_i_glide_ligand_efficiency_sa>
-0.490626

> <r_i_glide_lipo>
-2.73885

> <r_i_glide_metal>
0

> <r_i_glide_rewards>
0.04259

> <s_i_glide_gridfile>
wee1_glide-grid

> <s_m_Source_File>
wee1_decoys_glide_SP.sdf

> <s_m_Source_Path>
/Users/zhangxujun/Desktop

> <s_m_entry_id>
731

> <s_m_entry_name>
wee1_decoys_glide_SP.456

> <s_m_subgroup_title>
wee1_decoys_glide_SP

> <s_m_subgroupid>
wee1_decoys_glide_SP


$$$$
