ZINC13518951_3324
                    3D
 Schrodinger Suite 2024-2.
 47 50  0  0  1  0            999 V2000
    1.3346   47.9671   19.5625 C   0  0  0  0  0  0
    0.8147   46.7086   19.2594 C   0  0  0  0  0  0
   -0.5336   46.5620   18.9194 C   0  0  0  0  0  0
   -1.3499   47.6928   18.8421 C   0  0  0  0  0  0
   -0.8318   48.9525   19.1293 C   0  0  0  0  0  0
    0.5044   49.0953   19.5076 C   0  0  0  0  0  0
    0.9373   50.4080   19.7619 N   0  0  0  0  0  0
    1.9947   50.8390   20.4827 C   0  0  0  0  0  0
    2.7535   50.1080   21.1180 O   0  0  0  0  0  0
    2.1837   52.3749   20.5160 C   0  0  2  0  0  0
    1.2781   52.8410   20.1223 H   0  0  0  0  0  0
    3.4050   52.8180   19.7244 C   0  0  0  0  0  0
    4.4055   53.4194   20.7090 C   0  0  0  0  0  0
    5.5041   53.8499   20.3612 O   0  0  0  0  0  0
    3.8534   53.3868   21.9594 N   0  0  0  0  0  0
    2.4618   52.9047   21.9153 C   0  0  0  0  0  0
    4.4628   53.8595   23.1614 C   0  0  0  0  0  0
    3.6554   54.0962   24.2881 C   0  0  0  0  0  0
    4.2204   54.4470   25.5111 C   0  0  0  0  0  0
    5.6010   54.5723   25.6226 C   0  0  0  0  0  0
    6.4175   54.4019   24.5106 C   0  0  0  0  0  0
    5.8536   54.0468   23.2897 C   0  0  0  0  0  0
    6.3072   54.8960   27.1596 Cl  0  0  0  0  0  0
   -1.2262   44.9445   18.5101 S   0  0  0  0  0  0
   -2.6796   45.1160   18.6130 O   0  0  0  0  0  0
   -0.6869   44.6648   17.1764 O   0  0  0  0  0  0
   -0.6647   44.0563   19.6817 N   0  5  0  0  0  0
    0.3124   43.1311   19.6591 C   0  0  0  0  0  0
    0.7041   42.4827   20.7300 N   0  0  0  0  0  0
    1.5691   41.5255   20.4707 C   0  0  0  0  0  0
    1.9560   41.3857   19.1468 C   0  0  0  0  0  0
    1.1048   42.5692   18.2029 S   0  0  0  0  0  0
    2.3833   48.0535   19.8085 H   0  0  0  0  0  0
    1.4625   45.8456   19.2812 H   0  0  0  0  0  0
   -2.3876   47.6003   18.5555 H   0  0  0  0  0  0
   -1.4813   49.8132   19.0620 H   0  0  0  0  0  0
    0.3269   51.1215   19.3984 H   0  0  0  0  0  0
    3.1371   53.5603   18.9720 H   0  0  0  0  0  0
    3.9029   52.0063   19.1874 H   0  0  0  0  0  0
    2.2011   52.2018   22.7088 H   0  0  0  0  0  0
    1.8211   53.7726   22.0822 H   0  0  0  0  0  0
    2.5833   53.9797   24.2465 H   0  0  0  0  0  0
    3.5905   54.5882   26.3771 H   0  0  0  0  0  0
    7.4899   54.5019   24.5951 H   0  0  0  0  0  0
    6.5366   53.8689   22.4779 H   0  0  0  0  0  0
    1.9044   40.9025   21.2818 H   0  0  0  0  0  0
    2.6519   40.6893   18.7008 H   0  0  0  0  0  0
  1  6  2  0  0  0
  1  2  1  0  0  0
  1 33  1  0  0  0
  2  3  2  0  0  0
  2 34  1  0  0  0
  3  4  1  0  0  0
  3 24  1  0  0  0
  4  5  2  0  0  0
  4 35  1  0  0  0
  5  6  1  0  0  0
  5 36  1  0  0  0
  6  7  1  0  0  0
  7  8  1  0  0  0
  7 37  1  0  0  0
  8  9  2  0  0  0
  8 10  1  0  0  0
 10 11  1  0  0  0
 10 16  1  0  0  0
 10 12  1  0  0  0
 12 13  1  0  0  0
 12 38  1  0  0  0
 12 39  1  0  0  0
 13 14  2  0  0  0
 13 15  1  0  0  0
 15 16  1  0  0  0
 15 17  1  0  0  0
 16 40  1  0  0  0
 16 41  1  0  0  0
 17 22  2  0  0  0
 17 18  1  0  0  0
 18 19  2  0  0  0
 18 42  1  0  0  0
 19 20  1  0  0  0
 19 43  1  0  0  0
 20 21  2  0  0  0
 20 23  1  0  0  0
 21 22  1  0  0  0
 21 44  1  0  0  0
 22 45  1  0  0  0
 24 25  2  0  0  0
 24 26  2  0  0  0
 24 27  1  0  0  0
 27 28  1  0  0  0
 28 32  1  0  0  0
 28 29  2  0  0  0
 29 30  1  0  0  0
 30 31  2  0  0  0
 30 46  1  0  0  0
 31 32  1  0  0  0
 31 47  1  0  0  0
M  CHG  1  27  -1
M  END
> <i_i_glide_confnum>
10

> <i_i_glide_lignum>
3325

> <i_i_glide_posenum>
316

> <i_i_glide_rotatable_bonds>
7

> <i_m_Source_File_Index>
4456

> <b_m_subgroup_collapsed>
0

> <r_i_docking_score>
-3.75745

> <r_i_glide_ecoul>
-1.59492

> <r_i_glide_eff_state_penalty>
0

> <r_i_glide_einternal>
3.52232

> <r_i_glide_emodel>
-52.3617

> <r_i_glide_energy>
-43.6095

> <r_i_glide_erotb>
0.62563

> <r_i_glide_esite>
-0.0262665

> <r_i_glide_evdw>
-42.0146

> <r_i_glide_gscore>
-3.75745

> <r_i_glide_hbond>
-0.115775

> <r_i_glide_ligand_efficiency>
-0.121208

> <r_i_glide_ligand_efficiency_ln>
-0.847421

> <r_i_glide_ligand_efficiency_sa>
-0.380761

> <r_i_glide_lipo>
-2.10914

> <r_i_glide_metal>
0

> <r_i_glide_rewards>
0.208071

> <s_i_glide_gridfile>
wee1_glide-grid

> <s_m_Source_File>
wee1_decoys_glide_SP.sdf

> <s_m_Source_Path>
/Users/zhangxujun/Desktop

> <s_m_entry_id>
4731

> <s_m_entry_name>
wee1_decoys_glide_SP.4456

> <s_m_subgroup_title>
wee1_decoys_glide_SP

> <s_m_subgroupid>
wee1_decoys_glide_SP


$$$$
