ZINC20763135_3467
                    3D
 Schrodinger Suite 2024-2.
 50 53  0  0  1  0            999 V2000
    3.7525   53.1543   17.9964 C   0  0  0  0  0  0
    4.0406   53.4881   19.3500 O   0  0  0  0  0  0
    3.3073   52.8957   20.3583 C   0  0  0  0  0  0
    3.5067   53.4024   21.6395 C   0  0  0  0  0  0
    2.7940   52.8968   22.7212 C   0  0  0  0  0  0
    1.8828   51.8433   22.5477 C   0  0  0  0  0  0
    1.6824   51.3371   21.2535 C   0  0  0  0  0  0
    2.3850   51.8573   20.1692 C   0  0  0  0  0  0
    1.1932   51.2357   23.7141 C   0  0  0  0  0  0
    0.7652   50.0262   23.6513 N   0  0  0  0  0  0
    0.1608   49.3037   24.7725 C   0  0  1  0  0  0
    0.7036   48.3643   24.9097 H   0  0  0  0  0  0
    0.2959   49.9879   26.1445 N   0  3  0  0  0  0
    0.1162   51.5113   26.0700 C   0  0  2  0  0  0
   -0.9168   51.6548   25.7420 H   0  0  0  0  0  0
    1.1124   52.0644   25.0146 C   0  0  0  0  0  0
    0.2483   52.0570   27.5068 C   0  0  0  0  0  0
    1.2996   52.9120   27.8852 C   0  0  0  0  0  0
    1.4360   53.3447   29.2046 C   0  0  0  0  0  0
    0.5273   52.9262   30.1730 C   0  0  0  0  0  0
   -0.5295   52.0964   29.8122 C   0  0  0  0  0  0
   -0.6887   51.6856   28.4884 C   0  0  0  0  0  0
   -1.7655   50.8967   28.1671 O   0  0  0  0  0  0
    2.8750   54.4969   29.6805 Br  0  0  0  0  0  0
   -1.3173   48.9529   24.5616 C   0  0  0  0  0  0
   -2.1310   49.6703   23.6725 C   0  0  0  0  0  0
   -3.4712   49.3279   23.5155 C   0  0  0  0  0  0
   -4.0045   48.2711   24.2471 C   0  0  0  0  0  0
   -3.2078   47.5506   25.1315 C   0  0  0  0  0  0
   -1.8659   47.8858   25.2822 C   0  0  0  0  0  0
   -5.3065   47.9417   24.0973 F   0  0  0  0  0  0
    4.4155   53.7152   17.3379 H   0  0  0  0  0  0
    3.9066   52.0964   17.7909 H   0  0  0  0  0  0
    2.7265   53.4181   17.7358 H   0  0  0  0  0  0
    4.2116   54.2068   21.7891 H   0  0  0  0  0  0
    2.9984   53.3224   23.6921 H   0  0  0  0  0  0
    0.9929   50.5232   21.0763 H   0  0  0  0  0  0
    2.2117   51.4355   19.1908 H   0  0  0  0  0  0
   -0.3981   49.5987   26.7732 H   0  0  0  0  0  0
    2.1224   52.0968   25.4147 H   0  0  0  0  0  0
    0.8624   53.0986   24.7746 H   0  0  0  0  0  0
    2.0347   53.2587   27.1771 H   0  0  0  0  0  0
    0.6322   53.2423   31.2013 H   0  0  0  0  0  0
   -1.2312   51.7693   30.5685 H   0  0  0  0  0  0
   -1.7002   49.9666   28.4795 H   0  0  0  0  0  0
   -1.7331   50.4972   23.1031 H   0  0  0  0  0  0
   -4.0989   49.8803   22.8322 H   0  0  0  0  0  0
   -3.6335   46.7443   25.7099 H   0  0  0  0  0  0
   -1.2656   47.3282   25.9881 H   0  0  0  0  0  0
    1.1894   49.7671   26.5557 H   0  0  0  0  0  0
  1  2  1  0  0  0
  1 32  1  0  0  0
  1 33  1  0  0  0
  1 34  1  0  0  0
  2  3  1  0  0  0
  3  8  2  0  0  0
  3  4  1  0  0  0
  4  5  2  0  0  0
  4 35  1  0  0  0
  5  6  1  0  0  0
  5 36  1  0  0  0
  6  7  2  0  0  0
  6  9  1  0  0  0
  7  8  1  0  0  0
  7 37  1  0  0  0
  8 38  1  0  0  0
  9 16  1  0  0  0
  9 10  2  0  0  0
 10 11  1  0  0  0
 11 12  1  0  0  0
 11 13  1  0  0  0
 11 25  1  0  0  0
 13 14  1  0  0  0
 13 39  1  0  0  0
 13 50  1  0  0  0
 14 15  1  0  0  0
 14 16  1  0  0  0
 14 17  1  0  0  0
 16 40  1  0  0  0
 16 41  1  0  0  0
 17 22  2  0  0  0
 17 18  1  0  0  0
 18 19  2  0  0  0
 18 42  1  0  0  0
 19 20  1  0  0  0
 19 24  1  0  0  0
 20 21  2  0  0  0
 20 43  1  0  0  0
 21 22  1  0  0  0
 21 44  1  0  0  0
 22 23  1  0  0  0
 23 45  1  0  0  0
 25 30  2  0  0  0
 25 26  1  0  0  0
 26 27  2  0  0  0
 26 46  1  0  0  0
 27 28  1  0  0  0
 27 47  1  0  0  0
 28 29  2  0  0  0
 28 31  1  0  0  0
 29 30  1  0  0  0
 29 48  1  0  0  0
 30 49  1  0  0  0
M  CHG  1  13   1
M  END
> <i_i_glide_confnum>
21

> <i_i_glide_lignum>
3468

> <i_i_glide_posenum>
306

> <i_i_glide_rotatable_bonds>
5

> <i_m_Source_File_Index>
1157

> <b_m_subgroup_collapsed>
0

> <r_i_docking_score>
-4.01174

> <r_i_glide_ecoul>
-8.46156

> <r_i_glide_eff_state_penalty>
0

> <r_i_glide_einternal>
7.93068

> <r_i_glide_emodel>
-46.652

> <r_i_glide_energy>
-37.9495

> <r_i_glide_erotb>
0.289521

> <r_i_glide_esite>
-0.0933323

> <r_i_glide_evdw>
-29.4879

> <r_i_glide_gscore>
-4.01174

> <r_i_glide_hbond>
-0.2321

> <r_i_glide_ligand_efficiency>
-0.138336

> <r_i_glide_ligand_efficiency_ln>
-0.918586

> <r_i_glide_ligand_efficiency_sa>
-0.425011

> <r_i_glide_lipo>
-0.810061

> <r_i_glide_metal>
0

> <r_i_glide_rewards>
-0.422134

> <s_i_glide_gridfile>
wee1_glide-grid

> <s_m_Source_File>
wee1_decoys_glide_SP.sdf

> <s_m_Source_Path>
/Users/zhangxujun/Desktop

> <s_m_entry_id>
1432

> <s_m_entry_name>
wee1_decoys_glide_SP.1157

> <s_m_subgroup_title>
wee1_decoys_glide_SP

> <s_m_subgroupid>
wee1_decoys_glide_SP


$$$$
