ZINC12314999_30
                    3D
 Schrodinger Suite 2024-2.
 60 64  0  0  1  0            999 V2000
   -2.7625   46.7797   22.3978 C   0  0  0  0  0  0
   -1.6272   47.7365   22.7102 C   0  0  0  0  0  0
   -1.1941   47.9018   24.0268 C   0  0  0  0  0  0
   -0.1452   48.7604   24.3721 C   0  0  0  0  0  0
    0.4596   49.4439   23.3120 C   0  0  0  0  0  0
    0.0430   49.3123   21.9571 C   0  0  0  0  0  0
   -1.0155   48.4362   21.6688 C   0  0  0  0  0  0
    0.8704   50.1800   21.1565 C   0  0  0  0  0  0
    1.7361   50.8212   22.0439 C   0  0  0  0  0  0
    1.5041   50.3335   23.3073 N   0  0  0  0  0  0
    2.0467   50.6310   24.1032 H   0  0  0  0  0  0
    2.7552   51.8074   21.7693 C   0  0  0  0  0  0
    3.6375   51.5416   20.9517 O   0  0  0  0  0  0
    2.6932   52.9928   22.4441 N   0  0  0  0  0  0
    3.7290   54.0175   22.2507 C   0  0  0  0  0  0
    4.5482   54.0603   23.5583 C   0  0  0  0  0  0
    3.6856   54.2926   24.8442 C   0  0  0  0  0  0
    2.4518   53.3478   24.8342 C   0  0  0  0  0  0
    1.7068   53.3545   23.4773 C   0  0  0  0  0  0
    4.5169   54.1728   26.0832 N   0  0  0  0  0  0
    4.1508   53.9415   27.4063 C   0  0  0  0  0  0
    5.3319   54.0512   28.1284 C   0  0  0  0  0  0
    6.3227   54.3424   27.2031 C   0  0  0  0  0  0
    5.8409   54.4386   25.9910 N   0  0  0  0  0  0
    2.8561   53.6860   27.8327 N   0  0  0  0  0  0
    2.4154   53.7506   29.1077 C   0  0  0  0  0  0
    3.1053   54.0783   30.0794 O   0  0  0  0  0  0
    0.9276   53.3986   29.2936 C   0  0  0  0  0  0
    0.5299   52.7894   30.6273 C   0  0  0  0  0  0
    0.1774   54.2284   30.3137 C   0  0  0  0  0  0
    0.7682   50.3439   19.6530 C   0  0  0  0  0  0
    0.2548   48.8966   25.8290 C   0  0  0  0  0  0
   -2.5042   46.1571   21.5402 H   0  0  0  0  0  0
   -2.9745   46.1101   23.2319 H   0  0  0  0  0  0
   -3.6671   47.3345   22.1464 H   0  0  0  0  0  0
   -1.6888   47.3499   24.8140 H   0  0  0  0  0  0
   -1.3526   48.3094   20.6507 H   0  0  0  0  0  0
    3.2150   54.9656   22.0880 H   0  0  0  0  0  0
    4.3242   53.8694   21.3472 H   0  0  0  0  0  0
    5.2378   54.8967   23.4431 H   0  0  0  0  0  0
    5.1976   53.1900   23.6538 H   0  0  0  0  0  0
    3.3357   55.3149   24.8735 H   0  0  0  0  0  0
    2.7041   52.3469   25.1730 H   0  0  0  0  0  0
    1.7138   53.7180   25.5437 H   0  0  0  0  0  0
    1.3735   54.3672   23.2432 H   0  0  0  0  0  0
    0.7818   52.7788   23.4382 H   0  0  0  0  0  0
    5.4565   53.9490   29.1939 H   0  0  0  0  0  0
    7.3681   54.4961   27.4238 H   0  0  0  0  0  0
    2.1863   53.4494   27.1202 H   0  0  0  0  0  0
    0.4005   53.0663   28.3981 H   0  0  0  0  0  0
    1.2874   52.5846   31.3861 H   0  0  0  0  0  0
   -0.2708   52.0479   30.6499 H   0  0  0  0  0  0
   -0.8539   54.4868   30.0817 H   0  0  0  0  0  0
    0.6886   55.0295   30.8515 H   0  0  0  0  0  0
   -0.2230   50.6847   19.3534 H   0  0  0  0  0  0
    1.4851   51.0643   19.2568 H   0  0  0  0  0  0
    0.9548   49.4015   19.1369 H   0  0  0  0  0  0
   -0.4301   48.3572   26.4815 H   0  0  0  0  0  0
    1.2564   48.4967   25.9889 H   0  0  0  0  0  0
    0.2463   49.9431   26.1336 H   0  0  0  0  0  0
  1  2  1  0  0  0
  1 33  1  0  0  0
  1 34  1  0  0  0
  1 35  1  0  0  0
  2  7  2  0  0  0
  2  3  1  0  0  0
  3  4  2  0  0  0
  3 36  1  0  0  0
  4  5  1  0  0  0
  4 32  1  0  0  0
  5 10  1  0  0  0
  5  6  2  0  0  0
  6  7  1  0  0  0
  6  8  1  0  0  0
  7 37  1  0  0  0
  8  9  2  0  0  0
  8 31  1  0  0  0
  9 10  1  0  0  0
  9 12  1  0  0  0
 10 11  1  0  0  0
 12 13  2  0  0  0
 12 14  1  0  0  0
 14 19  1  0  0  0
 14 15  1  0  0  0
 15 16  1  0  0  0
 15 38  1  0  0  0
 15 39  1  0  0  0
 16 17  1  0  0  0
 16 40  1  0  0  0
 16 41  1  0  0  0
 17 18  1  0  0  0
 17 20  1  0  0  0
 17 42  1  0  0  0
 18 19  1  0  0  0
 18 43  1  0  0  0
 18 44  1  0  0  0
 19 45  1  0  0  0
 19 46  1  0  0  0
 20 24  1  0  0  0
 20 21  1  0  0  0
 21 22  2  0  0  0
 21 25  1  0  0  0
 22 23  1  0  0  0
 22 47  1  0  0  0
 23 24  2  0  0  0
 23 48  1  0  0  0
 25 26  1  0  0  0
 25 49  1  0  0  0
 26 27  2  0  0  0
 26 28  1  0  0  0
 28 30  1  0  0  0
 28 29  1  0  0  0
 28 50  1  0  0  0
 29 30  1  0  0  0
 29 51  1  0  0  0
 29 52  1  0  0  0
 30 53  1  0  0  0
 30 54  1  0  0  0
 31 55  1  0  0  0
 31 56  1  0  0  0
 31 57  1  0  0  0
 32 58  1  0  0  0
 32 59  1  0  0  0
 32 60  1  0  0  0
M  END
> <i_i_glide_confnum>
180

> <i_i_glide_lignum>
31

> <i_i_glide_posenum>
335

> <i_i_glide_rotatable_bonds>
6

> <i_m_Source_File_Index>
1083

> <b_m_subgroup_collapsed>
0

> <r_i_docking_score>
-6.05723

> <r_i_glide_ecoul>
-3.14123

> <r_i_glide_eff_state_penalty>
0

> <r_i_glide_einternal>
4.95347

> <r_i_glide_emodel>
-62.8681

> <r_i_glide_energy>
-47.3445

> <r_i_glide_erotb>
0.674471

> <r_i_glide_esite>
0

> <r_i_glide_evdw>
-44.2033

> <r_i_glide_gscore>
-6.05723

> <r_i_glide_hbond>
-0.32

> <r_i_glide_ligand_efficiency>
-0.195394

> <r_i_glide_ligand_efficiency_ln>
-1.36609

> <r_i_glide_ligand_efficiency_sa>
-0.613808

> <r_i_glide_lipo>
-2.45219

> <r_i_glide_metal>
0

> <r_i_glide_rewards>
-1.27816

> <s_i_glide_gridfile>
wee1_glide-grid

> <s_m_Source_File>
wee1_decoys_glide_SP.sdf

> <s_m_Source_Path>
/Users/zhangxujun/Desktop

> <s_m_entry_id>
1358

> <s_m_entry_name>
wee1_decoys_glide_SP.1083

> <s_m_subgroup_title>
wee1_decoys_glide_SP

> <s_m_subgroupid>
wee1_decoys_glide_SP


$$$$
