ZINC35805069_1039
                    3D
 Schrodinger Suite 2024-2.
 79 83  0  0  1  0            999 V2000
    2.0537   54.8090   23.5814 C   0  0  0  0  0  0
    2.8002   53.5934   24.1342 C   0  0  2  0  0  0
    4.2975   53.7136   23.7013 C   0  0  0  0  0  0
    4.6074   53.4145   22.2089 C   0  0  0  0  0  0
    3.8712   52.1793   21.6795 C   0  0  0  0  0  0
    4.2976   51.6312   20.6132 N   0  0  0  0  0  0
    3.5191   50.4979   20.2586 O   0  0  0  0  0  0
    2.7764   50.7613   19.0752 C   0  0  0  0  0  0
    1.7768   49.6146   18.8778 C   0  0  0  0  0  0
    1.2486   49.0663   19.8511 O   0  0  0  0  0  0
    1.5033   49.2659   17.6066 N   0  0  0  0  0  0
    0.5080   48.2660   17.1733 C   0  0  1  0  0  0
   -0.2535   48.1898   17.9562 H   0  0  0  0  0  0
   -0.1912   48.6722   15.8888 C   0  0  0  0  0  0
    0.4258   49.4935   14.9319 C   0  0  0  0  0  0
   -0.2509   49.8651   13.7749 C   0  0  0  0  0  0
   -1.5504   49.4049   13.5606 C   0  0  0  0  0  0
   -2.1740   48.5830   14.4926 C   0  0  0  0  0  0
   -1.4979   48.2158   15.6544 C   0  0  0  0  0  0
    1.2291   46.9326   16.9958 C   0  0  0  0  0  0
    0.9264   45.9275   17.6529 O   0  0  0  0  0  0
    2.1652   46.9737   16.0134 O   0  0  0  0  0  0
    2.9238   45.8250   15.6848 C   0  0  0  0  0  0
    2.6945   51.7689   22.3919 C   0  0  0  0  0  0
    2.1489   52.3611   23.4630 C   0  0  0  0  0  0
    0.7775   51.8911   23.9719 C   0  0  0  0  0  0
    0.6790   51.8360   25.5029 C   0  0  0  0  0  0
    1.2174   53.1241   26.1387 C   0  0  2  0  0  0
    0.7064   53.8866   25.5834 H   0  0  0  0  0  0
    2.6665   53.4375   25.6921 C   0  0  2  0  0  0
    3.1712   52.4975   25.7991 H   0  0  0  0  0  0
    3.5535   54.2981   26.6567 C   0  0  0  0  0  0
    2.9464   54.5632   28.0719 C   0  0  0  0  0  0
    2.0617   53.3909   28.6222 C   0  0  2  0  0  0
    0.8702   53.3305   27.6472 C   0  0  2  0  0  0
    0.4266   54.3258   27.6841 H   0  0  0  0  0  0
   -0.1713   52.4559   28.3441 C   0  0  0  0  0  0
   -0.0912   52.9065   29.8087 C   0  0  0  0  0  0
    1.3053   53.5699   30.0136 C   0  0  2  0  0  0
    1.1742   54.9804   30.4729 C   0  0  0  0  0  0
    1.1037   56.1266   30.8788 C   0  0  0  0  0  0
    1.9066   52.8963   31.0986 O   0  0  0  0  0  0
    2.8708   52.0638   28.6641 C   0  0  0  0  0  0
    2.4048   55.6967   24.0817 H   0  0  0  0  0  0
    2.2470   54.8982   22.5153 H   0  0  0  0  0  0
    0.9728   54.7749   23.6860 H   0  0  0  0  0  0
    4.6598   54.7121   23.9436 H   0  0  0  0  0  0
    4.9258   53.0663   24.3071 H   0  0  0  0  0  0
    5.6852   53.2601   22.1036 H   0  0  0  0  0  0
    4.3614   54.2754   21.5799 H   0  0  0  0  0  0
    2.1905   51.6770   19.1840 H   0  0  0  0  0  0
    3.4352   50.8963   18.2173 H   0  0  0  0  0  0
    2.0937   49.6548   16.8812 H   0  0  0  0  0  0
    1.4384   49.8459   15.0704 H   0  0  0  0  0  0
    0.2359   50.5057   13.0543 H   0  0  0  0  0  0
   -2.0727   49.6910   12.6575 H   0  0  0  0  0  0
   -3.1823   48.2383   14.3171 H   0  0  0  0  0  0
   -2.0051   47.5765   16.3686 H   0  0  0  0  0  0
    3.6221   46.0847   14.8934 H   0  0  0  0  0  0
    3.4986   45.4753   16.5347 H   0  0  0  0  0  0
    2.2878   45.0145   15.3268 H   0  0  0  0  0  0
    2.1269   50.9328   22.0093 H   0  0  0  0  0  0
    0.0180   52.5815   23.5967 H   0  0  0  0  0  0
    0.4983   50.9215   23.5557 H   0  0  0  0  0  0
    1.1046   50.9376   25.9420 H   0  0  0  0  0  0
   -0.3840   51.7470   25.7372 H   0  0  0  0  0  0
    4.5665   53.9051   26.7213 H   0  0  0  0  0  0
    3.6629   55.2865   26.2086 H   0  0  0  0  0  0
    2.3778   55.4948   28.0404 H   0  0  0  0  0  0
    3.7631   54.7592   28.7712 H   0  0  0  0  0  0
    0.1069   51.4028   28.2674 H   0  0  0  0  0  0
   -1.1627   52.5308   27.8974 H   0  0  0  0  0  0
   -0.2804   52.0474   30.4596 H   0  0  0  0  0  0
   -0.8959   53.6047   30.0130 H   0  0  0  0  0  0
    1.0949   57.1211   31.2588 H   0  0  0  0  0  0
    1.2457   52.8207   31.7924 H   0  0  0  0  0  0
    3.1107   51.6963   27.6824 H   0  0  0  0  0  0
    3.8144   52.1875   29.2023 H   0  0  0  0  0  0
    2.3198   51.2552   29.1416 H   0  0  0  0  0  0
  1  2  1  0  0  0
  1 44  1  0  0  0
  1 45  1  0  0  0
  1 46  1  0  0  0
  2 25  1  0  0  0
  2 30  1  0  0  0
  2  3  1  0  0  0
  3  4  1  0  0  0
  3 47  1  0  0  0
  3 48  1  0  0  0
  4  5  1  0  0  0
  4 49  1  0  0  0
  4 50  1  0  0  0
  5  6  2  0  0  0
  5 24  1  0  0  0
  6  7  1  0  0  0
  7  8  1  0  0  0
  8  9  1  0  0  0
  8 51  1  0  0  0
  8 52  1  0  0  0
  9 10  2  0  0  0
  9 11  1  0  0  0
 11 12  1  0  0  0
 11 53  1  0  0  0
 12 13  1  0  0  0
 12 14  1  0  0  0
 12 20  1  0  0  0
 14 19  2  0  0  0
 14 15  1  0  0  0
 15 16  2  0  0  0
 15 54  1  0  0  0
 16 17  1  0  0  0
 16 55  1  0  0  0
 17 18  2  0  0  0
 17 56  1  0  0  0
 18 19  1  0  0  0
 18 57  1  0  0  0
 19 58  1  0  0  0
 20 21  2  0  0  0
 20 22  1  0  0  0
 22 23  1  0  0  0
 23 59  1  0  0  0
 23 60  1  0  0  0
 23 61  1  0  0  0
 24 25  2  0  0  0
 24 62  1  0  0  0
 25 26  1  0  0  0
 26 27  1  0  0  0
 26 63  1  0  0  0
 26 64  1  0  0  0
 27 28  1  0  0  0
 27 65  1  0  0  0
 27 66  1  0  0  0
 28 29  1  0  0  0
 28 35  1  0  0  0
 28 30  1  0  0  0
 30 31  1  0  0  0
 30 32  1  0  0  0
 32 33  1  0  0  0
 32 67  1  0  0  0
 32 68  1  0  0  0
 33 34  1  0  0  0
 33 69  1  0  0  0
 33 70  1  0  0  0
 34 39  1  0  0  0
 34 35  1  0  0  0
 34 43  1  0  0  0
 35 36  1  0  0  0
 35 37  1  0  0  0
 37 38  1  0  0  0
 37 71  1  0  0  0
 37 72  1  0  0  0
 38 39  1  0  0  0
 38 73  1  0  0  0
 38 74  1  0  0  0
 39 40  1  0  0  0
 39 42  1  0  0  0
 40 41  3  0  0  0
 41 75  1  0  0  0
 42 76  1  0  0  0
 43 77  1  0  0  0
 43 78  1  0  0  0
 43 79  1  0  0  0
M  END
> <i_i_glide_confnum>
179

> <i_i_glide_lignum>
1040

> <i_i_glide_posenum>
180

> <i_i_glide_rotatable_bonds>
10

> <i_m_Source_File_Index>
2205

> <b_m_subgroup_collapsed>
0

> <r_i_docking_score>
-2.57161

> <r_i_glide_ecoul>
-6.86434

> <r_i_glide_eff_state_penalty>
0

> <r_i_glide_einternal>
17.1479

> <r_i_glide_emodel>
-22.5887

> <r_i_glide_energy>
-32.1038

> <r_i_glide_erotb>
0.508895

> <r_i_glide_esite>
-0.304207

> <r_i_glide_evdw>
-25.2394

> <r_i_glide_gscore>
-2.57161

> <r_i_glide_hbond>
-0.196036

> <r_i_glide_ligand_efficiency>
-0.0659388

> <r_i_glide_ligand_efficiency_ln>
-0.551427

> <r_i_glide_ligand_efficiency_sa>
-0.223612

> <r_i_glide_lipo>
-2.81603

> <r_i_glide_metal>
0

> <r_i_glide_rewards>
2.52738

> <s_i_glide_gridfile>
wee1_glide-grid

> <s_m_Source_File>
wee1_decoys_glide_SP.sdf

> <s_m_Source_Path>
/Users/zhangxujun/Desktop

> <s_m_entry_id>
2480

> <s_m_entry_name>
wee1_decoys_glide_SP.2205

> <s_m_subgroup_title>
wee1_decoys_glide_SP

> <s_m_subgroupid>
wee1_decoys_glide_SP


$$$$
