ZINC33006930_3015
                    3D
 Schrodinger Suite 2024-2.
 59 61  0  0  1  0            999 V2000
   -3.2541   46.0967   28.3835 C   0  0  0  0  0  0
   -3.5030   45.8493   26.8889 C   0  0  0  0  0  0
   -4.9888   45.5296   26.6231 C   0  0  0  0  0  0
   -2.9967   46.9690   26.0893 N   0  0  0  0  0  0
   -2.9075   47.0265   24.7461 C   0  0  0  0  0  0
   -3.2296   46.0779   24.0322 O   0  0  0  0  0  0
   -2.4024   48.3133   24.0470 C   0  0  0  0  0  0
   -1.8958   49.3545   24.9627 N   0  0  0  0  0  0
   -0.5742   49.0061   25.5009 C   0  0  0  0  0  0
   -0.0767   50.0843   26.4774 C   0  0  0  0  0  0
    0.0110   51.4099   25.8562 N   0  0  0  0  0  0
   -1.2285   51.7634   25.1451 C   0  0  0  0  0  0
   -1.7834   50.6313   24.2468 C   0  0  0  0  0  0
    1.0070   52.3212   26.1702 C   0  0  0  0  0  0
    1.4356   53.2365   25.2092 C   0  0  0  0  0  0
    2.4886   54.0965   25.4782 C   0  0  0  0  0  0
    3.1705   54.0331   26.6917 C   0  0  0  0  0  0
    2.7085   53.1756   27.7214 C   0  0  0  0  0  0
    1.6296   52.3238   27.4258 C   0  0  0  0  0  0
    3.3066   53.1450   29.1069 C   0  0  0  0  0  0
    3.1052   52.1284   29.8151 O   0  0  0  0  0  0
    3.9344   54.1554   29.5030 O   0  5  0  0  0  0
    4.2586   54.8969   26.8385 N   0  0  0  0  0  0
    5.8539   54.5701   26.1338 S   0  0  0  0  0  0
    6.7060   55.6971   26.4824 O   0  0  0  0  0  0
    6.2518   53.2740   26.6449 O   0  0  0  0  0  0
    5.8007   54.5220   24.3264 C   0  0  0  0  0  0
    4.9201   53.6967   23.6300 C   0  0  0  0  0  0
    4.8867   53.7020   22.2384 C   0  0  0  0  0  0
    5.7704   54.5135   21.5335 C   0  0  0  0  0  0
    6.7029   55.2941   22.2121 C   0  0  0  0  0  0
    6.7045   55.3040   23.6045 C   0  0  0  0  0  0
    5.7196   54.5422   19.8090 Cl  0  0  0  0  0  0
   -3.6993   45.3132   28.9953 H   0  0  0  0  0  0
   -3.6908   47.0401   28.7164 H   0  0  0  0  0  0
   -2.1884   46.0938   28.6129 H   0  0  0  0  0  0
   -2.9160   44.9663   26.6279 H   0  0  0  0  0  0
   -5.3304   44.7182   27.2670 H   0  0  0  0  0  0
   -5.6228   46.3899   26.8391 H   0  0  0  0  0  0
   -5.1663   45.2081   25.5970 H   0  0  0  0  0  0
   -2.6056   47.7406   26.6225 H   0  0  0  0  0  0
   -1.6377   48.0435   23.3156 H   0  0  0  0  0  0
   -3.2565   48.7012   23.4890 H   0  0  0  0  0  0
   -0.6278   48.0798   26.0650 H   0  0  0  0  0  0
    0.1562   48.8742   24.6997 H   0  0  0  0  0  0
    0.8888   49.7765   26.8790 H   0  0  0  0  0  0
   -0.7582   50.1561   27.3244 H   0  0  0  0  0  0
   -1.1248   52.6856   24.5750 H   0  0  0  0  0  0
   -1.9711   51.9748   25.9151 H   0  0  0  0  0  0
   -1.1148   50.5199   23.3904 H   0  0  0  0  0  0
   -2.7663   50.9343   23.8825 H   0  0  0  0  0  0
    0.9717   53.2728   24.2350 H   0  0  0  0  0  0
    2.7872   54.8045   24.7180 H   0  0  0  0  0  0
    1.2712   51.6420   28.1854 H   0  0  0  0  0  0
    4.3953   55.0614   27.8313 H   0  0  0  0  0  0
    4.2556   53.0400   24.1612 H   0  0  0  0  0  0
    4.1819   53.0766   21.7094 H   0  0  0  0  0  0
    7.4076   55.9025   21.6657 H   0  0  0  0  0  0
    7.4281   55.9255   24.1122 H   0  0  0  0  0  0
  1  2  1  0  0  0
  1 34  1  0  0  0
  1 35  1  0  0  0
  1 36  1  0  0  0
  2  3  1  0  0  0
  2  4  1  0  0  0
  2 37  1  0  0  0
  3 38  1  0  0  0
  3 39  1  0  0  0
  3 40  1  0  0  0
  4  5  1  0  0  0
  4 41  1  0  0  0
  5  6  2  0  0  0
  5  7  1  0  0  0
  7  8  1  0  0  0
  7 42  1  0  0  0
  7 43  1  0  0  0
  8 13  1  0  0  0
  8  9  1  0  0  0
  9 10  1  0  0  0
  9 44  1  0  0  0
  9 45  1  0  0  0
 10 11  1  0  0  0
 10 46  1  0  0  0
 10 47  1  0  0  0
 11 12  1  0  0  0
 11 14  1  0  0  0
 12 13  1  0  0  0
 12 48  1  0  0  0
 12 49  1  0  0  0
 13 50  1  0  0  0
 13 51  1  0  0  0
 14 19  2  0  0  0
 14 15  1  0  0  0
 15 16  2  0  0  0
 15 52  1  0  0  0
 16 17  1  0  0  0
 16 53  1  0  0  0
 17 18  2  0  0  0
 17 23  1  0  0  0
 18 19  1  0  0  0
 18 20  1  0  0  0
 19 54  1  0  0  0
 20 21  2  0  0  0
 20 22  1  0  0  0
 23 24  1  0  0  0
 23 55  1  0  0  0
 24 25  2  0  0  0
 24 26  2  0  0  0
 24 27  1  0  0  0
 27 32  2  0  0  0
 27 28  1  0  0  0
 28 29  2  0  0  0
 28 56  1  0  0  0
 29 30  1  0  0  0
 29 57  1  0  0  0
 30 31  2  0  0  0
 30 33  1  0  0  0
 31 32  1  0  0  0
 31 58  1  0  0  0
 32 59  1  0  0  0
M  CHG  1  22  -1
M  END
> <i_i_glide_confnum>
170

> <i_i_glide_lignum>
3016

> <i_i_glide_posenum>
41

> <i_i_glide_rotatable_bonds>
9

> <i_m_Source_File_Index>
3532

> <b_m_subgroup_collapsed>
0

> <r_i_docking_score>
-5.06397

> <r_i_glide_ecoul>
-7.70146

> <r_i_glide_eff_state_penalty>
0

> <r_i_glide_einternal>
13.1924

> <r_i_glide_emodel>
-53.0377

> <r_i_glide_energy>
-45.8232

> <r_i_glide_erotb>
0.584488

> <r_i_glide_esite>
-0.158031

> <r_i_glide_evdw>
-38.1218

> <r_i_glide_gscore>
-5.06397

> <r_i_glide_hbond>
-0.211161

> <r_i_glide_ligand_efficiency>
-0.153454

> <r_i_glide_ligand_efficiency_ln>
-1.1262

> <r_i_glide_ligand_efficiency_sa>
-0.492207

> <r_i_glide_lipo>
-2.30846

> <r_i_glide_metal>
0

> <r_i_glide_rewards>
0.0905064

> <s_i_glide_gridfile>
wee1_glide-grid

> <s_m_Source_File>
wee1_decoys_glide_SP.sdf

> <s_m_Source_Path>
/Users/zhangxujun/Desktop

> <s_m_entry_id>
3807

> <s_m_entry_name>
wee1_decoys_glide_SP.3532

> <s_m_subgroup_title>
wee1_decoys_glide_SP

> <s_m_subgroupid>
wee1_decoys_glide_SP


$$$$
