ZINC63806853_147
                    3D
 Schrodinger Suite 2024-2.
 56 59  0  0  1  0            999 V2000
    2.2090   52.0047   18.1639 C   0  0  0  0  0  0
    1.5350   51.3631   19.3957 C   0  0  0  0  0  0
    0.9413   49.9995   18.9726 C   0  0  0  0  0  0
    2.5038   51.3305   20.6304 C   0  0  2  0  0  0
    3.3601   50.7099   20.3535 H   0  0  0  0  0  0
    1.8285   50.6348   21.8565 C   0  0  0  0  0  0
    1.6779   49.4125   21.8136 O   0  0  0  0  0  0
    1.4927   51.4167   22.9142 N   0  0  0  0  0  0
    0.9112   51.0316   24.1207 C   0  0  0  0  0  0
    0.7917   51.8779   25.1211 N   0  0  0  0  0  0
    0.2746   51.3211   26.2098 C   0  0  0  0  0  0
   -0.0804   49.9793   26.0545 C   0  0  0  0  0  0
    0.3043   49.4294   24.4589 S   0  0  0  0  0  0
    0.1189   52.0203   27.4913 C   0  0  0  0  0  0
    0.7604   53.0987   27.9780 C   0  0  0  0  0  0
    1.7720   53.9788   27.3878 C   0  0  0  0  0  0
    2.3033   54.9925   28.0950 C   0  0  0  0  0  0
    1.8402   55.1959   29.4609 C   0  0  0  0  0  0
    0.9162   54.3807   30.0337 C   0  0  0  0  0  0
    0.3698   53.3131   29.3079 C   0  0  0  0  0  0
   -0.4948   52.4021   29.6920 N   0  3  0  0  0  0
   -0.7825   51.4868   28.5755 C   0  0  0  0  0  0
    2.9907   52.6857   20.9363 N   0  0  0  0  0  0
    4.1760   52.9500   21.5073 C   0  0  0  0  0  0
    5.0458   52.0959   21.6814 O   0  0  0  0  0  0
    4.3980   54.3950   21.9673 C   0  0  0  0  0  0
    5.0137   54.4672   23.3636 C   0  0  0  0  0  0
    4.2715   54.0947   24.4887 C   0  0  0  0  0  0
    4.8656   54.1069   25.7500 C   0  0  0  0  0  0
    6.1712   54.5612   25.8951 C   0  0  0  0  0  0
    6.8944   54.9704   24.7816 C   0  0  0  0  0  0
    6.3307   54.8967   23.5141 C   0  0  0  0  0  0
    3.1036   51.4512   17.8748 H   0  0  0  0  0  0
    1.5399   52.0201   17.3036 H   0  0  0  0  0  0
    2.5061   53.0361   18.3519 H   0  0  0  0  0  0
    0.6895   52.0071   19.6443 H   0  0  0  0  0  0
    1.7297   49.2596   18.8249 H   0  0  0  0  0  0
    0.2416   49.6077   19.7107 H   0  0  0  0  0  0
    0.3890   50.0792   18.0357 H   0  0  0  0  0  0
    1.7271   52.3936   22.8294 H   0  0  0  0  0  0
   -0.4955   49.2967   26.7829 H   0  0  0  0  0  0
    2.0967   53.8467   26.3692 H   0  0  0  0  0  0
    3.0427   55.6452   27.6607 H   0  0  0  0  0  0
    2.2378   56.0258   30.0293 H   0  0  0  0  0  0
    0.6071   54.5766   31.0512 H   0  0  0  0  0  0
   -1.8497   51.5098   28.3494 H   0  0  0  0  0  0
   -0.4824   50.4973   28.8763 H   0  0  0  0  0  0
    2.3561   53.4458   20.7251 H   0  0  0  0  0  0
    3.4565   54.9453   21.9677 H   0  0  0  0  0  0
    5.0447   54.8812   21.2356 H   0  0  0  0  0  0
    3.2584   53.7406   24.3757 H   0  0  0  0  0  0
    4.3346   53.7523   26.6181 H   0  0  0  0  0  0
    6.6267   54.5835   26.8745 H   0  0  0  0  0  0
    7.9041   55.3249   24.8818 H   0  0  0  0  0  0
    6.9208   55.1868   22.6563 H   0  0  0  0  0  0
   -0.8962   52.3129   30.6258 H   0  0  0  0  0  0
  1  2  1  0  0  0
  1 33  1  0  0  0
  1 34  1  0  0  0
  1 35  1  0  0  0
  2  3  1  0  0  0
  2  4  1  0  0  0
  2 36  1  0  0  0
  3 37  1  0  0  0
  3 38  1  0  0  0
  3 39  1  0  0  0
  4  5  1  0  0  0
  4  6  1  0  0  0
  4 23  1  0  0  0
  6  7  2  0  0  0
  6  8  1  0  0  0
  8  9  1  0  0  0
  8 40  1  0  0  0
  9 13  1  0  0  0
  9 10  2  0  0  0
 10 11  1  0  0  0
 11 12  2  0  0  0
 11 14  1  0  0  0
 12 13  1  0  0  0
 12 41  1  0  0  0
 14 22  1  0  0  0
 14 15  2  0  0  0
 15 20  1  0  0  0
 15 16  1  0  0  0
 16 17  2  0  0  0
 16 42  1  0  0  0
 17 18  1  0  0  0
 17 43  1  0  0  0
 18 19  2  0  0  0
 18 44  1  0  0  0
 19 20  1  0  0  0
 19 45  1  0  0  0
 20 21  2  0  0  0
 21 22  1  0  0  0
 21 56  1  0  0  0
 22 46  1  0  0  0
 22 47  1  0  0  0
 23 24  1  0  0  0
 23 48  1  0  0  0
 24 25  2  0  0  0
 24 26  1  0  0  0
 26 27  1  0  0  0
 26 49  1  0  0  0
 26 50  1  0  0  0
 27 32  2  0  0  0
 27 28  1  0  0  0
 28 29  2  0  0  0
 28 51  1  0  0  0
 29 30  1  0  0  0
 29 52  1  0  0  0
 30 31  2  0  0  0
 30 53  1  0  0  0
 31 32  1  0  0  0
 31 54  1  0  0  0
 32 55  1  0  0  0
M  CHG  1  21   1
M  END
> <i_i_glide_confnum>
52

> <i_i_glide_lignum>
148

> <i_i_glide_posenum>
300

> <i_i_glide_rotatable_bonds>
9

> <i_m_Source_File_Index>
2557

> <b_m_subgroup_collapsed>
0

> <r_i_docking_score>
-6.21696

> <r_i_glide_ecoul>
-6.43428

> <r_i_glide_eff_state_penalty>
0

> <r_i_glide_einternal>
2.63861

> <r_i_glide_emodel>
-67.8487

> <r_i_glide_energy>
-47.4594

> <r_i_glide_erotb>
0.741405

> <r_i_glide_esite>
-0.0465255

> <r_i_glide_evdw>
-41.0251

> <r_i_glide_gscore>
-6.21696

> <r_i_glide_hbond>
-0.245253

> <r_i_glide_ligand_efficiency>
-0.200547

> <r_i_glide_ligand_efficiency_ln>
-1.40211

> <r_i_glide_ligand_efficiency_sa>
-0.629994

> <r_i_glide_lipo>
-2.89617

> <r_i_glide_metal>
0

> <r_i_glide_rewards>
-0.754018

> <s_i_glide_gridfile>
wee1_glide-grid

> <s_m_Source_File>
wee1_decoys_glide_SP.sdf

> <s_m_Source_Path>
/Users/zhangxujun/Desktop

> <s_m_entry_id>
2832

> <s_m_entry_name>
wee1_decoys_glide_SP.2557

> <s_m_subgroup_title>
wee1_decoys_glide_SP

> <s_m_subgroupid>
wee1_decoys_glide_SP


$$$$
