ZINC08974444_3799
                    3D
 Schrodinger Suite 2024-2.
 37 40  0  0  1  0            999 V2000
    1.2204   52.4229   28.9359 C   0  0  0  0  0  0
    1.9664   52.4695   30.1095 C   0  0  0  0  0  0
    3.2713   52.9586   30.0804 C   0  0  0  0  0  0
    3.8367   53.4286   28.8890 C   0  0  0  0  0  0
    3.0798   53.3859   27.7011 C   0  0  0  0  0  0
    1.7775   52.8762   27.7412 C   0  0  0  0  0  0
    3.6946   53.9042   26.3989 C   0  0  0  0  0  0
    5.2542   53.9114   26.4564 C   0  0  2  0  0  0
    5.6614   52.8973   26.4973 H   0  0  0  0  0  0
    5.6372   54.6656   27.6534 N   0  0  0  0  0  0
    5.2860   53.9109   28.8499 C   0  0  0  0  0  0
    5.9338   54.5520   25.2102 C   0  0  0  0  0  0
    6.9551   55.2502   25.3115 O   0  0  0  0  0  0
    5.2942   54.2352   24.0168 N   0  0  0  0  0  0
    5.7629   54.4945   22.8596 C   0  0  0  0  0  0
    6.9495   55.0741   22.4452 N   0  0  0  0  0  0
    7.6629   55.2961   23.1314 H   0  0  0  0  0  0
    7.1218   55.2967   21.0849 C   0  0  0  0  0  0
    8.2507   55.8094   20.4528 C   0  0  0  0  0  0
    8.2604   55.9488   19.0650 C   0  0  0  0  0  0
    7.1453   55.5645   18.3166 C   0  0  0  0  0  0
    6.0253   55.0200   18.9519 C   0  0  0  0  0  0
    6.0298   54.8823   20.3390 C   0  0  0  0  0  0
    4.8266   54.1241   21.3657 S   0  0  0  0  0  0
    0.2128   52.0309   28.9493 H   0  0  0  0  0  0
    1.5372   52.1091   31.0336 H   0  0  0  0  0  0
    3.8570   52.9540   30.9885 H   0  0  0  0  0  0
    1.1894   52.8325   26.8352 H   0  0  0  0  0  0
    3.3369   53.2985   25.5654 H   0  0  0  0  0  0
    3.3262   54.9183   26.2394 H   0  0  0  0  0  0
    6.6334   54.8459   27.6618 H   0  0  0  0  0  0
    5.4816   54.5763   29.6892 H   0  0  0  0  0  0
    5.9477   53.0512   28.9416 H   0  0  0  0  0  0
    9.1178   56.0983   21.0249 H   0  0  0  0  0  0
    9.1350   56.3468   18.5712 H   0  0  0  0  0  0
    7.1571   55.6651   17.2422 H   0  0  0  0  0  0
    5.1845   54.6892   18.3621 H   0  0  0  0  0  0
  1  6  2  0  0  0
  1  2  1  0  0  0
  1 25  1  0  0  0
  2  3  2  0  0  0
  2 26  1  0  0  0
  3  4  1  0  0  0
  3 27  1  0  0  0
  4 11  1  0  0  0
  4  5  2  0  0  0
  5  6  1  0  0  0
  5  7  1  0  0  0
  6 28  1  0  0  0
  7  8  1  0  0  0
  7 29  1  0  0  0
  7 30  1  0  0  0
  8  9  1  0  0  0
  8 10  1  0  0  0
  8 12  1  0  0  0
 10 11  1  0  0  0
 10 31  1  0  0  0
 11 32  1  0  0  0
 11 33  1  0  0  0
 12 13  2  0  0  0
 12 14  1  0  0  0
 14 15  2  0  0  0
 15 24  1  0  0  0
 15 16  1  0  0  0
 16 17  1  0  0  0
 16 18  1  0  0  0
 18 23  2  0  0  0
 18 19  1  0  0  0
 19 20  2  0  0  0
 19 34  1  0  0  0
 20 21  1  0  0  0
 20 35  1  0  0  0
 21 22  2  0  0  0
 21 36  1  0  0  0
 22 23  1  0  0  0
 22 37  1  0  0  0
 23 24  1  0  0  0
M  END
> <i_i_glide_confnum>
4

> <i_i_glide_lignum>
3800

> <i_i_glide_posenum>
363

> <i_i_glide_rotatable_bonds>
2

> <i_m_Source_File_Index>
3477

> <b_m_subgroup_collapsed>
0

> <r_i_docking_score>
-7.6188

> <r_i_glide_ecoul>
-5.80348

> <r_i_glide_eff_state_penalty>
0

> <r_i_glide_einternal>
2.83481

> <r_i_glide_emodel>
-64.2999

> <r_i_glide_energy>
-45.6012

> <r_i_glide_erotb>
0.193433

> <r_i_glide_esite>
0

> <r_i_glide_evdw>
-39.7978

> <r_i_glide_gscore>
-7.6188

> <r_i_glide_hbond>
-0.561069

> <r_i_glide_ligand_efficiency>
-0.346309

> <r_i_glide_ligand_efficiency_ln>
-1.86231

> <r_i_glide_ligand_efficiency_sa>
-0.970371

> <r_i_glide_lipo>
-2.64354

> <r_i_glide_metal>
0

> <r_i_glide_rewards>
-1.74722

> <s_i_glide_gridfile>
wee1_glide-grid

> <s_m_Source_File>
wee1_decoys_glide_SP.sdf

> <s_m_Source_Path>
/Users/zhangxujun/Desktop

> <s_m_entry_id>
3752

> <s_m_entry_name>
wee1_decoys_glide_SP.3477

> <s_m_subgroup_title>
wee1_decoys_glide_SP

> <s_m_subgroupid>
wee1_decoys_glide_SP


$$$$
