ZINC32801666_1435
                    3D
 Schrodinger Suite 2024-2.
 52 55  0  0  1  0            999 V2000
    0.6925   52.7537   31.8666 C   0  0  0  0  0  0
    1.2766   53.2134   30.6593 O   0  0  0  0  0  0
    2.5484   52.8953   30.3385 C   0  0  0  0  0  0
    3.3407   52.2671   31.0470 O   0  0  0  0  0  0
    2.9389   53.4562   28.9503 C   0  0  1  0  0  0
    2.8363   54.5352   29.0762 H   0  0  0  0  0  0
    4.4131   53.1696   28.5469 C   0  0  0  0  0  0
    4.7661   53.7458   27.1780 C   0  0  0  0  0  0
    6.1019   53.9314   26.8018 C   0  0  0  0  0  0
    6.4315   54.3801   25.5250 C   0  0  0  0  0  0
    5.4215   54.6455   24.6076 C   0  0  0  0  0  0
    4.0869   54.4970   24.9803 C   0  0  0  0  0  0
    3.7392   54.0664   26.2647 C   0  0  0  0  0  0
    2.2709   53.9872   26.6952 C   0  0  0  0  0  0
    2.0750   53.0324   27.7973 N   0  0  0  0  0  0
    1.5048   51.7864   27.6648 C   0  0  0  0  0  0
    1.7408   50.8974   28.4816 O   0  0  0  0  0  0
    0.6167   51.4451   26.5412 C   0  0  0  0  0  0
    0.7046   51.8255   25.3310 N   0  0  0  0  0  0
   -0.2619   51.1842   24.5188 N   0  0  0  0  0  0
   -1.0579   50.2668   25.3396 C   0  0  2  0  0  0
   -2.1002   50.5867   25.3195 H   0  0  0  0  0  0
   -0.4825   50.4357   26.7459 C   0  0  0  0  0  0
   -1.0189   48.7766   24.8818 C   0  0  0  0  0  0
   -0.4965   48.4111   23.8297 O   0  0  0  0  0  0
   -1.5915   47.8790   25.6815 N   0  0  0  0  0  0
   -0.2931   51.4232   23.1275 C   0  0  0  0  0  0
   -1.3956   51.0054   22.3680 C   0  0  0  0  0  0
   -1.4356   51.2076   20.9912 C   0  0  0  0  0  0
   -0.3724   51.8429   20.3587 C   0  0  0  0  0  0
    0.7183   52.2945   21.0950 C   0  0  0  0  0  0
    0.7514   52.0956   22.4722 C   0  0  0  0  0  0
   -0.2315   53.2991   32.0607 H   0  0  0  0  0  0
    0.4461   51.6969   31.7958 H   0  0  0  0  0  0
    1.3484   52.8966   32.7218 H   0  0  0  0  0  0
    5.1032   53.5713   29.2878 H   0  0  0  0  0  0
    4.5868   52.0964   28.5156 H   0  0  0  0  0  0
    6.8935   53.6925   27.4972 H   0  0  0  0  0  0
    7.4655   54.4964   25.2342 H   0  0  0  0  0  0
    5.6720   54.9741   23.6101 H   0  0  0  0  0  0
    3.3128   54.7325   24.2644 H   0  0  0  0  0  0
    1.6058   53.8933   25.8435 H   0  0  0  0  0  0
    2.0043   54.9294   27.1469 H   0  0  0  0  0  0
   -0.0446   49.5230   27.1482 H   0  0  0  0  0  0
   -1.2228   50.7921   27.4638 H   0  0  0  0  0  0
   -1.5743   46.9118   25.4087 H   0  0  0  0  0  0
   -1.6997   48.0977   26.6765 H   0  0  0  0  0  0
   -2.2248   50.5007   22.8397 H   0  0  0  0  0  0
   -2.2814   50.8614   20.4163 H   0  0  0  0  0  0
   -0.3931   51.9924   19.2888 H   0  0  0  0  0  0
    1.5352   52.8006   20.5995 H   0  0  0  0  0  0
    1.6134   52.4439   23.0217 H   0  0  0  0  0  0
  1  2  1  0  0  0
  1 33  1  0  0  0
  1 34  1  0  0  0
  1 35  1  0  0  0
  2  3  1  0  0  0
  3  4  2  0  0  0
  3  5  1  0  0  0
  5  6  1  0  0  0
  5 15  1  0  0  0
  5  7  1  0  0  0
  7  8  1  0  0  0
  7 36  1  0  0  0
  7 37  1  0  0  0
  8 13  2  0  0  0
  8  9  1  0  0  0
  9 10  2  0  0  0
  9 38  1  0  0  0
 10 11  1  0  0  0
 10 39  1  0  0  0
 11 12  2  0  0  0
 11 40  1  0  0  0
 12 13  1  0  0  0
 12 41  1  0  0  0
 13 14  1  0  0  0
 14 15  1  0  0  0
 14 42  1  0  0  0
 14 43  1  0  0  0
 15 16  1  0  0  0
 16 17  2  0  0  0
 16 18  1  0  0  0
 18 23  1  0  0  0
 18 19  2  0  0  0
 19 20  1  0  0  0
 20 21  1  0  0  0
 20 27  1  0  0  0
 21 22  1  0  0  0
 21 23  1  0  0  0
 21 24  1  0  0  0
 23 44  1  0  0  0
 23 45  1  0  0  0
 24 25  2  0  0  0
 24 26  1  0  0  0
 26 46  1  0  0  0
 26 47  1  0  0  0
 27 32  2  0  0  0
 27 28  1  0  0  0
 28 29  2  0  0  0
 28 48  1  0  0  0
 29 30  1  0  0  0
 29 49  1  0  0  0
 30 31  2  0  0  0
 30 50  1  0  0  0
 31 32  1  0  0  0
 31 51  1  0  0  0
 32 52  1  0  0  0
M  END
> <i_i_glide_confnum>
246

> <i_i_glide_lignum>
1436

> <i_i_glide_posenum>
166

> <i_i_glide_rotatable_bonds>
6

> <i_m_Source_File_Index>
1829

> <b_m_subgroup_collapsed>
0

> <r_i_docking_score>
-6.6887

> <r_i_glide_ecoul>
-8.26007

> <r_i_glide_eff_state_penalty>
0

> <r_i_glide_einternal>
1.50615

> <r_i_glide_emodel>
-62.3805

> <r_i_glide_energy>
-45.8612

> <r_i_glide_erotb>
0.476115

> <r_i_glide_esite>
-0.156884

> <r_i_glide_evdw>
-37.6011

> <r_i_glide_gscore>
-6.6887

> <r_i_glide_hbond>
-0.392072

> <r_i_glide_ligand_efficiency>
-0.222957

> <r_i_glide_ligand_efficiency_ln>
-1.51974

> <r_i_glide_ligand_efficiency_sa>
-0.692778

> <r_i_glide_lipo>
-2.31546

> <r_i_glide_metal>
0

> <r_i_glide_rewards>
-1.18133

> <s_i_glide_gridfile>
wee1_glide-grid

> <s_m_Source_File>
wee1_decoys_glide_SP.sdf

> <s_m_Source_Path>
/Users/zhangxujun/Desktop

> <s_m_entry_id>
2104

> <s_m_entry_name>
wee1_decoys_glide_SP.1829

> <s_m_subgroup_title>
wee1_decoys_glide_SP

> <s_m_subgroupid>
wee1_decoys_glide_SP


$$$$
