ZINC02143718_3016
                    3D
 Schrodinger Suite 2024-2.
 51 53  0  0  1  0            999 V2000
    2.8500   51.1865   20.2978 C   0  0  0  0  0  0
    2.0250   50.9723   21.5439 C   0  0  0  0  0  0
    2.0404   49.9368   22.4792 C   0  0  0  0  0  0
    1.2036   50.0044   23.4955 N   0  0  0  0  0  0
    0.4669   51.0799   23.4416 C   0  0  0  0  0  0
    0.7973   52.0976   22.0643 S   0  0  0  0  0  0
   -0.4696   51.3436   24.4335 N   0  0  0  0  0  0
   -1.3367   52.3769   24.5196 C   0  0  0  0  0  0
   -1.4553   53.2710   23.6818 O   0  0  0  0  0  0
   -2.2468   52.4419   25.7553 C   0  0  0  0  0  0
   -2.1376   51.0624   26.9431 S   0  0  0  0  0  0
   -0.9446   51.6981   28.0797 C   0  0  0  0  0  0
    0.0648   52.4935   27.8096 N   0  0  0  0  0  0
    0.6503   52.6666   28.9954 C   0  0  0  0  0  0
    0.0472   52.0967   30.0170 N   0  0  0  0  0  0
   -1.6030   50.8516   29.9140 H   0  0  0  0  0  0
   -0.9596   51.4631   29.4222 N   0  0  0  0  0  0
    1.9298   53.4861   29.2147 C   0  0  2  0  0  0
    2.4962   52.9736   29.9963 H   0  0  0  0  0  0
    1.6495   54.9501   29.6983 C   0  0  0  0  0  0
    1.2012   55.8872   28.5661 C   0  0  0  0  0  0
    0.6714   55.0627   30.8797 C   0  0  0  0  0  0
    2.7773   53.4247   28.0138 N   0  0  0  0  0  0
    3.9885   53.9790   27.8414 C   0  0  0  0  0  0
    4.6342   54.4331   28.7882 O   0  0  0  0  0  0
    4.5141   54.0965   26.4184 C   0  0  0  0  0  0
    5.8882   54.3467   26.2527 C   0  0  0  0  0  0
    6.4511   54.4961   24.9873 C   0  0  0  0  0  0
    5.6569   54.3876   23.8540 C   0  0  0  0  0  0
    4.2968   54.1333   23.9859 C   0  0  0  0  0  0
    3.7121   54.0029   25.2466 C   0  0  0  0  0  0
    1.9985   53.7417   25.2339 Cl  0  0  0  0  0  0
    6.3481   54.5877   22.2876 Cl  0  0  0  0  0  0
    2.2214   51.3210   19.4175 H   0  0  0  0  0  0
    3.4813   52.0712   20.3798 H   0  0  0  0  0  0
    3.5061   50.3422   20.0879 H   0  0  0  0  0  0
    2.6986   49.0827   22.4216 H   0  0  0  0  0  0
   -0.5090   50.6686   25.1846 H   0  0  0  0  0  0
   -3.2729   52.4627   25.3882 H   0  0  0  0  0  0
   -2.0948   53.3793   26.2836 H   0  0  0  0  0  0
    2.5968   55.3538   30.0584 H   0  0  0  0  0  0
    0.3083   55.4961   28.0811 H   0  0  0  0  0  0
    0.9868   56.8940   28.9297 H   0  0  0  0  0  0
    1.9807   55.9881   27.8157 H   0  0  0  0  0  0
   -0.3548   54.8735   30.5702 H   0  0  0  0  0  0
    0.9035   54.3633   31.6819 H   0  0  0  0  0  0
    0.7047   56.0740   31.2821 H   0  0  0  0  0  0
    2.3947   52.9039   27.2384 H   0  0  0  0  0  0
    6.5390   54.4351   27.1127 H   0  0  0  0  0  0
    7.5041   54.6963   24.8815 H   0  0  0  0  0  0
    3.6839   54.0589   23.0988 H   0  0  0  0  0  0
  1  2  1  0  0  0
  1 34  1  0  0  0
  1 35  1  0  0  0
  1 36  1  0  0  0
  2  6  1  0  0  0
  2  3  2  0  0  0
  3  4  1  0  0  0
  3 37  1  0  0  0
  4  5  2  0  0  0
  5  6  1  0  0  0
  5  7  1  0  0  0
  7  8  1  0  0  0
  7 38  1  0  0  0
  8  9  2  0  0  0
  8 10  1  0  0  0
 10 39  1  0  0  0
 10 40  1  0  0  0
 10 11  1  0  0  0
 11 12  1  0  0  0
 12 13  2  0  0  0
 12 17  1  0  0  0
 13 14  1  0  0  0
 14 18  1  0  0  0
 14 15  2  0  0  0
 15 17  1  0  0  0
 16 17  1  0  0  0
 18 19  1  0  0  0
 18 20  1  0  0  0
 18 23  1  0  0  0
 20 21  1  0  0  0
 20 22  1  0  0  0
 20 41  1  0  0  0
 21 42  1  0  0  0
 21 43  1  0  0  0
 21 44  1  0  0  0
 22 45  1  0  0  0
 22 46  1  0  0  0
 22 47  1  0  0  0
 23 24  1  0  0  0
 23 48  1  0  0  0
 24 25  2  0  0  0
 24 26  1  0  0  0
 26 31  2  0  0  0
 26 27  1  0  0  0
 27 28  2  0  0  0
 27 49  1  0  0  0
 28 29  1  0  0  0
 28 50  1  0  0  0
 29 30  2  0  0  0
 29 33  1  0  0  0
 30 31  1  0  0  0
 30 51  1  0  0  0
 31 32  1  0  0  0
M  END
> <i_i_glide_confnum>
123

> <i_i_glide_lignum>
3017

> <i_i_glide_posenum>
234

> <i_i_glide_rotatable_bonds>
10

> <i_m_Source_File_Index>
2872

> <b_m_subgroup_collapsed>
0

> <r_i_docking_score>
-6.1974

> <r_i_glide_ecoul>
-2.18378

> <r_i_glide_eff_state_penalty>
0

> <r_i_glide_einternal>
12.6873

> <r_i_glide_emodel>
-68.1953

> <r_i_glide_energy>
-51.5254

> <r_i_glide_erotb>
0.654681

> <r_i_glide_esite>
-0.135783

> <r_i_glide_evdw>
-49.3416

> <r_i_glide_gscore>
-6.1974

> <r_i_glide_hbond>
0

> <r_i_glide_ligand_efficiency>
-0.199916

> <r_i_glide_ligand_efficiency_ln>
-1.3977

> <r_i_glide_ligand_efficiency_sa>
-0.628013

> <r_i_glide_lipo>
-3.27459

> <r_i_glide_metal>
0

> <r_i_glide_rewards>
-0.647057

> <s_i_glide_gridfile>
wee1_glide-grid

> <s_m_Source_File>
wee1_decoys_glide_SP.sdf

> <s_m_Source_Path>
/Users/zhangxujun/Desktop

> <s_m_entry_id>
3147

> <s_m_entry_name>
wee1_decoys_glide_SP.2872

> <s_m_subgroup_title>
wee1_decoys_glide_SP

> <s_m_subgroupid>
wee1_decoys_glide_SP


$$$$
