ZINC08684788_1164
                    3D
 Schrodinger Suite 2024-2.
 62 67  0  0  1  0            999 V2000
    0.2129   51.0794   27.1588 C   0  0  0  0  0  0
    0.3049   51.1575   25.6486 C   0  0  0  0  0  0
    0.4022   52.4066   25.0452 C   0  0  0  0  0  0
    0.4997   52.5091   23.6663 C   0  0  0  0  0  0
    0.5284   51.3553   22.8749 C   0  0  0  0  0  0
    0.4078   50.0962   23.4825 C   0  0  0  0  0  0
    0.3019   49.9996   24.8685 C   0  0  0  0  0  0
    0.6510   51.4997   21.3938 C   0  0  0  0  0  0
    0.2394   52.4917   20.7943 O   0  0  0  0  0  0
    1.5119   50.4445   20.6465 C   0  0  2  0  0  0
    1.9585   49.8046   21.4067 H   0  0  0  0  0  0
    2.6486   51.0873   19.7830 C   0  0  1  0  0  0
    3.3881   50.2908   19.6814 H   0  0  0  0  0  0
    2.0546   51.2669   18.3593 C   0  0  2  0  0  0
    2.7086   50.8181   17.6058 H   0  0  0  0  0  0
    1.6418   52.6813   17.8928 C   0  0  0  0  0  0
    0.3300   52.4109   16.6947 S   0  0  0  0  0  0
   -0.4120   51.1659   17.7526 C   0  0  0  0  0  0
    0.6343   49.6110   19.6443 C   0  0  2  0  0  0
   -0.7731   49.1662   20.0311 C   0  0  0  0  0  0
   -1.9392   49.8687   20.3663 C   0  0  0  0  0  0
   -3.1047   49.1856   20.7244 C   0  0  0  0  0  0
   -3.1052   47.7872   20.7561 C   0  0  0  0  0  0
   -1.9465   47.0791   20.4387 C   0  0  0  0  0  0
   -0.7985   47.7850   20.0784 C   0  0  0  0  0  0
    0.4229   47.2842   19.6816 N   0  0  0  0  0  0
    1.3030   48.2390   19.3567 C   0  0  0  0  0  0
    2.4154   48.0497   18.8803 O   0  0  0  0  0  0
   -4.3729   49.9524   21.0492 C   0  0  0  0  0  0
    3.5553   52.2204   20.3244 C   0  0  0  0  0  0
    4.4008   52.8985   19.4361 C   0  0  0  0  0  0
    5.2166   53.9399   19.8682 C   0  0  0  0  0  0
    5.2252   54.3048   21.2092 C   0  0  0  0  0  0
    4.4359   53.6143   22.1366 C   0  0  0  0  0  0
    3.6195   52.5688   21.6812 C   0  0  0  0  0  0
    4.4749   53.9734   23.5699 N   0  3  0  0  0  0
    5.4953   54.5005   24.0053 O   0  0  0  0  0  0
    3.4914   53.7231   24.2599 O   0  5  0  0  0  0
   -0.5207   51.7941   27.5347 H   0  0  0  0  0  0
   -0.1027   50.0963   27.4970 H   0  0  0  0  0  0
    1.1778   51.3139   27.6102 H   0  0  0  0  0  0
    0.4211   53.2965   25.6481 H   0  0  0  0  0  0
    0.5932   53.4916   23.2239 H   0  0  0  0  0  0
    0.4006   49.1870   22.8970 H   0  0  0  0  0  0
    0.2231   49.0297   25.3380 H   0  0  0  0  0  0
    1.2572   53.2966   18.7018 H   0  0  0  0  0  0
    2.4534   53.2259   17.4100 H   0  0  0  0  0  0
   -0.9090   51.6695   18.5789 H   0  0  0  0  0  0
   -1.0764   50.4867   17.2224 H   0  0  0  0  0  0
   -1.9592   50.9474   20.3781 H   0  0  0  0  0  0
   -4.0043   47.2505   21.0258 H   0  0  0  0  0  0
   -1.9606   46.0006   20.4588 H   0  0  0  0  0  0
    0.6205   46.3057   19.5311 H   0  0  0  0  0  0
   -4.4106   50.8922   20.4946 H   0  0  0  0  0  0
   -5.2607   49.3854   20.7614 H   0  0  0  0  0  0
   -4.4263   50.1722   22.1169 H   0  0  0  0  0  0
    4.4469   52.6105   18.3948 H   0  0  0  0  0  0
    5.8552   54.4509   19.1621 H   0  0  0  0  0  0
    5.8677   55.1151   21.5292 H   0  0  0  0  0  0
    3.0496   52.0194   22.4100 H   0  0  0  0  0  0
    0.7928   50.3705   18.2967 N   0  3  2  0  0  0
    1.0060   49.6614   17.6061 H   0  0  0  0  0  0
  1  2  1  0  0  0
  1 39  1  0  0  0
  1 40  1  0  0  0
  1 41  1  0  0  0
  2  7  2  0  0  0
  2  3  1  0  0  0
  3  4  2  0  0  0
  3 42  1  0  0  0
  4  5  1  0  0  0
  4 43  1  0  0  0
  5  6  2  0  0  0
  5  8  1  0  0  0
  6  7  1  0  0  0
  6 44  1  0  0  0
  7 45  1  0  0  0
  8  9  2  0  0  0
  8 10  1  0  0  0
 10 11  1  0  0  0
 10 19  1  0  0  0
 10 12  1  0  0  0
 12 13  1  0  0  0
 12 14  1  0  0  0
 12 30  1  0  0  0
 14 15  1  0  0  0
 14 16  1  0  0  0
 14 61  1  0  0  0
 16 17  1  0  0  0
 16 46  1  0  0  0
 16 47  1  0  0  0
 17 18  1  0  0  0
 18 48  1  0  0  0
 18 49  1  0  0  0
 18 61  1  0  0  0
 19 27  1  0  0  0
 19 20  1  0  0  0
 19 61  1  0  0  0
 20 25  2  0  0  0
 20 21  1  0  0  0
 21 22  2  0  0  0
 21 50  1  0  0  0
 22 23  1  0  0  0
 22 29  1  0  0  0
 23 24  2  0  0  0
 23 51  1  0  0  0
 24 25  1  0  0  0
 24 52  1  0  0  0
 25 26  1  0  0  0
 26 27  1  0  0  0
 26 53  1  0  0  0
 27 28  2  0  0  0
 29 54  1  0  0  0
 29 55  1  0  0  0
 29 56  1  0  0  0
 30 35  2  0  0  0
 30 31  1  0  0  0
 31 32  2  0  0  0
 31 57  1  0  0  0
 32 33  1  0  0  0
 32 58  1  0  0  0
 33 34  2  0  0  0
 33 59  1  0  0  0
 34 35  1  0  0  0
 34 36  1  0  0  0
 35 60  1  0  0  0
 36 37  2  0  0  0
 36 38  1  0  0  0
 61 62  1  0  0  0
M  CHG  3  36   1  38  -1  61   1
M  END
> <i_i_glide_confnum>
6

> <i_i_glide_lignum>
1165

> <i_i_glide_posenum>
142

> <i_i_glide_rotatable_bonds>
4

> <i_m_Source_File_Index>
165

> <b_m_subgroup_collapsed>
0

> <r_i_docking_score>
-2.75177

> <r_i_glide_ecoul>
-1.45565

> <r_i_glide_eff_state_penalty>
0

> <r_i_glide_einternal>
2.4277

> <r_i_glide_emodel>
-40.5566

> <r_i_glide_energy>
-35.5522

> <r_i_glide_erotb>
0.244471

> <r_i_glide_esite>
-0.0684528

> <r_i_glide_evdw>
-34.0965

> <r_i_glide_gscore>
-2.75177

> <r_i_glide_hbond>
0

> <r_i_glide_ligand_efficiency>
-0.076438

> <r_i_glide_ligand_efficiency_ln>
-0.600362

> <r_i_glide_ligand_efficiency_sa>
-0.252393

> <r_i_glide_lipo>
-0.669264

> <r_i_glide_metal>
0

> <r_i_glide_rewards>
-0.335348

> <s_i_glide_gridfile>
wee1_glide-grid

> <s_m_Source_File>
wee1_decoys_glide_SP.sdf

> <s_m_Source_Path>
/Users/zhangxujun/Desktop

> <s_m_entry_id>
440

> <s_m_entry_name>
wee1_decoys_glide_SP.165

> <s_m_subgroup_title>
wee1_decoys_glide_SP

> <s_m_subgroupid>
wee1_decoys_glide_SP


$$$$
