ZINC46566603_93
                    3D
 Schrodinger Suite 2024-2.
 56 59  0  0  1  0            999 V2000
   -2.5252   45.2580   21.2277 C   0  0  0  0  0  0
   -2.7514   46.0057   22.5275 C   0  0  0  0  0  0
   -1.7893   46.9003   22.9902 C   0  0  0  0  0  0
   -1.9696   47.5920   24.1900 C   0  0  0  0  0  0
   -3.1542   47.4042   24.9303 C   0  0  0  0  0  0
   -4.1040   46.4502   24.4944 C   0  0  0  0  0  0
   -3.8986   45.7773   23.2858 C   0  0  0  0  0  0
   -5.3282   46.0583   25.3156 C   0  0  0  0  0  0
   -3.3262   48.1989   26.0814 N   0  0  0  0  0  0
   -4.3733   49.0225   26.3230 C   0  0  0  0  0  0
   -5.4127   49.0246   25.6643 O   0  0  0  0  0  0
   -4.2648   50.0049   27.5032 C   0  0  0  0  0  0
   -2.8954   50.4983   27.6711 N   0  0  0  0  0  0
   -2.3737   51.5357   26.9871 C   0  0  0  0  0  0
   -3.0017   52.1941   26.1544 O   0  0  0  0  0  0
   -1.0081   51.8637   27.3217 C   0  0  0  0  0  0
   -0.3896   51.6887   28.5691 C   0  0  0  0  0  0
    0.9039   52.1693   28.4571 C   0  0  0  0  0  0
    0.9727   52.6882   27.1710 N   0  0  0  0  0  0
   -0.1868   52.4966   26.5109 N   0  0  0  0  0  0
    2.0468   53.3486   26.5044 C   0  0  0  0  0  0
    2.2421   53.1775   25.1247 C   0  0  0  0  0  0
    3.3423   53.7547   24.4929 C   0  0  0  0  0  0
    4.2570   54.4962   25.2363 C   0  0  0  0  0  0
    4.0469   54.7117   26.5945 C   0  0  0  0  0  0
    2.9290   54.1689   27.2189 C   0  0  0  0  0  0
    5.6737   55.1361   24.4835 Cl  0  0  0  0  0  0
    1.9485   52.1368   29.4675 C   0  0  0  0  0  0
    1.9268   52.1366   30.8549 C   0  0  0  0  0  0
    3.2559   52.0968   31.2823 C   0  0  0  0  0  0
    4.0325   52.0966   30.1394 C   0  0  0  0  0  0
    3.2376   52.0582   29.0453 O   0  0  0  0  0  0
   -0.8697   48.5451   24.6563 C   0  0  0  0  0  0
   -1.4881   44.9251   21.1583 H   0  0  0  0  0  0
   -2.7272   45.9086   20.3764 H   0  0  0  0  0  0
   -3.1529   44.3689   21.1548 H   0  0  0  0  0  0
   -0.8961   47.0633   22.4060 H   0  0  0  0  0  0
   -4.6347   45.0659   22.9386 H   0  0  0  0  0  0
   -5.1667   46.2165   26.3819 H   0  0  0  0  0  0
   -6.2052   46.6202   24.9977 H   0  0  0  0  0  0
   -5.5509   44.9974   25.2025 H   0  0  0  0  0  0
   -2.5272   48.2740   26.7030 H   0  0  0  0  0  0
   -4.9695   50.8305   27.3783 H   0  0  0  0  0  0
   -4.5599   49.4806   28.4128 H   0  0  0  0  0  0
   -2.2638   49.8747   28.1754 H   0  0  0  0  0  0
   -0.8248   51.2312   29.4480 H   0  0  0  0  0  0
    1.5691   52.5665   24.5411 H   0  0  0  0  0  0
    3.5033   53.5961   23.4362 H   0  0  0  0  0  0
    4.7517   55.2952   27.1667 H   0  0  0  0  0  0
    2.7801   54.3698   28.2693 H   0  0  0  0  0  0
    1.0464   52.1633   31.4838 H   0  0  0  0  0  0
    3.6043   52.0902   32.3053 H   0  0  0  0  0  0
    5.0981   52.0712   29.9542 H   0  0  0  0  0  0
   -0.5624   48.2959   25.6733 H   0  0  0  0  0  0
    0.0199   48.4989   24.0272 H   0  0  0  0  0  0
   -1.2367   49.5718   24.6677 H   0  0  0  0  0  0
  1  2  1  0  0  0
  1 34  1  0  0  0
  1 35  1  0  0  0
  1 36  1  0  0  0
  2  7  2  0  0  0
  2  3  1  0  0  0
  3  4  2  0  0  0
  3 37  1  0  0  0
  4  5  1  0  0  0
  4 33  1  0  0  0
  5  6  2  0  0  0
  5  9  1  0  0  0
  6  7  1  0  0  0
  6  8  1  0  0  0
  7 38  1  0  0  0
  8 39  1  0  0  0
  8 40  1  0  0  0
  8 41  1  0  0  0
  9 10  1  0  0  0
  9 42  1  0  0  0
 10 11  2  0  0  0
 10 12  1  0  0  0
 12 13  1  0  0  0
 12 43  1  0  0  0
 12 44  1  0  0  0
 13 14  1  0  0  0
 13 45  1  0  0  0
 14 15  2  0  0  0
 14 16  1  0  0  0
 16 20  2  0  0  0
 16 17  1  0  0  0
 17 18  2  0  0  0
 17 46  1  0  0  0
 18 19  1  0  0  0
 18 28  1  0  0  0
 19 20  1  0  0  0
 19 21  1  0  0  0
 21 26  2  0  0  0
 21 22  1  0  0  0
 22 23  2  0  0  0
 22 47  1  0  0  0
 23 24  1  0  0  0
 23 48  1  0  0  0
 24 25  2  0  0  0
 24 27  1  0  0  0
 25 26  1  0  0  0
 25 49  1  0  0  0
 26 50  1  0  0  0
 28 32  1  0  0  0
 28 29  2  0  0  0
 29 30  1  0  0  0
 29 51  1  0  0  0
 30 31  2  0  0  0
 30 52  1  0  0  0
 31 32  1  0  0  0
 31 53  1  0  0  0
 33 54  1  0  0  0
 33 55  1  0  0  0
 33 56  1  0  0  0
M  END
> <i_i_glide_confnum>
242

> <i_i_glide_lignum>
94

> <i_i_glide_posenum>
72

> <i_i_glide_rotatable_bonds>
8

> <i_m_Source_File_Index>
2137

> <b_m_subgroup_collapsed>
0

> <r_i_docking_score>
-5.66202

> <r_i_glide_ecoul>
-10.1188

> <r_i_glide_eff_state_penalty>
0

> <r_i_glide_einternal>
6.03563

> <r_i_glide_emodel>
-60.3652

> <r_i_glide_energy>
-44.66

> <r_i_glide_erotb>
0.752125

> <r_i_glide_esite>
-0.281646

> <r_i_glide_evdw>
-34.5412

> <r_i_glide_gscore>
-5.66202

> <r_i_glide_hbond>
-0.304

> <r_i_glide_ligand_efficiency>
-0.171576

> <r_i_glide_ligand_efficiency_ln>
-1.2592

> <r_i_glide_ligand_efficiency_sa>
-0.550337

> <r_i_glide_lipo>
-2.08233

> <r_i_glide_metal>
0

> <r_i_glide_rewards>
-0.501292

> <s_i_glide_gridfile>
wee1_glide-grid

> <s_m_Source_File>
wee1_decoys_glide_SP.sdf

> <s_m_Source_Path>
/Users/zhangxujun/Desktop

> <s_m_entry_id>
2412

> <s_m_entry_name>
wee1_decoys_glide_SP.2137

> <s_m_subgroup_title>
wee1_decoys_glide_SP

> <s_m_subgroupid>
wee1_decoys_glide_SP


$$$$
