ZINC40406375_3997
                    3D
 Schrodinger Suite 2024-2.
 62 66  0  0  1  0            999 V2000
    5.0758   53.8226   22.7870 C   0  0  0  0  0  0
    3.9945   53.5530   21.9493 C   0  0  0  0  0  0
    2.7021   53.5549   22.4707 C   0  0  0  0  0  0
    2.4954   53.8167   23.8265 C   0  0  0  0  0  0
    3.5835   54.0967   24.6586 C   0  0  0  0  0  0
    4.8757   54.0967   24.1395 C   0  0  0  0  0  0
    1.0828   53.8715   24.3884 C   0  0  0  0  0  0
    0.5080   52.5687   24.7276 N   0  0  0  0  0  0
   -0.1492   51.6646   23.7928 C   0  0  1  0  0  0
    0.2907   51.7439   22.7983 H   0  0  0  0  0  0
    0.1599   50.3058   24.4379 C   0  0  1  0  0  0
    1.1293   49.9628   24.0720 H   0  0  0  0  0  0
    0.3481   50.6673   25.7982 O   0  0  0  0  0  0
    0.7047   51.9567   25.9620 C   0  0  0  0  0  0
    1.0945   52.4212   27.0322 O   0  0  0  0  0  0
   -0.8024   49.1266   24.2370 C   0  0  0  0  0  0
   -0.8990   48.4994   22.9910 C   0  0  0  0  0  0
   -1.7956   47.4459   22.8003 C   0  0  0  0  0  0
   -2.6071   47.0124   23.8530 C   0  0  0  0  0  0
   -2.5106   47.6282   25.1108 C   0  0  0  0  0  0
   -1.6124   48.6799   25.2854 C   0  0  0  0  0  0
   -3.2905   47.3060   26.2379 N   0  0  0  0  0  0
   -4.1176   46.2635   26.4495 C   0  0  0  0  0  0
   -4.2121   45.2942   25.6924 O   0  0  0  0  0  0
   -5.0101   46.3805   27.6686 C   0  0  0  0  0  0
   -6.2496   45.7254   27.6801 C   0  0  0  0  0  0
   -7.1257   45.8845   28.7514 C   0  0  0  0  0  0
   -6.7608   46.6812   29.8313 C   0  0  0  0  0  0
   -5.5215   47.3118   29.8528 C   0  0  0  0  0  0
   -4.6476   47.1644   28.7784 C   0  0  0  0  0  0
   -7.6100   46.8311   30.8717 F   0  0  0  0  0  0
   -1.6707   51.9338   23.6244 C   0  0  0  0  0  0
   -2.2005   51.6431   22.5513 O   0  0  0  0  0  0
   -2.3335   52.4507   24.6834 N   0  0  0  0  0  0
   -3.7193   52.5810   24.8719 C   0  0  0  0  0  0
   -4.1384   53.5232   25.8150 C   0  0  0  0  0  0
   -5.4953   53.6938   26.0784 C   0  0  0  0  0  0
   -6.4306   52.9087   25.4075 C   0  0  0  0  0  0
   -6.0223   51.9462   24.4868 C   0  0  0  0  0  0
   -4.6651   51.7748   24.2238 C   0  0  0  0  0  0
    6.0782   53.8260   22.3829 H   0  0  0  0  0  0
    4.1543   53.3545   20.8987 H   0  0  0  0  0  0
    1.8665   53.3622   21.8128 H   0  0  0  0  0  0
    3.4315   54.3115   25.7058 H   0  0  0  0  0  0
    5.7206   54.3112   24.7785 H   0  0  0  0  0  0
    1.1062   54.4933   25.2819 H   0  0  0  0  0  0
    0.4321   54.3887   23.6821 H   0  0  0  0  0  0
   -0.2879   48.8353   22.1649 H   0  0  0  0  0  0
   -1.8716   46.9739   21.8311 H   0  0  0  0  0  0
   -3.3109   46.2201   23.6616 H   0  0  0  0  0  0
   -1.5443   49.1573   26.2509 H   0  0  0  0  0  0
   -3.1660   47.9397   27.0210 H   0  0  0  0  0  0
   -6.5586   45.1137   26.8427 H   0  0  0  0  0  0
   -8.0867   45.3936   28.7439 H   0  0  0  0  0  0
   -5.2373   47.9169   30.7023 H   0  0  0  0  0  0
   -3.6993   47.6802   28.8273 H   0  0  0  0  0  0
   -1.7655   52.7679   25.4530 H   0  0  0  0  0  0
   -3.4169   54.1204   26.3548 H   0  0  0  0  0  0
   -5.8194   54.4260   26.8050 H   0  0  0  0  0  0
   -7.4852   53.0384   25.6130 H   0  0  0  0  0  0
   -6.7545   51.3333   23.9822 H   0  0  0  0  0  0
   -4.3716   51.0090   23.5225 H   0  0  0  0  0  0
  1  6  2  0  0  0
  1  2  1  0  0  0
  1 41  1  0  0  0
  2  3  2  0  0  0
  2 42  1  0  0  0
  3  4  1  0  0  0
  3 43  1  0  0  0
  4  5  2  0  0  0
  4  7  1  0  0  0
  5  6  1  0  0  0
  5 44  1  0  0  0
  6 45  1  0  0  0
  7  8  1  0  0  0
  7 46  1  0  0  0
  7 47  1  0  0  0
  8 14  1  0  0  0
  8  9  1  0  0  0
  9 10  1  0  0  0
  9 11  1  0  0  0
  9 32  1  0  0  0
 11 12  1  0  0  0
 11 13  1  0  0  0
 11 16  1  0  0  0
 13 14  1  0  0  0
 14 15  2  0  0  0
 16 21  2  0  0  0
 16 17  1  0  0  0
 17 18  2  0  0  0
 17 48  1  0  0  0
 18 19  1  0  0  0
 18 49  1  0  0  0
 19 20  2  0  0  0
 19 50  1  0  0  0
 20 21  1  0  0  0
 20 22  1  0  0  0
 21 51  1  0  0  0
 22 23  1  0  0  0
 22 52  1  0  0  0
 23 24  2  0  0  0
 23 25  1  0  0  0
 25 30  2  0  0  0
 25 26  1  0  0  0
 26 27  2  0  0  0
 26 53  1  0  0  0
 27 28  1  0  0  0
 27 54  1  0  0  0
 28 29  2  0  0  0
 28 31  1  0  0  0
 29 30  1  0  0  0
 29 55  1  0  0  0
 30 56  1  0  0  0
 32 33  2  0  0  0
 32 34  1  0  0  0
 34 35  1  0  0  0
 34 57  1  0  0  0
 35 40  2  0  0  0
 35 36  1  0  0  0
 36 37  2  0  0  0
 36 58  1  0  0  0
 37 38  1  0  0  0
 37 59  1  0  0  0
 38 39  2  0  0  0
 38 60  1  0  0  0
 39 40  1  0  0  0
 39 61  1  0  0  0
 40 62  1  0  0  0
M  END
> <i_i_glide_confnum>
37

> <i_i_glide_lignum>
3998

> <i_i_glide_posenum>
232

> <i_i_glide_rotatable_bonds>
9

> <i_m_Source_File_Index>
5826

> <b_m_subgroup_collapsed>
0

> <r_i_docking_score>
-4.99079

> <r_i_glide_ecoul>
-7.75988

> <r_i_glide_eff_state_penalty>
0

> <r_i_glide_einternal>
5.72355

> <r_i_glide_emodel>
-60.6538

> <r_i_glide_energy>
-47.9026

> <r_i_glide_erotb>
0.709982

> <r_i_glide_esite>
-0.15683

> <r_i_glide_evdw>
-40.1428

> <r_i_glide_gscore>
-4.99079

> <r_i_glide_hbond>
-0.226441

> <r_i_glide_ligand_efficiency>
-0.131337

> <r_i_glide_ligand_efficiency_ln>
-1.07616

> <r_i_glide_ligand_efficiency_sa>
-0.44155

> <r_i_glide_lipo>
-1.79455

> <r_i_glide_metal>
0

> <r_i_glide_rewards>
-0.351827

> <s_i_glide_gridfile>
wee1_glide-grid

> <s_m_Source_File>
wee1_decoys_glide_SP.sdf

> <s_m_Source_Path>
/Users/zhangxujun/Desktop

> <s_m_entry_id>
6101

> <s_m_entry_name>
wee1_decoys_glide_SP.5826

> <s_m_subgroup_title>
wee1_decoys_glide_SP

> <s_m_subgroupid>
wee1_decoys_glide_SP


$$$$
