ZINC13244541_5937
                    3D
 Schrodinger Suite 2024-2.
 48 51  0  0  1  0            999 V2000
    6.8958   54.4971   26.8816 C   0  0  0  0  0  0
    5.9043   54.3717   27.8382 C   0  0  0  0  0  0
    4.6038   54.0995   27.4425 C   0  0  0  0  0  0
    4.2620   53.9376   26.0895 C   0  0  0  0  0  0
    5.2897   54.0966   25.1400 C   0  0  0  0  0  0
    6.5949   54.3839   25.5294 C   0  0  0  0  0  0
    2.9268   53.5650   25.6948 N   0  0  0  0  0  0
    1.9187   52.9319   26.4349 C   0  0  0  0  0  0
    0.8363   52.7458   25.7284 N   0  0  0  0  0  0
    1.0563   53.2971   24.4877 N   0  0  0  0  0  0
    2.2751   53.7680   24.4742 C   0  0  0  0  0  0
    2.9002   54.4915   23.0002 S   0  0  0  0  0  0
    3.0159   52.9450   22.0299 C   0  0  0  0  0  0
    4.2221   52.8330   21.0926 C   0  0  0  0  0  0
    4.7040   51.7197   20.8818 O   0  0  0  0  0  0
    4.7001   53.9799   20.5706 N   0  0  0  0  0  0
    5.7177   54.1255   19.6063 C   0  0  0  0  0  0
    5.7470   53.2967   18.4783 C   0  0  0  0  0  0
    6.7314   53.4437   17.5045 C   0  0  0  0  0  0
    7.6903   54.4435   17.6326 C   0  0  0  0  0  0
    7.6581   55.2975   18.7323 C   0  0  0  0  0  0
    6.6812   55.1495   19.7285 C   0  0  0  0  0  0
    6.7042   56.0788   20.8912 C   0  0  0  0  0  0
    6.7044   57.2980   20.6266 O   0  0  0  0  0  0
    8.9175   54.6249   16.4335 Cl  0  0  0  0  0  0
    1.9534   52.4522   27.8787 C   0  0  0  0  0  0
    1.4953   53.4974   28.8915 C   0  0  0  0  0  0
    0.9216   53.2756   30.1413 C   0  0  0  0  0  0
    0.6927   54.4328   30.8859 C   0  0  0  0  0  0
    1.1044   55.5816   30.2393 C   0  0  0  0  0  0
    1.6426   55.2297   28.6423 S   0  0  0  0  0  0
    7.9043   54.6792   27.2137 H   0  0  0  0  0  0
    6.1487   54.4775   28.8851 H   0  0  0  0  0  0
    3.9039   53.9970   28.2418 H   0  0  0  0  0  0
    5.1408   53.9422   24.0862 H   0  0  0  0  0  0
    7.3687   54.4854   24.7802 H   0  0  0  0  0  0
    2.1131   52.8545   21.4262 H   0  0  0  0  0  0
    3.0270   52.0828   22.6958 H   0  0  0  0  0  0
    4.3947   54.8333   21.0154 H   0  0  0  0  0  0
    5.0104   52.5145   18.3532 H   0  0  0  0  0  0
    6.7453   52.7769   16.6547 H   0  0  0  0  0  0
    8.4078   56.0728   18.8143 H   0  0  0  0  0  0
    1.3170   51.5710   27.9821 H   0  0  0  0  0  0
    2.9393   52.0657   28.1326 H   0  0  0  0  0  0
    0.6909   52.2884   30.5163 H   0  0  0  0  0  0
    0.2699   54.4236   31.8808 H   0  0  0  0  0  0
    1.0608   56.6014   30.5952 H   0  0  0  0  0  0
    6.7043   55.5852   22.0416 O   0  5  0  0  0  0
  1  6  2  0  0  0
  1  2  1  0  0  0
  1 32  1  0  0  0
  2  3  2  0  0  0
  2 33  1  0  0  0
  3  4  1  0  0  0
  3 34  1  0  0  0
  4  5  2  0  0  0
  4  7  1  0  0  0
  5  6  1  0  0  0
  5 35  1  0  0  0
  6 36  1  0  0  0
  7 11  1  0  0  0
  7  8  1  0  0  0
  8  9  2  0  0  0
  8 26  1  0  0  0
  9 10  1  0  0  0
 10 11  2  0  0  0
 11 12  1  0  0  0
 12 13  1  0  0  0
 13 14  1  0  0  0
 13 37  1  0  0  0
 13 38  1  0  0  0
 14 15  2  0  0  0
 14 16  1  0  0  0
 16 17  1  0  0  0
 16 39  1  0  0  0
 17 22  2  0  0  0
 17 18  1  0  0  0
 18 19  2  0  0  0
 18 40  1  0  0  0
 19 20  1  0  0  0
 19 41  1  0  0  0
 20 21  2  0  0  0
 20 25  1  0  0  0
 21 22  1  0  0  0
 21 42  1  0  0  0
 22 23  1  0  0  0
 23 24  2  0  0  0
 23 48  1  0  0  0
 26 27  1  0  0  0
 26 43  1  0  0  0
 26 44  1  0  0  0
 27 31  1  0  0  0
 27 28  2  0  0  0
 28 29  1  0  0  0
 28 45  1  0  0  0
 29 30  2  0  0  0
 29 46  1  0  0  0
 30 31  1  0  0  0
 30 47  1  0  0  0
M  CHG  1  48  -1
M  END
> <i_i_glide_confnum>
268

> <i_i_glide_lignum>
5938

> <i_i_glide_posenum>
245

> <i_i_glide_rotatable_bonds>
9

> <i_m_Source_File_Index>
5301

> <b_m_subgroup_collapsed>
0

> <r_i_docking_score>
-7.45976

> <r_i_glide_ecoul>
-6.62442

> <r_i_glide_eff_state_penalty>
0

> <r_i_glide_einternal>
11.4976

> <r_i_glide_emodel>
-74.5673

> <r_i_glide_energy>
-54.9142

> <r_i_glide_erotb>
0.693495

> <r_i_glide_esite>
0

> <r_i_glide_evdw>
-48.2898

> <r_i_glide_gscore>
-7.45976

> <r_i_glide_hbond>
-0.16

> <r_i_glide_ligand_efficiency>
-0.233118

> <r_i_glide_ligand_efficiency_ln>
-1.67044

> <r_i_glide_ligand_efficiency_sa>
-0.740102

> <r_i_glide_lipo>
-3.27404

> <r_i_glide_metal>
0

> <r_i_glide_rewards>
-1.31107

> <s_i_glide_gridfile>
wee1_glide-grid

> <s_m_Source_File>
wee1_decoys_glide_SP.sdf

> <s_m_Source_Path>
/Users/zhangxujun/Desktop

> <s_m_entry_id>
5576

> <s_m_entry_name>
wee1_decoys_glide_SP.5301

> <s_m_subgroup_title>
wee1_decoys_glide_SP

> <s_m_subgroupid>
wee1_decoys_glide_SP


$$$$
