ZINC06116382_2270
                    3D
 Schrodinger Suite 2024-2.
 45 48  0  0  1  0            999 V2000
    9.4111   51.6458   16.1743 C   0  0  0  0  0  0
    8.5302   52.8276   15.0135 S   0  0  0  0  0  0
    9.2236   54.1056   15.2021 O   0  0  0  0  0  0
    8.6303   52.2018   13.6931 O   0  0  0  0  0  0
    7.0738   52.8093   15.5638 N   0  5  0  0  0  0
    6.6925   53.5597   16.5973 C   0  0  0  0  0  0
    6.0998   52.8968   17.6451 N   0  3  0  0  0  0
    5.9154   53.7909   18.6518 C   0  0  0  0  0  0
    6.4192   54.9771   18.1659 N   0  0  0  0  0  0
    6.8892   54.8310   16.8959 N   0  0  0  0  0  0
    6.3924   56.2432   18.9183 C   0  0  1  0  0  0
    5.4451   56.7234   18.6638 H   0  0  0  0  0  0
    6.3383   55.8734   20.4358 C   0  0  0  0  0  0
    5.2689   54.7881   20.7718 C   0  0  1  0  0  0
    4.3036   55.1543   20.4290 H   0  0  0  0  0  0
    5.5034   53.6161   19.9273 N   0  0  0  0  0  0
    5.1199   54.4801   22.2602 C   0  0  0  0  0  0
    6.2338   54.4404   23.1106 C   0  0  0  0  0  0
    6.0608   54.2551   24.4789 C   0  0  0  0  0  0
    4.7782   54.0965   24.9992 C   0  0  0  0  0  0
    3.6674   54.0992   24.1574 C   0  0  0  0  0  0
    3.8390   54.2799   22.7873 C   0  0  0  0  0  0
    4.5661   53.8838   26.6986 Cl  0  0  0  0  0  0
    7.5468   57.1904   18.5942 C   0  0  0  0  0  0
    8.8763   56.7613   18.6942 C   0  0  0  0  0  0
    9.9165   57.6496   18.4347 C   0  0  0  0  0  0
    9.6291   58.9652   18.0780 C   0  0  0  0  0  0
    8.3088   59.3885   17.9510 C   0  0  0  0  0  0
    7.2680   58.5034   18.2101 C   0  0  0  0  0  0
   10.9143   60.0827   17.8012 Cl  0  0  0  0  0  0
    9.3545   52.0357   17.1887 H   0  0  0  0  0  0
    8.9262   50.6737   16.1095 H   0  0  0  0  0  0
   10.4489   51.5700   15.8581 H   0  0  0  0  0  0
    7.3276   55.5367   20.7497 H   0  0  0  0  0  0
    6.1482   56.7761   21.0179 H   0  0  0  0  0  0
    5.5424   52.7030   20.3565 H   0  0  0  0  0  0
    7.2360   54.5727   22.7309 H   0  0  0  0  0  0
    6.9195   54.2368   25.1334 H   0  0  0  0  0  0
    2.6758   53.9662   24.5651 H   0  0  0  0  0  0
    2.9712   54.3015   22.1421 H   0  0  0  0  0  0
    9.1078   55.7440   18.9770 H   0  0  0  0  0  0
   10.9406   57.3161   18.5226 H   0  0  0  0  0  0
    8.0795   60.4022   17.6550 H   0  0  0  0  0  0
    6.2498   58.8548   18.1113 H   0  0  0  0  0  0
    5.8964   51.8947   17.6809 H   0  0  0  0  0  0
  1  2  1  0  0  0
  1 31  1  0  0  0
  1 32  1  0  0  0
  1 33  1  0  0  0
  2  3  2  0  0  0
  2  4  2  0  0  0
  2  5  1  0  0  0
  5  6  1  0  0  0
  6 10  2  0  0  0
  6  7  1  0  0  0
  7  8  2  0  0  0
  7 45  1  0  0  0
  8 16  1  0  0  0
  8  9  1  0  0  0
  9 10  1  0  0  0
  9 11  1  0  0  0
 11 12  1  0  0  0
 11 13  1  0  0  0
 11 24  1  0  0  0
 13 14  1  0  0  0
 13 34  1  0  0  0
 13 35  1  0  0  0
 14 15  1  0  0  0
 14 16  1  0  0  0
 14 17  1  0  0  0
 16 36  1  0  0  0
 17 22  2  0  0  0
 17 18  1  0  0  0
 18 19  2  0  0  0
 18 37  1  0  0  0
 19 20  1  0  0  0
 19 38  1  0  0  0
 20 21  2  0  0  0
 20 23  1  0  0  0
 21 22  1  0  0  0
 21 39  1  0  0  0
 22 40  1  0  0  0
 24 29  2  0  0  0
 24 25  1  0  0  0
 25 26  2  0  0  0
 25 41  1  0  0  0
 26 27  1  0  0  0
 26 42  1  0  0  0
 27 28  2  0  0  0
 27 30  1  0  0  0
 28 29  1  0  0  0
 28 43  1  0  0  0
 29 44  1  0  0  0
M  CHG  2   5  -1   7   1
M  END
> <i_i_glide_confnum>
14

> <i_i_glide_lignum>
2271

> <i_i_glide_posenum>
2

> <i_i_glide_rotatable_bonds>
4

> <i_m_Source_File_Index>
2780

> <b_m_subgroup_collapsed>
0

> <r_i_docking_score>
-4.61339

> <r_i_glide_ecoul>
-4.6643

> <r_i_glide_eff_state_penalty>
0

> <r_i_glide_einternal>
6.52766

> <r_i_glide_emodel>
-43.5309

> <r_i_glide_energy>
-32.2382

> <r_i_glide_erotb>
0.311484

> <r_i_glide_esite>
-0.175857

> <r_i_glide_evdw>
-27.5739

> <r_i_glide_gscore>
-4.61339

> <r_i_glide_hbond>
-0.2

> <r_i_glide_ligand_efficiency>
-0.164764

> <r_i_glide_ligand_efficiency_ln>
-1.06491

> <r_i_glide_ligand_efficiency_sa>
-0.50032

> <r_i_glide_lipo>
-1.99661

> <r_i_glide_metal>
0

> <r_i_glide_rewards>
-0.474073

> <s_i_glide_gridfile>
wee1_glide-grid

> <s_m_Source_File>
wee1_decoys_glide_SP.sdf

> <s_m_Source_Path>
/Users/zhangxujun/Desktop

> <s_m_entry_id>
3055

> <s_m_entry_name>
wee1_decoys_glide_SP.2780

> <s_m_subgroup_title>
wee1_decoys_glide_SP

> <s_m_subgroupid>
wee1_decoys_glide_SP


$$$$
