ZINC34681405_1228
                    3D
 Schrodinger Suite 2024-2.
 61 64  0  0  1  0            999 V2000
   -1.8154   51.3926   25.8244 C   0  0  0  0  0  0
   -0.6206   51.6913   26.7081 C   0  0  0  0  0  0
    0.3872   50.7408   26.8558 C   0  0  0  0  0  0
    1.4746   51.0120   27.6820 C   0  0  0  0  0  0
    1.5370   52.2145   28.3791 C   0  0  0  0  0  0
    0.5220   53.1556   28.2516 C   0  0  0  0  0  0
   -0.5412   52.8958   27.4033 C   0  0  0  0  0  0
    2.9062   52.5568   29.4615 S   0  0  0  0  0  0
    3.6172   51.2973   29.6832 O   0  0  0  0  0  0
    2.3523   53.2971   30.5913 O   0  0  0  0  0  0
    3.9876   53.6477   28.5804 N   0  0  0  0  0  0
    5.4527   53.5040   28.7116 C   0  0  0  0  0  0
    6.2051   53.4225   27.3766 C   0  0  0  0  0  0
    5.9587   54.5819   26.4005 C   0  0  0  0  0  0
    4.6502   54.4470   25.7230 N   0  0  0  0  0  0
    3.3952   54.7548   26.4295 C   0  0  0  0  0  0
    3.4332   54.8562   27.9610 C   0  0  0  0  0  0
    4.5642   54.2546   24.2899 C   0  0  0  0  0  0
    3.3418   54.0968   23.6041 C   0  0  0  0  0  0
    3.3213   53.9139   22.2189 C   0  0  0  0  0  0
    4.5188   53.9246   21.4994 C   0  0  0  0  0  0
    5.7171   54.0965   22.2100 C   0  0  0  0  0  0
    5.6905   54.2318   23.5472 N   0  3  0  0  0  0
    4.4482   53.7157   20.1087 N   0  0  0  0  0  0
    5.4072   53.9274   19.1865 C   0  0  0  0  0  0
    6.4717   54.5010   19.4145 O   0  0  0  0  0  0
    5.0468   53.4104   17.9968 N   0  0  0  0  0  0
    5.7943   53.2974   16.8084 C   0  0  0  0  0  0
    7.1813   53.5086   16.7119 C   0  0  0  0  0  0
    7.8336   53.3262   15.4913 C   0  0  0  0  0  0
    7.1161   52.9298   14.3630 C   0  0  0  0  0  0
    5.7411   52.7123   14.4549 C   0  0  0  0  0  0
    5.0863   52.8955   15.6724 C   0  0  0  0  0  0
    5.0389   52.3251   13.3647 F   0  0  0  0  0  0
    7.7593   52.7555   13.1839 F   0  0  0  0  0  0
   -2.1338   50.3597   25.9708 H   0  0  0  0  0  0
   -2.6692   52.0255   26.0718 H   0  0  0  0  0  0
   -1.5572   51.5207   24.7722 H   0  0  0  0  0  0
    0.3299   49.7895   26.3438 H   0  0  0  0  0  0
    2.2452   50.2692   27.8038 H   0  0  0  0  0  0
    0.5443   54.0819   28.8062 H   0  0  0  0  0  0
   -1.2992   53.6448   27.2842 H   0  0  0  0  0  0
    5.6419   52.5940   29.2726 H   0  0  0  0  0  0
    5.8351   54.3453   29.2844 H   0  0  0  0  0  0
    5.9402   52.4968   26.8810 H   0  0  0  0  0  0
    7.2715   53.3544   27.5945 H   0  0  0  0  0  0
    6.7685   54.6261   25.6748 H   0  0  0  0  0  0
    5.9748   55.5437   26.9146 H   0  0  0  0  0  0
    3.1046   55.6966   25.9874 H   0  0  0  0  0  0
    2.6613   53.9967   26.1609 H   0  0  0  0  0  0
    4.0205   55.6964   28.3095 H   0  0  0  0  0  0
    2.4361   55.0431   28.3526 H   0  0  0  0  0  0
    2.3911   54.1001   24.1128 H   0  0  0  0  0  0
    2.3736   53.7819   21.7140 H   0  0  0  0  0  0
    6.7052   54.1029   21.7786 H   0  0  0  0  0  0
    3.5551   53.3985   19.7614 H   0  0  0  0  0  0
    4.1260   53.0054   17.9386 H   0  0  0  0  0  0
    7.7775   53.7907   17.5658 H   0  0  0  0  0  0
    8.9006   53.4813   15.4213 H   0  0  0  0  0  0
    4.0236   52.7060   15.7204 H   0  0  0  0  0  0
    6.5709   54.3402   24.0285 H   0  0  0  0  0  0
  1  2  1  0  0  0
  1 36  1  0  0  0
  1 37  1  0  0  0
  1 38  1  0  0  0
  2  7  2  0  0  0
  2  3  1  0  0  0
  3  4  2  0  0  0
  3 39  1  0  0  0
  4  5  1  0  0  0
  4 40  1  0  0  0
  5  6  2  0  0  0
  5  8  1  0  0  0
  6  7  1  0  0  0
  6 41  1  0  0  0
  7 42  1  0  0  0
  8  9  2  0  0  0
  8 10  2  0  0  0
  8 11  1  0  0  0
 11 17  1  0  0  0
 11 12  1  0  0  0
 12 13  1  0  0  0
 12 43  1  0  0  0
 12 44  1  0  0  0
 13 14  1  0  0  0
 13 45  1  0  0  0
 13 46  1  0  0  0
 14 15  1  0  0  0
 14 47  1  0  0  0
 14 48  1  0  0  0
 15 16  1  0  0  0
 15 18  1  0  0  0
 16 17  1  0  0  0
 16 49  1  0  0  0
 16 50  1  0  0  0
 17 51  1  0  0  0
 17 52  1  0  0  0
 18 23  2  0  0  0
 18 19  1  0  0  0
 19 20  2  0  0  0
 19 53  1  0  0  0
 20 21  1  0  0  0
 20 54  1  0  0  0
 21 22  2  0  0  0
 21 24  1  0  0  0
 22 23  1  0  0  0
 22 55  1  0  0  0
 23 61  1  0  0  0
 24 25  1  0  0  0
 24 56  1  0  0  0
 25 26  2  0  0  0
 25 27  1  0  0  0
 27 28  1  0  0  0
 27 57  1  0  0  0
 28 33  2  0  0  0
 28 29  1  0  0  0
 29 30  2  0  0  0
 29 58  1  0  0  0
 30 31  1  0  0  0
 30 59  1  0  0  0
 31 32  2  0  0  0
 31 35  1  0  0  0
 32 33  1  0  0  0
 32 34  1  0  0  0
 33 60  1  0  0  0
M  CHG  1  23   1
M  END
> <i_i_glide_confnum>
182

> <i_i_glide_lignum>
1229

> <i_i_glide_posenum>
292

> <i_i_glide_rotatable_bonds>
7

> <i_m_Source_File_Index>
6071

> <b_m_subgroup_collapsed>
0

> <r_i_docking_score>
-4.74605

> <r_i_glide_ecoul>
-8.03511

> <r_i_glide_eff_state_penalty>
0

> <r_i_glide_einternal>
4.00015

> <r_i_glide_emodel>
-44.6153

> <r_i_glide_energy>
-34.6848

> <r_i_glide_erotb>
0.485437

> <r_i_glide_esite>
-0.11543

> <r_i_glide_evdw>
-26.6497

> <r_i_glide_gscore>
-4.74605

> <r_i_glide_hbond>
0

> <r_i_glide_ligand_efficiency>
-0.135602

> <r_i_glide_ligand_efficiency_ln>
-1.04186

> <r_i_glide_ligand_efficiency_sa>
-0.443562

> <r_i_glide_lipo>
-2.49101

> <r_i_glide_metal>
0

> <r_i_glide_rewards>
-0.0873035

> <s_i_glide_gridfile>
wee1_glide-grid

> <s_m_Source_File>
wee1_decoys_glide_SP.sdf

> <s_m_Source_Path>
/Users/zhangxujun/Desktop

> <s_m_entry_id>
6346

> <s_m_entry_name>
wee1_decoys_glide_SP.6071

> <s_m_subgroup_title>
wee1_decoys_glide_SP

> <s_m_subgroupid>
wee1_decoys_glide_SP


$$$$
