ZINC39667125_285
                    3D
 Schrodinger Suite 2024-2.
 77 80  0  0  1  0            999 V2000
   -6.0208   44.2439   25.6729 C   0  0  0  0  0  0
   -4.8862   45.2326   25.4733 C   0  0  0  0  0  0
   -3.9433   45.4391   26.4819 C   0  0  0  0  0  0
   -2.8981   46.3395   26.2880 C   0  0  0  0  0  0
   -2.7800   47.0509   25.0873 C   0  0  0  0  0  0
   -3.7214   46.8329   24.0622 C   0  0  0  0  0  0
   -4.7634   45.9218   24.2643 C   0  0  0  0  0  0
   -3.6448   47.5747   22.7337 C   0  0  0  0  0  0
   -1.6545   48.0736   24.9471 C   0  0  0  0  0  0
   -2.0714   49.4811   25.4201 C   0  0  0  0  0  0
   -1.0790   50.5221   25.1399 N   0  0  0  0  0  0
   -0.9562   51.1860   23.9722 C   0  0  0  0  0  0
   -1.7171   50.9797   23.0248 O   0  0  0  0  0  0
    0.1247   52.2914   23.8025 C   0  0  1  0  0  0
   -0.4157   53.2114   23.5729 H   0  0  0  0  0  0
    0.8614   52.5777   25.1333 C   0  0  0  0  0  0
    2.1606   53.1048   24.7210 N   0  0  0  0  0  0
    2.3835   52.8999   23.2828 C   0  0  0  0  0  0
    1.2471   51.9817   22.7704 C   0  0  0  0  0  0
    0.8133   52.2746   21.3123 C   0  0  0  0  0  0
    1.9935   52.1829   20.3226 C   0  0  0  0  0  0
    2.5447   50.7414   20.3656 N   0  3  0  0  0  0
    2.8908   50.2391   21.7880 C   0  0  0  0  0  0
    1.7013   50.4888   22.7493 C   0  0  0  0  0  0
    2.9707   53.7399   25.6210 C   0  0  0  0  0  0
    2.5755   54.0152   26.7518 O   0  0  0  0  0  0
    4.3410   54.0467   25.2299 C   0  0  0  0  0  0
    4.7960   54.4899   23.9932 C   0  0  0  0  0  0
    6.1525   54.7245   24.0859 C   0  0  0  0  0  0
    6.5545   54.5436   25.3170 N   0  0  0  0  0  0
    5.4888   54.1236   26.0389 N   0  0  0  0  0  0
    5.7239   53.8844   27.5145 C   0  0  0  0  0  0
    7.1824   53.4303   27.7890 C   0  0  0  0  0  0
    4.7894   52.8259   28.1514 C   0  0  0  0  0  0
    5.5319   55.2128   28.2437 C   0  0  0  0  0  0
    7.0962   55.1702   23.0007 C   0  0  0  0  0  0
   -5.7651   43.4884   26.4173 H   0  0  0  0  0  0
   -6.9250   44.7634   25.9889 H   0  0  0  0  0  0
   -6.2363   43.7119   24.7467 H   0  0  0  0  0  0
   -4.0159   44.9043   27.4224 H   0  0  0  0  0  0
   -2.1838   46.4967   27.0857 H   0  0  0  0  0  0
   -5.4916   45.7581   23.4834 H   0  0  0  0  0  0
   -4.5027   47.3646   22.0940 H   0  0  0  0  0  0
   -3.6113   48.6533   22.8941 H   0  0  0  0  0  0
   -2.7387   47.2973   22.1936 H   0  0  0  0  0  0
   -1.3142   48.1034   23.9105 H   0  0  0  0  0  0
   -0.7816   47.7374   25.5097 H   0  0  0  0  0  0
   -2.3192   49.4555   26.4812 H   0  0  0  0  0  0
   -3.0266   49.7506   24.9609 H   0  0  0  0  0  0
   -0.4553   50.7450   25.9028 H   0  0  0  0  0  0
    1.0897   51.6560   25.6712 H   0  0  0  0  0  0
    0.3047   53.2886   25.7491 H   0  0  0  0  0  0
    2.2184   53.8775   22.8273 H   0  0  0  0  0  0
    3.3780   52.5800   22.9859 H   0  0  0  0  0  0
   -0.0259   51.6493   21.0057 H   0  0  0  0  0  0
    0.4470   53.2953   21.2542 H   0  0  0  0  0  0
    1.6840   52.3633   19.2901 H   0  0  0  0  0  0
    2.8188   52.8557   20.5631 H   0  0  0  0  0  0
    1.8524   50.1247   19.9633 H   0  0  0  0  0  0
    3.1044   49.1731   21.6855 H   0  0  0  0  0  0
    3.8024   50.7613   22.0726 H   0  0  0  0  0  0
    2.0123   50.1872   23.7527 H   0  0  0  0  0  0
    0.8775   49.8214   22.4930 H   0  0  0  0  0  0
    4.2219   54.6498   23.0937 H   0  0  0  0  0  0
    7.3669   53.2987   28.8551 H   0  0  0  0  0  0
    7.9036   54.1750   27.4590 H   0  0  0  0  0  0
    7.4306   52.5002   27.2893 H   0  0  0  0  0  0
    3.9066   53.2622   28.6173 H   0  0  0  0  0  0
    4.4499   52.0996   27.4281 H   0  0  0  0  0  0
    5.2737   52.2620   28.9479 H   0  0  0  0  0  0
    4.5278   55.5858   28.0442 H   0  0  0  0  0  0
    5.6244   55.0948   29.3249 H   0  0  0  0  0  0
    6.2952   55.9325   27.9276 H   0  0  0  0  0  0
    6.5712   55.3671   22.0648 H   0  0  0  0  0  0
    7.6122   56.0892   23.2710 H   0  0  0  0  0  0
    7.8416   54.4075   22.7823 H   0  0  0  0  0  0
    3.3551   50.6721   19.7592 H   0  0  0  0  0  0
  1  2  1  0  0  0
  1 37  1  0  0  0
  1 38  1  0  0  0
  1 39  1  0  0  0
  2  7  2  0  0  0
  2  3  1  0  0  0
  3  4  2  0  0  0
  3 40  1  0  0  0
  4  5  1  0  0  0
  4 41  1  0  0  0
  5  6  2  0  0  0
  5  9  1  0  0  0
  6  7  1  0  0  0
  6  8  1  0  0  0
  7 42  1  0  0  0
  8 43  1  0  0  0
  8 44  1  0  0  0
  8 45  1  0  0  0
  9 10  1  0  0  0
  9 46  1  0  0  0
  9 47  1  0  0  0
 10 11  1  0  0  0
 10 48  1  0  0  0
 10 49  1  0  0  0
 11 12  1  0  0  0
 11 50  1  0  0  0
 12 13  2  0  0  0
 12 14  1  0  0  0
 14 15  1  0  0  0
 14 19  1  0  0  0
 14 16  1  0  0  0
 16 17  1  0  0  0
 16 51  1  0  0  0
 16 52  1  0  0  0
 17 18  1  0  0  0
 17 25  1  0  0  0
 18 19  1  0  0  0
 18 53  1  0  0  0
 18 54  1  0  0  0
 19 24  1  0  0  0
 19 20  1  0  0  0
 20 21  1  0  0  0
 20 55  1  0  0  0
 20 56  1  0  0  0
 21 22  1  0  0  0
 21 57  1  0  0  0
 21 58  1  0  0  0
 22 23  1  0  0  0
 22 59  1  0  0  0
 22 77  1  0  0  0
 23 24  1  0  0  0
 23 60  1  0  0  0
 23 61  1  0  0  0
 24 62  1  0  0  0
 24 63  1  0  0  0
 25 26  2  0  0  0
 25 27  1  0  0  0
 27 31  1  0  0  0
 27 28  2  0  0  0
 28 29  1  0  0  0
 28 64  1  0  0  0
 29 30  2  0  0  0
 29 36  1  0  0  0
 30 31  1  0  0  0
 31 32  1  0  0  0
 32 33  1  0  0  0
 32 34  1  0  0  0
 32 35  1  0  0  0
 33 65  1  0  0  0
 33 66  1  0  0  0
 33 67  1  0  0  0
 34 68  1  0  0  0
 34 69  1  0  0  0
 34 70  1  0  0  0
 35 71  1  0  0  0
 35 72  1  0  0  0
 35 73  1  0  0  0
 36 74  1  0  0  0
 36 75  1  0  0  0
 36 76  1  0  0  0
M  CHG  1  22   1
M  END
> <i_i_glide_confnum>
339

> <i_i_glide_lignum>
286

> <i_i_glide_posenum>
387

> <i_i_glide_rotatable_bonds>
8

> <i_m_Source_File_Index>
723

> <b_m_subgroup_collapsed>
0

> <r_i_docking_score>
-6.0843

> <r_i_glide_ecoul>
-5.95514

> <r_i_glide_eff_state_penalty>
0

> <r_i_glide_einternal>
11.1661

> <r_i_glide_emodel>
-53.5133

> <r_i_glide_energy>
-38.851

> <r_i_glide_erotb>
0.614462

> <r_i_glide_esite>
-0.0470506

> <r_i_glide_evdw>
-32.8959

> <r_i_glide_gscore>
-6.0843

> <r_i_glide_hbond>
0

> <r_i_glide_ligand_efficiency>
-0.173837

> <r_i_glide_ligand_efficiency_ln>
-1.33564

> <r_i_glide_ligand_efficiency_sa>
-0.568633

> <r_i_glide_lipo>
-2.2562

> <r_i_glide_metal>
0

> <r_i_glide_rewards>
-1.85745

> <s_i_glide_gridfile>
wee1_glide-grid

> <s_m_Source_File>
wee1_decoys_glide_SP.sdf

> <s_m_Source_Path>
/Users/zhangxujun/Desktop

> <s_m_entry_id>
998

> <s_m_entry_name>
wee1_decoys_glide_SP.723

> <s_m_subgroup_title>
wee1_decoys_glide_SP

> <s_m_subgroupid>
wee1_decoys_glide_SP


$$$$
