ZINC53620239_4461
                    3D
 Schrodinger Suite 2024-2.
 41 44  0  0  1  0            999 V2000
    4.5130   54.3678   29.1931 C   0  0  0  0  0  0
    3.9023   54.0428   27.8463 C   0  0  0  0  0  0
    4.5972   54.4310   26.7921 N   0  0  0  0  0  0
    4.0045   54.1099   25.6698 C   0  0  0  0  0  0
    4.4679   54.3138   24.3803 N   0  0  0  0  0  0
    5.7558   54.4973   24.0085 C   0  0  0  0  0  0
    6.7047   54.5549   24.7962 O   0  0  0  0  0  0
    5.9777   54.6937   22.5222 C   0  0  0  0  0  0
    7.1044   55.4020   22.0803 C   0  0  0  0  0  0
    7.3074   55.6443   20.7247 C   0  0  0  0  0  0
    6.3825   55.1782   19.7953 C   0  0  0  0  0  0
    5.2644   54.4612   20.2112 C   0  0  0  0  0  0
    5.0656   54.2106   21.5671 C   0  0  0  0  0  0
    6.6300   55.4821   18.1154 Cl  0  0  0  0  0  0
    2.4750   53.3360   25.8586 S   0  0  0  0  0  0
    2.7009   53.3620   27.5960 C   0  0  0  0  0  0
    3.7933   54.1807   23.6436 H   0  0  0  0  0  0
    1.7241   52.7238   28.5666 C   0  0  2  0  0  0
    2.1803   52.6865   29.5561 H   0  0  0  0  0  0
    1.3505   51.3868   28.1402 N   0  0  0  0  0  0
   -0.0942   51.4081   28.0613 C   0  0  1  0  0  0
   -0.5273   50.4968   28.4626 H   0  0  0  0  0  0
   -0.4958   52.5197   28.8975 N   0  0  0  0  0  0
    0.5278   53.4759   28.6220 O   0  0  0  0  0  0
   -0.5654   51.5031   26.6083 C   0  0  0  0  0  0
   -0.0992   50.7857   25.5017 C   0  0  0  0  0  0
   -0.7450   51.0731   24.2967 C   0  0  0  0  0  0
   -1.7615   51.9954   24.4529 C   0  0  0  0  0  0
   -1.9165   52.4934   26.1014 S   0  0  0  0  0  0
    4.1130   55.2971   29.5980 H   0  0  0  0  0  0
    4.3064   53.5888   29.9262 H   0  0  0  0  0  0
    5.5990   54.4779   29.1583 H   0  0  0  0  0  0
    7.8297   55.7852   22.7846 H   0  0  0  0  0  0
    8.1854   56.1801   20.3946 H   0  0  0  0  0  0
    4.5539   54.0948   19.4837 H   0  0  0  0  0  0
    4.1896   53.6466   21.8524 H   0  0  0  0  0  0
    1.6013   50.7529   28.8812 H   0  0  0  0  0  0
   -0.3744   52.2871   29.8732 H   0  0  0  0  0  0
    0.7062   50.0691   25.5772 H   0  0  0  0  0  0
   -0.4865   50.6110   23.3549 H   0  0  0  0  0  0
   -2.4295   52.3836   23.7000 H   0  0  0  0  0  0
  1 30  1  0  0  0
  1 31  1  0  0  0
  1 32  1  0  0  0
  1  2  1  0  0  0
  2  3  1  0  0  0
  2 16  2  0  0  0
  3  4  2  0  0  0
  4 15  1  0  0  0
  4  5  1  0  0  0
  5 17  1  0  0  0
  5  6  1  0  0  0
  6  8  1  0  0  0
  6  7  2  0  0  0
  8 13  2  0  0  0
  8  9  1  0  0  0
  9 10  2  0  0  0
  9 33  1  0  0  0
 10 11  1  0  0  0
 10 34  1  0  0  0
 11 12  2  0  0  0
 11 14  1  0  0  0
 12 13  1  0  0  0
 12 35  1  0  0  0
 13 36  1  0  0  0
 15 16  1  0  0  0
 16 18  1  0  0  0
 18 19  1  0  0  0
 18 24  1  0  0  0
 18 20  1  0  0  0
 20 21  1  0  0  0
 20 37  1  0  0  0
 21 22  1  0  0  0
 21 23  1  0  0  0
 21 25  1  0  0  0
 23 24  1  0  0  0
 23 38  1  0  0  0
 25 29  1  0  0  0
 25 26  2  0  0  0
 26 27  1  0  0  0
 26 39  1  0  0  0
 27 28  2  0  0  0
 27 40  1  0  0  0
 28 29  1  0  0  0
 28 41  1  0  0  0
M  END
> <i_i_glide_confnum>
167

> <i_i_glide_lignum>
4462

> <i_i_glide_posenum>
364

> <i_i_glide_rotatable_bonds>
5

> <i_m_Source_File_Index>
358

> <b_m_subgroup_collapsed>
0

> <r_i_docking_score>
-4.8016

> <r_i_glide_ecoul>
-0.754789

> <r_i_glide_eff_state_penalty>
0

> <r_i_glide_einternal>
6.84884

> <r_i_glide_emodel>
-53.8667

> <r_i_glide_energy>
-42.4056

> <r_i_glide_erotb>
0.593888

> <r_i_glide_esite>
-0.0507555

> <r_i_glide_evdw>
-41.6508

> <r_i_glide_gscore>
-4.8016

> <r_i_glide_hbond>
0

> <r_i_glide_ligand_efficiency>
-0.184677

> <r_i_glide_ligand_efficiency_ln>
-1.12764

> <r_i_glide_ligand_efficiency_sa>
-0.547105

> <r_i_glide_lipo>
-1.87392

> <r_i_glide_metal>
0

> <r_i_glide_rewards>
-1.27505

> <s_i_glide_gridfile>
wee1_glide-grid

> <s_m_Source_File>
wee1_decoys_glide_SP.sdf

> <s_m_Source_Path>
/Users/zhangxujun/Desktop

> <s_m_entry_id>
633

> <s_m_entry_name>
wee1_decoys_glide_SP.358

> <s_m_subgroup_title>
wee1_decoys_glide_SP

> <s_m_subgroupid>
wee1_decoys_glide_SP


$$$$
