ZINC39303729_5714
                    3D
 Schrodinger Suite 2024-2.
 85 89  0  0  1  0            999 V2000
    9.9550   59.2550   17.9397 C   0  0  0  0  0  0
    9.5982   58.3261   16.7658 C   0  0  0  0  0  0
   10.1743   56.9093   16.9762 C   0  0  0  0  0  0
    8.0890   58.3163   16.5017 C   0  0  0  0  0  0
    7.5644   58.9975   15.4012 C   0  0  0  0  0  0
    6.1900   59.0032   15.1603 C   0  0  0  0  0  0
    5.3061   58.3258   16.0161 C   0  0  0  0  0  0
    5.8357   57.6414   17.1217 C   0  0  0  0  0  0
    7.2137   57.6512   17.3649 C   0  0  0  0  0  0
    4.9348   56.9034   18.0980 C   0  0  0  0  0  0
    4.9163   55.3682   17.8534 N   0  3  2  0  0  0
    3.8995   55.0712   16.7190 C   0  0  0  0  0  0
    3.8521   53.5631   16.4335 C   0  0  0  0  0  0
    3.5060   52.7566   17.6908 C   0  0  0  0  0  0
    4.5299   53.0331   18.7993 C   0  0  0  0  0  0
    4.6502   54.5403   19.1532 C   0  0  1  0  0  0
    3.7497   54.9582   19.6017 H   0  0  0  0  0  0
    5.9000   54.7314   20.0722 C   0  0  0  0  0  0
    7.0017   54.9017   19.5363 O   0  0  0  0  0  0
    5.7467   54.7578   21.4262 N   0  0  0  0  0  0
    6.9004   55.1108   22.2883 C   0  0  0  0  0  0
    7.0830   54.0285   23.3758 C   0  0  0  0  0  0
    5.8690   53.7614   24.1318 N   0  0  0  0  0  0
    4.7373   53.4305   23.2612 C   0  0  0  0  0  0
    4.4713   54.4056   22.0931 C   0  0  0  0  0  0
    5.6240   54.7774   25.1593 C   0  0  0  0  0  0
    4.7114   54.2889   26.2750 C   0  0  0  0  0  0
    3.3388   54.4579   26.1472 C   0  0  0  0  0  0
    2.4856   54.0683   27.1716 C   0  0  0  0  0  0
    2.9864   53.4874   28.3403 C   0  0  0  0  0  0
    4.3708   53.2988   28.4548 C   0  0  0  0  0  0
    5.2304   53.6966   27.4297 C   0  0  0  0  0  0
    2.1019   53.0936   29.3609 N   0  0  0  0  0  0
    2.4380   52.3880   30.5976 C   0  0  0  0  0  0
    1.1805   52.3831   31.4681 C   0  0  0  0  0  0
    0.0744   52.3138   30.4372 C   0  0  0  0  0  0
    0.6358   53.1746   29.3086 C   0  0  0  0  0  0
    3.9349   58.2826   15.8297 O   0  0  0  0  0  0
    3.3495   59.0301   14.7689 C   0  0  0  0  0  0
    9.5520   60.2554   17.7841 H   0  0  0  0  0  0
   11.0342   59.3488   18.0584 H   0  0  0  0  0  0
    9.5526   58.8731   18.8769 H   0  0  0  0  0  0
   10.0853   58.7267   15.8730 H   0  0  0  0  0  0
    9.9199   56.2505   16.1420 H   0  0  0  0  0  0
   11.2639   56.9392   17.0489 H   0  0  0  0  0  0
    9.8080   56.4461   17.8930 H   0  0  0  0  0  0
    8.2205   59.5342   14.7296 H   0  0  0  0  0  0
    5.8247   59.5564   14.3079 H   0  0  0  0  0  0
    7.6083   57.1348   18.2294 H   0  0  0  0  0  0
    5.3057   57.0758   19.1072 H   0  0  0  0  0  0
    3.9021   57.2584   18.0816 H   0  0  0  0  0  0
    2.9275   55.4598   17.0299 H   0  0  0  0  0  0
    4.2449   55.6075   15.8324 H   0  0  0  0  0  0
    3.1126   53.3599   15.6586 H   0  0  0  0  0  0
    4.8109   53.2295   16.0313 H   0  0  0  0  0  0
    2.5016   53.0032   18.0381 H   0  0  0  0  0  0
    3.5040   51.6919   17.4537 H   0  0  0  0  0  0
    4.2816   52.4429   19.6830 H   0  0  0  0  0  0
    5.4923   52.6486   18.4538 H   0  0  0  0  0  0
    7.8379   55.1994   21.7365 H   0  0  0  0  0  0
    6.7146   56.0714   22.7690 H   0  0  0  0  0  0
    7.9044   54.2186   24.0584 H   0  0  0  0  0  0
    7.3256   53.0893   22.8817 H   0  0  0  0  0  0
    3.8333   53.2046   23.8241 H   0  0  0  0  0  0
    5.0523   52.4983   22.7874 H   0  0  0  0  0  0
    3.9834   55.2968   22.4818 H   0  0  0  0  0  0
    3.7626   53.8987   21.4406 H   0  0  0  0  0  0
    6.5671   55.0781   25.6190 H   0  0  0  0  0  0
    5.2112   55.6813   24.7132 H   0  0  0  0  0  0
    2.9296   54.8966   25.2502 H   0  0  0  0  0  0
    1.4263   54.2206   27.0424 H   0  0  0  0  0  0
    4.7910   52.8432   29.3373 H   0  0  0  0  0  0
    6.2949   53.5434   27.5338 H   0  0  0  0  0  0
    2.7828   51.3831   30.3581 H   0  0  0  0  0  0
    3.2515   52.8995   31.1136 H   0  0  0  0  0  0
    1.1589   51.5545   32.1745 H   0  0  0  0  0  0
    1.1062   53.2964   32.0593 H   0  0  0  0  0  0
   -0.8775   52.6823   30.8248 H   0  0  0  0  0  0
   -0.1038   51.2969   30.0837 H   0  0  0  0  0  0
    0.2892   54.2072   29.3918 H   0  0  0  0  0  0
    0.2887   52.7502   28.3656 H   0  0  0  0  0  0
    2.2700   58.8881   14.7899 H   0  0  0  0  0  0
    3.5465   60.0964   14.8713 H   0  0  0  0  0  0
    3.7068   58.6901   13.7960 H   0  0  0  0  0  0
    5.8338   55.0908   17.5283 H   0  0  0  0  0  0
  1  2  1  0  0  0
  1 40  1  0  0  0
  1 41  1  0  0  0
  1 42  1  0  0  0
  2  3  1  0  0  0
  2  4  1  0  0  0
  2 43  1  0  0  0
  3 44  1  0  0  0
  3 45  1  0  0  0
  3 46  1  0  0  0
  4  9  2  0  0  0
  4  5  1  0  0  0
  5  6  2  0  0  0
  5 47  1  0  0  0
  6  7  1  0  0  0
  6 48  1  0  0  0
  7  8  2  0  0  0
  7 38  1  0  0  0
  8  9  1  0  0  0
  8 10  1  0  0  0
  9 49  1  0  0  0
 10 11  1  0  0  0
 10 50  1  0  0  0
 10 51  1  0  0  0
 11 16  1  0  0  0
 11 12  1  0  0  0
 11 85  1  0  0  0
 12 13  1  0  0  0
 12 52  1  0  0  0
 12 53  1  0  0  0
 13 14  1  0  0  0
 13 54  1  0  0  0
 13 55  1  0  0  0
 14 15  1  0  0  0
 14 56  1  0  0  0
 14 57  1  0  0  0
 15 16  1  0  0  0
 15 58  1  0  0  0
 15 59  1  0  0  0
 16 17  1  0  0  0
 16 18  1  0  0  0
 18 19  2  0  0  0
 18 20  1  0  0  0
 20 25  1  0  0  0
 20 21  1  0  0  0
 21 22  1  0  0  0
 21 60  1  0  0  0
 21 61  1  0  0  0
 22 23  1  0  0  0
 22 62  1  0  0  0
 22 63  1  0  0  0
 23 24  1  0  0  0
 23 26  1  0  0  0
 24 25  1  0  0  0
 24 64  1  0  0  0
 24 65  1  0  0  0
 25 66  1  0  0  0
 25 67  1  0  0  0
 26 27  1  0  0  0
 26 68  1  0  0  0
 26 69  1  0  0  0
 27 32  2  0  0  0
 27 28  1  0  0  0
 28 29  2  0  0  0
 28 70  1  0  0  0
 29 30  1  0  0  0
 29 71  1  0  0  0
 30 31  2  0  0  0
 30 33  1  0  0  0
 31 32  1  0  0  0
 31 72  1  0  0  0
 32 73  1  0  0  0
 33 37  1  0  0  0
 33 34  1  0  0  0
 34 35  1  0  0  0
 34 74  1  0  0  0
 34 75  1  0  0  0
 35 36  1  0  0  0
 35 76  1  0  0  0
 35 77  1  0  0  0
 36 37  1  0  0  0
 36 78  1  0  0  0
 36 79  1  0  0  0
 37 80  1  0  0  0
 37 81  1  0  0  0
 38 39  1  0  0  0
 39 82  1  0  0  0
 39 83  1  0  0  0
 39 84  1  0  0  0
M  CHG  1  11   1
M  END
> <i_i_glide_confnum>
175

> <i_i_glide_lignum>
5715

> <i_i_glide_posenum>
296

> <i_i_glide_rotatable_bonds>
9

> <i_m_Source_File_Index>
5030

> <b_m_subgroup_collapsed>
0

> <r_i_docking_score>
-4.63023

> <r_i_glide_ecoul>
-0.826526

> <r_i_glide_eff_state_penalty>
0

> <r_i_glide_einternal>
6.39169

> <r_i_glide_emodel>
-49.0809

> <r_i_glide_energy>
-39.8922

> <r_i_glide_erotb>
0.532435

> <r_i_glide_esite>
0

> <r_i_glide_evdw>
-39.0656

> <r_i_glide_gscore>
-4.63023

> <r_i_glide_hbond>
0

> <r_i_glide_ligand_efficiency>
-0.121848

> <r_i_glide_ligand_efficiency_ln>
-0.998413

> <r_i_glide_ligand_efficiency_sa>
-0.40965

> <r_i_glide_lipo>
-2.45152

> <r_i_glide_metal>
0

> <r_i_glide_rewards>
-0.633886

> <s_i_glide_gridfile>
wee1_glide-grid

> <s_m_Source_File>
wee1_decoys_glide_SP.sdf

> <s_m_Source_Path>
/Users/zhangxujun/Desktop

> <s_m_entry_id>
5305

> <s_m_entry_name>
wee1_decoys_glide_SP.5030

> <s_m_subgroup_title>
wee1_decoys_glide_SP

> <s_m_subgroupid>
wee1_decoys_glide_SP


$$$$
