ZINC39362868_490
                    3D
 Schrodinger Suite 2024-2.
 50 53  0  0  1  0            999 V2000
   -0.4742   43.4610   17.6493 C   0  0  0  0  0  0
    0.5241   44.4362   17.0708 C   0  0  0  0  0  0
    1.3539   44.2633   15.9645 C   0  0  0  0  0  0
    2.3072   45.6960   15.7153 S   0  0  0  0  0  0
    1.5241   46.3784   17.1015 C   0  0  0  0  0  0
    0.6313   45.6051   17.6782 N   0  0  0  0  0  0
    1.9043   47.6541   17.4822 N   0  0  0  0  0  0
    1.6817   48.2483   18.6705 C   0  0  0  0  0  0
    1.1141   47.7254   19.6339 O   0  0  0  0  0  0
    2.2339   49.6709   18.7586 C   0  0  0  0  0  0
    1.2547   50.8028   19.7994 S   0  0  0  0  0  0
    2.1111   50.6955   21.4049 C   0  0  1  0  0  0
    2.0273   49.6692   21.7675 H   0  0  0  0  0  0
    3.4957   50.9806   21.2067 N   0  0  0  0  0  0
    3.7731   52.0953   21.6819 N   0  0  0  0  0  0
    2.6264   52.6925   22.3165 C   0  0  1  0  0  0
    2.2755   53.4863   21.6526 H   0  0  0  0  0  0
    1.6159   51.6393   22.3957 N   0  0  0  0  0  0
    0.3332   51.6326   22.9747 C   0  0  0  0  0  0
   -0.4103   50.4449   23.0295 C   0  0  0  0  0  0
   -1.6832   50.4245   23.5962 C   0  0  0  0  0  0
   -2.2279   51.5969   24.1109 C   0  0  0  0  0  0
   -1.5033   52.7829   24.0727 C   0  0  0  0  0  0
   -0.2269   52.7951   23.5186 C   0  0  0  0  0  0
   -3.4710   51.5888   24.6408 F   0  0  0  0  0  0
    3.0215   53.3168   23.6971 C   0  0  0  0  0  0
    4.3607   54.0441   23.8639 C   0  0  0  0  0  0
    5.0530   54.3669   22.7219 N   0  0  0  0  0  0
    6.3049   54.8966   22.7312 C   0  0  0  0  0  0
    6.9119   55.2123   21.7136 O   0  0  0  0  0  0
    6.7878   55.1281   23.9878 N   0  0  0  0  0  0
    6.1979   54.9299   25.1988 C   0  0  0  0  0  0
    6.7092   55.2957   26.2530 O   0  0  0  0  0  0
    4.8972   54.2947   25.0822 C   0  0  0  0  0  0
   -1.4962   43.8373   17.5665 H   0  0  0  0  0  0
   -0.4484   42.4998   17.1352 H   0  0  0  0  0  0
   -0.2851   43.2662   18.7059 H   0  0  0  0  0  0
    1.4440   43.4089   15.3104 H   0  0  0  0  0  0
    2.5609   48.1391   16.8765 H   0  0  0  0  0  0
    3.2650   49.6107   19.0979 H   0  0  0  0  0  0
    2.2966   50.1147   17.7634 H   0  0  0  0  0  0
   -0.0094   49.5247   22.6310 H   0  0  0  0  0  0
   -2.2474   49.5046   23.6305 H   0  0  0  0  0  0
   -1.9365   53.6948   24.4533 H   0  0  0  0  0  0
    0.2956   53.7343   23.4722 H   0  0  0  0  0  0
    2.2724   54.0420   24.0021 H   0  0  0  0  0  0
    2.9816   52.5335   24.4568 H   0  0  0  0  0  0
    7.7115   55.5366   24.0127 H   0  0  0  0  0  0
    4.3773   54.0126   25.9859 H   0  0  0  0  0  0
    4.6825   54.1422   21.8100 H   0  0  0  0  0  0
  1  2  1  0  0  0
  1 35  1  0  0  0
  1 36  1  0  0  0
  1 37  1  0  0  0
  2  6  1  0  0  0
  2  3  2  0  0  0
  3  4  1  0  0  0
  3 38  1  0  0  0
  4  5  1  0  0  0
  5  6  2  0  0  0
  5  7  1  0  0  0
  7  8  1  0  0  0
  7 39  1  0  0  0
  8  9  2  0  0  0
  8 10  1  0  0  0
 10 11  1  0  0  0
 10 40  1  0  0  0
 10 41  1  0  0  0
 11 12  1  0  0  0
 12 13  1  0  0  0
 12 18  1  0  0  0
 12 14  1  0  0  0
 14 15  2  0  0  0
 15 16  1  0  0  0
 16 17  1  0  0  0
 16 18  1  0  0  0
 16 26  1  0  0  0
 18 19  1  0  0  0
 19 24  2  0  0  0
 19 20  1  0  0  0
 20 21  2  0  0  0
 20 42  1  0  0  0
 21 22  1  0  0  0
 21 43  1  0  0  0
 22 23  2  0  0  0
 22 25  1  0  0  0
 23 24  1  0  0  0
 23 44  1  0  0  0
 24 45  1  0  0  0
 26 46  1  0  0  0
 26 47  1  0  0  0
 26 27  1  0  0  0
 27 34  2  0  0  0
 27 28  1  0  0  0
 28 29  1  0  0  0
 28 50  1  0  0  0
 29 30  2  0  0  0
 29 31  1  0  0  0
 31 48  1  0  0  0
 31 32  1  0  0  0
 32 33  2  0  0  0
 32 34  1  0  0  0
 34 49  1  0  0  0
M  END
> <i_i_glide_confnum>
28

> <i_i_glide_lignum>
491

> <i_i_glide_posenum>
391

> <i_i_glide_rotatable_bonds>
8

> <i_m_Source_File_Index>
5905

> <b_m_subgroup_collapsed>
0

> <r_i_docking_score>
-6.7112

> <r_i_glide_ecoul>
-9.19515

> <r_i_glide_eff_state_penalty>
0

> <r_i_glide_einternal>
12.6852

> <r_i_glide_emodel>
-68.095

> <r_i_glide_energy>
-50.0417

> <r_i_glide_erotb>
0.501328

> <r_i_glide_esite>
-0.160097

> <r_i_glide_evdw>
-40.8466

> <r_i_glide_gscore>
-6.7112

> <r_i_glide_hbond>
-0.69043

> <r_i_glide_ligand_efficiency>
-0.209725

> <r_i_glide_ligand_efficiency_ln>
-1.50282

> <r_i_glide_ligand_efficiency_sa>
-0.665835

> <r_i_glide_lipo>
-1.24686

> <r_i_glide_metal>
0

> <r_i_glide_rewards>
-1.69354

> <s_i_glide_gridfile>
wee1_glide-grid

> <s_m_Source_File>
wee1_decoys_glide_SP.sdf

> <s_m_Source_Path>
/Users/zhangxujun/Desktop

> <s_m_entry_id>
6180

> <s_m_entry_name>
wee1_decoys_glide_SP.5905

> <s_m_subgroup_title>
wee1_decoys_glide_SP

> <s_m_subgroupid>
wee1_decoys_glide_SP


$$$$
