ZINC13220668_5784
                    3D
 Schrodinger Suite 2024-2.
 54 57  0  0  1  0            999 V2000
    2.0727   47.3947   17.8643 C   0  0  0  0  0  0
    1.5667   48.1481   19.0814 C   0  0  0  0  0  0
    0.3593   47.7906   19.6812 C   0  0  0  0  0  0
   -0.1029   48.4972   20.7881 C   0  0  0  0  0  0
    0.6452   49.5527   21.3157 C   0  0  0  0  0  0
    1.8460   49.9196   20.6979 C   0  0  0  0  0  0
    2.3038   49.2219   19.5821 C   0  0  0  0  0  0
    0.1509   50.3281   22.4932 C   0  0  0  0  0  0
    0.1199   51.6397   22.5127 N   0  0  0  0  0  0
   -0.4096   52.0294   23.7351 N   0  0  0  0  0  0
   -0.6370   50.9416   24.4265 C   0  0  0  0  0  0
   -0.3144   49.8133   23.6944 N   0  0  0  0  0  0
   -0.3714   48.4122   24.1388 C   0  0  0  0  0  0
   -1.6934   47.6989   23.8264 C   0  0  0  0  0  0
   -2.6195   48.3366   23.2795 O   0  0  0  0  0  0
   -1.3142   50.9594   26.0488 S   0  0  0  0  0  0
    0.2290   50.6368   26.9684 C   0  0  0  0  0  0
    0.9792   51.8860   27.4461 C   0  0  0  0  0  0
    0.4955   52.9999   27.2803 O   0  0  0  0  0  0
    2.1564   51.6960   28.0815 N   0  0  0  0  0  0
    3.0837   52.7133   28.6258 C   0  0  1  0  0  0
    3.6777   52.1649   29.3585 H   0  0  0  0  0  0
    4.0887   53.3056   27.6259 C   0  0  0  0  0  0
    3.6710   53.8365   26.3976 C   0  0  0  0  0  0
    4.5862   54.4785   25.5651 C   0  0  0  0  0  0
    5.9186   54.5911   25.9563 C   0  0  0  0  0  0
    6.3485   54.0531   27.1640 C   0  0  0  0  0  0
    5.4373   53.4086   27.9935 C   0  0  0  0  0  0
    6.8006   55.2391   25.1626 F   0  0  0  0  0  0
    2.3551   53.8163   29.3764 C   0  0  0  0  0  0
    2.4789   55.2088   29.2830 C   0  0  0  0  0  0
    1.5387   55.9188   30.0266 C   0  0  0  0  0  0
    0.6979   55.0650   30.7059 C   0  0  0  0  0  0
    1.0838   53.4089   30.4928 S   0  0  0  0  0  0
    1.3582   46.6542   17.5073 H   0  0  0  0  0  0
    2.2693   48.0919   17.0510 H   0  0  0  0  0  0
    3.0170   46.8975   18.0800 H   0  0  0  0  0  0
   -0.2310   46.9757   19.2869 H   0  0  0  0  0  0
   -1.0556   48.2284   21.2187 H   0  0  0  0  0  0
    2.4249   50.7492   21.0777 H   0  0  0  0  0  0
    3.2263   49.5188   19.1024 H   0  0  0  0  0  0
    0.4572   47.8780   23.6819 H   0  0  0  0  0  0
   -0.2189   48.3744   25.2155 H   0  0  0  0  0  0
    0.8931   49.9754   26.4152 H   0  0  0  0  0  0
   -0.0955   50.0980   27.8541 H   0  0  0  0  0  0
    2.5177   50.7558   28.0673 H   0  0  0  0  0  0
    2.6360   53.7845   26.0965 H   0  0  0  0  0  0
    4.2630   54.8956   24.6230 H   0  0  0  0  0  0
    7.3815   54.1428   27.4635 H   0  0  0  0  0  0
    5.7821   53.0162   28.9375 H   0  0  0  0  0  0
    3.2079   55.6965   28.6535 H   0  0  0  0  0  0
    1.4605   56.9973   30.0436 H   0  0  0  0  0  0
   -0.1701   55.2969   31.2877 H   0  0  0  0  0  0
   -1.7432   46.4822   24.1152 O   0  5  0  0  0  0
  1  2  1  0  0  0
  1 35  1  0  0  0
  1 36  1  0  0  0
  1 37  1  0  0  0
  2  7  2  0  0  0
  2  3  1  0  0  0
  3  4  2  0  0  0
  3 38  1  0  0  0
  4  5  1  0  0  0
  4 39  1  0  0  0
  5  6  2  0  0  0
  5  8  1  0  0  0
  6  7  1  0  0  0
  6 40  1  0  0  0
  7 41  1  0  0  0
  8 12  1  0  0  0
  8  9  2  0  0  0
  9 10  1  0  0  0
 10 11  2  0  0  0
 11 12  1  0  0  0
 11 16  1  0  0  0
 12 13  1  0  0  0
 13 14  1  0  0  0
 13 42  1  0  0  0
 13 43  1  0  0  0
 14 15  2  0  0  0
 14 54  1  0  0  0
 16 17  1  0  0  0
 17 18  1  0  0  0
 17 44  1  0  0  0
 17 45  1  0  0  0
 18 19  2  0  0  0
 18 20  1  0  0  0
 20 21  1  0  0  0
 20 46  1  0  0  0
 21 22  1  0  0  0
 21 23  1  0  0  0
 21 30  1  0  0  0
 23 28  2  0  0  0
 23 24  1  0  0  0
 24 25  2  0  0  0
 24 47  1  0  0  0
 25 26  1  0  0  0
 25 48  1  0  0  0
 26 27  2  0  0  0
 26 29  1  0  0  0
 27 28  1  0  0  0
 27 49  1  0  0  0
 28 50  1  0  0  0
 30 34  1  0  0  0
 30 31  2  0  0  0
 31 32  1  0  0  0
 31 51  1  0  0  0
 32 33  2  0  0  0
 32 52  1  0  0  0
 33 34  1  0  0  0
 33 53  1  0  0  0
M  CHG  1  54  -1
M  END
> <i_i_glide_confnum>
104

> <i_i_glide_lignum>
5785

> <i_i_glide_posenum>
168

> <i_i_glide_rotatable_bonds>
10

> <i_m_Source_File_Index>
2983

> <b_m_subgroup_collapsed>
0

> <r_i_docking_score>
-5.40623

> <r_i_glide_ecoul>
-3.14976

> <r_i_glide_eff_state_penalty>
0

> <r_i_glide_einternal>
4.52556

> <r_i_glide_emodel>
-67.3437

> <r_i_glide_energy>
-50.0844

> <r_i_glide_erotb>
0.747084

> <r_i_glide_esite>
-0.0288695

> <r_i_glide_evdw>
-46.9347

> <r_i_glide_gscore>
-5.40623

> <r_i_glide_hbond>
0

> <r_i_glide_ligand_efficiency>
-0.159007

> <r_i_glide_ligand_efficiency_ln>
-1.19439

> <r_i_glide_ligand_efficiency_sa>
-0.515121

> <r_i_glide_lipo>
-2.82352

> <r_i_glide_metal>
0

> <r_i_glide_rewards>
-0.48173

> <s_i_glide_gridfile>
wee1_glide-grid

> <s_m_Source_File>
wee1_decoys_glide_SP.sdf

> <s_m_Source_Path>
/Users/zhangxujun/Desktop

> <s_m_entry_id>
3258

> <s_m_entry_name>
wee1_decoys_glide_SP.2983

> <s_m_subgroup_title>
wee1_decoys_glide_SP

> <s_m_subgroupid>
wee1_decoys_glide_SP


$$$$
