ZINC13186035_5782
                    3D
 Schrodinger Suite 2024-2.
 53 55  0  0  1  0            999 V2000
   -0.1464   52.6867   30.1008 C   0  0  0  0  0  0
   -0.8932   51.6967   29.4016 O   0  0  0  0  0  0
   -0.9576   51.6973   28.0188 C   0  0  0  0  0  0
   -2.1980   51.3105   27.5065 C   0  0  0  0  0  0
   -2.4428   51.2907   26.1377 C   0  0  0  0  0  0
   -1.4364   51.6551   25.2469 C   0  0  0  0  0  0
   -0.1864   52.0359   25.7345 C   0  0  0  0  0  0
    0.0803   52.0331   27.1136 C   0  0  0  0  0  0
    1.5021   52.2167   27.5603 C   0  0  0  0  0  0
    1.9964   51.3593   28.2875 O   0  0  0  0  0  0
    2.1478   53.2976   27.0583 N   0  0  0  0  0  0
    3.5279   53.6081   27.1418 C   0  0  0  0  0  0
    4.0894   54.0979   25.9535 C   0  0  0  0  0  0
    5.4590   54.3482   25.8574 C   0  0  0  0  0  0
    6.2839   54.1332   26.9543 C   0  0  0  0  0  0
    5.7376   53.6971   28.1556 C   0  0  0  0  0  0
    4.3608   53.4589   28.2846 C   0  0  0  0  0  0
    3.8323   53.1671   29.6480 C   0  0  0  0  0  0
    2.9669   53.9602   30.0847 O   0  0  0  0  0  0
    6.1483   54.8961   24.3749 Cl  0  0  0  0  0  0
   -1.7711   51.5928   23.4902 S   0  0  0  0  0  0
   -2.5146   50.3530   23.2401 O   0  0  0  0  0  0
   -2.3703   52.8910   23.1599 O   0  0  0  0  0  0
   -0.2054   51.4625   22.6549 N   0  0  0  0  0  0
    0.1215   52.4966   21.6421 C   0  0  0  0  0  0
    0.9708   52.0275   20.4477 C   0  0  0  0  0  0
    2.4666   51.8488   20.7555 C   0  0  0  0  0  0
    2.8279   50.6251   21.6104 C   0  0  0  0  0  0
    2.1178   50.5194   22.9743 C   0  0  0  0  0  0
    0.6061   50.2414   22.8874 C   0  0  0  0  0  0
   -0.6464   52.8996   31.0442 H   0  0  0  0  0  0
    0.8466   52.3178   30.3578 H   0  0  0  0  0  0
   -0.0581   53.6280   29.5551 H   0  0  0  0  0  0
   -2.9820   51.0169   28.1898 H   0  0  0  0  0  0
   -3.4108   50.9784   25.7731 H   0  0  0  0  0  0
    0.5975   52.2759   25.0297 H   0  0  0  0  0  0
    1.6381   53.8177   26.3628 H   0  0  0  0  0  0
    3.4758   54.2410   25.0750 H   0  0  0  0  0  0
    7.3460   54.3150   26.8845 H   0  0  0  0  0  0
    6.3998   53.5787   28.9998 H   0  0  0  0  0  0
   -0.8160   52.8967   21.2590 H   0  0  0  0  0  0
    0.6699   53.2958   22.1439 H   0  0  0  0  0  0
    0.5515   51.1228   20.0045 H   0  0  0  0  0  0
    0.8893   52.7978   19.6772 H   0  0  0  0  0  0
    3.0083   51.7745   19.8093 H   0  0  0  0  0  0
    2.8486   52.7521   21.2344 H   0  0  0  0  0  0
    3.9042   50.6555   21.7741 H   0  0  0  0  0  0
    2.6443   49.7151   21.0362 H   0  0  0  0  0  0
    2.3040   51.4111   23.5749 H   0  0  0  0  0  0
    2.5768   49.6996   23.5247 H   0  0  0  0  0  0
    0.2799   49.7952   23.8282 H   0  0  0  0  0  0
    0.3914   49.5174   22.1002 H   0  0  0  0  0  0
    4.2908   52.1721   30.2581 O   0  5  0  0  0  0
  1  2  1  0  0  0
  1 31  1  0  0  0
  1 32  1  0  0  0
  1 33  1  0  0  0
  2  3  1  0  0  0
  3  8  2  0  0  0
  3  4  1  0  0  0
  4  5  2  0  0  0
  4 34  1  0  0  0
  5  6  1  0  0  0
  5 35  1  0  0  0
  6  7  2  0  0  0
  6 21  1  0  0  0
  7  8  1  0  0  0
  7 36  1  0  0  0
  8  9  1  0  0  0
  9 10  2  0  0  0
  9 11  1  0  0  0
 11 12  1  0  0  0
 11 37  1  0  0  0
 12 17  2  0  0  0
 12 13  1  0  0  0
 13 14  2  0  0  0
 13 38  1  0  0  0
 14 15  1  0  0  0
 14 20  1  0  0  0
 15 16  2  0  0  0
 15 39  1  0  0  0
 16 17  1  0  0  0
 16 40  1  0  0  0
 17 18  1  0  0  0
 18 19  2  0  0  0
 18 53  1  0  0  0
 21 22  2  0  0  0
 21 23  2  0  0  0
 21 24  1  0  0  0
 24 30  1  0  0  0
 24 25  1  0  0  0
 25 26  1  0  0  0
 25 41  1  0  0  0
 25 42  1  0  0  0
 26 27  1  0  0  0
 26 43  1  0  0  0
 26 44  1  0  0  0
 27 28  1  0  0  0
 27 45  1  0  0  0
 27 46  1  0  0  0
 28 29  1  0  0  0
 28 47  1  0  0  0
 28 48  1  0  0  0
 29 30  1  0  0  0
 29 49  1  0  0  0
 29 50  1  0  0  0
 30 51  1  0  0  0
 30 52  1  0  0  0
M  CHG  1  53  -1
M  END
> <i_i_glide_confnum>
207

> <i_i_glide_lignum>
5783

> <i_i_glide_posenum>
389

> <i_i_glide_rotatable_bonds>
7

> <i_m_Source_File_Index>
5636

> <b_m_subgroup_collapsed>
0

> <r_i_docking_score>
-4.72073

> <r_i_glide_ecoul>
-6.54912

> <r_i_glide_eff_state_penalty>
0

> <r_i_glide_einternal>
19.0494

> <r_i_glide_emodel>
-53.3823

> <r_i_glide_energy>
-50.2545

> <r_i_glide_erotb>
0.464575

> <r_i_glide_esite>
-0.000426591

> <r_i_glide_evdw>
-43.7053

> <r_i_glide_gscore>
-4.72073

> <r_i_glide_hbond>
-0.16

> <r_i_glide_ligand_efficiency>
-0.152282

> <r_i_glide_ligand_efficiency_ln>
-1.06467

> <r_i_glide_ligand_efficiency_sa>
-0.478374

> <r_i_glide_lipo>
-2.09843

> <r_i_glide_metal>
0

> <r_i_glide_rewards>
0.241189

> <s_i_glide_gridfile>
wee1_glide-grid

> <s_m_Source_File>
wee1_decoys_glide_SP.sdf

> <s_m_Source_Path>
/Users/zhangxujun/Desktop

> <s_m_entry_id>
5911

> <s_m_entry_name>
wee1_decoys_glide_SP.5636

> <s_m_subgroup_title>
wee1_decoys_glide_SP

> <s_m_subgroupid>
wee1_decoys_glide_SP


$$$$
