ZINC13544014_541
                    3D
 Schrodinger Suite 2024-2.
 53 56  0  0  1  0            999 V2000
   -0.7962   52.0942   27.1950 C   0  0  0  0  0  0
   -0.0148   51.7880   26.0852 C   0  0  0  0  0  0
    1.2887   52.2689   26.0091 C   0  0  0  0  0  0
    1.8174   53.0609   27.0385 C   0  0  0  0  0  0
    0.9969   53.4095   28.1176 C   0  0  0  0  0  0
   -0.2922   52.8968   28.2119 C   0  0  0  0  0  0
    3.1962   53.4318   27.0498 N   0  0  0  0  0  0
    3.9545   53.9740   26.0152 C   0  0  0  0  0  0
    5.1915   54.1844   26.3991 N   0  0  0  0  0  0
    5.2974   53.7582   27.7129 N   0  0  0  0  0  0
    4.1273   53.2966   28.0823 C   0  0  0  0  0  0
    3.9041   52.5556   29.6817 S   0  5  0  0  0  0
    3.4308   54.3332   24.6272 C   0  0  0  0  0  0
    4.4911   54.4967   23.6259 N   0  0  0  0  0  0
    4.5623   53.8661   22.4402 C   0  0  0  0  0  0
    3.8581   52.8995   22.1467 O   0  0  0  0  0  0
    5.4724   54.4965   21.4113 C   0  0  0  0  0  0
    5.0606   54.5163   20.0737 C   0  0  0  0  0  0
    5.8240   55.1636   19.1094 C   0  0  0  0  0  0
    7.0336   55.7609   19.4611 C   0  0  0  0  0  0
    7.4880   55.6967   20.7820 C   0  0  0  0  0  0
    6.6990   55.0841   21.7600 C   0  0  0  0  0  0
    7.9341   56.6854   18.2104 S   0  0  0  0  0  0
    9.0873   57.2965   18.8790 O   0  0  0  0  0  0
    6.9250   57.5115   17.5387 O   0  0  0  0  0  0
    8.5344   55.5015   17.0322 N   0  0  0  0  0  0
    7.6064   54.8407   16.0826 C   0  0  0  0  0  0
    7.4722   53.3367   16.3990 C   0  0  0  0  0  0
    8.8526   52.6532   16.5065 C   0  0  0  0  0  0
    9.7998   53.4042   17.4689 C   0  0  0  0  0  0
    9.8867   54.9078   17.1630 C   0  0  0  0  0  0
   -1.7958   51.6915   27.2743 H   0  0  0  0  0  0
   -0.4051   51.1441   25.3112 H   0  0  0  0  0  0
    1.9037   51.9530   25.1801 H   0  0  0  0  0  0
    1.3774   54.0187   28.9230 H   0  0  0  0  0  0
   -0.8944   53.1104   29.0838 H   0  0  0  0  0  0
    2.9203   55.2938   24.6993 H   0  0  0  0  0  0
    2.6818   53.6405   24.2534 H   0  0  0  0  0  0
    5.1705   55.2163   23.8201 H   0  0  0  0  0  0
    4.1207   54.0707   19.7804 H   0  0  0  0  0  0
    5.4576   55.2150   18.0958 H   0  0  0  0  0  0
    8.4371   56.1310   21.0621 H   0  0  0  0  0  0
    7.0578   55.0654   22.7790 H   0  0  0  0  0  0
    7.9776   55.0089   15.0726 H   0  0  0  0  0  0
    6.6345   55.3283   16.1383 H   0  0  0  0  0  0
    6.8693   52.8464   15.6350 H   0  0  0  0  0  0
    6.9283   53.2031   17.3363 H   0  0  0  0  0  0
    8.7350   51.6190   16.8340 H   0  0  0  0  0  0
    9.3086   52.6109   15.5166 H   0  0  0  0  0  0
    9.4306   53.2966   18.4811 H   0  0  0  0  0  0
   10.7933   52.9538   17.4575 H   0  0  0  0  0  0
   10.4420   55.1117   16.2470 H   0  0  0  0  0  0
   10.4235   55.4160   17.9666 H   0  0  0  0  0  0
  1  6  2  0  0  0
  1  2  1  0  0  0
  1 32  1  0  0  0
  2  3  2  0  0  0
  2 33  1  0  0  0
  3  4  1  0  0  0
  3 34  1  0  0  0
  4  5  2  0  0  0
  4  7  1  0  0  0
  5  6  1  0  0  0
  5 35  1  0  0  0
  6 36  1  0  0  0
  7 11  1  0  0  0
  7  8  1  0  0  0
  8 13  1  0  0  0
  8  9  2  0  0  0
  9 10  1  0  0  0
 10 11  2  0  0  0
 11 12  1  0  0  0
 13 14  1  0  0  0
 13 37  1  0  0  0
 13 38  1  0  0  0
 14 15  1  0  0  0
 14 39  1  0  0  0
 15 16  2  0  0  0
 15 17  1  0  0  0
 17 22  2  0  0  0
 17 18  1  0  0  0
 18 19  2  0  0  0
 18 40  1  0  0  0
 19 20  1  0  0  0
 19 41  1  0  0  0
 20 21  2  0  0  0
 20 23  1  0  0  0
 21 22  1  0  0  0
 21 42  1  0  0  0
 22 43  1  0  0  0
 23 24  2  0  0  0
 23 25  2  0  0  0
 23 26  1  0  0  0
 26 31  1  0  0  0
 26 27  1  0  0  0
 27 28  1  0  0  0
 27 44  1  0  0  0
 27 45  1  0  0  0
 28 29  1  0  0  0
 28 46  1  0  0  0
 28 47  1  0  0  0
 29 30  1  0  0  0
 29 48  1  0  0  0
 29 49  1  0  0  0
 30 31  1  0  0  0
 30 50  1  0  0  0
 30 51  1  0  0  0
 31 52  1  0  0  0
 31 53  1  0  0  0
M  CHG  1  12  -1
M  END
> <i_i_glide_confnum>
180

> <i_i_glide_lignum>
542

> <i_i_glide_posenum>
20

> <i_i_glide_rotatable_bonds>
7

> <i_m_Source_File_Index>
2144

> <b_m_subgroup_collapsed>
0

> <r_i_docking_score>
-3.9618

> <r_i_glide_ecoul>
-1.93176

> <r_i_glide_eff_state_penalty>
0

> <r_i_glide_einternal>
8.75242

> <r_i_glide_emodel>
-44.9286

> <r_i_glide_energy>
-37.6573

> <r_i_glide_erotb>
0.674915

> <r_i_glide_esite>
-0.0265479

> <r_i_glide_evdw>
-35.7256

> <r_i_glide_gscore>
-3.9618

> <r_i_glide_hbond>
0

> <r_i_glide_ligand_efficiency>
-0.1278

> <r_i_glide_ligand_efficiency_ln>
-0.893506

> <r_i_glide_ligand_efficiency_sa>
-0.401468

> <r_i_glide_lipo>
-1.61699

> <r_i_glide_metal>
0

> <r_i_glide_rewards>
-0.91713

> <s_i_glide_gridfile>
wee1_glide-grid

> <s_m_Source_File>
wee1_decoys_glide_SP.sdf

> <s_m_Source_Path>
/Users/zhangxujun/Desktop

> <s_m_entry_id>
2419

> <s_m_entry_name>
wee1_decoys_glide_SP.2144

> <s_m_subgroup_title>
wee1_decoys_glide_SP

> <s_m_subgroupid>
wee1_decoys_glide_SP


$$$$
