ZINC44176542_4250
                    3D
 Schrodinger Suite 2024-2.
 72 75  0  0  1  0            999 V2000
    5.3289   54.7605   28.8098 C   0  0  0  0  0  0
    5.9016   54.2445   27.4668 C   0  0  0  0  0  0
    7.0596   55.1270   26.9634 C   0  0  0  0  0  0
    6.5445   52.8966   27.7609 C   0  0  0  0  0  0
    4.7943   54.1039   26.3941 C   0  0  0  0  0  0
    4.9775   54.5641   25.0781 C   0  0  0  0  0  0
    3.9909   54.4035   24.1187 C   0  0  0  0  0  0
    2.8067   53.7524   24.4499 C   0  0  0  0  0  0
    2.5891   53.3258   25.7612 C   0  0  0  0  0  0
    3.5746   53.4989   26.7248 C   0  0  0  0  0  0
    1.7250   53.5552   23.4321 C   0  0  0  0  0  0
    0.6435   54.0844   23.6818 O   0  0  0  0  0  0
    1.9402   52.7368   22.3532 N   0  0  0  0  0  0
    3.2553   52.1892   21.9800 C   0  0  0  0  0  0
    3.5789   52.7402   20.5778 C   0  0  0  0  0  0
    2.5652   52.2980   19.5930 N   0  0  0  0  0  0
    1.2615   51.7847   20.0825 C   0  0  0  0  0  0
    0.8051   52.4048   21.4426 C   0  0  1  0  0  0
    0.2298   53.2966   21.2234 H   0  0  0  0  0  0
   -0.2092   51.4152   22.0781 C   0  0  0  0  0  0
   -1.3820   51.4529   21.7048 O   0  0  0  0  0  0
    0.2435   50.5242   22.9820 N   0  0  0  0  0  0
   -0.5786   49.5449   23.7026 C   0  0  0  0  0  0
   -0.9374   49.9527   25.1506 C   0  0  1  0  0  0
   -1.5787   49.1730   25.5695 H   0  0  0  0  0  0
    0.2473   50.1788   26.0867 C   0  0  0  0  0  0
   -0.3263   51.0887   27.1509 C   0  0  0  0  0  0
   -1.4346   51.8587   26.4275 C   0  0  0  0  0  0
   -1.5948   51.2171   25.1609 O   0  0  0  0  0  0
    2.6416   52.7802   18.3170 C   0  0  0  0  0  0
    1.6448   53.0540   17.6409 O   0  0  0  0  0  0
    3.9011   52.8970   17.8357 N   0  0  0  0  0  0
    4.3143   53.4271   16.6036 C   0  0  0  0  0  0
    3.6342   54.4621   15.9436 C   0  0  0  0  0  0
    4.1252   54.9517   14.7349 C   0  0  0  0  0  0
    5.2893   54.4133   14.1923 C   0  0  0  0  0  0
    5.9740   53.3928   14.8491 C   0  0  0  0  0  0
    5.4890   52.9030   16.0595 C   0  0  0  0  0  0
    5.7617   54.8884   13.0176 F   0  0  0  0  0  0
    6.1083   54.8965   29.5565 H   0  0  0  0  0  0
    4.6270   54.0580   29.2587 H   0  0  0  0  0  0
    4.7962   55.6965   28.6996 H   0  0  0  0  0  0
    7.5062   54.6928   26.0700 H   0  0  0  0  0  0
    6.7045   56.1069   26.6904 H   0  0  0  0  0  0
    7.8649   55.2321   27.6816 H   0  0  0  0  0  0
    6.9972   52.4968   26.8638 H   0  0  0  0  0  0
    7.3562   52.9814   28.4819 H   0  0  0  0  0  0
    5.8222   52.1782   28.1492 H   0  0  0  0  0  0
    5.8785   55.0591   24.7541 H   0  0  0  0  0  0
    4.1574   54.7755   23.1170 H   0  0  0  0  0  0
    1.6582   52.8535   26.0351 H   0  0  0  0  0  0
    3.3890   53.1264   27.7200 H   0  0  0  0  0  0
    4.0590   52.4963   22.6429 H   0  0  0  0  0  0
    3.2136   51.0992   21.9725 H   0  0  0  0  0  0
    3.5968   53.8317   20.6303 H   0  0  0  0  0  0
    4.5575   52.3385   20.3118 H   0  0  0  0  0  0
    0.4678   52.0399   19.3784 H   0  0  0  0  0  0
    1.2841   50.6936   20.0946 H   0  0  0  0  0  0
    1.2272   50.5426   23.2073 H   0  0  0  0  0  0
   -1.4995   49.3225   23.1595 H   0  0  0  0  0  0
   -0.0346   48.5999   23.7273 H   0  0  0  0  0  0
    0.6669   49.2413   26.4588 H   0  0  0  0  0  0
    1.0615   50.6621   25.5461 H   0  0  0  0  0  0
   -0.7586   50.4969   27.9594 H   0  0  0  0  0  0
    0.4234   51.7427   27.5963 H   0  0  0  0  0  0
   -2.3605   51.8175   27.0031 H   0  0  0  0  0  0
   -1.1383   52.8961   26.2688 H   0  0  0  0  0  0
    4.6174   52.4071   18.3542 H   0  0  0  0  0  0
    2.7370   54.8950   16.3591 H   0  0  0  0  0  0
    3.6082   55.7492   14.2213 H   0  0  0  0  0  0
    6.8758   52.9844   14.4196 H   0  0  0  0  0  0
    6.0194   52.1046   16.5615 H   0  0  0  0  0  0
  1  2  1  0  0  0
  1 40  1  0  0  0
  1 41  1  0  0  0
  1 42  1  0  0  0
  2  3  1  0  0  0
  2  4  1  0  0  0
  2  5  1  0  0  0
  3 43  1  0  0  0
  3 44  1  0  0  0
  3 45  1  0  0  0
  4 46  1  0  0  0
  4 47  1  0  0  0
  4 48  1  0  0  0
  5 10  2  0  0  0
  5  6  1  0  0  0
  6  7  2  0  0  0
  6 49  1  0  0  0
  7  8  1  0  0  0
  7 50  1  0  0  0
  8  9  2  0  0  0
  8 11  1  0  0  0
  9 10  1  0  0  0
  9 51  1  0  0  0
 10 52  1  0  0  0
 11 12  2  0  0  0
 11 13  1  0  0  0
 13 18  1  0  0  0
 13 14  1  0  0  0
 14 15  1  0  0  0
 14 53  1  0  0  0
 14 54  1  0  0  0
 15 16  1  0  0  0
 15 55  1  0  0  0
 15 56  1  0  0  0
 16 17  1  0  0  0
 16 30  1  0  0  0
 17 18  1  0  0  0
 17 57  1  0  0  0
 17 58  1  0  0  0
 18 19  1  0  0  0
 18 20  1  0  0  0
 20 21  2  0  0  0
 20 22  1  0  0  0
 22 23  1  0  0  0
 22 59  1  0  0  0
 23 24  1  0  0  0
 23 60  1  0  0  0
 23 61  1  0  0  0
 24 25  1  0  0  0
 24 29  1  0  0  0
 24 26  1  0  0  0
 26 27  1  0  0  0
 26 62  1  0  0  0
 26 63  1  0  0  0
 27 28  1  0  0  0
 27 64  1  0  0  0
 27 65  1  0  0  0
 28 29  1  0  0  0
 28 66  1  0  0  0
 28 67  1  0  0  0
 30 31  2  0  0  0
 30 32  1  0  0  0
 32 33  1  0  0  0
 32 68  1  0  0  0
 33 38  2  0  0  0
 33 34  1  0  0  0
 34 35  2  0  0  0
 34 69  1  0  0  0
 35 36  1  0  0  0
 35 70  1  0  0  0
 36 37  2  0  0  0
 36 39  1  0  0  0
 37 38  1  0  0  0
 37 71  1  0  0  0
 38 72  1  0  0  0
M  END
> <i_i_glide_confnum>
1064

> <i_i_glide_lignum>
4251

> <i_i_glide_posenum>
345

> <i_i_glide_rotatable_bonds>
10

> <i_m_Source_File_Index>
2564

> <b_m_subgroup_collapsed>
0

> <r_i_docking_score>
-3.82687

> <r_i_glide_ecoul>
-2.86985

> <r_i_glide_eff_state_penalty>
0

> <r_i_glide_einternal>
10.9647

> <r_i_glide_emodel>
-38.0167

> <r_i_glide_energy>
-32.9451

> <r_i_glide_erotb>
0.628663

> <r_i_glide_esite>
-0.121115

> <r_i_glide_evdw>
-30.0752

> <r_i_glide_gscore>
-3.82687

> <r_i_glide_hbond>
-0.0588535

> <r_i_glide_ligand_efficiency>
-0.103429

> <r_i_glide_ligand_efficiency_ln>
-0.829959

> <r_i_glide_ligand_efficiency_sa>
-0.344648

> <r_i_glide_lipo>
-1.85689

> <r_i_glide_metal>
0

> <r_i_glide_rewards>
-0.484441

> <s_i_glide_gridfile>
wee1_glide-grid

> <s_m_Source_File>
wee1_decoys_glide_SP.sdf

> <s_m_Source_Path>
/Users/zhangxujun/Desktop

> <s_m_entry_id>
2839

> <s_m_entry_name>
wee1_decoys_glide_SP.2564

> <s_m_subgroup_title>
wee1_decoys_glide_SP

> <s_m_subgroupid>
wee1_decoys_glide_SP


$$$$
