ZINC03871438_4725
                    3D
 Schrodinger Suite 2024-2.
 33 34  0  0  1  0            999 V2000
    0.2346   52.7693   28.5420 C   0  0  0  0  0  0
   -0.0495   52.6202   29.8999 C   0  0  0  0  0  0
    0.9841   52.4410   30.8153 C   0  0  0  0  0  0
    2.3061   52.3773   30.3632 C   0  0  0  0  0  0
    2.5882   52.5272   29.0040 C   0  0  0  0  0  0
    1.5546   52.7387   28.0780 C   0  0  0  0  0  0
    1.7967   52.9292   26.6288 C   0  0  0  0  0  0
    2.8136   53.6125   26.0421 C   0  0  0  0  0  0
    3.7885   54.2848   26.8374 C   0  0  0  0  0  0
    4.5740   54.7810   27.5271 N   0  0  0  0  0  0
    2.8930   53.6967   24.5570 C   0  0  0  0  0  0
    1.8593   53.5031   23.9087 O   0  0  0  0  0  0
    4.1624   54.0540   23.8042 C   0  0  0  0  0  0
    5.4353   54.0967   24.3985 C   0  0  0  0  0  0
    6.5542   54.5140   23.6842 C   0  0  0  0  0  0
    6.4503   54.8397   22.3359 C   0  0  0  0  0  0
    5.2225   54.6737   21.6817 C   0  0  0  0  0  0
    4.0922   54.2993   22.4175 C   0  0  0  0  0  0
    5.1044   54.8966   20.3318 O   0  0  0  0  0  0
    7.5684   55.2967   21.6817 O   0  0  0  0  0  0
    3.3187   52.1160   31.2525 O   0  0  0  0  0  0
    0.7044   52.2637   32.1483 O   0  0  0  0  0  0
   -0.5831   52.9104   27.8495 H   0  0  0  0  0  0
   -1.0728   52.6267   30.2376 H   0  0  0  0  0  0
    3.6150   52.4549   28.6767 H   0  0  0  0  0  0
    1.0629   52.4370   26.0025 H   0  0  0  0  0  0
    5.6129   53.8017   25.4176 H   0  0  0  0  0  0
    7.5044   54.5783   24.1902 H   0  0  0  0  0  0
    3.1469   54.2246   21.8958 H   0  0  0  0  0  0
    4.2293   54.7104   19.9819 H   0  0  0  0  0  0
    8.3423   55.3155   22.2572 H   0  0  0  0  0  0
    2.9640   52.0967   32.1494 H   0  0  0  0  0  0
   -0.2322   52.0967   32.3869 H   0  0  0  0  0  0
  1  6  2  0  0  0
  1  2  1  0  0  0
  1 23  1  0  0  0
  2  3  2  0  0  0
  2 24  1  0  0  0
  3  4  1  0  0  0
  3 22  1  0  0  0
  4  5  2  0  0  0
  4 21  1  0  0  0
  5  6  1  0  0  0
  5 25  1  0  0  0
  6  7  1  0  0  0
  7  8  2  0  0  0
  7 26  1  0  0  0
  8  9  1  0  0  0
  8 11  1  0  0  0
  9 10  3  0  0  0
 11 12  2  0  0  0
 11 13  1  0  0  0
 13 18  2  0  0  0
 13 14  1  0  0  0
 14 15  2  0  0  0
 14 27  1  0  0  0
 15 16  1  0  0  0
 15 28  1  0  0  0
 16 17  2  0  0  0
 16 20  1  0  0  0
 17 18  1  0  0  0
 17 19  1  0  0  0
 18 29  1  0  0  0
 19 30  1  0  0  0
 20 31  1  0  0  0
 21 32  1  0  0  0
 22 33  1  0  0  0
M  END
> <i_i_glide_confnum>
5

> <i_i_glide_lignum>
4726

> <i_i_glide_posenum>
231

> <i_i_glide_rotatable_bonds>
8

> <i_m_Source_File_Index>
5505

> <b_m_subgroup_collapsed>
0

> <r_i_docking_score>
-6.84599

> <r_i_glide_ecoul>
-12.2136

> <r_i_glide_eff_state_penalty>
0

> <r_i_glide_einternal>
3.99098

> <r_i_glide_emodel>
-62.8011

> <r_i_glide_energy>
-44.6693

> <r_i_glide_erotb>
0.829868

> <r_i_glide_esite>
0

> <r_i_glide_evdw>
-32.4557

> <r_i_glide_gscore>
-6.84599

> <r_i_glide_hbond>
0

> <r_i_glide_ligand_efficiency>
-0.311181

> <r_i_glide_ligand_efficiency_ln>
-1.67341

> <r_i_glide_ligand_efficiency_sa>
-0.871942

> <r_i_glide_lipo>
-2.21782

> <r_i_glide_metal>
0

> <r_i_glide_rewards>
-2.00321

> <s_i_glide_gridfile>
wee1_glide-grid

> <s_m_Source_File>
wee1_decoys_glide_SP.sdf

> <s_m_Source_Path>
/Users/zhangxujun/Desktop

> <s_m_entry_id>
5780

> <s_m_entry_name>
wee1_decoys_glide_SP.5505

> <s_m_subgroup_title>
wee1_decoys_glide_SP

> <s_m_subgroupid>
wee1_decoys_glide_SP


$$$$
