ZINC41651160_6195
                    3D
 Schrodinger Suite 2024-2.
 61 62  0  0  1  0            999 V2000
   -0.4279   51.7347   29.8520 C   0  0  0  0  0  0
    0.6312   52.6496   30.5152 C   0  0  0  0  0  0
    1.6873   53.2699   29.5831 C   0  0  0  0  0  0
    2.5516   53.9895   30.0814 O   0  0  0  0  0  0
    1.5880   52.9876   28.2671 N   0  0  0  0  0  0
    2.3785   53.4004   27.1739 C   0  0  0  0  0  0
    3.6321   54.0238   27.3061 C   0  0  0  0  0  0
    4.3796   54.3672   26.1793 C   0  0  0  0  0  0
    3.8856   54.0952   24.8964 C   0  0  0  0  0  0
    2.6279   53.5071   24.7608 C   0  0  0  0  0  0
    1.8817   53.1364   25.8829 C   0  0  0  0  0  0
    0.5490   52.4239   25.6617 C   0  0  0  0  0  0
    4.5740   54.3794   23.7040 N   0  0  0  0  0  0
    5.9113   54.4966   23.5046 C   0  0  0  0  0  0
    6.7612   54.3529   24.3862 O   0  0  0  0  0  0
    6.3020   54.8914   22.1095 C   0  0  0  0  0  0
    7.3101   55.5630   21.8858 O   0  0  0  0  0  0
    5.4774   54.4705   21.1191 N   0  0  0  0  0  0
    5.6018   54.8350   19.7042 C   0  0  0  0  0  0
    5.1319   53.7009   18.7525 C   0  0  1  0  0  0
    5.3441   52.7157   19.1776 H   0  0  0  0  0  0
    3.6073   53.7710   18.5183 C   0  0  0  0  0  0
    5.9603   53.7496   17.4275 N   0  3  2  0  0  0
    5.2427   53.1149   16.2034 C   0  0  0  0  0  0
    6.1490   53.1778   14.9579 C   0  0  0  0  0  0
    7.5107   52.5160   15.2123 C   0  0  0  0  0  0
    8.2240   53.1779   16.4042 C   0  0  1  0  0  0
    8.3536   54.2375   16.1727 H   0  0  0  0  0  0
    7.3407   53.0770   17.6657 C   0  0  0  0  0  0
    9.6123   52.5597   16.6527 C   0  0  0  0  0  0
   -1.0707   51.2932   30.6159 H   0  0  0  0  0  0
   -1.0875   52.2938   29.1887 H   0  0  0  0  0  0
    0.0145   50.9033   29.2971 H   0  0  0  0  0  0
    1.1540   52.0943   31.2934 H   0  0  0  0  0  0
    0.1172   53.4623   31.0297 H   0  0  0  0  0  0
    0.8002   52.4111   28.0121 H   0  0  0  0  0  0
    4.0626   54.2327   28.2727 H   0  0  0  0  0  0
    5.3387   54.8411   26.3236 H   0  0  0  0  0  0
    2.2385   53.2927   23.7755 H   0  0  0  0  0  0
    0.6203   51.3869   25.9950 H   0  0  0  0  0  0
   -0.2465   52.8969   26.2383 H   0  0  0  0  0  0
    0.2395   52.4311   24.6151 H   0  0  0  0  0  0
    3.9753   54.5142   22.9050 H   0  0  0  0  0  0
    4.6848   53.8920   21.3503 H   0  0  0  0  0  0
    6.6169   55.1577   19.4713 H   0  0  0  0  0  0
    4.9967   55.7276   19.5419 H   0  0  0  0  0  0
    3.0892   53.7291   19.4747 H   0  0  0  0  0  0
    3.3036   54.6918   18.0171 H   0  0  0  0  0  0
    3.2358   52.9235   17.9411 H   0  0  0  0  0  0
    4.3424   53.7003   16.0124 H   0  0  0  0  0  0
    4.9713   52.0967   16.4798 H   0  0  0  0  0  0
    6.2891   54.2159   14.6539 H   0  0  0  0  0  0
    5.6514   52.6827   14.1216 H   0  0  0  0  0  0
    8.1390   52.5715   14.3215 H   0  0  0  0  0  0
    7.3871   51.4461   15.3968 H   0  0  0  0  0  0
    7.1444   52.0427   17.9604 H   0  0  0  0  0  0
    7.8278   53.6090   18.4821 H   0  0  0  0  0  0
    9.5459   51.5002   16.9027 H   0  0  0  0  0  0
   10.1283   53.0574   17.4773 H   0  0  0  0  0  0
   10.2509   52.6515   15.7742 H   0  0  0  0  0  0
    6.1287   54.7183   17.1936 H   0  0  0  0  0  0
  1  2  1  0  0  0
  1 31  1  0  0  0
  1 32  1  0  0  0
  1 33  1  0  0  0
  2  3  1  0  0  0
  2 34  1  0  0  0
  2 35  1  0  0  0
  3  4  2  0  0  0
  3  5  1  0  0  0
  5  6  1  0  0  0
  5 36  1  0  0  0
  6 11  2  0  0  0
  6  7  1  0  0  0
  7  8  2  0  0  0
  7 37  1  0  0  0
  8  9  1  0  0  0
  8 38  1  0  0  0
  9 10  2  0  0  0
  9 13  1  0  0  0
 10 11  1  0  0  0
 10 39  1  0  0  0
 11 12  1  0  0  0
 12 40  1  0  0  0
 12 41  1  0  0  0
 12 42  1  0  0  0
 13 14  1  0  0  0
 13 43  1  0  0  0
 14 15  2  0  0  0
 14 16  1  0  0  0
 16 17  2  0  0  0
 16 18  1  0  0  0
 18 19  1  0  0  0
 18 44  1  0  0  0
 19 20  1  0  0  0
 19 45  1  0  0  0
 19 46  1  0  0  0
 20 21  1  0  0  0
 20 22  1  0  0  0
 20 23  1  0  0  0
 22 47  1  0  0  0
 22 48  1  0  0  0
 22 49  1  0  0  0
 23 29  1  0  0  0
 23 24  1  0  0  0
 23 61  1  0  0  0
 24 25  1  0  0  0
 24 50  1  0  0  0
 24 51  1  0  0  0
 25 26  1  0  0  0
 25 52  1  0  0  0
 25 53  1  0  0  0
 26 27  1  0  0  0
 26 54  1  0  0  0
 26 55  1  0  0  0
 27 28  1  0  0  0
 27 29  1  0  0  0
 27 30  1  0  0  0
 29 56  1  0  0  0
 29 57  1  0  0  0
 30 58  1  0  0  0
 30 59  1  0  0  0
 30 60  1  0  0  0
M  CHG  1  23   1
M  END
> <i_i_glide_confnum>
34

> <i_i_glide_lignum>
6196

> <i_i_glide_posenum>
257

> <i_i_glide_rotatable_bonds>
10

> <i_m_Source_File_Index>
2061

> <b_m_subgroup_collapsed>
0

> <r_i_docking_score>
-5.20635

> <r_i_glide_ecoul>
-6.28916

> <r_i_glide_eff_state_penalty>
0

> <r_i_glide_einternal>
9.9224

> <r_i_glide_emodel>
-57.1378

> <r_i_glide_energy>
-44.402

> <r_i_glide_erotb>
1.15644

> <r_i_glide_esite>
-0.0300808

> <r_i_glide_evdw>
-38.1128

> <r_i_glide_gscore>
-5.20635

> <r_i_glide_hbond>
-0.32

> <r_i_glide_ligand_efficiency>
-0.185941

> <r_i_glide_ligand_efficiency_ln>
-1.20178

> <r_i_glide_ligand_efficiency_sa>
-0.564627

> <r_i_glide_lipo>
-1.4535

> <r_i_glide_metal>
0

> <r_i_glide_rewards>
-1.7102

> <s_i_glide_gridfile>
wee1_glide-grid

> <s_m_Source_File>
wee1_decoys_glide_SP.sdf

> <s_m_Source_Path>
/Users/zhangxujun/Desktop

> <s_m_entry_id>
2336

> <s_m_entry_name>
wee1_decoys_glide_SP.2061

> <s_m_subgroup_title>
wee1_decoys_glide_SP

> <s_m_subgroupid>
wee1_decoys_glide_SP


$$$$
