ZINC39029782_6048
                    3D
 Schrodinger Suite 2024-2.
 48 51  0  0  1  0            999 V2000
    2.2142   49.7927   20.3040 C   0  0  0  0  0  0
    1.9262   50.7391   19.3199 C   0  0  0  0  0  0
    0.7723   51.5193   19.4224 C   0  0  0  0  0  0
   -0.0932   51.3494   20.5035 C   0  0  0  0  0  0
    0.1957   50.4050   21.4965 C   0  0  0  0  0  0
    1.3550   49.6270   21.3920 C   0  0  0  0  0  0
   -0.7356   50.2222   22.6843 C   0  0  0  0  0  0
   -0.2166   51.2550   24.0838 S   0  0  0  0  0  0
   -1.6744   52.0115   24.7583 C   0  0  0  0  0  0
   -2.4942   52.7270   23.8788 C   0  0  0  0  0  0
   -3.6827   53.2995   24.3277 C   0  0  0  0  0  0
   -4.0786   53.1367   25.6449 C   0  0  0  0  0  0
   -3.2619   52.4361   26.5208 C   0  0  0  0  0  0
   -2.0229   51.9032   26.1247 C   0  0  0  0  0  0
   -1.1421   51.1638   27.1639 C   0  0  2  0  0  0
   -1.1186   50.1065   26.8822 H   0  0  0  0  0  0
   -1.6206   51.2959   28.5664 N   0  3  0  0  0  0
   -0.8931   51.8597   29.4328 N   0  0  0  0  0  0
    0.3485   52.2456   28.9780 C   0  0  0  0  0  0
    1.2348   52.8625   29.6792 N   0  0  0  0  0  0
    2.5093   53.2616   29.2836 C   0  0  0  0  0  0
    3.4465   53.1384   30.0752 O   0  0  0  0  0  0
    2.5926   53.8197   28.0510 N   0  0  0  0  0  0
    3.7191   54.2110   27.3110 C   0  0  0  0  0  0
    4.9798   54.4631   27.8817 C   0  0  0  0  0  0
    6.0413   54.8945   27.0824 C   0  0  0  0  0  0
    5.8531   55.0631   25.7120 C   0  0  0  0  0  0
    4.6242   54.7747   25.1345 C   0  0  0  0  0  0
    3.5548   54.3648   25.9226 C   0  0  0  0  0  0
    2.0391   54.0943   25.1285 Cl  0  0  0  0  0  0
    7.1046   55.6958   24.7247 Cl  0  0  0  0  0  0
    0.5653   51.7170   27.2680 S   0  0  0  0  0  0
   -1.2206   52.0962   20.5773 F   0  0  0  0  0  0
    3.1044   49.1899   20.2173 H   0  0  0  0  0  0
    2.6005   50.8610   18.4826 H   0  0  0  0  0  0
    0.5499   52.2534   18.6625 H   0  0  0  0  0  0
    1.5970   48.8984   22.1520 H   0  0  0  0  0  0
   -0.7448   49.1790   23.0027 H   0  0  0  0  0  0
   -1.7650   50.4418   22.4003 H   0  0  0  0  0  0
   -2.2060   52.8421   22.8440 H   0  0  0  0  0  0
   -4.3146   53.8709   23.6712 H   0  0  0  0  0  0
   -5.0134   53.5515   25.9886 H   0  0  0  0  0  0
   -3.6273   52.3268   27.5287 H   0  0  0  0  0  0
    1.7311   53.8393   27.5207 H   0  0  0  0  0  0
    5.1548   54.3704   28.9413 H   0  0  0  0  0  0
    6.9916   55.1203   27.5421 H   0  0  0  0  0  0
    4.4870   54.8981   24.0691 H   0  0  0  0  0  0
   -2.5022   50.8685   28.8344 H   0  0  0  0  0  0
  1  6  2  0  0  0
  1  2  1  0  0  0
  1 34  1  0  0  0
  2  3  2  0  0  0
  2 35  1  0  0  0
  3  4  1  0  0  0
  3 36  1  0  0  0
  4  5  2  0  0  0
  4 33  1  0  0  0
  5  6  1  0  0  0
  5  7  1  0  0  0
  6 37  1  0  0  0
  7  8  1  0  0  0
  7 38  1  0  0  0
  7 39  1  0  0  0
  8  9  1  0  0  0
  9 14  2  0  0  0
  9 10  1  0  0  0
 10 11  2  0  0  0
 10 40  1  0  0  0
 11 12  1  0  0  0
 11 41  1  0  0  0
 12 13  2  0  0  0
 12 42  1  0  0  0
 13 14  1  0  0  0
 13 43  1  0  0  0
 14 15  1  0  0  0
 15 16  1  0  0  0
 15 32  1  0  0  0
 15 17  1  0  0  0
 17 18  2  0  0  0
 17 48  1  0  0  0
 18 19  1  0  0  0
 19 20  2  0  0  0
 19 32  1  0  0  0
 20 21  1  0  0  0
 21 22  2  0  0  0
 21 23  1  0  0  0
 23 24  1  0  0  0
 23 44  1  0  0  0
 24 29  2  0  0  0
 24 25  1  0  0  0
 25 26  2  0  0  0
 25 45  1  0  0  0
 26 27  1  0  0  0
 26 46  1  0  0  0
 27 28  2  0  0  0
 27 31  1  0  0  0
 28 29  1  0  0  0
 28 47  1  0  0  0
 29 30  1  0  0  0
M  CHG  1  17   1
M  END
> <i_i_glide_confnum>
109

> <i_i_glide_lignum>
6049

> <i_i_glide_posenum>
159

> <i_i_glide_rotatable_bonds>
7

> <i_m_Source_File_Index>
6047

> <b_m_subgroup_collapsed>
0

> <r_i_docking_score>
-5.4013

> <r_i_glide_ecoul>
-3.94834

> <r_i_glide_eff_state_penalty>
0

> <r_i_glide_einternal>
10.6447

> <r_i_glide_emodel>
-64.4939

> <r_i_glide_energy>
-50.1893

> <r_i_glide_erotb>
0.478659

> <r_i_glide_esite>
-0.120405

> <r_i_glide_evdw>
-46.241

> <r_i_glide_gscore>
-5.4013

> <r_i_glide_hbond>
-0.17119

> <r_i_glide_ligand_efficiency>
-0.168791

> <r_i_glide_ligand_efficiency_ln>
-1.2095

> <r_i_glide_ligand_efficiency_sa>
-0.535877

> <r_i_glide_lipo>
-2.34865

> <r_i_glide_metal>
0

> <r_i_glide_rewards>
-0.335423

> <s_i_glide_gridfile>
wee1_glide-grid

> <s_m_Source_File>
wee1_decoys_glide_SP.sdf

> <s_m_Source_Path>
/Users/zhangxujun/Desktop

> <s_m_entry_id>
6322

> <s_m_entry_name>
wee1_decoys_glide_SP.6047

> <s_m_subgroup_title>
wee1_decoys_glide_SP

> <s_m_subgroupid>
wee1_decoys_glide_SP


$$$$
