ZINC36386968_85
                    3D
 Schrodinger Suite 2024-2.
 53 56  0  0  1  0            999 V2000
    2.2068   53.4504   30.0451 C   0  0  0  0  0  0
    2.9274   53.7047   28.7341 C   0  0  0  0  0  0
    2.2645   53.4987   27.5252 C   0  0  0  0  0  0
    2.9361   53.6968   26.3227 C   0  0  0  0  0  0
    4.2799   54.0958   26.3096 C   0  0  0  0  0  0
    4.9320   54.3103   27.5318 C   0  0  0  0  0  0
    4.2606   54.1149   28.7368 C   0  0  0  0  0  0
    4.9956   54.2521   24.9954 C   0  0  0  0  0  0
    4.4204   54.0967   23.8236 N   0  0  0  0  0  0
    5.2584   54.2188   22.8058 C   0  0  0  0  0  0
    6.5743   54.4975   23.1678 C   0  0  0  0  0  0
    6.7012   54.5886   24.8967 S   0  0  0  0  0  0
    4.6836   54.0859   21.3999 C   0  0  0  0  0  0
    4.0480   52.7179   21.1045 C   0  0  0  0  0  0
    4.7114   51.6965   21.2817 O   0  0  0  0  0  0
    2.7630   52.7275   20.6902 N   0  0  0  0  0  0
    1.9635   51.6121   20.3880 C   0  0  0  0  0  0
    2.4668   50.4459   19.7924 C   0  0  0  0  0  0
    1.6257   49.3666   19.5305 C   0  0  0  0  0  0
    0.2725   49.4423   19.8541 C   0  0  0  0  0  0
   -0.2465   50.6075   20.4298 C   0  0  0  0  0  0
    0.5986   51.6972   20.6749 C   0  0  0  0  0  0
   -1.9982   50.7190   20.8397 S   0  0  0  0  0  0
   -2.6243   49.7028   19.9877 O   0  0  0  0  0  0
   -2.3161   52.0967   20.4484 O   0  0  0  0  0  0
   -2.1115   50.4009   22.5905 N   0  0  0  0  0  0
   -1.1732   50.0277   23.3648 C   0  0  0  0  0  0
   -1.3278   49.7915   24.8636 C   0  0  0  0  0  0
    0.0375   49.2681   25.3125 C   0  0  0  0  0  0
    0.9953   49.8581   24.2962 C   0  0  0  0  0  0
    0.1590   49.7551   23.1194 N   0  0  0  0  0  0
    1.8617   54.3888   30.4802 H   0  0  0  0  0  0
    1.3503   52.7883   29.9097 H   0  0  0  0  0  0
    2.8718   52.9565   30.7553 H   0  0  0  0  0  0
    1.2332   53.1763   27.5126 H   0  0  0  0  0  0
    2.4055   53.5175   25.3993 H   0  0  0  0  0  0
    5.9657   54.6201   27.5652 H   0  0  0  0  0  0
    4.7818   54.2785   29.6684 H   0  0  0  0  0  0
    7.4389   54.6524   22.5387 H   0  0  0  0  0  0
    5.4593   54.2425   20.6503 H   0  0  0  0  0  0
    3.9543   54.8783   21.2256 H   0  0  0  0  0  0
    2.2987   53.6257   20.6353 H   0  0  0  0  0  0
    3.5043   50.3708   19.5075 H   0  0  0  0  0  0
    2.0285   48.4782   19.0653 H   0  0  0  0  0  0
   -0.3700   48.5985   19.6465 H   0  0  0  0  0  0
    0.1948   52.5980   21.1150 H   0  0  0  0  0  0
   -2.1180   49.0722   25.0802 H   0  0  0  0  0  0
   -1.5681   50.7286   25.3660 H   0  0  0  0  0  0
    0.0653   48.1761   25.2734 H   0  0  0  0  0  0
    0.3004   49.5402   26.3361 H   0  0  0  0  0  0
    1.2044   50.9142   24.4811 H   0  0  0  0  0  0
    1.9186   49.2968   24.1698 H   0  0  0  0  0  0
    0.6787   49.9111   22.2666 H   0  0  0  0  0  0
  1  2  1  0  0  0
  1 32  1  0  0  0
  1 33  1  0  0  0
  1 34  1  0  0  0
  2  7  2  0  0  0
  2  3  1  0  0  0
  3  4  2  0  0  0
  3 35  1  0  0  0
  4  5  1  0  0  0
  4 36  1  0  0  0
  5  6  2  0  0  0
  5  8  1  0  0  0
  6  7  1  0  0  0
  6 37  1  0  0  0
  7 38  1  0  0  0
  8 12  1  0  0  0
  8  9  2  0  0  0
  9 10  1  0  0  0
 10 11  2  0  0  0
 10 13  1  0  0  0
 11 12  1  0  0  0
 11 39  1  0  0  0
 13 14  1  0  0  0
 13 40  1  0  0  0
 13 41  1  0  0  0
 14 15  2  0  0  0
 14 16  1  0  0  0
 16 17  1  0  0  0
 16 42  1  0  0  0
 17 22  2  0  0  0
 17 18  1  0  0  0
 18 19  2  0  0  0
 18 43  1  0  0  0
 19 20  1  0  0  0
 19 44  1  0  0  0
 20 21  2  0  0  0
 20 45  1  0  0  0
 21 22  1  0  0  0
 21 23  1  0  0  0
 22 46  1  0  0  0
 23 24  2  0  0  0
 23 25  2  0  0  0
 23 26  1  0  0  0
 26 27  2  0  0  0
 27 31  1  0  0  0
 27 28  1  0  0  0
 28 29  1  0  0  0
 28 47  1  0  0  0
 28 48  1  0  0  0
 29 30  1  0  0  0
 29 49  1  0  0  0
 29 50  1  0  0  0
 30 31  1  0  0  0
 30 51  1  0  0  0
 30 52  1  0  0  0
 31 53  1  0  0  0
M  END
> <i_i_glide_confnum>
195

> <i_i_glide_lignum>
86

> <i_i_glide_posenum>
283

> <i_i_glide_rotatable_bonds>
7

> <i_m_Source_File_Index>
5856

> <b_m_subgroup_collapsed>
0

> <r_i_docking_score>
-6.27351

> <r_i_glide_ecoul>
-9.63618

> <r_i_glide_eff_state_penalty>
0

> <r_i_glide_einternal>
4.66529

> <r_i_glide_emodel>
-72.0333

> <r_i_glide_energy>
-53.4256

> <r_i_glide_erotb>
0.680318

> <r_i_glide_esite>
-0.0668419

> <r_i_glide_evdw>
-43.7894

> <r_i_glide_gscore>
-6.27351

> <r_i_glide_hbond>
-0.32

> <r_i_glide_ligand_efficiency>
-0.202371

> <r_i_glide_ligand_efficiency_ln>
-1.41487

> <r_i_glide_ligand_efficiency_sa>
-0.635725

> <r_i_glide_lipo>
-2.54442

> <r_i_glide_metal>
0

> <r_i_glide_rewards>
-0.387669

> <s_i_glide_gridfile>
wee1_glide-grid

> <s_m_Source_File>
wee1_decoys_glide_SP.sdf

> <s_m_Source_Path>
/Users/zhangxujun/Desktop

> <s_m_entry_id>
6131

> <s_m_entry_name>
wee1_decoys_glide_SP.5856

> <s_m_subgroup_title>
wee1_decoys_glide_SP

> <s_m_subgroupid>
wee1_decoys_glide_SP


$$$$
