ZINC44854699_5256
                    3D
 Schrodinger Suite 2024-2.
 66 69  0  0  1  0            999 V2000
    6.8791   54.8295   24.9362 C   0  0  0  0  0  0
    5.3801   54.5540   24.7196 C   0  0  2  0  0  0
    4.9660   55.5347   24.4827 H   0  0  0  0  0  0
    4.6188   54.0974   25.9851 C   0  0  0  0  0  0
    3.2221   54.0967   25.9769 C   0  0  0  0  0  0
    2.4986   53.8228   27.1323 C   0  0  0  0  0  0
    3.1494   53.5365   28.3384 C   0  0  0  0  0  0
    4.5485   53.4859   28.3384 C   0  0  0  0  0  0
    5.2760   53.7657   27.1804 C   0  0  0  0  0  0
    2.4412   53.3472   29.5260 N   0  0  0  0  0  0
    2.5508   52.0345   30.1909 C   0  0  0  0  0  0
    2.1222   52.0543   31.6780 C   0  0  0  0  0  0
    0.7365   52.6817   31.8909 C   0  0  0  0  0  0
    0.5859   53.9868   31.1032 C   0  0  0  0  0  0
    1.0541   53.8387   29.6458 C   0  0  0  0  0  0
    5.2188   53.6977   23.5339 N   0  0  0  0  0  0
    4.2028   53.7293   22.6508 C   0  0  0  0  0  0
    3.2501   54.4967   22.7648 O   0  0  0  0  0  0
    4.2803   52.8008   21.4182 C   0  0  1  0  0  0
    5.0315   52.0389   21.6360 H   0  0  0  0  0  0
    2.8962   52.1335   21.1705 C   0  0  0  0  0  0
    2.8295   51.4577   19.7867 C   0  0  0  0  0  0
    3.1821   52.4344   18.6543 C   0  0  0  0  0  0
    4.6342   52.8968   18.8876 N   0  3  2  0  0  0
    4.7888   53.6620   20.2280 C   0  0  0  0  0  0
    5.1547   53.7429   17.7015 C   0  0  0  0  0  0
    6.6698   53.8833   17.6902 C   0  0  0  0  0  0
    7.2846   55.0261   18.2115 C   0  0  0  0  0  0
    8.6746   55.1299   18.2051 C   0  0  0  0  0  0
    9.4422   54.0979   17.6675 C   0  0  0  0  0  0
    8.8333   52.9675   17.1298 C   0  0  0  0  0  0
    7.4460   52.8610   17.1395 C   0  0  0  0  0  0
   11.3401   54.2248   17.6785 Br  0  0  0  0  0  0
    7.0401   55.5305   25.7563 H   0  0  0  0  0  0
    7.4261   53.9122   25.1530 H   0  0  0  0  0  0
    7.3264   55.2683   24.0439 H   0  0  0  0  0  0
    2.6725   54.3528   25.0867 H   0  0  0  0  0  0
    1.4216   53.8567   27.0790 H   0  0  0  0  0  0
    5.0824   53.2678   29.2514 H   0  0  0  0  0  0
    6.3537   53.7450   27.2421 H   0  0  0  0  0  0
    3.5899   51.7078   30.1527 H   0  0  0  0  0  0
    1.9709   51.3003   29.6289 H   0  0  0  0  0  0
    2.9069   52.4965   32.2841 H   0  0  0  0  0  0
    2.0805   51.0450   32.0828 H   0  0  0  0  0  0
   -0.0295   51.9776   31.5623 H   0  0  0  0  0  0
    0.5491   52.8562   32.9515 H   0  0  0  0  0  0
   -0.4652   54.2796   31.1072 H   0  0  0  0  0  0
    1.1028   54.8203   31.5736 H   0  0  0  0  0  0
    0.9974   54.8275   29.1875 H   0  0  0  0  0  0
    0.3800   53.1873   29.0887 H   0  0  0  0  0  0
    5.9350   52.9999   23.4091 H   0  0  0  0  0  0
    2.6793   51.3758   21.9260 H   0  0  0  0  0  0
    2.1023   52.8832   21.1341 H   0  0  0  0  0  0
    3.5061   50.6015   19.7491 H   0  0  0  0  0  0
    1.8297   51.0563   19.6176 H   0  0  0  0  0  0
    3.1689   51.9056   17.6974 H   0  0  0  0  0  0
    2.5398   53.3162   18.6123 H   0  0  0  0  0  0
    4.2280   54.5920   20.0972 H   0  0  0  0  0  0
    5.8581   53.8575   20.3271 H   0  0  0  0  0  0
    4.8214   53.2254   16.7985 H   0  0  0  0  0  0
    4.6418   54.7058   17.7547 H   0  0  0  0  0  0
    6.6934   55.8269   18.6301 H   0  0  0  0  0  0
    9.1619   56.0027   18.6160 H   0  0  0  0  0  0
    9.4344   52.1678   16.7208 H   0  0  0  0  0  0
    6.9784   51.9733   16.7359 H   0  0  0  0  0  0
    5.1722   52.0284   18.8860 H   0  0  0  0  0  0
  1  2  1  0  0  0
  1 34  1  0  0  0
  1 35  1  0  0  0
  1 36  1  0  0  0
  2  3  1  0  0  0
  2  4  1  0  0  0
  2 16  1  0  0  0
  4  9  2  0  0  0
  4  5  1  0  0  0
  5  6  2  0  0  0
  5 37  1  0  0  0
  6  7  1  0  0  0
  6 38  1  0  0  0
  7  8  2  0  0  0
  7 10  1  0  0  0
  8  9  1  0  0  0
  8 39  1  0  0  0
  9 40  1  0  0  0
 10 15  1  0  0  0
 10 11  1  0  0  0
 11 12  1  0  0  0
 11 41  1  0  0  0
 11 42  1  0  0  0
 12 13  1  0  0  0
 12 43  1  0  0  0
 12 44  1  0  0  0
 13 14  1  0  0  0
 13 45  1  0  0  0
 13 46  1  0  0  0
 14 15  1  0  0  0
 14 47  1  0  0  0
 14 48  1  0  0  0
 15 49  1  0  0  0
 15 50  1  0  0  0
 16 17  1  0  0  0
 16 51  1  0  0  0
 17 18  2  0  0  0
 17 19  1  0  0  0
 19 20  1  0  0  0
 19 25  1  0  0  0
 19 21  1  0  0  0
 21 22  1  0  0  0
 21 52  1  0  0  0
 21 53  1  0  0  0
 22 23  1  0  0  0
 22 54  1  0  0  0
 22 55  1  0  0  0
 23 24  1  0  0  0
 23 56  1  0  0  0
 23 57  1  0  0  0
 24 25  1  0  0  0
 24 26  1  0  0  0
 24 66  1  0  0  0
 25 58  1  0  0  0
 25 59  1  0  0  0
 26 27  1  0  0  0
 26 60  1  0  0  0
 26 61  1  0  0  0
 27 32  2  0  0  0
 27 28  1  0  0  0
 28 29  2  0  0  0
 28 62  1  0  0  0
 29 30  1  0  0  0
 29 63  1  0  0  0
 30 31  2  0  0  0
 30 33  1  0  0  0
 31 32  1  0  0  0
 31 64  1  0  0  0
 32 65  1  0  0  0
M  CHG  1  24   1
M  END
> <i_i_glide_confnum>
60

> <i_i_glide_lignum>
5257

> <i_i_glide_posenum>
284

> <i_i_glide_rotatable_bonds>
7

> <i_m_Source_File_Index>
537

> <b_m_subgroup_collapsed>
0

> <r_i_docking_score>
-5.31009

> <r_i_glide_ecoul>
-2.04594

> <r_i_glide_eff_state_penalty>
0

> <r_i_glide_einternal>
3.39087

> <r_i_glide_emodel>
-58.912

> <r_i_glide_energy>
-44.1114

> <r_i_glide_erotb>
0.603367

> <r_i_glide_esite>
-0.0894859

> <r_i_glide_evdw>
-42.0655

> <r_i_glide_gscore>
-5.31009

> <r_i_glide_hbond>
-0.189095

> <r_i_glide_ligand_efficiency>
-0.171293

> <r_i_glide_ligand_efficiency_ln>
-1.19759

> <r_i_glide_ligand_efficiency_sa>
-0.538097

> <r_i_glide_lipo>
-2.69841

> <r_i_glide_metal>
0

> <r_i_glide_rewards>
-0.526299

> <s_i_glide_gridfile>
wee1_glide-grid

> <s_m_Source_File>
wee1_decoys_glide_SP.sdf

> <s_m_Source_Path>
/Users/zhangxujun/Desktop

> <s_m_entry_id>
812

> <s_m_entry_name>
wee1_decoys_glide_SP.537

> <s_m_subgroup_title>
wee1_decoys_glide_SP

> <s_m_subgroupid>
wee1_decoys_glide_SP


$$$$
