ZINC16806193_3969
                    3D
 Schrodinger Suite 2024-2.
 63 66  0  0  1  0            999 V2000
    4.9849   56.6908   18.2170 C   0  0  0  0  0  0
    5.7671   55.3734   18.1278 C   0  0  0  0  0  0
    5.2284   54.2157   19.0317 C   0  0  1  0  0  0
    5.8590   53.3355   18.8950 H   0  0  0  0  0  0
    5.3660   54.5180   20.5501 C   0  0  0  0  0  0
    6.3402   55.1794   20.9180 O   0  0  0  0  0  0
    4.4226   54.0380   21.4014 N   0  0  0  0  0  0
    4.4267   54.0811   22.8097 C   0  0  0  0  0  0
    3.3820   53.6842   23.6824 C   0  0  0  0  0  0
    3.7253   53.8956   25.0555 C   0  0  0  0  0  0
    5.0532   54.3151   25.2191 C   0  0  0  0  0  0
    5.8695   54.4967   23.7165 S   0  0  0  0  0  0
    5.7373   54.6139   26.5486 C   0  0  0  0  0  0
    4.8902   54.0082   27.6915 C   0  0  2  0  0  0
    5.0170   52.9227   27.6808 H   0  0  0  0  0  0
    3.4055   54.3705   27.5193 C   0  0  0  0  0  0
    2.8087   53.6958   26.2793 C   0  0  0  0  0  0
    5.4012   54.4964   29.0500 C   0  0  0  0  0  0
    2.1027   53.1404   23.2255 C   0  0  0  0  0  0
    1.6969   53.2966   22.0809 O   0  0  0  0  0  0
    1.4390   52.3941   24.1246 N   0  0  0  0  0  0
    0.1727   51.6983   23.9366 C   0  0  2  0  0  0
   -0.6129   52.3681   23.5736 H   0  0  0  0  0  0
   -0.2778   51.1370   25.3071 C   0  0  0  0  0  0
   -1.4338   50.1457   25.1119 C   0  0  0  0  0  0
   -1.0637   49.3043   23.4803 S   0  0  0  0  0  0
   -0.4972   47.9720   23.7023 O   0  0  0  0  0  0
   -2.2123   49.4840   22.5886 O   0  0  0  0  0  0
    0.3052   50.4884   22.9925 C   0  0  0  0  0  0
    3.8758   53.8355   18.7170 O   0  0  0  0  0  0
    3.5595   53.2623   17.4892 C   0  0  0  0  0  0
    4.5109   52.8967   16.5181 C   0  0  0  0  0  0
    4.1214   52.3558   15.2930 C   0  0  0  0  0  0
    2.7736   52.1459   15.0215 C   0  0  0  0  0  0
    1.8180   52.4703   15.9813 C   0  0  0  0  0  0
    2.2065   53.0167   17.2045 C   0  0  0  0  0  0
    1.2483   53.2966   18.1153 F   0  0  0  0  0  0
    5.3414   57.4096   17.4796 H   0  0  0  0  0  0
    3.9190   56.5384   18.0431 H   0  0  0  0  0  0
    5.1037   57.1522   19.1977 H   0  0  0  0  0  0
    6.8136   55.5686   18.3722 H   0  0  0  0  0  0
    5.7917   55.0819   17.0816 H   0  0  0  0  0  0
    3.5811   53.6663   20.9757 H   0  0  0  0  0  0
    6.7463   54.1990   26.5697 H   0  0  0  0  0  0
    5.8258   55.6932   26.6720 H   0  0  0  0  0  0
    2.8436   54.0365   28.3934 H   0  0  0  0  0  0
    3.2560   55.4470   27.5087 H   0  0  0  0  0  0
    1.8084   54.0967   26.1115 H   0  0  0  0  0  0
    2.6980   52.6317   26.4919 H   0  0  0  0  0  0
    5.4994   55.5772   29.1009 H   0  0  0  0  0  0
    4.7257   54.1939   29.8531 H   0  0  0  0  0  0
    6.3891   54.0935   29.2792 H   0  0  0  0  0  0
    1.8170   52.3671   25.0572 H   0  0  0  0  0  0
    0.5560   50.6270   25.7969 H   0  0  0  0  0  0
   -0.5538   51.9424   25.9909 H   0  0  0  0  0  0
   -1.5876   49.4048   25.8993 H   0  0  0  0  0  0
   -2.3604   50.7038   24.9862 H   0  0  0  0  0  0
    0.4026   50.6484   21.9199 H   0  0  0  0  0  0
    1.2043   49.9562   23.3051 H   0  0  0  0  0  0
    5.5689   52.9889   16.7008 H   0  0  0  0  0  0
    4.8703   52.0732   14.5679 H   0  0  0  0  0  0
    2.4723   51.7092   14.0807 H   0  0  0  0  0  0
    0.7715   52.2901   15.7808 H   0  0  0  0  0  0
  1  2  1  0  0  0
  1 38  1  0  0  0
  1 39  1  0  0  0
  1 40  1  0  0  0
  2  3  1  0  0  0
  2 41  1  0  0  0
  2 42  1  0  0  0
  3  4  1  0  0  0
  3  5  1  0  0  0
  3 30  1  0  0  0
  5  6  2  0  0  0
  5  7  1  0  0  0
  7  8  1  0  0  0
  7 43  1  0  0  0
  8 12  1  0  0  0
  8  9  2  0  0  0
  9 10  1  0  0  0
  9 19  1  0  0  0
 10 17  1  0  0  0
 10 11  2  0  0  0
 11 12  1  0  0  0
 11 13  1  0  0  0
 13 14  1  0  0  0
 13 44  1  0  0  0
 13 45  1  0  0  0
 14 15  1  0  0  0
 14 16  1  0  0  0
 14 18  1  0  0  0
 16 17  1  0  0  0
 16 46  1  0  0  0
 16 47  1  0  0  0
 17 48  1  0  0  0
 17 49  1  0  0  0
 18 50  1  0  0  0
 18 51  1  0  0  0
 18 52  1  0  0  0
 19 20  2  0  0  0
 19 21  1  0  0  0
 21 22  1  0  0  0
 21 53  1  0  0  0
 22 23  1  0  0  0
 22 29  1  0  0  0
 22 24  1  0  0  0
 24 25  1  0  0  0
 24 54  1  0  0  0
 24 55  1  0  0  0
 25 26  1  0  0  0
 25 56  1  0  0  0
 25 57  1  0  0  0
 26 27  2  0  0  0
 26 28  2  0  0  0
 26 29  1  0  0  0
 29 58  1  0  0  0
 29 59  1  0  0  0
 30 31  1  0  0  0
 31 36  2  0  0  0
 31 32  1  0  0  0
 32 33  2  0  0  0
 32 60  1  0  0  0
 33 34  1  0  0  0
 33 61  1  0  0  0
 34 35  2  0  0  0
 34 62  1  0  0  0
 35 36  1  0  0  0
 35 63  1  0  0  0
 36 37  1  0  0  0
M  END
> <i_i_glide_confnum>
271

> <i_i_glide_lignum>
3970

> <i_i_glide_posenum>
55

> <i_i_glide_rotatable_bonds>
9

> <i_m_Source_File_Index>
4489

> <b_m_subgroup_collapsed>
0

> <r_i_docking_score>
-4.42904

> <r_i_glide_ecoul>
0.261835

> <r_i_glide_eff_state_penalty>
0

> <r_i_glide_einternal>
6.87247

> <r_i_glide_emodel>
-53.0347

> <r_i_glide_energy>
-41.2476

> <r_i_glide_erotb>
0.554003

> <r_i_glide_esite>
-0.053811

> <r_i_glide_evdw>
-41.5095

> <r_i_glide_gscore>
-4.42904

> <r_i_glide_hbond>
0

> <r_i_glide_ligand_efficiency>
-0.130266

> <r_i_glide_ligand_efficiency_ln>
-0.9785

> <r_i_glide_ligand_efficiency_sa>
-0.422011

> <r_i_glide_lipo>
-2.43363

> <r_i_glide_metal>
0

> <r_i_glide_rewards>
-0.459402

> <s_i_glide_gridfile>
wee1_glide-grid

> <s_m_Source_File>
wee1_decoys_glide_SP.sdf

> <s_m_Source_Path>
/Users/zhangxujun/Desktop

> <s_m_entry_id>
4764

> <s_m_entry_name>
wee1_decoys_glide_SP.4489

> <s_m_subgroup_title>
wee1_decoys_glide_SP

> <s_m_subgroupid>
wee1_decoys_glide_SP


$$$$
