ZINC00492588_3557
                    3D
 Schrodinger Suite 2024-2.
 48 52  0  0  1  0            999 V2000
    6.9028   55.2629   22.0846 C   0  0  0  0  0  0
    5.9044   55.0703   21.1350 C   0  0  0  0  0  0
    4.6974   54.4879   21.5123 C   0  0  0  0  0  0
    4.4605   54.0967   22.8418 C   0  0  0  0  0  0
    5.4910   54.2917   23.7780 C   0  0  0  0  0  0
    6.7042   54.8660   23.4038 C   0  0  0  0  0  0
    3.1515   53.4756   23.2413 C   0  0  0  0  0  0
    2.8144   53.4634   24.5527 N   0  0  0  0  0  0
    1.6896   52.7870   24.9152 C   0  0  0  0  0  0
    0.8580   52.1179   23.9756 C   0  0  0  0  0  0
    1.2673   52.2619   22.6238 C   0  0  0  0  0  0
    2.4072   52.9100   22.2654 N   0  0  0  0  0  0
    0.5246   51.7473   21.5515 N   0  0  0  0  0  0
    0.7363   52.0969   20.1542 N   0  0  0  0  0  0
   -0.3961   51.3371   24.5070 C   0  0  0  0  0  0
   -0.9374   50.2017   23.5896 C   0  0  0  0  0  0
   -2.1315   50.7708   22.7910 C   0  0  0  0  0  0
   -2.2908   52.2266   23.2382 C   0  0  0  0  0  0
   -1.6076   52.2891   24.6049 C   0  0  0  0  0  0
   -0.0207   50.7161   25.8869 C   0  0  0  0  0  0
    0.5008   51.7601   26.8597 C   0  0  0  0  0  0
    1.3666   52.7576   26.3810 C   0  0  0  0  0  0
    1.8915   53.6968   27.2851 C   0  0  0  0  0  0
    1.5376   53.6661   28.6327 C   0  0  0  0  0  0
    0.6622   52.6887   29.0980 C   0  0  0  0  0  0
    0.1505   51.7418   28.2141 C   0  0  0  0  0  0
    7.8465   55.7039   21.7980 H   0  0  0  0  0  0
    6.0645   55.3669   20.1084 H   0  0  0  0  0  0
    3.9341   54.3571   20.7586 H   0  0  0  0  0  0
    5.3571   53.9871   24.8066 H   0  0  0  0  0  0
    7.4933   55.0000   24.1299 H   0  0  0  0  0  0
   -0.3796   51.3237   21.7180 H   0  0  0  0  0  0
    0.8455   53.1045   20.0822 H   0  0  0  0  0  0
    1.5660   51.6191   19.8248 H   0  0  0  0  0  0
   -1.3630   49.4005   24.1983 H   0  0  0  0  0  0
   -0.1700   49.7228   22.9810 H   0  0  0  0  0  0
   -3.0398   50.2133   23.0266 H   0  0  0  0  0  0
   -1.9928   50.6893   21.7125 H   0  0  0  0  0  0
   -3.3358   52.5336   23.2866 H   0  0  0  0  0  0
   -1.7910   52.8970   22.5410 H   0  0  0  0  0  0
   -1.3392   53.2964   24.9136 H   0  0  0  0  0  0
   -2.3208   51.9120   25.3406 H   0  0  0  0  0  0
   -0.8742   50.1954   26.3268 H   0  0  0  0  0  0
    0.7457   49.9535   25.7464 H   0  0  0  0  0  0
    2.5645   54.4697   26.9412 H   0  0  0  0  0  0
    1.9372   54.4040   29.3121 H   0  0  0  0  0  0
    0.3809   52.6597   30.1410 H   0  0  0  0  0  0
   -0.5172   50.9769   28.5859 H   0  0  0  0  0  0
  1  6  2  0  0  0
  1  2  1  0  0  0
  1 27  1  0  0  0
  2  3  2  0  0  0
  2 28  1  0  0  0
  3  4  1  0  0  0
  3 29  1  0  0  0
  4  5  2  0  0  0
  4  7  1  0  0  0
  5  6  1  0  0  0
  5 30  1  0  0  0
  6 31  1  0  0  0
  7 12  2  0  0  0
  7  8  1  0  0  0
  8  9  2  0  0  0
  9 22  1  0  0  0
  9 10  1  0  0  0
 10 11  2  0  0  0
 10 15  1  0  0  0
 11 12  1  0  0  0
 11 13  1  0  0  0
 13 14  1  0  0  0
 13 32  1  0  0  0
 14 33  1  0  0  0
 14 34  1  0  0  0
 15 19  1  0  0  0
 15 16  1  0  0  0
 15 20  1  0  0  0
 16 17  1  0  0  0
 16 35  1  0  0  0
 16 36  1  0  0  0
 17 18  1  0  0  0
 17 37  1  0  0  0
 17 38  1  0  0  0
 18 19  1  0  0  0
 18 39  1  0  0  0
 18 40  1  0  0  0
 19 41  1  0  0  0
 19 42  1  0  0  0
 20 21  1  0  0  0
 20 43  1  0  0  0
 20 44  1  0  0  0
 21 26  2  0  0  0
 21 22  1  0  0  0
 22 23  2  0  0  0
 23 24  1  0  0  0
 23 45  1  0  0  0
 24 25  2  0  0  0
 24 46  1  0  0  0
 25 26  1  0  0  0
 25 47  1  0  0  0
 26 48  1  0  0  0
M  END
> <i_i_glide_confnum>
6

> <i_i_glide_lignum>
3558

> <i_i_glide_posenum>
151

> <i_i_glide_rotatable_bonds>
2

> <i_m_Source_File_Index>
1268

> <b_m_subgroup_collapsed>
0

> <r_i_docking_score>
-5.86863

> <r_i_glide_ecoul>
-2.98197

> <r_i_glide_eff_state_penalty>
0

> <r_i_glide_einternal>
0.321579

> <r_i_glide_emodel>
-54.1738

> <r_i_glide_energy>
-38.3784

> <r_i_glide_erotb>
0.161709

> <r_i_glide_esite>
0

> <r_i_glide_evdw>
-35.3965

> <r_i_glide_gscore>
-5.86863

> <r_i_glide_hbond>
-0.201575

> <r_i_glide_ligand_efficiency>
-0.225717

> <r_i_glide_ligand_efficiency_ln>
-1.37823

> <r_i_glide_ligand_efficiency_sa>
-0.668684

> <r_i_glide_lipo>
-2.27244

> <r_i_glide_metal>
0

> <r_i_glide_rewards>
-1.33921

> <s_i_glide_gridfile>
wee1_glide-grid

> <s_m_Source_File>
wee1_decoys_glide_SP.sdf

> <s_m_Source_Path>
/Users/zhangxujun/Desktop

> <s_m_entry_id>
1543

> <s_m_entry_name>
wee1_decoys_glide_SP.1268

> <s_m_subgroup_title>
wee1_decoys_glide_SP

> <s_m_subgroupid>
wee1_decoys_glide_SP


$$$$
