ZINC40317537_3742
                    3D
 Schrodinger Suite 2024-2.
 68 71  0  0  1  0            999 V2000
    1.3803   56.5373   30.3386 C   0  0  0  0  0  0
    1.6990   55.1722   29.7607 C   0  0  0  0  0  0
    0.7390   54.1590   29.7616 C   0  0  0  0  0  0
    1.0285   52.9124   29.2036 C   0  0  0  0  0  0
    2.2891   52.6797   28.6414 C   0  0  0  0  0  0
    3.2510   53.6930   28.6260 C   0  0  0  0  0  0
    2.9565   54.9274   29.2076 C   0  0  0  0  0  0
    4.4777   53.4664   28.0491 O   0  0  0  0  0  0
    4.7225   54.2255   26.8646 C   0  0  0  0  0  0
    6.1575   53.9665   26.3596 C   0  0  1  0  0  0
    6.3447   52.8967   26.3218 H   0  0  0  0  0  0
    6.4681   54.5995   24.9881 C   0  0  0  0  0  0
    5.6419   54.0963   23.8966 N   0  0  0  0  0  0
    5.7752   54.3832   22.5568 C   0  0  0  0  0  0
    4.9474   53.9745   21.4963 C   0  0  0  0  0  0
    5.3273   54.5851   20.2653 C   0  0  0  0  0  0
    6.5046   55.3405   20.3963 C   0  0  0  0  0  0
    7.1044   55.3457   22.0119 S   0  0  0  0  0  0
    7.2257   56.0614   19.2636 C   0  0  0  0  0  0
    6.2219   56.2932   18.1128 C   0  0  2  0  0  0
    5.4861   57.0371   18.4297 H   0  0  0  0  0  0
    5.5289   54.9608   17.7681 C   0  0  0  0  0  0
    4.6082   54.4735   18.9077 C   0  0  0  0  0  0
    6.9432   56.8840   16.8883 C   0  0  0  0  0  0
    3.7795   53.1467   21.6870 C   0  0  0  0  0  0
    3.0202   53.3142   22.6432 O   0  0  0  0  0  0
    3.6120   52.1948   20.7533 N   0  0  0  0  0  0
    2.4748   51.2850   20.6588 C   0  0  2  0  0  0
    2.4121   50.6133   21.5200 H   0  0  0  0  0  0
    2.6467   50.4102   19.3932 C   0  0  0  0  0  0
    1.3336   49.6722   19.0994 C   0  0  0  0  0  0
   -0.0081   50.8923   19.5703 S   0  0  0  0  0  0
   -0.5289   51.5824   18.3863 O   0  0  0  0  0  0
   -0.9239   50.2477   20.5167 O   0  0  0  0  0  0
    1.1432   52.0454   20.4841 C   0  0  0  0  0  0
    7.0869   54.5024   27.2809 O   0  0  0  0  0  0
   -0.0357   51.8324   29.2043 C   0  0  0  0  0  0
    1.7061   57.3104   29.6452 H   0  0  0  0  0  0
    1.9023   56.6978   31.2810 H   0  0  0  0  0  0
    0.3095   56.6735   30.4913 H   0  0  0  0  0  0
   -0.2361   54.3383   30.1902 H   0  0  0  0  0  0
    2.5226   51.7234   28.1961 H   0  0  0  0  0  0
    3.7101   55.6969   29.2145 H   0  0  0  0  0  0
    4.0020   53.9192   26.1042 H   0  0  0  0  0  0
    4.5759   55.2960   27.0201 H   0  0  0  0  0  0
    6.3482   55.6831   25.0476 H   0  0  0  0  0  0
    7.5073   54.4020   24.7315 H   0  0  0  0  0  0
    4.8004   53.6274   24.2073 H   0  0  0  0  0  0
    7.6479   57.0078   19.6011 H   0  0  0  0  0  0
    8.0633   55.4509   18.9207 H   0  0  0  0  0  0
    4.9255   55.0869   16.8676 H   0  0  0  0  0  0
    6.2691   54.2081   17.4895 H   0  0  0  0  0  0
    4.3025   53.4562   18.6712 H   0  0  0  0  0  0
    3.6950   55.0701   18.9275 H   0  0  0  0  0  0
    7.7124   56.2098   16.5108 H   0  0  0  0  0  0
    6.2430   57.0778   16.0750 H   0  0  0  0  0  0
    7.4238   57.8322   17.1328 H   0  0  0  0  0  0
    4.3359   52.0697   20.0588 H   0  0  0  0  0  0
    2.9192   51.0318   18.5369 H   0  0  0  0  0  0
    3.4826   49.7160   19.5010 H   0  0  0  0  0  0
    1.1858   49.3005   18.0854 H   0  0  0  0  0  0
    1.2552   48.8278   19.7852 H   0  0  0  0  0  0
    0.6941   52.5526   21.3371 H   0  0  0  0  0  0
    1.3352   52.8224   19.7412 H   0  0  0  0  0  0
    6.7933   54.2806   28.1711 H   0  0  0  0  0  0
    0.3337   50.8967   28.7874 H   0  0  0  0  0  0
   -0.3854   51.6457   30.2215 H   0  0  0  0  0  0
   -0.8982   52.1518   28.6186 H   0  0  0  0  0  0
  1  2  1  0  0  0
  1 38  1  0  0  0
  1 39  1  0  0  0
  1 40  1  0  0  0
  2  7  2  0  0  0
  2  3  1  0  0  0
  3  4  2  0  0  0
  3 41  1  0  0  0
  4  5  1  0  0  0
  4 37  1  0  0  0
  5  6  2  0  0  0
  5 42  1  0  0  0
  6  7  1  0  0  0
  6  8  1  0  0  0
  7 43  1  0  0  0
  8  9  1  0  0  0
  9 10  1  0  0  0
  9 44  1  0  0  0
  9 45  1  0  0  0
 10 11  1  0  0  0
 10 12  1  0  0  0
 10 36  1  0  0  0
 12 13  1  0  0  0
 12 46  1  0  0  0
 12 47  1  0  0  0
 13 14  1  0  0  0
 13 48  1  0  0  0
 14 18  1  0  0  0
 14 15  2  0  0  0
 15 16  1  0  0  0
 15 25  1  0  0  0
 16 23  1  0  0  0
 16 17  2  0  0  0
 17 18  1  0  0  0
 17 19  1  0  0  0
 19 20  1  0  0  0
 19 49  1  0  0  0
 19 50  1  0  0  0
 20 21  1  0  0  0
 20 22  1  0  0  0
 20 24  1  0  0  0
 22 23  1  0  0  0
 22 51  1  0  0  0
 22 52  1  0  0  0
 23 53  1  0  0  0
 23 54  1  0  0  0
 24 55  1  0  0  0
 24 56  1  0  0  0
 24 57  1  0  0  0
 25 26  2  0  0  0
 25 27  1  0  0  0
 27 28  1  0  0  0
 27 58  1  0  0  0
 28 29  1  0  0  0
 28 35  1  0  0  0
 28 30  1  0  0  0
 30 31  1  0  0  0
 30 59  1  0  0  0
 30 60  1  0  0  0
 31 32  1  0  0  0
 31 61  1  0  0  0
 31 62  1  0  0  0
 32 33  2  0  0  0
 32 34  2  0  0  0
 32 35  1  0  0  0
 35 63  1  0  0  0
 35 64  1  0  0  0
 36 65  1  0  0  0
 37 66  1  0  0  0
 37 67  1  0  0  0
 37 68  1  0  0  0
M  END
> <i_i_glide_confnum>
59

> <i_i_glide_lignum>
3743

> <i_i_glide_posenum>
363

> <i_i_glide_rotatable_bonds>
10

> <i_m_Source_File_Index>
3799

> <b_m_subgroup_collapsed>
0

> <r_i_docking_score>
-4.57139

> <r_i_glide_ecoul>
-5.15921

> <r_i_glide_eff_state_penalty>
0

> <r_i_glide_einternal>
9.04283

> <r_i_glide_emodel>
-63.5958

> <r_i_glide_energy>
-56.639

> <r_i_glide_erotb>
0.717324

> <r_i_glide_esite>
-0.026521

> <r_i_glide_evdw>
-51.4797

> <r_i_glide_gscore>
-4.57139

> <r_i_glide_hbond>
0

> <r_i_glide_ligand_efficiency>
-0.134453

> <r_i_glide_ligand_efficiency_ln>
-1.00995

> <r_i_glide_ligand_efficiency_sa>
-0.435574

> <r_i_glide_lipo>
-3.3077

> <r_i_glide_metal>
0

> <r_i_glide_rewards>
1.39337

> <s_i_glide_gridfile>
wee1_glide-grid

> <s_m_Source_File>
wee1_decoys_glide_SP.sdf

> <s_m_Source_Path>
/Users/zhangxujun/Desktop

> <s_m_entry_id>
4074

> <s_m_entry_name>
wee1_decoys_glide_SP.3799

> <s_m_subgroup_title>
wee1_decoys_glide_SP

> <s_m_subgroupid>
wee1_decoys_glide_SP


$$$$
