ZINC24094876_4941
                    3D
 Schrodinger Suite 2024-2.
 54 56  0  0  1  0            999 V2000
    3.3854   53.9777   22.6801 C   0  0  0  0  0  0
    2.8229   54.3979   24.0466 C   0  0  0  0  0  0
    1.4654   53.7685   24.3986 C   0  0  0  0  0  0
    1.5466   52.2546   24.6883 C   0  0  0  0  0  0
    0.3626   51.5772   25.4697 C   0  0  1  0  0  0
   -0.9569   51.7683   24.7200 C   0  0  0  0  0  0
   -1.5168   52.8408   24.4820 O   0  0  0  0  0  0
   -1.3560   50.5309   24.3449 N   0  0  0  0  0  0
   -0.4666   49.5466   24.6208 C   0  0  0  0  0  0
   -0.3821   48.4451   24.0807 O   0  0  0  0  0  0
    0.4742   50.1412   25.3575 N   0  0  0  0  0  0
   -2.6285   50.2587   23.6396 C   0  0  0  0  0  0
   -2.6089   50.6243   22.1352 C   0  0  0  0  0  0
   -3.6686   50.4967   21.5192 O   0  0  0  0  0  0
   -1.4430   51.0327   21.5743 N   0  0  0  0  0  0
   -1.2680   51.6078   20.3662 C   0  0  0  0  0  0
   -2.1708   52.0968   19.6814 O   0  0  0  0  0  0
    0.0364   51.5759   20.0219 N   0  0  0  0  0  0
    0.6696   52.0860   18.8721 C   0  0  0  0  0  0
    0.0842   53.0013   17.9817 C   0  0  0  0  0  0
    0.8027   53.4604   16.8808 C   0  0  0  0  0  0
    2.0999   53.0049   16.6610 C   0  0  0  0  0  0
    2.6875   52.0966   17.5367 C   0  0  0  0  0  0
    1.9759   51.6432   18.6438 C   0  0  0  0  0  0
    3.0762   53.6269   15.1507 Br  0  0  0  0  0  0
    0.2323   51.9606   26.9749 C   0  0  0  0  0  0
    1.1575   52.8115   27.6050 C   0  0  0  0  0  0
    1.0462   53.1165   28.9597 C   0  0  0  0  0  0
    0.0196   52.5576   29.7135 C   0  0  0  0  0  0
   -0.8953   51.6967   29.1199 C   0  0  0  0  0  0
   -0.7875   51.3987   27.7645 C   0  0  0  0  0  0
    4.3316   54.4814   22.4801 H   0  0  0  0  0  0
    3.5695   52.9043   22.6341 H   0  0  0  0  0  0
    2.7042   54.2337   21.8691 H   0  0  0  0  0  0
    2.7044   55.4775   24.0816 H   0  0  0  0  0  0
    3.5526   54.1662   24.8241 H   0  0  0  0  0  0
    0.7397   53.9751   23.6107 H   0  0  0  0  0  0
    1.1044   54.2825   25.2819 H   0  0  0  0  0  0
    2.4687   52.0967   25.2397 H   0  0  0  0  0  0
    1.7082   51.7392   23.7390 H   0  0  0  0  0  0
    1.1042   49.6128   25.9438 H   0  0  0  0  0  0
   -3.4153   50.8495   24.1110 H   0  0  0  0  0  0
   -2.9187   49.2128   23.7529 H   0  0  0  0  0  0
   -0.6151   50.9014   22.1319 H   0  0  0  0  0  0
    0.6544   51.0629   20.6309 H   0  0  0  0  0  0
   -0.9134   53.3827   18.1254 H   0  0  0  0  0  0
    0.3555   54.1681   16.1988 H   0  0  0  0  0  0
    3.6891   51.7318   17.3537 H   0  0  0  0  0  0
    2.4519   50.9361   19.3082 H   0  0  0  0  0  0
    1.9832   53.2487   27.0676 H   0  0  0  0  0  0
    1.7620   53.7769   29.4257 H   0  0  0  0  0  0
   -0.0646   52.7776   30.7686 H   0  0  0  0  0  0
   -1.6749   51.2378   29.7129 H   0  0  0  0  0  0
   -1.4968   50.7020   27.3399 H   0  0  0  0  0  0
  1  2  1  0  0  0
  1 32  1  0  0  0
  1 33  1  0  0  0
  1 34  1  0  0  0
  2  3  1  0  0  0
  2 35  1  0  0  0
  2 36  1  0  0  0
  3  4  1  0  0  0
  3 37  1  0  0  0
  3 38  1  0  0  0
  4  5  1  0  0  0
  4 39  1  0  0  0
  4 40  1  0  0  0
  5 11  1  0  0  0
  5  6  1  0  0  0
  5 26  1  0  0  0
  6  7  2  0  0  0
  6  8  1  0  0  0
  8  9  1  0  0  0
  8 12  1  0  0  0
  9 10  2  0  0  0
  9 11  1  0  0  0
 11 41  1  0  0  0
 12 13  1  0  0  0
 12 42  1  0  0  0
 12 43  1  0  0  0
 13 14  2  0  0  0
 13 15  1  0  0  0
 15 16  1  0  0  0
 15 44  1  0  0  0
 16 17  2  0  0  0
 16 18  1  0  0  0
 18 19  1  0  0  0
 18 45  1  0  0  0
 19 24  2  0  0  0
 19 20  1  0  0  0
 20 21  2  0  0  0
 20 46  1  0  0  0
 21 22  1  0  0  0
 21 47  1  0  0  0
 22 23  2  0  0  0
 22 25  1  0  0  0
 23 24  1  0  0  0
 23 48  1  0  0  0
 24 49  1  0  0  0
 26 31  2  0  0  0
 26 27  1  0  0  0
 27 28  2  0  0  0
 27 50  1  0  0  0
 28 29  1  0  0  0
 28 51  1  0  0  0
 29 30  2  0  0  0
 29 52  1  0  0  0
 30 31  1  0  0  0
 30 53  1  0  0  0
 31 54  1  0  0  0
M  END
> <i_i_glide_confnum>
135

> <i_i_glide_lignum>
4942

> <i_i_glide_posenum>
322

> <i_i_glide_rotatable_bonds>
10

> <i_m_Source_File_Index>
201

> <b_m_subgroup_collapsed>
0

> <r_i_docking_score>
-3.4356

> <r_i_glide_ecoul>
-6.06679

> <r_i_glide_eff_state_penalty>
0

> <r_i_glide_einternal>
5.29066

> <r_i_glide_emodel>
-44.2765

> <r_i_glide_energy>
-37.9828

> <r_i_glide_erotb>
0.684737

> <r_i_glide_esite>
-0.0941786

> <r_i_glide_evdw>
-31.916

> <r_i_glide_gscore>
-3.4356

> <r_i_glide_hbond>
-0.32

> <r_i_glide_ligand_efficiency>
-0.110826

> <r_i_glide_ligand_efficiency_ln>
-0.774833

> <r_i_glide_ligand_efficiency_sa>
-0.348146

> <r_i_glide_lipo>
-1.14701

> <r_i_glide_metal>
0

> <r_i_glide_rewards>
-0.0533374

> <s_i_glide_gridfile>
wee1_glide-grid

> <s_m_Source_File>
wee1_decoys_glide_SP.sdf

> <s_m_Source_Path>
/Users/zhangxujun/Desktop

> <s_m_entry_id>
476

> <s_m_entry_name>
wee1_decoys_glide_SP.201

> <s_m_subgroup_title>
wee1_decoys_glide_SP

> <s_m_subgroupid>
wee1_decoys_glide_SP


$$$$
