ZINC09241161_5575
                    3D
 Schrodinger Suite 2024-2.
 50 53  0  0  1  0            999 V2000
   -3.3565   50.7447   26.0470 C   0  0  0  0  0  0
   -3.3465   51.1694   24.5747 C   0  0  0  0  0  0
   -2.0622   50.9009   24.0302 O   0  0  0  0  0  0
   -1.6664   51.4395   22.8538 C   0  0  0  0  0  0
   -2.4193   52.0979   22.1298 O   0  0  0  0  0  0
   -0.2743   51.0315   22.4446 C   0  0  0  0  0  0
    0.0038   51.0579   21.0654 C   0  0  0  0  0  0
    1.2142   50.5912   20.5586 C   0  0  0  0  0  0
    2.1751   50.0783   21.4203 C   0  0  0  0  0  0
    1.9400   50.0690   22.7911 C   0  0  0  0  0  0
    0.7507   50.5770   23.3216 C   0  0  0  0  0  0
    0.7045   50.5808   24.7278 N   0  0  0  0  0  0
    0.4578   51.6544   25.5068 C   0  0  0  0  0  0
    0.2065   52.7730   25.0570 O   0  0  0  0  0  0
    0.5440   51.4065   27.0216 C   0  0  0  0  0  0
    0.2286   52.8669   28.0721 S   0  0  0  0  0  0
    1.8602   53.2076   28.6530 C   0  0  0  0  0  0
    2.1806   53.2046   29.9316 N   0  0  0  0  0  0
    3.5044   53.5761   30.0817 N   0  0  0  0  0  0
    3.9747   53.8154   28.8413 C   0  0  0  0  0  0
    2.9656   53.5700   27.9000 N   0  0  0  0  0  0
    3.0818   53.6965   26.5648 N   0  0  0  0  0  0
    4.3085   54.0960   26.1068 C   0  0  0  0  0  0
    5.3661   54.3965   26.9842 C   0  0  0  0  0  0
    5.2149   54.2544   28.3636 C   0  0  0  0  0  0
    4.4656   54.1698   24.6096 C   0  0  0  0  0  0
    5.7336   54.3181   24.0175 C   0  0  0  0  0  0
    5.8861   54.3656   22.6353 C   0  0  0  0  0  0
    4.7705   54.2464   21.8145 C   0  0  0  0  0  0
    3.5043   54.0970   22.3682 C   0  0  0  0  0  0
    3.3543   54.0686   23.7518 C   0  0  0  0  0  0
    4.9776   54.3032   19.9247 Br  0  0  0  0  0  0
   -4.3386   50.9032   26.4922 H   0  0  0  0  0  0
   -2.6347   51.3217   26.6264 H   0  0  0  0  0  0
   -3.1047   49.6884   26.1611 H   0  0  0  0  0  0
   -4.1055   50.6231   24.0133 H   0  0  0  0  0  0
   -3.5830   52.2328   24.5002 H   0  0  0  0  0  0
   -0.7307   51.4120   20.3551 H   0  0  0  0  0  0
    1.4006   50.6091   19.4940 H   0  0  0  0  0  0
    3.1054   49.6987   21.0248 H   0  0  0  0  0  0
    2.7146   49.6964   23.4456 H   0  0  0  0  0  0
    1.1842   49.8137   25.1733 H   0  0  0  0  0  0
   -0.2136   50.6628   27.2756 H   0  0  0  0  0  0
    1.5047   50.9659   27.2820 H   0  0  0  0  0  0
    6.3217   54.7382   26.6231 H   0  0  0  0  0  0
    6.0263   54.4826   29.0414 H   0  0  0  0  0  0
    6.6329   54.3867   24.6074 H   0  0  0  0  0  0
    6.8678   54.4946   22.2036 H   0  0  0  0  0  0
    2.6399   54.0111   21.7250 H   0  0  0  0  0  0
    2.3559   53.9572   24.1481 H   0  0  0  0  0  0
  1  2  1  0  0  0
  1 33  1  0  0  0
  1 34  1  0  0  0
  1 35  1  0  0  0
  2  3  1  0  0  0
  2 36  1  0  0  0
  2 37  1  0  0  0
  3  4  1  0  0  0
  4  5  2  0  0  0
  4  6  1  0  0  0
  6 11  2  0  0  0
  6  7  1  0  0  0
  7  8  2  0  0  0
  7 38  1  0  0  0
  8  9  1  0  0  0
  8 39  1  0  0  0
  9 10  2  0  0  0
  9 40  1  0  0  0
 10 11  1  0  0  0
 10 41  1  0  0  0
 11 12  1  0  0  0
 12 13  1  0  0  0
 12 42  1  0  0  0
 13 14  2  0  0  0
 13 15  1  0  0  0
 15 16  1  0  0  0
 15 43  1  0  0  0
 15 44  1  0  0  0
 16 17  1  0  0  0
 17 21  1  0  0  0
 17 18  2  0  0  0
 18 19  1  0  0  0
 19 20  2  0  0  0
 20 25  1  0  0  0
 20 21  1  0  0  0
 21 22  1  0  0  0
 22 23  2  0  0  0
 23 24  1  0  0  0
 23 26  1  0  0  0
 24 25  2  0  0  0
 24 45  1  0  0  0
 25 46  1  0  0  0
 26 31  2  0  0  0
 26 27  1  0  0  0
 27 28  2  0  0  0
 27 47  1  0  0  0
 28 29  1  0  0  0
 28 48  1  0  0  0
 29 30  2  0  0  0
 29 32  1  0  0  0
 30 31  1  0  0  0
 30 49  1  0  0  0
 31 50  1  0  0  0
M  END
> <i_i_glide_confnum>
168

> <i_i_glide_lignum>
5576

> <i_i_glide_posenum>
108

> <i_i_glide_rotatable_bonds>
9

> <i_m_Source_File_Index>
2825

> <b_m_subgroup_collapsed>
0

> <r_i_docking_score>
-6.1571

> <r_i_glide_ecoul>
-6.8008

> <r_i_glide_eff_state_penalty>
0

> <r_i_glide_einternal>
11.8953

> <r_i_glide_emodel>
-67.7842

> <r_i_glide_energy>
-53.1436

> <r_i_glide_erotb>
0.624659

> <r_i_glide_esite>
-0.0230859

> <r_i_glide_evdw>
-46.3428

> <r_i_glide_gscore>
-6.1571

> <r_i_glide_hbond>
0

> <r_i_glide_ligand_efficiency>
-0.192409

> <r_i_glide_ligand_efficiency_ln>
-1.37874

> <r_i_glide_ligand_efficiency_sa>
-0.610862

> <r_i_glide_lipo>
-2.44999

> <r_i_glide_metal>
0

> <r_i_glide_rewards>
-0.971422

> <s_i_glide_gridfile>
wee1_glide-grid

> <s_m_Source_File>
wee1_decoys_glide_SP.sdf

> <s_m_Source_Path>
/Users/zhangxujun/Desktop

> <s_m_entry_id>
3100

> <s_m_entry_name>
wee1_decoys_glide_SP.2825

> <s_m_subgroup_title>
wee1_decoys_glide_SP

> <s_m_subgroupid>
wee1_decoys_glide_SP


$$$$
