ZINC13239794_5627
                    3D
 Schrodinger Suite 2024-2.
 50 52  0  0  1  0            999 V2000
    6.7051   54.4518   25.8792 C   0  0  0  0  0  0
    6.6535   53.9248   27.1696 C   0  0  0  0  0  0
    5.4331   53.8712   27.8375 C   0  0  0  0  0  0
    4.2778   54.3532   27.2162 C   0  0  0  0  0  0
    4.3538   54.8956   25.9293 C   0  0  0  0  0  0
    5.5655   54.9304   25.2538 C   0  0  0  0  0  0
    2.9459   54.3334   27.9563 C   0  0  0  0  0  0
    1.9819   53.2377   27.5011 C   0  0  0  0  0  0
    1.5043   53.2494   26.1850 C   0  0  0  0  0  0
    0.5730   52.3105   25.7375 C   0  0  0  0  0  0
    0.1422   51.3179   26.6235 C   0  0  0  0  0  0
    0.6068   51.2966   27.9354 C   0  0  0  0  0  0
    1.5217   52.2509   28.3876 C   0  0  0  0  0  0
    1.9820   52.1918   29.6811 O   0  0  0  0  0  0
    1.0210   52.5098   30.6828 C   0  0  0  0  0  0
    1.4998   52.0965   31.8526 F   0  0  0  0  0  0
    0.8188   53.8250   30.7401 F   0  0  0  0  0  0
    0.0978   52.4460   24.4209 N   0  0  0  0  0  0
   -1.2576   51.5472   23.7143 S   0  0  0  0  0  0
   -1.0727   50.1251   24.0178 O   0  0  0  0  0  0
   -1.3528   52.0198   22.3276 O   0  0  0  0  0  0
   -2.7258   52.1315   24.5601 C   0  0  0  0  0  0
   -3.3451   53.3008   24.1222 C   0  0  0  0  0  0
   -4.4896   53.7657   24.7656 C   0  0  0  0  0  0
   -5.0220   53.0654   25.8547 C   0  0  0  0  0  0
   -4.3886   51.9001   26.2940 C   0  0  0  0  0  0
   -3.2479   51.4288   25.6481 C   0  0  0  0  0  0
   -6.2451   53.5063   26.5516 C   0  0  0  0  0  0
   -7.1865   54.3556   26.0806 C   0  0  0  0  0  0
   -8.4350   54.7733   26.8819 C   0  0  0  0  0  0
   -9.0436   55.7592   26.4092 O   0  0  0  0  0  0
    7.6390   54.4949   25.3416 H   0  0  0  0  0  0
    7.5428   53.5478   27.6493 H   0  0  0  0  0  0
    5.3897   53.4558   28.8349 H   0  0  0  0  0  0
    3.4838   55.2970   25.4413 H   0  0  0  0  0  0
    5.6220   55.3259   24.2506 H   0  0  0  0  0  0
    2.4529   55.2980   27.8216 H   0  0  0  0  0  0
    3.1326   54.2652   29.0277 H   0  0  0  0  0  0
    1.8198   54.0208   25.5033 H   0  0  0  0  0  0
   -0.5589   50.5552   26.3266 H   0  0  0  0  0  0
    0.2450   50.5260   28.5972 H   0  0  0  0  0  0
    0.0588   52.0122   30.5487 H   0  0  0  0  0  0
    0.3626   53.2827   23.9267 H   0  0  0  0  0  0
   -2.9419   53.8512   23.2841 H   0  0  0  0  0  0
   -4.9571   54.6694   24.4031 H   0  0  0  0  0  0
   -4.7848   51.3428   27.1316 H   0  0  0  0  0  0
   -2.7830   50.5154   25.9935 H   0  0  0  0  0  0
   -6.3775   53.1049   27.5476 H   0  0  0  0  0  0
   -7.0880   54.7708   25.0881 H   0  0  0  0  0  0
   -8.6794   54.0970   27.9056 O   0  5  0  0  0  0
  1  6  2  0  0  0
  1  2  1  0  0  0
  1 32  1  0  0  0
  2  3  2  0  0  0
  2 33  1  0  0  0
  3  4  1  0  0  0
  3 34  1  0  0  0
  4  5  2  0  0  0
  4  7  1  0  0  0
  5  6  1  0  0  0
  5 35  1  0  0  0
  6 36  1  0  0  0
  7  8  1  0  0  0
  7 37  1  0  0  0
  7 38  1  0  0  0
  8 13  2  0  0  0
  8  9  1  0  0  0
  9 10  2  0  0  0
  9 39  1  0  0  0
 10 11  1  0  0  0
 10 18  1  0  0  0
 11 12  2  0  0  0
 11 40  1  0  0  0
 12 13  1  0  0  0
 12 41  1  0  0  0
 13 14  1  0  0  0
 14 15  1  0  0  0
 15 16  1  0  0  0
 15 17  1  0  0  0
 15 42  1  0  0  0
 18 19  1  0  0  0
 18 43  1  0  0  0
 19 20  2  0  0  0
 19 21  2  0  0  0
 19 22  1  0  0  0
 22 27  2  0  0  0
 22 23  1  0  0  0
 23 24  2  0  0  0
 23 44  1  0  0  0
 24 25  1  0  0  0
 24 45  1  0  0  0
 25 26  2  0  0  0
 25 28  1  0  0  0
 26 27  1  0  0  0
 26 46  1  0  0  0
 27 47  1  0  0  0
 28 29  2  0  0  0
 28 48  1  0  0  0
 29 30  1  0  0  0
 29 49  1  0  0  0
 30 31  2  0  0  0
 30 50  1  0  0  0
M  CHG  1  50  -1
M  END
> <i_i_glide_confnum>
230

> <i_i_glide_lignum>
5628

> <i_i_glide_posenum>
354

> <i_i_glide_rotatable_bonds>
9

> <i_m_Source_File_Index>
2238

> <b_m_subgroup_collapsed>
0

> <r_i_docking_score>
-5.36786

> <r_i_glide_ecoul>
-1.86904

> <r_i_glide_eff_state_penalty>
0

> <r_i_glide_einternal>
6.01843

> <r_i_glide_emodel>
-59.9043

> <r_i_glide_energy>
-43.7629

> <r_i_glide_erotb>
0.765544

> <r_i_glide_esite>
-0.0915302

> <r_i_glide_evdw>
-41.8939

> <r_i_glide_gscore>
-5.36786

> <r_i_glide_hbond>
0

> <r_i_glide_ligand_efficiency>
-0.167746

> <r_i_glide_ligand_efficiency_ln>
-1.20201

> <r_i_glide_ligand_efficiency_sa>
-0.53256

> <r_i_glide_lipo>
-3.04196

> <r_i_glide_metal>
0

> <r_i_glide_rewards>
-0.62487

> <s_i_glide_gridfile>
wee1_glide-grid

> <s_m_Source_File>
wee1_decoys_glide_SP.sdf

> <s_m_Source_Path>
/Users/zhangxujun/Desktop

> <s_m_entry_id>
2513

> <s_m_entry_name>
wee1_decoys_glide_SP.2238

> <s_m_subgroup_title>
wee1_decoys_glide_SP

> <s_m_subgroupid>
wee1_decoys_glide_SP


$$$$
