ZINC32932213_2312
                    3D
 Schrodinger Suite 2024-2.
 60 63  0  0  1  0            999 V2000
   -4.0102   47.7558   25.4107 C   0  0  0  0  0  0
   -4.7129   48.7009   26.4050 C   0  0  0  0  0  0
   -5.7234   49.6053   25.6689 C   0  0  0  0  0  0
   -5.4490   47.8662   27.4694 C   0  0  0  0  0  0
   -3.6956   49.5076   27.1192 N   0  0  0  0  0  0
   -2.8643   50.8737   26.3604 S   0  0  0  0  0  0
   -2.1889   50.3938   25.1506 O   0  0  0  0  0  0
   -3.8125   51.9914   26.2818 O   0  0  0  0  0  0
   -1.5920   51.3652   27.5194 C   0  0  0  0  0  0
   -1.8594   51.2968   28.8866 C   0  0  0  0  0  0
   -0.8956   51.6967   29.8095 C   0  0  0  0  0  0
    0.3419   52.1588   29.3720 C   0  0  0  0  0  0
    0.6316   52.2236   28.0002 C   0  0  0  0  0  0
   -0.3409   51.8147   27.0775 C   0  0  0  0  0  0
    1.8885   52.6181   27.5098 N   0  0  0  0  0  0
    2.7715   53.4629   28.0867 C   0  0  0  0  0  0
    2.5151   54.1559   29.0758 O   0  0  0  0  0  0
    4.1742   53.5304   27.4446 C   0  0  2  0  0  0
    4.3766   52.4978   27.1593 H   0  0  0  0  0  0
    5.2597   53.9709   28.4422 C   0  0  0  0  0  0
    6.5993   53.9129   27.6976 C   0  0  0  0  0  0
    6.5728   54.7085   26.3766 C   0  0  0  0  0  0
    5.4593   54.3551   25.4747 N   0  0  0  0  0  0
    4.1701   54.4353   26.1907 C   0  0  0  0  0  0
    5.5853   54.4967   24.1147 C   0  0  0  0  0  0
    6.6815   54.8842   23.5149 N   0  0  0  0  0  0
    6.5258   54.9333   22.1684 C   0  0  0  0  0  0
    7.5071   55.3802   21.2742 C   0  0  0  0  0  0
    7.2149   55.3672   19.9089 C   0  0  0  0  0  0
    5.9744   54.9324   19.4406 C   0  0  0  0  0  0
    4.9768   54.4940   20.3123 C   0  0  0  0  0  0
    5.2625   54.5033   21.6843 C   0  0  0  0  0  0
    4.2466   54.0756   23.0535 S   0  0  0  0  0  0
   -4.7199   47.0693   24.9478 H   0  0  0  0  0  0
   -3.2455   47.1534   25.9055 H   0  0  0  0  0  0
   -3.5258   48.3012   24.6031 H   0  0  0  0  0  0
   -6.1822   50.3264   26.3463 H   0  0  0  0  0  0
   -5.2537   50.1670   24.8603 H   0  0  0  0  0  0
   -6.5267   49.0183   25.2221 H   0  0  0  0  0  0
   -5.9486   48.5012   28.2010 H   0  0  0  0  0  0
   -6.2104   47.2266   27.0200 H   0  0  0  0  0  0
   -4.7613   47.2192   28.0168 H   0  0  0  0  0  0
   -3.0251   48.8993   27.6165 H   0  0  0  0  0  0
   -2.8066   50.9202   29.2452 H   0  0  0  0  0  0
   -1.1042   51.6225   30.8688 H   0  0  0  0  0  0
    1.0761   52.4323   30.1160 H   0  0  0  0  0  0
   -0.1336   51.8492   26.0174 H   0  0  0  0  0  0
    2.1402   52.2392   26.6088 H   0  0  0  0  0  0
    5.1201   55.0008   28.7744 H   0  0  0  0  0  0
    5.3307   53.2820   29.2816 H   0  0  0  0  0  0
    7.3838   54.3112   28.3408 H   0  0  0  0  0  0
    6.9033   52.8857   27.4987 H   0  0  0  0  0  0
    6.5656   55.7827   26.5578 H   0  0  0  0  0  0
    7.5051   54.4944   25.8609 H   0  0  0  0  0  0
    3.3214   54.1900   25.5507 H   0  0  0  0  0  0
    4.0423   55.4823   26.4642 H   0  0  0  0  0  0
    8.4719   55.7075   21.6318 H   0  0  0  0  0  0
    7.9614   55.6945   19.1983 H   0  0  0  0  0  0
    5.7821   54.9349   18.3762 H   0  0  0  0  0  0
    4.0129   54.1732   19.9421 H   0  0  0  0  0  0
  1  2  1  0  0  0
  1 34  1  0  0  0
  1 35  1  0  0  0
  1 36  1  0  0  0
  2  3  1  0  0  0
  2  4  1  0  0  0
  2  5  1  0  0  0
  3 37  1  0  0  0
  3 38  1  0  0  0
  3 39  1  0  0  0
  4 40  1  0  0  0
  4 41  1  0  0  0
  4 42  1  0  0  0
  5  6  1  0  0  0
  5 43  1  0  0  0
  6  7  2  0  0  0
  6  8  2  0  0  0
  6  9  1  0  0  0
  9 14  2  0  0  0
  9 10  1  0  0  0
 10 11  2  0  0  0
 10 44  1  0  0  0
 11 12  1  0  0  0
 11 45  1  0  0  0
 12 13  2  0  0  0
 12 46  1  0  0  0
 13 14  1  0  0  0
 13 15  1  0  0  0
 14 47  1  0  0  0
 15 16  1  0  0  0
 15 48  1  0  0  0
 16 17  2  0  0  0
 16 18  1  0  0  0
 18 19  1  0  0  0
 18 24  1  0  0  0
 18 20  1  0  0  0
 20 21  1  0  0  0
 20 49  1  0  0  0
 20 50  1  0  0  0
 21 22  1  0  0  0
 21 51  1  0  0  0
 21 52  1  0  0  0
 22 23  1  0  0  0
 22 53  1  0  0  0
 22 54  1  0  0  0
 23 24  1  0  0  0
 23 25  1  0  0  0
 24 55  1  0  0  0
 24 56  1  0  0  0
 25 33  1  0  0  0
 25 26  2  0  0  0
 26 27  1  0  0  0
 27 32  2  0  0  0
 27 28  1  0  0  0
 28 29  2  0  0  0
 28 57  1  0  0  0
 29 30  1  0  0  0
 29 58  1  0  0  0
 30 31  2  0  0  0
 30 59  1  0  0  0
 31 32  1  0  0  0
 31 60  1  0  0  0
 32 33  1  0  0  0
M  END
> <i_i_glide_confnum>
116

> <i_i_glide_lignum>
2313

> <i_i_glide_posenum>
365

> <i_i_glide_rotatable_bonds>
7

> <i_m_Source_File_Index>
4822

> <b_m_subgroup_collapsed>
0

> <r_i_docking_score>
-3.56952

> <r_i_glide_ecoul>
-6.61173

> <r_i_glide_eff_state_penalty>
0

> <r_i_glide_einternal>
8.8876

> <r_i_glide_emodel>
-51.5017

> <r_i_glide_energy>
-53.1639

> <r_i_glide_erotb>
0.543162

> <r_i_glide_esite>
-0.178247

> <r_i_glide_evdw>
-46.5521

> <r_i_glide_gscore>
-3.56952

> <r_i_glide_hbond>
-0.16

> <r_i_glide_ligand_efficiency>
-0.111548

> <r_i_glide_ligand_efficiency_ln>
-0.799314

> <r_i_glide_ligand_efficiency_sa>
-0.354142

> <r_i_glide_lipo>
-2.80817

> <r_i_glide_metal>
0

> <r_i_glide_rewards>
2.3531

> <s_i_glide_gridfile>
wee1_glide-grid

> <s_m_Source_File>
wee1_decoys_glide_SP.sdf

> <s_m_Source_Path>
/Users/zhangxujun/Desktop

> <s_m_entry_id>
5097

> <s_m_entry_name>
wee1_decoys_glide_SP.4822

> <s_m_subgroup_title>
wee1_decoys_glide_SP

> <s_m_subgroupid>
wee1_decoys_glide_SP


$$$$
