ZINC01145028_3614
                    3D
 Schrodinger Suite 2024-2.
 50 52  0  0  1  0            999 V2000
    2.5248   50.1726   22.1019 C   0  0  0  0  0  0
    1.3968   51.0072   22.6900 C   0  0  0  0  0  0
    0.2564   50.4185   22.6376 N   0  0  0  0  0  0
   -0.8732   51.0045   23.1189 C   0  0  0  0  0  0
   -0.8876   52.1086   23.8961 C   0  0  0  0  0  0
    0.4493   52.7444   24.3024 C   0  0  2  0  0  0
    0.3348   53.8289   24.2434 H   0  0  0  0  0  0
    1.5178   52.3648   23.2385 C   0  0  0  0  0  0
    2.4699   53.2297   22.8006 C   0  0  0  0  0  0
    2.6319   54.4476   23.1955 O   0  5  0  0  0  0
    3.3533   52.8311   21.8368 O   0  0  0  0  0  0
    4.7326   53.2206   21.9312 C   0  0  0  0  0  0
    5.1046   54.2208   20.8442 C   0  0  0  0  0  0
    6.1511   55.1214   21.0670 C   0  0  0  0  0  0
    6.5277   56.0125   20.0659 C   0  0  0  0  0  0
    5.8522   56.0082   18.8477 C   0  0  0  0  0  0
    4.8082   55.1145   18.6179 C   0  0  0  0  0  0
    4.4375   54.2158   19.6151 C   0  0  0  0  0  0
    0.9034   52.5137   25.7553 C   0  0  0  0  0  0
    1.9031   53.3344   26.2930 C   0  0  0  0  0  0
    2.2966   53.1999   27.6196 C   0  0  0  0  0  0
    1.6844   52.2457   28.4252 C   0  0  0  0  0  0
    0.6884   51.4198   27.9074 C   0  0  0  0  0  0
    0.3054   51.5450   26.5739 C   0  0  0  0  0  0
    2.1663   52.0996   30.0753 Cl  0  0  0  0  0  0
   -2.1221   52.6158   24.3966 C   0  0  0  0  0  0
   -3.1541   52.9647   24.7872 N   0  0  0  0  0  0
   -2.3064   50.0553   22.6578 S   0  0  0  0  0  0
   -2.5771   49.0578   24.1609 C   0  0  0  0  0  0
   -1.4337   48.0864   24.4652 C   0  0  0  0  0  0
   -1.0442   47.2967   23.6141 O   0  0  0  0  0  0
   -0.8983   48.0970   25.6817 N   0  0  0  0  0  0
    3.4949   50.4799   22.4813 H   0  0  0  0  0  0
    2.4144   49.1142   22.3442 H   0  0  0  0  0  0
    2.5485   50.2667   21.0165 H   0  0  0  0  0  0
    5.0081   53.5966   22.9197 H   0  0  0  0  0  0
    5.3360   52.3248   21.7797 H   0  0  0  0  0  0
    6.6804   55.1245   22.0092 H   0  0  0  0  0  0
    7.3454   56.6973   20.2261 H   0  0  0  0  0  0
    6.1432   56.7009   18.0712 H   0  0  0  0  0  0
    4.2899   55.1141   17.6702 H   0  0  0  0  0  0
    3.6305   53.5204   19.4313 H   0  0  0  0  0  0
    2.3740   54.0936   25.6887 H   0  0  0  0  0  0
    3.0676   53.8406   28.0213 H   0  0  0  0  0  0
    0.2030   50.6882   28.5357 H   0  0  0  0  0  0
   -0.4681   50.8946   26.1943 H   0  0  0  0  0  0
   -2.7668   49.7223   25.0046 H   0  0  0  0  0  0
   -3.4811   48.4684   24.0148 H   0  0  0  0  0  0
   -1.3248   48.5798   26.4639 H   0  0  0  0  0  0
   -0.1470   47.4517   25.9050 H   0  0  0  0  0  0
  1  2  1  0  0  0
  1 33  1  0  0  0
  1 34  1  0  0  0
  1 35  1  0  0  0
  2  8  1  0  0  0
  2  3  2  0  0  0
  3  4  1  0  0  0
  4  5  2  0  0  0
  4 28  1  0  0  0
  5  6  1  0  0  0
  5 26  1  0  0  0
  6  7  1  0  0  0
  6  8  1  0  0  0
  6 19  1  0  0  0
  8  9  2  0  0  0
  9 10  1  0  0  0
  9 11  1  0  0  0
 11 12  1  0  0  0
 12 13  1  0  0  0
 12 36  1  0  0  0
 12 37  1  0  0  0
 13 18  2  0  0  0
 13 14  1  0  0  0
 14 15  2  0  0  0
 14 38  1  0  0  0
 15 16  1  0  0  0
 15 39  1  0  0  0
 16 17  2  0  0  0
 16 40  1  0  0  0
 17 18  1  0  0  0
 17 41  1  0  0  0
 18 42  1  0  0  0
 19 24  2  0  0  0
 19 20  1  0  0  0
 20 21  2  0  0  0
 20 43  1  0  0  0
 21 22  1  0  0  0
 21 44  1  0  0  0
 22 23  2  0  0  0
 22 25  1  0  0  0
 23 24  1  0  0  0
 23 45  1  0  0  0
 24 46  1  0  0  0
 26 27  3  0  0  0
 28 29  1  0  0  0
 29 30  1  0  0  0
 29 47  1  0  0  0
 29 48  1  0  0  0
 30 31  2  0  0  0
 30 32  1  0  0  0
 32 49  1  0  0  0
 32 50  1  0  0  0
M  CHG  1  10  -1
M  END
> <i_i_glide_confnum>
271

> <i_i_glide_lignum>
3615

> <i_i_glide_posenum>
287

> <i_i_glide_rotatable_bonds>
8

> <i_m_Source_File_Index>
1517

> <b_m_subgroup_collapsed>
0

> <r_i_docking_score>
-5.6223

> <r_i_glide_ecoul>
-7.94605

> <r_i_glide_eff_state_penalty>
0

> <r_i_glide_einternal>
8.23872

> <r_i_glide_emodel>
-59.7461

> <r_i_glide_energy>
-44.3573

> <r_i_glide_erotb>
0.489134

> <r_i_glide_esite>
-0.145828

> <r_i_glide_evdw>
-36.4112

> <r_i_glide_gscore>
-5.6223

> <r_i_glide_hbond>
-0.421672

> <r_i_glide_ligand_efficiency>
-0.181365

> <r_i_glide_ligand_efficiency_ln>
-1.268

> <r_i_glide_ligand_efficiency_sa>
-0.569735

> <r_i_glide_lipo>
-1.95996

> <r_i_glide_metal>
0

> <r_i_glide_rewards>
-0.571506

> <s_i_glide_gridfile>
wee1_glide-grid

> <s_m_Source_File>
wee1_decoys_glide_SP.sdf

> <s_m_Source_Path>
/Users/zhangxujun/Desktop

> <s_m_entry_id>
1792

> <s_m_entry_name>
wee1_decoys_glide_SP.1517

> <s_m_subgroup_title>
wee1_decoys_glide_SP

> <s_m_subgroupid>
wee1_decoys_glide_SP


$$$$
