ZINC20709209_4181
                    3D
 Schrodinger Suite 2024-2.
 58 63  0  0  1  0            999 V2000
   -4.6497   54.2152   25.4600 C   0  0  0  0  0  0
   -4.0022   53.4637   24.4823 C   0  0  0  0  0  0
   -4.0444   52.0717   24.5351 C   0  0  0  0  0  0
   -4.7381   51.4242   25.5627 C   0  0  0  0  0  0
   -5.3956   52.1833   26.5262 C   0  0  0  0  0  0
   -5.3591   53.5779   26.4775 C   0  0  0  0  0  0
   -5.9423   51.2660   27.5810 C   0  0  0  0  0  0
   -5.8092   49.8885   26.9313 C   0  0  0  0  0  0
   -4.8374   50.0529   25.8549 N   0  0  0  0  0  0
   -4.6122   48.7248   24.6890 S   0  0  0  0  0  0
   -4.7684   47.4654   25.4261 O   0  0  0  0  0  0
   -5.4652   49.0259   23.5328 O   0  0  0  0  0  0
   -2.9079   48.8250   24.1634 C   0  0  0  0  0  0
   -1.8836   48.4022   25.0132 C   0  0  0  0  0  0
   -0.5553   48.5561   24.6214 C   0  0  0  0  0  0
   -0.2481   49.1781   23.4096 C   0  0  0  0  0  0
   -1.2755   49.6111   22.5453 C   0  0  0  0  0  0
   -2.6002   49.3922   22.9257 C   0  0  0  0  0  0
   -0.8855   50.3434   21.2692 C   0  0  2  0  0  0
   -0.6504   51.3706   21.5568 H   0  0  0  0  0  0
   -1.8010   50.3616   20.0605 C   0  0  0  0  0  0
   -1.0632   50.2999   18.9331 C   0  0  0  0  0  0
    0.4117   50.1089   19.2524 C   0  0  0  0  0  0
    0.3301   49.6370   20.7041 C   0  0  1  0  0  0
    0.1039   48.5674   20.6326 H   0  0  0  0  0  0
    1.5370   49.7067   21.6808 C   0  0  2  0  0  0
    2.2586   48.9500   21.3675 H   0  0  0  0  0  0
    1.1093   49.2924   23.0369 N   0  0  0  0  0  0
    2.3137   51.0308   21.6468 C   0  0  0  0  0  0
    2.1101   51.9904   22.6440 C   0  0  0  0  0  0
    2.9253   53.1211   22.7365 C   0  0  0  0  0  0
    3.9090   53.3319   21.7609 C   0  0  0  0  0  0
    4.0814   52.4149   20.7237 C   0  0  0  0  0  0
    3.2973   51.2637   20.6735 C   0  0  0  0  0  0
    3.5044   50.3430   19.6818 O   0  0  0  0  0  0
    2.7868   54.0256   23.8926 N   0  3  0  0  0  0
    1.6945   54.0970   24.4475 O   0  0  0  0  0  0
    3.7845   54.6274   24.2716 O   0  5  0  0  0  0
   -4.5725   55.2908   25.4393 H   0  0  0  0  0  0
   -3.4488   53.9584   23.6972 H   0  0  0  0  0  0
   -3.5155   51.5275   23.7783 H   0  0  0  0  0  0
   -5.8372   54.1712   27.2430 H   0  0  0  0  0  0
   -5.3676   51.3062   28.5071 H   0  0  0  0  0  0
   -6.9849   51.4816   27.8166 H   0  0  0  0  0  0
   -6.7620   49.5941   26.4878 H   0  0  0  0  0  0
   -5.5280   49.0888   27.6182 H   0  0  0  0  0  0
   -2.1074   47.9702   25.9807 H   0  0  0  0  0  0
    0.2308   48.2134   25.2800 H   0  0  0  0  0  0
   -3.3991   49.7220   22.2781 H   0  0  0  0  0  0
   -2.8675   50.5174   20.1236 H   0  0  0  0  0  0
   -1.4300   50.3602   17.9186 H   0  0  0  0  0  0
    0.9739   51.0348   19.1297 H   0  0  0  0  0  0
    0.8857   49.3541   18.6226 H   0  0  0  0  0  0
    1.8455   48.9322   23.6339 H   0  0  0  0  0  0
    1.3613   51.8176   23.4048 H   0  0  0  0  0  0
    4.5474   54.2026   21.8083 H   0  0  0  0  0  0
    4.8397   52.5861   19.9734 H   0  0  0  0  0  0
    4.2185   50.4967   19.0218 H   0  0  0  0  0  0
  1  6  2  0  0  0
  1  2  1  0  0  0
  1 39  1  0  0  0
  2  3  2  0  0  0
  2 40  1  0  0  0
  3  4  1  0  0  0
  3 41  1  0  0  0
  4  9  1  0  0  0
  4  5  2  0  0  0
  5  6  1  0  0  0
  5  7  1  0  0  0
  6 42  1  0  0  0
  7  8  1  0  0  0
  7 43  1  0  0  0
  7 44  1  0  0  0
  8  9  1  0  0  0
  8 45  1  0  0  0
  8 46  1  0  0  0
  9 10  1  0  0  0
 10 11  2  0  0  0
 10 12  2  0  0  0
 10 13  1  0  0  0
 13 18  2  0  0  0
 13 14  1  0  0  0
 14 15  2  0  0  0
 14 47  1  0  0  0
 15 16  1  0  0  0
 15 48  1  0  0  0
 16 28  1  0  0  0
 16 17  2  0  0  0
 17 18  1  0  0  0
 17 19  1  0  0  0
 18 49  1  0  0  0
 19 20  1  0  0  0
 19 24  1  0  0  0
 19 21  1  0  0  0
 21 22  2  0  0  0
 21 50  1  0  0  0
 22 23  1  0  0  0
 22 51  1  0  0  0
 23 24  1  0  0  0
 23 52  1  0  0  0
 23 53  1  0  0  0
 24 25  1  0  0  0
 24 26  1  0  0  0
 26 27  1  0  0  0
 26 28  1  0  0  0
 26 29  1  0  0  0
 28 54  1  0  0  0
 29 34  2  0  0  0
 29 30  1  0  0  0
 30 31  2  0  0  0
 30 55  1  0  0  0
 31 32  1  0  0  0
 31 36  1  0  0  0
 32 33  2  0  0  0
 32 56  1  0  0  0
 33 34  1  0  0  0
 33 57  1  0  0  0
 34 35  1  0  0  0
 35 58  1  0  0  0
 36 37  2  0  0  0
 36 38  1  0  0  0
M  CHG  2  36   1  38  -1
M  END
> <i_i_glide_confnum>
2

> <i_i_glide_lignum>
4182

> <i_i_glide_posenum>
318

> <i_i_glide_rotatable_bonds>
5

> <i_m_Source_File_Index>
3852

> <b_m_subgroup_collapsed>
0

> <r_i_docking_score>
-3.46172

> <r_i_glide_ecoul>
-9.56923

> <r_i_glide_eff_state_penalty>
0

> <r_i_glide_einternal>
3.83656

> <r_i_glide_emodel>
-42.0157

> <r_i_glide_energy>
-37.4493

> <r_i_glide_erotb>
0.254671

> <r_i_glide_esite>
-0.0236581

> <r_i_glide_evdw>
-27.88

> <r_i_glide_gscore>
-3.46172

> <r_i_glide_hbond>
-0.536745

> <r_i_glide_ligand_efficiency>
-0.0989063

> <r_i_glide_ligand_efficiency_ln>
-0.759925

> <r_i_glide_ligand_efficiency_sa>
-0.323529

> <r_i_glide_lipo>
-0.840462

> <r_i_glide_metal>
0

> <r_i_glide_rewards>
0.513859

> <s_i_glide_gridfile>
wee1_glide-grid

> <s_m_Source_File>
wee1_decoys_glide_SP.sdf

> <s_m_Source_Path>
/Users/zhangxujun/Desktop

> <s_m_entry_id>
4127

> <s_m_entry_name>
wee1_decoys_glide_SP.3852

> <s_m_subgroup_title>
wee1_decoys_glide_SP

> <s_m_subgroupid>
wee1_decoys_glide_SP


$$$$
