ZINC13124155_2169
                    3D
 Schrodinger Suite 2024-2.
 49 52  0  0  1  0            999 V2000
   -2.9197   49.2904   25.8688 C   0  0  0  0  0  0
   -4.0621   48.5241   25.6581 C   0  0  0  0  0  0
   -5.0876   49.0206   24.8578 C   0  0  0  0  0  0
   -4.9805   50.2788   24.2701 C   0  0  0  0  0  0
   -3.8395   51.0478   24.4861 C   0  0  0  0  0  0
   -2.8064   50.5587   25.2933 C   0  0  0  0  0  0
   -1.5535   51.4025   25.5158 C   0  0  2  0  0  0
   -1.8362   52.3932   25.1578 H   0  0  0  0  0  0
   -0.3514   50.8730   24.6945 C   0  0  0  0  0  0
    0.8892   51.8032   24.7552 C   0  0  2  0  0  0
    1.7830   51.2373   24.4867 H   0  0  0  0  0  0
    1.0189   52.2596   26.1501 N   0  0  0  0  0  0
    0.0581   52.1905   27.1417 C   0  0  0  0  0  0
    0.6455   52.7598   28.2579 C   0  0  0  0  0  0
    1.9320   53.1692   27.8673 C   0  0  0  0  0  0
    2.1163   52.8965   26.5876 N   0  0  0  0  0  0
    2.8883   53.8718   28.6999 C   0  0  0  0  0  0
    2.5553   54.4765   29.7210 O   0  0  0  0  0  0
    4.1423   53.8507   28.2183 N   0  0  0  0  0  0
    5.2641   54.6910   28.6390 C   0  0  0  0  0  0
    6.0652   55.2559   27.4250 C   0  0  2  0  0  0
    6.7019   56.0965   27.6816 H   0  0  0  0  0  0
    5.3974   55.3247   26.0372 C   0  0  0  0  0  0
    5.6565   54.0004   25.3569 C   0  0  0  0  0  0
    6.6531   53.3118   26.2777 C   0  0  0  0  0  0
    7.1043   54.3232   27.1561 O   0  0  0  0  0  0
   -1.1642   51.5817   26.9205 N   0  0  0  0  0  0
    0.8137   52.9610   23.7358 C   0  0  0  0  0  0
    0.7265   52.5010   22.4871 F   0  0  0  0  0  0
   -0.2681   53.6968   23.9558 F   0  0  0  0  0  0
    1.8736   53.7688   23.7896 F   0  0  0  0  0  0
   -6.1928   48.2728   24.6437 F   0  0  0  0  0  0
   -2.1211   48.8988   26.4816 H   0  0  0  0  0  0
   -4.1494   47.5504   26.1169 H   0  0  0  0  0  0
   -5.7818   50.6541   23.6509 H   0  0  0  0  0  0
   -3.7635   52.0221   24.0249 H   0  0  0  0  0  0
   -0.6508   50.7234   23.6562 H   0  0  0  0  0  0
   -0.0748   49.8724   25.0323 H   0  0  0  0  0  0
    0.2009   52.8661   29.2364 H   0  0  0  0  0  0
    4.3397   53.1889   27.4811 H   0  0  0  0  0  0
    5.9210   54.1050   29.2816 H   0  0  0  0  0  0
    4.9041   55.5055   29.2680 H   0  0  0  0  0  0
    5.8701   56.1211   25.4628 H   0  0  0  0  0  0
    4.3421   55.5952   26.0829 H   0  0  0  0  0  0
    6.0725   54.1456   24.3592 H   0  0  0  0  0  0
    4.7435   53.4140   25.2538 H   0  0  0  0  0  0
    7.5041   52.8967   25.7435 H   0  0  0  0  0  0
    6.2015   52.5232   26.8818 H   0  0  0  0  0  0
   -1.9478   51.8852   27.4794 H   0  0  0  0  0  0
  1  6  2  0  0  0
  1  2  1  0  0  0
  1 33  1  0  0  0
  2  3  2  0  0  0
  2 34  1  0  0  0
  3  4  1  0  0  0
  3 32  1  0  0  0
  4  5  2  0  0  0
  4 35  1  0  0  0
  5  6  1  0  0  0
  5 36  1  0  0  0
  6  7  1  0  0  0
  7  8  1  0  0  0
  7 27  1  0  0  0
  7  9  1  0  0  0
  9 10  1  0  0  0
  9 37  1  0  0  0
  9 38  1  0  0  0
 10 11  1  0  0  0
 10 12  1  0  0  0
 10 28  1  0  0  0
 12 16  1  0  0  0
 12 13  1  0  0  0
 13 14  2  0  0  0
 13 27  1  0  0  0
 14 15  1  0  0  0
 14 39  1  0  0  0
 15 16  2  0  0  0
 15 17  1  0  0  0
 17 18  2  0  0  0
 17 19  1  0  0  0
 19 20  1  0  0  0
 19 40  1  0  0  0
 20 21  1  0  0  0
 20 41  1  0  0  0
 20 42  1  0  0  0
 21 22  1  0  0  0
 21 26  1  0  0  0
 21 23  1  0  0  0
 23 24  1  0  0  0
 23 43  1  0  0  0
 23 44  1  0  0  0
 24 25  1  0  0  0
 24 45  1  0  0  0
 24 46  1  0  0  0
 25 26  1  0  0  0
 25 47  1  0  0  0
 25 48  1  0  0  0
 27 49  1  0  0  0
 28 29  1  0  0  0
 28 30  1  0  0  0
 28 31  1  0  0  0
M  END
> <i_i_glide_confnum>
58

> <i_i_glide_lignum>
2170

> <i_i_glide_posenum>
80

> <i_i_glide_rotatable_bonds>
6

> <i_m_Source_File_Index>
3203

> <b_m_subgroup_collapsed>
0

> <r_i_docking_score>
-4.96477

> <r_i_glide_ecoul>
-5.20185

> <r_i_glide_eff_state_penalty>
0

> <r_i_glide_einternal>
15.4194

> <r_i_glide_emodel>
-36.1642

> <r_i_glide_energy>
-32.1179

> <r_i_glide_erotb>
0.463803

> <r_i_glide_esite>
-0.0506321

> <r_i_glide_evdw>
-26.9161

> <r_i_glide_gscore>
-4.96477

> <r_i_glide_hbond>
-0.299256

> <r_i_glide_ligand_efficiency>
-0.171199

> <r_i_glide_ligand_efficiency_ln>
-1.13681

> <r_i_glide_ligand_efficiency_sa>
-0.525978

> <r_i_glide_lipo>
-1.39959

> <r_i_glide_metal>
0

> <r_i_glide_rewards>
-1.55302

> <s_i_glide_gridfile>
wee1_glide-grid

> <s_m_Source_File>
wee1_decoys_glide_SP.sdf

> <s_m_Source_Path>
/Users/zhangxujun/Desktop

> <s_m_entry_id>
3478

> <s_m_entry_name>
wee1_decoys_glide_SP.3203

> <s_m_subgroup_title>
wee1_decoys_glide_SP

> <s_m_subgroupid>
wee1_decoys_glide_SP


$$$$
