ZINC19853735_4124
                    3D
 Schrodinger Suite 2024-2.
 49 51  0  0  1  0            999 V2000
    2.9452   54.0602   24.4200 C   0  0  0  0  0  0
    3.2728   53.8593   25.9021 C   0  0  0  0  0  0
    4.5109   54.2968   26.4473 C   0  0  0  0  0  0
    4.7292   54.1259   27.8316 C   0  0  0  0  0  0
    3.8145   53.5851   28.6589 N   0  0  0  0  0  0
    2.6635   53.1533   28.1090 C   0  0  0  0  0  0
    2.3431   53.2375   26.7690 C   0  0  0  0  0  0
    1.0331   52.5532   26.6248 C   0  0  0  0  0  0
    0.3934   52.3311   25.4526 C   0  0  0  0  0  0
   -0.8958   51.6539   25.2751 C   0  0  0  0  0  0
   -2.0953   52.2899   25.6046 C   0  0  0  0  0  0
   -3.3147   51.6291   25.4519 C   0  0  0  0  0  0
   -3.3374   50.3062   24.9739 C   0  0  0  0  0  0
   -2.1361   49.6821   24.6139 C   0  0  0  0  0  0
   -0.9257   50.3586   24.7562 C   0  0  0  0  0  0
   -2.1100   47.7143   23.8911 I   0  0  0  0  0  0
   -4.5177   49.6027   24.8701 O   0  0  0  0  0  0
   -5.1371   49.2003   26.0958 C   0  0  0  0  0  0
   -4.2283   48.3694   26.9913 C   0  0  0  0  0  0
   -4.4920   47.1297   27.4317 C   0  0  0  0  0  0
   -4.4621   52.2925   25.8145 O   0  0  0  0  0  0
   -5.2587   52.7299   24.7213 C   0  0  0  0  0  0
    0.6284   52.1450   27.9830 C   0  0  0  0  0  0
    1.6023   52.5067   28.8391 C   0  0  0  0  0  0
    1.6455   52.2765   30.2442 C   0  0  0  0  0  0
    1.7559   52.0973   31.3810 N   0  0  0  0  0  0
   -0.6170   51.3673   28.3826 C   0  0  0  0  0  0
    5.9042   54.4967   28.4790 N   0  0  0  0  0  0
    5.5629   54.8933   25.6170 C   0  0  0  0  0  0
    6.3973   55.3646   24.9691 N   0  0  0  0  0  0
    3.6103   54.7479   23.8985 H   0  0  0  0  0  0
    2.9589   53.1055   23.8933 H   0  0  0  0  0  0
    1.9521   54.4969   24.3184 H   0  0  0  0  0  0
    0.8277   52.6580   24.5259 H   0  0  0  0  0  0
   -2.0878   53.2956   26.0000 H   0  0  0  0  0  0
   -0.0047   49.8564   24.4947 H   0  0  0  0  0  0
   -6.0269   48.6230   25.8426 H   0  0  0  0  0  0
   -5.4916   50.0693   26.6508 H   0  0  0  0  0  0
   -3.2958   48.8326   27.2814 H   0  0  0  0  0  0
   -5.4061   46.6169   27.1721 H   0  0  0  0  0  0
   -3.7820   46.6143   28.0641 H   0  0  0  0  0  0
   -6.1344   53.2572   25.0994 H   0  0  0  0  0  0
   -4.7066   53.4206   24.0823 H   0  0  0  0  0  0
   -5.6133   51.8970   24.1115 H   0  0  0  0  0  0
   -0.7647   50.5059   27.7309 H   0  0  0  0  0  0
   -0.5488   50.9859   29.4017 H   0  0  0  0  0  0
   -1.4994   52.0027   28.3271 H   0  0  0  0  0  0
    6.6278   54.9970   27.9837 H   0  0  0  0  0  0
    5.9634   54.3894   29.4800 H   0  0  0  0  0  0
  1  2  1  0  0  0
  1 31  1  0  0  0
  1 32  1  0  0  0
  1 33  1  0  0  0
  2  7  2  0  0  0
  2  3  1  0  0  0
  3  4  2  0  0  0
  3 29  1  0  0  0
  4  5  1  0  0  0
  4 28  1  0  0  0
  5  6  2  0  0  0
  6 24  1  0  0  0
  6  7  1  0  0  0
  7  8  1  0  0  0
  8  9  2  0  0  0
  8 23  1  0  0  0
  9 10  1  0  0  0
  9 34  1  0  0  0
 10 15  2  0  0  0
 10 11  1  0  0  0
 11 12  2  0  0  0
 11 35  1  0  0  0
 12 13  1  0  0  0
 12 21  1  0  0  0
 13 14  2  0  0  0
 13 17  1  0  0  0
 14 15  1  0  0  0
 14 16  1  0  0  0
 15 36  1  0  0  0
 17 18  1  0  0  0
 18 19  1  0  0  0
 18 37  1  0  0  0
 18 38  1  0  0  0
 19 20  2  0  0  0
 19 39  1  0  0  0
 20 40  1  0  0  0
 20 41  1  0  0  0
 21 22  1  0  0  0
 22 42  1  0  0  0
 22 43  1  0  0  0
 22 44  1  0  0  0
 23 24  2  0  0  0
 23 27  1  0  0  0
 24 25  1  0  0  0
 25 26  3  0  0  0
 27 45  1  0  0  0
 27 46  1  0  0  0
 27 47  1  0  0  0
 28 48  1  0  0  0
 28 49  1  0  0  0
 29 30  3  0  0  0
M  END
> <i_i_glide_confnum>
6

> <i_i_glide_lignum>
4125

> <i_i_glide_posenum>
335

> <i_i_glide_rotatable_bonds>
7

> <i_m_Source_File_Index>
4637

> <b_m_subgroup_collapsed>
0

> <r_i_docking_score>
-4.65742

> <r_i_glide_ecoul>
-3.67488

> <r_i_glide_eff_state_penalty>
0

> <r_i_glide_einternal>
10.067

> <r_i_glide_emodel>
-46.7049

> <r_i_glide_energy>
-40.9066

> <r_i_glide_erotb>
0.314641

> <r_i_glide_esite>
-0.0154595

> <r_i_glide_evdw>
-37.2317

> <r_i_glide_gscore>
-4.65742

> <r_i_glide_hbond>
-0.109168

> <r_i_glide_ligand_efficiency>
-0.155247

> <r_i_glide_ligand_efficiency_ln>
-1.05822

> <r_i_glide_ligand_efficiency_sa>
-0.48239

> <r_i_glide_lipo>
-1.85645

> <r_i_glide_metal>
0

> <r_i_glide_rewards>
-0.578166

> <s_i_glide_gridfile>
wee1_glide-grid

> <s_m_Source_File>
wee1_decoys_glide_SP.sdf

> <s_m_Source_Path>
/Users/zhangxujun/Desktop

> <s_m_entry_id>
4912

> <s_m_entry_name>
wee1_decoys_glide_SP.4637

> <s_m_subgroup_title>
wee1_decoys_glide_SP

> <s_m_subgroupid>
wee1_decoys_glide_SP


$$$$
