ZINC39676951_393
                    3D
 Schrodinger Suite 2024-2.
 77 80  0  0  1  0            999 V2000
    7.8727   60.4434   15.6444 C   0  0  0  0  0  0
    8.3667   59.0147   15.7899 C   0  0  0  0  0  0
    9.2965   58.4899   14.8919 C   0  0  0  0  0  0
    9.7247   57.1680   15.0174 C   0  0  0  0  0  0
    9.2362   56.3510   16.0415 C   0  0  0  0  0  0
    8.3039   56.8801   16.9530 C   0  0  0  0  0  0
    7.8760   58.2082   16.8118 C   0  0  0  0  0  0
    7.7547   56.0616   18.1197 C   0  0  0  0  0  0
    8.6992   56.0437   19.3379 C   0  0  0  0  0  0
    8.1853   55.2974   20.4846 N   0  0  0  0  0  0
    7.1571   55.6815   21.2585 C   0  0  0  0  0  0
    6.5808   56.7563   21.0802 O   0  0  0  0  0  0
    6.7568   54.7218   22.4093 C   0  0  1  0  0  0
    7.5752   54.0160   22.5377 H   0  0  0  0  0  0
    6.7059   55.5254   23.7241 C   0  0  0  0  0  0
    5.7142   54.8236   24.5451 N   0  0  0  0  0  0
    5.0211   53.7895   23.7771 C   0  0  0  0  0  0
    5.3885   53.9638   22.2944 C   0  0  0  0  0  0
    5.4562   52.5673   21.6407 C   0  0  0  0  0  0
    5.5031   52.5933   20.0946 C   0  0  0  0  0  0
    4.2882   53.3363   19.5298 N   0  3  0  0  0  0
    4.2984   54.7664   20.0724 C   0  0  0  0  0  0
    4.1621   54.6628   21.6170 C   0  0  0  0  0  0
    5.7925   54.8572   25.9031 C   0  0  0  0  0  0
    6.7043   55.4511   26.4758 O   0  0  0  0  0  0
    4.7612   54.1312   26.7494 C   0  0  0  0  0  0
    3.4150   54.0563   26.3708 C   0  0  0  0  0  0
    2.4903   53.2917   27.0955 C   0  0  0  0  0  0
    2.8898   52.6900   28.2996 C   0  0  0  0  0  0
    4.2264   52.8004   28.7187 C   0  0  0  0  0  0
    5.1419   53.5214   27.9518 C   0  0  0  0  0  0
    4.7044   52.0932   29.7954 O   0  0  0  0  0  0
    4.2302   52.4962   31.0703 C   0  0  0  0  0  0
    2.0294   51.8866   29.0179 O   0  0  0  0  0  0
    0.9044   52.5447   29.5931 C   0  0  0  0  0  0
    1.2072   53.0534   26.6445 O   0  0  0  0  0  0
    0.9661   53.0844   25.2403 C   0  0  0  0  0  0
    9.7231   54.9088   16.1334 C   0  0  0  0  0  0
    8.1702   60.8922   14.6995 H   0  0  0  0  0  0
    8.2400   61.0616   16.4593 H   0  0  0  0  0  0
    6.7851   60.4645   15.6950 H   0  0  0  0  0  0
    9.6877   59.1003   14.0946 H   0  0  0  0  0  0
   10.4460   56.7823   14.3133 H   0  0  0  0  0  0
    7.1601   58.6216   17.5033 H   0  0  0  0  0  0
    6.7808   56.4687   18.3985 H   0  0  0  0  0  0
    7.5393   55.0443   17.7942 H   0  0  0  0  0  0
    9.6604   55.6357   19.0425 H   0  0  0  0  0  0
    8.9602   57.0613   19.6240 H   0  0  0  0  0  0
    8.6557   54.4277   20.6904 H   0  0  0  0  0  0
    7.6914   55.5575   24.1846 H   0  0  0  0  0  0
    6.3044   56.5042   23.5241 H   0  0  0  0  0  0
    3.9785   53.5631   23.9751 H   0  0  0  0  0  0
    5.5382   52.8985   24.1104 H   0  0  0  0  0  0
    6.2871   52.0119   22.0817 H   0  0  0  0  0  0
    4.5636   51.9963   21.9117 H   0  0  0  0  0  0
    6.3286   53.1301   19.6500 H   0  0  0  0  0  0
    5.4443   51.6076   19.6819 H   0  0  0  0  0  0
    4.3272   53.3396   18.5174 H   0  0  0  0  0  0
    5.2113   55.2128   19.6982 H   0  0  0  0  0  0
    3.5026   55.2880   19.5630 H   0  0  0  0  0  0
    3.2607   54.0813   21.8202 H   0  0  0  0  0  0
    3.9065   55.6036   22.0817 H   0  0  0  0  0  0
    3.0905   54.5803   25.4890 H   0  0  0  0  0  0
    6.1738   53.5558   28.2773 H   0  0  0  0  0  0
    4.7255   51.9708   31.8786 H   0  0  0  0  0  0
    4.3039   53.5732   31.2235 H   0  0  0  0  0  0
    3.1785   52.2405   31.1910 H   0  0  0  0  0  0
    0.4524   51.8896   30.3353 H   0  0  0  0  0  0
    1.1879   53.4659   30.1002 H   0  0  0  0  0  0
    0.1406   52.7720   28.8531 H   0  0  0  0  0  0
   -0.0544   52.7567   25.0421 H   0  0  0  0  0  0
    1.0655   54.0868   24.8231 H   0  0  0  0  0  0
    1.6368   52.4030   24.7132 H   0  0  0  0  0  0
    8.8792   54.2194   16.1596 H   0  0  0  0  0  0
   10.3395   54.6271   15.2814 H   0  0  0  0  0  0
   10.3062   54.7523   17.0395 H   0  0  0  0  0  0
    3.4341   52.8605   19.7877 H   0  0  0  0  0  0
  1  2  1  0  0  0
  1 39  1  0  0  0
  1 40  1  0  0  0
  1 41  1  0  0  0
  2  7  2  0  0  0
  2  3  1  0  0  0
  3  4  2  0  0  0
  3 42  1  0  0  0
  4  5  1  0  0  0
  4 43  1  0  0  0
  5  6  2  0  0  0
  5 38  1  0  0  0
  6  7  1  0  0  0
  6  8  1  0  0  0
  7 44  1  0  0  0
  8  9  1  0  0  0
  8 45  1  0  0  0
  8 46  1  0  0  0
  9 10  1  0  0  0
  9 47  1  0  0  0
  9 48  1  0  0  0
 10 11  1  0  0  0
 10 49  1  0  0  0
 11 12  2  0  0  0
 11 13  1  0  0  0
 13 14  1  0  0  0
 13 18  1  0  0  0
 13 15  1  0  0  0
 15 16  1  0  0  0
 15 50  1  0  0  0
 15 51  1  0  0  0
 16 17  1  0  0  0
 16 24  1  0  0  0
 17 18  1  0  0  0
 17 52  1  0  0  0
 17 53  1  0  0  0
 18 23  1  0  0  0
 18 19  1  0  0  0
 19 20  1  0  0  0
 19 54  1  0  0  0
 19 55  1  0  0  0
 20 21  1  0  0  0
 20 56  1  0  0  0
 20 57  1  0  0  0
 21 22  1  0  0  0
 21 58  1  0  0  0
 21 77  1  0  0  0
 22 23  1  0  0  0
 22 59  1  0  0  0
 22 60  1  0  0  0
 23 61  1  0  0  0
 23 62  1  0  0  0
 24 25  2  0  0  0
 24 26  1  0  0  0
 26 31  2  0  0  0
 26 27  1  0  0  0
 27 28  2  0  0  0
 27 63  1  0  0  0
 28 29  1  0  0  0
 28 36  1  0  0  0
 29 30  2  0  0  0
 29 34  1  0  0  0
 30 31  1  0  0  0
 30 32  1  0  0  0
 31 64  1  0  0  0
 32 33  1  0  0  0
 33 65  1  0  0  0
 33 66  1  0  0  0
 33 67  1  0  0  0
 34 35  1  0  0  0
 35 68  1  0  0  0
 35 69  1  0  0  0
 35 70  1  0  0  0
 36 37  1  0  0  0
 37 71  1  0  0  0
 37 72  1  0  0  0
 37 73  1  0  0  0
 38 74  1  0  0  0
 38 75  1  0  0  0
 38 76  1  0  0  0
M  CHG  1  21   1
M  END
> <i_i_glide_confnum>
87

> <i_i_glide_lignum>
394

> <i_i_glide_posenum>
1

> <i_i_glide_rotatable_bonds>
10

> <i_m_Source_File_Index>
560

> <b_m_subgroup_collapsed>
0

> <r_i_docking_score>
-6.62329

> <r_i_glide_ecoul>
-7.642

> <r_i_glide_eff_state_penalty>
0

> <r_i_glide_einternal>
8.77753

> <r_i_glide_emodel>
-52.2885

> <r_i_glide_energy>
-38.9471

> <r_i_glide_erotb>
0.549992

> <r_i_glide_esite>
-0.0307658

> <r_i_glide_evdw>
-31.3051

> <r_i_glide_gscore>
-6.62329

> <r_i_glide_hbond>
-0.608

> <r_i_glide_ligand_efficiency>
-0.179008

> <r_i_glide_ligand_efficiency_ln>
-1.43644

> <r_i_glide_ligand_efficiency_sa>
-0.596494

> <r_i_glide_lipo>
-2.69032

> <r_i_glide_metal>
0

> <r_i_glide_rewards>
-1.13264

> <s_i_glide_gridfile>
wee1_glide-grid

> <s_m_Source_File>
wee1_decoys_glide_SP.sdf

> <s_m_Source_Path>
/Users/zhangxujun/Desktop

> <s_m_entry_id>
835

> <s_m_entry_name>
wee1_decoys_glide_SP.560

> <s_m_subgroup_title>
wee1_decoys_glide_SP

> <s_m_subgroupid>
wee1_decoys_glide_SP


$$$$
