ZINC63491110_142
                    3D
 Schrodinger Suite 2024-2.
 56 59  0  0  1  0            999 V2000
    4.3665   54.4412   28.5883 C   0  0  0  0  0  0
    3.2418   53.7928   29.1746 O   0  0  0  0  0  0
    2.2826   53.2139   28.3560 C   0  0  0  0  0  0
    2.3094   53.2869   26.9534 C   0  0  0  0  0  0
    1.3281   52.6582   26.1877 C   0  0  0  0  0  0
    0.2880   51.9514   26.8051 C   0  0  0  0  0  0
    0.2425   51.9126   28.2012 C   0  0  0  0  0  0
    1.2297   52.5320   28.9842 C   0  0  0  0  0  0
    1.2438   52.4833   30.3650 O   0  0  0  0  0  0
    0.0370   52.2183   31.0722 C   0  0  0  0  0  0
   -0.7947   51.1862   26.0309 C   0  0  2  0  0  0
   -1.0472   50.2724   26.5738 H   0  0  0  0  0  0
   -0.4589   50.8651   24.6476 N   0  0  0  0  0  0
   -0.7007   51.8495   23.7035 C   0  0  0  0  0  0
   -1.9249   52.6292   24.1457 C   0  0  0  0  0  0
   -2.2935   52.1610   25.8463 S   0  0  0  0  0  0
    0.0268   52.0943   22.5896 C   0  0  0  0  0  0
    1.1816   51.3353   22.1681 C   0  0  0  0  0  0
    1.7659   50.5177   22.8808 O   0  0  0  0  0  0
    1.5356   51.5880   20.8964 N   0  0  0  0  0  0
    2.5856   50.8654   20.1834 C   0  0  0  0  0  0
    4.0106   51.2763   20.5849 C   0  0  0  0  0  0
    4.4585   52.6634   20.1645 C   0  0  0  0  0  0
    5.1030   53.6207   20.8540 C   0  0  0  0  0  0
    5.5054   53.6804   22.2669 C   0  0  0  0  0  0
    6.3039   54.6725   22.7102 C   0  0  0  0  0  0
    6.7183   55.6941   21.7569 C   0  0  0  0  0  0
    6.3056   55.6855   20.4628 C   0  0  0  0  0  0
    5.5034   54.6424   19.9867 C   0  0  0  0  0  0
    5.0548   54.4222   18.7746 N   0  3  0  0  0  0
    4.3164   53.1503   18.7371 C   0  0  0  0  0  0
    5.0158   54.8262   29.3756 H   0  0  0  0  0  0
    4.0633   55.2874   27.9708 H   0  0  0  0  0  0
    4.9565   53.7501   27.9817 H   0  0  0  0  0  0
    3.1007   53.8066   26.4376 H   0  0  0  0  0  0
    1.4024   52.7144   25.1132 H   0  0  0  0  0  0
   -0.5601   51.3570   28.6644 H   0  0  0  0  0  0
    0.3044   52.1437   32.1248 H   0  0  0  0  0  0
   -0.6564   53.0500   30.9622 H   0  0  0  0  0  0
   -0.4898   51.2985   30.7992 H   0  0  0  0  0  0
    0.2610   50.1647   24.5239 H   0  0  0  0  0  0
   -2.7882   52.3868   23.5250 H   0  0  0  0  0  0
   -1.7260   53.6970   24.0817 H   0  0  0  0  0  0
   -0.2702   52.8963   21.9336 H   0  0  0  0  0  0
    1.0401   52.3035   20.3860 H   0  0  0  0  0  0
    2.4573   49.7896   20.3335 H   0  0  0  0  0  0
    2.4432   51.0294   19.1138 H   0  0  0  0  0  0
    4.1727   51.1230   21.6521 H   0  0  0  0  0  0
    4.6953   50.5979   20.0817 H   0  0  0  0  0  0
    5.1868   52.9283   22.9753 H   0  0  0  0  0  0
    6.6155   54.7208   23.7431 H   0  0  0  0  0  0
    7.3815   56.4771   22.0901 H   0  0  0  0  0  0
    6.6440   56.4676   19.7980 H   0  0  0  0  0  0
    4.7926   52.4972   18.0027 H   0  0  0  0  0  0
    3.2853   53.3589   18.4435 H   0  0  0  0  0  0
    5.2196   55.0132   17.9627 H   0  0  0  0  0  0
  1  2  1  0  0  0
  1 32  1  0  0  0
  1 33  1  0  0  0
  1 34  1  0  0  0
  2  3  1  0  0  0
  3  8  2  0  0  0
  3  4  1  0  0  0
  4  5  2  0  0  0
  4 35  1  0  0  0
  5  6  1  0  0  0
  5 36  1  0  0  0
  6  7  2  0  0  0
  6 11  1  0  0  0
  7  8  1  0  0  0
  7 37  1  0  0  0
  8  9  1  0  0  0
  9 10  1  0  0  0
 10 38  1  0  0  0
 10 39  1  0  0  0
 10 40  1  0  0  0
 11 12  1  0  0  0
 11 16  1  0  0  0
 11 13  1  0  0  0
 13 14  1  0  0  0
 13 41  1  0  0  0
 14 17  2  0  0  0
 14 15  1  0  0  0
 15 16  1  0  0  0
 15 42  1  0  0  0
 15 43  1  0  0  0
 17 18  1  0  0  0
 17 44  1  0  0  0
 18 19  2  0  0  0
 18 20  1  0  0  0
 20 21  1  0  0  0
 20 45  1  0  0  0
 21 22  1  0  0  0
 21 46  1  0  0  0
 21 47  1  0  0  0
 22 23  1  0  0  0
 22 48  1  0  0  0
 22 49  1  0  0  0
 23 31  1  0  0  0
 23 24  2  0  0  0
 24 29  1  0  0  0
 24 25  1  0  0  0
 25 26  2  0  0  0
 25 50  1  0  0  0
 26 27  1  0  0  0
 26 51  1  0  0  0
 27 28  2  0  0  0
 27 52  1  0  0  0
 28 29  1  0  0  0
 28 53  1  0  0  0
 29 30  2  0  0  0
 30 31  1  0  0  0
 30 56  1  0  0  0
 31 54  1  0  0  0
 31 55  1  0  0  0
M  CHG  1  30   1
M  END
> <i_i_glide_confnum>
2

> <i_i_glide_lignum>
143

> <i_i_glide_posenum>
156

> <i_i_glide_rotatable_bonds>
8

> <i_m_Source_File_Index>
3374

> <b_m_subgroup_collapsed>
0

> <r_i_docking_score>
-4.48009

> <r_i_glide_ecoul>
-1.90968

> <r_i_glide_eff_state_penalty>
0

> <r_i_glide_einternal>
7.27252

> <r_i_glide_emodel>
-51.7475

> <r_i_glide_energy>
-41.639

> <r_i_glide_erotb>
0.550104

> <r_i_glide_esite>
-0.0155283

> <r_i_glide_evdw>
-39.7293

> <r_i_glide_gscore>
-4.48009

> <r_i_glide_hbond>
0

> <r_i_glide_ligand_efficiency>
-0.149336

> <r_i_glide_ligand_efficiency_ln>
-1.01793

> <r_i_glide_ligand_efficiency_sa>
-0.464023

> <r_i_glide_lipo>
-2.14041

> <r_i_glide_metal>
0

> <r_i_glide_rewards>
-0.601344

> <s_i_glide_gridfile>
wee1_glide-grid

> <s_m_Source_File>
wee1_decoys_glide_SP.sdf

> <s_m_Source_Path>
/Users/zhangxujun/Desktop

> <s_m_entry_id>
3649

> <s_m_entry_name>
wee1_decoys_glide_SP.3374

> <s_m_subgroup_title>
wee1_decoys_glide_SP

> <s_m_subgroupid>
wee1_decoys_glide_SP


$$$$
