ZINC49122199_4741
                    3D
 Schrodinger Suite 2024-2.
 43 45  0  0  1  0            999 V2000
    4.3045   51.9925   31.0939 C   0  0  0  0  0  0
    3.5968   52.0505   29.7561 C   0  0  0  0  0  0
    4.0441   53.2310   28.8283 C   0  0  1  0  0  0
    4.1531   54.1169   29.4576 H   0  0  0  0  0  0
    5.4240   53.0743   28.1513 C   0  0  0  0  0  0
    5.8144   54.3211   27.3391 C   0  0  0  0  0  0
    4.7778   54.5964   26.2393 C   0  0  0  0  0  0
    3.3413   54.6940   26.7923 C   0  0  0  0  0  0
    2.9548   53.5399   27.7517 C   0  0  2  0  0  0
    2.7733   52.6524   27.1473 H   0  0  0  0  0  0
    1.7231   53.8789   28.4758 N   0  0  0  0  0  0
    0.4980   53.2464   28.4770 C   0  0  0  0  0  0
   -0.2003   53.6957   29.4912 N   0  0  0  0  0  0
    0.5662   54.6703   30.1134 N   0  0  0  0  0  0
    1.7466   54.8255   29.4324 N   0  0  0  0  0  0
   -0.0060   52.2269   27.5058 C   0  0  0  0  0  0
   -1.2052   52.4966   26.8401 C   0  0  0  0  0  0
   -1.7520   51.5945   25.9335 C   0  0  0  0  0  0
   -1.0992   50.3947   25.6808 C   0  0  0  0  0  0
    0.0979   50.1107   26.3322 C   0  0  0  0  0  0
    0.6487   51.0206   27.2403 C   0  0  0  0  0  0
    0.7211   48.8974   26.0804 N   0  0  0  0  0  0
   -2.9465   51.8931   25.2837 N   0  0  0  0  0  0
    3.8662   51.2571   31.7669 H   0  0  0  0  0  0
    5.3246   51.6965   30.8821 H   0  0  0  0  0  0
    4.3043   52.9515   31.6090 H   0  0  0  0  0  0
    2.5350   52.1001   29.9918 H   0  0  0  0  0  0
    3.7235   51.0868   29.2784 H   0  0  0  0  0  0
    5.4272   52.1957   27.5159 H   0  0  0  0  0  0
    6.2025   52.8966   28.8831 H   0  0  0  0  0  0
    5.9008   55.1861   27.9996 H   0  0  0  0  0  0
    6.7999   54.1790   26.8932 H   0  0  0  0  0  0
    5.0338   55.5112   25.7026 H   0  0  0  0  0  0
    4.8264   53.7916   25.5031 H   0  0  0  0  0  0
    3.1050   55.6699   27.2181 H   0  0  0  0  0  0
    2.7040   54.6077   25.9141 H   0  0  0  0  0  0
   -1.6958   53.4385   27.0072 H   0  0  0  0  0  0
   -1.5189   49.6834   24.9853 H   0  0  0  0  0  0
    1.5649   50.7783   27.7558 H   0  0  0  0  0  0
    1.4833   48.6496   26.6898 H   0  0  0  0  0  0
    0.0875   48.1388   25.8720 H   0  0  0  0  0  0
   -3.4059   51.1348   24.8016 H   0  0  0  0  0  0
   -3.4980   52.6581   25.6407 H   0  0  0  0  0  0
  1  2  1  0  0  0
  1 24  1  0  0  0
  1 25  1  0  0  0
  1 26  1  0  0  0
  2  3  1  0  0  0
  2 27  1  0  0  0
  2 28  1  0  0  0
  3  4  1  0  0  0
  3  9  1  0  0  0
  3  5  1  0  0  0
  5  6  1  0  0  0
  5 29  1  0  0  0
  5 30  1  0  0  0
  6  7  1  0  0  0
  6 31  1  0  0  0
  6 32  1  0  0  0
  7  8  1  0  0  0
  7 33  1  0  0  0
  7 34  1  0  0  0
  8  9  1  0  0  0
  8 35  1  0  0  0
  8 36  1  0  0  0
  9 10  1  0  0  0
  9 11  1  0  0  0
 11 15  1  0  0  0
 11 12  1  0  0  0
 12 13  2  0  0  0
 12 16  1  0  0  0
 13 14  1  0  0  0
 14 15  2  0  0  0
 16 21  2  0  0  0
 16 17  1  0  0  0
 17 18  2  0  0  0
 17 37  1  0  0  0
 18 19  1  0  0  0
 18 23  1  0  0  0
 19 20  2  0  0  0
 19 38  1  0  0  0
 20 21  1  0  0  0
 20 22  1  0  0  0
 21 39  1  0  0  0
 22 40  1  0  0  0
 22 41  1  0  0  0
 23 42  1  0  0  0
 23 43  1  0  0  0
M  END
> <i_i_glide_confnum>
4

> <i_i_glide_lignum>
4742

> <i_i_glide_posenum>
293

> <i_i_glide_rotatable_bonds>
3

> <i_m_Source_File_Index>
1688

> <b_m_subgroup_collapsed>
0

> <r_i_docking_score>
-5.07626

> <r_i_glide_ecoul>
-1.22428

> <r_i_glide_eff_state_penalty>
0

> <r_i_glide_einternal>
2.02887

> <r_i_glide_emodel>
-35.0752

> <r_i_glide_energy>
-25.0209

> <r_i_glide_erotb>
0.442844

> <r_i_glide_esite>
-0.0899102

> <r_i_glide_evdw>
-23.7966

> <r_i_glide_gscore>
-5.07626

> <r_i_glide_hbond>
-0.0378

> <r_i_glide_ligand_efficiency>
-0.241727

> <r_i_glide_ligand_efficiency_ln>
-1.2551

> <r_i_glide_ligand_efficiency_sa>
-0.666906

> <r_i_glide_lipo>
-1.99343

> <r_i_glide_metal>
0

> <r_i_glide_rewards>
-2.0245

> <s_i_glide_gridfile>
wee1_glide-grid

> <s_m_Source_File>
wee1_decoys_glide_SP.sdf

> <s_m_Source_Path>
/Users/zhangxujun/Desktop

> <s_m_entry_id>
1963

> <s_m_entry_name>
wee1_decoys_glide_SP.1688

> <s_m_subgroup_title>
wee1_decoys_glide_SP

> <s_m_subgroupid>
wee1_decoys_glide_SP


$$$$
