ZINC39528938_5458
                    3D
 Schrodinger Suite 2024-2.
 61 64  0  0  1  0            999 V2000
    2.2461   49.1205   20.9866 C   0  0  0  0  0  0
    1.0901   50.1066   21.2136 C   0  0  0  0  0  0
    1.4125   51.2021   22.2356 C   0  0  0  0  0  0
    0.7979   51.0871   23.4887 C   0  0  0  0  0  0
    1.0414   52.0121   24.5011 C   0  0  0  0  0  0
    1.9065   53.0799   24.2644 C   0  0  0  0  0  0
    2.5383   53.1981   23.0291 C   0  0  0  0  0  0
    2.3013   52.2835   21.9933 C   0  0  0  0  0  0
    2.9952   52.4981   20.8046 N   0  0  0  0  0  0
    4.4639   52.3373   20.7642 C   0  0  0  0  0  0
    5.2051   53.1124   19.6453 C   0  0  0  0  0  0
    4.4992   52.8967   18.3022 N   0  3  0  0  0  0
    3.0381   53.3357   18.4468 C   0  0  2  0  0  0
    3.0066   54.3998   18.6779 H   0  0  0  0  0  0
    2.3466   52.4424   19.4878 C   0  0  0  0  0  0
    2.2034   53.1868   16.7541 S   0  0  0  0  0  0
    0.8790   53.8158   16.8190 O   0  0  0  0  0  0
    2.3513   51.8128   16.2686 O   0  0  0  0  0  0
    3.2317   54.1622   15.8587 O   0  0  0  0  0  0
    3.2980   55.5061   16.1263 C   0  0  0  0  0  0
    2.2209   56.3487   15.8363 C   0  0  0  0  0  0
    2.3207   57.7155   16.0817 C   0  0  0  0  0  0
    3.5036   58.2364   16.6003 C   0  0  0  0  0  0
    4.5849   57.4048   16.8804 C   0  0  0  0  0  0
    4.4822   56.0374   16.6398 C   0  0  0  0  0  0
    0.2365   51.7857   26.0844 S   0  0  0  0  0  0
   -1.0439   52.4967   26.0282 O   0  0  0  0  0  0
    0.3104   50.3623   26.4256 O   0  0  0  0  0  0
    1.3067   52.6387   27.0473 O   0  0  0  0  0  0
    0.9360   52.9953   28.3194 C   0  0  0  0  0  0
    1.2539   54.2824   28.7565 C   0  0  0  0  0  0
    0.9383   54.6795   30.0532 C   0  0  0  0  0  0
    0.3043   53.7835   30.9110 C   0  0  0  0  0  0
   -0.0106   52.4965   30.4843 C   0  0  0  0  0  0
    0.3088   52.0987   29.1903 C   0  0  0  0  0  0
    1.9487   48.3214   20.3064 H   0  0  0  0  0  0
    3.1043   49.6146   20.5392 H   0  0  0  0  0  0
    2.5692   48.6580   21.9202 H   0  0  0  0  0  0
    0.2225   49.5343   21.5496 H   0  0  0  0  0  0
    0.7532   50.5444   20.2762 H   0  0  0  0  0  0
    0.1342   50.2581   23.6919 H   0  0  0  0  0  0
    2.1044   53.8117   25.0334 H   0  0  0  0  0  0
    3.2073   54.0309   22.8682 H   0  0  0  0  0  0
    4.9225   52.5134   21.7387 H   0  0  0  0  0  0
    4.6017   51.2794   20.5379 H   0  0  0  0  0  0
    5.2383   54.1891   19.8201 H   0  0  0  0  0  0
    6.2099   52.7304   19.4679 H   0  0  0  0  0  0
    4.5683   51.8975   18.0813 H   0  0  0  0  0  0
    1.2957   52.7292   19.5783 H   0  0  0  0  0  0
    2.3754   51.4150   19.1199 H   0  0  0  0  0  0
    1.3113   55.9438   15.4176 H   0  0  0  0  0  0
    1.4879   58.3721   15.8706 H   0  0  0  0  0  0
    3.5813   59.2971   16.7883 H   0  0  0  0  0  0
    5.4991   57.8274   17.2736 H   0  0  0  0  0  0
    5.3278   55.3956   16.8359 H   0  0  0  0  0  0
    1.7463   54.9703   28.0868 H   0  0  0  0  0  0
    1.1769   55.6778   30.3898 H   0  0  0  0  0  0
    0.0542   54.0816   31.9194 H   0  0  0  0  0  0
   -0.4954   51.8066   31.1621 H   0  0  0  0  0  0
    0.0714   51.0932   28.8740 H   0  0  0  0  0  0
    4.9632   53.3919   17.5535 H   0  0  0  0  0  0
  1  2  1  0  0  0
  1 36  1  0  0  0
  1 37  1  0  0  0
  1 38  1  0  0  0
  2  3  1  0  0  0
  2 39  1  0  0  0
  2 40  1  0  0  0
  3  8  2  0  0  0
  3  4  1  0  0  0
  4  5  2  0  0  0
  4 41  1  0  0  0
  5  6  1  0  0  0
  5 26  1  0  0  0
  6  7  2  0  0  0
  6 42  1  0  0  0
  7  8  1  0  0  0
  7 43  1  0  0  0
  8  9  1  0  0  0
  9 15  1  0  0  0
  9 10  1  0  0  0
 10 11  1  0  0  0
 10 44  1  0  0  0
 10 45  1  0  0  0
 11 12  1  0  0  0
 11 46  1  0  0  0
 11 47  1  0  0  0
 12 13  1  0  0  0
 12 48  1  0  0  0
 12 61  1  0  0  0
 13 14  1  0  0  0
 13 15  1  0  0  0
 13 16  1  0  0  0
 15 49  1  0  0  0
 15 50  1  0  0  0
 16 17  2  0  0  0
 16 18  2  0  0  0
 16 19  1  0  0  0
 19 20  1  0  0  0
 20 25  2  0  0  0
 20 21  1  0  0  0
 21 22  2  0  0  0
 21 51  1  0  0  0
 22 23  1  0  0  0
 22 52  1  0  0  0
 23 24  2  0  0  0
 23 53  1  0  0  0
 24 25  1  0  0  0
 24 54  1  0  0  0
 25 55  1  0  0  0
 26 27  2  0  0  0
 26 28  2  0  0  0
 26 29  1  0  0  0
 29 30  1  0  0  0
 30 35  2  0  0  0
 30 31  1  0  0  0
 31 32  2  0  0  0
 31 56  1  0  0  0
 32 33  1  0  0  0
 32 57  1  0  0  0
 33 34  2  0  0  0
 33 58  1  0  0  0
 34 35  1  0  0  0
 34 59  1  0  0  0
 35 60  1  0  0  0
M  CHG  1  12   1
M  END
> <i_i_glide_confnum>
49

> <i_i_glide_lignum>
5459

> <i_i_glide_posenum>
56

> <i_i_glide_rotatable_bonds>
8

> <i_m_Source_File_Index>
4143

> <b_m_subgroup_collapsed>
0

> <r_i_docking_score>
-4.09789

> <r_i_glide_ecoul>
-3.88016

> <r_i_glide_eff_state_penalty>
0

> <r_i_glide_einternal>
9.2538

> <r_i_glide_emodel>
-51.6959

> <r_i_glide_energy>
-43.4533

> <r_i_glide_erotb>
0.564168

> <r_i_glide_esite>
-0.248302

> <r_i_glide_evdw>
-39.5731

> <r_i_glide_gscore>
-4.09789

> <r_i_glide_hbond>
-0.2

> <r_i_glide_ligand_efficiency>
-0.120526

> <r_i_glide_ligand_efficiency_ln>
-0.905338

> <r_i_glide_ligand_efficiency_sa>
-0.390458

> <r_i_glide_lipo>
-1.62094

> <r_i_glide_metal>
0

> <r_i_glide_rewards>
-0.0321326

> <s_i_glide_gridfile>
wee1_glide-grid

> <s_m_Source_File>
wee1_decoys_glide_SP.sdf

> <s_m_Source_Path>
/Users/zhangxujun/Desktop

> <s_m_entry_id>
4418

> <s_m_entry_name>
wee1_decoys_glide_SP.4143

> <s_m_subgroup_title>
wee1_decoys_glide_SP

> <s_m_subgroupid>
wee1_decoys_glide_SP


$$$$
