ZINC58161400_189
                    3D
 Schrodinger Suite 2024-2.
 64 67  0  0  1  0            999 V2000
    6.5861   53.6668   17.5570 C   0  0  0  0  0  0
    5.4536   54.5878   18.0650 C   0  0  1  0  0  0
    5.8286   55.6043   17.9730 H   0  0  0  0  0  0
    4.1591   54.4643   17.2397 C   0  0  0  0  0  0
    3.6190   53.1766   17.0723 C   0  0  0  0  0  0
    2.4279   52.9799   16.3831 C   0  0  0  0  0  0
    1.7573   54.0671   15.8406 C   0  0  0  0  0  0
    2.2788   55.3493   15.9881 C   0  0  0  0  0  0
    3.4798   55.5817   16.6804 C   0  0  0  0  0  0
    3.9594   56.8919   16.7690 N   0  0  0  0  0  0
    5.2390   57.2796   16.1426 C   0  0  0  0  0  0
    5.0996   58.0624   14.8178 C   0  0  0  0  0  0
    4.2082   59.2967   15.0499 N   0  3  0  0  0  0
    2.8366   58.8487   15.5788 C   0  0  0  0  0  0
    3.0511   58.0512   16.8806 C   0  0  0  0  0  0
    4.0541   60.1333   13.7650 C   0  0  0  0  0  0
    1.9165   51.7368   16.2440 F   0  0  0  0  0  0
    5.1861   54.3730   19.4888 N   0  0  0  0  0  0
    5.8956   54.8962   20.5059 C   0  0  0  0  0  0
    6.8753   55.6237   20.3330 O   0  0  0  0  0  0
    5.4300   54.5515   21.9018 C   0  0  0  0  0  0
    6.3178   54.6862   22.9779 C   0  0  0  0  0  0
    5.8816   54.4934   24.2852 C   0  0  0  0  0  0
    4.5431   54.1564   24.5362 C   0  0  0  0  0  0
    3.6642   53.9895   23.4645 C   0  0  0  0  0  0
    4.1015   54.1780   22.1571 C   0  0  0  0  0  0
    3.9937   53.9479   25.8148 N   0  0  0  0  0  0
    4.5633   54.0559   27.0342 C   0  0  0  0  0  0
    5.7083   54.4562   27.2501 O   0  0  0  0  0  0
    3.6926   53.5933   28.1792 C   0  0  0  0  0  0
    4.2854   52.9477   29.2702 C   0  0  0  0  0  0
    3.5075   52.4965   30.3340 C   0  0  0  0  0  0
    2.1291   52.6901   30.3106 C   0  0  0  0  0  0
    1.5245   53.3370   29.2361 C   0  0  0  0  0  0
    2.3026   53.7896   28.1726 C   0  0  0  0  0  0
    6.7821   53.8314   16.4973 H   0  0  0  0  0  0
    7.5175   53.8598   18.0908 H   0  0  0  0  0  0
    6.3556   52.6078   17.6907 H   0  0  0  0  0  0
    4.1096   52.3067   17.4917 H   0  0  0  0  0  0
    0.8341   53.9140   15.3020 H   0  0  0  0  0  0
    1.7325   56.1661   15.5424 H   0  0  0  0  0  0
    5.8697   56.4101   15.9548 H   0  0  0  0  0  0
    5.7481   57.9082   16.8763 H   0  0  0  0  0  0
    6.0714   58.4499   14.5056 H   0  0  0  0  0  0
    4.6562   57.4667   14.0168 H   0  0  0  0  0  0
    2.2892   59.7697   15.7937 H   0  0  0  0  0  0
    2.3353   58.2799   14.7940 H   0  0  0  0  0  0
    3.5031   58.7133   17.6167 H   0  0  0  0  0  0
    2.0824   57.7513   17.2815 H   0  0  0  0  0  0
    3.5773   59.5167   13.0005 H   0  0  0  0  0  0
    3.4459   61.0016   14.0259 H   0  0  0  0  0  0
    5.0546   60.4493   13.4644 H   0  0  0  0  0  0
    4.4718   53.6945   19.7079 H   0  0  0  0  0  0
    7.3496   54.9687   22.8140 H   0  0  0  0  0  0
    6.6030   54.6170   25.0760 H   0  0  0  0  0  0
    2.6303   53.7261   23.6333 H   0  0  0  0  0  0
    3.3791   54.0805   21.3580 H   0  0  0  0  0  0
    3.0457   53.6086   25.8132 H   0  0  0  0  0  0
    5.3540   52.7832   29.2817 H   0  0  0  0  0  0
    3.9751   52.0006   31.1719 H   0  0  0  0  0  0
    1.5217   52.3405   31.1336 H   0  0  0  0  0  0
    0.4547   53.4847   29.2281 H   0  0  0  0  0  0
    1.8126   54.2950   27.3527 H   0  0  0  0  0  0
    4.6197   59.9028   15.7597 H   0  0  0  0  0  0
  1  2  1  0  0  0
  1 36  1  0  0  0
  1 37  1  0  0  0
  1 38  1  0  0  0
  2  3  1  0  0  0
  2  4  1  0  0  0
  2 18  1  0  0  0
  4  9  2  0  0  0
  4  5  1  0  0  0
  5  6  2  0  0  0
  5 39  1  0  0  0
  6  7  1  0  0  0
  6 17  1  0  0  0
  7  8  2  0  0  0
  7 40  1  0  0  0
  8  9  1  0  0  0
  8 41  1  0  0  0
  9 10  1  0  0  0
 10 15  1  0  0  0
 10 11  1  0  0  0
 11 12  1  0  0  0
 11 42  1  0  0  0
 11 43  1  0  0  0
 12 13  1  0  0  0
 12 44  1  0  0  0
 12 45  1  0  0  0
 13 14  1  0  0  0
 13 16  1  0  0  0
 13 64  1  0  0  0
 14 15  1  0  0  0
 14 46  1  0  0  0
 14 47  1  0  0  0
 15 48  1  0  0  0
 15 49  1  0  0  0
 16 50  1  0  0  0
 16 51  1  0  0  0
 16 52  1  0  0  0
 18 19  1  0  0  0
 18 53  1  0  0  0
 19 20  2  0  0  0
 19 21  1  0  0  0
 21 26  2  0  0  0
 21 22  1  0  0  0
 22 23  2  0  0  0
 22 54  1  0  0  0
 23 24  1  0  0  0
 23 55  1  0  0  0
 24 25  2  0  0  0
 24 27  1  0  0  0
 25 26  1  0  0  0
 25 56  1  0  0  0
 26 57  1  0  0  0
 27 28  1  0  0  0
 27 58  1  0  0  0
 28 29  2  0  0  0
 28 30  1  0  0  0
 30 35  2  0  0  0
 30 31  1  0  0  0
 31 32  2  0  0  0
 31 59  1  0  0  0
 32 33  1  0  0  0
 32 60  1  0  0  0
 33 34  2  0  0  0
 33 61  1  0  0  0
 34 35  1  0  0  0
 34 62  1  0  0  0
 35 63  1  0  0  0
M  CHG  1  13   1
M  END
> <i_i_glide_confnum>
18

> <i_i_glide_lignum>
190

> <i_i_glide_posenum>
282

> <i_i_glide_rotatable_bonds>
8

> <i_m_Source_File_Index>
5686

> <b_m_subgroup_collapsed>
0

> <r_i_docking_score>
-5.86847

> <r_i_glide_ecoul>
-5.89107

> <r_i_glide_eff_state_penalty>
0

> <r_i_glide_einternal>
7.09

> <r_i_glide_emodel>
-63.6781

> <r_i_glide_energy>
-46.9049

> <r_i_glide_erotb>
0.756218

> <r_i_glide_esite>
-0.148185

> <r_i_glide_evdw>
-41.0139

> <r_i_glide_gscore>
-5.86847

> <r_i_glide_hbond>
-0.152103

> <r_i_glide_ligand_efficiency>
-0.172602

> <r_i_glide_ligand_efficiency_ln>
-1.29651

> <r_i_glide_ligand_efficiency_sa>
-0.559164

> <r_i_glide_lipo>
-2.4194

> <r_i_glide_metal>
0

> <r_i_glide_rewards>
-0.970652

> <s_i_glide_gridfile>
wee1_glide-grid

> <s_m_Source_File>
wee1_decoys_glide_SP.sdf

> <s_m_Source_Path>
/Users/zhangxujun/Desktop

> <s_m_entry_id>
5961

> <s_m_entry_name>
wee1_decoys_glide_SP.5686

> <s_m_subgroup_title>
wee1_decoys_glide_SP

> <s_m_subgroupid>
wee1_decoys_glide_SP


$$$$
