ZINC61122208_4759
                    3D
 Schrodinger Suite 2024-2.
 34 36  0  0  1  0            999 V2000
    6.7046   55.5453   24.7072 C   0  0  0  0  0  0
    5.7790   54.8033   25.6454 C   0  0  0  0  0  0
    4.4795   54.4967   25.2411 C   0  0  0  0  0  0
    3.6526   53.7177   26.0604 C   0  0  0  0  0  0
    4.1260   53.2967   27.3118 C   0  0  0  0  0  0
    5.4079   53.6372   27.7320 C   0  0  0  0  0  0
    6.2393   54.3683   26.8919 C   0  0  0  0  0  0
    7.5044   54.6221   27.2817 F   0  0  0  0  0  0
    2.3912   53.2802   25.5923 N   0  0  0  0  0  0
    1.2220   53.0038   26.2794 C   0  0  0  0  0  0
    0.3321   52.4967   25.4554 N   0  0  0  0  0  0
    0.9251   52.4935   24.2012 N   0  0  0  0  0  0
    2.2097   52.9821   24.2939 N   0  0  0  0  0  0
    0.9515   53.2704   27.7239 C   0  0  0  0  0  0
    1.3858   54.4509   28.3422 C   0  0  0  0  0  0
    1.0935   54.6994   29.6820 C   0  0  0  0  0  0
    0.3540   53.7704   30.4159 C   0  0  0  0  0  0
   -0.0979   52.6041   29.7974 C   0  0  0  0  0  0
    0.2055   52.3515   28.4637 C   0  0  0  0  0  0
   -0.8956   51.6967   30.4817 N   0  0  0  0  0  0
    1.5044   55.8939   30.2686 N   0  0  0  0  0  0
    6.2729   55.7090   23.7206 H   0  0  0  0  0  0
    7.5960   54.9428   24.5647 H   0  0  0  0  0  0
    7.0054   56.4964   25.1402 H   0  0  0  0  0  0
    4.1350   54.8165   24.2673 H   0  0  0  0  0  0
    3.5272   52.6649   27.9509 H   0  0  0  0  0  0
    5.7771   53.2952   28.6873 H   0  0  0  0  0  0
    1.9397   55.1828   27.7730 H   0  0  0  0  0  0
    0.1069   53.9607   31.4504 H   0  0  0  0  0  0
   -0.1552   51.4461   27.9946 H   0  0  0  0  0  0
   -1.1900   50.8419   30.0225 H   0  0  0  0  0  0
   -1.0901   51.7958   31.4855 H   0  0  0  0  0  0
    1.1756   56.1225   31.1960 H   0  0  0  0  0  0
    1.9091   56.6124   29.6855 H   0  0  0  0  0  0
  1  2  1  0  0  0
  1 22  1  0  0  0
  1 23  1  0  0  0
  1 24  1  0  0  0
  2  7  2  0  0  0
  2  3  1  0  0  0
  3  4  2  0  0  0
  3 25  1  0  0  0
  4  5  1  0  0  0
  4  9  1  0  0  0
  5  6  2  0  0  0
  5 26  1  0  0  0
  6  7  1  0  0  0
  6 27  1  0  0  0
  7  8  1  0  0  0
  9 13  1  0  0  0
  9 10  1  0  0  0
 10 11  2  0  0  0
 10 14  1  0  0  0
 11 12  1  0  0  0
 12 13  2  0  0  0
 14 19  2  0  0  0
 14 15  1  0  0  0
 15 16  2  0  0  0
 15 28  1  0  0  0
 16 17  1  0  0  0
 16 21  1  0  0  0
 17 18  2  0  0  0
 17 29  1  0  0  0
 18 19  1  0  0  0
 18 20  1  0  0  0
 19 30  1  0  0  0
 20 31  1  0  0  0
 20 32  1  0  0  0
 21 33  1  0  0  0
 21 34  1  0  0  0
M  END
> <i_i_glide_confnum>
4

> <i_i_glide_lignum>
4760

> <i_i_glide_posenum>
363

> <i_i_glide_rotatable_bonds>
2

> <i_m_Source_File_Index>
4977

> <b_m_subgroup_collapsed>
0

> <r_i_docking_score>
-6.96518

> <r_i_glide_ecoul>
-6.50535

> <r_i_glide_eff_state_penalty>
0

> <r_i_glide_einternal>
0.884048

> <r_i_glide_emodel>
-54.653

> <r_i_glide_energy>
-38.3163

> <r_i_glide_erotb>
0.448509

> <r_i_glide_esite>
-0.154622

> <r_i_glide_evdw>
-31.8109

> <r_i_glide_gscore>
-6.96518

> <r_i_glide_hbond>
-0.16

> <r_i_glide_ligand_efficiency>
-0.331675

> <r_i_glide_ligand_efficiency_ln>
-1.72213

> <r_i_glide_ligand_efficiency_sa>
-0.915066

> <r_i_glide_lipo>
-2.64717

> <r_i_glide_metal>
0

> <r_i_glide_rewards>
-1.88555

> <s_i_glide_gridfile>
wee1_glide-grid

> <s_m_Source_File>
wee1_decoys_glide_SP.sdf

> <s_m_Source_Path>
/Users/zhangxujun/Desktop

> <s_m_entry_id>
5252

> <s_m_entry_name>
wee1_decoys_glide_SP.4977

> <s_m_subgroup_title>
wee1_decoys_glide_SP

> <s_m_subgroupid>
wee1_decoys_glide_SP


$$$$
