ZINC39485917_124
                    3D
 Schrodinger Suite 2024-2.
 58 62  0  0  1  0            999 V2000
   -4.0078   45.2898   21.7926 C   0  0  0  0  0  0
   -2.6170   45.3807   21.7682 C   0  0  0  0  0  0
   -1.9921   46.4848   22.3413 C   0  0  0  0  0  0
   -2.7491   47.4986   22.9316 C   0  0  0  0  0  0
   -4.1452   47.4074   22.9345 C   0  0  0  0  0  0
   -4.7740   46.2986   22.3717 C   0  0  0  0  0  0
   -2.0485   48.7288   23.5093 C   0  0  0  0  0  0
   -2.0350   48.8396   25.0579 C   0  0  2  0  0  0
   -1.4504   48.0209   25.4869 H   0  0  0  0  0  0
   -3.3689   48.8089   25.6310 N   0  0  0  0  0  0
   -3.2957   49.4888   26.8816 N   0  0  0  0  0  0
   -2.4578   50.6325   26.6261 C   0  0  2  0  0  0
   -3.0316   51.3530   26.0374 H   0  0  0  0  0  0
   -1.3754   50.0911   25.6822 N   0  3  2  0  0  0
   -0.7769   51.2098   24.7995 C   0  0  0  0  0  0
    0.0630   52.2966   25.5247 C   0  0  0  0  0  0
    0.1388   52.3490   26.9914 N   0  0  0  0  0  0
   -1.1169   52.5150   27.7116 C   0  0  0  0  0  0
   -1.9731   51.2745   27.9178 C   0  0  0  0  0  0
    1.1712   53.2593   27.5043 C   0  0  0  0  0  0
    2.2575   52.4321   28.2269 C   0  0  2  0  0  0
    2.4731   51.5149   27.6824 H   0  0  0  0  0  0
    1.9465   52.1010   29.6531 C   0  0  0  0  0  0
    2.8413   52.4967   30.4500 N   0  0  0  0  0  0
    3.7686   53.0946   29.8198 N   0  0  0  0  0  0
    3.5547   53.1289   28.5663 C   0  0  0  0  0  0
    4.4488   53.7257   27.5517 C   0  0  0  0  0  0
    5.6546   54.3206   27.9455 C   0  0  0  0  0  0
    6.4930   54.8967   26.9981 C   0  0  0  0  0  0
    6.1198   54.9107   25.6574 C   0  0  0  0  0  0
    4.9434   54.3020   25.2464 C   0  0  0  0  0  0
    4.1233   53.6969   26.1871 C   0  0  0  0  0  0
    7.1044   55.6961   24.4880 Cl  0  0  0  0  0  0
   -4.4995   44.4357   21.3482 H   0  0  0  0  0  0
   -2.0256   44.6085   21.2985 H   0  0  0  0  0  0
   -0.9138   46.5564   22.3113 H   0  0  0  0  0  0
   -4.7466   48.1965   23.3611 H   0  0  0  0  0  0
   -5.8532   46.2274   22.3737 H   0  0  0  0  0  0
   -1.0251   48.7641   23.1330 H   0  0  0  0  0  0
   -2.5384   49.6073   23.0846 H   0  0  0  0  0  0
   -3.7174   47.8794   25.8293 H   0  0  0  0  0  0
   -2.7122   48.8962   27.5008 H   0  0  0  0  0  0
   -0.1377   50.6887   24.0878 H   0  0  0  0  0  0
   -1.6002   51.6318   24.2230 H   0  0  0  0  0  0
    1.0645   52.3091   25.0898 H   0  0  0  0  0  0
   -0.3625   53.2473   25.1887 H   0  0  0  0  0  0
   -0.8955   52.8357   28.7328 H   0  0  0  0  0  0
   -1.6953   53.2962   27.2143 H   0  0  0  0  0  0
   -2.8451   51.5517   28.5111 H   0  0  0  0  0  0
   -1.4271   50.5654   28.5399 H   0  0  0  0  0  0
    1.5675   53.8624   26.6916 H   0  0  0  0  0  0
    0.7626   54.0188   28.1760 H   0  0  0  0  0  0
    1.0583   51.5728   29.9842 H   0  0  0  0  0  0
    5.9573   54.3511   28.9834 H   0  0  0  0  0  0
    7.4156   55.3495   27.3228 H   0  0  0  0  0  0
    4.6725   54.2854   24.2019 H   0  0  0  0  0  0
    3.2575   53.1748   25.8171 H   0  0  0  0  0  0
   -0.6413   49.7499   26.2899 H   0  0  0  0  0  0
  1  6  2  0  0  0
  1  2  1  0  0  0
  1 34  1  0  0  0
  2  3  2  0  0  0
  2 35  1  0  0  0
  3  4  1  0  0  0
  3 36  1  0  0  0
  4  5  2  0  0  0
  4  7  1  0  0  0
  5  6  1  0  0  0
  5 37  1  0  0  0
  6 38  1  0  0  0
  7  8  1  0  0  0
  7 39  1  0  0  0
  7 40  1  0  0  0
  8  9  1  0  0  0
  8 14  1  0  0  0
  8 10  1  0  0  0
 10 11  1  0  0  0
 10 41  1  0  0  0
 11 12  1  0  0  0
 11 42  1  0  0  0
 12 13  1  0  0  0
 12 19  1  0  0  0
 12 14  1  0  0  0
 14 15  1  0  0  0
 14 58  1  0  0  0
 15 16  1  0  0  0
 15 43  1  0  0  0
 15 44  1  0  0  0
 16 17  1  0  0  0
 16 45  1  0  0  0
 16 46  1  0  0  0
 17 18  1  0  0  0
 17 20  1  0  0  0
 18 19  1  0  0  0
 18 47  1  0  0  0
 18 48  1  0  0  0
 19 49  1  0  0  0
 19 50  1  0  0  0
 20 21  1  0  0  0
 20 51  1  0  0  0
 20 52  1  0  0  0
 21 22  1  0  0  0
 21 26  1  0  0  0
 21 23  1  0  0  0
 23 24  2  0  0  0
 23 53  1  0  0  0
 24 25  1  0  0  0
 25 26  2  0  0  0
 26 27  1  0  0  0
 27 32  2  0  0  0
 27 28  1  0  0  0
 28 29  2  0  0  0
 28 54  1  0  0  0
 29 30  1  0  0  0
 29 55  1  0  0  0
 30 31  2  0  0  0
 30 33  1  0  0  0
 31 32  1  0  0  0
 31 56  1  0  0  0
 32 57  1  0  0  0
M  CHG  1  14   1
M  END
> <i_i_glide_confnum>
9

> <i_i_glide_lignum>
125

> <i_i_glide_posenum>
160

> <i_i_glide_rotatable_bonds>
5

> <i_m_Source_File_Index>
3147

> <b_m_subgroup_collapsed>
0

> <r_i_docking_score>
-5.59154

> <r_i_glide_ecoul>
-7.56026

> <r_i_glide_eff_state_penalty>
0

> <r_i_glide_einternal>
4.90705

> <r_i_glide_emodel>
-53.8431

> <r_i_glide_energy>
-39.8228

> <r_i_glide_erotb>
0.551456

> <r_i_glide_esite>
-0.369212

> <r_i_glide_evdw>
-32.2626

> <r_i_glide_gscore>
-5.59154

> <r_i_glide_hbond>
-0.16

> <r_i_glide_ligand_efficiency>
-0.186385

> <r_i_glide_ligand_efficiency_ln>
-1.27046

> <r_i_glide_ligand_efficiency_sa>
-0.579141

> <r_i_glide_lipo>
-2.00248

> <r_i_glide_metal>
0

> <r_i_glide_rewards>
-0.864144

> <s_i_glide_gridfile>
wee1_glide-grid

> <s_m_Source_File>
wee1_decoys_glide_SP.sdf

> <s_m_Source_Path>
/Users/zhangxujun/Desktop

> <s_m_entry_id>
3422

> <s_m_entry_name>
wee1_decoys_glide_SP.3147

> <s_m_subgroup_title>
wee1_decoys_glide_SP

> <s_m_subgroupid>
wee1_decoys_glide_SP


$$$$
