ZINC00933047_1014
                    3D
 Schrodinger Suite 2024-2.
 65 69  0  0  1  0            999 V2000
    6.4287   54.5586   27.7915 C   0  0  0  0  0  0
    5.7346   54.4190   26.4479 C   0  0  0  0  0  0
    6.4686   54.6332   25.2832 C   0  0  0  0  0  0
    5.8445   54.5053   24.0261 C   0  0  0  0  0  0
    6.5272   54.7779   22.8180 C   0  0  0  0  0  0
    5.8749   54.6157   21.6041 C   0  0  0  0  0  0
    4.5641   54.1207   21.5651 C   0  0  0  0  0  0
    3.8489   53.8955   22.7396 C   0  0  0  0  0  0
    4.4729   54.1096   23.9950 C   0  0  0  0  0  0
    3.7513   53.9399   25.1385 N   0  0  0  0  0  0
    4.3726   54.1043   26.3375 C   0  0  0  0  0  0
    3.3794   53.9398   27.8037 S   0  0  0  0  0  0
    1.6304   53.8254   27.3138 C   0  0  0  0  0  0
    1.1042   52.4002   27.1203 C   0  0  0  0  0  0
    1.4921   51.5028   27.8689 O   0  0  0  0  0  0
    0.1765   52.2471   26.1467 N   0  0  0  0  0  0
   -0.5171   51.0819   25.7752 C   0  0  0  0  0  0
   -0.0306   49.7916   26.0169 C   0  0  0  0  0  0
   -0.8090   48.6929   25.6811 C   0  0  0  0  0  0
   -2.0591   48.8612   25.1040 C   0  0  0  0  0  0
   -2.5314   50.1408   24.8040 C   0  0  0  0  0  0
   -1.7500   51.2504   25.1345 C   0  0  0  0  0  0
   -3.0279   47.3846   24.8494 S   0  0  0  0  0  0
   -4.2853   47.7527   24.1875 O   0  0  0  0  0  0
   -2.1269   46.3926   24.2464 O   0  0  0  0  0  0
   -3.3766   46.8215   26.4814 N   0  0  0  0  0  0
   -4.6363   47.2612   27.1190 C   0  0  0  0  0  0
   -5.4857   45.9973   27.3602 C   0  0  0  0  0  0
   -6.7898   46.3634   28.0971 C   0  0  0  0  0  0
   -6.5147   47.1552   29.3980 C   0  0  0  0  0  0
   -5.5948   48.3772   29.1694 C   0  0  0  0  0  0
   -4.2996   47.9845   28.4336 C   0  0  0  0  0  0
    3.9045   53.9097   20.3723 O   0  0  0  0  0  0
    4.7626   53.8190   19.2311 C   0  0  0  0  0  0
    5.8063   54.9622   19.2660 C   0  0  0  0  0  0
    6.5961   54.8967   20.4602 O   0  0  0  0  0  0
    7.4644   54.8843   27.6817 H   0  0  0  0  0  0
    5.9055   55.2914   28.4112 H   0  0  0  0  0  0
    6.4188   53.6085   28.3293 H   0  0  0  0  0  0
    7.5115   54.9014   25.3185 H   0  0  0  0  0  0
    7.5489   55.1206   22.8431 H   0  0  0  0  0  0
    2.8186   53.5697   22.6984 H   0  0  0  0  0  0
    1.0296   54.2965   28.0915 H   0  0  0  0  0  0
    1.5042   54.4133   26.4087 H   0  0  0  0  0  0
   -0.1460   53.0875   25.6947 H   0  0  0  0  0  0
    0.9222   49.6108   26.4890 H   0  0  0  0  0  0
   -0.4893   47.6969   25.9297 H   0  0  0  0  0  0
   -3.5028   50.2753   24.3493 H   0  0  0  0  0  0
   -2.1310   52.2394   24.9279 H   0  0  0  0  0  0
   -2.5974   47.0527   27.1128 H   0  0  0  0  0  0
   -5.2093   47.9226   26.4650 H   0  0  0  0  0  0
   -5.7070   45.4988   26.4147 H   0  0  0  0  0  0
   -4.9226   45.2782   27.9574 H   0  0  0  0  0  0
   -7.4239   46.9597   27.4392 H   0  0  0  0  0  0
   -7.3564   45.4595   28.3223 H   0  0  0  0  0  0
   -7.4572   47.4792   29.8407 H   0  0  0  0  0  0
   -6.0490   46.4965   30.1331 H   0  0  0  0  0  0
   -6.1279   49.1307   28.5886 H   0  0  0  0  0  0
   -5.3486   48.8444   30.1246 H   0  0  0  0  0  0
   -3.6956   47.3431   29.0793 H   0  0  0  0  0  0
   -3.6962   48.8720   28.2360 H   0  0  0  0  0  0
    5.2743   52.8551   19.2381 H   0  0  0  0  0  0
    4.1630   53.8719   18.3228 H   0  0  0  0  0  0
    6.4644   54.9091   18.3965 H   0  0  0  0  0  0
    5.2879   55.9231   19.2313 H   0  0  0  0  0  0
  1  2  1  0  0  0
  1 37  1  0  0  0
  1 38  1  0  0  0
  1 39  1  0  0  0
  2 11  2  0  0  0
  2  3  1  0  0  0
  3  4  2  0  0  0
  3 40  1  0  0  0
  4  9  1  0  0  0
  4  5  1  0  0  0
  5  6  2  0  0  0
  5 41  1  0  0  0
  6 36  1  0  0  0
  6  7  1  0  0  0
  7  8  2  0  0  0
  7 33  1  0  0  0
  8  9  1  0  0  0
  8 42  1  0  0  0
  9 10  2  0  0  0
 10 11  1  0  0  0
 11 12  1  0  0  0
 12 13  1  0  0  0
 13 14  1  0  0  0
 13 43  1  0  0  0
 13 44  1  0  0  0
 14 15  2  0  0  0
 14 16  1  0  0  0
 16 17  1  0  0  0
 16 45  1  0  0  0
 17 22  2  0  0  0
 17 18  1  0  0  0
 18 19  2  0  0  0
 18 46  1  0  0  0
 19 20  1  0  0  0
 19 47  1  0  0  0
 20 21  2  0  0  0
 20 23  1  0  0  0
 21 22  1  0  0  0
 21 48  1  0  0  0
 22 49  1  0  0  0
 23 24  2  0  0  0
 23 25  2  0  0  0
 23 26  1  0  0  0
 26 27  1  0  0  0
 26 50  1  0  0  0
 27 32  1  0  0  0
 27 28  1  0  0  0
 27 51  1  0  0  0
 28 29  1  0  0  0
 28 52  1  0  0  0
 28 53  1  0  0  0
 29 30  1  0  0  0
 29 54  1  0  0  0
 29 55  1  0  0  0
 30 31  1  0  0  0
 30 56  1  0  0  0
 30 57  1  0  0  0
 31 32  1  0  0  0
 31 58  1  0  0  0
 31 59  1  0  0  0
 32 60  1  0  0  0
 32 61  1  0  0  0
 33 34  1  0  0  0
 34 35  1  0  0  0
 34 62  1  0  0  0
 34 63  1  0  0  0
 35 36  1  0  0  0
 35 64  1  0  0  0
 35 65  1  0  0  0
M  END
> <i_i_glide_confnum>
7

> <i_i_glide_lignum>
1015

> <i_i_glide_posenum>
280

> <i_i_glide_rotatable_bonds>
8

> <i_m_Source_File_Index>
601

> <b_m_subgroup_collapsed>
0

> <r_i_docking_score>
-5.32638

> <r_i_glide_ecoul>
-4.77936

> <r_i_glide_eff_state_penalty>
0

> <r_i_glide_einternal>
8.25581

> <r_i_glide_emodel>
-60.3455

> <r_i_glide_energy>
-49.2291

> <r_i_glide_erotb>
0.591808

> <r_i_glide_esite>
-0.21834

> <r_i_glide_evdw>
-44.4497

> <r_i_glide_gscore>
-5.32638

> <r_i_glide_hbond>
-0.137794

> <r_i_glide_ligand_efficiency>
-0.147955

> <r_i_glide_ligand_efficiency_ln>
-1.16207

> <r_i_glide_ligand_efficiency_sa>
-0.488537

> <r_i_glide_lipo>
-2.84626

> <r_i_glide_metal>
0

> <r_i_glide_rewards>
0.223593

> <s_i_glide_gridfile>
wee1_glide-grid

> <s_m_Source_File>
wee1_decoys_glide_SP.sdf

> <s_m_Source_Path>
/Users/zhangxujun/Desktop

> <s_m_entry_id>
876

> <s_m_entry_name>
wee1_decoys_glide_SP.601

> <s_m_subgroup_title>
wee1_decoys_glide_SP

> <s_m_subgroupid>
wee1_decoys_glide_SP


$$$$
