ZINC33048506_1953
                    3D
 Schrodinger Suite 2024-2.
 38 40  0  0  1  0            999 V2000
    6.8043   55.2966   22.3225 C   0  0  0  0  0  0
    6.6008   55.6597   20.9941 C   0  0  0  0  0  0
    5.6426   55.0150   20.2099 C   0  0  0  0  0  0
    4.8324   54.0142   20.8044 C   0  0  0  0  0  0
    5.0621   53.6507   22.1346 C   0  0  0  0  0  0
    6.0552   54.2689   22.8913 C   0  0  0  0  0  0
    6.3769   53.7936   24.1651 N   0  0  0  0  0  0
    6.0688   54.6914   25.6518 S   0  0  0  0  0  0
    5.9099   56.0967   25.2816 O   0  0  0  0  0  0
    7.1044   54.2840   26.6022 O   0  0  0  0  0  0
    4.5118   54.1224   26.3144 C   0  0  0  0  0  0
    3.3681   54.0966   25.5185 C   0  0  0  0  0  0
    2.1585   53.6680   26.0623 C   0  0  0  0  0  0
    2.0763   53.2744   27.4012 C   0  0  0  0  0  0
    3.2282   53.2941   28.2076 C   0  0  0  0  0  0
    4.4401   53.7164   27.6516 C   0  0  0  0  0  0
    3.1997   52.8779   29.6356 C   0  0  0  0  0  0
    2.9079   53.7474   30.4816 O   0  0  0  0  0  0
    3.5048   51.6966   29.8999 O   0  5  0  0  0  0
    0.3722   52.7295   28.0730 Br  0  0  0  0  0  0
    3.8693   53.2961   20.1290 O   0  0  0  0  0  0
    4.1647   52.8971   18.7976 C   0  0  0  0  0  0
    3.8893   53.9961   17.7663 C   0  0  0  0  0  0
    4.2803   55.3971   18.2455 C   0  0  0  0  0  0
    5.5409   55.4445   18.9004 O   0  0  0  0  0  0
    7.5731   55.7872   22.8993 H   0  0  0  0  0  0
    7.2113   56.4328   20.5529 H   0  0  0  0  0  0
    4.4769   52.8527   22.5637 H   0  0  0  0  0  0
    6.8259   52.8965   24.2547 H   0  0  0  0  0  0
    3.4125   54.4151   24.4869 H   0  0  0  0  0  0
    1.2741   53.6520   25.4430 H   0  0  0  0  0  0
    5.3296   53.7380   28.2672 H   0  0  0  0  0  0
    3.5529   52.0247   18.5647 H   0  0  0  0  0  0
    5.1934   52.5361   18.7316 H   0  0  0  0  0  0
    2.8293   53.9983   17.5106 H   0  0  0  0  0  0
    4.4217   53.7566   16.8453 H   0  0  0  0  0  0
    3.5049   55.8210   18.8817 H   0  0  0  0  0  0
    4.3288   56.0688   17.3882 H   0  0  0  0  0  0
  1  6  2  0  0  0
  1  2  1  0  0  0
  1 26  1  0  0  0
  2  3  2  0  0  0
  2 27  1  0  0  0
  3 25  1  0  0  0
  3  4  1  0  0  0
  4  5  2  0  0  0
  4 21  1  0  0  0
  5  6  1  0  0  0
  5 28  1  0  0  0
  6  7  1  0  0  0
  7  8  1  0  0  0
  7 29  1  0  0  0
  8  9  2  0  0  0
  8 10  2  0  0  0
  8 11  1  0  0  0
 11 16  2  0  0  0
 11 12  1  0  0  0
 12 13  2  0  0  0
 12 30  1  0  0  0
 13 14  1  0  0  0
 13 31  1  0  0  0
 14 15  2  0  0  0
 14 20  1  0  0  0
 15 16  1  0  0  0
 15 17  1  0  0  0
 16 32  1  0  0  0
 17 18  2  0  0  0
 17 19  1  0  0  0
 21 22  1  0  0  0
 22 23  1  0  0  0
 22 33  1  0  0  0
 22 34  1  0  0  0
 23 24  1  0  0  0
 23 35  1  0  0  0
 23 36  1  0  0  0
 24 25  1  0  0  0
 24 37  1  0  0  0
 24 38  1  0  0  0
M  CHG  1  19  -1
M  END
> <i_i_glide_confnum>
2

> <i_i_glide_lignum>
1954

> <i_i_glide_posenum>
266

> <i_i_glide_rotatable_bonds>
4

> <i_m_Source_File_Index>
954

> <b_m_subgroup_collapsed>
0

> <r_i_docking_score>
-6.35086

> <r_i_glide_ecoul>
-10.8437

> <r_i_glide_eff_state_penalty>
0

> <r_i_glide_einternal>
5.9565

> <r_i_glide_emodel>
-62.7544

> <r_i_glide_energy>
-47.7171

> <r_i_glide_erotb>
0.326282

> <r_i_glide_esite>
0

> <r_i_glide_evdw>
-36.8735

> <r_i_glide_gscore>
-6.35086

> <r_i_glide_hbond>
-0.313062

> <r_i_glide_ligand_efficiency>
-0.254034

> <r_i_glide_ligand_efficiency_ln>
-1.50534

> <r_i_glide_ligand_efficiency_sa>
-0.742801

> <r_i_glide_lipo>
-2.44878

> <r_i_glide_metal>
0

> <r_i_glide_rewards>
-0.44508

> <s_i_glide_gridfile>
wee1_glide-grid

> <s_m_Source_File>
wee1_decoys_glide_SP.sdf

> <s_m_Source_Path>
/Users/zhangxujun/Desktop

> <s_m_entry_id>
1229

> <s_m_entry_name>
wee1_decoys_glide_SP.954

> <s_m_subgroup_title>
wee1_decoys_glide_SP

> <s_m_subgroupid>
wee1_decoys_glide_SP


$$$$
