ZINC40367700_3030
                    3D
 Schrodinger Suite 2024-2.
 65 67  0  0  1  0            999 V2000
    0.4228   49.4765   24.6341 C   0  0  0  0  0  0
   -0.0053   50.5216   25.6883 C   0  0  0  0  0  0
    0.4711   51.9188   25.4342 N   0  0  0  0  0  0
    1.5041   52.4966   26.1670 C   0  0  0  0  0  0
    2.3205   53.4522   25.6085 C   0  0  0  0  0  0
    2.0717   53.8942   24.1330 C   0  0  2  0  0  0
    2.2303   54.9731   24.0612 H   0  0  0  0  0  0
    0.6456   53.6275   23.8574 N   0  0  0  0  0  0
   -0.1104   52.6182   24.3852 C   0  0  0  0  0  0
   -1.6067   52.3662   23.6804 S   0  0  0  0  0  0
    3.0168   53.3552   23.0378 C   0  0  0  0  0  0
    4.2126   54.0272   22.7557 C   0  0  0  0  0  0
    5.0375   53.6282   21.7086 C   0  0  0  0  0  0
    4.6773   52.5446   20.9140 C   0  0  0  0  0  0
    3.4989   51.8435   21.1739 C   0  0  0  0  0  0
    2.6773   52.2474   22.2421 C   0  0  0  0  0  0
    3.2014   50.8013   20.2794 N   0  0  0  0  0  0
    2.3043   49.8062   20.3993 C   0  0  0  0  0  0
    1.6048   49.6009   21.3907 O   0  0  0  0  0  0
    2.3039   49.0623   19.2772 N   0  0  0  0  0  0
    1.5051   47.9586   18.9365 C   0  0  0  0  0  0
    0.4001   47.4981   19.6686 C   0  0  0  0  0  0
   -0.3270   46.3854   19.2452 C   0  0  0  0  0  0
    0.0599   45.7285   18.0656 C   0  0  0  0  0  0
    1.1491   46.1750   17.3164 C   0  0  0  0  0  0
    1.8606   47.2972   17.7623 C   0  0  0  0  0  0
    1.4611   45.4581   16.1773 O   0  0  0  0  0  0
    2.5923   45.8530   15.4053 C   0  0  0  0  0  0
   -1.3897   46.0004   20.0375 O   0  0  0  0  0  0
   -2.2018   44.9088   19.6232 C   0  0  0  0  0  0
    3.4992   54.0949   26.2711 C   0  0  0  0  0  0
    4.2168   54.9105   25.6918 O   0  0  0  0  0  0
    3.7358   53.7244   27.5534 O   0  0  0  0  0  0
    4.8271   54.2398   28.3131 C   0  0  0  0  0  0
    6.0382   53.3066   28.2030 C   0  0  0  0  0  0
    1.4947   52.0832   27.6510 C   0  0  0  0  0  0
   -0.0271   48.5096   24.8627 H   0  0  0  0  0  0
    1.5005   49.3104   24.6255 H   0  0  0  0  0  0
    0.1048   49.7469   23.6294 H   0  0  0  0  0  0
   -1.0887   50.5049   25.8122 H   0  0  0  0  0  0
    0.3606   50.1387   26.6379 H   0  0  0  0  0  0
    0.2294   54.0566   23.0440 H   0  0  0  0  0  0
    4.5027   54.8965   23.3222 H   0  0  0  0  0  0
    5.9436   54.1774   21.4968 H   0  0  0  0  0  0
    5.3141   52.2604   20.0859 H   0  0  0  0  0  0
    1.7491   51.7354   22.4324 H   0  0  0  0  0  0
    3.7781   50.7909   19.4461 H   0  0  0  0  0  0
    2.9869   49.3058   18.5719 H   0  0  0  0  0  0
    0.0749   47.9942   20.5677 H   0  0  0  0  0  0
   -0.4717   44.8615   17.7067 H   0  0  0  0  0  0
    2.7045   47.6695   17.2015 H   0  0  0  0  0  0
    2.7003   45.1820   14.5552 H   0  0  0  0  0  0
    2.4776   46.8649   15.0172 H   0  0  0  0  0  0
    3.5105   45.7962   15.9897 H   0  0  0  0  0  0
   -3.0025   44.7592   20.3484 H   0  0  0  0  0  0
   -2.6670   45.1013   18.6546 H   0  0  0  0  0  0
   -1.6256   43.9832   19.5681 H   0  0  0  0  0  0
    5.0855   55.2617   28.0235 H   0  0  0  0  0  0
    4.5111   54.2882   29.3559 H   0  0  0  0  0  0
    6.8378   53.6302   28.8718 H   0  0  0  0  0  0
    5.7526   52.2932   28.4795 H   0  0  0  0  0  0
    6.4328   53.2819   27.1866 H   0  0  0  0  0  0
    1.6944   52.9191   28.3180 H   0  0  0  0  0  0
    0.5135   51.7445   27.9893 H   0  0  0  0  0  0
    2.2216   51.2931   27.8438 H   0  0  0  0  0  0
  1  2  1  0  0  0
  1 37  1  0  0  0
  1 38  1  0  0  0
  1 39  1  0  0  0
  2  3  1  0  0  0
  2 40  1  0  0  0
  2 41  1  0  0  0
  3  9  1  0  0  0
  3  4  1  0  0  0
  4  5  2  0  0  0
  4 36  1  0  0  0
  5  6  1  0  0  0
  5 31  1  0  0  0
  6  7  1  0  0  0
  6  8  1  0  0  0
  6 11  1  0  0  0
  8  9  1  0  0  0
  8 42  1  0  0  0
  9 10  2  0  0  0
 11 16  2  0  0  0
 11 12  1  0  0  0
 12 13  2  0  0  0
 12 43  1  0  0  0
 13 14  1  0  0  0
 13 44  1  0  0  0
 14 15  2  0  0  0
 14 45  1  0  0  0
 15 16  1  0  0  0
 15 17  1  0  0  0
 16 46  1  0  0  0
 17 18  1  0  0  0
 17 47  1  0  0  0
 18 19  2  0  0  0
 18 20  1  0  0  0
 20 21  1  0  0  0
 20 48  1  0  0  0
 21 26  2  0  0  0
 21 22  1  0  0  0
 22 23  2  0  0  0
 22 49  1  0  0  0
 23 24  1  0  0  0
 23 29  1  0  0  0
 24 25  2  0  0  0
 24 50  1  0  0  0
 25 26  1  0  0  0
 25 27  1  0  0  0
 26 51  1  0  0  0
 27 28  1  0  0  0
 28 52  1  0  0  0
 28 53  1  0  0  0
 28 54  1  0  0  0
 29 30  1  0  0  0
 30 55  1  0  0  0
 30 56  1  0  0  0
 30 57  1  0  0  0
 31 32  2  0  0  0
 31 33  1  0  0  0
 33 34  1  0  0  0
 34 35  1  0  0  0
 34 58  1  0  0  0
 34 59  1  0  0  0
 35 60  1  0  0  0
 35 61  1  0  0  0
 35 62  1  0  0  0
 36 63  1  0  0  0
 36 64  1  0  0  0
 36 65  1  0  0  0
M  END
> <i_i_glide_confnum>
13

> <i_i_glide_lignum>
3031

> <i_i_glide_posenum>
77

> <i_i_glide_rotatable_bonds>
11

> <i_m_Source_File_Index>
2731

> <b_m_subgroup_collapsed>
0

> <r_i_docking_score>
-5.32887

> <r_i_glide_ecoul>
-4.22262

> <r_i_glide_eff_state_penalty>
0

> <r_i_glide_einternal>
3.48096

> <r_i_glide_emodel>
-68.0981

> <r_i_glide_energy>
-51.4013

> <r_i_glide_erotb>
0.574622

> <r_i_glide_esite>
-0.143031

> <r_i_glide_evdw>
-47.1786

> <r_i_glide_gscore>
-5.32887

> <r_i_glide_hbond>
-0.198959

> <r_i_glide_ligand_efficiency>
-0.152253

> <r_i_glide_ligand_efficiency_ln>
-1.1698

> <r_i_glide_ligand_efficiency_sa>
-0.498031

> <r_i_glide_lipo>
-1.96718

> <r_i_glide_metal>
0

> <r_i_glide_rewards>
-0.601997

> <s_i_glide_gridfile>
wee1_glide-grid

> <s_m_Source_File>
wee1_decoys_glide_SP.sdf

> <s_m_Source_Path>
/Users/zhangxujun/Desktop

> <s_m_entry_id>
3006

> <s_m_entry_name>
wee1_decoys_glide_SP.2731

> <s_m_subgroup_title>
wee1_decoys_glide_SP

> <s_m_subgroupid>
wee1_decoys_glide_SP


$$$$
