ZINC67568793_2587
                    3D
 Schrodinger Suite 2024-2.
 48 50  0  0  1  0            999 V2000
    4.5216   54.3102   29.2913 C   0  0  0  0  0  0
    4.2668   54.4950   27.8595 N   0  0  0  0  0  0
    2.8375   54.6751   27.5228 C   0  0  0  0  0  0
    1.9009   53.5099   27.8204 C   0  0  0  0  0  0
    1.3218   53.3683   29.0831 C   0  0  0  0  0  0
    0.3668   52.3789   29.3098 C   0  0  0  0  0  0
   -0.0314   51.5385   28.2702 C   0  0  0  0  0  0
    0.5331   51.6621   26.9906 C   0  0  0  0  0  0
    1.5032   52.6571   26.7859 C   0  0  0  0  0  0
    0.1020   50.7872   25.8306 C   0  0  0  0  0  0
    0.4068   51.0692   24.6745 O   0  0  0  0  0  0
   -0.6221   49.6966   26.0842 N   0  0  0  0  0  0
    5.3008   54.4966   26.9682 C   0  0  0  0  0  0
    6.4733   54.2967   27.2988 O   0  0  0  0  0  0
    4.9798   54.7997   25.6933 N   0  0  0  0  0  0
    5.9268   54.9599   24.5917 C   0  0  1  0  0  0
    6.3489   55.9618   24.5025 H   0  0  0  0  0  0
    6.9148   53.8612   24.2896 C   0  0  0  0  0  0
    5.7295   54.0790   23.3728 C   0  0  2  0  0  0
    4.9773   53.2949   23.4573 H   0  0  0  0  0  0
    5.9045   54.5889   21.9461 C   0  0  0  0  0  0
    6.9630   55.4425   21.6093 C   0  0  0  0  0  0
    7.1363   55.8634   20.2929 C   0  0  0  0  0  0
    6.2428   55.4543   19.3057 C   0  0  0  0  0  0
    5.1717   54.6107   19.6225 C   0  0  0  0  0  0
    5.0112   54.1822   20.9485 C   0  0  0  0  0  0
    4.2125   54.1684   18.5169 C   0  0  0  0  0  0
    4.9027   53.6640   17.4937 F   0  0  0  0  0  0
    3.3500   53.2410   18.9353 F   0  0  0  0  0  0
    3.5214   55.2231   18.0818 F   0  0  0  0  0  0
    5.5634   54.4963   29.5576 H   0  0  0  0  0  0
    3.9185   55.0070   29.8719 H   0  0  0  0  0  0
    4.2602   53.2966   29.5973 H   0  0  0  0  0  0
    2.7045   54.8964   26.4672 H   0  0  0  0  0  0
    2.4689   55.5547   28.0506 H   0  0  0  0  0  0
    1.5913   54.0388   29.8855 H   0  0  0  0  0  0
   -0.0833   52.2733   30.2876 H   0  0  0  0  0  0
   -0.7933   50.7987   28.4771 H   0  0  0  0  0  0
    1.9374   52.7897   25.8035 H   0  0  0  0  0  0
   -0.8570   49.3919   27.0305 H   0  0  0  0  0  0
   -0.8939   49.1105   25.3127 H   0  0  0  0  0  0
    4.0303   55.0716   25.4965 H   0  0  0  0  0  0
    7.9044   54.0967   23.9169 H   0  0  0  0  0  0
    6.9635   53.0402   24.9974 H   0  0  0  0  0  0
    7.6706   55.7676   22.3578 H   0  0  0  0  0  0
    7.9710   56.4971   20.0330 H   0  0  0  0  0  0
    6.3876   55.7891   18.2884 H   0  0  0  0  0  0
    4.1920   53.5263   21.2075 H   0  0  0  0  0  0
  1  2  1  0  0  0
  1 31  1  0  0  0
  1 32  1  0  0  0
  1 33  1  0  0  0
  2  3  1  0  0  0
  2 13  1  0  0  0
  3  4  1  0  0  0
  3 34  1  0  0  0
  3 35  1  0  0  0
  4  9  2  0  0  0
  4  5  1  0  0  0
  5  6  2  0  0  0
  5 36  1  0  0  0
  6  7  1  0  0  0
  6 37  1  0  0  0
  7  8  2  0  0  0
  7 38  1  0  0  0
  8  9  1  0  0  0
  8 10  1  0  0  0
  9 39  1  0  0  0
 10 11  2  0  0  0
 10 12  1  0  0  0
 12 40  1  0  0  0
 12 41  1  0  0  0
 13 14  2  0  0  0
 13 15  1  0  0  0
 15 16  1  0  0  0
 15 42  1  0  0  0
 16 17  1  0  0  0
 16 19  1  0  0  0
 16 18  1  0  0  0
 18 19  1  0  0  0
 18 43  1  0  0  0
 18 44  1  0  0  0
 19 20  1  0  0  0
 19 21  1  0  0  0
 21 26  2  0  0  0
 21 22  1  0  0  0
 22 23  2  0  0  0
 22 45  1  0  0  0
 23 24  1  0  0  0
 23 46  1  0  0  0
 24 25  2  0  0  0
 24 47  1  0  0  0
 25 26  1  0  0  0
 25 27  1  0  0  0
 26 48  1  0  0  0
 27 28  1  0  0  0
 27 29  1  0  0  0
 27 30  1  0  0  0
M  END
> <i_i_glide_confnum>
76

> <i_i_glide_lignum>
2588

> <i_i_glide_posenum>
10

> <i_i_glide_rotatable_bonds>
8

> <i_m_Source_File_Index>
338

> <b_m_subgroup_collapsed>
0

> <r_i_docking_score>
-5.81632

> <r_i_glide_ecoul>
-3.55574

> <r_i_glide_eff_state_penalty>
0

> <r_i_glide_einternal>
2.3073

> <r_i_glide_emodel>
-57.4383

> <r_i_glide_energy>
-42.1439

> <r_i_glide_erotb>
0.764342

> <r_i_glide_esite>
-0.189835

> <r_i_glide_evdw>
-38.5881

> <r_i_glide_gscore>
-5.81632

> <r_i_glide_hbond>
-0.16

> <r_i_glide_ligand_efficiency>
-0.207726

> <r_i_glide_ligand_efficiency_ln>
-1.34258

> <r_i_glide_ligand_efficiency_sa>
-0.630777

> <r_i_glide_lipo>
-2.57095

> <r_i_glide_metal>
0

> <r_i_glide_rewards>
-1.19711

> <s_i_glide_gridfile>
wee1_glide-grid

> <s_m_Source_File>
wee1_decoys_glide_SP.sdf

> <s_m_Source_Path>
/Users/zhangxujun/Desktop

> <s_m_entry_id>
613

> <s_m_entry_name>
wee1_decoys_glide_SP.338

> <s_m_subgroup_title>
wee1_decoys_glide_SP

> <s_m_subgroupid>
wee1_decoys_glide_SP


$$$$
