ZINC09382658_5226
                    3D
 Schrodinger Suite 2024-2.
 61 64  0  0  1  0            999 V2000
    7.0938   58.7414   17.6937 C   0  0  0  0  0  0
    6.0127   57.6949   17.4930 C   0  0  0  0  0  0
    4.8054   58.0522   16.8878 C   0  0  0  0  0  0
    3.8085   57.0972   16.7141 C   0  0  0  0  0  0
    4.0312   55.7788   17.1236 C   0  0  0  0  0  0
    5.2468   55.4143   17.7058 C   0  0  0  0  0  0
    6.2350   56.3766   17.8966 C   0  0  0  0  0  0
    2.7655   54.5392   16.8701 S   0  0  0  0  0  0
    1.4868   55.2464   16.7451 O   0  0  0  0  0  0
    3.2618   53.6706   15.7991 O   0  0  0  0  0  0
    2.7042   53.6253   18.3779 N   0  0  0  0  0  0
    3.1177   52.2014   18.4688 C   0  0  2  0  0  0
    4.1536   52.1819   18.1291 H   0  0  0  0  0  0
    2.3053   51.2962   17.5138 C   0  0  0  0  0  0
    3.1590   51.6814   19.9467 C   0  0  2  0  0  0
    3.9053   50.8864   19.9499 H   0  0  0  0  0  0
    1.8590   51.0857   20.4870 C   0  0  0  0  0  0
    0.5346   51.4828   20.2879 C   0  0  0  0  0  0
   -0.4086   50.6961   20.9558 C   0  0  0  0  0  0
    0.1757   49.6789   21.6863 C   0  0  0  0  0  0
    1.8979   49.6954   21.5394 S   0  0  0  0  0  0
    2.7592   53.2883   22.0111 C   0  0  0  0  0  0
    3.4102   54.4726   22.7341 C   0  0  0  0  0  0
    4.6720   54.0964   23.3857 N   0  0  0  0  0  0
    5.6299   53.5234   22.4230 C   0  0  0  0  0  0
    5.0630   52.3841   21.5320 C   0  0  0  0  0  0
    4.8905   54.1984   24.7594 C   0  0  0  0  0  0
    6.1748   54.4352   25.2735 C   0  0  0  0  0  0
    6.3844   54.5125   26.6511 C   0  0  0  0  0  0
    5.3110   54.3620   27.5240 C   0  0  0  0  0  0
    4.0311   54.1361   27.0334 C   0  0  0  0  0  0
    3.8233   54.0589   25.6604 C   0  0  0  0  0  0
    5.5063   54.4397   28.8586 F   0  0  0  0  0  0
    8.0857   58.2901   17.7282 H   0  0  0  0  0  0
    6.9161   59.2978   18.6147 H   0  0  0  0  0  0
    7.0978   59.4502   16.8642 H   0  0  0  0  0  0
    4.6336   59.0734   16.5744 H   0  0  0  0  0  0
    2.8722   57.3853   16.2573 H   0  0  0  0  0  0
    5.4247   54.3922   18.0032 H   0  0  0  0  0  0
    7.1742   56.0921   18.3498 H   0  0  0  0  0  0
    1.9024   53.8824   18.9638 H   0  0  0  0  0  0
    2.4099   50.2461   17.7840 H   0  0  0  0  0  0
    1.2443   51.5313   17.5207 H   0  0  0  0  0  0
    2.6569   51.3745   16.4889 H   0  0  0  0  0  0
    0.2685   52.3291   19.6721 H   0  0  0  0  0  0
   -1.4739   50.8635   20.9049 H   0  0  0  0  0  0
   -0.3131   48.9298   22.2938 H   0  0  0  0  0  0
    1.8480   53.6220   21.5174 H   0  0  0  0  0  0
    2.5339   52.4553   22.6803 H   0  0  0  0  0  0
    3.6349   55.2829   22.0407 H   0  0  0  0  0  0
    2.7027   54.8960   23.4455 H   0  0  0  0  0  0
    6.5416   53.1808   22.9095 H   0  0  0  0  0  0
    5.9156   54.3674   21.7946 H   0  0  0  0  0  0
    4.8984   51.4572   22.0810 H   0  0  0  0  0  0
    5.7158   52.2034   20.6765 H   0  0  0  0  0  0
    7.0173   54.5592   24.6086 H   0  0  0  0  0  0
    7.3718   54.6787   27.0535 H   0  0  0  0  0  0
    3.2058   54.0144   27.7188 H   0  0  0  0  0  0
    2.8217   53.8575   25.3110 H   0  0  0  0  0  0
    3.7162   52.7919   20.9011 N   0  3  0  0  0  0
    3.8839   53.5910   20.3041 H   0  0  0  0  0  0
  1  2  1  0  0  0
  1 34  1  0  0  0
  1 35  1  0  0  0
  1 36  1  0  0  0
  2  7  2  0  0  0
  2  3  1  0  0  0
  3  4  2  0  0  0
  3 37  1  0  0  0
  4  5  1  0  0  0
  4 38  1  0  0  0
  5  6  2  0  0  0
  5  8  1  0  0  0
  6  7  1  0  0  0
  6 39  1  0  0  0
  7 40  1  0  0  0
  8  9  2  0  0  0
  8 10  2  0  0  0
  8 11  1  0  0  0
 11 12  1  0  0  0
 11 41  1  0  0  0
 12 13  1  0  0  0
 12 14  1  0  0  0
 12 15  1  0  0  0
 14 42  1  0  0  0
 14 43  1  0  0  0
 14 44  1  0  0  0
 15 16  1  0  0  0
 15 17  1  0  0  0
 15 60  1  0  0  0
 17 21  1  0  0  0
 17 18  2  0  0  0
 18 19  1  0  0  0
 18 45  1  0  0  0
 19 20  2  0  0  0
 19 46  1  0  0  0
 20 21  1  0  0  0
 20 47  1  0  0  0
 22 23  1  0  0  0
 22 48  1  0  0  0
 22 49  1  0  0  0
 22 60  1  0  0  0
 23 24  1  0  0  0
 23 50  1  0  0  0
 23 51  1  0  0  0
 24 25  1  0  0  0
 24 27  1  0  0  0
 25 26  1  0  0  0
 25 52  1  0  0  0
 25 53  1  0  0  0
 26 54  1  0  0  0
 26 55  1  0  0  0
 26 60  1  0  0  0
 27 32  2  0  0  0
 27 28  1  0  0  0
 28 29  2  0  0  0
 28 56  1  0  0  0
 29 30  1  0  0  0
 29 57  1  0  0  0
 30 31  2  0  0  0
 30 33  1  0  0  0
 31 32  1  0  0  0
 31 58  1  0  0  0
 32 59  1  0  0  0
 60 61  1  0  0  0
M  CHG  1  60   1
M  END
> <i_i_glide_confnum>
148

> <i_i_glide_lignum>
5227

> <i_i_glide_posenum>
223

> <i_i_glide_rotatable_bonds>
7

> <i_m_Source_File_Index>
951

> <b_m_subgroup_collapsed>
0

> <r_i_docking_score>
-3.9917

> <r_i_glide_ecoul>
-1.92266

> <r_i_glide_eff_state_penalty>
0

> <r_i_glide_einternal>
13.5853

> <r_i_glide_emodel>
-41.7531

> <r_i_glide_energy>
-38.9557

> <r_i_glide_erotb>
0.628796

> <r_i_glide_esite>
-0.0191639

> <r_i_glide_evdw>
-37.033

> <r_i_glide_gscore>
-3.9917

> <r_i_glide_hbond>
-0.250117

> <r_i_glide_ligand_efficiency>
-0.124741

> <r_i_glide_ligand_efficiency_ln>
-0.893851

> <r_i_glide_ligand_efficiency_sa>
-0.396027

> <r_i_glide_lipo>
-2.30115

> <r_i_glide_metal>
0

> <r_i_glide_rewards>
0.0899834

> <s_i_glide_gridfile>
wee1_glide-grid

> <s_m_Source_File>
wee1_decoys_glide_SP.sdf

> <s_m_Source_Path>
/Users/zhangxujun/Desktop

> <s_m_entry_id>
1226

> <s_m_entry_name>
wee1_decoys_glide_SP.951

> <s_m_subgroup_title>
wee1_decoys_glide_SP

> <s_m_subgroupid>
wee1_decoys_glide_SP


$$$$
