ZINC35704651_5804
                    3D
 Schrodinger Suite 2024-2.
 63 66  0  0  1  0            999 V2000
   -3.5624   50.7062   28.4333 C   0  0  0  0  0  0
   -2.9626   51.3076   27.1754 C   0  0  0  0  0  0
   -3.7421   52.0844   26.3141 C   0  0  0  0  0  0
   -3.1761   52.6377   25.1654 C   0  0  0  0  0  0
   -1.8292   52.4181   24.8750 C   0  0  0  0  0  0
   -1.0371   51.6408   25.7304 C   0  0  0  0  0  0
   -1.6139   51.0969   26.8819 C   0  0  0  0  0  0
    0.4409   51.3679   25.4163 C   0  0  2  0  0  0
    0.7650   50.5696   26.0857 H   0  0  0  0  0  0
    1.3673   52.6088   25.6142 C   0  0  0  0  0  0
    1.9041   53.2254   24.5098 C   0  0  0  0  0  0
    1.6592   52.8018   23.2322 N   0  0  0  0  0  0
    1.1277   51.6527   23.0600 C   0  0  0  0  0  0
    0.6359   50.8108   24.0512 N   0  0  0  0  0  0
    0.1631   49.5813   23.6210 C   0  0  0  0  0  0
    0.1466   49.4983   22.2780 C   0  0  0  0  0  0
    0.8010   50.9276   21.4752 S   0  0  0  0  0  0
   -0.3429   48.5481   24.5162 C   0  0  0  0  0  0
   -1.3382   47.6708   24.2911 C   0  0  0  0  0  0
   -2.0683   47.4687   23.2527 O   0  5  0  0  0  0
   -1.6954   46.7901   25.2820 N   0  0  0  0  0  0
   -2.8726   46.9671   26.1286 C   0  0  0  0  0  0
   -4.2273   46.6571   25.4636 C   0  0  2  0  0  0
   -4.3727   47.3262   24.6134 H   0  0  0  0  0  0
   -5.4168   46.7042   26.4184 C   0  0  0  0  0  0
   -6.4214   45.7460   25.8149 C   0  0  0  0  0  0
   -5.5896   44.8614   24.8838 C   0  0  0  0  0  0
   -4.2391   45.2967   25.0389 O   0  0  0  0  0  0
    2.8891   54.3932   24.4491 C   0  0  0  0  0  0
    1.6273   53.0236   27.0159 C   0  0  0  0  0  0
    2.1283   54.1008   27.3341 O   0  0  0  0  0  0
    1.2427   52.0861   27.9312 O   0  0  0  0  0  0
    1.3660   52.2195   29.3515 C   0  0  0  0  0  0
    2.8339   52.2481   29.8221 C   0  0  0  0  0  0
    0.5119   53.3652   29.9298 C   0  0  0  0  0  0
   -4.4941   51.1972   28.7159 H   0  0  0  0  0  0
   -3.7421   49.6390   28.2952 H   0  0  0  0  0  0
   -2.8730   50.8145   29.2725 H   0  0  0  0  0  0
   -4.7860   52.2569   26.5304 H   0  0  0  0  0  0
   -3.7807   53.2351   24.4994 H   0  0  0  0  0  0
   -1.4011   52.8494   23.9820 H   0  0  0  0  0  0
   -1.0158   50.4964   27.5526 H   0  0  0  0  0  0
   -0.2134   48.6610   21.6992 H   0  0  0  0  0  0
    0.1372   48.4918   25.4831 H   0  0  0  0  0  0
   -0.9174   46.6727   25.9186 H   0  0  0  0  0  0
   -2.8695   47.9992   26.4820 H   0  0  0  0  0  0
   -2.7479   46.3485   27.0185 H   0  0  0  0  0  0
   -5.7828   47.7198   26.5728 H   0  0  0  0  0  0
   -5.1089   46.3629   27.4082 H   0  0  0  0  0  0
   -7.1797   46.2874   25.2480 H   0  0  0  0  0  0
   -6.9330   45.1648   26.5829 H   0  0  0  0  0  0
   -5.8941   44.9823   23.8429 H   0  0  0  0  0  0
   -5.6724   43.8036   25.1354 H   0  0  0  0  0  0
    3.3645   54.6340   25.3950 H   0  0  0  0  0  0
    3.7064   54.1706   23.7608 H   0  0  0  0  0  0
    2.3847   55.2882   24.0817 H   0  0  0  0  0  0
    0.9349   51.2967   29.7388 H   0  0  0  0  0  0
    2.8970   52.2415   30.9108 H   0  0  0  0  0  0
    3.3765   51.3775   29.4522 H   0  0  0  0  0  0
    3.3565   53.1369   29.4674 H   0  0  0  0  0  0
    0.5429   53.3643   31.0199 H   0  0  0  0  0  0
    0.8513   54.3440   29.5915 H   0  0  0  0  0  0
   -0.5306   53.2533   29.6333 H   0  0  0  0  0  0
  1  2  1  0  0  0
  1 36  1  0  0  0
  1 37  1  0  0  0
  1 38  1  0  0  0
  2  7  2  0  0  0
  2  3  1  0  0  0
  3  4  2  0  0  0
  3 39  1  0  0  0
  4  5  1  0  0  0
  4 40  1  0  0  0
  5  6  2  0  0  0
  5 41  1  0  0  0
  6  7  1  0  0  0
  6  8  1  0  0  0
  7 42  1  0  0  0
  8  9  1  0  0  0
  8 14  1  0  0  0
  8 10  1  0  0  0
 10 11  2  0  0  0
 10 30  1  0  0  0
 11 12  1  0  0  0
 11 29  1  0  0  0
 12 13  2  0  0  0
 13 17  1  0  0  0
 13 14  1  0  0  0
 14 15  1  0  0  0
 15 16  2  0  0  0
 15 18  1  0  0  0
 16 17  1  0  0  0
 16 43  1  0  0  0
 18 19  2  0  0  0
 18 44  1  0  0  0
 19 20  1  0  0  0
 19 21  1  0  0  0
 21 22  1  0  0  0
 21 45  1  0  0  0
 22 23  1  0  0  0
 22 46  1  0  0  0
 22 47  1  0  0  0
 23 24  1  0  0  0
 23 28  1  0  0  0
 23 25  1  0  0  0
 25 26  1  0  0  0
 25 48  1  0  0  0
 25 49  1  0  0  0
 26 27  1  0  0  0
 26 50  1  0  0  0
 26 51  1  0  0  0
 27 28  1  0  0  0
 27 52  1  0  0  0
 27 53  1  0  0  0
 29 54  1  0  0  0
 29 55  1  0  0  0
 29 56  1  0  0  0
 30 31  2  0  0  0
 30 32  1  0  0  0
 32 33  1  0  0  0
 33 34  1  0  0  0
 33 35  1  0  0  0
 33 57  1  0  0  0
 34 58  1  0  0  0
 34 59  1  0  0  0
 34 60  1  0  0  0
 35 61  1  0  0  0
 35 62  1  0  0  0
 35 63  1  0  0  0
M  CHG  1  20  -1
M  END
> <i_i_glide_confnum>
11

> <i_i_glide_lignum>
5805

> <i_i_glide_posenum>
333

> <i_i_glide_rotatable_bonds>
8

> <i_m_Source_File_Index>
1647

> <b_m_subgroup_collapsed>
0

> <r_i_docking_score>
-4.61881

> <r_i_glide_ecoul>
-6.02932

> <r_i_glide_eff_state_penalty>
0

> <r_i_glide_einternal>
2.68404

> <r_i_glide_emodel>
-55.8788

> <r_i_glide_energy>
-43.6379

> <r_i_glide_erotb>
0.551729

> <r_i_glide_esite>
-0.1

> <r_i_glide_evdw>
-37.6086

> <r_i_glide_gscore>
-4.61881

> <r_i_glide_hbond>
-0.48

> <r_i_glide_ligand_efficiency>
-0.139964

> <r_i_glide_ligand_efficiency_ln>
-1.0272

> <r_i_glide_ligand_efficiency_sa>
-0.448939

> <r_i_glide_lipo>
-1.14553

> <r_i_glide_metal>
0

> <r_i_glide_rewards>
-0.660182

> <s_i_glide_gridfile>
wee1_glide-grid

> <s_m_Source_File>
wee1_decoys_glide_SP.sdf

> <s_m_Source_Path>
/Users/zhangxujun/Desktop

> <s_m_entry_id>
1922

> <s_m_entry_name>
wee1_decoys_glide_SP.1647

> <s_m_subgroup_title>
wee1_decoys_glide_SP

> <s_m_subgroupid>
wee1_decoys_glide_SP


$$$$
