ZINC33129533_3936
                    3D
 Schrodinger Suite 2024-2.
 50 53  0  0  1  0            999 V2000
   -0.2375   50.7754   17.3879 C   0  0  0  0  0  0
    1.0483   50.7281   16.8549 C   0  0  0  0  0  0
    2.1056   51.3013   17.5542 C   0  0  0  0  0  0
    1.8858   51.9068   18.7915 C   0  0  0  0  0  0
    0.5830   51.9717   19.3117 C   0  0  0  0  0  0
   -0.4747   51.4010   18.6087 C   0  0  0  0  0  0
    3.0096   52.4598   19.4317 N   0  0  0  0  0  0
    3.1743   52.6900   20.7481 C   0  0  0  0  0  0
    2.4014   52.2970   21.6231 O   0  0  0  0  0  0
    4.2859   53.4217   20.9612 N   0  0  0  0  0  0
    4.8265   53.8998   22.1683 C   0  0  0  0  0  0
    6.0279   54.6066   22.0660 C   0  0  0  0  0  0
    6.7006   55.0969   23.1864 C   0  0  0  0  0  0
    6.1418   54.8485   24.4457 C   0  0  0  0  0  0
    4.9144   54.1562   24.5646 C   0  0  0  0  0  0
    4.2418   53.6982   23.4280 C   0  0  0  0  0  0
    4.4701   53.9815   25.8293 N   0  0  0  0  0  0
    5.2853   54.4804   26.7157 C   0  0  0  0  0  0
    6.7040   55.2625   26.0628 S   0  0  0  0  0  0
    5.1314   54.4814   28.0986 N   0  0  0  0  0  0
    4.1539   53.9332   28.8622 C   0  0  0  0  0  0
    4.2096   54.0994   30.0792 O   0  0  0  0  0  0
    3.0038   53.0612   28.2726 C   0  0  0  0  0  0
    2.3677   52.0969   29.3100 C   0  0  0  0  0  0
    1.3639   52.7497   30.2912 C   0  0  0  0  0  0
    0.3483   53.6654   29.5790 C   0  0  0  0  0  0
    1.0382   54.6844   28.6506 C   0  0  0  0  0  0
    1.9389   53.9863   27.6324 C   0  0  0  0  0  0
   -1.0575   50.3253   16.8463 H   0  0  0  0  0  0
    1.2319   50.2439   15.9061 H   0  0  0  0  0  0
    3.1038   51.2561   17.1377 H   0  0  0  0  0  0
    0.3808   52.4689   20.2487 H   0  0  0  0  0  0
   -1.4763   51.4394   19.0128 H   0  0  0  0  0  0
    3.8105   52.5998   18.8343 H   0  0  0  0  0  0
    4.8136   53.6728   20.1415 H   0  0  0  0  0  0
    6.4646   54.7831   21.0943 H   0  0  0  0  0  0
    7.6198   55.6539   23.0800 H   0  0  0  0  0  0
    3.3086   53.1791   23.5563 H   0  0  0  0  0  0
    5.8527   54.9632   28.6170 H   0  0  0  0  0  0
    3.5072   52.4849   27.5030 H   0  0  0  0  0  0
    3.1469   51.5275   29.8188 H   0  0  0  0  0  0
    1.8859   51.2882   28.7566 H   0  0  0  0  0  0
    1.9040   53.3248   31.0377 H   0  0  0  0  0  0
    0.8317   51.9800   30.8497 H   0  0  0  0  0  0
   -0.2594   54.1903   30.3165 H   0  0  0  0  0  0
   -0.3409   53.0542   28.9948 H   0  0  0  0  0  0
    1.6151   55.3982   29.2393 H   0  0  0  0  0  0
    0.3048   55.2674   28.0920 H   0  0  0  0  0  0
    1.3577   53.3892   26.9271 H   0  0  0  0  0  0
    2.3728   54.7097   26.9467 H   0  0  0  0  0  0
  1  6  2  0  0  0
  1  2  1  0  0  0
  1 29  1  0  0  0
  2  3  2  0  0  0
  2 30  1  0  0  0
  3  4  1  0  0  0
  3 31  1  0  0  0
  4  5  2  0  0  0
  4  7  1  0  0  0
  5  6  1  0  0  0
  5 32  1  0  0  0
  6 33  1  0  0  0
  7  8  1  0  0  0
  7 34  1  0  0  0
  8  9  2  0  0  0
  8 10  1  0  0  0
 10 11  1  0  0  0
 10 35  1  0  0  0
 11 16  2  0  0  0
 11 12  1  0  0  0
 12 13  2  0  0  0
 12 36  1  0  0  0
 13 14  1  0  0  0
 13 37  1  0  0  0
 14 19  1  0  0  0
 14 15  2  0  0  0
 15 16  1  0  0  0
 15 17  1  0  0  0
 16 38  1  0  0  0
 17 18  2  0  0  0
 18 19  1  0  0  0
 18 20  1  0  0  0
 20 21  1  0  0  0
 20 39  1  0  0  0
 21 22  2  0  0  0
 21 23  1  0  0  0
 23 28  1  0  0  0
 23 24  1  0  0  0
 23 40  1  0  0  0
 24 25  1  0  0  0
 24 41  1  0  0  0
 24 42  1  0  0  0
 25 26  1  0  0  0
 25 43  1  0  0  0
 25 44  1  0  0  0
 26 27  1  0  0  0
 26 45  1  0  0  0
 26 46  1  0  0  0
 27 28  1  0  0  0
 27 47  1  0  0  0
 27 48  1  0  0  0
 28 49  1  0  0  0
 28 50  1  0  0  0
M  END
> <i_i_glide_confnum>
194

> <i_i_glide_lignum>
3937

> <i_i_glide_posenum>
255

> <i_i_glide_rotatable_bonds>
7

> <i_m_Source_File_Index>
2106

> <b_m_subgroup_collapsed>
0

> <r_i_docking_score>
-4.58277

> <r_i_glide_ecoul>
-4.53379

> <r_i_glide_eff_state_penalty>
0

> <r_i_glide_einternal>
9.82603

> <r_i_glide_emodel>
-52.067

> <r_i_glide_energy>
-46.987

> <r_i_glide_erotb>
0.527497

> <r_i_glide_esite>
-0.0371659

> <r_i_glide_evdw>
-42.4533

> <r_i_glide_gscore>
-4.58277

> <r_i_glide_hbond>
-0.258348

> <r_i_glide_ligand_efficiency>
-0.16367

> <r_i_glide_ligand_efficiency_ln>
-1.05784

> <r_i_glide_ligand_efficiency_sa>
-0.496999

> <r_i_glide_lipo>
-2.78423

> <r_i_glide_metal>
0

> <r_i_glide_rewards>
0.772214

> <s_i_glide_gridfile>
wee1_glide-grid

> <s_m_Source_File>
wee1_decoys_glide_SP.sdf

> <s_m_Source_Path>
/Users/zhangxujun/Desktop

> <s_m_entry_id>
2381

> <s_m_entry_name>
wee1_decoys_glide_SP.2106

> <s_m_subgroup_title>
wee1_decoys_glide_SP

> <s_m_subgroupid>
wee1_decoys_glide_SP


$$$$
