ZINC12878223_511
                    3D
 Schrodinger Suite 2024-2.
 71 75  0  0  1  0            999 V2000
    2.6721   55.0761   27.8883 C   0  0  0  0  0  0
    3.1363   53.5934   27.8932 C   0  0  2  0  0  0
    4.2815   53.4530   26.8450 C   0  0  0  0  0  0
    3.8086   53.5931   25.3628 C   0  0  0  0  0  0
    2.4687   52.8549   24.9935 C   0  0  1  0  0  0
    2.7043   51.8062   24.8816 H   0  0  0  0  0  0
    1.4053   52.9377   26.1362 C   0  0  2  0  0  0
    1.1044   53.9763   26.1591 H   0  0  0  0  0  0
    2.0056   52.6164   27.5222 C   0  0  2  0  0  0
    2.4496   51.6273   27.4605 H   0  0  0  0  0  0
    1.0782   52.5894   28.7541 C   0  0  0  0  0  0
    1.9912   52.9351   29.9493 C   0  0  0  0  0  0
    3.4123   53.1497   29.3666 C   0  0  1  0  0  0
    4.2513   51.8678   29.5697 C   0  0  0  0  0  0
    4.1621   54.0968   30.0828 O   0  0  0  0  0  0
    0.1817   52.0517   25.8193 C   0  0  0  0  0  0
   -0.4528   52.3940   24.4640 C   0  0  0  0  0  0
    0.6158   52.2887   23.3771 C   0  0  0  0  0  0
    0.4820   51.4384   22.3325 C   0  0  0  0  0  0
    1.4345   51.2503   21.2775 C   0  0  0  0  0  0
    1.1574   50.4501   20.3290 N   0  0  0  0  0  0
    2.0993   50.5032   19.2780 O   0  0  0  0  0  0
    1.5596   49.9562   18.0682 C   0  0  0  0  0  0
    0.2376   50.6254   17.6085 C   0  0  0  0  0  0
   -0.7253   49.9006   17.3515 O   0  0  0  0  0  0
    0.1807   51.9729   17.4816 N   0  0  0  0  0  0
    1.3262   52.8803   17.6157 C   0  0  0  0  0  0
    0.8170   54.2526   17.1781 C   0  0  0  0  0  0
   -0.3681   53.9189   16.2887 C   0  0  0  0  0  0
   -1.0080   52.7013   16.9896 C   0  0  2  0  0  0
   -1.5309   52.1203   16.2272 H   0  0  0  0  0  0
   -2.0821   53.0787   18.0712 C   0  0  0  0  0  0
   -2.8955   53.9463   17.6829 O   0  0  0  0  0  0
    2.6378   52.0411   21.4226 C   0  0  0  0  0  0
    2.8699   52.8963   22.4397 C   0  0  0  0  0  0
    1.8787   53.1803   23.5835 C   0  0  2  0  0  0
    1.4843   54.6523   23.4720 C   0  0  0  0  0  0
    1.6660   55.2269   28.2792 H   0  0  0  0  0  0
    3.3418   55.6969   28.4727 H   0  0  0  0  0  0
    2.7044   55.4679   26.8841 H   0  0  0  0  0  0
    4.7701   52.4966   26.9350 H   0  0  0  0  0  0
    5.0769   54.1683   27.0605 H   0  0  0  0  0  0
    4.6038   53.2989   24.6780 H   0  0  0  0  0  0
    3.6921   54.6595   25.1910 H   0  0  0  0  0  0
    0.3178   53.3681   28.6776 H   0  0  0  0  0  0
    0.5635   51.6334   28.8675 H   0  0  0  0  0  0
    1.6351   53.8344   30.4553 H   0  0  0  0  0  0
    1.9625   52.1425   30.6986 H   0  0  0  0  0  0
    3.6901   50.9823   29.2817 H   0  0  0  0  0  0
    5.1787   51.8877   29.0033 H   0  0  0  0  0  0
    4.5192   51.7157   30.6176 H   0  0  0  0  0  0
    5.0088   54.2038   29.6410 H   0  0  0  0  0  0
   -0.5687   52.1425   26.6052 H   0  0  0  0  0  0
    0.4775   51.0011   25.8410 H   0  0  0  0  0  0
   -0.9115   53.3824   24.4815 H   0  0  0  0  0  0
   -1.2764   51.7050   24.2734 H   0  0  0  0  0  0
   -0.4287   50.8577   22.2938 H   0  0  0  0  0  0
    1.4318   48.8778   18.1762 H   0  0  0  0  0  0
    2.3034   50.0962   17.2837 H   0  0  0  0  0  0
    2.1268   52.5502   16.9530 H   0  0  0  0  0  0
    1.7149   52.9190   18.6324 H   0  0  0  0  0  0
    1.5769   54.8656   16.6925 H   0  0  0  0  0  0
    0.4502   54.7983   18.0473 H   0  0  0  0  0  0
   -0.0134   53.6282   15.2981 H   0  0  0  0  0  0
   -1.0378   54.7688   16.1501 H   0  0  0  0  0  0
    3.4168   51.9549   20.6779 H   0  0  0  0  0  0
    3.8086   53.4321   22.4279 H   0  0  0  0  0  0
    1.1058   54.8972   22.4818 H   0  0  0  0  0  0
    0.7077   54.8967   24.1853 H   0  0  0  0  0  0
    2.3335   55.2967   23.6788 H   0  0  0  0  0  0
   -2.0277   52.4964   19.1786 O   0  5  0  0  0  0
  1  2  1  0  0  0
  1 38  1  0  0  0
  1 39  1  0  0  0
  1 40  1  0  0  0
  2  9  1  0  0  0
  2 13  1  0  0  0
  2  3  1  0  0  0
  3  4  1  0  0  0
  3 41  1  0  0  0
  3 42  1  0  0  0
  4  5  1  0  0  0
  4 43  1  0  0  0
  4 44  1  0  0  0
  5  6  1  0  0  0
  5 36  1  0  0  0
  5  7  1  0  0  0
  7  8  1  0  0  0
  7  9  1  0  0  0
  7 16  1  0  0  0
  9 10  1  0  0  0
  9 11  1  0  0  0
 11 12  1  0  0  0
 11 45  1  0  0  0
 11 46  1  0  0  0
 12 13  1  0  0  0
 12 47  1  0  0  0
 12 48  1  0  0  0
 13 14  1  0  0  0
 13 15  1  0  0  0
 14 49  1  0  0  0
 14 50  1  0  0  0
 14 51  1  0  0  0
 15 52  1  0  0  0
 16 17  1  0  0  0
 16 53  1  0  0  0
 16 54  1  0  0  0
 17 18  1  0  0  0
 17 55  1  0  0  0
 17 56  1  0  0  0
 18 36  1  0  0  0
 18 19  2  0  0  0
 19 20  1  0  0  0
 19 57  1  0  0  0
 20 21  2  0  0  0
 20 34  1  0  0  0
 21 22  1  0  0  0
 22 23  1  0  0  0
 23 24  1  0  0  0
 23 58  1  0  0  0
 23 59  1  0  0  0
 24 25  2  0  0  0
 24 26  1  0  0  0
 26 30  1  0  0  0
 26 27  1  0  0  0
 27 28  1  0  0  0
 27 60  1  0  0  0
 27 61  1  0  0  0
 28 29  1  0  0  0
 28 62  1  0  0  0
 28 63  1  0  0  0
 29 30  1  0  0  0
 29 64  1  0  0  0
 29 65  1  0  0  0
 30 31  1  0  0  0
 30 32  1  0  0  0
 32 33  2  0  0  0
 32 71  1  0  0  0
 34 35  2  0  0  0
 34 66  1  0  0  0
 35 36  1  0  0  0
 35 67  1  0  0  0
 36 37  1  0  0  0
 37 68  1  0  0  0
 37 69  1  0  0  0
 37 70  1  0  0  0
M  CHG  1  71  -1
M  END
> <i_i_glide_confnum>
58

> <i_i_glide_lignum>
512

> <i_i_glide_posenum>
204

> <i_i_glide_rotatable_bonds>
6

> <i_m_Source_File_Index>
3141

> <b_m_subgroup_collapsed>
0

> <r_i_docking_score>
-4.91494

> <r_i_glide_ecoul>
-6.66704

> <r_i_glide_eff_state_penalty>
0

> <r_i_glide_einternal>
4.22942

> <r_i_glide_emodel>
-36.8724

> <r_i_glide_energy>
-28.1551

> <r_i_glide_erotb>
0.366387

> <r_i_glide_esite>
-0.124256

> <r_i_glide_evdw>
-21.4881

> <r_i_glide_gscore>
-4.91494

> <r_i_glide_hbond>
-0.440502

> <r_i_glide_ligand_efficiency>
-0.144557

> <r_i_glide_ligand_efficiency_ln>
-1.08585

> <r_i_glide_ligand_efficiency_sa>
-0.468308

> <r_i_glide_lipo>
-2.41623

> <r_i_glide_metal>
0

> <r_i_glide_rewards>
-0.225873

> <s_i_glide_gridfile>
wee1_glide-grid

> <s_m_Source_File>
wee1_decoys_glide_SP.sdf

> <s_m_Source_Path>
/Users/zhangxujun/Desktop

> <s_m_entry_id>
3416

> <s_m_entry_name>
wee1_decoys_glide_SP.3141

> <s_m_subgroup_title>
wee1_decoys_glide_SP

> <s_m_subgroupid>
wee1_decoys_glide_SP


$$$$
