ZINC38905162_4850
                    3D
 Schrodinger Suite 2024-2.
 57 60  0  0  1  0            999 V2000
    1.1355   52.4959   30.7180 C   0  0  0  0  0  0
    2.2821   52.8369   30.0021 C   0  0  0  0  0  0
    2.2544   52.8145   28.6083 C   0  0  0  0  0  0
    1.0873   52.4500   27.9401 C   0  0  0  0  0  0
   -0.0500   52.0741   28.6632 C   0  0  0  0  0  0
   -0.0262   52.0993   30.0560 C   0  0  0  0  0  0
    1.0849   52.4968   26.1682 S   0  0  0  0  0  0
   -0.6034   52.1610   25.5790 C   0  0  0  0  0  0
   -0.9223   50.7302   25.1012 C   0  0  0  0  0  0
   -0.0942   50.2752   23.9824 N   0  0  0  0  0  0
   -0.2934   50.6287   22.6972 C   0  0  0  0  0  0
   -1.2397   51.3309   22.3311 O   0  0  0  0  0  0
    0.7471   50.1365   21.6684 C   0  0  1  0  0  0
    1.5991   49.7897   22.2594 H   0  0  0  0  0  0
    0.1715   48.9680   20.8300 C   0  0  0  0  0  0
    1.2728   48.4743   19.8619 C   0  0  0  0  0  0
    1.8266   49.6030   18.9569 C   0  0  0  0  0  0
    2.3079   50.7773   19.8470 N   0  3  2  0  0  0
    1.1585   51.3036   20.7472 C   0  0  0  0  0  0
    2.9267   51.9163   18.9914 C   0  0  0  0  0  0
    3.7930   52.8226   19.8544 C   0  0  0  0  0  0
    3.9912   52.7673   21.1439 N   0  0  0  0  0  0
    4.7401   53.8276   21.3654 C   0  0  0  0  0  0
    5.1092   54.5042   20.2974 N   0  0  0  0  0  0
    4.4529   53.8447   19.2582 O   0  0  0  0  0  0
    5.1312   54.2269   22.7538 C   0  0  0  0  0  0
    6.3469   54.8778   22.9985 C   0  0  0  0  0  0
    6.7042   55.2274   24.2980 C   0  0  0  0  0  0
    5.8627   54.9122   25.3587 C   0  0  0  0  0  0
    4.6353   54.3024   25.1258 C   0  0  0  0  0  0
    4.2648   53.9699   23.8273 C   0  0  0  0  0  0
    6.4121   55.2916   27.1381 Br  0  0  0  0  0  0
    1.1488   52.5033   31.8006 H   0  0  0  0  0  0
    3.1904   53.1129   30.5147 H   0  0  0  0  0  0
    3.1381   53.0899   28.0527 H   0  0  0  0  0  0
   -0.9582   51.7565   28.1714 H   0  0  0  0  0  0
   -0.8962   51.8038   30.6271 H   0  0  0  0  0  0
   -1.4158   52.6421   26.1230 H   0  0  0  0  0  0
   -0.5922   52.7542   24.6628 H   0  0  0  0  0  0
   -0.7487   50.0518   25.9415 H   0  0  0  0  0  0
   -1.9940   50.6105   24.9141 H   0  0  0  0  0  0
    0.7030   49.6972   24.2178 H   0  0  0  0  0  0
   -0.1101   48.1213   21.4542 H   0  0  0  0  0  0
   -0.6685   49.2926   20.2107 H   0  0  0  0  0  0
    2.0983   48.0363   20.4243 H   0  0  0  0  0  0
    0.8802   47.6707   19.2329 H   0  0  0  0  0  0
    2.7000   49.2518   18.4055 H   0  0  0  0  0  0
    1.0866   49.9965   18.2603 H   0  0  0  0  0  0
    0.3676   51.6329   20.0698 H   0  0  0  0  0  0
    1.5152   52.1560   21.3286 H   0  0  0  0  0  0
    3.5039   51.4299   18.2045 H   0  0  0  0  0  0
    2.0935   52.4380   18.5161 H   0  0  0  0  0  0
    7.0231   55.1038   22.1855 H   0  0  0  0  0  0
    7.6437   55.7272   24.4805 H   0  0  0  0  0  0
    3.9787   54.0715   25.9510 H   0  0  0  0  0  0
    3.3075   53.4929   23.6625 H   0  0  0  0  0  0
    3.0537   50.4315   20.4368 H   0  0  0  0  0  0
  1  6  2  0  0  0
  1  2  1  0  0  0
  1 33  1  0  0  0
  2  3  2  0  0  0
  2 34  1  0  0  0
  3  4  1  0  0  0
  3 35  1  0  0  0
  4  5  2  0  0  0
  4  7  1  0  0  0
  5  6  1  0  0  0
  5 36  1  0  0  0
  6 37  1  0  0  0
  7  8  1  0  0  0
  8  9  1  0  0  0
  8 38  1  0  0  0
  8 39  1  0  0  0
  9 10  1  0  0  0
  9 40  1  0  0  0
  9 41  1  0  0  0
 10 11  1  0  0  0
 10 42  1  0  0  0
 11 12  2  0  0  0
 11 13  1  0  0  0
 13 14  1  0  0  0
 13 19  1  0  0  0
 13 15  1  0  0  0
 15 16  1  0  0  0
 15 43  1  0  0  0
 15 44  1  0  0  0
 16 17  1  0  0  0
 16 45  1  0  0  0
 16 46  1  0  0  0
 17 18  1  0  0  0
 17 47  1  0  0  0
 17 48  1  0  0  0
 18 19  1  0  0  0
 18 20  1  0  0  0
 18 57  1  0  0  0
 19 49  1  0  0  0
 19 50  1  0  0  0
 20 21  1  0  0  0
 20 51  1  0  0  0
 20 52  1  0  0  0
 21 25  1  0  0  0
 21 22  2  0  0  0
 22 23  1  0  0  0
 23 24  2  0  0  0
 23 26  1  0  0  0
 24 25  1  0  0  0
 26 31  2  0  0  0
 26 27  1  0  0  0
 27 28  2  0  0  0
 27 53  1  0  0  0
 28 29  1  0  0  0
 28 54  1  0  0  0
 29 30  2  0  0  0
 29 32  1  0  0  0
 30 31  1  0  0  0
 30 55  1  0  0  0
 31 56  1  0  0  0
M  CHG  1  18   1
M  END
> <i_i_glide_confnum>
13

> <i_i_glide_lignum>
4851

> <i_i_glide_posenum>
398

> <i_i_glide_rotatable_bonds>
9

> <i_m_Source_File_Index>
4226

> <b_m_subgroup_collapsed>
0

> <r_i_docking_score>
-4.83581

> <r_i_glide_ecoul>
-3.97859

> <r_i_glide_eff_state_penalty>
0

> <r_i_glide_einternal>
2.60156

> <r_i_glide_emodel>
-63.919

> <r_i_glide_energy>
-46.9641

> <r_i_glide_erotb>
0.647508

> <r_i_glide_esite>
-0.0558263

> <r_i_glide_evdw>
-42.9855

> <r_i_glide_gscore>
-4.83581

> <r_i_glide_hbond>
0

> <r_i_glide_ligand_efficiency>
-0.155994

> <r_i_glide_ligand_efficiency_ln>
-1.09062

> <r_i_glide_ligand_efficiency_sa>
-0.490036

> <r_i_glide_lipo>
-2.33227

> <r_i_glide_metal>
0

> <r_i_glide_rewards>
-0.349159

> <s_i_glide_gridfile>
wee1_glide-grid

> <s_m_Source_File>
wee1_decoys_glide_SP.sdf

> <s_m_Source_Path>
/Users/zhangxujun/Desktop

> <s_m_entry_id>
4501

> <s_m_entry_name>
wee1_decoys_glide_SP.4226

> <s_m_subgroup_title>
wee1_decoys_glide_SP

> <s_m_subgroupid>
wee1_decoys_glide_SP


$$$$
