ZINC19759608_3870
                    3D
 Schrodinger Suite 2024-2.
 49 51  0  0  1  0            999 V2000
    5.9174   53.3202   28.2087 C   0  0  0  0  0  0
    5.4704   54.5147   27.3386 C   0  0  0  0  0  0
    6.6967   55.0810   26.5873 C   0  0  0  0  0  0
    4.2521   54.1967   26.4474 C   0  0  0  0  0  0
    3.1113   53.6149   27.0161 C   0  0  0  0  0  0
    2.0036   53.3034   26.2302 C   0  0  0  0  0  0
    2.0047   53.6103   24.8687 C   0  0  0  0  0  0
    3.1255   54.2132   24.2972 C   0  0  0  0  0  0
    4.2413   54.4963   25.0785 C   0  0  0  0  0  0
    0.8045   53.2490   24.0030 C   0  0  0  0  0  0
    0.7325   51.8041   23.7433 N   0  0  0  0  0  0
   -0.4754   51.2210   24.3497 C   0  0  0  0  0  0
   -0.5613   49.6745   24.2064 C   0  0  0  0  0  0
   -0.3383   49.3066   22.8382 O   0  0  0  0  0  0
    0.7350   49.9169   22.2166 C   0  0  0  0  0  0
    1.2424   51.1741   22.6052 C   0  0  0  0  0  0
    2.3063   51.7157   21.8730 C   0  0  0  0  0  0
    2.8381   51.0437   20.7746 C   0  0  0  0  0  0
    2.3047   49.8170   20.3829 C   0  0  0  0  0  0
    1.2520   49.2556   21.1022 C   0  0  0  0  0  0
    3.9047   51.6082   20.0818 N   0  0  0  0  0  0
    0.4896   48.9858   25.1039 C   0  0  0  0  0  0
   -1.9921   49.2134   24.5330 C   0  0  0  0  0  0
    5.1195   52.9373   28.8435 H   0  0  0  0  0  0
    6.7339   53.6070   28.8729 H   0  0  0  0  0  0
    6.2755   52.4969   27.5927 H   0  0  0  0  0  0
    5.1343   55.2952   28.0227 H   0  0  0  0  0  0
    6.4655   56.0113   26.0693 H   0  0  0  0  0  0
    7.5045   55.2967   27.2830 H   0  0  0  0  0  0
    7.0807   54.3695   25.8555 H   0  0  0  0  0  0
    3.0776   53.3861   28.0700 H   0  0  0  0  0  0
    1.1437   52.8302   26.6825 H   0  0  0  0  0  0
    3.1414   54.4739   23.2500 H   0  0  0  0  0  0
    5.0880   54.9571   24.5936 H   0  0  0  0  0  0
   -0.0980   53.6274   24.4844 H   0  0  0  0  0  0
    0.8495   53.7748   23.0491 H   0  0  0  0  0  0
   -0.6910   51.6073   25.3478 H   0  0  0  0  0  0
   -1.2874   51.6281   23.7424 H   0  0  0  0  0  0
    2.7383   52.6591   22.1534 H   0  0  0  0  0  0
    2.7103   49.2992   19.5242 H   0  0  0  0  0  0
    0.8341   48.3076   20.7973 H   0  0  0  0  0  0
    4.0503   52.6035   20.1515 H   0  0  0  0  0  0
    4.3402   51.0947   19.3097 H   0  0  0  0  0  0
    0.3205   49.2010   26.1597 H   0  0  0  0  0  0
    0.4531   47.9040   24.9780 H   0  0  0  0  0  0
    1.5036   49.2978   24.8571 H   0  0  0  0  0  0
   -2.2627   49.4474   25.5654 H   0  0  0  0  0  0
   -2.7257   49.6834   23.8748 H   0  0  0  0  0  0
   -2.0912   48.1338   24.4063 H   0  0  0  0  0  0
  1  2  1  0  0  0
  1 24  1  0  0  0
  1 25  1  0  0  0
  1 26  1  0  0  0
  2  3  1  0  0  0
  2  4  1  0  0  0
  2 27  1  0  0  0
  3 28  1  0  0  0
  3 29  1  0  0  0
  3 30  1  0  0  0
  4  9  2  0  0  0
  4  5  1  0  0  0
  5  6  2  0  0  0
  5 31  1  0  0  0
  6  7  1  0  0  0
  6 32  1  0  0  0
  7  8  2  0  0  0
  7 10  1  0  0  0
  8  9  1  0  0  0
  8 33  1  0  0  0
  9 34  1  0  0  0
 10 11  1  0  0  0
 10 35  1  0  0  0
 10 36  1  0  0  0
 11 16  1  0  0  0
 11 12  1  0  0  0
 12 13  1  0  0  0
 12 37  1  0  0  0
 12 38  1  0  0  0
 13 14  1  0  0  0
 13 22  1  0  0  0
 13 23  1  0  0  0
 14 15  1  0  0  0
 15 20  2  0  0  0
 15 16  1  0  0  0
 16 17  2  0  0  0
 17 18  1  0  0  0
 17 39  1  0  0  0
 18 19  2  0  0  0
 18 21  1  0  0  0
 19 20  1  0  0  0
 19 40  1  0  0  0
 20 41  1  0  0  0
 21 42  1  0  0  0
 21 43  1  0  0  0
 22 44  1  0  0  0
 22 45  1  0  0  0
 22 46  1  0  0  0
 23 47  1  0  0  0
 23 48  1  0  0  0
 23 49  1  0  0  0
M  END
> <i_i_glide_confnum>
4

> <i_i_glide_lignum>
3871

> <i_i_glide_posenum>
345

> <i_i_glide_rotatable_bonds>
3

> <i_m_Source_File_Index>
5531

> <b_m_subgroup_collapsed>
0

> <r_i_docking_score>
-5.94793

> <r_i_glide_ecoul>
-3.17583

> <r_i_glide_eff_state_penalty>
0

> <r_i_glide_einternal>
1.98649

> <r_i_glide_emodel>
-46.1802

> <r_i_glide_energy>
-33.9471

> <r_i_glide_erotb>
0.384579

> <r_i_glide_esite>
-0.0871655

> <r_i_glide_evdw>
-30.7712

> <r_i_glide_gscore>
-5.94793

> <r_i_glide_hbond>
-0.16

> <r_i_glide_ligand_efficiency>
-0.258606

> <r_i_glide_ligand_efficiency_ln>
-1.43826

> <r_i_glide_ligand_efficiency_sa>
-0.73544

> <r_i_glide_lipo>
-2.61694

> <r_i_glide_metal>
0

> <r_i_glide_rewards>
-1.45347

> <s_i_glide_gridfile>
wee1_glide-grid

> <s_m_Source_File>
wee1_decoys_glide_SP.sdf

> <s_m_Source_Path>
/Users/zhangxujun/Desktop

> <s_m_entry_id>
5806

> <s_m_entry_name>
wee1_decoys_glide_SP.5531

> <s_m_subgroup_title>
wee1_decoys_glide_SP

> <s_m_subgroupid>
wee1_decoys_glide_SP


$$$$
