ZINC39688453_1301
                    3D
 Schrodinger Suite 2024-2.
 66 69  0  0  1  0            999 V2000
   -0.3547   49.0089   25.8605 C   0  0  0  0  0  0
   -1.3107   48.9188   24.6566 C   0  0  2  0  0  0
   -2.2824   49.2414   25.0347 H   0  0  0  0  0  0
   -1.4970   47.4718   24.1307 C   0  0  0  0  0  0
   -2.6828   46.7453   24.7666 C   0  0  0  0  0  0
   -2.6065   46.2711   26.0812 C   0  0  0  0  0  0
   -3.7045   45.6470   26.6666 C   0  0  0  0  0  0
   -4.8798   45.4904   25.9382 C   0  0  0  0  0  0
   -4.9621   45.9490   24.6260 C   0  0  0  0  0  0
   -3.8656   46.5796   24.0395 C   0  0  0  0  0  0
   -5.9430   44.8801   26.5055 F   0  0  0  0  0  0
   -1.0072   49.9061   23.6203 N   0  0  0  0  0  0
    0.1550   50.0391   22.9559 C   0  0  0  0  0  0
    1.1045   49.2768   23.1039 O   0  0  0  0  0  0
    0.2216   51.2198   21.9643 C   0  0  1  0  0  0
   -0.7789   51.3900   21.5623 H   0  0  0  0  0  0
    0.6122   52.4537   22.7910 C   0  0  0  0  0  0
    2.0466   52.6471   22.5689 N   0  0  0  0  0  0
    2.5783   51.6754   21.5965 C   0  0  0  0  0  0
    1.3118   51.1540   20.8513 C   0  0  0  0  0  0
    0.8916   52.1235   19.7008 C   0  0  0  0  0  0
    1.9798   52.2884   18.6142 C   0  0  0  0  0  0
    2.3051   50.8969   18.0254 N   0  3  0  0  0  0
    2.5932   49.8155   19.0908 C   0  0  0  0  0  0
    1.4450   49.7903   20.1117 C   0  0  0  0  0  0
    2.6895   53.6835   23.1726 C   0  0  0  0  0  0
    2.1263   54.4060   23.9991 O   0  0  0  0  0  0
    4.1168   54.0053   22.8002 C   0  0  0  0  0  0
    4.4311   54.2851   21.4616 C   0  0  0  0  0  0
    5.6990   54.7362   21.1044 C   0  0  0  0  0  0
    6.6788   54.8972   22.0791 C   0  0  0  0  0  0
    6.3897   54.5978   23.4074 C   0  0  0  0  0  0
    5.1053   54.1748   23.7943 C   0  0  0  0  0  0
    4.7670   53.9733   25.1215 O   0  0  0  0  0  0
    5.5701   54.5674   26.1424 C   0  0  0  0  0  0
   -0.4674   48.1294   26.4783 H   0  0  0  0  0  0
    0.6993   49.0378   25.5894 H   0  0  0  0  0  0
   -0.5866   49.8619   26.4929 H   0  0  0  0  0  0
   -0.5847   46.8972   24.2812 H   0  0  0  0  0  0
   -1.6387   47.4760   23.0478 H   0  0  0  0  0  0
   -1.7078   46.3911   26.6676 H   0  0  0  0  0  0
   -3.6442   45.2720   27.6803 H   0  0  0  0  0  0
   -5.8784   45.8233   24.0692 H   0  0  0  0  0  0
   -3.9440   46.9483   23.0266 H   0  0  0  0  0  0
   -1.7357   50.5768   23.4312 H   0  0  0  0  0  0
    0.0849   53.2955   22.3720 H   0  0  0  0  0  0
    0.3206   52.3942   23.8434 H   0  0  0  0  0  0
    2.9976   50.8339   22.1502 H   0  0  0  0  0  0
    3.3541   52.0265   20.9223 H   0  0  0  0  0  0
   -0.0584   51.8243   19.2545 H   0  0  0  0  0  0
    0.7057   53.1129   20.1147 H   0  0  0  0  0  0
    1.6415   52.9059   17.7814 H   0  0  0  0  0  0
    2.9201   52.6987   18.9796 H   0  0  0  0  0  0
    1.5447   50.5821   17.4405 H   0  0  0  0  0  0
    2.6997   48.8761   18.5451 H   0  0  0  0  0  0
    3.5406   50.0676   19.5597 H   0  0  0  0  0  0
    1.6895   48.9878   20.8044 H   0  0  0  0  0  0
    0.5025   49.4891   19.6522 H   0  0  0  0  0  0
    3.6755   54.2177   20.6902 H   0  0  0  0  0  0
    5.9173   54.9712   20.0724 H   0  0  0  0  0  0
    7.6662   55.2447   21.8077 H   0  0  0  0  0  0
    7.1794   54.7305   24.1298 H   0  0  0  0  0  0
    5.0998   54.3924   27.1114 H   0  0  0  0  0  0
    6.5729   54.1319   26.1937 H   0  0  0  0  0  0
    5.6495   55.6539   25.9997 H   0  0  0  0  0  0
    3.1237   50.9371   17.4224 H   0  0  0  0  0  0
  1  2  1  0  0  0
  1 36  1  0  0  0
  1 37  1  0  0  0
  1 38  1  0  0  0
  2  3  1  0  0  0
  2  4  1  0  0  0
  2 12  1  0  0  0
  4  5  1  0  0  0
  4 39  1  0  0  0
  4 40  1  0  0  0
  5 10  2  0  0  0
  5  6  1  0  0  0
  6  7  2  0  0  0
  6 41  1  0  0  0
  7  8  1  0  0  0
  7 42  1  0  0  0
  8  9  2  0  0  0
  8 11  1  0  0  0
  9 10  1  0  0  0
  9 43  1  0  0  0
 10 44  1  0  0  0
 12 13  1  0  0  0
 12 45  1  0  0  0
 13 14  2  0  0  0
 13 15  1  0  0  0
 15 16  1  0  0  0
 15 20  1  0  0  0
 15 17  1  0  0  0
 17 18  1  0  0  0
 17 46  1  0  0  0
 17 47  1  0  0  0
 18 19  1  0  0  0
 18 26  1  0  0  0
 19 20  1  0  0  0
 19 48  1  0  0  0
 19 49  1  0  0  0
 20 25  1  0  0  0
 20 21  1  0  0  0
 21 22  1  0  0  0
 21 50  1  0  0  0
 21 51  1  0  0  0
 22 23  1  0  0  0
 22 52  1  0  0  0
 22 53  1  0  0  0
 23 24  1  0  0  0
 23 54  1  0  0  0
 23 66  1  0  0  0
 24 25  1  0  0  0
 24 55  1  0  0  0
 24 56  1  0  0  0
 25 57  1  0  0  0
 25 58  1  0  0  0
 26 27  2  0  0  0
 26 28  1  0  0  0
 28 33  2  0  0  0
 28 29  1  0  0  0
 29 30  2  0  0  0
 29 59  1  0  0  0
 30 31  1  0  0  0
 30 60  1  0  0  0
 31 32  2  0  0  0
 31 61  1  0  0  0
 32 33  1  0  0  0
 32 62  1  0  0  0
 33 34  1  0  0  0
 34 35  1  0  0  0
 35 63  1  0  0  0
 35 64  1  0  0  0
 35 65  1  0  0  0
M  CHG  1  23   1
M  END
> <i_i_glide_confnum>
336

> <i_i_glide_lignum>
1302

> <i_i_glide_posenum>
294

> <i_i_glide_rotatable_bonds>
8

> <i_m_Source_File_Index>
5666

> <b_m_subgroup_collapsed>
0

> <r_i_docking_score>
-4.5877

> <r_i_glide_ecoul>
-4.67193

> <r_i_glide_eff_state_penalty>
0

> <r_i_glide_einternal>
17.6623

> <r_i_glide_emodel>
-45.2013

> <r_i_glide_energy>
-40.0317

> <r_i_glide_erotb>
0.583154

> <r_i_glide_esite>
-0.103716

> <r_i_glide_evdw>
-35.3598

> <r_i_glide_gscore>
-4.5877

> <r_i_glide_hbond>
-0.0708851

> <r_i_glide_ligand_efficiency>
-0.139021

> <r_i_glide_ligand_efficiency_ln>
-1.02028

> <r_i_glide_ligand_efficiency_sa>
-0.445915

> <r_i_glide_lipo>
-1.74769

> <r_i_glide_metal>
0

> <r_i_glide_rewards>
-0.779785

> <s_i_glide_gridfile>
wee1_glide-grid

> <s_m_Source_File>
wee1_decoys_glide_SP.sdf

> <s_m_Source_Path>
/Users/zhangxujun/Desktop

> <s_m_entry_id>
5941

> <s_m_entry_name>
wee1_decoys_glide_SP.5666

> <s_m_subgroup_title>
wee1_decoys_glide_SP

> <s_m_subgroupid>
wee1_decoys_glide_SP


$$$$
