ZINC00846314_4965
                    3D
 Schrodinger Suite 2024-2.
 60 64  0  0  1  0            999 V2000
   -0.3148   48.4982   25.4754 C   0  0  0  0  0  0
    0.7044   49.4943   25.5157 O   0  0  0  0  0  0
    0.5799   50.4967   24.5858 C   0  0  0  0  0  0
    1.5180   50.5843   23.5541 C   0  0  0  0  0  0
    1.4428   51.6043   22.5988 C   0  0  0  0  0  0
    0.3733   52.4963   22.6557 C   0  0  0  0  0  0
   -0.5762   52.4182   23.6773 C   0  0  0  0  0  0
   -0.4495   51.4464   24.6763 C   0  0  0  0  0  0
   -1.3579   51.4146   25.7102 O   0  0  0  0  0  0
   -0.8433   51.8314   26.9687 C   0  0  0  0  0  0
   -1.6054   53.3249   23.7003 O   0  0  0  0  0  0
   -2.8870   52.7945   23.3916 C   0  0  0  0  0  0
    2.3989   51.6898   21.4514 C   0  0  0  0  0  0
    3.2708   52.7352   20.9832 C   0  0  0  0  0  0
    3.7518   52.2076   19.8169 C   0  0  0  0  0  0
    3.2612   50.9553   19.6814 N   0  0  0  0  0  0
    3.5516   50.3233   18.9413 H   0  0  0  0  0  0
    2.4516   50.6207   20.6759 N   0  0  0  0  0  0
    4.6364   52.7529   18.9257 O   0  0  0  0  0  0
    5.3091   53.8288   19.3963 C   0  0  0  0  0  0
    5.0566   54.4843   20.5529 C   0  0  0  0  0  0
    3.8232   54.1095   21.4261 C   0  0  2  0  0  0
    3.1045   54.8900   21.2075 H   0  0  0  0  0  0
    3.9362   54.2018   22.9267 C   0  0  0  0  0  0
    2.7456   54.3157   23.6347 C   0  0  0  0  0  0
    2.7377   54.1490   24.9996 C   0  0  0  0  0  0
    3.9419   54.0349   25.6840 C   0  0  0  0  0  0
    5.1555   54.0854   24.9848 C   0  0  0  0  0  0
    5.1552   54.1091   23.5975 C   0  0  0  0  0  0
    3.9177   53.8462   27.1420 C   0  0  0  0  0  0
    2.9558   53.0258   27.7501 C   0  0  0  0  0  0
    2.9556   52.8545   29.1292 C   0  0  0  0  0  0
    3.9039   53.5265   29.8905 C   0  0  0  0  0  0
    4.8364   54.3684   29.2843 C   0  0  0  0  0  0
    4.8632   54.5041   27.9168 C   0  0  0  0  0  0
    5.9038   55.5901   20.8836 C   0  0  0  0  0  0
    6.6344   56.4703   21.0687 N   0  0  0  0  0  0
    6.3045   54.0973   18.4967 N   0  0  0  0  0  0
   -0.4921   48.1156   26.4797 H   0  0  0  0  0  0
   -1.2762   48.8533   25.0985 H   0  0  0  0  0  0
    0.0049   47.6654   24.8489 H   0  0  0  0  0  0
    2.3115   49.8518   23.5040 H   0  0  0  0  0  0
    0.3047   53.2557   21.8924 H   0  0  0  0  0  0
   -1.6460   51.8269   27.7060 H   0  0  0  0  0  0
   -0.0632   51.1630   27.3344 H   0  0  0  0  0  0
   -0.4413   52.8446   26.9189 H   0  0  0  0  0  0
   -3.6045   53.6135   23.3457 H   0  0  0  0  0  0
   -2.8892   52.2906   22.4241 H   0  0  0  0  0  0
   -3.2373   52.0929   24.1486 H   0  0  0  0  0  0
    1.8137   54.4684   23.1168 H   0  0  0  0  0  0
    1.7921   54.1380   25.5221 H   0  0  0  0  0  0
    6.0983   53.9878   25.5039 H   0  0  0  0  0  0
    6.0893   54.0310   23.0613 H   0  0  0  0  0  0
    2.2267   52.4959   27.1532 H   0  0  0  0  0  0
    2.2291   52.2057   29.5969 H   0  0  0  0  0  0
    3.9265   53.3784   30.9590 H   0  0  0  0  0  0
    5.5632   54.9031   29.8802 H   0  0  0  0  0  0
    5.6005   55.1553   27.4701 H   0  0  0  0  0  0
    6.9003   54.9056   18.5955 H   0  0  0  0  0  0
    6.5684   53.3946   17.8203 H   0  0  0  0  0  0
  1  2  1  0  0  0
  1 39  1  0  0  0
  1 40  1  0  0  0
  1 41  1  0  0  0
  2  3  1  0  0  0
  3  8  2  0  0  0
  3  4  1  0  0  0
  4  5  2  0  0  0
  4 42  1  0  0  0
  5  6  1  0  0  0
  5 13  1  0  0  0
  6  7  2  0  0  0
  6 43  1  0  0  0
  7  8  1  0  0  0
  7 11  1  0  0  0
  8  9  1  0  0  0
  9 10  1  0  0  0
 10 44  1  0  0  0
 10 45  1  0  0  0
 10 46  1  0  0  0
 11 12  1  0  0  0
 12 47  1  0  0  0
 12 48  1  0  0  0
 12 49  1  0  0  0
 13 18  2  0  0  0
 13 14  1  0  0  0
 14 22  1  0  0  0
 14 15  2  0  0  0
 15 16  1  0  0  0
 15 19  1  0  0  0
 16 17  1  0  0  0
 16 18  1  0  0  0
 19 20  1  0  0  0
 20 21  2  0  0  0
 20 38  1  0  0  0
 21 22  1  0  0  0
 21 36  1  0  0  0
 22 23  1  0  0  0
 22 24  1  0  0  0
 24 29  2  0  0  0
 24 25  1  0  0  0
 25 26  2  0  0  0
 25 50  1  0  0  0
 26 27  1  0  0  0
 26 51  1  0  0  0
 27 28  2  0  0  0
 27 30  1  0  0  0
 28 29  1  0  0  0
 28 52  1  0  0  0
 29 53  1  0  0  0
 30 35  2  0  0  0
 30 31  1  0  0  0
 31 32  2  0  0  0
 31 54  1  0  0  0
 32 33  1  0  0  0
 32 55  1  0  0  0
 33 34  2  0  0  0
 33 56  1  0  0  0
 34 35  1  0  0  0
 34 57  1  0  0  0
 35 58  1  0  0  0
 36 37  3  0  0  0
 38 59  1  0  0  0
 38 60  1  0  0  0
M  END
> <i_i_glide_confnum>
18

> <i_i_glide_lignum>
4966

> <i_i_glide_posenum>
39

> <i_i_glide_rotatable_bonds>
7

> <i_m_Source_File_Index>
5173

> <b_m_subgroup_collapsed>
0

> <r_i_docking_score>
-5.98281

> <r_i_glide_ecoul>
-4.99286

> <r_i_glide_eff_state_penalty>
0

> <r_i_glide_einternal>
17.5073

> <r_i_glide_emodel>
-51.486

> <r_i_glide_energy>
-44.3295

> <r_i_glide_erotb>
0.263492

> <r_i_glide_esite>
-0.114708

> <r_i_glide_evdw>
-39.3367

> <r_i_glide_gscore>
-5.98281

> <r_i_glide_hbond>
-0.256739

> <r_i_glide_ligand_efficiency>
-0.166189

> <r_i_glide_ligand_efficiency_ln>
-1.30529

> <r_i_glide_ligand_efficiency_sa>
-0.548744

> <r_i_glide_lipo>
-2.81147

> <r_i_glide_metal>
0

> <r_i_glide_rewards>
-0.34762

> <s_i_glide_gridfile>
wee1_glide-grid

> <s_m_Source_File>
wee1_decoys_glide_SP.sdf

> <s_m_Source_Path>
/Users/zhangxujun/Desktop

> <s_m_entry_id>
5448

> <s_m_entry_name>
wee1_decoys_glide_SP.5173

> <s_m_subgroup_title>
wee1_decoys_glide_SP

> <s_m_subgroupid>
wee1_decoys_glide_SP


$$$$
