ZINC53735982_4806
                    3D
 Schrodinger Suite 2024-2.
 37 39  0  0  1  0            999 V2000
    1.4704   54.1403   23.7941 C   0  0  0  0  0  0
    2.8230   54.0478   24.4905 C   0  0  0  0  0  0
    3.9457   54.3374   23.7145 C   0  0  0  0  0  0
    5.2148   54.3712   24.2795 C   0  0  0  0  0  0
    5.3851   54.0967   25.6328 C   0  0  0  0  0  0
    4.2800   53.7690   26.4161 C   0  0  0  0  0  0
    2.9889   53.7536   25.8660 C   0  0  0  0  0  0
    1.9051   53.3915   26.7105 N   0  0  0  0  0  0
    0.9283   52.4428   26.4416 C   0  0  0  0  0  0
    0.7043   51.5572   25.3772 C   0  0  0  0  0  0
   -0.4693   50.8061   25.4138 C   0  0  0  0  0  0
   -1.3544   50.8847   26.4849 C   0  0  0  0  0  0
   -1.0929   51.6967   27.5857 C   0  0  0  0  0  0
    0.0553   52.4981   27.5557 C   0  0  0  0  0  0
    0.4952   53.4008   28.4816 N   0  0  0  0  0  0
    1.5739   53.9341   27.9533 C   0  0  0  0  0  0
    2.3689   55.0531   28.6371 C   0  0  1  0  0  0
    2.9162   55.6235   27.8887 H   0  0  0  0  0  0
    1.5051   56.0583   29.4198 C   0  0  0  0  0  0
    3.3140   54.4969   29.5328 O   0  0  0  0  0  0
   -2.4956   50.0967   26.4817 N   0  0  0  0  0  0
    6.7044   54.7906   23.1816 Br  0  0  0  0  0  0
    0.6800   54.4308   24.4816 H   0  0  0  0  0  0
    1.4887   54.8967   23.0133 H   0  0  0  0  0  0
    1.2081   53.2085   23.2973 H   0  0  0  0  0  0
    3.8346   54.5640   22.6635 H   0  0  0  0  0  0
    6.3731   54.1040   26.0681 H   0  0  0  0  0  0
    4.4420   53.5070   27.4513 H   0  0  0  0  0  0
    1.3965   51.4559   24.5552 H   0  0  0  0  0  0
   -0.6800   50.1302   24.5976 H   0  0  0  0  0  0
   -1.7649   51.7169   28.4302 H   0  0  0  0  0  0
    0.7797   56.5363   28.7628 H   0  0  0  0  0  0
    0.9534   55.5753   30.2277 H   0  0  0  0  0  0
    2.1106   56.8520   29.8603 H   0  0  0  0  0  0
    3.8434   55.2126   29.8909 H   0  0  0  0  0  0
   -2.4919   49.5081   27.3171 H   0  0  0  0  0  0
   -2.6516   49.5894   25.6258 H   0  0  0  0  0  0
  1  2  1  0  0  0
  1 23  1  0  0  0
  1 24  1  0  0  0
  1 25  1  0  0  0
  2  7  2  0  0  0
  2  3  1  0  0  0
  3  4  2  0  0  0
  3 26  1  0  0  0
  4  5  1  0  0  0
  4 22  1  0  0  0
  5  6  2  0  0  0
  5 27  1  0  0  0
  6  7  1  0  0  0
  6 28  1  0  0  0
  7  8  1  0  0  0
  8 16  1  0  0  0
  8  9  1  0  0  0
  9 14  2  0  0  0
  9 10  1  0  0  0
 10 11  2  0  0  0
 10 29  1  0  0  0
 11 12  1  0  0  0
 11 30  1  0  0  0
 12 13  2  0  0  0
 12 21  1  0  0  0
 13 14  1  0  0  0
 13 31  1  0  0  0
 14 15  1  0  0  0
 15 16  2  0  0  0
 16 17  1  0  0  0
 17 18  1  0  0  0
 17 19  1  0  0  0
 17 20  1  0  0  0
 19 32  1  0  0  0
 19 33  1  0  0  0
 19 34  1  0  0  0
 20 35  1  0  0  0
 21 36  1  0  0  0
 21 37  1  0  0  0
M  END
> <i_i_glide_confnum>
1

> <i_i_glide_lignum>
4807

> <i_i_glide_posenum>
350

> <i_i_glide_rotatable_bonds>
3

> <i_m_Source_File_Index>
1485

> <b_m_subgroup_collapsed>
0

> <r_i_docking_score>
-6.32812

> <r_i_glide_ecoul>
-3.05747

> <r_i_glide_eff_state_penalty>
0

> <r_i_glide_einternal>
1.47582

> <r_i_glide_emodel>
-48.1465

> <r_i_glide_energy>
-35.835

> <r_i_glide_erotb>
0.317169

> <r_i_glide_esite>
-0.1

> <r_i_glide_evdw>
-32.7776

> <r_i_glide_gscore>
-6.32812

> <r_i_glide_hbond>
-0.263147

> <r_i_glide_ligand_efficiency>
-0.301339

> <r_i_glide_ligand_efficiency_ln>
-1.56462

> <r_i_glide_ligand_efficiency_sa>
-0.831372

> <r_i_glide_lipo>
-2.54334

> <r_i_glide_metal>
0

> <r_i_glide_rewards>
-1.64131

> <s_i_glide_gridfile>
wee1_glide-grid

> <s_m_Source_File>
wee1_decoys_glide_SP.sdf

> <s_m_Source_Path>
/Users/zhangxujun/Desktop

> <s_m_entry_id>
1760

> <s_m_entry_name>
wee1_decoys_glide_SP.1485

> <s_m_subgroup_title>
wee1_decoys_glide_SP

> <s_m_subgroupid>
wee1_decoys_glide_SP


$$$$
