ZINC39682972_395
                    3D
 Schrodinger Suite 2024-2.
 67 70  0  0  1  0            999 V2000
    4.9878   54.3703   17.5465 C   0  0  0  0  0  0
    6.0581   54.9159   18.3134 O   0  0  0  0  0  0
    5.9689   54.9057   19.6909 C   0  0  0  0  0  0
    7.0914   55.3336   20.3960 C   0  0  0  0  0  0
    7.1047   55.3233   21.7902 C   0  0  0  0  0  0
    5.9857   54.8884   22.5153 C   0  0  0  0  0  0
    4.8366   54.4935   21.8137 C   0  0  0  0  0  0
    4.8382   54.4978   20.4141 C   0  0  0  0  0  0
    3.5833   54.0512   22.5784 C   0  0  0  0  0  0
    2.8631   52.8779   22.0749 N   0  0  0  0  0  0
    3.4130   51.7159   21.6810 C   0  0  0  0  0  0
    4.6220   51.5611   21.5143 O   0  0  0  0  0  0
    2.4614   50.5372   21.3794 C   0  0  1  0  0  0
    3.1020   49.6530   21.4256 H   0  0  0  0  0  0
    1.3578   50.3433   22.4237 C   0  0  0  0  0  0
    0.2180   51.0477   21.8300 N   0  0  0  0  0  0
    0.3628   51.2134   20.3743 C   0  0  0  0  0  0
    1.7455   50.6062   19.9981 C   0  0  0  0  0  0
    2.4774   51.3743   18.8586 C   0  0  0  0  0  0
    1.6937   51.3645   17.5292 C   0  0  0  0  0  0
    1.5045   49.8969   17.0868 N   0  3  0  0  0  0
    0.8214   49.0168   18.1597 C   0  0  0  0  0  0
    1.6305   49.1397   19.4712 C   0  0  0  0  0  0
   -0.8366   51.5696   22.5109 C   0  0  0  0  0  0
   -1.7923   52.0969   21.9385 O   0  0  0  0  0  0
   -0.8323   51.5074   24.0192 C   0  0  0  0  0  0
   -1.8660   50.8457   24.6907 C   0  0  0  0  0  0
   -1.8747   50.7868   26.0825 C   0  0  0  0  0  0
   -0.8658   51.4010   26.8223 C   0  0  0  0  0  0
    0.1693   52.0825   26.1721 C   0  0  0  0  0  0
    0.1721   52.1394   24.7704 C   0  0  0  0  0  0
    1.2713   52.7450   27.0001 C   0  0  0  0  0  0
    1.9020   51.8257   27.7319 F   0  0  0  0  0  0
    2.1759   53.3608   26.2355 F   0  0  0  0  0  0
    0.7428   53.6479   27.8283 F   0  0  0  0  0  0
   -0.9038   51.3404   28.1724 F   0  0  0  0  0  0
    5.9267   54.8535   23.8982 O   0  0  0  0  0  0
    7.1017   55.0649   24.6671 C   0  0  0  0  0  0
    5.2456   54.4191   16.4894 H   0  0  0  0  0  0
    4.0643   54.9339   17.6877 H   0  0  0  0  0  0
    4.8125   53.3222   17.7960 H   0  0  0  0  0  0
    7.9692   55.6589   19.8559 H   0  0  0  0  0  0
    7.9899   55.6704   22.2918 H   0  0  0  0  0  0
    3.9464   54.1809   19.8980 H   0  0  0  0  0  0
    3.8158   53.8128   23.6162 H   0  0  0  0  0  0
    2.8822   54.8859   22.5972 H   0  0  0  0  0  0
    1.8560   52.9167   22.1224 H   0  0  0  0  0  0
    1.1324   49.2778   22.4961 H   0  0  0  0  0  0
    1.6924   50.6673   23.4075 H   0  0  0  0  0  0
    0.4371   52.2892   20.2057 H   0  0  0  0  0  0
   -0.4651   50.8482   19.7669 H   0  0  0  0  0  0
    2.6184   52.4170   19.1399 H   0  0  0  0  0  0
    3.4851   50.9808   18.7218 H   0  0  0  0  0  0
    0.6987   51.8117   17.6077 H   0  0  0  0  0  0
    2.2510   51.8520   16.7252 H   0  0  0  0  0  0
    0.9950   49.8543   16.2149 H   0  0  0  0  0  0
   -0.2132   49.3561   18.2359 H   0  0  0  0  0  0
    0.8291   47.9989   17.7653 H   0  0  0  0  0  0
    2.6229   48.6970   19.3387 H   0  0  0  0  0  0
    1.1380   48.5127   20.2183 H   0  0  0  0  0  0
   -2.6584   50.3612   24.1375 H   0  0  0  0  0  0
   -2.6569   50.2537   26.6016 H   0  0  0  0  0  0
    0.9576   52.6809   24.2648 H   0  0  0  0  0  0
    6.8442   55.0190   25.7263 H   0  0  0  0  0  0
    7.8304   54.2776   24.4817 H   0  0  0  0  0  0
    7.5356   56.0451   24.4766 H   0  0  0  0  0  0
    2.4397   49.5256   16.8848 H   0  0  0  0  0  0
  1  2  1  0  0  0
  1 39  1  0  0  0
  1 40  1  0  0  0
  1 41  1  0  0  0
  2  3  1  0  0  0
  3  8  2  0  0  0
  3  4  1  0  0  0
  4  5  2  0  0  0
  4 42  1  0  0  0
  5  6  1  0  0  0
  5 43  1  0  0  0
  6  7  2  0  0  0
  6 37  1  0  0  0
  7  8  1  0  0  0
  7  9  1  0  0  0
  8 44  1  0  0  0
  9 10  1  0  0  0
  9 45  1  0  0  0
  9 46  1  0  0  0
 10 11  1  0  0  0
 10 47  1  0  0  0
 11 12  2  0  0  0
 11 13  1  0  0  0
 13 14  1  0  0  0
 13 18  1  0  0  0
 13 15  1  0  0  0
 15 16  1  0  0  0
 15 48  1  0  0  0
 15 49  1  0  0  0
 16 17  1  0  0  0
 16 24  1  0  0  0
 17 18  1  0  0  0
 17 50  1  0  0  0
 17 51  1  0  0  0
 18 23  1  0  0  0
 18 19  1  0  0  0
 19 20  1  0  0  0
 19 52  1  0  0  0
 19 53  1  0  0  0
 20 21  1  0  0  0
 20 54  1  0  0  0
 20 55  1  0  0  0
 21 22  1  0  0  0
 21 56  1  0  0  0
 21 67  1  0  0  0
 22 23  1  0  0  0
 22 57  1  0  0  0
 22 58  1  0  0  0
 23 59  1  0  0  0
 23 60  1  0  0  0
 24 25  2  0  0  0
 24 26  1  0  0  0
 26 31  2  0  0  0
 26 27  1  0  0  0
 27 28  2  0  0  0
 27 61  1  0  0  0
 28 29  1  0  0  0
 28 62  1  0  0  0
 29 30  2  0  0  0
 29 36  1  0  0  0
 30 31  1  0  0  0
 30 32  1  0  0  0
 31 63  1  0  0  0
 32 33  1  0  0  0
 32 34  1  0  0  0
 32 35  1  0  0  0
 37 38  1  0  0  0
 38 64  1  0  0  0
 38 65  1  0  0  0
 38 66  1  0  0  0
M  CHG  1  21   1
M  END
> <i_i_glide_confnum>
293

> <i_i_glide_lignum>
396

> <i_i_glide_posenum>
380

> <i_i_glide_rotatable_bonds>
9

> <i_m_Source_File_Index>
2525

> <b_m_subgroup_collapsed>
0

> <r_i_docking_score>
-5.12741

> <r_i_glide_ecoul>
-9.99497

> <r_i_glide_eff_state_penalty>
0

> <r_i_glide_einternal>
11.8872

> <r_i_glide_emodel>
-57.0953

> <r_i_glide_energy>
-45.0658

> <r_i_glide_erotb>
0.448742

> <r_i_glide_esite>
-0.195627

> <r_i_glide_evdw>
-35.0708

> <r_i_glide_gscore>
-5.12741

> <r_i_glide_hbond>
-0.2

> <r_i_glide_ligand_efficiency>
-0.138579

> <r_i_glide_ligand_efficiency_ln>
-1.11202

> <r_i_glide_ligand_efficiency_sa>
-0.461775

> <r_i_glide_lipo>
-1.32567

> <r_i_glide_metal>
0

> <r_i_glide_rewards>
-0.602068

> <s_i_glide_gridfile>
wee1_glide-grid

> <s_m_Source_File>
wee1_decoys_glide_SP.sdf

> <s_m_Source_Path>
/Users/zhangxujun/Desktop

> <s_m_entry_id>
2800

> <s_m_entry_name>
wee1_decoys_glide_SP.2525

> <s_m_subgroup_title>
wee1_decoys_glide_SP

> <s_m_subgroupid>
wee1_decoys_glide_SP


$$$$
