ZINC13372046_1480
                    3D
 Schrodinger Suite 2024-2.
 46 51  0  0  1  0            999 V2000
    2.0455   53.2539   23.0777 C   0  0  0  0  0  0
    3.2345   53.7109   22.4944 C   0  0  0  0  0  0
    4.2611   54.0960   23.3469 C   0  0  0  0  0  0
    4.1084   54.0966   24.7036 C   0  0  0  0  0  0
    2.9343   53.6559   25.3081 C   0  0  0  0  0  0
    1.8985   53.1788   24.4793 C   0  0  0  0  0  0
    0.6412   52.5352   25.0804 C   0  0  1  0  0  0
   -0.2146   53.1017   24.7132 H   0  0  0  0  0  0
    0.5055   51.0217   24.8261 C   0  0  2  0  0  0
    1.5043   50.5962   24.8793 H   0  0  0  0  0  0
   -0.1145   50.5695   23.5068 C   0  0  0  0  0  0
   -1.3716   50.0256   23.8649 O   0  0  0  0  0  0
   -1.7085   50.1911   25.2098 C   0  0  1  0  0  0
   -0.3407   50.4648   25.9558 C   0  0  2  0  0  0
   -0.3080   51.6039   27.0023 C   0  0  0  0  0  0
    0.6166   52.5710   26.5064 O   0  0  0  0  0  0
    0.2941   49.2968   26.4781 O   0  0  0  0  0  0
   -2.8072   51.3094   25.3257 C   0  0  0  0  0  0
   -2.8381   52.3729   24.3931 C   0  0  0  0  0  0
   -3.7805   53.4046   24.4811 C   0  0  0  0  0  0
   -4.7160   53.3334   25.5014 C   0  0  0  0  0  0
   -4.7224   52.3051   26.3976 C   0  0  0  0  0  0
   -3.7788   51.2843   26.3521 C   0  0  0  0  0  0
   -5.7322   52.4956   27.2866 O   0  0  0  0  0  0
   -6.4916   53.5567   26.7712 C   0  0  0  0  0  0
   -5.7091   54.2088   25.8074 O   0  0  0  0  0  0
   -2.2669   49.0184   25.6820 O   0  0  0  0  0  0
    5.2563   54.5389   25.2830 O   0  0  0  0  0  0
    6.2099   54.5694   24.2528 C   0  0  0  0  0  0
    5.5201   54.4970   23.0331 O   0  0  0  0  0  0
    1.2528   52.9301   22.4223 H   0  0  0  0  0  0
    3.3472   53.7350   21.4200 H   0  0  0  0  0  0
    2.8477   53.6228   26.3840 H   0  0  0  0  0  0
   -0.2485   51.3876   22.8017 H   0  0  0  0  0  0
    0.4893   49.7715   23.0712 H   0  0  0  0  0  0
    0.0167   51.2668   27.9881 H   0  0  0  0  0  0
   -1.2651   52.0945   27.1641 H   0  0  0  0  0  0
   -0.2760   48.8904   27.1512 H   0  0  0  0  0  0
   -2.1220   52.4132   23.5890 H   0  0  0  0  0  0
   -3.7776   54.2192   23.7723 H   0  0  0  0  0  0
   -3.7935   50.4940   27.0887 H   0  0  0  0  0  0
   -6.7844   54.2451   27.5642 H   0  0  0  0  0  0
   -7.3890   53.1566   26.2944 H   0  0  0  0  0  0
   -2.0695   48.9226   26.6242 H   0  0  0  0  0  0
    6.8081   55.4799   24.3006 H   0  0  0  0  0  0
    6.8656   53.7017   24.3463 H   0  0  0  0  0  0
  1  6  2  0  0  0
  1  2  1  0  0  0
  1 31  1  0  0  0
  2  3  2  0  0  0
  2 32  1  0  0  0
  3 30  1  0  0  0
  3  4  1  0  0  0
  4  5  2  0  0  0
  4 28  1  0  0  0
  5  6  1  0  0  0
  5 33  1  0  0  0
  6  7  1  0  0  0
  7  8  1  0  0  0
  7 16  1  0  0  0
  7  9  1  0  0  0
  9 10  1  0  0  0
  9 14  1  0  0  0
  9 11  1  0  0  0
 11 12  1  0  0  0
 11 34  1  0  0  0
 11 35  1  0  0  0
 12 13  1  0  0  0
 13 14  1  0  0  0
 13 18  1  0  0  0
 13 27  1  0  0  0
 14 15  1  0  0  0
 14 17  1  0  0  0
 15 16  1  0  0  0
 15 36  1  0  0  0
 15 37  1  0  0  0
 17 38  1  0  0  0
 18 23  2  0  0  0
 18 19  1  0  0  0
 19 20  2  0  0  0
 19 39  1  0  0  0
 20 21  1  0  0  0
 20 40  1  0  0  0
 21 26  1  0  0  0
 21 22  2  0  0  0
 22 23  1  0  0  0
 22 24  1  0  0  0
 23 41  1  0  0  0
 24 25  1  0  0  0
 25 26  1  0  0  0
 25 42  1  0  0  0
 25 43  1  0  0  0
 27 44  1  0  0  0
 28 29  1  0  0  0
 29 30  1  0  0  0
 29 45  1  0  0  0
 29 46  1  0  0  0
M  END
> <i_i_glide_confnum>
15

> <i_i_glide_lignum>
1481

> <i_i_glide_posenum>
48

> <i_i_glide_rotatable_bonds>
4

> <i_m_Source_File_Index>
877

> <b_m_subgroup_collapsed>
0

> <r_i_docking_score>
-5.81764

> <r_i_glide_ecoul>
-7.62459

> <r_i_glide_eff_state_penalty>
0

> <r_i_glide_einternal>
2.52589

> <r_i_glide_emodel>
-54.0463

> <r_i_glide_energy>
-39.6194

> <r_i_glide_erotb>
0.260773

> <r_i_glide_esite>
-0.0372351

> <r_i_glide_evdw>
-31.9948

> <r_i_glide_gscore>
-5.81764

> <r_i_glide_hbond>
-0.257026

> <r_i_glide_ligand_efficiency>
-0.207773

> <r_i_glide_ligand_efficiency_ln>
-1.34288

> <r_i_glide_ligand_efficiency_sa>
-0.630921

> <r_i_glide_lipo>
-1.69514

> <r_i_glide_metal>
0

> <r_i_glide_rewards>
-1.34558

> <s_i_glide_gridfile>
wee1_glide-grid

> <s_m_Source_File>
wee1_decoys_glide_SP.sdf

> <s_m_Source_Path>
/Users/zhangxujun/Desktop

> <s_m_entry_id>
1152

> <s_m_entry_name>
wee1_decoys_glide_SP.877

> <s_m_subgroup_title>
wee1_decoys_glide_SP

> <s_m_subgroupid>
wee1_decoys_glide_SP


$$$$
