ZINC22410264_2618
                    3D
 Schrodinger Suite 2024-2.
 42 44  0  0  1  0            999 V2000
    0.5697   54.4627   30.8898 C   0  0  0  0  0  0
    0.2972   53.1866   30.4020 C   0  0  0  0  0  0
    0.6257   52.8719   29.0864 C   0  0  0  0  0  0
    1.2375   53.8260   28.2731 C   0  0  0  0  0  0
    1.5045   55.1076   28.7689 C   0  0  0  0  0  0
    1.1726   55.4254   30.0821 C   0  0  0  0  0  0
    1.5043   53.4901   26.9654 O   0  0  0  0  0  0
    2.7366   53.6979   26.3690 C   0  0  0  0  0  0
    3.8998   53.8512   27.1454 C   0  0  0  0  0  0
    5.1207   54.1502   26.5530 C   0  0  0  0  0  0
    5.1981   54.2906   25.1737 C   0  0  0  0  0  0
    4.0618   54.0991   24.3909 C   0  0  0  0  0  0
    2.8217   53.7738   24.9550 C   0  0  0  0  0  0
    1.7794   53.6420   24.0670 N   0  5  0  0  0  0
    0.6757   52.5279   24.1558 S   0  0  0  0  0  0
   -0.6715   53.0311   23.8645 O   0  0  0  0  0  0
    0.8229   51.5667   25.2531 O   0  0  0  0  0  0
    1.1206   51.5757   22.7007 C   0  0  0  0  0  0
    1.9050   50.4231   22.8182 C   0  0  0  0  0  0
    2.2549   49.6939   21.6823 C   0  0  0  0  0  0
    1.8174   50.1048   20.4234 C   0  0  0  0  0  0
    1.0255   51.2508   20.3000 C   0  0  0  0  0  0
    0.6928   51.9935   21.4372 C   0  0  0  0  0  0
    0.4248   51.7594   18.6954 S   0  0  0  0  0  0
    0.4746   50.5926   17.8097 O   0  0  0  0  0  0
   -0.8264   52.4967   18.9026 O   0  0  0  0  0  0
    1.6140   52.8968   18.1319 N   0  0  0  0  0  0
    6.7037   54.6938   24.4374 Cl  0  0  0  0  0  0
    0.3054   54.7054   31.9092 H   0  0  0  0  0  0
   -0.1783   52.4515   31.0381 H   0  0  0  0  0  0
    0.4026   51.8909   28.6914 H   0  0  0  0  0  0
    1.9537   55.8531   28.1290 H   0  0  0  0  0  0
    1.3727   56.4139   30.4702 H   0  0  0  0  0  0
    3.8613   53.7561   28.2202 H   0  0  0  0  0  0
    6.0008   54.2800   27.1661 H   0  0  0  0  0  0
    4.1481   54.2045   23.3188 H   0  0  0  0  0  0
    2.2433   50.0817   23.7863 H   0  0  0  0  0  0
    2.8588   48.8036   21.7802 H   0  0  0  0  0  0
    2.0914   49.5301   19.5489 H   0  0  0  0  0  0
    0.0953   52.8890   21.3456 H   0  0  0  0  0  0
    2.5329   52.4781   17.9624 H   0  0  0  0  0  0
    1.6658   53.7441   18.7084 H   0  0  0  0  0  0
  1  6  2  0  0  0
  1  2  1  0  0  0
  1 29  1  0  0  0
  2  3  2  0  0  0
  2 30  1  0  0  0
  3  4  1  0  0  0
  3 31  1  0  0  0
  4  5  2  0  0  0
  4  7  1  0  0  0
  5  6  1  0  0  0
  5 32  1  0  0  0
  6 33  1  0  0  0
  7  8  1  0  0  0
  8 13  2  0  0  0
  8  9  1  0  0  0
  9 10  2  0  0  0
  9 34  1  0  0  0
 10 11  1  0  0  0
 10 35  1  0  0  0
 11 12  2  0  0  0
 11 28  1  0  0  0
 12 13  1  0  0  0
 12 36  1  0  0  0
 13 14  1  0  0  0
 14 15  1  0  0  0
 15 16  2  0  0  0
 15 17  2  0  0  0
 15 18  1  0  0  0
 18 23  2  0  0  0
 18 19  1  0  0  0
 19 20  2  0  0  0
 19 37  1  0  0  0
 20 21  1  0  0  0
 20 38  1  0  0  0
 21 22  2  0  0  0
 21 39  1  0  0  0
 22 23  1  0  0  0
 22 24  1  0  0  0
 23 40  1  0  0  0
 24 25  2  0  0  0
 24 26  2  0  0  0
 24 27  1  0  0  0
 27 41  1  0  0  0
 27 42  1  0  0  0
M  CHG  1  14  -1
M  END
> <i_i_glide_confnum>
21

> <i_i_glide_lignum>
2619

> <i_i_glide_posenum>
242

> <i_i_glide_rotatable_bonds>
6

> <i_m_Source_File_Index>
5263

> <b_m_subgroup_collapsed>
0

> <r_i_docking_score>
-6.86011

> <r_i_glide_ecoul>
-6.33681

> <r_i_glide_eff_state_penalty>
0

> <r_i_glide_einternal>
9.38423

> <r_i_glide_emodel>
-64.7022

> <r_i_glide_energy>
-47.9938

> <r_i_glide_erotb>
0.52007

> <r_i_glide_esite>
-0.064531

> <r_i_glide_evdw>
-41.657

> <r_i_glide_gscore>
-6.86011

> <r_i_glide_hbond>
-0.316256

> <r_i_glide_ligand_efficiency>
-0.245004

> <r_i_glide_ligand_efficiency_ln>
-1.58351

> <r_i_glide_ligand_efficiency_sa>
-0.743976

> <r_i_glide_lipo>
-3.35999

> <r_i_glide_metal>
0

> <r_i_glide_rewards>
-0.606034

> <s_i_glide_gridfile>
wee1_glide-grid

> <s_m_Source_File>
wee1_decoys_glide_SP.sdf

> <s_m_Source_Path>
/Users/zhangxujun/Desktop

> <s_m_entry_id>
5538

> <s_m_entry_name>
wee1_decoys_glide_SP.5263

> <s_m_subgroup_title>
wee1_decoys_glide_SP

> <s_m_subgroupid>
wee1_decoys_glide_SP


$$$$
