ZINC36861257_4783
                    3D
 Schrodinger Suite 2024-2.
 33 35  0  0  1  0            999 V2000
    4.8378   54.2060   26.2358 C   0  0  0  0  0  0
    5.7883   54.5000   25.2602 C   0  0  0  0  0  0
    5.4204   54.4964   23.9178 C   0  0  0  0  0  0
    4.1146   54.2088   23.5376 C   0  0  0  0  0  0
    3.1617   53.9295   24.5091 C   0  0  0  0  0  0
    3.5239   53.9017   25.8656 C   0  0  0  0  0  0
    2.6357   53.5716   26.9086 N   0  0  0  0  0  0
    1.4644   52.9008   26.8318 C   0  0  0  0  0  0
    0.9677   52.4861   25.7859 O   0  0  0  0  0  0
    0.8167   52.6776   28.1123 C   0  0  0  0  0  0
    1.1824   53.1584   29.3788 C   0  0  0  0  0  0
    0.2952   52.6796   30.3407 C   0  0  0  0  0  0
   -0.6109   51.9130   29.6479 C   0  0  0  0  0  0
   -0.3484   51.9430   28.2994 N   0  0  0  0  0  0
   -1.1629   51.2666   27.2881 C   0  0  0  0  0  0
   -2.6767   51.2338   27.4357 C   0  0  0  0  0  0
   -2.0450   52.0961   26.3743 C   0  0  0  0  0  0
    0.3044   52.8973   31.6814 N   0  0  0  0  0  0
    6.7042   54.8967   22.5778 Br  0  0  0  0  0  0
    5.1347   54.1925   27.2737 H   0  0  0  0  0  0
    6.8059   54.7211   25.5429 H   0  0  0  0  0  0
    3.8345   54.2190   22.4950 H   0  0  0  0  0  0
    2.1539   53.7349   24.1759 H   0  0  0  0  0  0
    2.9522   53.8086   27.8328 H   0  0  0  0  0  0
    2.0254   53.7938   29.6007 H   0  0  0  0  0  0
   -1.4499   51.3378   30.0142 H   0  0  0  0  0  0
   -0.6780   50.3739   26.8881 H   0  0  0  0  0  0
   -3.1824   50.3101   27.1521 H   0  0  0  0  0  0
   -3.1356   51.6966   28.3084 H   0  0  0  0  0  0
   -2.0502   53.1816   26.4905 H   0  0  0  0  0  0
   -2.1177   51.7954   25.3279 H   0  0  0  0  0  0
   -0.4248   52.4724   32.2700 H   0  0  0  0  0  0
    1.1419   53.1616   32.1764 H   0  0  0  0  0  0
  1  6  2  0  0  0
  1  2  1  0  0  0
  1 20  1  0  0  0
  2  3  2  0  0  0
  2 21  1  0  0  0
  3  4  1  0  0  0
  3 19  1  0  0  0
  4  5  2  0  0  0
  4 22  1  0  0  0
  5  6  1  0  0  0
  5 23  1  0  0  0
  6  7  1  0  0  0
  7  8  1  0  0  0
  7 24  1  0  0  0
  8  9  2  0  0  0
  8 10  1  0  0  0
 10 14  1  0  0  0
 10 11  2  0  0  0
 11 12  1  0  0  0
 11 25  1  0  0  0
 12 13  2  0  0  0
 12 18  1  0  0  0
 13 14  1  0  0  0
 13 26  1  0  0  0
 14 15  1  0  0  0
 15 17  1  0  0  0
 15 16  1  0  0  0
 15 27  1  0  0  0
 16 17  1  0  0  0
 16 28  1  0  0  0
 16 29  1  0  0  0
 17 30  1  0  0  0
 17 31  1  0  0  0
 18 32  1  0  0  0
 18 33  1  0  0  0
M  END
> <i_i_glide_confnum>
3

> <i_i_glide_lignum>
4784

> <i_i_glide_posenum>
340

> <i_i_glide_rotatable_bonds>
4

> <i_m_Source_File_Index>
2598

> <b_m_subgroup_collapsed>
0

> <r_i_docking_score>
-5.22138

> <r_i_glide_ecoul>
-3.3281

> <r_i_glide_eff_state_penalty>
0

> <r_i_glide_einternal>
3.53392

> <r_i_glide_emodel>
-46.2978

> <r_i_glide_energy>
-35.7286

> <r_i_glide_erotb>
0.728427

> <r_i_glide_esite>
-0.1288

> <r_i_glide_evdw>
-32.4005

> <r_i_glide_gscore>
-5.22138

> <r_i_glide_hbond>
-0.16

> <r_i_glide_ligand_efficiency>
-0.274809

> <r_i_glide_ligand_efficiency_ln>
-1.32373

> <r_i_glide_ligand_efficiency_sa>
-0.733302

> <r_i_glide_lipo>
-2.0046

> <r_i_glide_metal>
0

> <r_i_glide_rewards>
-1.53717

> <s_i_glide_gridfile>
wee1_glide-grid

> <s_m_Source_File>
wee1_decoys_glide_SP.sdf

> <s_m_Source_Path>
/Users/zhangxujun/Desktop

> <s_m_entry_id>
2873

> <s_m_entry_name>
wee1_decoys_glide_SP.2598

> <s_m_subgroup_title>
wee1_decoys_glide_SP

> <s_m_subgroupid>
wee1_decoys_glide_SP


$$$$
