ZINC35337677_4988
                    3D
 Schrodinger Suite 2024-2.
 71 75  0  0  1  0            999 V2000
    0.2649   51.4638   27.6634 C   0  0  0  0  0  0
   -0.1357   51.1426   26.2239 C   0  0  0  0  0  0
    0.2089   51.7945   25.0749 C   0  0  0  0  0  0
   -0.4371   51.4001   23.7221 C   0  0  2  0  0  0
   -0.9522   52.2933   23.3612 H   0  0  0  0  0  0
   -1.5149   50.3974   23.9160 N   0  0  0  0  0  0
   -2.5119   50.3842   22.8257 C   0  0  0  0  0  0
   -3.1554   48.9896   22.6798 C   0  0  0  0  0  0
   -3.8301   48.4555   23.9504 C   0  0  0  0  0  0
   -2.6242   48.2767   25.2820 S   0  0  0  0  0  0
   -1.6942   49.7198   25.0620 C   0  0  0  0  0  0
   -1.0263   50.0962   26.1530 N   0  3  0  0  0  0
    0.5472   50.9889   22.6203 C   0  0  0  0  0  0
    1.4503   49.9411   22.8253 C   0  0  0  0  0  0
    2.3046   49.5399   21.7992 C   0  0  0  0  0  0
    2.2640   50.1749   20.5586 C   0  0  0  0  0  0
    1.3546   51.2114   20.3293 C   0  0  0  0  0  0
    0.5145   51.6294   21.3752 C   0  0  0  0  0  0
    1.3475   51.7844   19.0441 N   0  0  0  0  0  0
    0.3163   52.3842   18.4110 C   0  0  0  0  0  0
   -0.8182   52.4953   18.8807 O   0  0  0  0  0  0
    0.6187   52.8947   16.9913 C   0  0  0  0  0  0
   -0.4285   53.8711   16.3920 C   0  0  0  0  0  0
   -0.4231   55.2936   17.0108 C   0  0  0  0  0  0
    0.7443   56.1705   16.5283 C   0  0  0  0  0  0
    0.2264   56.8729   15.2722 C   0  0  0  0  0  0
   -1.2635   57.1114   15.5345 C   0  0  0  0  0  0
   -1.6725   56.1200   16.6377 C   0  0  0  0  0  0
    1.1527   52.9139   24.9919 C   0  0  0  0  0  0
    1.0591   53.7716   24.1099 O   0  0  0  0  0  0
    2.1494   52.8996   25.9023 N   0  0  0  0  0  0
    3.3121   53.6879   25.9840 C   0  0  0  0  0  0
    3.9430   53.7268   27.2307 C   0  0  0  0  0  0
    5.1852   54.3381   27.3678 C   0  0  0  0  0  0
    5.8004   54.8969   26.2525 C   0  0  0  0  0  0
    5.1769   54.8721   25.0076 C   0  0  0  0  0  0
    3.9267   54.2738   24.8688 C   0  0  0  0  0  0
    1.1471   50.8932   27.9543 H   0  0  0  0  0  0
    0.4681   52.5232   27.8119 H   0  0  0  0  0  0
   -0.5334   51.2168   28.3675 H   0  0  0  0  0  0
   -3.2627   51.1373   23.0668 H   0  0  0  0  0  0
   -2.0432   50.6782   21.8851 H   0  0  0  0  0  0
   -3.8937   49.0263   21.8776 H   0  0  0  0  0  0
   -2.3985   48.2786   22.3427 H   0  0  0  0  0  0
   -4.5993   49.1427   24.3052 H   0  0  0  0  0  0
   -4.2997   47.4852   23.7867 H   0  0  0  0  0  0
    1.4931   49.4321   23.7782 H   0  0  0  0  0  0
    2.9987   48.7283   21.9664 H   0  0  0  0  0  0
    2.9291   49.8434   19.7721 H   0  0  0  0  0  0
   -0.1697   52.4500   21.2264 H   0  0  0  0  0  0
    2.1905   51.6423   18.5050 H   0  0  0  0  0  0
    0.6569   52.0092   16.3555 H   0  0  0  0  0  0
    1.6161   53.3347   16.9529 H   0  0  0  0  0  0
   -1.4218   53.4277   16.4857 H   0  0  0  0  0  0
   -0.2652   53.9518   15.3154 H   0  0  0  0  0  0
   -0.3819   55.2078   18.0947 H   0  0  0  0  0  0
    1.6621   55.6107   16.3440 H   0  0  0  0  0  0
    0.9818   56.9224   17.2819 H   0  0  0  0  0  0
    0.3555   56.2270   14.4014 H   0  0  0  0  0  0
    0.7633   57.8013   15.0708 H   0  0  0  0  0  0
   -1.8513   56.9660   14.6265 H   0  0  0  0  0  0
   -1.4312   58.1377   15.8646 H   0  0  0  0  0  0
   -1.9882   56.6957   17.5099 H   0  0  0  0  0  0
   -2.5303   55.5032   16.3663 H   0  0  0  0  0  0
    2.0465   52.2288   26.6474 H   0  0  0  0  0  0
    3.4902   53.2578   28.0916 H   0  0  0  0  0  0
    5.6790   54.3617   28.3290 H   0  0  0  0  0  0
    6.7682   55.3597   26.3563 H   0  0  0  0  0  0
    5.6705   55.2983   24.1470 H   0  0  0  0  0  0
    3.4818   54.2231   23.8865 H   0  0  0  0  0  0
   -1.2132   49.5431   26.9914 H   0  0  0  0  0  0
  1  2  1  0  0  0
  1 38  1  0  0  0
  1 39  1  0  0  0
  1 40  1  0  0  0
  2 12  1  0  0  0
  2  3  2  0  0  0
  3  4  1  0  0  0
  3 29  1  0  0  0
  4  5  1  0  0  0
  4  6  1  0  0  0
  4 13  1  0  0  0
  6 11  1  0  0  0
  6  7  1  0  0  0
  7  8  1  0  0  0
  7 41  1  0  0  0
  7 42  1  0  0  0
  8  9  1  0  0  0
  8 43  1  0  0  0
  8 44  1  0  0  0
  9 10  1  0  0  0
  9 45  1  0  0  0
  9 46  1  0  0  0
 10 11  1  0  0  0
 11 12  2  0  0  0
 12 71  1  0  0  0
 13 18  2  0  0  0
 13 14  1  0  0  0
 14 15  2  0  0  0
 14 47  1  0  0  0
 15 16  1  0  0  0
 15 48  1  0  0  0
 16 17  2  0  0  0
 16 49  1  0  0  0
 17 18  1  0  0  0
 17 19  1  0  0  0
 18 50  1  0  0  0
 19 20  1  0  0  0
 19 51  1  0  0  0
 20 21  2  0  0  0
 20 22  1  0  0  0
 22 23  1  0  0  0
 22 52  1  0  0  0
 22 53  1  0  0  0
 23 24  1  0  0  0
 23 54  1  0  0  0
 23 55  1  0  0  0
 24 28  1  0  0  0
 24 25  1  0  0  0
 24 56  1  0  0  0
 25 26  1  0  0  0
 25 57  1  0  0  0
 25 58  1  0  0  0
 26 27  1  0  0  0
 26 59  1  0  0  0
 26 60  1  0  0  0
 27 28  1  0  0  0
 27 61  1  0  0  0
 27 62  1  0  0  0
 28 63  1  0  0  0
 28 64  1  0  0  0
 29 30  2  0  0  0
 29 31  1  0  0  0
 31 32  1  0  0  0
 31 65  1  0  0  0
 32 37  2  0  0  0
 32 33  1  0  0  0
 33 34  2  0  0  0
 33 66  1  0  0  0
 34 35  1  0  0  0
 34 67  1  0  0  0
 35 36  2  0  0  0
 35 68  1  0  0  0
 36 37  1  0  0  0
 36 69  1  0  0  0
 37 70  1  0  0  0
M  CHG  1  12   1
M  END
> <i_i_glide_confnum>
342

> <i_i_glide_lignum>
4989

> <i_i_glide_posenum>
164

> <i_i_glide_rotatable_bonds>
9

> <i_m_Source_File_Index>
3119

> <b_m_subgroup_collapsed>
0

> <r_i_docking_score>
-4.36525

> <r_i_glide_ecoul>
-3.30905

> <r_i_glide_eff_state_penalty>
0

> <r_i_glide_einternal>
6.2177

> <r_i_glide_emodel>
-53.4335

> <r_i_glide_energy>
-41.3198

> <r_i_glide_erotb>
0.644607

> <r_i_glide_esite>
-0.170107

> <r_i_glide_evdw>
-38.0107

> <r_i_glide_gscore>
-4.36525

> <r_i_glide_hbond>
-0.2

> <r_i_glide_ligand_efficiency>
-0.121257

> <r_i_glide_ligand_efficiency_ln>
-0.95238

> <r_i_glide_ligand_efficiency_sa>
-0.400382

> <r_i_glide_lipo>
-2.0267

> <r_i_glide_metal>
0

> <r_i_glide_rewards>
-0.216157

> <s_i_glide_gridfile>
wee1_glide-grid

> <s_m_Source_File>
wee1_decoys_glide_SP.sdf

> <s_m_Source_Path>
/Users/zhangxujun/Desktop

> <s_m_entry_id>
3394

> <s_m_entry_name>
wee1_decoys_glide_SP.3119

> <s_m_subgroup_title>
wee1_decoys_glide_SP

> <s_m_subgroupid>
wee1_decoys_glide_SP


$$$$
