ZINC24556735_1530
                    3D
 Schrodinger Suite 2024-2.
 50 53  0  0  1  0            999 V2000
    2.3904   55.9211   13.5577 C   0  0  0  0  0  0
    3.0210   55.3921   14.8324 C   0  0  0  0  0  0
    2.5565   55.8230   16.0721 C   0  0  0  0  0  0
    3.1263   55.3262   17.2408 C   0  0  0  0  0  0
    4.1686   54.3843   17.2045 C   0  0  0  0  0  0
    4.6342   53.9483   15.9404 C   0  0  0  0  0  0
    4.0499   54.4536   14.7732 C   0  0  0  0  0  0
    5.7404   52.9107   15.7765 C   0  0  0  0  0  0
    4.7810   53.9019   18.5059 C   0  0  0  0  0  0
    5.9931   53.6870   18.5912 O   0  0  0  0  0  0
    3.9105   53.7475   19.5371 N   0  0  0  0  0  0
    4.3598   53.3558   20.8140 N   0  0  0  0  0  0
    5.1254   54.1768   21.5731 C   0  0  0  0  0  0
    5.4974   55.2964   21.2111 O   0  0  0  0  0  0
    5.5409   53.6493   22.9637 C   0  0  1  0  0  0
    5.7454   52.5840   22.8430 H   0  0  0  0  0  0
    6.7246   54.3852   23.5701 C   0  0  0  0  0  0
    6.3437   54.7238   25.0026 C   0  0  0  0  0  0
    7.1044   55.2971   25.7733 O   0  0  0  0  0  0
    5.0833   54.2676   25.2397 N   0  0  0  0  0  0
    4.4243   53.8703   23.9830 C   0  0  0  0  0  0
    4.4433   54.2600   26.5171 C   0  0  0  0  0  0
    5.1691   54.3802   27.7336 C   0  0  0  0  0  0
    4.5315   54.3835   28.9770 C   0  0  0  0  0  0
    3.1549   54.2423   28.9923 C   0  0  0  0  0  0
    2.4362   54.1049   27.8400 C   0  0  0  0  0  0
    3.0455   54.0967   26.5884 C   0  0  0  0  0  0
    1.1207   53.9744   28.1542 O   0  0  0  0  0  0
    1.0345   54.2823   29.5219 C   0  0  0  0  0  0
    2.3207   54.1837   30.0624 O   0  0  0  0  0  0
    2.4406   55.1798   12.7595 H   0  0  0  0  0  0
    1.3338   56.1463   13.7107 H   0  0  0  0  0  0
    2.8972   56.8290   13.2287 H   0  0  0  0  0  0
    1.7609   56.5514   16.1367 H   0  0  0  0  0  0
    2.7463   55.6997   18.1800 H   0  0  0  0  0  0
    4.4035   54.1187   13.8091 H   0  0  0  0  0  0
    5.5999   52.0968   16.4833 H   0  0  0  0  0  0
    5.7455   52.4592   14.7831 H   0  0  0  0  0  0
    6.7175   53.3545   15.9705 H   0  0  0  0  0  0
    3.0353   54.2520   19.5883 H   0  0  0  0  0  0
    4.1638   52.3890   21.0245 H   0  0  0  0  0  0
    7.5845   53.7170   23.6297 H   0  0  0  0  0  0
    7.0720   55.2771   23.0467 H   0  0  0  0  0  0
    3.7856   54.7160   23.7194 H   0  0  0  0  0  0
    3.7999   52.9867   24.1258 H   0  0  0  0  0  0
    6.2434   54.4623   27.7606 H   0  0  0  0  0  0
    5.1037   54.4964   29.8852 H   0  0  0  0  0  0
    2.4430   53.9863   25.6998 H   0  0  0  0  0  0
    0.3399   53.6152   30.0340 H   0  0  0  0  0  0
    0.6985   55.3123   29.6412 H   0  0  0  0  0  0
  1  2  1  0  0  0
  1 31  1  0  0  0
  1 32  1  0  0  0
  1 33  1  0  0  0
  2  7  2  0  0  0
  2  3  1  0  0  0
  3  4  2  0  0  0
  3 34  1  0  0  0
  4  5  1  0  0  0
  4 35  1  0  0  0
  5  6  2  0  0  0
  5  9  1  0  0  0
  6  7  1  0  0  0
  6  8  1  0  0  0
  7 36  1  0  0  0
  8 37  1  0  0  0
  8 38  1  0  0  0
  8 39  1  0  0  0
  9 10  2  0  0  0
  9 11  1  0  0  0
 11 12  1  0  0  0
 11 40  1  0  0  0
 12 13  1  0  0  0
 12 41  1  0  0  0
 13 14  2  0  0  0
 13 15  1  0  0  0
 15 16  1  0  0  0
 15 21  1  0  0  0
 15 17  1  0  0  0
 17 18  1  0  0  0
 17 42  1  0  0  0
 17 43  1  0  0  0
 18 19  2  0  0  0
 18 20  1  0  0  0
 20 21  1  0  0  0
 20 22  1  0  0  0
 21 44  1  0  0  0
 21 45  1  0  0  0
 22 27  2  0  0  0
 22 23  1  0  0  0
 23 24  2  0  0  0
 23 46  1  0  0  0
 24 25  1  0  0  0
 24 47  1  0  0  0
 25 30  1  0  0  0
 25 26  2  0  0  0
 26 27  1  0  0  0
 26 28  1  0  0  0
 27 48  1  0  0  0
 28 29  1  0  0  0
 29 30  1  0  0  0
 29 49  1  0  0  0
 29 50  1  0  0  0
M  END
> <i_i_glide_confnum>
83

> <i_i_glide_lignum>
1531

> <i_i_glide_posenum>
33

> <i_i_glide_rotatable_bonds>
6

> <i_m_Source_File_Index>
5054

> <b_m_subgroup_collapsed>
0

> <r_i_docking_score>
-8.14575

> <r_i_glide_ecoul>
-8.24539

> <r_i_glide_eff_state_penalty>
0

> <r_i_glide_einternal>
3.70837

> <r_i_glide_emodel>
-67.8062

> <r_i_glide_energy>
-46.3018

> <r_i_glide_erotb>
0.750426

> <r_i_glide_esite>
-0.0404563

> <r_i_glide_evdw>
-38.0564

> <r_i_glide_gscore>
-8.14575

> <r_i_glide_hbond>
-0.864

> <r_i_glide_ligand_efficiency>
-0.280888

> <r_i_glide_ligand_efficiency_ln>
-1.86517

> <r_i_glide_ligand_efficiency_sa>
-0.862977

> <r_i_glide_lipo>
-2.30644

> <r_i_glide_metal>
0

> <r_i_glide_rewards>
-2.54565

> <s_i_glide_gridfile>
wee1_glide-grid

> <s_m_Source_File>
wee1_decoys_glide_SP.sdf

> <s_m_Source_Path>
/Users/zhangxujun/Desktop

> <s_m_entry_id>
5329

> <s_m_entry_name>
wee1_decoys_glide_SP.5054

> <s_m_subgroup_title>
wee1_decoys_glide_SP

> <s_m_subgroupid>
wee1_decoys_glide_SP


$$$$
