ZINC66096992_3753
                    3D
 Schrodinger Suite 2024-2.
 71 74  0  0  1  0            999 V2000
   -5.3973   44.6439   21.6396 C   0  0  0  0  0  0
   -4.5253   44.7317   20.3755 C   0  0  0  0  0  0
   -3.7639   46.0724   20.2778 C   0  0  0  0  0  0
   -2.9089   46.1437   18.9891 C   0  0  0  0  0  0
   -1.9817   44.9895   19.0267 N   0  0  0  0  0  0
   -2.6468   43.6665   19.0050 C   0  0  0  0  0  0
   -3.4978   43.5800   20.2945 C   0  0  0  0  0  0
   -0.6213   45.0799   18.9897 C   0  0  0  0  0  0
    0.0974   44.0793   18.8776 O   0  0  0  0  0  0
    0.0632   46.4284   19.0983 C   0  0  0  0  0  0
    1.1486   46.7221   18.2634 C   0  0  0  0  0  0
    1.8598   47.9130   18.4177 C   0  0  0  0  0  0
    1.4988   48.8344   19.4028 C   0  0  0  0  0  0
    0.4067   48.5448   20.2332 C   0  0  0  0  0  0
   -0.2983   47.3545   20.0817 C   0  0  0  0  0  0
    2.3005   49.9987   19.5037 N   0  0  0  0  0  0
    2.1283   51.0842   20.2979 C   0  0  0  0  0  0
    1.1656   51.2553   21.0504 O   0  0  0  0  0  0
    3.2165   52.1743   20.2291 C   0  0  0  0  0  0
    3.5444   52.6413   21.5578 N   0  0  0  0  0  0
    4.5879   53.5227   21.8785 C   0  0  0  0  0  0
    5.3564   54.1538   20.8984 C   0  0  0  0  0  0
    6.3993   55.0016   21.2637 C   0  0  0  0  0  0
    6.7027   55.1957   22.6115 C   0  0  0  0  0  0
    5.9421   54.5804   23.6179 C   0  0  0  0  0  0
    4.8655   53.7642   23.2262 C   0  0  0  0  0  0
    6.2658   54.8399   25.0774 C   0  0  0  0  0  0
    7.0946   55.6954   25.3999 O   0  0  0  0  0  0
    5.6021   54.1051   25.9922 N   0  0  0  0  0  0
    5.6918   54.2603   27.4484 C   0  0  2  0  0  0
    5.8124   55.3236   27.6731 H   0  0  0  0  0  0
    6.9583   53.5797   28.0041 C   0  0  0  0  0  0
    4.3670   53.8964   28.1434 C   0  0  0  0  0  0
    3.1809   54.5001   27.7032 C   0  0  0  0  0  0
    1.9690   54.2349   28.3332 C   0  0  0  0  0  0
    1.9287   53.3466   29.4039 C   0  0  0  0  0  0
    3.0928   52.7253   29.8468 C   0  0  0  0  0  0
    4.3040   52.9925   29.2162 C   0  0  0  0  0  0
   -4.7954   44.7156   22.5486 H   0  0  0  0  0  0
   -5.9424   43.6990   21.6756 H   0  0  0  0  0  0
   -6.1347   45.4485   21.6646 H   0  0  0  0  0  0
   -5.1743   44.6586   19.4973 H   0  0  0  0  0  0
   -4.4721   46.9006   20.3006 H   0  0  0  0  0  0
   -3.1441   46.2176   21.1635 H   0  0  0  0  0  0
   -3.5536   46.0025   18.1209 H   0  0  0  0  0  0
   -2.4323   47.1095   18.8243 H   0  0  0  0  0  0
   -3.2921   43.6363   18.1268 H   0  0  0  0  0  0
   -1.9556   42.8273   18.9102 H   0  0  0  0  0  0
   -2.8556   43.5820   21.1765 H   0  0  0  0  0  0
   -4.0177   42.6216   20.3359 H   0  0  0  0  0  0
    1.4672   46.0221   17.5025 H   0  0  0  0  0  0
    2.7031   48.0984   17.7684 H   0  0  0  0  0  0
    0.0901   49.1999   21.0274 H   0  0  0  0  0  0
   -1.1019   47.1414   20.7722 H   0  0  0  0  0  0
    3.1131   50.0093   18.8958 H   0  0  0  0  0  0
    4.0898   51.8126   19.6813 H   0  0  0  0  0  0
    2.7876   52.9736   19.6247 H   0  0  0  0  0  0
    2.8374   52.4993   22.2680 H   0  0  0  0  0  0
    5.1531   53.9943   19.8466 H   0  0  0  0  0  0
    6.9908   55.4846   20.4992 H   0  0  0  0  0  0
    7.5312   55.8449   22.8667 H   0  0  0  0  0  0
    4.2381   53.2972   23.9702 H   0  0  0  0  0  0
    5.0611   53.3162   25.6725 H   0  0  0  0  0  0
    7.0995   53.7971   29.0630 H   0  0  0  0  0  0
    6.9257   52.4992   27.8762 H   0  0  0  0  0  0
    7.8451   53.9459   27.4921 H   0  0  0  0  0  0
    3.2030   55.1989   26.8789 H   0  0  0  0  0  0
    1.0638   54.7184   27.9942 H   0  0  0  0  0  0
    0.9878   53.1368   29.8932 H   0  0  0  0  0  0
    3.0538   52.0402   30.6810 H   0  0  0  0  0  0
    5.1890   52.4960   29.5777 H   0  0  0  0  0  0
  1  2  1  0  0  0
  1 39  1  0  0  0
  1 40  1  0  0  0
  1 41  1  0  0  0
  2  7  1  0  0  0
  2  3  1  0  0  0
  2 42  1  0  0  0
  3  4  1  0  0  0
  3 43  1  0  0  0
  3 44  1  0  0  0
  4  5  1  0  0  0
  4 45  1  0  0  0
  4 46  1  0  0  0
  5  6  1  0  0  0
  5  8  1  0  0  0
  6  7  1  0  0  0
  6 47  1  0  0  0
  6 48  1  0  0  0
  7 49  1  0  0  0
  7 50  1  0  0  0
  8  9  2  0  0  0
  8 10  1  0  0  0
 10 15  2  0  0  0
 10 11  1  0  0  0
 11 12  2  0  0  0
 11 51  1  0  0  0
 12 13  1  0  0  0
 12 52  1  0  0  0
 13 14  2  0  0  0
 13 16  1  0  0  0
 14 15  1  0  0  0
 14 53  1  0  0  0
 15 54  1  0  0  0
 16 17  1  0  0  0
 16 55  1  0  0  0
 17 18  2  0  0  0
 17 19  1  0  0  0
 19 20  1  0  0  0
 19 56  1  0  0  0
 19 57  1  0  0  0
 20 21  1  0  0  0
 20 58  1  0  0  0
 21 26  2  0  0  0
 21 22  1  0  0  0
 22 23  2  0  0  0
 22 59  1  0  0  0
 23 24  1  0  0  0
 23 60  1  0  0  0
 24 25  2  0  0  0
 24 61  1  0  0  0
 25 26  1  0  0  0
 25 27  1  0  0  0
 26 62  1  0  0  0
 27 28  2  0  0  0
 27 29  1  0  0  0
 29 30  1  0  0  0
 29 63  1  0  0  0
 30 31  1  0  0  0
 30 32  1  0  0  0
 30 33  1  0  0  0
 32 64  1  0  0  0
 32 65  1  0  0  0
 32 66  1  0  0  0
 33 38  2  0  0  0
 33 34  1  0  0  0
 34 35  2  0  0  0
 34 67  1  0  0  0
 35 36  1  0  0  0
 35 68  1  0  0  0
 36 37  2  0  0  0
 36 69  1  0  0  0
 37 38  1  0  0  0
 37 70  1  0  0  0
 38 71  1  0  0  0
M  END
> <i_i_glide_confnum>
143

> <i_i_glide_lignum>
3754

> <i_i_glide_posenum>
326

> <i_i_glide_rotatable_bonds>
11

> <i_m_Source_File_Index>
1251

> <b_m_subgroup_collapsed>
0

> <r_i_docking_score>
-6.61597

> <r_i_glide_ecoul>
-7.55293

> <r_i_glide_eff_state_penalty>
0

> <r_i_glide_einternal>
5.48239

> <r_i_glide_emodel>
-76.2162

> <r_i_glide_energy>
-54.2861

> <r_i_glide_erotb>
0.820827

> <r_i_glide_esite>
-0.0903717

> <r_i_glide_evdw>
-46.7332

> <r_i_glide_gscore>
-6.61597

> <r_i_glide_hbond>
-0.336789

> <r_i_glide_ligand_efficiency>
-0.17881

> <r_i_glide_ligand_efficiency_ln>
-1.43485

> <r_i_glide_ligand_efficiency_sa>
-0.595834

> <r_i_glide_lipo>
-3.08202

> <r_i_glide_metal>
0

> <r_i_glide_rewards>
-0.458014

> <s_i_glide_gridfile>
wee1_glide-grid

> <s_m_Source_File>
wee1_decoys_glide_SP.sdf

> <s_m_Source_Path>
/Users/zhangxujun/Desktop

> <s_m_entry_id>
1526

> <s_m_entry_name>
wee1_decoys_glide_SP.1251

> <s_m_subgroup_title>
wee1_decoys_glide_SP

> <s_m_subgroupid>
wee1_decoys_glide_SP


$$$$
