ZINC60117360_1766
                    3D
 Schrodinger Suite 2024-2.
 39 40  0  0  1  0            999 V2000
    0.0183   53.0808   29.0386 C   0  0  0  0  0  0
    1.5394   52.9860   28.8162 C   0  0  2  0  0  0
    1.7028   52.1706   28.1071 H   0  0  0  0  0  0
    2.2855   52.6216   30.1081 C   0  0  0  0  0  0
    3.7890   52.5077   29.8330 C   0  0  0  0  0  0
    4.3584   53.7241   29.0639 C   0  0  0  0  0  0
    3.5886   54.0102   27.8349 N   0  0  0  0  0  0
    2.1611   54.2587   28.1690 C   0  0  2  0  0  0
    1.6026   54.4048   27.2471 H   0  0  0  0  0  0
    1.9042   55.5639   28.9611 C   0  0  0  0  0  0
    4.1556   54.1541   26.5597 C   0  0  0  0  0  0
    5.5273   54.3904   26.3774 C   0  0  0  0  0  0
    6.0848   54.4964   25.1025 C   0  0  0  0  0  0
    5.2965   54.3671   23.9429 C   0  0  0  0  0  0
    3.9260   54.1235   24.1397 C   0  0  0  0  0  0
    3.3706   54.0276   25.4098 C   0  0  0  0  0  0
    5.8447   54.4965   22.5520 C   0  0  0  0  0  0
    5.1145   54.1194   21.5700 N   0  0  0  0  0  0
    5.6628   54.3805   20.2965 O   0  0  0  0  0  0
    7.1026   55.0756   22.4904 N   0  0  0  0  0  0
   -0.2339   53.8293   29.7911 H   0  0  0  0  0  0
   -0.4957   53.3454   28.1141 H   0  0  0  0  0  0
   -0.3935   52.1291   29.3780 H   0  0  0  0  0  0
    2.0927   53.3693   30.8791 H   0  0  0  0  0  0
    1.8931   51.6968   30.5280 H   0  0  0  0  0  0
    4.0212   51.5951   29.2827 H   0  0  0  0  0  0
    4.3049   52.4039   30.7873 H   0  0  0  0  0  0
    5.3897   53.4734   28.8215 H   0  0  0  0  0  0
    4.4002   54.6130   29.6923 H   0  0  0  0  0  0
    0.8384   55.7775   29.0368 H   0  0  0  0  0  0
    2.2966   55.5186   29.9777 H   0  0  0  0  0  0
    2.3588   56.4263   28.4806 H   0  0  0  0  0  0
    6.1849   54.5178   27.2245 H   0  0  0  0  0  0
    7.1474   54.6742   25.0311 H   0  0  0  0  0  0
    3.2569   54.0112   23.2965 H   0  0  0  0  0  0
    2.3154   53.8041   25.4658 H   0  0  0  0  0  0
    4.9973   54.0129   19.7048 H   0  0  0  0  0  0
    7.5011   55.2104   21.5745 H   0  0  0  0  0  0
    7.7004   55.1959   23.2940 H   0  0  0  0  0  0
  1  2  1  0  0  0
  1 21  1  0  0  0
  1 22  1  0  0  0
  1 23  1  0  0  0
  2  3  1  0  0  0
  2  8  1  0  0  0
  2  4  1  0  0  0
  4  5  1  0  0  0
  4 24  1  0  0  0
  4 25  1  0  0  0
  5  6  1  0  0  0
  5 26  1  0  0  0
  5 27  1  0  0  0
  6  7  1  0  0  0
  6 28  1  0  0  0
  6 29  1  0  0  0
  7  8  1  0  0  0
  7 11  1  0  0  0
  8  9  1  0  0  0
  8 10  1  0  0  0
 10 30  1  0  0  0
 10 31  1  0  0  0
 10 32  1  0  0  0
 11 16  2  0  0  0
 11 12  1  0  0  0
 12 13  2  0  0  0
 12 33  1  0  0  0
 13 14  1  0  0  0
 13 34  1  0  0  0
 14 15  2  0  0  0
 14 17  1  0  0  0
 15 16  1  0  0  0
 15 35  1  0  0  0
 16 36  1  0  0  0
 17 18  2  0  0  0
 17 20  1  0  0  0
 18 19  1  0  0  0
 19 37  1  0  0  0
 20 38  1  0  0  0
 20 39  1  0  0  0
M  END
> <i_i_glide_confnum>
12

> <i_i_glide_lignum>
1767

> <i_i_glide_posenum>
359

> <i_i_glide_rotatable_bonds>
3

> <i_m_Source_File_Index>
1016

> <b_m_subgroup_collapsed>
0

> <r_i_docking_score>
-6.72108

> <r_i_glide_ecoul>
-1.40915

> <r_i_glide_eff_state_penalty>
0

> <r_i_glide_einternal>
2.04805

> <r_i_glide_emodel>
-51.2336

> <r_i_glide_energy>
-37.4313

> <r_i_glide_erotb>
0.855559

> <r_i_glide_esite>
0

> <r_i_glide_evdw>
-36.0222

> <r_i_glide_gscore>
-6.72108

> <r_i_glide_hbond>
-0.24148

> <r_i_glide_ligand_efficiency>
-0.373393

> <r_i_glide_ligand_efficiency_ln>
-1.72762

> <r_i_glide_ligand_efficiency_sa>
-0.978567

> <r_i_glide_lipo>
-2.95125

> <r_i_glide_metal>
0

> <r_i_glide_rewards>
-2.37142

> <s_i_glide_gridfile>
wee1_glide-grid

> <s_m_Source_File>
wee1_decoys_glide_SP.sdf

> <s_m_Source_Path>
/Users/zhangxujun/Desktop

> <s_m_entry_id>
1291

> <s_m_entry_name>
wee1_decoys_glide_SP.1016

> <s_m_subgroup_title>
wee1_decoys_glide_SP

> <s_m_subgroupid>
wee1_decoys_glide_SP


$$$$
