ZINC35664573_1080
                    3D
 Schrodinger Suite 2024-2.
 72 75  0  0  1  0            999 V2000
    1.7505   52.0993   29.8887 C   0  0  0  0  0  0
    0.4693   51.9462   29.0501 C   0  0  0  0  0  0
    0.7351   51.7262   27.6638 O   0  0  0  0  0  0
    1.2178   52.6910   26.8540 C   0  0  0  0  0  0
    1.5044   53.8122   27.2813 O   0  0  0  0  0  0
    1.3439   52.3366   25.4055 C   0  0  0  0  0  0
    1.1044   51.1202   24.8094 C   0  0  0  0  0  0
    1.0304   51.0433   23.4144 N   0  0  0  0  0  0
    0.6159   52.1409   22.6885 C   0  0  0  0  0  0
   -0.0230   52.1108   21.6358 O   0  0  0  0  0  0
    0.8366   53.3439   23.2808 N   0  0  0  0  0  0
    1.6965   53.5248   24.4678 C   0  0  2  0  0  0
    1.4563   54.4877   24.9222 H   0  0  0  0  0  0
    3.1955   53.7764   24.1859 C   0  0  0  0  0  0
    3.7062   53.7849   22.8776 C   0  0  0  0  0  0
    5.0476   54.0767   22.6388 C   0  0  0  0  0  0
    5.8928   54.3733   23.7051 C   0  0  0  0  0  0
    5.4005   54.3906   25.0071 C   0  0  0  0  0  0
    4.0593   54.0972   25.2433 C   0  0  0  0  0  0
    1.0782   49.7843   22.6105 C   0  0  0  0  0  0
    2.0222   49.7298   21.4079 C   0  0  0  0  0  0
    3.1043   50.4983   21.1995 C   0  0  0  0  0  0
    0.7044   49.7999   25.5133 C   0  0  0  0  0  0
   -0.7750   49.4193   25.2287 N   0  3  2  0  0  0
   -1.7404   50.3624   25.9893 C   0  0  0  0  0  0
   -3.2353   50.1244   25.7088 C   0  0  0  0  0  0
   -3.8452   48.9029   26.4279 C   0  0  0  0  0  0
   -3.4667   47.5625   25.9374 N   0  0  0  0  0  0
   -2.4107   47.4615   24.9137 C   0  0  0  0  0  0
   -1.0332   47.9102   25.4239 C   0  0  0  0  0  0
   -3.9936   46.4239   26.4760 C   0  0  0  0  0  0
   -3.6891   45.2967   26.0790 O   0  0  0  0  0  0
   -5.0246   46.5291   27.5749 C   0  0  0  0  0  0
   -4.6860   47.0605   28.8278 C   0  0  0  0  0  0
   -5.6472   47.1861   29.8292 C   0  0  0  0  0  0
   -6.9569   46.7730   29.5936 C   0  0  0  0  0  0
   -7.3036   46.2397   28.3537 C   0  0  0  0  0  0
   -6.3471   46.1205   27.3445 C   0  0  0  0  0  0
   -6.7225   45.6169   26.1452 F   0  0  0  0  0  0
    1.5199   52.0864   30.9550 H   0  0  0  0  0  0
    2.4540   51.2970   29.6761 H   0  0  0  0  0  0
    2.2553   53.0412   29.6766 H   0  0  0  0  0  0
   -0.1802   52.8131   29.1790 H   0  0  0  0  0  0
   -0.0966   51.0859   29.4097 H   0  0  0  0  0  0
    0.7775   54.1202   22.6387 H   0  0  0  0  0  0
    3.0723   53.5826   22.0266 H   0  0  0  0  0  0
    5.4284   54.0793   21.6280 H   0  0  0  0  0  0
    6.9339   54.5993   23.5215 H   0  0  0  0  0  0
    6.0548   54.6276   25.8333 H   0  0  0  0  0  0
    3.7045   54.1273   26.2605 H   0  0  0  0  0  0
    1.3487   48.9104   23.1941 H   0  0  0  0  0  0
    0.0694   49.5655   22.2551 H   0  0  0  0  0  0
    1.7724   48.9925   20.6582 H   0  0  0  0  0  0
    3.6964   50.3917   20.3008 H   0  0  0  0  0  0
    3.4174   51.2410   21.9148 H   0  0  0  0  0  0
    1.3343   48.9861   25.1591 H   0  0  0  0  0  0
    0.8136   49.7369   26.5908 H   0  0  0  0  0  0
   -1.5012   50.2552   27.0495 H   0  0  0  0  0  0
   -1.4610   51.3664   25.6669 H   0  0  0  0  0  0
   -3.7622   51.0059   26.0743 H   0  0  0  0  0  0
   -3.4430   50.0971   24.6402 H   0  0  0  0  0  0
   -4.9336   48.9941   26.4405 H   0  0  0  0  0  0
   -3.5204   48.9726   27.4677 H   0  0  0  0  0  0
   -2.6898   48.0668   24.0521 H   0  0  0  0  0  0
   -2.3306   46.4494   24.5164 H   0  0  0  0  0  0
   -0.2475   47.4038   24.8610 H   0  0  0  0  0  0
   -0.8894   47.6964   26.4813 H   0  0  0  0  0  0
   -3.6768   47.3837   29.0378 H   0  0  0  0  0  0
   -5.3726   47.6027   30.7874 H   0  0  0  0  0  0
   -7.7036   46.8692   30.3682 H   0  0  0  0  0  0
   -8.3193   45.9229   28.1687 H   0  0  0  0  0  0
   -0.9178   49.5886   24.2424 H   0  0  0  0  0  0
  1  2  1  0  0  0
  1 40  1  0  0  0
  1 41  1  0  0  0
  1 42  1  0  0  0
  2  3  1  0  0  0
  2 43  1  0  0  0
  2 44  1  0  0  0
  3  4  1  0  0  0
  4  5  2  0  0  0
  4  6  1  0  0  0
  6 12  1  0  0  0
  6  7  2  0  0  0
  7  8  1  0  0  0
  7 23  1  0  0  0
  8  9  1  0  0  0
  8 20  1  0  0  0
  9 10  2  0  0  0
  9 11  1  0  0  0
 11 12  1  0  0  0
 11 45  1  0  0  0
 12 13  1  0  0  0
 12 14  1  0  0  0
 14 19  2  0  0  0
 14 15  1  0  0  0
 15 16  2  0  0  0
 15 46  1  0  0  0
 16 17  1  0  0  0
 16 47  1  0  0  0
 17 18  2  0  0  0
 17 48  1  0  0  0
 18 19  1  0  0  0
 18 49  1  0  0  0
 19 50  1  0  0  0
 20 21  1  0  0  0
 20 51  1  0  0  0
 20 52  1  0  0  0
 21 22  2  0  0  0
 21 53  1  0  0  0
 22 54  1  0  0  0
 22 55  1  0  0  0
 23 24  1  0  0  0
 23 56  1  0  0  0
 23 57  1  0  0  0
 24 30  1  0  0  0
 24 25  1  0  0  0
 24 72  1  0  0  0
 25 26  1  0  0  0
 25 58  1  0  0  0
 25 59  1  0  0  0
 26 27  1  0  0  0
 26 60  1  0  0  0
 26 61  1  0  0  0
 27 28  1  0  0  0
 27 62  1  0  0  0
 27 63  1  0  0  0
 28 29  1  0  0  0
 28 31  1  0  0  0
 29 30  1  0  0  0
 29 64  1  0  0  0
 29 65  1  0  0  0
 30 66  1  0  0  0
 30 67  1  0  0  0
 31 32  2  0  0  0
 31 33  1  0  0  0
 33 38  2  0  0  0
 33 34  1  0  0  0
 34 35  2  0  0  0
 34 68  1  0  0  0
 35 36  1  0  0  0
 35 69  1  0  0  0
 36 37  2  0  0  0
 36 70  1  0  0  0
 37 38  1  0  0  0
 37 71  1  0  0  0
 38 39  1  0  0  0
M  CHG  1  24   1
M  END
> <i_i_glide_confnum>
320

> <i_i_glide_lignum>
1081

> <i_i_glide_posenum>
16

> <i_i_glide_rotatable_bonds>
10

> <i_m_Source_File_Index>
563

> <b_m_subgroup_collapsed>
0

> <r_i_docking_score>
-5.37254

> <r_i_glide_ecoul>
-6.58967

> <r_i_glide_eff_state_penalty>
0

> <r_i_glide_einternal>
6.11034

> <r_i_glide_emodel>
-61.5779

> <r_i_glide_energy>
-46.8637

> <r_i_glide_erotb>
0.680073

> <r_i_glide_esite>
-0.197248

> <r_i_glide_evdw>
-40.274

> <r_i_glide_gscore>
-5.37254

> <r_i_glide_hbond>
-0.16

> <r_i_glide_ligand_efficiency>
-0.141383

> <r_i_glide_ligand_efficiency_ln>
-1.15848

> <r_i_glide_ligand_efficiency_sa>
-0.475325

> <r_i_glide_lipo>
-2.26807

> <r_i_glide_metal>
0

> <r_i_glide_rewards>
-0.425146

> <s_i_glide_gridfile>
wee1_glide-grid

> <s_m_Source_File>
wee1_decoys_glide_SP.sdf

> <s_m_Source_Path>
/Users/zhangxujun/Desktop

> <s_m_entry_id>
838

> <s_m_entry_name>
wee1_decoys_glide_SP.563

> <s_m_subgroup_title>
wee1_decoys_glide_SP

> <s_m_subgroupid>
wee1_decoys_glide_SP


$$$$
