ZINC40367410_4730
                    3D
 Schrodinger Suite 2024-2.
 32 33  0  0  1  0            999 V2000
    4.2908   54.0908   28.2707 C   0  0  0  0  0  0
    4.8789   54.3114   27.0286 C   0  0  0  0  0  0
    4.1373   54.1024   25.8574 C   0  0  0  0  0  0
    2.8057   53.6965   25.9473 C   0  0  0  0  0  0
    2.2245   53.4672   27.1897 C   0  0  0  0  0  0
    2.9637   53.6491   28.3649 C   0  0  0  0  0  0
    2.3575   53.3563   29.6821 C   0  0  0  0  0  0
    2.7988   52.4950   30.5159 N   0  0  0  0  0  0
    3.9048   51.7307   30.0835 O   0  0  0  0  0  0
    1.2582   54.1530   29.8934 N   0  0  0  0  0  0
    4.6313   54.2686   24.5529 N   0  0  0  0  0  0
    5.8890   54.4966   24.1164 C   0  0  0  0  0  0
    6.8672   54.6524   24.8494 O   0  0  0  0  0  0
    6.0291   54.6010   22.6112 C   0  0  0  0  0  0
    7.1046   55.3156   22.0652 C   0  0  0  0  0  0
    7.2286   55.4721   20.6876 C   0  0  0  0  0  0
    6.2815   54.9038   19.8410 C   0  0  0  0  0  0
    5.2144   54.1767   20.3604 C   0  0  0  0  0  0
    5.0903   54.0210   21.7387 C   0  0  0  0  0  0
    6.4559   55.1113   17.9587 Br  0  0  0  0  0  0
    4.8827   54.2561   29.1616 H   0  0  0  0  0  0
    5.9044   54.6430   27.0092 H   0  0  0  0  0  0
    2.2157   53.5333   25.0565 H   0  0  0  0  0  0
    1.2000   53.1242   27.2305 H   0  0  0  0  0  0
    4.0629   52.0612   29.1926 H   0  0  0  0  0  0
    0.7046   54.0245   30.7279 H   0  0  0  0  0  0
    0.9640   54.8216   29.1985 H   0  0  0  0  0  0
    3.9364   54.1688   23.8309 H   0  0  0  0  0  0
    7.8465   55.7748   22.7033 H   0  0  0  0  0  0
    8.0619   56.0234   20.2763 H   0  0  0  0  0  0
    4.4886   53.7317   19.6947 H   0  0  0  0  0  0
    4.2538   53.4449   22.1065 H   0  0  0  0  0  0
  1  6  2  0  0  0
  1  2  1  0  0  0
  1 21  1  0  0  0
  2  3  2  0  0  0
  2 22  1  0  0  0
  3  4  1  0  0  0
  3 11  1  0  0  0
  4  5  2  0  0  0
  4 23  1  0  0  0
  5  6  1  0  0  0
  5 24  1  0  0  0
  6  7  1  0  0  0
  7  8  2  0  0  0
  7 10  1  0  0  0
  8  9  1  0  0  0
  9 25  1  0  0  0
 10 26  1  0  0  0
 10 27  1  0  0  0
 11 12  1  0  0  0
 11 28  1  0  0  0
 12 13  2  0  0  0
 12 14  1  0  0  0
 14 19  2  0  0  0
 14 15  1  0  0  0
 15 16  2  0  0  0
 15 29  1  0  0  0
 16 17  1  0  0  0
 16 30  1  0  0  0
 17 18  2  0  0  0
 17 20  1  0  0  0
 18 19  1  0  0  0
 18 31  1  0  0  0
 19 32  1  0  0  0
M  END
> <i_i_glide_confnum>
7

> <i_i_glide_lignum>
4731

> <i_i_glide_posenum>
208

> <i_i_glide_rotatable_bonds>
5

> <i_m_Source_File_Index>
3243

> <b_m_subgroup_collapsed>
0

> <r_i_docking_score>
-5.62487

> <r_i_glide_ecoul>
-5.74477

> <r_i_glide_eff_state_penalty>
0

> <r_i_glide_einternal>
4.68526

> <r_i_glide_emodel>
-54.3724

> <r_i_glide_energy>
-41.7286

> <r_i_glide_erotb>
0.844332

> <r_i_glide_esite>
-0.00720731

> <r_i_glide_evdw>
-35.9839

> <r_i_glide_gscore>
-5.62487

> <r_i_glide_hbond>
0

> <r_i_glide_ligand_efficiency>
-0.281243

> <r_i_glide_ligand_efficiency_ln>
-1.40772

> <r_i_glide_ligand_efficiency_sa>
-0.763412

> <r_i_glide_lipo>
-2.12328

> <r_i_glide_metal>
0

> <r_i_glide_rewards>
-1.6778

> <s_i_glide_gridfile>
wee1_glide-grid

> <s_m_Source_File>
wee1_decoys_glide_SP.sdf

> <s_m_Source_Path>
/Users/zhangxujun/Desktop

> <s_m_entry_id>
3518

> <s_m_entry_name>
wee1_decoys_glide_SP.3243

> <s_m_subgroup_title>
wee1_decoys_glide_SP

> <s_m_subgroupid>
wee1_decoys_glide_SP


$$$$
