ZINC27477426_4984
                    3D
 Schrodinger Suite 2024-2.
 59 63  0  0  1  0            999 V2000
    0.6649   43.3706   15.3096 C   0  0  0  0  0  0
    0.2188   43.6194   16.6047 C   0  0  0  0  0  0
    0.6142   44.7813   17.2624 C   0  0  0  0  0  0
    1.4604   45.6990   16.6185 C   0  0  0  0  0  0
    1.9059   45.4344   15.3210 C   0  0  0  0  0  0
    1.5051   44.2741   14.6641 C   0  0  0  0  0  0
    1.9227   46.8987   17.1901 N   0  0  0  0  0  0
    1.6234   47.4689   18.3730 C   0  0  0  0  0  0
    0.8490   47.0206   19.2201 O   0  0  0  0  0  0
    2.3044   48.6213   18.4816 N   0  0  0  0  0  0
    2.3046   49.5634   19.5111 C   0  0  0  0  0  0
    2.0143   49.2622   20.8449 C   0  0  0  0  0  0
    2.1623   50.2443   21.8164 C   0  0  0  0  0  0
    2.5979   51.5217   21.4565 C   0  0  0  0  0  0
    2.8482   51.8334   20.1166 C   0  0  0  0  0  0
    2.7044   50.8486   19.1509 C   0  0  0  0  0  0
    2.7285   52.4363   22.5010 N   0  0  0  0  0  0
    3.3902   53.6090   22.5572 C   0  0  0  0  0  0
    4.0796   54.0671   21.6495 O   0  0  0  0  0  0
    3.2837   54.4314   23.8530 C   0  0  0  0  0  0
    2.7640   53.6504   25.1079 N   0  3  2  0  0  0
    1.2198   53.4760   24.9788 C   0  0  0  0  0  0
    0.7023   52.6165   26.1506 C   0  0  0  0  0  0
    1.1034   53.2966   27.4353 C   0  0  0  0  0  0
    2.2114   54.1307   27.5571 C   0  0  0  0  0  0
    2.2769   54.7037   28.8403 C   0  0  0  0  0  0
    1.2805   54.2572   29.6967 C   0  0  0  0  0  0
    0.2461   53.1039   28.9323 S   0  0  0  0  0  0
    3.1973   54.4103   26.4112 C   0  0  1  0  0  0
    3.1211   55.4633   26.1706 H   0  0  0  0  0  0
    4.6372   54.1170   26.8065 C   0  0  0  0  0  0
    5.0992   53.2969   27.8360 C   0  0  0  0  0  0
    6.4628   53.3969   28.0819 C   0  0  0  0  0  0
    7.1015   54.2405   27.2150 C   0  0  0  0  0  0
    6.0073   54.9180   26.0720 S   0  0  0  0  0  0
    0.3572   42.4701   14.7983 H   0  0  0  0  0  0
   -0.4347   42.9153   17.0975 H   0  0  0  0  0  0
    0.2524   44.9431   18.2649 H   0  0  0  0  0  0
    2.5609   46.1296   14.8150 H   0  0  0  0  0  0
    1.8483   44.0739   13.6593 H   0  0  0  0  0  0
    2.5746   47.4159   16.6157 H   0  0  0  0  0  0
    2.9073   48.8819   17.7015 H   0  0  0  0  0  0
    1.7271   48.2674   21.1421 H   0  0  0  0  0  0
    1.9626   49.9895   22.8478 H   0  0  0  0  0  0
    3.1626   52.8172   19.8032 H   0  0  0  0  0  0
    2.9527   51.0789   18.1232 H   0  0  0  0  0  0
    2.3018   52.1282   23.3580 H   0  0  0  0  0  0
    2.6386   55.2966   23.7156 H   0  0  0  0  0  0
    4.2756   54.8058   24.0805 H   0  0  0  0  0  0
    0.9617   52.9499   24.0647 H   0  0  0  0  0  0
    0.7998   54.4806   24.8818 H   0  0  0  0  0  0
    1.1186   51.6099   26.1160 H   0  0  0  0  0  0
   -0.3805   52.4962   26.0914 H   0  0  0  0  0  0
    3.0380   55.4140   29.1315 H   0  0  0  0  0  0
    1.1033   54.5383   30.7251 H   0  0  0  0  0  0
    4.4459   52.6848   28.4413 H   0  0  0  0  0  0
    6.9753   52.8968   28.8800 H   0  0  0  0  0  0
    8.1431   54.4967   27.2293 H   0  0  0  0  0  0
    3.2058   52.7412   25.1545 H   0  0  0  0  0  0
  1  6  2  0  0  0
  1  2  1  0  0  0
  1 36  1  0  0  0
  2  3  2  0  0  0
  2 37  1  0  0  0
  3  4  1  0  0  0
  3 38  1  0  0  0
  4  5  2  0  0  0
  4  7  1  0  0  0
  5  6  1  0  0  0
  5 39  1  0  0  0
  6 40  1  0  0  0
  7  8  1  0  0  0
  7 41  1  0  0  0
  8  9  2  0  0  0
  8 10  1  0  0  0
 10 11  1  0  0  0
 10 42  1  0  0  0
 11 16  2  0  0  0
 11 12  1  0  0  0
 12 13  2  0  0  0
 12 43  1  0  0  0
 13 14  1  0  0  0
 13 44  1  0  0  0
 14 15  2  0  0  0
 14 17  1  0  0  0
 15 16  1  0  0  0
 15 45  1  0  0  0
 16 46  1  0  0  0
 17 18  1  0  0  0
 17 47  1  0  0  0
 18 19  2  0  0  0
 18 20  1  0  0  0
 20 21  1  0  0  0
 20 48  1  0  0  0
 20 49  1  0  0  0
 21 29  1  0  0  0
 21 22  1  0  0  0
 21 59  1  0  0  0
 22 23  1  0  0  0
 22 50  1  0  0  0
 22 51  1  0  0  0
 23 24  1  0  0  0
 23 52  1  0  0  0
 23 53  1  0  0  0
 24 28  1  0  0  0
 24 25  2  0  0  0
 25 26  1  0  0  0
 25 29  1  0  0  0
 26 27  2  0  0  0
 26 54  1  0  0  0
 27 28  1  0  0  0
 27 55  1  0  0  0
 29 30  1  0  0  0
 29 31  1  0  0  0
 31 35  1  0  0  0
 31 32  2  0  0  0
 32 33  1  0  0  0
 32 56  1  0  0  0
 33 34  2  0  0  0
 33 57  1  0  0  0
 34 35  1  0  0  0
 34 58  1  0  0  0
M  CHG  1  21   1
M  END
> <i_i_glide_confnum>
84

> <i_i_glide_lignum>
4985

> <i_i_glide_posenum>
222

> <i_i_glide_rotatable_bonds>
9

> <i_m_Source_File_Index>
4979

> <b_m_subgroup_collapsed>
0

> <r_i_docking_score>
-5.47431

> <r_i_glide_ecoul>
-1.58007

> <r_i_glide_eff_state_penalty>
0

> <r_i_glide_einternal>
14.6513

> <r_i_glide_emodel>
-58.1886

> <r_i_glide_energy>
-44.0565

> <r_i_glide_erotb>
0.678893

> <r_i_glide_esite>
-0.218887

> <r_i_glide_evdw>
-42.4764

> <r_i_glide_gscore>
-5.47431

> <r_i_glide_hbond>
-0.183463

> <r_i_glide_ligand_efficiency>
-0.161009

> <r_i_glide_ligand_efficiency_ln>
-1.20943

> <r_i_glide_ligand_efficiency_sa>
-0.521607

> <r_i_glide_lipo>
-3.05715

> <r_i_glide_metal>
0

> <r_i_glide_rewards>
-0.332871

> <s_i_glide_gridfile>
wee1_glide-grid

> <s_m_Source_File>
wee1_decoys_glide_SP.sdf

> <s_m_Source_Path>
/Users/zhangxujun/Desktop

> <s_m_entry_id>
5254

> <s_m_entry_name>
wee1_decoys_glide_SP.4979

> <s_m_subgroup_title>
wee1_decoys_glide_SP

> <s_m_subgroupid>
wee1_decoys_glide_SP


$$$$
