ZINC14283662_69
                    3D
 Schrodinger Suite 2024-2.
 57 60  0  0  1  0            999 V2000
    5.9369   52.6174   15.3523 C   0  0  0  0  0  0
    5.7413   53.8847   16.2032 C   0  0  2  0  0  0
    6.6020   54.5291   16.0186 H   0  0  0  0  0  0
    5.6638   53.5320   17.7065 C   0  0  0  0  0  0
    6.7049   53.2969   18.3210 O   0  0  0  0  0  0
    4.4319   53.4942   18.2603 N   0  0  0  0  0  0
    4.2223   53.1310   19.5964 N   0  0  0  0  0  0
    4.4621   54.0089   20.5956 C   0  0  0  0  0  0
    5.1143   55.0471   20.4579 O   0  0  0  0  0  0
    3.9104   53.6435   21.8877 C   0  0  0  0  0  0
    2.7247   52.9018   22.1421 C   0  0  0  0  0  0
    2.5767   52.9356   23.5355 C   0  0  0  0  0  0
    3.6377   53.6966   24.0120 N   0  0  0  0  0  0
    4.4234   54.0988   23.0068 N   0  0  0  0  0  0
    4.0245   54.0085   25.3522 C   0  0  0  0  0  0
    3.0613   54.1894   26.3504 C   0  0  0  0  0  0
    3.4361   54.4317   27.6672 C   0  0  0  0  0  0
    4.7833   54.4963   27.9994 C   0  0  0  0  0  0
    5.7609   54.3363   27.0219 C   0  0  0  0  0  0
    5.3846   54.0968   25.7008 C   0  0  0  0  0  0
    5.1363   54.7301   29.2817 F   0  0  0  0  0  0
    1.5184   52.2557   24.4025 C   0  0  0  0  0  0
    1.1058   50.8641   23.8831 C   0  0  0  0  0  0
    0.1612   50.8471   22.6669 C   0  0  0  0  0  0
    0.3426   51.9751   21.6349 C   0  0  0  0  0  0
    1.7793   52.2336   21.1426 C   0  0  0  0  0  0
    4.5289   54.5040   15.7417 O   0  0  0  0  0  0
    4.2330   55.8287   16.0258 C   0  0  0  0  0  0
    5.1140   56.7216   16.6623 C   0  0  0  0  0  0
    4.7425   58.0491   16.8814 C   0  0  0  0  0  0
    3.4846   58.4966   16.4830 C   0  0  0  0  0  0
    2.5964   57.6180   15.8686 C   0  0  0  0  0  0
    2.9698   56.2943   15.6373 C   0  0  0  0  0  0
    2.0922   55.4601   15.0323 F   0  0  0  0  0  0
    5.1029   51.9229   15.4697 H   0  0  0  0  0  0
    6.0083   52.8664   14.2932 H   0  0  0  0  0  0
    6.8493   52.0855   15.6267 H   0  0  0  0  0  0
    3.5830   53.7254   17.7649 H   0  0  0  0  0  0
    3.8033   52.2195   19.7041 H   0  0  0  0  0  0
    2.0072   54.1586   26.1228 H   0  0  0  0  0  0
    2.6855   54.5698   28.4309 H   0  0  0  0  0  0
    6.8040   54.3890   27.2963 H   0  0  0  0  0  0
    6.1576   53.9513   24.9592 H   0  0  0  0  0  0
    1.8932   52.0965   25.4111 H   0  0  0  0  0  0
    0.6367   52.8887   24.5097 H   0  0  0  0  0  0
    2.0069   50.2938   23.6483 H   0  0  0  0  0  0
    0.6266   50.3078   24.6911 H   0  0  0  0  0  0
    0.2585   49.8824   22.1657 H   0  0  0  0  0  0
   -0.8686   50.8829   23.0247 H   0  0  0  0  0  0
   -0.2850   51.7468   20.7726 H   0  0  0  0  0  0
   -0.0627   52.8968   22.0471 H   0  0  0  0  0  0
    2.2125   51.3051   20.7696 H   0  0  0  0  0  0
    1.6791   52.8814   20.2713 H   0  0  0  0  0  0
    6.0939   56.4098   16.9881 H   0  0  0  0  0  0
    5.4267   58.7376   17.3584 H   0  0  0  0  0  0
    3.1949   59.5245   16.6573 H   0  0  0  0  0  0
    1.6197   57.9665   15.5669 H   0  0  0  0  0  0
  1  2  1  0  0  0
  1 35  1  0  0  0
  1 36  1  0  0  0
  1 37  1  0  0  0
  2  3  1  0  0  0
  2  4  1  0  0  0
  2 27  1  0  0  0
  4  5  2  0  0  0
  4  6  1  0  0  0
  6  7  1  0  0  0
  6 38  1  0  0  0
  7  8  1  0  0  0
  7 39  1  0  0  0
  8  9  2  0  0  0
  8 10  1  0  0  0
 10 14  2  0  0  0
 10 11  1  0  0  0
 11 26  1  0  0  0
 11 12  2  0  0  0
 12 13  1  0  0  0
 12 22  1  0  0  0
 13 14  1  0  0  0
 13 15  1  0  0  0
 15 20  2  0  0  0
 15 16  1  0  0  0
 16 17  2  0  0  0
 16 40  1  0  0  0
 17 18  1  0  0  0
 17 41  1  0  0  0
 18 19  2  0  0  0
 18 21  1  0  0  0
 19 20  1  0  0  0
 19 42  1  0  0  0
 20 43  1  0  0  0
 22 23  1  0  0  0
 22 44  1  0  0  0
 22 45  1  0  0  0
 23 24  1  0  0  0
 23 46  1  0  0  0
 23 47  1  0  0  0
 24 25  1  0  0  0
 24 48  1  0  0  0
 24 49  1  0  0  0
 25 26  1  0  0  0
 25 50  1  0  0  0
 25 51  1  0  0  0
 26 52  1  0  0  0
 26 53  1  0  0  0
 27 28  1  0  0  0
 28 33  2  0  0  0
 28 29  1  0  0  0
 29 30  2  0  0  0
 29 54  1  0  0  0
 30 31  1  0  0  0
 30 55  1  0  0  0
 31 32  2  0  0  0
 31 56  1  0  0  0
 32 33  1  0  0  0
 32 57  1  0  0  0
 33 34  1  0  0  0
M  END
> <i_i_glide_confnum>
9

> <i_i_glide_lignum>
70

> <i_i_glide_posenum>
256

> <i_i_glide_rotatable_bonds>
8

> <i_m_Source_File_Index>
4683

> <b_m_subgroup_collapsed>
0

> <r_i_docking_score>
-4.61249

> <r_i_glide_ecoul>
-2.6877

> <r_i_glide_eff_state_penalty>
0

> <r_i_glide_einternal>
8.73843

> <r_i_glide_emodel>
-50.5273

> <r_i_glide_energy>
-39.1322

> <r_i_glide_erotb>
0.680585

> <r_i_glide_esite>
-0.146285

> <r_i_glide_evdw>
-36.4445

> <r_i_glide_gscore>
-4.61249

> <r_i_glide_hbond>
0

> <r_i_glide_ligand_efficiency>
-0.139773

> <r_i_glide_ligand_efficiency_ln>
-1.02579

> <r_i_glide_ligand_efficiency_sa>
-0.448325

> <r_i_glide_lipo>
-2.1283

> <r_i_glide_metal>
0

> <r_i_glide_rewards>
-0.793116

> <s_i_glide_gridfile>
wee1_glide-grid

> <s_m_Source_File>
wee1_decoys_glide_SP.sdf

> <s_m_Source_Path>
/Users/zhangxujun/Desktop

> <s_m_entry_id>
4958

> <s_m_entry_name>
wee1_decoys_glide_SP.4683

> <s_m_subgroup_title>
wee1_decoys_glide_SP

> <s_m_subgroupid>
wee1_decoys_glide_SP


$$$$
