ZINC09210270_2738
                    3D
 Schrodinger Suite 2024-2.
 52 56  0  0  1  0            999 V2000
   -1.4354   52.9663   17.6125 C   0  0  0  0  0  0
   -2.3550   52.1904   18.5685 C   0  0  0  0  0  0
   -1.6190   51.6630   19.8200 C   0  0  0  0  0  0
   -2.4863   50.9120   20.8238 C   0  0  0  0  0  0
   -2.1397   50.5345   22.1424 C   0  0  0  0  0  0
   -3.2489   49.8460   22.5820 C   0  0  0  0  0  0
   -4.1695   49.8567   21.5847 N   0  0  0  0  0  0
   -5.0783   49.4181   21.6173 H   0  0  0  0  0  0
   -3.7063   50.4970   20.5072 N   0  0  0  0  0  0
   -3.4381   49.1943   23.7710 O   0  0  0  0  0  0
   -2.3298   49.1874   24.5657 C   0  0  0  0  0  0
   -1.1390   49.7948   24.3045 C   0  0  0  0  0  0
   -0.8937   50.6625   23.0378 C   0  0  1  0  0  0
    0.3488   50.3651   22.2509 C   0  0  0  0  0  0
    0.7200   49.2487   21.5012 C   0  0  0  0  0  0
    1.9042   49.2742   20.7631 C   0  0  0  0  0  0
    2.7090   50.4144   20.7706 C   0  0  0  0  0  0
    2.3437   51.5265   21.5287 C   0  0  0  0  0  0
    1.1582   51.4874   22.2658 C   0  0  0  0  0  0
    0.5502   52.4973   23.0086 N   0  0  0  0  0  0
   -0.6716   52.1290   23.4752 C   0  0  0  0  0  0
   -1.4671   52.8147   24.1216 O   0  0  0  0  0  0
    1.1036   53.8353   23.2601 C   0  0  0  0  0  0
    2.3186   53.8783   24.1802 C   0  0  0  0  0  0
    2.1623   53.6946   25.5555 C   0  0  0  0  0  0
    3.2630   53.7971   26.4030 C   0  0  0  0  0  0
    4.5172   54.0970   25.8746 C   0  0  0  0  0  0
    4.6788   54.2867   24.5039 C   0  0  0  0  0  0
    3.5781   54.1791   23.6574 C   0  0  0  0  0  0
    5.8824   54.2375   26.9231 Cl  0  0  0  0  0  0
   -0.0978   49.6444   25.2646 C   0  0  0  0  0  0
    0.7043   49.5067   26.0820 N   0  0  0  0  0  0
   -2.6463   48.4567   25.6816 N   0  0  0  0  0  0
   -1.9798   53.2874   16.7246 H   0  0  0  0  0  0
   -0.6015   52.3496   17.2786 H   0  0  0  0  0  0
   -1.0228   53.8589   18.0813 H   0  0  0  0  0  0
   -3.1869   52.8309   18.8615 H   0  0  0  0  0  0
   -2.7912   51.3506   18.0251 H   0  0  0  0  0  0
   -0.8035   51.0141   19.5006 H   0  0  0  0  0  0
   -1.1348   52.4968   20.3251 H   0  0  0  0  0  0
    0.0814   48.3802   21.4608 H   0  0  0  0  0  0
    2.1953   48.4176   20.1700 H   0  0  0  0  0  0
    3.6117   50.4423   20.1771 H   0  0  0  0  0  0
    2.9650   52.4082   21.5032 H   0  0  0  0  0  0
    1.3822   54.2666   22.2986 H   0  0  0  0  0  0
    0.3482   54.4968   23.6849 H   0  0  0  0  0  0
    1.1901   53.4622   25.9666 H   0  0  0  0  0  0
    3.1417   53.6505   27.4664 H   0  0  0  0  0  0
    5.6524   54.5272   24.1010 H   0  0  0  0  0  0
    3.7080   54.3482   22.5980 H   0  0  0  0  0  0
   -2.0498   48.4754   26.5108 H   0  0  0  0  0  0
   -3.6099   48.2132   25.8535 H   0  0  0  0  0  0
  1  2  1  0  0  0
  1 34  1  0  0  0
  1 35  1  0  0  0
  1 36  1  0  0  0
  2  3  1  0  0  0
  2 37  1  0  0  0
  2 38  1  0  0  0
  3  4  1  0  0  0
  3 39  1  0  0  0
  3 40  1  0  0  0
  4  9  2  0  0  0
  4  5  1  0  0  0
  5 13  1  0  0  0
  5  6  2  0  0  0
  6  7  1  0  0  0
  6 10  1  0  0  0
  7  8  1  0  0  0
  7  9  1  0  0  0
 10 11  1  0  0  0
 11 12  2  0  0  0
 11 33  1  0  0  0
 12 13  1  0  0  0
 12 31  1  0  0  0
 13 21  1  0  0  0
 13 14  1  0  0  0
 14 19  2  0  0  0
 14 15  1  0  0  0
 15 16  2  0  0  0
 15 41  1  0  0  0
 16 17  1  0  0  0
 16 42  1  0  0  0
 17 18  2  0  0  0
 17 43  1  0  0  0
 18 19  1  0  0  0
 18 44  1  0  0  0
 19 20  1  0  0  0
 20 21  1  0  0  0
 20 23  1  0  0  0
 21 22  2  0  0  0
 23 24  1  0  0  0
 23 45  1  0  0  0
 23 46  1  0  0  0
 24 29  2  0  0  0
 24 25  1  0  0  0
 25 26  2  0  0  0
 25 47  1  0  0  0
 26 27  1  0  0  0
 26 48  1  0  0  0
 27 28  2  0  0  0
 27 30  1  0  0  0
 28 29  1  0  0  0
 28 49  1  0  0  0
 29 50  1  0  0  0
 31 32  3  0  0  0
 33 51  1  0  0  0
 33 52  1  0  0  0
M  END
> <i_i_glide_confnum>
5

> <i_i_glide_lignum>
2739

> <i_i_glide_posenum>
124

> <i_i_glide_rotatable_bonds>
5

> <i_m_Source_File_Index>
5424

> <b_m_subgroup_collapsed>
0

> <r_i_docking_score>
-4.72712

> <r_i_glide_ecoul>
-2.20971

> <r_i_glide_eff_state_penalty>
0

> <r_i_glide_einternal>
2.15083

> <r_i_glide_emodel>
-47.8659

> <r_i_glide_energy>
-37.7815

> <r_i_glide_erotb>
0.30195

> <r_i_glide_esite>
-0.144223

> <r_i_glide_evdw>
-35.5718

> <r_i_glide_gscore>
-4.72712

> <r_i_glide_hbond>
-0.16

> <r_i_glide_ligand_efficiency>
-0.147723

> <r_i_glide_ligand_efficiency_ln>
-1.05853

> <r_i_glide_ligand_efficiency_sa>
-0.46899

> <r_i_glide_lipo>
-2.01333

> <r_i_glide_metal>
0

> <r_i_glide_rewards>
-0.60147

> <s_i_glide_gridfile>
wee1_glide-grid

> <s_m_Source_File>
wee1_decoys_glide_SP.sdf

> <s_m_Source_Path>
/Users/zhangxujun/Desktop

> <s_m_entry_id>
5699

> <s_m_entry_name>
wee1_decoys_glide_SP.5424

> <s_m_subgroup_title>
wee1_decoys_glide_SP

> <s_m_subgroupid>
wee1_decoys_glide_SP


$$$$
