ZINC67204906_102
                    3D
 Schrodinger Suite 2024-2.
 56 59  0  0  1  0            999 V2000
    2.1621   51.2315   18.0734 C   0  0  0  0  0  0
    3.0146   52.2730   18.5379 O   0  0  0  0  0  0
    3.7059   53.0483   17.6690 C   0  0  0  0  0  0
    3.6304   52.9013   16.4456 O   0  0  0  0  0  0
    4.5912   54.0783   18.2868 C   0  0  0  0  0  0
    4.6778   54.3510   19.6202 C   0  0  0  0  0  0
    5.5438   55.3011   20.0665 N   0  0  0  0  0  0
    6.4474   55.9878   19.3352 C   0  0  0  0  0  0
    7.1035   56.9127   19.8060 O   0  0  0  0  0  0
    6.4870   55.6347   18.0227 N   0  0  0  0  0  0
    5.3595   54.9922   17.2930 C   0  0  2  0  0  0
    5.7870   54.3937   16.4855 H   0  0  0  0  0  0
    4.4547   55.9907   16.5413 C   0  0  0  0  0  0
    3.9913   55.6889   15.2517 C   0  0  0  0  0  0
    3.1733   56.5838   14.5679 C   0  0  0  0  0  0
    2.8331   57.7992   15.1534 C   0  0  0  0  0  0
    3.3071   58.1280   16.4196 C   0  0  0  0  0  0
    4.1135   57.2266   17.1089 C   0  0  0  0  0  0
    2.0370   58.6664   14.4856 F   0  0  0  0  0  0
    3.8762   53.6832   20.7567 C   0  0  0  0  0  0
    3.9150   54.2738   22.1116 N   0  0  0  0  0  0
    5.1098   53.8648   22.8644 C   0  0  0  0  0  0
    5.1012   54.3126   24.3520 C   0  0  0  0  0  0
    3.8122   54.1898   25.0658 N   0  0  0  0  0  0
    2.6834   54.6038   24.2193 C   0  0  0  0  0  0
    2.7059   53.9044   22.8505 C   0  0  0  0  0  0
    3.7057   53.8860   26.4227 C   0  0  0  0  0  0
    2.5349   53.3045   26.9363 C   0  0  0  0  0  0
    2.4642   52.8951   28.2652 C   0  0  0  0  0  0
    3.5606   53.0754   29.1023 C   0  0  0  0  0  0
    4.7108   53.6993   28.6266 C   0  0  0  0  0  0
    4.7850   54.0987   27.2955 C   0  0  0  0  0  0
    3.5065   52.4934   30.7247 Cl  0  0  0  0  0  0
    1.7435   50.7001   18.9291 H   0  0  0  0  0  0
    1.3384   51.6346   17.4817 H   0  0  0  0  0  0
    2.7040   50.5031   17.4710 H   0  0  0  0  0  0
    5.5536   55.5047   21.0517 H   0  0  0  0  0  0
    7.1362   56.1670   17.4641 H   0  0  0  0  0  0
    4.2483   54.7520   14.7803 H   0  0  0  0  0  0
    2.8050   56.3369   13.5837 H   0  0  0  0  0  0
    3.0525   59.0816   16.8615 H   0  0  0  0  0  0
    4.4737   57.5024   18.0863 H   0  0  0  0  0  0
    2.8356   53.6959   20.4277 H   0  0  0  0  0  0
    4.1758   52.6317   20.8125 H   0  0  0  0  0  0
    5.1291   52.7758   22.8827 H   0  0  0  0  0  0
    6.0284   54.2087   22.3908 H   0  0  0  0  0  0
    5.3526   55.3751   24.3791 H   0  0  0  0  0  0
    5.8976   53.7891   24.8810 H   0  0  0  0  0  0
    2.7044   55.6895   24.0954 H   0  0  0  0  0  0
    1.7283   54.4085   24.6998 H   0  0  0  0  0  0
    1.8275   54.2343   22.2910 H   0  0  0  0  0  0
    2.6338   52.8226   22.9837 H   0  0  0  0  0  0
    1.6841   53.1043   26.3042 H   0  0  0  0  0  0
    1.5691   52.4127   28.6312 H   0  0  0  0  0  0
    5.5576   53.8551   29.2747 H   0  0  0  0  0  0
    5.6959   54.5630   26.9485 H   0  0  0  0  0  0
  1  2  1  0  0  0
  1 34  1  0  0  0
  1 35  1  0  0  0
  1 36  1  0  0  0
  2  3  1  0  0  0
  3  4  2  0  0  0
  3  5  1  0  0  0
  5 11  1  0  0  0
  5  6  2  0  0  0
  6  7  1  0  0  0
  6 20  1  0  0  0
  7  8  1  0  0  0
  7 37  1  0  0  0
  8  9  2  0  0  0
  8 10  1  0  0  0
 10 11  1  0  0  0
 10 38  1  0  0  0
 11 12  1  0  0  0
 11 13  1  0  0  0
 13 18  2  0  0  0
 13 14  1  0  0  0
 14 15  2  0  0  0
 14 39  1  0  0  0
 15 16  1  0  0  0
 15 40  1  0  0  0
 16 17  2  0  0  0
 16 19  1  0  0  0
 17 18  1  0  0  0
 17 41  1  0  0  0
 18 42  1  0  0  0
 20 21  1  0  0  0
 20 43  1  0  0  0
 20 44  1  0  0  0
 21 26  1  0  0  0
 21 22  1  0  0  0
 22 23  1  0  0  0
 22 45  1  0  0  0
 22 46  1  0  0  0
 23 24  1  0  0  0
 23 47  1  0  0  0
 23 48  1  0  0  0
 24 25  1  0  0  0
 24 27  1  0  0  0
 25 26  1  0  0  0
 25 49  1  0  0  0
 25 50  1  0  0  0
 26 51  1  0  0  0
 26 52  1  0  0  0
 27 32  2  0  0  0
 27 28  1  0  0  0
 28 29  2  0  0  0
 28 53  1  0  0  0
 29 30  1  0  0  0
 29 54  1  0  0  0
 30 31  2  0  0  0
 30 33  1  0  0  0
 31 32  1  0  0  0
 31 55  1  0  0  0
 32 56  1  0  0  0
M  END
> <i_i_glide_confnum>
194

> <i_i_glide_lignum>
103

> <i_i_glide_posenum>
376

> <i_i_glide_rotatable_bonds>
6

> <i_m_Source_File_Index>
1793

> <b_m_subgroup_collapsed>
0

> <r_i_docking_score>
-5.399

> <r_i_glide_ecoul>
-3.90671

> <r_i_glide_eff_state_penalty>
0

> <r_i_glide_einternal>
7.07675

> <r_i_glide_emodel>
-51.2318

> <r_i_glide_energy>
-41.1566

> <r_i_glide_erotb>
0.477597

> <r_i_glide_esite>
-0.0662121

> <r_i_glide_evdw>
-37.2499

> <r_i_glide_gscore>
-5.399

> <r_i_glide_hbond>
-0.281178

> <r_i_glide_ligand_efficiency>
-0.168719

> <r_i_glide_ligand_efficiency_ln>
-1.20898

> <r_i_glide_ligand_efficiency_sa>
-0.535648

> <r_i_glide_lipo>
-2.38794

> <r_i_glide_metal>
0

> <r_i_glide_rewards>
-0.692763

> <s_i_glide_gridfile>
wee1_glide-grid

> <s_m_Source_File>
wee1_decoys_glide_SP.sdf

> <s_m_Source_Path>
/Users/zhangxujun/Desktop

> <s_m_entry_id>
2068

> <s_m_entry_name>
wee1_decoys_glide_SP.1793

> <s_m_subgroup_title>
wee1_decoys_glide_SP

> <s_m_subgroupid>
wee1_decoys_glide_SP


$$$$
