ZINC13349148_3516
                    3D
 Schrodinger Suite 2024-2.
 51 54  0  0  1  0            999 V2000
    9.7641   50.5520   16.0860 C   0  0  0  0  0  0
    9.2738   51.9005   16.5801 C   0  0  0  0  0  0
   10.1940   52.9071   16.8814 C   0  0  0  0  0  0
    9.7495   54.1392   17.3500 C   0  0  0  0  0  0
    8.3814   54.3644   17.5174 C   0  0  0  0  0  0
    7.4585   53.3555   17.2311 C   0  0  0  0  0  0
    7.9073   52.1236   16.7624 C   0  0  0  0  0  0
    7.8218   55.9514   18.1259 S   0  0  0  0  0  0
    6.4208   56.1336   17.7283 O   0  0  0  0  0  0
    8.8448   56.9423   17.7770 O   0  0  0  0  0  0
    7.8861   55.8034   19.8878 N   0  0  0  0  0  0
    6.9275   55.2967   20.7242 C   0  0  0  0  0  0
    7.1042   55.2970   22.0098 N   0  0  0  0  0  0
    6.0472   54.7524   22.6689 C   0  0  0  0  0  0
    5.9518   54.6439   24.0658 C   0  0  0  0  0  0
    4.7826   54.0968   24.5914 C   0  0  0  0  0  0
    3.6985   53.7020   23.7895 C   0  0  0  0  0  0
    3.7964   53.7875   22.3954 C   0  0  0  0  0  0
    4.9788   54.3110   21.8443 C   0  0  0  0  0  0
    5.4304   54.5700   20.1637 S   0  0  0  0  0  0
    2.5077   53.1679   24.3348 N   0  0  0  0  0  0
    2.0619   53.3019   25.6054 C   0  0  0  0  0  0
    2.5369   54.0965   26.4172 O   0  0  0  0  0  0
    1.0526   52.4570   25.8926 N   0  0  0  0  0  0
    0.4667   52.2298   27.1565 C   0  0  0  0  0  0
   -0.8025   51.6449   27.1734 C   0  0  0  0  0  0
   -1.4393   51.3780   28.3860 C   0  0  0  0  0  0
   -0.8163   51.6967   29.5929 C   0  0  0  0  0  0
    0.4595   52.2537   29.5899 C   0  0  0  0  0  0
    1.0999   52.5160   28.3803 C   0  0  0  0  0  0
    1.2608   52.5927   31.0815 Cl  0  0  0  0  0  0
    7.0350   55.1034   25.0213 C   0  0  0  0  0  0
   10.7583   50.3261   16.4758 H   0  0  0  0  0  0
    9.1089   49.7501   16.4264 H   0  0  0  0  0  0
    9.8035   50.5299   14.9961 H   0  0  0  0  0  0
   11.2530   52.7332   16.7612 H   0  0  0  0  0  0
   10.4683   54.9107   17.5860 H   0  0  0  0  0  0
    6.3986   53.5188   17.3684 H   0  0  0  0  0  0
    7.1889   51.3449   16.5486 H   0  0  0  0  0  0
    8.7761   56.0962   20.2641 H   0  0  0  0  0  0
    4.7384   53.9793   25.6627 H   0  0  0  0  0  0
    2.9838   53.4792   21.7517 H   0  0  0  0  0  0
    1.9330   52.6429   23.6961 H   0  0  0  0  0  0
    0.6474   51.9398   25.1281 H   0  0  0  0  0  0
   -1.3027   51.3853   26.2519 H   0  0  0  0  0  0
   -2.4074   50.8967   28.3951 H   0  0  0  0  0  0
   -1.2987   51.4617   30.5327 H   0  0  0  0  0  0
    2.0982   52.9218   28.4202 H   0  0  0  0  0  0
    7.9044   54.4732   24.8817 H   0  0  0  0  0  0
    7.3315   56.1206   24.7817 H   0  0  0  0  0  0
    6.7258   55.0706   26.0670 H   0  0  0  0  0  0
  1  2  1  0  0  0
  1 33  1  0  0  0
  1 34  1  0  0  0
  1 35  1  0  0  0
  2  7  2  0  0  0
  2  3  1  0  0  0
  3  4  2  0  0  0
  3 36  1  0  0  0
  4  5  1  0  0  0
  4 37  1  0  0  0
  5  6  2  0  0  0
  5  8  1  0  0  0
  6  7  1  0  0  0
  6 38  1  0  0  0
  7 39  1  0  0  0
  8  9  2  0  0  0
  8 10  2  0  0  0
  8 11  1  0  0  0
 11 12  1  0  0  0
 11 40  1  0  0  0
 12 20  1  0  0  0
 12 13  2  0  0  0
 13 14  1  0  0  0
 14 19  2  0  0  0
 14 15  1  0  0  0
 15 16  2  0  0  0
 15 32  1  0  0  0
 16 17  1  0  0  0
 16 41  1  0  0  0
 17 18  2  0  0  0
 17 21  1  0  0  0
 18 19  1  0  0  0
 18 42  1  0  0  0
 19 20  1  0  0  0
 21 22  1  0  0  0
 21 43  1  0  0  0
 22 23  2  0  0  0
 22 24  1  0  0  0
 24 25  1  0  0  0
 24 44  1  0  0  0
 25 30  2  0  0  0
 25 26  1  0  0  0
 26 27  2  0  0  0
 26 45  1  0  0  0
 27 28  1  0  0  0
 27 46  1  0  0  0
 28 29  2  0  0  0
 28 47  1  0  0  0
 29 30  1  0  0  0
 29 31  1  0  0  0
 30 48  1  0  0  0
 32 49  1  0  0  0
 32 50  1  0  0  0
 32 51  1  0  0  0
M  END
> <i_i_glide_confnum>
83

> <i_i_glide_lignum>
3517

> <i_i_glide_posenum>
394

> <i_i_glide_rotatable_bonds>
7

> <i_m_Source_File_Index>
3507

> <b_m_subgroup_collapsed>
0

> <r_i_docking_score>
-4.71611

> <r_i_glide_ecoul>
-2.78144

> <r_i_glide_eff_state_penalty>
0

> <r_i_glide_einternal>
11.3301

> <r_i_glide_emodel>
-57.3925

> <r_i_glide_energy>
-47.2563

> <r_i_glide_erotb>
0.514229

> <r_i_glide_esite>
0

> <r_i_glide_evdw>
-44.4749

> <r_i_glide_gscore>
-4.71611

> <r_i_glide_hbond>
0

> <r_i_glide_ligand_efficiency>
-0.147378

> <r_i_glide_ligand_efficiency_ln>
-1.05607

> <r_i_glide_ligand_efficiency_sa>
-0.467898

> <r_i_glide_lipo>
-2.24511

> <r_i_glide_metal>
0

> <r_i_glide_rewards>
-0.344267

> <s_i_glide_gridfile>
wee1_glide-grid

> <s_m_Source_File>
wee1_decoys_glide_SP.sdf

> <s_m_Source_Path>
/Users/zhangxujun/Desktop

> <s_m_entry_id>
3782

> <s_m_entry_name>
wee1_decoys_glide_SP.3507

> <s_m_subgroup_title>
wee1_decoys_glide_SP

> <s_m_subgroupid>
wee1_decoys_glide_SP


$$$$
