ZINC00828666_3555
                    3D
 Schrodinger Suite 2024-2.
 43 45  0  0  1  0            999 V2000
    1.0616   53.4107   23.1856 C   0  0  0  0  0  0
    1.2639   52.9586   24.6252 C   0  0  0  0  0  0
    2.1550   53.6966   25.3919 C   0  0  0  0  0  0
    2.3110   53.4763   26.7560 C   0  0  0  0  0  0
    1.5529   52.4749   27.3969 C   0  0  0  0  0  0
    0.6617   51.6951   26.6128 C   0  0  0  0  0  0
    0.5485   51.8972   25.2111 C   0  0  0  0  0  0
   -0.3425   50.9550   24.3561 C   0  0  1  0  0  0
   -0.2993   49.9924   24.8638 H   0  0  0  0  0  0
   -1.8285   51.3333   24.2346 C   0  0  0  0  0  0
   -2.8052   52.0311   24.9922 C   0  0  0  0  0  0
   -4.0004   51.9723   24.4277 N   0  0  0  0  0  0
   -3.8307   51.2959   23.2893 N   0  0  0  0  0  0
   -4.5834   51.1046   22.6446 H   0  0  0  0  0  0
   -2.5296   50.9595   23.1077 C   0  0  0  0  0  0
   -2.0688   50.3439   21.9741 O   0  0  0  0  0  0
   -0.7116   50.2246   21.9416 C   0  0  0  0  0  0
    0.1503   50.4970   22.9577 C   0  0  0  0  0  0
    1.5432   50.2713   22.7427 C   0  0  0  0  0  0
    2.6554   50.0965   22.4824 N   0  0  0  0  0  0
   -0.3791   49.7441   20.7038 N   0  0  0  0  0  0
   -2.6829   52.7626   26.3107 C   0  0  0  0  0  0
   -0.2217   50.6380   27.2816 C   0  0  0  0  0  0
    1.6701   52.2505   28.9252 C   0  0  0  0  0  0
    3.3379   52.0976   29.5556 Cl  0  0  0  0  0  0
    0.7695   53.4952   29.8339 Cl  0  0  0  0  0  0
    3.2797   54.3965   27.4899 C   0  0  0  0  0  0
    1.7369   52.8985   22.5010 H   0  0  0  0  0  0
    0.0309   53.2448   22.8799 H   0  0  0  0  0  0
    1.2287   54.4840   23.0834 H   0  0  0  0  0  0
    2.7128   54.4930   24.9192 H   0  0  0  0  0  0
    0.5875   49.6754   20.4204 H   0  0  0  0  0  0
   -1.0652   49.2597   20.1452 H   0  0  0  0  0  0
   -3.0009   52.1298   27.1407 H   0  0  0  0  0  0
   -1.6637   53.0805   26.5182 H   0  0  0  0  0  0
   -3.2968   53.6632   26.3433 H   0  0  0  0  0  0
   -0.5460   50.8963   28.2882 H   0  0  0  0  0  0
   -1.1706   50.4825   26.7745 H   0  0  0  0  0  0
    0.3036   49.6894   27.2805 H   0  0  0  0  0  0
    1.2358   51.3021   29.2256 H   0  0  0  0  0  0
    4.2282   53.8906   27.6720 H   0  0  0  0  0  0
    2.8726   54.7330   28.4420 H   0  0  0  0  0  0
    3.4901   55.2967   26.9159 H   0  0  0  0  0  0
  1  2  1  0  0  0
  1 28  1  0  0  0
  1 29  1  0  0  0
  1 30  1  0  0  0
  2  7  2  0  0  0
  2  3  1  0  0  0
  3  4  2  0  0  0
  3 31  1  0  0  0
  4  5  1  0  0  0
  4 27  1  0  0  0
  5  6  2  0  0  0
  5 24  1  0  0  0
  6  7  1  0  0  0
  6 23  1  0  0  0
  7  8  1  0  0  0
  8  9  1  0  0  0
  8 18  1  0  0  0
  8 10  1  0  0  0
 10 15  2  0  0  0
 10 11  1  0  0  0
 11 12  2  0  0  0
 11 22  1  0  0  0
 12 13  1  0  0  0
 13 14  1  0  0  0
 13 15  1  0  0  0
 15 16  1  0  0  0
 16 17  1  0  0  0
 17 18  2  0  0  0
 17 21  1  0  0  0
 18 19  1  0  0  0
 19 20  3  0  0  0
 21 32  1  0  0  0
 21 33  1  0  0  0
 22 34  1  0  0  0
 22 35  1  0  0  0
 22 36  1  0  0  0
 23 37  1  0  0  0
 23 38  1  0  0  0
 23 39  1  0  0  0
 24 25  1  0  0  0
 24 26  1  0  0  0
 24 40  1  0  0  0
 27 41  1  0  0  0
 27 42  1  0  0  0
 27 43  1  0  0  0
M  END
> <i_i_glide_confnum>
2

> <i_i_glide_lignum>
3556

> <i_i_glide_posenum>
387

> <i_i_glide_rotatable_bonds>
3

> <i_m_Source_File_Index>
5223

> <b_m_subgroup_collapsed>
0

> <r_i_docking_score>
-4.28186

> <r_i_glide_ecoul>
-0.774198

> <r_i_glide_eff_state_penalty>
0

> <r_i_glide_einternal>
4.64425

> <r_i_glide_emodel>
-35.6223

> <r_i_glide_energy>
-29.6414

> <r_i_glide_erotb>
0.136068

> <r_i_glide_esite>
-0.000237744

> <r_i_glide_evdw>
-28.8672

> <r_i_glide_gscore>
-4.28186

> <r_i_glide_hbond>
0

> <r_i_glide_ligand_efficiency>
-0.171275

> <r_i_glide_ligand_efficiency_ln>
-1.01493

> <r_i_glide_ligand_efficiency_sa>
-0.50081

> <r_i_glide_lipo>
-1.85923

> <r_i_glide_metal>
0

> <r_i_glide_rewards>
-0.998972

> <s_i_glide_gridfile>
wee1_glide-grid

> <s_m_Source_File>
wee1_decoys_glide_SP.sdf

> <s_m_Source_Path>
/Users/zhangxujun/Desktop

> <s_m_entry_id>
5498

> <s_m_entry_name>
wee1_decoys_glide_SP.5223

> <s_m_subgroup_title>
wee1_decoys_glide_SP

> <s_m_subgroupid>
wee1_decoys_glide_SP


$$$$
