ZINC10438430_2814
                    3D
 Schrodinger Suite 2024-2.
 55 58  0  0  1  0            999 V2000
    7.9508   55.5761   20.9369 C   0  0  0  0  0  0
    6.6788   55.0068   21.5509 C   0  0  0  0  0  0
    6.7040   54.4951   22.8489 C   0  0  0  0  0  0
    5.5571   53.9552   23.4219 C   0  0  0  0  0  0
    4.3119   53.9948   22.7617 C   0  0  0  0  0  0
    4.3173   54.4966   21.4503 C   0  0  0  0  0  0
    5.4776   54.9765   20.8346 C   0  0  0  0  0  0
    5.3929   55.4821   19.4005 C   0  0  0  0  0  0
    3.0928   53.5792   23.4281 N   0  0  0  0  0  0
    2.9576   54.0075   24.7644 C   0  0  0  0  0  0
    3.6447   54.8963   25.2810 O   0  0  0  0  0  0
    1.9201   53.2638   25.4837 C   0  0  0  0  0  0
    1.5851   53.2958   26.8573 C   0  0  0  0  0  0
    0.5238   52.4218   27.1530 C   0  0  0  0  0  0
   -0.0923   51.6348   25.7352 S   0  0  0  0  0  0
    1.0763   52.4452   24.7559 C   0  0  0  0  0  0
    1.1463   52.2409   23.4220 N   0  0  0  0  0  0
    2.1176   52.7841   22.7766 C   0  0  0  0  0  0
    2.0374   52.4201   21.0043 S   0  0  0  0  0  0
    3.1247   50.9726   20.9049 C   0  0  0  0  0  0
    2.3051   49.6961   20.6993 C   0  0  0  0  0  0
    1.7146   49.2166   21.6684 O   0  0  0  0  0  0
    2.3044   49.1940   19.4418 N   0  0  0  0  0  0
    1.6696   48.0887   19.0009 C   0  0  0  0  0  0
    0.9520   47.3419   19.6746 O   0  0  0  0  0  0
    1.9044   47.8979   17.6953 N   0  0  0  0  0  0
    1.2394   46.8897   16.8843 C   0  0  0  0  0  0
   -0.0021   52.1172   28.5484 C   0  0  0  0  0  0
    0.4860   53.2053   29.5260 C   0  0  0  0  0  0
    1.9838   53.5133   29.3469 C   0  0  0  0  0  0
    2.3044   54.0915   27.9498 C   0  0  0  0  0  0
    8.7090   55.8064   21.6819 H   0  0  0  0  0  0
    8.3723   54.8879   20.2051 H   0  0  0  0  0  0
    7.7366   56.5047   20.4130 H   0  0  0  0  0  0
    7.6164   54.4798   23.4187 H   0  0  0  0  0  0
    5.6401   53.5530   24.4214 H   0  0  0  0  0  0
    3.4012   54.5938   20.8961 H   0  0  0  0  0  0
    4.4420   55.2294   18.9308 H   0  0  0  0  0  0
    6.1785   55.0310   18.7938 H   0  0  0  0  0  0
    5.5270   56.5658   19.3635 H   0  0  0  0  0  0
    3.8000   51.1205   20.0602 H   0  0  0  0  0  0
    3.7516   50.8823   21.7919 H   0  0  0  0  0  0
    2.8583   49.6903   18.7576 H   0  0  0  0  0  0
    2.6642   48.4113   17.2501 H   0  0  0  0  0  0
    1.5971   46.9449   15.8569 H   0  0  0  0  0  0
    1.4438   45.8902   17.2652 H   0  0  0  0  0  0
    0.1596   47.0460   16.8812 H   0  0  0  0  0  0
   -1.0912   52.0514   28.5620 H   0  0  0  0  0  0
    0.3676   51.1452   28.8759 H   0  0  0  0  0  0
   -0.0946   54.1162   29.3803 H   0  0  0  0  0  0
    0.2899   52.8871   30.5501 H   0  0  0  0  0  0
    2.3138   54.2150   30.1127 H   0  0  0  0  0  0
    2.5597   52.6008   29.5045 H   0  0  0  0  0  0
    3.3835   54.0869   27.7949 H   0  0  0  0  0  0
    2.0012   55.1377   27.8980 H   0  0  0  0  0  0
  1  2  1  0  0  0
  1 32  1  0  0  0
  1 33  1  0  0  0
  1 34  1  0  0  0
  2  7  2  0  0  0
  2  3  1  0  0  0
  3  4  2  0  0  0
  3 35  1  0  0  0
  4  5  1  0  0  0
  4 36  1  0  0  0
  5  6  2  0  0  0
  5  9  1  0  0  0
  6  7  1  0  0  0
  6 37  1  0  0  0
  7  8  1  0  0  0
  8 38  1  0  0  0
  8 39  1  0  0  0
  8 40  1  0  0  0
  9 18  1  0  0  0
  9 10  1  0  0  0
 10 11  2  0  0  0
 10 12  1  0  0  0
 12 16  2  0  0  0
 12 13  1  0  0  0
 13 31  1  0  0  0
 13 14  2  0  0  0
 14 15  1  0  0  0
 14 28  1  0  0  0
 15 16  1  0  0  0
 16 17  1  0  0  0
 17 18  2  0  0  0
 18 19  1  0  0  0
 19 20  1  0  0  0
 20 21  1  0  0  0
 20 41  1  0  0  0
 20 42  1  0  0  0
 21 22  2  0  0  0
 21 23  1  0  0  0
 23 24  1  0  0  0
 23 43  1  0  0  0
 24 25  2  0  0  0
 24 26  1  0  0  0
 26 27  1  0  0  0
 26 44  1  0  0  0
 27 45  1  0  0  0
 27 46  1  0  0  0
 27 47  1  0  0  0
 28 29  1  0  0  0
 28 48  1  0  0  0
 28 49  1  0  0  0
 29 30  1  0  0  0
 29 50  1  0  0  0
 29 51  1  0  0  0
 30 31  1  0  0  0
 30 52  1  0  0  0
 30 53  1  0  0  0
 31 54  1  0  0  0
 31 55  1  0  0  0
M  END
> <i_i_glide_confnum>
10

> <i_i_glide_lignum>
2815

> <i_i_glide_posenum>
232

> <i_i_glide_rotatable_bonds>
7

> <i_m_Source_File_Index>
5174

> <b_m_subgroup_collapsed>
0

> <r_i_docking_score>
-6.46697

> <r_i_glide_ecoul>
-7.21735

> <r_i_glide_eff_state_penalty>
0

> <r_i_glide_einternal>
13.2207

> <r_i_glide_emodel>
-63.3829

> <r_i_glide_energy>
-49.6507

> <r_i_glide_erotb>
0.578453

> <r_i_glide_esite>
-0.214982

> <r_i_glide_evdw>
-42.4334

> <r_i_glide_gscore>
-6.46697

> <r_i_glide_hbond>
-0.16

> <r_i_glide_ligand_efficiency>
-0.208612

> <r_i_glide_ligand_efficiency_ln>
-1.4585

> <r_i_glide_ligand_efficiency_sa>
-0.655329

> <r_i_glide_lipo>
-2.73496

> <r_i_glide_metal>
0

> <r_i_glide_rewards>
-0.731208

> <s_i_glide_gridfile>
wee1_glide-grid

> <s_m_Source_File>
wee1_decoys_glide_SP.sdf

> <s_m_Source_Path>
/Users/zhangxujun/Desktop

> <s_m_entry_id>
5449

> <s_m_entry_name>
wee1_decoys_glide_SP.5174

> <s_m_subgroup_title>
wee1_decoys_glide_SP

> <s_m_subgroupid>
wee1_decoys_glide_SP


$$$$
