ZINC13187809_1931
                    3D
 Schrodinger Suite 2024-2.
 46 48  0  0  1  0            999 V2000
    5.1044   52.7551   29.0947 C   0  0  0  0  0  0
    3.8679   52.7823   28.4806 C   0  0  0  0  0  0
    3.7865   53.3322   27.2201 C   0  0  0  0  0  0
    4.9324   53.8892   26.6381 C   0  0  0  0  0  0
    6.1706   53.8566   27.2384 C   0  0  0  0  0  0
    6.2507   53.2961   28.4811 C   0  0  0  0  0  0
    4.7311   54.8953   25.2540 S   0  0  0  0  0  0
    5.9856   55.6235   25.0134 O   0  0  0  0  0  0
    3.5051   55.5501   25.6817 O   0  0  0  0  0  0
    4.3852   53.8148   23.9183 N   0  0  0  0  0  0
    2.9943   53.3438   23.7065 C   0  0  0  0  0  0
    2.4899   53.8267   22.3539 C   0  0  0  0  0  0
    3.4608   53.5029   21.1794 C   0  0  0  0  0  0
    4.9111   53.9560   21.4871 C   0  0  0  0  0  0
    5.4104   53.5366   22.8793 C   0  0  0  0  0  0
    3.3183   52.0015   20.8353 C   0  0  0  0  0  0
    4.3098   51.2775   20.8865 O   0  0  0  0  0  0
    2.0705   51.6093   20.4722 N   0  0  0  0  0  0
    1.5579   50.3547   20.0673 C   0  0  0  0  0  0
    2.4019   49.3775   19.5206 C   0  0  0  0  0  0
    1.9112   48.1354   19.1321 C   0  0  0  0  0  0
    0.5639   47.8421   19.2817 C   0  0  0  0  0  0
   -0.3004   48.8119   19.7788 C   0  0  0  0  0  0
    0.1610   50.0847   20.1660 C   0  0  0  0  0  0
   -0.8575   51.0870   20.6590 C   0  0  0  0  0  0
   -2.0687   50.8745   20.4154 O   0  0  0  0  0  0
   -0.0342   46.2824   18.8483 Cl  0  0  0  0  0  0
    5.1215   52.2873   30.0657 H   0  0  0  0  0  0
    2.9933   52.3702   28.9625 H   0  0  0  0  0  0
    2.8228   53.3907   26.7354 H   0  0  0  0  0  0
    7.0470   54.2947   26.7843 H   0  0  0  0  0  0
    7.2456   53.2596   28.8801 H   0  0  0  0  0  0
    2.3520   53.7372   24.4935 H   0  0  0  0  0  0
    2.9401   52.2629   23.7976 H   0  0  0  0  0  0
    2.3277   54.8964   22.3702 H   0  0  0  0  0  0
    1.4652   53.5164   22.1536 H   0  0  0  0  0  0
    3.1045   53.9779   20.2680 H   0  0  0  0  0  0
    5.5848   53.6601   20.6818 H   0  0  0  0  0  0
    4.9556   55.0396   21.3727 H   0  0  0  0  0  0
    6.3334   54.0617   23.1259 H   0  0  0  0  0  0
    5.6562   52.4802   22.9011 H   0  0  0  0  0  0
    1.3275   52.2760   20.6571 H   0  0  0  0  0  0
    3.4524   49.5723   19.3609 H   0  0  0  0  0  0
    2.5868   47.4078   18.7078 H   0  0  0  0  0  0
   -1.3495   48.5631   19.8599 H   0  0  0  0  0  0
   -0.4570   52.0967   21.2788 O   0  5  0  0  0  0
  1  6  2  0  0  0
  1  2  1  0  0  0
  1 28  1  0  0  0
  2  3  2  0  0  0
  2 29  1  0  0  0
  3  4  1  0  0  0
  3 30  1  0  0  0
  4  5  2  0  0  0
  4  7  1  0  0  0
  5  6  1  0  0  0
  5 31  1  0  0  0
  6 32  1  0  0  0
  7  8  2  0  0  0
  7  9  2  0  0  0
  7 10  1  0  0  0
 10 15  1  0  0  0
 10 11  1  0  0  0
 11 12  1  0  0  0
 11 33  1  0  0  0
 11 34  1  0  0  0
 12 13  1  0  0  0
 12 35  1  0  0  0
 12 36  1  0  0  0
 13 14  1  0  0  0
 13 16  1  0  0  0
 13 37  1  0  0  0
 14 15  1  0  0  0
 14 38  1  0  0  0
 14 39  1  0  0  0
 15 40  1  0  0  0
 15 41  1  0  0  0
 16 17  2  0  0  0
 16 18  1  0  0  0
 18 19  1  0  0  0
 18 42  1  0  0  0
 19 24  2  0  0  0
 19 20  1  0  0  0
 20 21  2  0  0  0
 20 43  1  0  0  0
 21 22  1  0  0  0
 21 44  1  0  0  0
 22 23  2  0  0  0
 22 27  1  0  0  0
 23 24  1  0  0  0
 23 45  1  0  0  0
 24 25  1  0  0  0
 25 26  2  0  0  0
 25 46  1  0  0  0
M  CHG  1  46  -1
M  END
> <i_i_glide_confnum>
229

> <i_i_glide_lignum>
1932

> <i_i_glide_posenum>
213

> <i_i_glide_rotatable_bonds>
6

> <i_m_Source_File_Index>
5064

> <b_m_subgroup_collapsed>
0

> <r_i_docking_score>
-3.58479

> <r_i_glide_ecoul>
-4.44585

> <r_i_glide_eff_state_penalty>
0

> <r_i_glide_einternal>
5.3683

> <r_i_glide_emodel>
-29.119

> <r_i_glide_energy>
-20.9573

> <r_i_glide_erotb>
0.556398

> <r_i_glide_esite>
-0.0314498

> <r_i_glide_evdw>
-16.5114

> <r_i_glide_gscore>
-3.58479

> <r_i_glide_hbond>
0

> <r_i_glide_ligand_efficiency>
-0.128028

> <r_i_glide_ligand_efficiency_ln>
-0.827476

> <r_i_glide_ligand_efficiency_sa>
-0.38877

> <r_i_glide_lipo>
-1.74391

> <r_i_glide_metal>
0

> <r_i_glide_rewards>
-0.873387

> <s_i_glide_gridfile>
wee1_glide-grid

> <s_m_Source_File>
wee1_decoys_glide_SP.sdf

> <s_m_Source_Path>
/Users/zhangxujun/Desktop

> <s_m_entry_id>
5339

> <s_m_entry_name>
wee1_decoys_glide_SP.5064

> <s_m_subgroup_title>
wee1_decoys_glide_SP

> <s_m_subgroupid>
wee1_decoys_glide_SP


$$$$
