ZINC63294672_2222
                    3D
 Schrodinger Suite 2024-2.
 54 57  0  0  1  0            999 V2000
   -3.9822   50.3510   25.9647 C   0  0  0  0  0  0
   -3.3617   49.9291   24.7151 C   0  0  0  0  0  0
   -2.0185   50.0037   24.5141 C   0  0  0  0  0  0
   -1.1795   50.5005   25.5196 C   0  0  0  0  0  0
    0.1270   50.6675   25.5187 N   0  3  0  0  0  0
    0.5801   51.2160   26.8138 C   0  0  1  0  0  0
    1.2153   50.4654   27.2821 H   0  0  0  0  0  0
    1.2588   52.6053   26.7731 C   0  0  0  0  0  0
    1.3540   53.1063   28.1698 N   0  0  0  0  0  0
    0.0458   53.3275   28.8226 C   0  0  0  0  0  0
   -0.6923   51.9625   28.9179 C   0  0  0  0  0  0
   -0.7416   51.3362   27.5358 C   0  0  0  0  0  0
   -1.7304   50.9104   26.7371 C   0  0  0  0  0  0
   -3.1826   50.8262   26.9399 C   0  0  0  0  0  0
    2.5068   53.2116   28.8877 C   0  0  0  0  0  0
    2.5422   53.5861   30.0638 O   0  0  0  0  0  0
    3.6249   52.8959   28.2134 N   0  0  0  0  0  0
    4.9621   52.9012   28.7904 C   0  0  0  0  0  0
    5.8973   54.0988   28.4754 C   0  0  0  0  0  0
    6.1542   54.5287   27.0180 C   0  0  0  0  0  0
    7.1036   55.2771   26.7970 O   0  0  0  0  0  0
    5.3076   54.0986   26.0608 N   0  0  0  0  0  0
    5.3826   54.2881   24.6677 C   0  0  0  0  0  0
    4.2078   54.0932   23.9403 C   0  0  0  0  0  0
    4.2228   54.1775   22.5506 C   0  0  0  0  0  0
    5.4002   54.4969   21.8749 C   0  0  0  0  0  0
    6.5816   54.6974   22.6028 C   0  0  0  0  0  0
    6.5724   54.5830   23.9882 C   0  0  0  0  0  0
    5.3117   54.6038   20.5025 O   0  0  0  0  0  0
    6.2168   55.4552   19.8000 C   0  0  0  0  0  0
    6.3131   56.6626   20.3638 F   0  0  0  0  0  0
    7.4220   54.8962   19.6910 F   0  0  0  0  0  0
    5.7310   55.6275   18.5731 F   0  0  0  0  0  0
   -5.0496   50.2682   26.1101 H   0  0  0  0  0  0
   -3.9905   49.5394   23.9271 H   0  0  0  0  0  0
   -1.6141   49.6714   23.5689 H   0  0  0  0  0  0
    2.2000   52.6255   26.2259 H   0  0  0  0  0  0
    0.6298   53.2960   26.2143 H   0  0  0  0  0  0
    0.1293   53.8419   29.7823 H   0  0  0  0  0  0
   -0.5161   54.0165   28.1924 H   0  0  0  0  0  0
   -0.1801   51.3024   29.6193 H   0  0  0  0  0  0
   -1.6923   52.0958   29.3198 H   0  0  0  0  0  0
   -3.6377   51.1173   27.8759 H   0  0  0  0  0  0
    3.5232   52.4639   27.3093 H   0  0  0  0  0  0
    5.1044   52.4031   29.7476 H   0  0  0  0  0  0
    5.4028   52.1119   28.1798 H   0  0  0  0  0  0
    5.4437   54.9601   28.9661 H   0  0  0  0  0  0
    6.8046   54.0532   29.0790 H   0  0  0  0  0  0
    4.4886   53.6160   26.3879 H   0  0  0  0  0  0
    3.2807   53.8574   24.4398 H   0  0  0  0  0  0
    3.3115   54.0258   21.9898 H   0  0  0  0  0  0
    7.5151   54.9253   22.1089 H   0  0  0  0  0  0
    7.5049   54.7084   24.5102 H   0  0  0  0  0  0
    0.7479   50.4316   24.7497 H   0  0  0  0  0  0
  1 14  2  0  0  0
  1  2  1  0  0  0
  1 34  1  0  0  0
  2  3  2  0  0  0
  2 35  1  0  0  0
  3  4  1  0  0  0
  3 36  1  0  0  0
  4 13  1  0  0  0
  4  5  2  0  0  0
  5  6  1  0  0  0
  5 54  1  0  0  0
  6  7  1  0  0  0
  6 12  1  0  0  0
  6  8  1  0  0  0
  8  9  1  0  0  0
  8 37  1  0  0  0
  8 38  1  0  0  0
  9 10  1  0  0  0
  9 15  1  0  0  0
 10 11  1  0  0  0
 10 39  1  0  0  0
 10 40  1  0  0  0
 11 12  1  0  0  0
 11 41  1  0  0  0
 11 42  1  0  0  0
 12 13  2  0  0  0
 13 14  1  0  0  0
 14 43  1  0  0  0
 15 16  2  0  0  0
 15 17  1  0  0  0
 17 18  1  0  0  0
 17 44  1  0  0  0
 18 19  1  0  0  0
 18 45  1  0  0  0
 18 46  1  0  0  0
 19 20  1  0  0  0
 19 47  1  0  0  0
 19 48  1  0  0  0
 20 21  2  0  0  0
 20 22  1  0  0  0
 22 23  1  0  0  0
 22 49  1  0  0  0
 23 28  2  0  0  0
 23 24  1  0  0  0
 24 25  2  0  0  0
 24 50  1  0  0  0
 25 26  1  0  0  0
 25 51  1  0  0  0
 26 27  2  0  0  0
 26 29  1  0  0  0
 27 28  1  0  0  0
 27 52  1  0  0  0
 28 53  1  0  0  0
 29 30  1  0  0  0
 30 31  1  0  0  0
 30 32  1  0  0  0
 30 33  1  0  0  0
M  CHG  1   5   1
M  END
> <i_i_glide_confnum>
144

> <i_i_glide_lignum>
2223

> <i_i_glide_posenum>
258

> <i_i_glide_rotatable_bonds>
9

> <i_m_Source_File_Index>
6016

> <b_m_subgroup_collapsed>
0

> <r_i_docking_score>
-6.53256

> <r_i_glide_ecoul>
-6.68503

> <r_i_glide_eff_state_penalty>
0

> <r_i_glide_einternal>
4.31581

> <r_i_glide_emodel>
-65.3741

> <r_i_glide_energy>
-47.5818

> <r_i_glide_erotb>
0.70018

> <r_i_glide_esite>
-0.043434

> <r_i_glide_evdw>
-40.8968

> <r_i_glide_gscore>
-6.53256

> <r_i_glide_hbond>
-0.594481

> <r_i_glide_ligand_efficiency>
-0.204143

> <r_i_glide_ligand_efficiency_ln>
-1.46282

> <r_i_glide_ligand_efficiency_sa>
-0.648112

> <r_i_glide_lipo>
-2.17711

> <r_i_glide_metal>
0

> <r_i_glide_rewards>
-1.37012

> <s_i_glide_gridfile>
wee1_glide-grid

> <s_m_Source_File>
wee1_decoys_glide_SP.sdf

> <s_m_Source_Path>
/Users/zhangxujun/Desktop

> <s_m_entry_id>
6291

> <s_m_entry_name>
wee1_decoys_glide_SP.6016

> <s_m_subgroup_title>
wee1_decoys_glide_SP

> <s_m_subgroupid>
wee1_decoys_glide_SP


$$$$
