ZINC13072818_5881
                    3D
 Schrodinger Suite 2024-2.
 47 48  0  0  1  0            999 V2000
    2.7090   54.6959   24.4828 C   0  0  0  0  0  0
    3.1411   53.6559   23.4309 C   0  0  2  0  0  0
    3.4674   52.7617   23.9427 H   0  0  0  0  0  0
    4.3439   54.1227   22.5887 C   0  0  0  0  0  0
    4.2267   54.3082   21.1995 C   0  0  0  0  0  0
    5.2658   54.8610   20.4516 C   0  0  0  0  0  0
    6.4433   55.2477   21.0814 C   0  0  0  0  0  0
    6.6007   55.0075   22.4418 C   0  0  0  0  0  0
    5.5811   54.4282   23.1926 C   0  0  0  0  0  0
    5.9584   54.1009   25.0336 Br  0  0  0  0  0  0
    1.9369   53.3083   22.6354 N   0  0  0  0  0  0
    1.0618   51.7813   22.7979 S   0  0  0  0  0  0
    2.0603   50.7073   22.8019 O   0  0  0  0  0  0
    0.0026   51.8357   21.7849 O   0  0  0  0  0  0
    0.2990   51.7736   24.4437 C   0  0  0  0  0  0
    1.1031   52.0957   25.5330 C   0  0  0  0  0  0
    0.6211   52.1088   26.8339 C   0  0  0  0  0  0
   -0.6998   51.7258   27.0636 C   0  0  0  0  0  0
   -1.5464   51.3761   25.9932 C   0  0  0  0  0  0
   -1.0401   51.4140   24.6720 C   0  0  0  0  0  0
   -1.8099   51.0373   23.5906 O   0  0  0  0  0  0
   -3.0374   51.7324   23.3942 C   0  0  0  0  0  0
   -2.8619   50.9828   26.1686 O   0  0  0  0  0  0
   -3.4065   50.8634   27.4797 C   0  0  0  0  0  0
    1.5648   52.5146   27.8892 C   0  0  0  0  0  0
    1.6179   52.0602   29.1552 C   0  0  0  0  0  0
    2.6627   52.5745   30.1569 C   0  0  0  0  0  0
    2.9414   53.7953   30.0813 O   0  0  0  0  0  0
    3.3753   54.7250   25.3406 H   0  0  0  0  0  0
    2.6717   55.6966   24.0803 H   0  0  0  0  0  0
    1.7169   54.4967   24.8797 H   0  0  0  0  0  0
    3.3113   54.0612   20.6820 H   0  0  0  0  0  0
    5.1415   55.0121   19.3888 H   0  0  0  0  0  0
    7.2432   55.6996   20.5132 H   0  0  0  0  0  0
    7.5065   55.2951   22.9417 H   0  0  0  0  0  0
    1.4717   54.0672   22.1331 H   0  0  0  0  0  0
    2.1444   52.3112   25.3896 H   0  0  0  0  0  0
   -1.0598   51.7018   28.0830 H   0  0  0  0  0  0
   -3.2918   51.7017   22.3340 H   0  0  0  0  0  0
   -3.8558   51.2567   23.9355 H   0  0  0  0  0  0
   -2.9817   52.7830   23.6920 H   0  0  0  0  0  0
   -4.4511   50.5629   27.4057 H   0  0  0  0  0  0
   -2.8950   50.0969   28.0616 H   0  0  0  0  0  0
   -3.3734   51.8067   28.0239 H   0  0  0  0  0  0
    2.2789   53.2723   27.5951 H   0  0  0  0  0  0
    0.9239   51.3010   29.4853 H   0  0  0  0  0  0
    3.1043   51.6988   30.9302 O   0  5  0  0  0  0
  1  2  1  0  0  0
  1 29  1  0  0  0
  1 30  1  0  0  0
  1 31  1  0  0  0
  2  3  1  0  0  0
  2  4  1  0  0  0
  2 11  1  0  0  0
  4  9  2  0  0  0
  4  5  1  0  0  0
  5  6  2  0  0  0
  5 32  1  0  0  0
  6  7  1  0  0  0
  6 33  1  0  0  0
  7  8  2  0  0  0
  7 34  1  0  0  0
  8  9  1  0  0  0
  8 35  1  0  0  0
  9 10  1  0  0  0
 11 12  1  0  0  0
 11 36  1  0  0  0
 12 13  2  0  0  0
 12 14  2  0  0  0
 12 15  1  0  0  0
 15 20  2  0  0  0
 15 16  1  0  0  0
 16 17  2  0  0  0
 16 37  1  0  0  0
 17 18  1  0  0  0
 17 25  1  0  0  0
 18 19  2  0  0  0
 18 38  1  0  0  0
 19 20  1  0  0  0
 19 23  1  0  0  0
 20 21  1  0  0  0
 21 22  1  0  0  0
 22 39  1  0  0  0
 22 40  1  0  0  0
 22 41  1  0  0  0
 23 24  1  0  0  0
 24 42  1  0  0  0
 24 43  1  0  0  0
 24 44  1  0  0  0
 25 26  2  0  0  0
 25 45  1  0  0  0
 26 27  1  0  0  0
 26 46  1  0  0  0
 27 28  2  0  0  0
 27 47  1  0  0  0
M  CHG  1  47  -1
M  END
> <i_i_glide_confnum>
60

> <i_i_glide_lignum>
5882

> <i_i_glide_posenum>
84

> <i_i_glide_rotatable_bonds>
8

> <i_m_Source_File_Index>
2159

> <b_m_subgroup_collapsed>
0

> <r_i_docking_score>
-4.57754

> <r_i_glide_ecoul>
-8.13836

> <r_i_glide_eff_state_penalty>
0

> <r_i_glide_einternal>
12.6546

> <r_i_glide_emodel>
-45.6227

> <r_i_glide_energy>
-39.9596

> <r_i_glide_erotb>
0.458457

> <r_i_glide_esite>
0

> <r_i_glide_evdw>
-31.8212

> <r_i_glide_gscore>
-4.57754

> <r_i_glide_hbond>
-0.408293

> <r_i_glide_ligand_efficiency>
-0.163483

> <r_i_glide_ligand_efficiency_ln>
-1.05663

> <r_i_glide_ligand_efficiency_sa>
-0.496432

> <r_i_glide_lipo>
-2.15473

> <r_i_glide_metal>
0

> <r_i_glide_rewards>
0.338843

> <s_i_glide_gridfile>
wee1_glide-grid

> <s_m_Source_File>
wee1_decoys_glide_SP.sdf

> <s_m_Source_Path>
/Users/zhangxujun/Desktop

> <s_m_entry_id>
2434

> <s_m_entry_name>
wee1_decoys_glide_SP.2159

> <s_m_subgroup_title>
wee1_decoys_glide_SP

> <s_m_subgroupid>
wee1_decoys_glide_SP


$$$$
