ZINC65074819_2230
                    3D
 Schrodinger Suite 2024-2.
 61 64  0  0  1  0            999 V2000
   -0.0228   53.0283   28.3681 C   0  0  0  0  0  0
   -0.3826   52.1503   27.1803 C   0  0  0  0  0  0
   -1.4577   52.4588   26.3485 C   0  0  0  0  0  0
   -1.7608   51.6437   25.2566 C   0  0  0  0  0  0
   -1.0095   50.4910   24.9822 C   0  0  0  0  0  0
    0.0525   50.1628   25.8550 C   0  0  0  0  0  0
    0.3616   51.0038   26.9242 C   0  0  0  0  0  0
    0.8686   48.8969   25.7351 C   0  0  0  0  0  0
   -1.5469   49.4571   23.5806 S   0  0  0  0  0  0
   -2.8965   49.9131   23.2251 O   0  0  0  0  0  0
   -1.3250   48.0489   23.9197 O   0  0  0  0  0  0
   -0.4822   49.8578   22.2123 N   0  0  0  0  0  0
    0.8973   49.3223   22.1389 C   0  0  0  0  0  0
    1.9472   50.4098   22.4668 C   0  0  0  0  0  0
    1.7691   51.7056   21.6307 C   0  0  0  0  0  0
    0.2866   52.1712   21.7563 C   0  0  0  0  0  0
   -0.7393   51.0775   21.4175 C   0  0  0  0  0  0
    2.7549   52.8022   22.0864 C   0  0  0  0  0  0
    3.8853   53.0999   21.4267 N   0  3  0  0  0  0
    4.2629   52.5539   20.1274 C   0  0  0  0  0  0
    3.4318   51.3002   19.8669 C   0  0  0  0  0  0
    2.0352   51.5380   20.1940 N   0  0  0  0  0  0
    2.4401   53.4554   23.2139 N   0  0  0  0  0  0
    3.0960   54.6558   23.7390 C   0  0  0  0  0  0
    4.2188   54.3923   24.7271 C   0  0  0  0  0  0
    5.5512   54.5008   24.3161 C   0  0  0  0  0  0
    6.5871   54.3722   25.2399 C   0  0  0  0  0  0
    6.2975   54.0967   26.5777 C   0  0  0  0  0  0
    4.9712   53.9535   26.9888 C   0  0  0  0  0  0
    3.9336   54.1020   26.0666 C   0  0  0  0  0  0
    4.6895   53.6812   28.2836 F   0  0  0  0  0  0
    0.7229   52.5503   29.0115 H   0  0  0  0  0  0
    0.3626   53.9975   28.0419 H   0  0  0  0  0  0
   -0.8955   53.2099   28.9978 H   0  0  0  0  0  0
   -2.0702   53.3234   26.5419 H   0  0  0  0  0  0
   -2.6030   51.9102   24.6343 H   0  0  0  0  0  0
    1.1752   50.7477   27.5888 H   0  0  0  0  0  0
    1.5065   48.7193   26.6016 H   0  0  0  0  0  0
    0.2037   48.0502   25.6824 H   0  0  0  0  0  0
    1.4972   48.8969   24.8553 H   0  0  0  0  0  0
    1.0477   48.9015   21.1440 H   0  0  0  0  0  0
    0.9849   48.4971   22.8380 H   0  0  0  0  0  0
    2.9494   50.0022   22.3549 H   0  0  0  0  0  0
    1.8718   50.6691   23.5206 H   0  0  0  0  0  0
    0.0681   52.5254   22.7620 H   0  0  0  0  0  0
    0.1354   53.0218   21.0978 H   0  0  0  0  0  0
   -0.7270   50.8104   20.3616 H   0  0  0  0  0  0
   -1.7470   51.4338   21.6289 H   0  0  0  0  0  0
    4.0546   53.3219   19.3788 H   0  0  0  0  0  0
    5.3336   52.3390   20.1083 H   0  0  0  0  0  0
    3.5035   51.0225   18.8131 H   0  0  0  0  0  0
    3.8276   50.4430   20.4079 H   0  0  0  0  0  0
    1.4731   50.7768   19.8433 H   0  0  0  0  0  0
    1.6042   53.1503   23.6959 H   0  0  0  0  0  0
    2.3168   55.2452   24.2235 H   0  0  0  0  0  0
    3.4373   55.2504   22.8907 H   0  0  0  0  0  0
    5.7959   54.7294   23.2897 H   0  0  0  0  0  0
    7.6081   54.4904   24.9058 H   0  0  0  0  0  0
    7.0925   53.9885   27.2997 H   0  0  0  0  0  0
    2.9116   54.0138   26.4017 H   0  0  0  0  0  0
    4.4523   53.8402   21.8106 H   0  0  0  0  0  0
  1  2  1  0  0  0
  1 32  1  0  0  0
  1 33  1  0  0  0
  1 34  1  0  0  0
  2  7  2  0  0  0
  2  3  1  0  0  0
  3  4  2  0  0  0
  3 35  1  0  0  0
  4  5  1  0  0  0
  4 36  1  0  0  0
  5  6  2  0  0  0
  5  9  1  0  0  0
  6  7  1  0  0  0
  6  8  1  0  0  0
  7 37  1  0  0  0
  8 38  1  0  0  0
  8 39  1  0  0  0
  8 40  1  0  0  0
  9 10  2  0  0  0
  9 11  2  0  0  0
  9 12  1  0  0  0
 12 17  1  0  0  0
 12 13  1  0  0  0
 13 14  1  0  0  0
 13 41  1  0  0  0
 13 42  1  0  0  0
 14 15  1  0  0  0
 14 43  1  0  0  0
 14 44  1  0  0  0
 15 22  1  0  0  0
 15 16  1  0  0  0
 15 18  1  0  0  0
 16 17  1  0  0  0
 16 45  1  0  0  0
 16 46  1  0  0  0
 17 47  1  0  0  0
 17 48  1  0  0  0
 18 19  2  0  0  0
 18 23  1  0  0  0
 19 20  1  0  0  0
 19 61  1  0  0  0
 20 21  1  0  0  0
 20 49  1  0  0  0
 20 50  1  0  0  0
 21 22  1  0  0  0
 21 51  1  0  0  0
 21 52  1  0  0  0
 22 53  1  0  0  0
 23 24  1  0  0  0
 23 54  1  0  0  0
 24 25  1  0  0  0
 24 55  1  0  0  0
 24 56  1  0  0  0
 25 30  2  0  0  0
 25 26  1  0  0  0
 26 27  2  0  0  0
 26 57  1  0  0  0
 27 28  1  0  0  0
 27 58  1  0  0  0
 28 29  2  0  0  0
 28 59  1  0  0  0
 29 30  1  0  0  0
 29 31  1  0  0  0
 30 60  1  0  0  0
M  CHG  1  19   1
M  END
> <i_i_glide_confnum>
120

> <i_i_glide_lignum>
2231

> <i_i_glide_posenum>
97

> <i_i_glide_rotatable_bonds>
5

> <i_m_Source_File_Index>
4080

> <b_m_subgroup_collapsed>
0

> <r_i_docking_score>
-4.09947

> <r_i_glide_ecoul>
1.06314

> <r_i_glide_eff_state_penalty>
0

> <r_i_glide_einternal>
3.64875

> <r_i_glide_emodel>
-42.0693

> <r_i_glide_energy>
-32.8511

> <r_i_glide_erotb>
0.503921

> <r_i_glide_esite>
-0.0303548

> <r_i_glide_evdw>
-33.9142

> <r_i_glide_gscore>
-4.09947

> <r_i_glide_hbond>
0

> <r_i_glide_ligand_efficiency>
-0.132241

> <r_i_glide_ligand_efficiency_ln>
-0.924555

> <r_i_glide_ligand_efficiency_sa>
-0.415419

> <r_i_glide_lipo>
-2.11786

> <r_i_glide_metal>
0

> <r_i_glide_rewards>
-0.918933

> <s_i_glide_gridfile>
wee1_glide-grid

> <s_m_Source_File>
wee1_decoys_glide_SP.sdf

> <s_m_Source_Path>
/Users/zhangxujun/Desktop

> <s_m_entry_id>
4355

> <s_m_entry_name>
wee1_decoys_glide_SP.4080

> <s_m_subgroup_title>
wee1_decoys_glide_SP

> <s_m_subgroupid>
wee1_decoys_glide_SP


$$$$
