ZINC63376148_654
                    3D
 Schrodinger Suite 2024-2.
 63 68  0  0  1  0            999 V2000
    1.7404   48.8958   18.1894 C   0  0  0  0  0  0
    1.5330   50.0338   19.2023 C   0  0  0  0  0  0
    1.1754   49.5442   20.6281 C   0  0  1  0  0  0
    0.3352   48.8560   20.5115 H   0  0  0  0  0  0
    2.3045   48.7266   21.2825 C   0  0  0  0  0  0
    0.7554   50.6494   21.5171 N   0  0  0  0  0  0
    1.5844   51.6338   21.9624 C   0  0  0  0  0  0
    2.7736   51.8098   21.6994 O   0  0  0  0  0  0
    0.7731   52.5428   22.8624 C   0  0  2  0  0  0
    0.7047   53.5327   22.4125 H   0  0  0  0  0  0
    1.3099   52.6031   24.3001 C   0  0  2  0  0  0
    1.9297   51.7235   24.4950 H   0  0  0  0  0  0
    0.1208   52.4975   25.1349 N   0  0  0  0  0  0
   -0.8276   51.6004   24.4834 C   0  0  2  0  0  0
   -0.5832   51.8967   22.9598 C   0  0  2  0  0  0
   -1.3287   52.5909   22.5723 H   0  0  0  0  0  0
   -0.5101   50.7125   22.0030 C   0  0  0  0  0  0
   -1.4612   49.9756   21.7420 O   0  0  0  0  0  0
   -2.2480   51.7715   24.9413 C   0  0  0  0  0  0
   -3.1515   52.8229   24.7634 C   0  0  0  0  0  0
   -4.4366   52.7359   25.3104 C   0  0  0  0  0  0
   -4.8047   51.5964   26.0374 C   0  0  0  0  0  0
   -3.8986   50.5480   26.2184 C   0  0  0  0  0  0
   -2.6290   50.6517   25.6561 C   0  0  0  0  0  0
   -1.5879   49.7399   25.6825 N   0  0  0  0  0  0
   -0.5103   50.1562   24.9981 C   0  0  0  0  0  0
    0.5419   49.5381   24.8402 O   0  0  0  0  0  0
   -5.4339   53.8596   25.1006 C   0  0  0  0  0  0
    2.1745   53.8497   24.5663 C   0  0  0  0  0  0
    2.8906   53.8943   25.9071 C   0  0  0  0  0  0
    4.1881   54.0976   26.1896 C   0  0  0  0  0  0
    5.3403   54.3133   25.3002 C   0  0  0  0  0  0
    6.5727   54.5004   25.8086 C   0  0  0  0  0  0
    6.7205   54.4969   27.2581 C   0  0  0  0  0  0
    5.6691   54.3012   28.0934 C   0  0  0  0  0  0
    4.3868   54.0970   27.5747 C   0  0  0  0  0  0
    3.2557   53.8977   28.2032 N   0  3  0  0  0  0
    2.1669   53.7269   27.2296 C   0  0  0  0  0  0
    1.9043   49.2949   17.1889 H   0  0  0  0  0  0
    2.6148   48.2923   18.4364 H   0  0  0  0  0  0
    0.8755   48.2354   18.1398 H   0  0  0  0  0  0
    0.7316   50.6730   18.8303 H   0  0  0  0  0  0
    2.4288   50.6582   19.2233 H   0  0  0  0  0  0
    2.5236   47.8045   20.7434 H   0  0  0  0  0  0
    3.2208   49.3097   21.2826 H   0  0  0  0  0  0
    2.0805   48.4961   22.3245 H   0  0  0  0  0  0
    0.3263   52.1707   26.0672 H   0  0  0  0  0  0
   -2.8658   53.6964   24.1988 H   0  0  0  0  0  0
   -5.7960   51.5187   26.4593 H   0  0  0  0  0  0
   -4.1956   49.6707   26.7763 H   0  0  0  0  0  0
   -1.5933   48.8856   26.2302 H   0  0  0  0  0  0
   -6.3944   53.4541   24.7796 H   0  0  0  0  0  0
   -5.1068   54.5563   24.3275 H   0  0  0  0  0  0
   -5.5957   54.4043   26.0294 H   0  0  0  0  0  0
    2.9225   53.9334   23.7755 H   0  0  0  0  0  0
    1.5533   54.7401   24.4806 H   0  0  0  0  0  0
    5.2338   54.3099   24.2247 H   0  0  0  0  0  0
    7.4223   54.6385   25.1555 H   0  0  0  0  0  0
    7.6977   54.6620   27.6892 H   0  0  0  0  0  0
    5.8471   54.3223   29.1595 H   0  0  0  0  0  0
    1.4097   54.4910   27.4197 H   0  0  0  0  0  0
    1.7469   52.7327   27.3796 H   0  0  0  0  0  0
    3.1405   53.8517   29.2109 H   0  0  0  0  0  0
  1  2  1  0  0  0
  1 39  1  0  0  0
  1 40  1  0  0  0
  1 41  1  0  0  0
  2  3  1  0  0  0
  2 42  1  0  0  0
  2 43  1  0  0  0
  3  4  1  0  0  0
  3  5  1  0  0  0
  3  6  1  0  0  0
  5 44  1  0  0  0
  5 45  1  0  0  0
  5 46  1  0  0  0
  6 17  1  0  0  0
  6  7  1  0  0  0
  7  8  2  0  0  0
  7  9  1  0  0  0
  9 10  1  0  0  0
  9 15  1  0  0  0
  9 11  1  0  0  0
 11 12  1  0  0  0
 11 13  1  0  0  0
 11 29  1  0  0  0
 13 14  1  0  0  0
 13 47  1  0  0  0
 14 26  1  0  0  0
 14 15  1  0  0  0
 14 19  1  0  0  0
 15 16  1  0  0  0
 15 17  1  0  0  0
 17 18  2  0  0  0
 19 24  2  0  0  0
 19 20  1  0  0  0
 20 21  2  0  0  0
 20 48  1  0  0  0
 21 22  1  0  0  0
 21 28  1  0  0  0
 22 23  2  0  0  0
 22 49  1  0  0  0
 23 24  1  0  0  0
 23 50  1  0  0  0
 24 25  1  0  0  0
 25 26  1  0  0  0
 25 51  1  0  0  0
 26 27  2  0  0  0
 28 52  1  0  0  0
 28 53  1  0  0  0
 28 54  1  0  0  0
 29 30  1  0  0  0
 29 55  1  0  0  0
 29 56  1  0  0  0
 30 38  1  0  0  0
 30 31  2  0  0  0
 31 36  1  0  0  0
 31 32  1  0  0  0
 32 33  2  0  0  0
 32 57  1  0  0  0
 33 34  1  0  0  0
 33 58  1  0  0  0
 34 35  2  0  0  0
 34 59  1  0  0  0
 35 36  1  0  0  0
 35 60  1  0  0  0
 36 37  2  0  0  0
 37 38  1  0  0  0
 37 63  1  0  0  0
 38 61  1  0  0  0
 38 62  1  0  0  0
M  CHG  1  37   1
M  END
> <i_i_glide_confnum>
10

> <i_i_glide_lignum>
655

> <i_i_glide_posenum>
343

> <i_i_glide_rotatable_bonds>
4

> <i_m_Source_File_Index>
3475

> <b_m_subgroup_collapsed>
0

> <r_i_docking_score>
-5.37744

> <r_i_glide_ecoul>
0.0202693

> <r_i_glide_eff_state_penalty>
0

> <r_i_glide_einternal>
2.47162

> <r_i_glide_emodel>
-54.5751

> <r_i_glide_energy>
-41.6154

> <r_i_glide_erotb>
0.288121

> <r_i_glide_esite>
-0.114677

> <r_i_glide_evdw>
-41.6357

> <r_i_glide_gscore>
-5.37744

> <r_i_glide_hbond>
-0.0636711

> <r_i_glide_ligand_efficiency>
-0.15816

> <r_i_glide_ligand_efficiency_ln>
-1.18803

> <r_i_glide_ligand_efficiency_sa>
-0.512377

> <r_i_glide_lipo>
-2.93063

> <r_i_glide_metal>
0

> <r_i_glide_rewards>
-0.477835

> <s_i_glide_gridfile>
wee1_glide-grid

> <s_m_Source_File>
wee1_decoys_glide_SP.sdf

> <s_m_Source_Path>
/Users/zhangxujun/Desktop

> <s_m_entry_id>
3750

> <s_m_entry_name>
wee1_decoys_glide_SP.3475

> <s_m_subgroup_title>
wee1_decoys_glide_SP

> <s_m_subgroupid>
wee1_decoys_glide_SP


$$$$
