ZINC14949000_3461
                    3D
 Schrodinger Suite 2024-2.
 54 57  0  0  1  0            999 V2000
    5.7570   54.8783   20.1423 C   0  0  0  0  0  0
    6.2872   55.1942   18.8936 C   0  0  0  0  0  0
    7.5662   55.7493   18.7932 C   0  0  0  0  0  0
    8.2966   55.9996   19.9556 C   0  0  0  0  0  0
    7.7561   55.6964   21.2016 C   0  0  0  0  0  0
    6.4903   55.1134   21.3140 C   0  0  0  0  0  0
    5.9569   54.7280   22.6673 C   0  0  0  0  0  0
    6.6088   54.8772   23.8024 N   0  0  0  0  0  0
    5.8707   54.5553   24.8531 C   0  0  0  0  0  0
    4.5910   54.1081   24.5719 C   0  0  0  0  0  0
    4.3449   54.0914   22.8580 S   0  0  0  0  0  0
    3.5571   53.7459   25.6097 C   0  0  0  0  0  0
    4.0956   53.8516   26.9864 N   0  0  0  0  0  0
    5.5600   53.6724   27.1791 C   0  0  0  0  0  0
    6.3375   54.6850   26.2921 C   0  0  0  0  0  0
    3.2652   53.7175   28.0601 C   0  0  0  0  0  0
    3.6823   53.5891   29.2154 O   0  0  0  0  0  0
    1.7243   53.8086   27.9016 C   0  0  0  0  0  0
    0.8824   52.5423   28.2804 C   0  0  1  0  0  0
    0.4854   52.6855   29.2916 H   0  0  0  0  0  0
   -0.2853   52.1758   27.3205 C   0  0  0  0  0  0
    0.0804   51.3885   26.0528 C   0  0  0  0  0  0
   -0.1109   50.0006   26.0162 C   0  0  0  0  0  0
    0.1574   49.2743   24.8543 C   0  0  0  0  0  0
    0.6609   49.9227   23.7289 C   0  0  0  0  0  0
    0.8588   51.3016   23.7529 C   0  0  0  0  0  0
    0.5512   52.0325   24.9000 C   0  0  0  0  0  0
    0.7042   53.3697   24.8763 F   0  0  0  0  0  0
   -0.0935   47.9477   24.8054 F   0  0  0  0  0  0
    8.1692   56.0991   17.4338 C   0  0  0  0  0  0
    8.7752   57.2865   17.4842 F   0  0  0  0  0  0
    9.0698   55.1739   17.1052 F   0  0  0  0  0  0
    7.2456   56.1488   16.4720 F   0  0  0  0  0  0
    4.7728   54.4333   20.1767 H   0  0  0  0  0  0
    5.7026   54.9903   18.0077 H   0  0  0  0  0  0
    9.2871   56.4311   19.8973 H   0  0  0  0  0  0
    8.3442   55.9068   22.0789 H   0  0  0  0  0  0
    3.1351   52.7555   25.4367 H   0  0  0  0  0  0
    2.7538   54.4646   25.4623 H   0  0  0  0  0  0
    5.8642   53.8618   28.2112 H   0  0  0  0  0  0
    5.8365   52.6532   26.9051 H   0  0  0  0  0  0
    6.1844   55.6962   26.6649 H   0  0  0  0  0  0
    7.4070   54.4927   26.3804 H   0  0  0  0  0  0
    1.4265   54.1715   26.9286 H   0  0  0  0  0  0
    1.4014   54.6330   28.5402 H   0  0  0  0  0  0
   -0.8438   53.0681   27.0392 H   0  0  0  0  0  0
   -1.0189   51.5867   27.8775 H   0  0  0  0  0  0
   -0.4956   49.4735   26.8794 H   0  0  0  0  0  0
    0.8829   49.3549   22.8369 H   0  0  0  0  0  0
    1.2331   51.8099   22.8763 H   0  0  0  0  0  0
    2.1188   50.9901   27.5896 H   0  0  0  0  0  0
    2.5395   51.5290   29.0810 H   0  0  0  0  0  0
    1.7586   51.2968   28.4815 N   0  3  0  0  0  0
    1.2218   50.5419   28.8862 H   0  0  0  0  0  0
  1  6  2  0  0  0
  1  2  1  0  0  0
  1 34  1  0  0  0
  2  3  2  0  0  0
  2 35  1  0  0  0
  3  4  1  0  0  0
  3 30  1  0  0  0
  4  5  2  0  0  0
  4 36  1  0  0  0
  5  6  1  0  0  0
  5 37  1  0  0  0
  6  7  1  0  0  0
  7 11  1  0  0  0
  7  8  2  0  0  0
  8  9  1  0  0  0
  9 15  1  0  0  0
  9 10  2  0  0  0
 10 11  1  0  0  0
 10 12  1  0  0  0
 12 13  1  0  0  0
 12 38  1  0  0  0
 12 39  1  0  0  0
 13 14  1  0  0  0
 13 16  1  0  0  0
 14 15  1  0  0  0
 14 40  1  0  0  0
 14 41  1  0  0  0
 15 42  1  0  0  0
 15 43  1  0  0  0
 16 17  2  0  0  0
 16 18  1  0  0  0
 18 19  1  0  0  0
 18 44  1  0  0  0
 18 45  1  0  0  0
 19 20  1  0  0  0
 19 21  1  0  0  0
 19 53  1  0  0  0
 21 22  1  0  0  0
 21 46  1  0  0  0
 21 47  1  0  0  0
 22 27  2  0  0  0
 22 23  1  0  0  0
 23 24  2  0  0  0
 23 48  1  0  0  0
 24 25  1  0  0  0
 24 29  1  0  0  0
 25 26  2  0  0  0
 25 49  1  0  0  0
 26 27  1  0  0  0
 26 50  1  0  0  0
 27 28  1  0  0  0
 30 31  1  0  0  0
 30 32  1  0  0  0
 30 33  1  0  0  0
 51 53  1  0  0  0
 52 53  1  0  0  0
 53 54  1  0  0  0
M  CHG  1  53   1
M  END
> <i_i_glide_confnum>
34

> <i_i_glide_lignum>
3462

> <i_i_glide_posenum>
179

> <i_i_glide_rotatable_bonds>
7

> <i_m_Source_File_Index>
3447

> <b_m_subgroup_collapsed>
0

> <r_i_docking_score>
-6.07115

> <r_i_glide_ecoul>
-2.01821

> <r_i_glide_eff_state_penalty>
0

> <r_i_glide_einternal>
8.63588

> <r_i_glide_emodel>
-57.4547

> <r_i_glide_energy>
-43.6826

> <r_i_glide_erotb>
0.435872

> <r_i_glide_esite>
-0.0704554

> <r_i_glide_evdw>
-41.6644

> <r_i_glide_gscore>
-6.07115

> <r_i_glide_hbond>
0

> <r_i_glide_ligand_efficiency>
-0.183974

> <r_i_glide_ligand_efficiency_ln>
-1.35019

> <r_i_glide_ligand_efficiency_sa>
-0.590104

> <r_i_glide_lipo>
-3.10968

> <r_i_glide_metal>
0

> <r_i_glide_rewards>
-0.940937

> <s_i_glide_gridfile>
wee1_glide-grid

> <s_m_Source_File>
wee1_decoys_glide_SP.sdf

> <s_m_Source_Path>
/Users/zhangxujun/Desktop

> <s_m_entry_id>
3722

> <s_m_entry_name>
wee1_decoys_glide_SP.3447

> <s_m_subgroup_title>
wee1_decoys_glide_SP

> <s_m_subgroupid>
wee1_decoys_glide_SP


$$$$
