ZINC15666033_4326
                    3D
 Schrodinger Suite 2024-2.
 47 49  0  0  1  0            999 V2000
   -0.2931   50.1392   21.6951 C   0  0  0  0  0  0
   -1.0212   49.4730   22.8545 C   0  0  0  0  0  0
   -1.2193   48.0888   22.8021 C   0  0  0  0  0  0
   -1.8369   47.4110   23.8513 C   0  0  0  0  0  0
   -2.2721   48.1227   24.9733 C   0  0  0  0  0  0
   -2.0886   49.5031   25.0277 C   0  0  0  0  0  0
   -1.4857   50.1935   23.9730 C   0  0  0  0  0  0
   -1.4048   51.9909   24.0824 S   0  0  0  0  0  0
   -1.6779   52.5031   22.7361 O   0  0  0  0  0  0
   -2.2215   52.4354   25.2184 O   0  0  0  0  0  0
    0.2826   52.4038   24.4471 N   0  0  0  0  0  0
    0.8267   52.4380   25.7409 C   0  0  0  0  0  0
    1.9254   53.2681   25.9708 C   0  0  0  0  0  0
    2.5318   53.2990   27.2270 C   0  0  0  0  0  0
    2.0346   52.5018   28.2563 C   0  0  0  0  0  0
    0.9263   51.6869   28.0410 C   0  0  0  0  0  0
    0.3271   51.6504   26.7843 C   0  0  0  0  0  0
    2.8836   52.5081   29.9613 Br  0  0  0  0  0  0
   -2.8951   47.5450   26.0820 N   0  0  0  0  0  0
   -3.7362   46.4949   26.1268 C   0  0  0  0  0  0
   -3.9074   45.6970   25.2025 O   0  0  0  0  0  0
   -4.5178   46.4237   27.3457 C   0  0  0  0  0  0
   -4.4955   47.3083   28.4439 C   0  0  0  0  0  0
   -5.4530   46.8966   29.3484 C   0  0  0  0  0  0
   -6.0556   45.7803   28.8733 O   0  0  0  0  0  0
   -5.4902   45.4738   27.6741 C   0  0  0  0  0  0
   -6.0178   44.2204   27.0111 C   0  0  0  0  0  0
   -5.9177   47.3976   30.6932 C   0  0  0  0  0  0
   -0.9983   50.6579   21.0432 H   0  0  0  0  0  0
    0.4325   50.8666   22.0613 H   0  0  0  0  0  0
    0.2702   49.4165   21.1001 H   0  0  0  0  0  0
   -0.8925   47.5246   21.9417 H   0  0  0  0  0  0
   -1.9601   46.3414   23.7873 H   0  0  0  0  0  0
   -2.4495   50.0439   25.8909 H   0  0  0  0  0  0
    0.8149   52.8084   23.6921 H   0  0  0  0  0  0
    2.3260   53.8811   25.1768 H   0  0  0  0  0  0
    3.3916   53.9298   27.3968 H   0  0  0  0  0  0
    0.5408   51.0676   28.8389 H   0  0  0  0  0  0
   -0.5105   50.9902   26.6380 H   0  0  0  0  0  0
   -2.7446   48.0419   26.9569 H   0  0  0  0  0  0
   -3.8493   48.1666   28.5753 H   0  0  0  0  0  0
   -6.0880   44.3321   25.9273 H   0  0  0  0  0  0
   -5.3653   43.3664   27.2074 H   0  0  0  0  0  0
   -7.0150   43.9553   27.3670 H   0  0  0  0  0  0
   -5.3871   48.3028   30.9878 H   0  0  0  0  0  0
   -5.7516   46.6578   31.4761 H   0  0  0  0  0  0
   -6.9809   47.6344   30.6882 H   0  0  0  0  0  0
  1  2  1  0  0  0
  1 29  1  0  0  0
  1 30  1  0  0  0
  1 31  1  0  0  0
  2  7  2  0  0  0
  2  3  1  0  0  0
  3  4  2  0  0  0
  3 32  1  0  0  0
  4  5  1  0  0  0
  4 33  1  0  0  0
  5  6  2  0  0  0
  5 19  1  0  0  0
  6  7  1  0  0  0
  6 34  1  0  0  0
  7  8  1  0  0  0
  8  9  2  0  0  0
  8 10  2  0  0  0
  8 11  1  0  0  0
 11 12  1  0  0  0
 11 35  1  0  0  0
 12 17  2  0  0  0
 12 13  1  0  0  0
 13 14  2  0  0  0
 13 36  1  0  0  0
 14 15  1  0  0  0
 14 37  1  0  0  0
 15 16  2  0  0  0
 15 18  1  0  0  0
 16 17  1  0  0  0
 16 38  1  0  0  0
 17 39  1  0  0  0
 19 20  1  0  0  0
 19 40  1  0  0  0
 20 21  2  0  0  0
 20 22  1  0  0  0
 22 26  2  0  0  0
 22 23  1  0  0  0
 23 24  2  0  0  0
 23 41  1  0  0  0
 24 25  1  0  0  0
 24 28  1  0  0  0
 25 26  1  0  0  0
 26 27  1  0  0  0
 27 42  1  0  0  0
 27 43  1  0  0  0
 27 44  1  0  0  0
 28 45  1  0  0  0
 28 46  1  0  0  0
 28 47  1  0  0  0
M  END
> <i_i_glide_confnum>
42

> <i_i_glide_lignum>
4327

> <i_i_glide_posenum>
311

> <i_i_glide_rotatable_bonds>
6

> <i_m_Source_File_Index>
1121

> <b_m_subgroup_collapsed>
0

> <r_i_docking_score>
-4.0567

> <r_i_glide_ecoul>
-10.2079

> <r_i_glide_eff_state_penalty>
0

> <r_i_glide_einternal>
4.93417

> <r_i_glide_emodel>
-52.2753

> <r_i_glide_energy>
-43.2026

> <r_i_glide_erotb>
0.563167

> <r_i_glide_esite>
-0.17364

> <r_i_glide_evdw>
-32.9947

> <r_i_glide_gscore>
-4.0567

> <r_i_glide_hbond>
-0.460278

> <r_i_glide_ligand_efficiency>
-0.144882

> <r_i_glide_ligand_efficiency_ln>
-0.936405

> <r_i_glide_ligand_efficiency_sa>
-0.439947

> <r_i_glide_lipo>
-0.808396

> <r_i_glide_metal>
0

> <r_i_glide_rewards>
0.00337098

> <s_i_glide_gridfile>
wee1_glide-grid

> <s_m_Source_File>
wee1_decoys_glide_SP.sdf

> <s_m_Source_Path>
/Users/zhangxujun/Desktop

> <s_m_entry_id>
1396

> <s_m_entry_name>
wee1_decoys_glide_SP.1121

> <s_m_subgroup_title>
wee1_decoys_glide_SP

> <s_m_subgroupid>
wee1_decoys_glide_SP


$$$$
