ZINC30983042_4835
                    3D
 Schrodinger Suite 2024-2.
 62 66  0  0  1  0            999 V2000
    0.0419   52.8175   29.7927 C   0  0  0  0  0  0
    0.0881   51.8314   28.8097 C   0  0  0  0  0  0
    0.8220   52.0498   27.6464 C   0  0  0  0  0  0
    1.5258   53.2499   27.4674 C   0  0  0  0  0  0
    1.4256   54.2566   28.4419 C   0  0  0  0  0  0
    0.7014   54.0315   29.6105 C   0  0  0  0  0  0
    2.3095   53.4622   26.2025 C   0  0  0  0  0  0
    1.7788   53.1444   25.1343 O   0  0  0  0  0  0
    3.7557   53.9469   26.2418 C   0  0  0  0  0  0
    4.3899   54.0642   27.4979 C   0  0  0  0  0  0
    5.7124   54.4709   27.6222 C   0  0  0  0  0  0
    6.4456   54.7780   26.4899 C   0  0  0  0  0  0
    5.8668   54.6601   25.2330 C   0  0  0  0  0  0
    4.5399   54.2101   25.0776 C   0  0  0  0  0  0
    3.9980   53.9840   23.7833 N   0  0  0  0  0  0
    4.6347   53.6969   22.6193 C   0  0  0  0  0  0
    5.8598   53.6713   22.4851 O   0  0  0  0  0  0
    3.7384   53.3163   21.4124 C   0  0  2  0  0  0
    3.3027   51.8360   21.5516 C   0  0  0  0  0  0
    2.3765   51.4424   20.3774 C   0  0  0  0  0  0
    3.1047   51.6997   19.0337 N   0  3  2  0  0  0
    3.5803   53.1701   18.8985 C   0  0  0  0  0  0
    4.5050   53.5142   20.0764 C   0  0  0  0  0  0
    2.2630   51.2448   17.8107 C   0  0  0  0  0  0
    1.0325   52.1121   17.6118 C   0  0  0  0  0  0
    0.9780   53.2886   17.0516 N   0  0  0  0  0  0
   -0.2641   53.6609   17.2917 C   0  0  0  0  0  0
   -1.0203   52.7691   17.9036 N   0  0  0  0  0  0
   -0.1457   51.7105   18.1468 O   0  0  0  0  0  0
   -0.7577   55.0319   16.9383 C   0  0  0  0  0  0
   -2.1267   55.2838   16.7810 C   0  0  0  0  0  0
   -2.5743   56.5681   16.4817 C   0  0  0  0  0  0
   -1.6589   57.6059   16.3369 C   0  0  0  0  0  0
   -0.2969   57.3668   16.4809 C   0  0  0  0  0  0
    0.1535   56.0861   16.7813 C   0  0  0  0  0  0
   -2.0970   58.8547   16.0604 F   0  0  0  0  0  0
   -0.5186   52.6381   30.7014 H   0  0  0  0  0  0
   -0.4407   50.8981   28.9493 H   0  0  0  0  0  0
    0.8488   51.2706   26.8961 H   0  0  0  0  0  0
    1.9148   55.2121   28.3084 H   0  0  0  0  0  0
    0.6461   54.7990   30.3702 H   0  0  0  0  0  0
    3.8929   53.8054   28.4187 H   0  0  0  0  0  0
    6.1753   54.5433   28.5968 H   0  0  0  0  0  0
    7.4716   55.0852   26.5940 H   0  0  0  0  0  0
    6.4843   54.9154   24.3864 H   0  0  0  0  0  0
    2.9954   53.8478   23.7929 H   0  0  0  0  0  0
    2.8812   53.9905   21.4744 H   0  0  0  0  0  0
    4.1582   51.1583   21.5069 H   0  0  0  0  0  0
    2.7156   51.6742   22.4598 H   0  0  0  0  0  0
    1.4462   52.0136   20.3652 H   0  0  0  0  0  0
    2.1567   50.3729   20.4128 H   0  0  0  0  0  0
    2.7080   53.8210   18.8794 H   0  0  0  0  0  0
    4.1215   53.2351   17.9517 H   0  0  0  0  0  0
    4.8018   54.5559   19.9354 H   0  0  0  0  0  0
    5.3623   52.8409   19.9921 H   0  0  0  0  0  0
    2.9562   51.2960   16.9673 H   0  0  0  0  0  0
    2.0449   50.1864   17.9604 H   0  0  0  0  0  0
   -2.8478   54.4867   16.8851 H   0  0  0  0  0  0
   -3.6300   56.7618   16.3603 H   0  0  0  0  0  0
    0.4060   58.1796   16.3749 H   0  0  0  0  0  0
    1.2149   55.9234   16.9048 H   0  0  0  0  0  0
    3.9545   51.1308   18.9956 H   0  0  0  0  0  0
  1  6  2  0  0  0
  1  2  1  0  0  0
  1 37  1  0  0  0
  2  3  2  0  0  0
  2 38  1  0  0  0
  3  4  1  0  0  0
  3 39  1  0  0  0
  4  5  2  0  0  0
  4  7  1  0  0  0
  5  6  1  0  0  0
  5 40  1  0  0  0
  6 41  1  0  0  0
  7  8  2  0  0  0
  7  9  1  0  0  0
  9 14  2  0  0  0
  9 10  1  0  0  0
 10 11  2  0  0  0
 10 42  1  0  0  0
 11 12  1  0  0  0
 11 43  1  0  0  0
 12 13  2  0  0  0
 12 44  1  0  0  0
 13 14  1  0  0  0
 13 45  1  0  0  0
 14 15  1  0  0  0
 15 16  1  0  0  0
 15 46  1  0  0  0
 16 17  2  0  0  0
 16 18  1  0  0  0
 18 23  1  0  0  0
 18 19  1  0  0  0
 18 47  1  0  0  0
 19 20  1  0  0  0
 19 48  1  0  0  0
 19 49  1  0  0  0
 20 21  1  0  0  0
 20 50  1  0  0  0
 20 51  1  0  0  0
 21 22  1  0  0  0
 21 24  1  0  0  0
 21 62  1  0  0  0
 22 23  1  0  0  0
 22 52  1  0  0  0
 22 53  1  0  0  0
 23 54  1  0  0  0
 23 55  1  0  0  0
 24 25  1  0  0  0
 24 56  1  0  0  0
 24 57  1  0  0  0
 25 29  1  0  0  0
 25 26  2  0  0  0
 26 27  1  0  0  0
 27 28  2  0  0  0
 27 30  1  0  0  0
 28 29  1  0  0  0
 30 35  2  0  0  0
 30 31  1  0  0  0
 31 32  2  0  0  0
 31 58  1  0  0  0
 32 33  1  0  0  0
 32 59  1  0  0  0
 33 34  2  0  0  0
 33 36  1  0  0  0
 34 35  1  0  0  0
 34 60  1  0  0  0
 35 61  1  0  0  0
M  CHG  1  21   1
M  END
> <i_i_glide_confnum>
53

> <i_i_glide_lignum>
4836

> <i_i_glide_posenum>
287

> <i_i_glide_rotatable_bonds>
8

> <i_m_Source_File_Index>
3006

> <b_m_subgroup_collapsed>
0

> <r_i_docking_score>
-5.93186

> <r_i_glide_ecoul>
-4.0877

> <r_i_glide_eff_state_penalty>
0

> <r_i_glide_einternal>
29.8894

> <r_i_glide_emodel>
-58.4464

> <r_i_glide_energy>
-51.703

> <r_i_glide_erotb>
0.689433

> <r_i_glide_esite>
-0.142752

> <r_i_glide_evdw>
-47.6153

> <r_i_glide_gscore>
-5.93186

> <r_i_glide_hbond>
-0.2

> <r_i_glide_ligand_efficiency>
-0.164774

> <r_i_glide_ligand_efficiency_ln>
-1.29417

> <r_i_glide_ligand_efficiency_sa>
-0.544071

> <r_i_glide_lipo>
-2.62092

> <r_i_glide_metal>
0

> <r_i_glide_rewards>
-0.663701

> <s_i_glide_gridfile>
wee1_glide-grid

> <s_m_Source_File>
wee1_decoys_glide_SP.sdf

> <s_m_Source_Path>
/Users/zhangxujun/Desktop

> <s_m_entry_id>
3281

> <s_m_entry_name>
wee1_decoys_glide_SP.3006

> <s_m_subgroup_title>
wee1_decoys_glide_SP

> <s_m_subgroupid>
wee1_decoys_glide_SP


$$$$
