ZINC20974596_5989
                    3D
 Schrodinger Suite 2024-2.
 41 43  0  0  1  0            999 V2000
    3.6199   53.2987   28.6118 C   0  0  0  0  0  0
    4.8745   53.9965   28.0792 C   0  0  0  0  0  0
    4.8185   54.0484   26.6586 O   0  0  0  0  0  0
    5.7775   54.6967   25.9545 C   0  0  0  0  0  0
    6.7159   55.2970   26.4815 O   0  0  0  0  0  0
    5.6012   54.6031   24.4701 C   0  0  0  0  0  0
    4.4383   54.0654   23.8885 C   0  0  0  0  0  0
    4.2970   53.9982   22.5003 C   0  0  0  0  0  0
    5.3087   54.4968   21.6842 C   0  0  0  0  0  0
    6.4455   55.0556   22.2429 C   0  0  0  0  0  0
    6.6096   55.0992   23.6265 C   0  0  0  0  0  0
    7.5044   55.6964   21.0022 S   0  0  0  0  0  0
    6.4195   55.1328   19.6819 C   0  0  0  0  0  0
    5.3333   54.5333   20.2955 N   0  0  0  0  0  0
    6.6979   55.2995   18.4459 N   0  0  0  0  0  0
    5.9168   54.9064   17.3781 C   0  0  0  0  0  0
    4.4194   55.6031   17.0332 S   0  0  0  0  0  0
    6.6320   53.9701   16.6806 N   0  0  0  0  0  0
    6.3804   53.3119   15.5228 C   0  0  0  0  0  0
    5.3721   53.4565   14.8264 O   0  0  0  0  0  0
    7.4746   52.3749   15.0612 C   0  0  0  0  0  0
    7.6534   52.1387   13.6872 C   0  0  0  0  0  0
    8.6321   51.2542   13.2344 C   0  0  0  0  0  0
    9.4382   50.5788   14.1494 C   0  0  0  0  0  0
    9.2670   50.7929   15.5176 C   0  0  0  0  0  0
    8.3035   51.6963   15.9738 C   0  0  0  0  0  0
   10.4123   49.6975   16.8821 I   0  0  0  0  0  0
    3.6440   53.2327   29.6993 H   0  0  0  0  0  0
    2.7183   53.8429   28.3297 H   0  0  0  0  0  0
    3.5351   52.2850   28.2188 H   0  0  0  0  0  0
    5.7676   53.4533   28.3945 H   0  0  0  0  0  0
    4.9415   55.0036   28.4940 H   0  0  0  0  0  0
    3.6341   53.6826   24.5019 H   0  0  0  0  0  0
    3.3986   53.5749   22.0752 H   0  0  0  0  0  0
    7.5042   55.5459   24.0385 H   0  0  0  0  0  0
    7.5257   53.7633   17.0957 H   0  0  0  0  0  0
    7.0313   52.6403   12.9565 H   0  0  0  0  0  0
    8.7603   51.0819   12.1746 H   0  0  0  0  0  0
   10.1833   49.8801   13.7952 H   0  0  0  0  0  0
    8.1789   51.8161   17.0423 H   0  0  0  0  0  0
    4.5769   54.1739   19.7313 H   0  0  0  0  0  0
  1  2  1  0  0  0
  1 28  1  0  0  0
  1 29  1  0  0  0
  1 30  1  0  0  0
  2  3  1  0  0  0
  2 31  1  0  0  0
  2 32  1  0  0  0
  3  4  1  0  0  0
  4  5  2  0  0  0
  4  6  1  0  0  0
  6 11  2  0  0  0
  6  7  1  0  0  0
  7  8  2  0  0  0
  7 33  1  0  0  0
  8  9  1  0  0  0
  8 34  1  0  0  0
  9 14  1  0  0  0
  9 10  2  0  0  0
 10 11  1  0  0  0
 10 12  1  0  0  0
 11 35  1  0  0  0
 12 13  1  0  0  0
 13 14  1  0  0  0
 13 15  2  0  0  0
 14 41  1  0  0  0
 15 16  1  0  0  0
 16 17  2  0  0  0
 16 18  1  0  0  0
 18 19  1  0  0  0
 18 36  1  0  0  0
 19 20  2  0  0  0
 19 21  1  0  0  0
 21 26  2  0  0  0
 21 22  1  0  0  0
 22 23  2  0  0  0
 22 37  1  0  0  0
 23 24  1  0  0  0
 23 38  1  0  0  0
 24 25  2  0  0  0
 24 39  1  0  0  0
 25 26  1  0  0  0
 25 27  1  0  0  0
 26 40  1  0  0  0
M  END
> <i_i_glide_confnum>
12

> <i_i_glide_lignum>
5990

> <i_i_glide_posenum>
68

> <i_i_glide_rotatable_bonds>
7

> <i_m_Source_File_Index>
771

> <b_m_subgroup_collapsed>
0

> <r_i_docking_score>
-6.1891

> <r_i_glide_ecoul>
-2.6151

> <r_i_glide_eff_state_penalty>
0

> <r_i_glide_einternal>
5.40165

> <r_i_glide_emodel>
-62.5518

> <r_i_glide_energy>
-45.6787

> <r_i_glide_erotb>
0.391845

> <r_i_glide_esite>
-0.0139592

> <r_i_glide_evdw>
-43.0636

> <r_i_glide_gscore>
-6.1891

> <r_i_glide_hbond>
-0.32

> <r_i_glide_ligand_efficiency>
-0.229226

> <r_i_glide_ligand_efficiency_ln>
-1.44072

> <r_i_glide_ligand_efficiency_sa>
-0.687677

> <r_i_glide_lipo>
-2.63928

> <r_i_glide_metal>
0

> <r_i_glide_rewards>
-1.06225

> <s_i_glide_gridfile>
wee1_glide-grid

> <s_m_Source_File>
wee1_decoys_glide_SP.sdf

> <s_m_Source_Path>
/Users/zhangxujun/Desktop

> <s_m_entry_id>
1046

> <s_m_entry_name>
wee1_decoys_glide_SP.771

> <s_m_subgroup_title>
wee1_decoys_glide_SP

> <s_m_subgroupid>
wee1_decoys_glide_SP


$$$$
