ZINC40156282_4905
                    3D
 Schrodinger Suite 2024-2.
 60 63  0  0  1  0            999 V2000
    1.0309   54.8687   30.2900 C   0  0  0  0  0  0
    1.1484   53.3367   30.4400 C   0  0  0  0  0  0
   -0.1665   52.7638   30.9810 C   0  0  0  0  0  0
    1.6310   52.5729   29.1624 C   0  0  2  0  0  0
    1.8242   51.5437   29.4712 H   0  0  0  0  0  0
    3.0201   53.1268   28.7368 C   0  0  0  0  0  0
    3.9139   53.1079   29.5844 O   0  0  0  0  0  0
    3.1676   53.5699   27.4693 N   0  0  0  0  0  0
    4.3274   54.0622   26.8360 C   0  0  0  0  0  0
    5.4892   54.4846   27.5042 C   0  0  0  0  0  0
    6.6107   54.8821   26.7790 C   0  0  0  0  0  0
    6.5885   54.8630   25.3844 C   0  0  0  0  0  0
    5.4363   54.4629   24.6998 C   0  0  0  0  0  0
    4.3031   54.0967   25.4385 C   0  0  0  0  0  0
    5.4416   54.3887   23.2063 C   0  0  0  0  0  0
    6.3309   54.8968   22.2592 C   0  0  0  0  0  0
    5.9032   54.5573   20.9816 N   0  0  0  0  0  0
    4.7217   53.8471   21.1153 C   0  0  0  0  0  0
    4.4660   53.7409   22.4618 N   0  3  0  0  0  0
    3.9545   53.1973   19.9747 C   0  0  0  0  0  0
    4.4161   53.8426   18.6485 C   0  0  0  0  0  0
    5.9496   54.0099   18.5808 C   0  0  0  0  0  0
    6.5032   54.9347   19.6976 C   0  0  0  0  0  0
    0.5831   52.5205   28.1171 N   0  0  0  0  0  0
    0.3656   51.4715   27.2961 C   0  0  0  0  0  0
    1.1044   50.4968   27.2816 O   0  0  0  0  0  0
   -0.8358   51.5005   26.3783 C   0  0  0  0  0  0
   -1.0107   50.4819   25.4280 C   0  0  0  0  0  0
   -2.1263   50.4713   24.5957 C   0  0  0  0  0  0
   -3.0807   51.4784   24.7094 C   0  0  0  0  0  0
   -2.9251   52.4945   25.6489 C   0  0  0  0  0  0
   -1.8085   52.4980   26.4808 C   0  0  0  0  0  0
   -4.4660   51.4646   23.6819 Cl  0  0  0  0  0  0
    0.3064   55.1151   29.5178 H   0  0  0  0  0  0
    0.6965   55.3295   31.2199 H   0  0  0  0  0  0
    1.9781   55.3390   30.0267 H   0  0  0  0  0  0
    1.8766   53.1525   31.2315 H   0  0  0  0  0  0
   -0.9603   52.8317   30.2418 H   0  0  0  0  0  0
   -0.0658   51.7125   31.2501 H   0  0  0  0  0  0
   -0.4954   53.2987   31.8730 H   0  0  0  0  0  0
    2.3605   53.4660   26.8757 H   0  0  0  0  0  0
    5.5547   54.5022   28.5811 H   0  0  0  0  0  0
    7.5034   55.1792   27.3103 H   0  0  0  0  0  0
    7.4791   55.1402   24.8381 H   0  0  0  0  0  0
    3.4094   53.7773   24.9241 H   0  0  0  0  0  0
    7.2421   55.4663   22.3882 H   0  0  0  0  0  0
    4.1686   52.1274   19.9477 H   0  0  0  0  0  0
    2.8747   53.2967   20.0955 H   0  0  0  0  0  0
    3.9357   54.8162   18.5259 H   0  0  0  0  0  0
    4.0708   53.2306   17.8118 H   0  0  0  0  0  0
    6.2367   54.4044   17.6040 H   0  0  0  0  0  0
    6.4177   53.0250   18.6437 H   0  0  0  0  0  0
    6.2347   55.9732   19.4962 H   0  0  0  0  0  0
    7.5925   54.8832   19.7644 H   0  0  0  0  0  0
   -0.0579   53.2961   28.1025 H   0  0  0  0  0  0
   -0.2896   49.6793   25.3389 H   0  0  0  0  0  0
   -2.2533   49.6785   23.8731 H   0  0  0  0  0  0
   -3.6679   53.2741   25.7341 H   0  0  0  0  0  0
   -1.6958   53.2982   27.1946 H   0  0  0  0  0  0
    3.6765   53.2477   22.8519 H   0  0  0  0  0  0
  1  2  1  0  0  0
  1 34  1  0  0  0
  1 35  1  0  0  0
  1 36  1  0  0  0
  2  3  1  0  0  0
  2  4  1  0  0  0
  2 37  1  0  0  0
  3 38  1  0  0  0
  3 39  1  0  0  0
  3 40  1  0  0  0
  4  5  1  0  0  0
  4  6  1  0  0  0
  4 24  1  0  0  0
  6  7  2  0  0  0
  6  8  1  0  0  0
  8  9  1  0  0  0
  8 41  1  0  0  0
  9 14  2  0  0  0
  9 10  1  0  0  0
 10 11  2  0  0  0
 10 42  1  0  0  0
 11 12  1  0  0  0
 11 43  1  0  0  0
 12 13  2  0  0  0
 12 44  1  0  0  0
 13 14  1  0  0  0
 13 15  1  0  0  0
 14 45  1  0  0  0
 15 19  1  0  0  0
 15 16  2  0  0  0
 16 17  1  0  0  0
 16 46  1  0  0  0
 17 23  1  0  0  0
 17 18  1  0  0  0
 18 19  2  0  0  0
 18 20  1  0  0  0
 19 60  1  0  0  0
 20 21  1  0  0  0
 20 47  1  0  0  0
 20 48  1  0  0  0
 21 22  1  0  0  0
 21 49  1  0  0  0
 21 50  1  0  0  0
 22 23  1  0  0  0
 22 51  1  0  0  0
 22 52  1  0  0  0
 23 53  1  0  0  0
 23 54  1  0  0  0
 24 25  1  0  0  0
 24 55  1  0  0  0
 25 26  2  0  0  0
 25 27  1  0  0  0
 27 32  2  0  0  0
 27 28  1  0  0  0
 28 29  2  0  0  0
 28 56  1  0  0  0
 29 30  1  0  0  0
 29 57  1  0  0  0
 30 31  2  0  0  0
 30 33  1  0  0  0
 31 32  1  0  0  0
 31 58  1  0  0  0
 32 59  1  0  0  0
M  CHG  1  19   1
M  END
> <i_i_glide_confnum>
198

> <i_i_glide_lignum>
4906

> <i_i_glide_posenum>
41

> <i_i_glide_rotatable_bonds>
8

> <i_m_Source_File_Index>
5442

> <b_m_subgroup_collapsed>
0

> <r_i_docking_score>
-5.62417

> <r_i_glide_ecoul>
-0.976159

> <r_i_glide_eff_state_penalty>
0

> <r_i_glide_einternal>
5.62561

> <r_i_glide_emodel>
-59.5597

> <r_i_glide_energy>
-44.6748

> <r_i_glide_erotb>
0.589244

> <r_i_glide_esite>
-0.0148727

> <r_i_glide_evdw>
-43.6987

> <r_i_glide_gscore>
-5.62417

> <r_i_glide_hbond>
0

> <r_i_glide_ligand_efficiency>
-0.175755

> <r_i_glide_ligand_efficiency_ln>
-1.25941

> <r_i_glide_ligand_efficiency_sa>
-0.557989

> <r_i_glide_lipo>
-2.85715

> <r_i_glide_metal>
0

> <r_i_glide_rewards>
-1.01004

> <s_i_glide_gridfile>
wee1_glide-grid

> <s_m_Source_File>
wee1_decoys_glide_SP.sdf

> <s_m_Source_Path>
/Users/zhangxujun/Desktop

> <s_m_entry_id>
5717

> <s_m_entry_name>
wee1_decoys_glide_SP.5442

> <s_m_subgroup_title>
wee1_decoys_glide_SP

> <s_m_subgroupid>
wee1_decoys_glide_SP


$$$$
