ZINC27550481_2111
                    3D
 Schrodinger Suite 2024-2.
 56 59  0  0  1  0            999 V2000
   -2.7397   51.0638   27.2096 C   0  0  0  0  0  0
   -2.1431   51.1770   25.8285 C   0  0  0  0  0  0
   -0.9013   50.7697   25.3606 C   0  0  0  0  0  0
   -0.6382   51.0448   24.0072 C   0  0  0  0  0  0
   -1.7393   51.6519   23.3909 C   0  0  0  0  0  0
   -3.0268   51.8986   24.5302 S   0  0  0  0  0  0
   -1.9136   52.0857   21.9542 C   0  0  0  0  0  0
    0.6971   50.7242   23.3190 C   0  0  2  0  0  0
    1.2339   49.9780   23.9101 H   0  0  0  0  0  0
    1.5633   51.9853   23.3090 C   0  0  0  0  0  0
    2.1083   52.4853   22.1813 C   0  0  0  0  0  0
    1.9708   51.8514   20.9325 N   0  0  0  0  0  0
    1.1469   50.7117   20.7931 C   0  0  0  0  0  0
    0.5691   50.1227   21.8904 C   0  0  0  0  0  0
   -0.2664   48.8972   21.7632 C   0  0  0  0  0  0
   -0.8905   48.4101   22.7061 O   0  0  0  0  0  0
   -0.4269   48.2892   20.3629 C   0  0  0  0  0  0
    0.7680   48.5624   19.4210 C   0  0  0  0  0  0
    0.9871   50.0899   19.3808 C   0  0  0  0  0  0
    0.3754   48.0843   18.0061 C   0  0  0  0  0  0
    2.0454   47.8699   19.9356 C   0  0  0  0  0  0
    2.6217   52.4036   19.7883 C   0  0  0  0  0  0
    1.8415   52.8967   18.7335 C   0  0  0  0  0  0
    2.4097   53.5289   17.6194 C   0  0  0  0  0  0
    3.8028   53.6480   17.5632 C   0  0  0  0  0  0
    4.5987   53.1403   18.5862 C   0  0  0  0  0  0
    4.0245   52.4966   19.6828 C   0  0  0  0  0  0
    5.0893   51.8273   20.8796 Cl  0  0  0  0  0  0
    1.5517   54.0790   16.5434 N   0  3  0  0  0  0
    2.0899   54.6196   15.5821 O   0  0  0  0  0  0
    0.3327   53.9778   16.6573 O   0  5  0  0  0  0
    2.7668   53.6974   22.1940 N   0  0  0  0  0  0
    1.7065   52.7006   24.5424 C   0  0  0  0  0  0
    1.8540   53.2964   25.5240 N   0  0  0  0  0  0
   -2.0418   50.6235   27.9218 H   0  0  0  0  0  0
   -3.6276   50.4328   27.2122 H   0  0  0  0  0  0
   -3.0311   52.0372   27.6037 H   0  0  0  0  0  0
   -0.1803   50.2883   26.0061 H   0  0  0  0  0  0
   -1.8370   51.2487   21.2618 H   0  0  0  0  0  0
   -2.8955   52.5061   21.7788 H   0  0  0  0  0  0
   -1.1658   52.8189   21.6595 H   0  0  0  0  0  0
   -1.3152   48.7637   19.9443 H   0  0  0  0  0  0
   -0.6537   47.2260   20.4556 H   0  0  0  0  0  0
    0.1756   50.6117   18.8713 H   0  0  0  0  0  0
    1.8991   50.1955   18.7890 H   0  0  0  0  0  0
    0.1880   47.0103   17.9876 H   0  0  0  0  0  0
   -0.5250   48.5794   17.6394 H   0  0  0  0  0  0
    1.1724   48.2841   17.2870 H   0  0  0  0  0  0
    1.9031   46.7938   19.9924 H   0  0  0  0  0  0
    2.8836   48.0484   19.2600 H   0  0  0  0  0  0
    2.3606   48.2083   20.9234 H   0  0  0  0  0  0
    0.7664   52.8417   18.8182 H   0  0  0  0  0  0
    4.2809   54.1272   16.7205 H   0  0  0  0  0  0
    5.6741   53.2046   18.5054 H   0  0  0  0  0  0
    2.9237   54.1750   23.0689 H   0  0  0  0  0  0
    2.7560   54.2731   21.3594 H   0  0  0  0  0  0
  1  2  1  0  0  0
  1 35  1  0  0  0
  1 36  1  0  0  0
  1 37  1  0  0  0
  2  6  1  0  0  0
  2  3  2  0  0  0
  3  4  1  0  0  0
  3 38  1  0  0  0
  4  5  2  0  0  0
  4  8  1  0  0  0
  5  6  1  0  0  0
  5  7  1  0  0  0
  7 39  1  0  0  0
  7 40  1  0  0  0
  7 41  1  0  0  0
  8  9  1  0  0  0
  8 14  1  0  0  0
  8 10  1  0  0  0
 10 11  2  0  0  0
 10 33  1  0  0  0
 11 12  1  0  0  0
 11 32  1  0  0  0
 12 13  1  0  0  0
 12 22  1  0  0  0
 13 19  1  0  0  0
 13 14  2  0  0  0
 14 15  1  0  0  0
 15 16  2  0  0  0
 15 17  1  0  0  0
 17 18  1  0  0  0
 17 42  1  0  0  0
 17 43  1  0  0  0
 18 19  1  0  0  0
 18 20  1  0  0  0
 18 21  1  0  0  0
 19 44  1  0  0  0
 19 45  1  0  0  0
 20 46  1  0  0  0
 20 47  1  0  0  0
 20 48  1  0  0  0
 21 49  1  0  0  0
 21 50  1  0  0  0
 21 51  1  0  0  0
 22 27  2  0  0  0
 22 23  1  0  0  0
 23 24  2  0  0  0
 23 52  1  0  0  0
 24 25  1  0  0  0
 24 29  1  0  0  0
 25 26  2  0  0  0
 25 53  1  0  0  0
 26 27  1  0  0  0
 26 54  1  0  0  0
 27 28  1  0  0  0
 29 30  2  0  0  0
 29 31  1  0  0  0
 32 55  1  0  0  0
 32 56  1  0  0  0
 33 34  3  0  0  0
M  CHG  2  29   1  31  -1
M  END
> <i_i_glide_confnum>
2

> <i_i_glide_lignum>
2112

> <i_i_glide_posenum>
367

> <i_i_glide_rotatable_bonds>
4

> <i_m_Source_File_Index>
2976

> <b_m_subgroup_collapsed>
0

> <r_i_docking_score>
-2.65122

> <r_i_glide_ecoul>
-3.25855

> <r_i_glide_eff_state_penalty>
0

> <r_i_glide_einternal>
4.36968

> <r_i_glide_emodel>
-34.8879

> <r_i_glide_energy>
-31.5344

> <r_i_glide_erotb>
0.174024

> <r_i_glide_esite>
-0.0106117

> <r_i_glide_evdw>
-28.2759

> <r_i_glide_gscore>
-2.65122

> <r_i_glide_hbond>
-0.22569

> <r_i_glide_ligand_efficiency>
-0.0803399

> <r_i_glide_ligand_efficiency_ln>
-0.589617

> <r_i_glide_ligand_efficiency_sa>
-0.257693

> <r_i_glide_lipo>
-0.311359

> <r_i_glide_metal>
0

> <r_i_glide_rewards>
-0.375002

> <s_i_glide_gridfile>
wee1_glide-grid

> <s_m_Source_File>
wee1_decoys_glide_SP.sdf

> <s_m_Source_Path>
/Users/zhangxujun/Desktop

> <s_m_entry_id>
3251

> <s_m_entry_name>
wee1_decoys_glide_SP.2976

> <s_m_subgroup_title>
wee1_decoys_glide_SP

> <s_m_subgroupid>
wee1_decoys_glide_SP


$$$$
