ZINC25864982_6188
                    3D
 Schrodinger Suite 2024-2.
 47 48  0  0  1  0            999 V2000
    4.1220   53.4009   17.9565 C   0  0  0  0  0  0
    5.1776   53.6476   19.0528 C   0  0  1  0  0  0
    6.0406   53.0106   18.8542 H   0  0  0  0  0  0
    5.6168   55.1295   19.0668 C   0  0  0  0  0  0
    6.5912   55.3889   20.0756 O   0  0  0  0  0  0
    7.9349   55.1585   19.6673 C   0  0  0  0  0  0
    4.7047   53.2545   20.3879 N   0  3  0  0  0  0
    3.8870   52.2460   20.6891 C   0  0  0  0  0  0
    3.9044   51.0694   20.0817 N   0  0  0  0  0  0
    2.6658   52.4413   21.9099 S   0  0  0  0  0  0
    2.8934   54.0968   22.6307 C   0  0  0  0  0  0
    3.6867   54.0967   23.9337 C   0  0  0  0  0  0
    4.9769   54.4967   23.9842 C   0  0  0  0  0  0
    5.7132   54.6233   25.2491 C   0  0  0  0  0  0
    6.8800   54.9819   25.3916 O   0  0  0  0  0  0
    5.0120   54.3451   26.4086 O   0  0  0  0  0  0
    3.7013   53.8890   26.3835 C   0  0  0  0  0  0
    2.9837   53.7399   25.1877 C   0  0  0  0  0  0
    1.6817   53.2254   25.2420 C   0  0  0  0  0  0
    1.1051   52.8918   26.4670 C   0  0  0  0  0  0
    1.8067   53.0732   27.6614 C   0  0  0  0  0  0
    3.1207   53.5713   27.6095 C   0  0  0  0  0  0
    1.1137   52.7369   28.8403 N   0  0  0  0  0  0
    1.5033   52.8753   30.1220 C   0  0  0  0  0  0
    2.6000   53.2967   30.4817 O   0  0  0  0  0  0
    0.4828   52.4743   31.1824 C   0  0  0  0  0  0
    4.4694   53.7672   16.9896 H   0  0  0  0  0  0
    3.9047   52.3423   17.8175 H   0  0  0  0  0  0
    3.1825   53.9087   18.1815 H   0  0  0  0  0  0
    5.9706   55.4504   18.0843 H   0  0  0  0  0  0
    4.7494   55.7548   19.2817 H   0  0  0  0  0  0
    8.6053   55.2966   20.5163 H   0  0  0  0  0  0
    8.0817   54.1487   19.2817 H   0  0  0  0  0  0
    8.2340   55.8662   18.8929 H   0  0  0  0  0  0
    4.5106   50.8967   19.2564 H   0  0  0  0  0  0
    3.2198   50.3713   20.3323 H   0  0  0  0  0  0
    1.9074   54.5247   22.8112 H   0  0  0  0  0  0
    3.3372   54.7783   21.9063 H   0  0  0  0  0  0
    5.4791   54.7814   23.0719 H   0  0  0  0  0  0
    1.1001   53.0678   24.3467 H   0  0  0  0  0  0
    0.0988   52.4971   26.4767 H   0  0  0  0  0  0
    3.7203   53.7123   28.4932 H   0  0  0  0  0  0
    0.1916   52.3543   28.6964 H   0  0  0  0  0  0
   -0.3093   51.8424   30.7775 H   0  0  0  0  0  0
    0.0198   53.3602   31.6170 H   0  0  0  0  0  0
    0.9666   51.9255   31.9908 H   0  0  0  0  0  0
    4.8224   53.9598   21.0990 H   0  0  0  0  0  0
  1  2  1  0  0  0
  1 27  1  0  0  0
  1 28  1  0  0  0
  1 29  1  0  0  0
  2  3  1  0  0  0
  2  4  1  0  0  0
  2  7  1  0  0  0
  4  5  1  0  0  0
  4 30  1  0  0  0
  4 31  1  0  0  0
  5  6  1  0  0  0
  6 32  1  0  0  0
  6 33  1  0  0  0
  6 34  1  0  0  0
  7  8  2  0  0  0
  7 47  1  0  0  0
  8  9  1  0  0  0
  8 10  1  0  0  0
  9 35  1  0  0  0
  9 36  1  0  0  0
 10 11  1  0  0  0
 11 12  1  0  0  0
 11 37  1  0  0  0
 11 38  1  0  0  0
 12 18  1  0  0  0
 12 13  2  0  0  0
 13 14  1  0  0  0
 13 39  1  0  0  0
 14 15  2  0  0  0
 14 16  1  0  0  0
 16 17  1  0  0  0
 17 22  2  0  0  0
 17 18  1  0  0  0
 18 19  2  0  0  0
 19 20  1  0  0  0
 19 40  1  0  0  0
 20 21  2  0  0  0
 20 41  1  0  0  0
 21 22  1  0  0  0
 21 23  1  0  0  0
 22 42  1  0  0  0
 23 24  1  0  0  0
 23 43  1  0  0  0
 24 25  2  0  0  0
 24 26  1  0  0  0
 26 44  1  0  0  0
 26 45  1  0  0  0
 26 46  1  0  0  0
M  CHG  1   7   1
M  END
> <i_i_glide_confnum>
18

> <i_i_glide_lignum>
6189

> <i_i_glide_posenum>
174

> <i_i_glide_rotatable_bonds>
8

> <i_m_Source_File_Index>
2492

> <b_m_subgroup_collapsed>
0

> <r_i_docking_score>
-7.27288

> <r_i_glide_ecoul>
-11.4967

> <r_i_glide_eff_state_penalty>
0

> <r_i_glide_einternal>
7.07573

> <r_i_glide_emodel>
-67.1087

> <r_i_glide_energy>
-46.3446

> <r_i_glide_erotb>
0.868483

> <r_i_glide_esite>
-0.119063

> <r_i_glide_evdw>
-34.8479

> <r_i_glide_gscore>
-7.27288

> <r_i_glide_hbond>
-0.770005

> <r_i_glide_ligand_efficiency>
-0.290915

> <r_i_glide_ligand_efficiency_ln>
-1.72389

> <r_i_glide_ligand_efficiency_sa>
-0.850642

> <r_i_glide_lipo>
-2.14712

> <r_i_glide_metal>
0

> <r_i_glide_rewards>
-1.63828

> <s_i_glide_gridfile>
wee1_glide-grid

> <s_m_Source_File>
wee1_decoys_glide_SP.sdf

> <s_m_Source_Path>
/Users/zhangxujun/Desktop

> <s_m_entry_id>
2767

> <s_m_entry_name>
wee1_decoys_glide_SP.2492

> <s_m_subgroup_title>
wee1_decoys_glide_SP

> <s_m_subgroupid>
wee1_decoys_glide_SP


$$$$
