ZINC51630720_1906
                    3D
 Schrodinger Suite 2024-2.
 36 38  0  0  1  0            999 V2000
    5.5417   54.3069   23.1695 C   0  0  0  0  0  0
    4.1706   54.0967   23.2718 C   0  0  0  0  0  0
    3.5687   54.0600   24.5271 C   0  0  0  0  0  0
    4.3218   54.2007   25.6988 C   0  0  0  0  0  0
    5.7146   54.4547   25.5923 C   0  0  0  0  0  0
    6.3006   54.4967   24.3212 C   0  0  0  0  0  0
    6.5775   54.6921   26.8370 C   0  0  0  0  0  0
    5.9584   54.0559   28.0849 C   0  0  0  0  0  0
    4.5059   54.5464   28.2065 C   0  0  1  0  0  0
    4.4532   55.6211   28.0643 H   0  0  0  0  0  0
    3.6530   53.9759   27.0619 C   0  0  0  0  0  0
    3.9327   54.2239   29.5442 N   0  0  0  0  0  0
    3.6671   52.5703   30.0817 S   0  0  0  0  0  0
    3.7013   52.4967   31.5421 O   0  0  0  0  0  0
    4.5077   51.6967   29.2817 O   0  0  0  0  0  0
    1.9550   52.3025   29.5939 C   0  0  0  0  0  0
    1.5279   51.6555   28.4402 C   0  0  0  0  0  0
    0.1405   51.5442   28.3801 C   0  0  0  0  0  0
   -0.4956   52.0967   29.4753 C   0  0  0  0  0  0
    0.6244   52.8311   30.5774 S   0  0  0  0  0  0
   -0.5215   50.8967   27.3814 N   0  0  0  0  0  0
    6.0136   54.3381   22.1984 H   0  0  0  0  0  0
    3.5752   53.9607   22.3803 H   0  0  0  0  0  0
    2.5078   53.8666   24.5919 H   0  0  0  0  0  0
    7.3615   54.6778   24.2225 H   0  0  0  0  0  0
    6.7027   55.7623   26.9934 H   0  0  0  0  0  0
    7.5734   54.2829   26.6879 H   0  0  0  0  0  0
    6.5401   54.3153   28.9693 H   0  0  0  0  0  0
    6.0219   52.9749   27.9698 H   0  0  0  0  0  0
    3.5685   52.8983   27.1717 H   0  0  0  0  0  0
    2.6422   54.3858   27.0819 H   0  0  0  0  0  0
    4.0426   54.9372   30.2665 H   0  0  0  0  0  0
    2.1896   51.2419   27.6953 H   0  0  0  0  0  0
   -1.5528   52.0918   29.6817 H   0  0  0  0  0  0
   -1.2230   50.2012   27.6338 H   0  0  0  0  0  0
   -0.0853   50.7371   26.4860 H   0  0  0  0  0  0
  1  6  2  0  0  0
  1  2  1  0  0  0
  1 22  1  0  0  0
  2  3  2  0  0  0
  2 23  1  0  0  0
  3  4  1  0  0  0
  3 24  1  0  0  0
  4 11  1  0  0  0
  4  5  2  0  0  0
  5  6  1  0  0  0
  5  7  1  0  0  0
  6 25  1  0  0  0
  7  8  1  0  0  0
  7 26  1  0  0  0
  7 27  1  0  0  0
  8  9  1  0  0  0
  8 28  1  0  0  0
  8 29  1  0  0  0
  9 10  1  0  0  0
  9 11  1  0  0  0
  9 12  1  0  0  0
 11 30  1  0  0  0
 11 31  1  0  0  0
 12 13  1  0  0  0
 12 32  1  0  0  0
 13 14  2  0  0  0
 13 15  2  0  0  0
 13 16  1  0  0  0
 16 20  1  0  0  0
 16 17  2  0  0  0
 17 18  1  0  0  0
 17 33  1  0  0  0
 18 19  2  0  0  0
 18 21  1  0  0  0
 19 20  1  0  0  0
 19 34  1  0  0  0
 21 35  1  0  0  0
 21 36  1  0  0  0
M  END
> <i_i_glide_confnum>
32

> <i_i_glide_lignum>
1907

> <i_i_glide_posenum>
221

> <i_i_glide_rotatable_bonds>
3

> <i_m_Source_File_Index>
2266

> <b_m_subgroup_collapsed>
0

> <r_i_docking_score>
-6.36423

> <r_i_glide_ecoul>
-2.06977

> <r_i_glide_eff_state_penalty>
0

> <r_i_glide_einternal>
8.08194

> <r_i_glide_emodel>
-49.7904

> <r_i_glide_energy>
-38.4168

> <r_i_glide_erotb>
0.583492

> <r_i_glide_esite>
-0.0891348

> <r_i_glide_evdw>
-36.3471

> <r_i_glide_gscore>
-6.36423

> <r_i_glide_hbond>
-0.137736

> <r_i_glide_ligand_efficiency>
-0.318211

> <r_i_glide_ligand_efficiency_ln>
-1.59276

> <r_i_glide_ligand_efficiency_sa>
-0.863759

> <r_i_glide_lipo>
-2.90108

> <r_i_glide_metal>
0

> <r_i_glide_rewards>
-1.69195

> <s_i_glide_gridfile>
wee1_glide-grid

> <s_m_Source_File>
wee1_decoys_glide_SP.sdf

> <s_m_Source_Path>
/Users/zhangxujun/Desktop

> <s_m_entry_id>
2541

> <s_m_entry_name>
wee1_decoys_glide_SP.2266

> <s_m_subgroup_title>
wee1_decoys_glide_SP

> <s_m_subgroupid>
wee1_decoys_glide_SP


$$$$
