ZINC39696056_592
                    3D
 Schrodinger Suite 2024-2.
 68 71  0  0  1  0            999 V2000
    2.7049   55.1548   29.3979 C   0  0  0  0  0  0
    3.7536   54.1400   28.9168 C   0  0  0  0  0  0
    3.8994   54.1126   27.3999 C   0  0  0  0  0  0
    2.8309   53.7020   26.6076 C   0  0  0  0  0  0
    2.9450   53.7020   25.2216 C   0  0  0  0  0  0
    4.1346   54.0958   24.5901 C   0  0  0  0  0  0
    5.2107   54.4936   25.4042 C   0  0  0  0  0  0
    5.0957   54.4972   26.7943 C   0  0  0  0  0  0
    4.2424   54.0985   23.0404 C   0  0  1  0  0  0
    3.6331   54.9399   22.7029 H   0  0  0  0  0  0
    5.6665   54.3477   22.4987 C   0  0  0  0  0  0
    3.7419   52.8969   22.3623 N   0  0  0  0  0  0
    2.4700   52.5771   22.0794 C   0  0  0  0  0  0
    1.5211   53.2971   22.3904 O   0  0  0  0  0  0
    2.2356   51.1807   21.4321 C   0  0  1  0  0  0
    3.1338   50.5724   21.5524 H   0  0  0  0  0  0
    0.9942   50.4921   22.0396 C   0  0  0  0  0  0
   -0.1113   50.9683   21.1899 N   0  0  0  0  0  0
    0.3805   51.6602   19.9897 C   0  0  0  0  0  0
    1.8817   51.2830   19.9192 C   0  0  0  0  0  0
    2.7735   52.2283   19.0625 C   0  0  0  0  0  0
    2.2858   52.3160   17.6011 C   0  0  0  0  0  0
    2.2913   50.8977   16.9828 N   0  3  0  0  0  0
    1.5470   49.8294   17.8084 C   0  0  0  0  0  0
    2.0905   49.8847   19.2500 C   0  0  0  0  0  0
   -1.4061   51.0267   21.5814 C   0  0  0  0  0  0
   -2.2410   51.6967   20.9711 O   0  0  0  0  0  0
   -1.8948   50.1321   22.7442 C   0  0  0  0  0  0
   -1.3136   50.4425   24.1235 C   0  0  0  0  0  0
   -1.4783   51.7037   24.7024 C   0  0  0  0  0  0
   -0.9533   51.9554   25.9683 C   0  0  0  0  0  0
   -0.2553   50.9628   26.6493 C   0  0  0  0  0  0
   -0.0962   49.7013   26.0811 C   0  0  0  0  0  0
   -0.6332   49.4379   24.8233 C   0  0  0  0  0  0
    0.4024   51.2967   28.2119 Cl  0  0  0  0  0  0
    2.5933   55.1328   30.4807 H   0  0  0  0  0  0
    2.9795   56.1719   29.1202 H   0  0  0  0  0  0
    1.7251   54.9502   28.9670 H   0  0  0  0  0  0
    3.4772   53.1404   29.2474 H   0  0  0  0  0  0
    4.7152   54.3571   29.3842 H   0  0  0  0  0  0
    1.8987   53.3926   27.0603 H   0  0  0  0  0  0
    2.0799   53.3906   24.6654 H   0  0  0  0  0  0
    6.1527   54.8055   24.9813 H   0  0  0  0  0  0
    5.9372   54.8062   27.3975 H   0  0  0  0  0  0
    6.0742   55.3039   22.8194 H   0  0  0  0  0  0
    6.3599   53.5709   22.8247 H   0  0  0  0  0  0
    5.6723   54.3607   21.4079 H   0  0  0  0  0  0
    4.4526   52.2255   22.1141 H   0  0  0  0  0  0
    0.9407   50.7700   23.0925 H   0  0  0  0  0  0
    1.1347   49.4154   21.9420 H   0  0  0  0  0  0
   -0.1919   51.4761   19.0817 H   0  0  0  0  0  0
    0.3030   52.7359   20.1569 H   0  0  0  0  0  0
    2.7355   53.2427   19.4649 H   0  0  0  0  0  0
    3.8262   51.9377   19.1087 H   0  0  0  0  0  0
    1.2699   52.7037   17.5119 H   0  0  0  0  0  0
    2.9486   52.9219   16.9804 H   0  0  0  0  0  0
    1.9234   50.9198   16.0413 H   0  0  0  0  0  0
    0.4776   50.0227   17.7163 H   0  0  0  0  0  0
    1.7823   48.8810   17.3238 H   0  0  0  0  0  0
    3.1364   49.5746   19.2813 H   0  0  0  0  0  0
    1.5543   49.1134   19.8023 H   0  0  0  0  0  0
   -1.6914   49.0958   22.4717 H   0  0  0  0  0  0
   -2.9818   50.2040   22.8142 H   0  0  0  0  0  0
   -2.0157   52.4819   24.1813 H   0  0  0  0  0  0
   -1.0938   52.9155   26.4331 H   0  0  0  0  0  0
    0.4160   48.9167   26.6208 H   0  0  0  0  0  0
   -0.5174   48.4516   24.4004 H   0  0  0  0  0  0
    3.2516   50.5555   16.8827 H   0  0  0  0  0  0
  1  2  1  0  0  0
  1 36  1  0  0  0
  1 37  1  0  0  0
  1 38  1  0  0  0
  2  3  1  0  0  0
  2 39  1  0  0  0
  2 40  1  0  0  0
  3  8  2  0  0  0
  3  4  1  0  0  0
  4  5  2  0  0  0
  4 41  1  0  0  0
  5  6  1  0  0  0
  5 42  1  0  0  0
  6  7  2  0  0  0
  6  9  1  0  0  0
  7  8  1  0  0  0
  7 43  1  0  0  0
  8 44  1  0  0  0
  9 10  1  0  0  0
  9 11  1  0  0  0
  9 12  1  0  0  0
 11 45  1  0  0  0
 11 46  1  0  0  0
 11 47  1  0  0  0
 12 13  1  0  0  0
 12 48  1  0  0  0
 13 14  2  0  0  0
 13 15  1  0  0  0
 15 16  1  0  0  0
 15 20  1  0  0  0
 15 17  1  0  0  0
 17 18  1  0  0  0
 17 49  1  0  0  0
 17 50  1  0  0  0
 18 19  1  0  0  0
 18 26  1  0  0  0
 19 20  1  0  0  0
 19 51  1  0  0  0
 19 52  1  0  0  0
 20 25  1  0  0  0
 20 21  1  0  0  0
 21 22  1  0  0  0
 21 53  1  0  0  0
 21 54  1  0  0  0
 22 23  1  0  0  0
 22 55  1  0  0  0
 22 56  1  0  0  0
 23 24  1  0  0  0
 23 57  1  0  0  0
 23 68  1  0  0  0
 24 25  1  0  0  0
 24 58  1  0  0  0
 24 59  1  0  0  0
 25 60  1  0  0  0
 25 61  1  0  0  0
 26 27  2  0  0  0
 26 28  1  0  0  0
 28 29  1  0  0  0
 28 62  1  0  0  0
 28 63  1  0  0  0
 29 34  2  0  0  0
 29 30  1  0  0  0
 30 31  2  0  0  0
 30 64  1  0  0  0
 31 32  1  0  0  0
 31 65  1  0  0  0
 32 33  2  0  0  0
 32 35  1  0  0  0
 33 34  1  0  0  0
 33 66  1  0  0  0
 34 67  1  0  0  0
M  CHG  1  23   1
M  END
> <i_i_glide_confnum>
133

> <i_i_glide_lignum>
593

> <i_i_glide_posenum>
278

> <i_i_glide_rotatable_bonds>
8

> <i_m_Source_File_Index>
5816

> <b_m_subgroup_collapsed>
0

> <r_i_docking_score>
-5.2742

> <r_i_glide_ecoul>
-6.56718

> <r_i_glide_eff_state_penalty>
0

> <r_i_glide_einternal>
5.57745

> <r_i_glide_emodel>
-59.6178

> <r_i_glide_energy>
-44.2082

> <r_i_glide_erotb>
0.642561

> <r_i_glide_esite>
-0.102677

> <r_i_glide_evdw>
-37.641

> <r_i_glide_gscore>
-5.2742

> <r_i_glide_hbond>
-0.202043

> <r_i_glide_ligand_efficiency>
-0.159824

> <r_i_glide_ligand_efficiency_ln>
-1.17295

> <r_i_glide_ligand_efficiency_sa>
-0.512642

> <r_i_glide_lipo>
-2.37247

> <r_i_glide_metal>
0

> <r_i_glide_rewards>
-0.372441

> <s_i_glide_gridfile>
wee1_glide-grid

> <s_m_Source_File>
wee1_decoys_glide_SP.sdf

> <s_m_Source_Path>
/Users/zhangxujun/Desktop

> <s_m_entry_id>
6091

> <s_m_entry_name>
wee1_decoys_glide_SP.5816

> <s_m_subgroup_title>
wee1_decoys_glide_SP

> <s_m_subgroupid>
wee1_decoys_glide_SP


$$$$
