ZINC35831005_5692
                    3D
 Schrodinger Suite 2024-2.
 72 75  0  0  1  0            999 V2000
    1.4976   51.9238   18.7539 C   0  0  0  0  0  0
    0.1367   51.9565   19.1786 O   0  0  0  0  0  0
   -0.2381   51.2646   20.3158 C   0  0  0  0  0  0
    0.6444   50.4841   21.0829 C   0  0  0  0  0  0
    0.1990   49.8304   22.2293 C   0  0  0  0  0  0
   -1.1254   49.9687   22.6522 C   0  0  0  0  0  0
   -2.0104   50.7299   21.8875 C   0  0  0  0  0  0
   -1.5790   51.3613   20.7216 C   0  0  0  0  0  0
   -2.4945   52.0966   20.0105 O   0  0  0  0  0  0
   -2.9509   51.4660   18.8172 C   0  0  0  0  0  0
   -1.5835   49.3376   23.8190 N   0  0  0  0  0  0
   -1.3634   49.9772   25.1309 C   0  0  1  0  0  0
    0.1339   49.9666   25.5118 C   0  0  0  0  0  0
    0.3175   50.5921   26.9029 C   0  0  0  0  0  0
   -0.1914   52.0542   26.8295 N   0  3  1  0  0  0
   -1.7084   52.0924   26.5158 C   0  0  0  0  0  0
   -1.9124   51.4270   25.1391 C   0  0  0  0  0  0
    0.1369   52.8068   28.1412 C   0  0  0  0  0  0
    1.6358   52.9586   28.3693 C   0  0  0  0  0  0
    2.2398   52.3303   29.4600 C   0  0  0  0  0  0
    3.6307   52.3847   29.6281 C   0  0  0  0  0  0
    4.4008   53.0737   28.6960 C   0  0  0  0  0  0
    3.8203   53.7106   27.6024 C   0  0  0  0  0  0
    2.4249   53.6593   27.4517 C   0  0  0  0  0  0
    4.6872   54.3361   26.7269 O   0  0  0  0  0  0
    4.1858   54.8628   25.5058 C   0  0  0  0  0  0
    4.3021   51.7060   30.6187 O   0  0  0  0  0  0
    3.7425   51.6966   31.9218 C   0  0  0  0  0  0
   -1.9750   47.5971   23.7857 S   0  0  0  0  0  0
   -2.3220   47.2540   22.4012 O   0  0  0  0  0  0
   -0.8930   46.8973   24.4813 O   0  0  0  0  0  0
   -3.4538   47.4005   24.7668 C   0  0  0  0  0  0
   -4.7045   47.6183   24.1873 C   0  0  0  0  0  0
   -5.8552   47.4880   24.9598 C   0  0  0  0  0  0
   -5.7463   47.1623   26.3128 C   0  0  0  0  0  0
   -4.4963   46.9682   26.8991 C   0  0  0  0  0  0
   -3.3452   47.0892   26.1261 C   0  0  0  0  0  0
    1.6156   52.5423   17.8633 H   0  0  0  0  0  0
    2.1625   52.3258   19.5202 H   0  0  0  0  0  0
    1.8172   50.9121   18.4959 H   0  0  0  0  0  0
    1.6808   50.3739   20.8043 H   0  0  0  0  0  0
    0.8927   49.2289   22.7998 H   0  0  0  0  0  0
   -3.0387   50.8335   22.1989 H   0  0  0  0  0  0
   -3.6551   52.1254   18.3078 H   0  0  0  0  0  0
   -2.1331   51.2566   18.1250 H   0  0  0  0  0  0
   -3.4675   50.5298   19.0377 H   0  0  0  0  0  0
   -1.8943   49.4086   25.8995 H   0  0  0  0  0  0
    0.7328   50.5403   24.8032 H   0  0  0  0  0  0
    0.5254   48.9457   25.5172 H   0  0  0  0  0  0
    1.3731   50.6086   27.1782 H   0  0  0  0  0  0
   -0.2548   50.0960   27.6826 H   0  0  0  0  0  0
   -2.2355   51.5813   27.3256 H   0  0  0  0  0  0
   -2.0076   53.1424   26.4795 H   0  0  0  0  0  0
   -2.9740   51.4280   24.8842 H   0  0  0  0  0  0
   -1.4019   52.0415   24.3948 H   0  0  0  0  0  0
   -0.3543   52.2374   28.9340 H   0  0  0  0  0  0
   -0.3423   53.7842   28.0731 H   0  0  0  0  0  0
    1.6259   51.7616   30.1394 H   0  0  0  0  0  0
    5.4743   53.0910   28.8031 H   0  0  0  0  0  0
    1.9479   54.1264   26.6042 H   0  0  0  0  0  0
    5.0153   55.2443   24.9117 H   0  0  0  0  0  0
    3.6811   54.0981   24.9146 H   0  0  0  0  0  0
    3.5049   55.6920   25.6818 H   0  0  0  0  0  0
    4.2685   50.9300   32.4865 H   0  0  0  0  0  0
    2.6815   51.4549   31.9808 H   0  0  0  0  0  0
    3.9160   52.6466   32.4184 H   0  0  0  0  0  0
   -4.7851   47.8804   23.1406 H   0  0  0  0  0  0
   -6.8284   47.6448   24.5145 H   0  0  0  0  0  0
   -6.6398   47.0669   26.9112 H   0  0  0  0  0  0
   -4.4131   46.7352   27.9529 H   0  0  0  0  0  0
   -2.3795   46.9492   26.5928 H   0  0  0  0  0  0
    0.3127   52.5238   26.0873 H   0  0  0  0  0  0
  1  2  1  0  0  0
  1 38  1  0  0  0
  1 39  1  0  0  0
  1 40  1  0  0  0
  2  3  1  0  0  0
  3  8  2  0  0  0
  3  4  1  0  0  0
  4  5  2  0  0  0
  4 41  1  0  0  0
  5  6  1  0  0  0
  5 42  1  0  0  0
  6  7  2  0  0  0
  6 11  1  0  0  0
  7  8  1  0  0  0
  7 43  1  0  0  0
  8  9  1  0  0  0
  9 10  1  0  0  0
 10 44  1  0  0  0
 10 45  1  0  0  0
 10 46  1  0  0  0
 11 12  1  0  0  0
 11 29  1  0  0  0
 12 17  1  0  0  0
 12 13  1  0  0  0
 12 47  1  0  0  0
 13 14  1  0  0  0
 13 48  1  0  0  0
 13 49  1  0  0  0
 14 15  1  0  0  0
 14 50  1  0  0  0
 14 51  1  0  0  0
 15 16  1  0  0  0
 15 18  1  0  0  0
 15 72  1  0  0  0
 16 17  1  0  0  0
 16 52  1  0  0  0
 16 53  1  0  0  0
 17 54  1  0  0  0
 17 55  1  0  0  0
 18 19  1  0  0  0
 18 56  1  0  0  0
 18 57  1  0  0  0
 19 24  2  0  0  0
 19 20  1  0  0  0
 20 21  2  0  0  0
 20 58  1  0  0  0
 21 22  1  0  0  0
 21 27  1  0  0  0
 22 23  2  0  0  0
 22 59  1  0  0  0
 23 24  1  0  0  0
 23 25  1  0  0  0
 24 60  1  0  0  0
 25 26  1  0  0  0
 26 61  1  0  0  0
 26 62  1  0  0  0
 26 63  1  0  0  0
 27 28  1  0  0  0
 28 64  1  0  0  0
 28 65  1  0  0  0
 28 66  1  0  0  0
 29 30  2  0  0  0
 29 31  2  0  0  0
 29 32  1  0  0  0
 32 37  2  0  0  0
 32 33  1  0  0  0
 33 34  2  0  0  0
 33 67  1  0  0  0
 34 35  1  0  0  0
 34 68  1  0  0  0
 35 36  2  0  0  0
 35 69  1  0  0  0
 36 37  1  0  0  0
 36 70  1  0  0  0
 37 71  1  0  0  0
M  CHG  1  15   1
M  END
> <i_i_glide_confnum>
116

> <i_i_glide_lignum>
5693

> <i_i_glide_posenum>
88

> <i_i_glide_rotatable_bonds>
10

> <i_m_Source_File_Index>
3458

> <b_m_subgroup_collapsed>
0

> <r_i_docking_score>
-1.58116

> <r_i_glide_ecoul>
-4.91246

> <r_i_glide_eff_state_penalty>
0

> <r_i_glide_einternal>
11.5218

> <r_i_glide_emodel>
-33.6121

> <r_i_glide_energy>
-43.2614

> <r_i_glide_erotb>
0.443863

> <r_i_glide_esite>
-0.116163

> <r_i_glide_evdw>
-38.3489

> <r_i_glide_gscore>
-1.58116

> <r_i_glide_hbond>
-0.528002

> <r_i_glide_ligand_efficiency>
-0.042734

> <r_i_glide_ligand_efficiency_ln>
-0.342916

> <r_i_glide_ligand_efficiency_sa>
-0.142399

> <r_i_glide_lipo>
-1.68921

> <r_i_glide_metal>
0

> <r_i_glide_rewards>
2.96267

> <s_i_glide_gridfile>
wee1_glide-grid

> <s_m_Source_File>
wee1_decoys_glide_SP.sdf

> <s_m_Source_Path>
/Users/zhangxujun/Desktop

> <s_m_entry_id>
3733

> <s_m_entry_name>
wee1_decoys_glide_SP.3458

> <s_m_subgroup_title>
wee1_decoys_glide_SP

> <s_m_subgroupid>
wee1_decoys_glide_SP


$$$$
