ZINC39946180_5015
                    3D
 Schrodinger Suite 2024-2.
 65 69  0  0  1  0            999 V2000
    3.2240   53.0204   16.2035 C   0  0  0  0  0  0
    2.5207   51.8864   16.9725 C   0  0  2  0  0  0
    3.3126   51.2947   17.4290 H   0  0  0  0  0  0
    1.7203   50.9655   16.0225 C   0  0  0  0  0  0
    1.1087   49.7643   16.7694 C   0  0  0  0  0  0
    0.2972   50.1828   18.0131 C   0  0  0  0  0  0
    1.0557   51.1695   18.9359 C   0  0  1  0  0  0
    1.9194   50.5887   19.2720 H   0  0  0  0  0  0
    1.6171   52.3885   18.1349 C   0  0  2  0  0  0
    2.2840   52.9204   18.8156 H   0  0  0  0  0  0
    0.5107   53.3789   17.6951 C   0  0  0  0  0  0
    0.2736   51.4927   20.1303 N   0  0  0  0  0  0
    0.7648   51.9460   21.2955 C   0  0  0  0  0  0
    1.9667   52.0623   21.5281 O   0  0  0  0  0  0
   -0.2923   52.3071   22.3467 C   0  0  0  0  0  0
    0.3036   53.2967   23.7546 S   0  0  0  0  0  0
    1.1563   52.0878   24.8046 C   0  0  2  0  0  0
    2.0294   51.7331   24.2529 H   0  0  0  0  0  0
    0.3413   50.9563   25.2086 N   0  0  0  0  0  0
   -0.2042   51.1895   26.4587 N   0  0  0  0  0  0
    0.5052   52.0904   26.9851 C   0  0  0  0  0  0
    1.4909   52.5912   26.1373 N   0  0  0  0  0  0
    2.7224   53.2702   26.3311 C   0  0  0  0  0  0
    3.4143   53.1634   27.5498 C   0  0  0  0  0  0
    4.6510   53.7777   27.7238 C   0  0  0  0  0  0
    5.2109   54.5028   26.6770 C   0  0  0  0  0  0
    4.5488   54.6156   25.4591 C   0  0  0  0  0  0
    3.3130   54.0059   25.2900 C   0  0  0  0  0  0
    6.7237   55.2951   26.8861 Cl  0  0  0  0  0  0
    0.2160   52.4656   28.3540 C   0  0  0  0  0  0
    0.5084   53.6083   29.0190 C   0  0  0  0  0  0
    1.1563   54.8736   28.6258 C   0  0  0  0  0  0
    1.3926   55.8531   29.5202 C   0  0  0  0  0  0
    0.9376   55.6402   30.8801 C   0  0  0  0  0  0
    0.3049   54.4967   31.2656 C   0  0  0  0  0  0
    0.0867   53.4628   30.3494 C   0  0  0  0  0  0
   -0.4953   52.3039   30.5507 N   0  3  0  0  0  0
   -0.5506   51.5525   29.2934 C   0  0  0  0  0  0
    2.5230   53.6386   15.6427 H   0  0  0  0  0  0
    3.7783   53.6711   16.8812 H   0  0  0  0  0  0
    3.9424   52.6146   15.4885 H   0  0  0  0  0  0
    0.9498   51.5297   15.4978 H   0  0  0  0  0  0
    2.3795   50.5975   15.2335 H   0  0  0  0  0  0
    0.4793   49.1870   16.0911 H   0  0  0  0  0  0
    1.9045   49.0907   17.0812 H   0  0  0  0  0  0
   -0.6300   50.6467   17.6774 H   0  0  0  0  0  0
    0.0121   49.2895   18.5714 H   0  0  0  0  0  0
   -0.1654   52.9404   16.9611 H   0  0  0  0  0  0
    0.9341   54.2833   17.2591 H   0  0  0  0  0  0
   -0.0944   53.6938   18.5399 H   0  0  0  0  0  0
   -0.7263   51.4846   20.0065 H   0  0  0  0  0  0
   -1.0814   52.8919   21.8683 H   0  0  0  0  0  0
   -0.7602   51.3919   22.7093 H   0  0  0  0  0  0
   -0.3894   50.6447   24.5880 H   0  0  0  0  0  0
    3.0138   52.5723   28.3605 H   0  0  0  0  0  0
    5.1765   53.6866   28.6625 H   0  0  0  0  0  0
    4.9907   55.1724   24.6465 H   0  0  0  0  0  0
    2.8309   54.1080   24.3287 H   0  0  0  0  0  0
    1.4407   55.0725   27.6070 H   0  0  0  0  0  0
    1.8539   56.7845   29.2237 H   0  0  0  0  0  0
    1.1067   56.4235   31.6086 H   0  0  0  0  0  0
   -0.0113   54.3968   32.2944 H   0  0  0  0  0  0
   -1.5971   51.4089   29.0178 H   0  0  0  0  0  0
   -0.0914   50.5779   29.4296 H   0  0  0  0  0  0
   -0.8909   51.9826   31.4449 H   0  0  0  0  0  0
  1  2  1  0  0  0
  1 39  1  0  0  0
  1 40  1  0  0  0
  1 41  1  0  0  0
  2  3  1  0  0  0
  2  9  1  0  0  0
  2  4  1  0  0  0
  4  5  1  0  0  0
  4 42  1  0  0  0
  4 43  1  0  0  0
  5  6  1  0  0  0
  5 44  1  0  0  0
  5 45  1  0  0  0
  6  7  1  0  0  0
  6 46  1  0  0  0
  6 47  1  0  0  0
  7  8  1  0  0  0
  7  9  1  0  0  0
  7 12  1  0  0  0
  9 10  1  0  0  0
  9 11  1  0  0  0
 11 48  1  0  0  0
 11 49  1  0  0  0
 11 50  1  0  0  0
 12 13  1  0  0  0
 12 51  1  0  0  0
 13 14  2  0  0  0
 13 15  1  0  0  0
 15 16  1  0  0  0
 15 52  1  0  0  0
 15 53  1  0  0  0
 16 17  1  0  0  0
 17 18  1  0  0  0
 17 22  1  0  0  0
 17 19  1  0  0  0
 19 20  1  0  0  0
 19 54  1  0  0  0
 20 21  2  0  0  0
 21 22  1  0  0  0
 21 30  1  0  0  0
 22 23  1  0  0  0
 23 28  2  0  0  0
 23 24  1  0  0  0
 24 25  2  0  0  0
 24 55  1  0  0  0
 25 26  1  0  0  0
 25 56  1  0  0  0
 26 27  2  0  0  0
 26 29  1  0  0  0
 27 28  1  0  0  0
 27 57  1  0  0  0
 28 58  1  0  0  0
 30 38  1  0  0  0
 30 31  2  0  0  0
 31 36  1  0  0  0
 31 32  1  0  0  0
 32 33  2  0  0  0
 32 59  1  0  0  0
 33 34  1  0  0  0
 33 60  1  0  0  0
 34 35  2  0  0  0
 34 61  1  0  0  0
 35 36  1  0  0  0
 35 62  1  0  0  0
 36 37  2  0  0  0
 37 38  1  0  0  0
 37 65  1  0  0  0
 38 63  1  0  0  0
 38 64  1  0  0  0
M  CHG  1  37   1
M  END
> <i_i_glide_confnum>
208

> <i_i_glide_lignum>
5016

> <i_i_glide_posenum>
49

> <i_i_glide_rotatable_bonds>
7

> <i_m_Source_File_Index>
1708

> <b_m_subgroup_collapsed>
0

> <r_i_docking_score>
-5.33457

> <r_i_glide_ecoul>
-2.63233

> <r_i_glide_eff_state_penalty>
0

> <r_i_glide_einternal>
2.65951

> <r_i_glide_emodel>
-58.1602

> <r_i_glide_energy>
-41.7603

> <r_i_glide_erotb>
0.577846

> <r_i_glide_esite>
-0.113136

> <r_i_glide_evdw>
-39.128

> <r_i_glide_gscore>
-5.33457

> <r_i_glide_hbond>
-0.2

> <r_i_glide_ligand_efficiency>
-0.156899

> <r_i_glide_ligand_efficiency_ln>
-1.17856

> <r_i_glide_ligand_efficiency_sa>
-0.508293

> <r_i_glide_lipo>
-2.78752

> <r_i_glide_metal>
0

> <r_i_glide_rewards>
-0.46051

> <s_i_glide_gridfile>
wee1_glide-grid

> <s_m_Source_File>
wee1_decoys_glide_SP.sdf

> <s_m_Source_Path>
/Users/zhangxujun/Desktop

> <s_m_entry_id>
1983

> <s_m_entry_name>
wee1_decoys_glide_SP.1708

> <s_m_subgroup_title>
wee1_decoys_glide_SP

> <s_m_subgroupid>
wee1_decoys_glide_SP


$$$$
