ZINC02433787_2396
                    3D
 Schrodinger Suite 2024-2.
 63 67  0  0  1  0            999 V2000
   -7.1122   49.9488   18.9503 C   0  0  0  0  0  0
   -6.1227   49.8815   20.1163 C   0  0  0  0  0  0
   -4.8195   50.1890   19.6290 O   0  0  0  0  0  0
   -3.7881   50.3633   20.5293 C   0  0  0  0  0  0
   -2.5731   50.8334   20.0073 C   0  0  0  0  0  0
   -1.4784   51.0958   20.8435 C   0  0  0  0  0  0
   -1.6385   50.8604   22.2030 C   0  0  0  0  0  0
   -2.8153   50.4162   22.7505 C   0  0  0  0  0  0
   -3.8980   50.1362   21.9177 C   0  0  0  0  0  0
   -2.6554   50.4258   24.2467 C   0  0  2  0  0  0
   -2.8369   49.0236   24.8755 C   0  0  0  0  0  0
   -3.6431   48.8418   25.9430 C   0  0  0  0  0  0
   -4.3793   49.8152   26.5169 O   0  0  0  0  0  0
   -4.3770   51.0697   26.0044 C   0  0  0  0  0  0
   -3.5969   51.4593   24.9597 C   0  0  0  0  0  0
   -3.6348   52.8827   24.5228 C   0  0  0  0  0  0
   -2.8666   53.3420   23.6814 O   0  0  0  0  0  0
   -4.5942   53.8300   25.2690 C   0  0  0  0  0  0
   -5.8477   53.1362   25.8693 C   0  0  0  0  0  0
   -5.3661   51.9532   26.7589 C   0  0  0  0  0  0
   -6.7604   52.6173   24.7241 C   0  0  0  0  0  0
   -6.5788   54.1545   26.7684 C   0  0  0  0  0  0
   -3.8753   47.6772   26.6205 N   0  0  0  0  0  0
   -2.1733   47.8825   24.3270 C   0  0  0  0  0  0
   -1.6953   46.9153   23.9033 N   0  0  0  0  0  0
   -1.1624   50.8381   24.4152 C   0  0  0  0  0  0
   -0.5670   50.9331   25.4901 O   0  0  0  0  0  0
   -0.6637   51.0891   23.1711 N   0  0  0  0  0  0
    0.7391   51.5039   22.8186 C   0  0  0  0  0  0
    0.8101   51.8360   21.3053 C   0  0  0  0  0  0
   -0.1766   51.6410   20.4035 C   0  0  0  0  0  0
   -0.0008   52.0050   18.9360 C   0  0  0  0  0  0
    1.6669   50.2883   23.0503 C   0  0  0  0  0  0
    1.1052   52.7978   23.5849 C   0  0  0  0  0  0
   -8.1236   49.7138   19.2827 H   0  0  0  0  0  0
   -7.1284   50.9468   18.5092 H   0  0  0  0  0  0
   -6.8444   49.2393   18.1660 H   0  0  0  0  0  0
   -6.1332   48.8820   20.5575 H   0  0  0  0  0  0
   -6.4292   50.5942   20.8862 H   0  0  0  0  0  0
   -2.5005   51.0121   18.9439 H   0  0  0  0  0  0
   -4.8234   49.7910   22.3516 H   0  0  0  0  0  0
   -4.8492   54.6667   24.6155 H   0  0  0  0  0  0
   -4.0030   54.2420   26.0884 H   0  0  0  0  0  0
   -6.2369   51.3711   27.0649 H   0  0  0  0  0  0
   -4.8531   52.2775   27.6641 H   0  0  0  0  0  0
   -7.0849   53.4355   24.0832 H   0  0  0  0  0  0
   -6.2728   51.8821   24.0836 H   0  0  0  0  0  0
   -7.6606   52.1463   25.1204 H   0  0  0  0  0  0
   -6.9689   54.9871   26.1860 H   0  0  0  0  0  0
   -7.4292   53.6951   27.2711 H   0  0  0  0  0  0
   -5.9331   54.5726   27.5379 H   0  0  0  0  0  0
   -3.2830   46.8855   26.4191 H   0  0  0  0  0  0
   -4.1563   47.7627   27.5881 H   0  0  0  0  0  0
    1.7419   52.2441   20.9352 H   0  0  0  0  0  0
   -0.7425   52.7451   18.6350 H   0  0  0  0  0  0
    0.9843   52.4345   18.7459 H   0  0  0  0  0  0
   -0.0997   51.1211   18.3053 H   0  0  0  0  0  0
    2.6970   50.5128   22.7679 H   0  0  0  0  0  0
    1.6806   49.9850   24.0970 H   0  0  0  0  0  0
    1.3505   49.4205   22.4681 H   0  0  0  0  0  0
    2.0691   53.1932   23.2630 H   0  0  0  0  0  0
    0.3590   53.5773   23.4343 H   0  0  0  0  0  0
    1.1822   52.6233   24.6573 H   0  0  0  0  0  0
  1  2  1  0  0  0
  1 35  1  0  0  0
  1 36  1  0  0  0
  1 37  1  0  0  0
  2  3  1  0  0  0
  2 38  1  0  0  0
  2 39  1  0  0  0
  3  4  1  0  0  0
  4  9  2  0  0  0
  4  5  1  0  0  0
  5  6  2  0  0  0
  5 40  1  0  0  0
  6 31  1  0  0  0
  6  7  1  0  0  0
  7 28  1  0  0  0
  7  8  2  0  0  0
  8  9  1  0  0  0
  8 10  1  0  0  0
  9 41  1  0  0  0
 10 15  1  0  0  0
 10 11  1  0  0  0
 10 26  1  0  0  0
 11 12  2  0  0  0
 11 24  1  0  0  0
 12 13  1  0  0  0
 12 23  1  0  0  0
 13 14  1  0  0  0
 14 20  1  0  0  0
 14 15  2  0  0  0
 15 16  1  0  0  0
 16 17  2  0  0  0
 16 18  1  0  0  0
 18 19  1  0  0  0
 18 42  1  0  0  0
 18 43  1  0  0  0
 19 20  1  0  0  0
 19 21  1  0  0  0
 19 22  1  0  0  0
 20 44  1  0  0  0
 20 45  1  0  0  0
 21 46  1  0  0  0
 21 47  1  0  0  0
 21 48  1  0  0  0
 22 49  1  0  0  0
 22 50  1  0  0  0
 22 51  1  0  0  0
 23 52  1  0  0  0
 23 53  1  0  0  0
 24 25  3  0  0  0
 26 27  2  0  0  0
 26 28  1  0  0  0
 28 29  1  0  0  0
 29 30  1  0  0  0
 29 33  1  0  0  0
 29 34  1  0  0  0
 30 31  2  0  0  0
 30 54  1  0  0  0
 31 32  1  0  0  0
 32 55  1  0  0  0
 32 56  1  0  0  0
 32 57  1  0  0  0
 33 58  1  0  0  0
 33 59  1  0  0  0
 33 60  1  0  0  0
 34 61  1  0  0  0
 34 62  1  0  0  0
 34 63  1  0  0  0
M  END
> <i_i_glide_confnum>
5

> <i_i_glide_lignum>
2397

> <i_i_glide_posenum>
272

> <i_i_glide_rotatable_bonds>
3

> <i_m_Source_File_Index>
3121

> <b_m_subgroup_collapsed>
0

> <r_i_docking_score>
-2.86407

> <r_i_glide_ecoul>
-2.65938

> <r_i_glide_eff_state_penalty>
0

> <r_i_glide_einternal>
0.818831

> <r_i_glide_emodel>
-34.3376

> <r_i_glide_energy>
-29.2222

> <r_i_glide_erotb>
0.0952834

> <r_i_glide_esite>
-0.134322

> <r_i_glide_evdw>
-26.5628

> <r_i_glide_gscore>
-2.86407

> <r_i_glide_hbond>
0

> <r_i_glide_ligand_efficiency>
-0.0842374

> <r_i_glide_ligand_efficiency_ln>
-0.632754

> <r_i_glide_ligand_efficiency_sa>
-0.272896

> <r_i_glide_lipo>
-0.650912

> <r_i_glide_metal>
0

> <r_i_glide_rewards>
-0.447074

> <s_i_glide_gridfile>
wee1_glide-grid

> <s_m_Source_File>
wee1_decoys_glide_SP.sdf

> <s_m_Source_Path>
/Users/zhangxujun/Desktop

> <s_m_entry_id>
3396

> <s_m_entry_name>
wee1_decoys_glide_SP.3121

> <s_m_subgroup_title>
wee1_decoys_glide_SP

> <s_m_subgroupid>
wee1_decoys_glide_SP


$$$$
