ZINC43531436_6164
                    3D
 Schrodinger Suite 2024-2.
 34 35  0  0  1  0            999 V2000
    3.6706   53.7764   23.4619 C   0  0  0  0  0  0
    3.5031   53.9381   24.9619 C   0  0  0  0  0  0
    2.4461   53.4540   25.7352 C   0  0  0  0  0  0
    2.6596   53.8031   27.0615 N   0  0  0  0  0  0
    3.8901   54.4405   27.1291 C   0  0  0  0  0  0
    4.4319   54.4956   25.8545 C   0  0  0  0  0  0
    5.7243   55.0676   25.5123 C   0  0  0  0  0  0
    6.7489   55.5277   25.2466 N   0  0  0  0  0  0
    4.4139   54.8966   28.3146 N   0  0  0  0  0  0
    1.6986   53.6078   28.1788 C   0  0  2  0  0  0
    0.8732   53.0048   27.8025 H   0  0  0  0  0  0
    1.1123   54.9912   28.5502 C   0  0  0  0  0  0
    2.1891   52.8445   29.4222 C   0  0  0  0  0  0
    1.3128   52.6718   30.5047 C   0  0  0  0  0  0
    1.7883   52.0967   31.6817 C   0  0  0  0  0  0
    3.0759   51.6970   31.8352 N   0  0  0  0  0  0
    3.9044   51.8315   30.7749 C   0  0  0  0  0  0
    3.4936   52.3436   29.5492 C   0  0  0  0  0  0
    1.2068   52.6989   25.2878 C   0  0  0  0  0  0
    3.1741   52.8854   23.0801 H   0  0  0  0  0  0
    3.2719   54.6326   22.9167 H   0  0  0  0  0  0
    4.7177   53.6684   23.1773 H   0  0  0  0  0  0
    5.3351   55.3128   28.3630 H   0  0  0  0  0  0
    3.9376   54.7559   29.1941 H   0  0  0  0  0  0
    0.3043   54.8967   29.2708 H   0  0  0  0  0  0
    1.8585   55.6463   29.0003 H   0  0  0  0  0  0
    0.7049   55.5059   27.6819 H   0  0  0  0  0  0
    0.2830   52.9928   30.4546 H   0  0  0  0  0  0
    1.1328   51.9680   32.5330 H   0  0  0  0  0  0
    4.9220   51.4989   30.9138 H   0  0  0  0  0  0
    4.2069   52.3796   28.7401 H   0  0  0  0  0  0
    1.2443   52.4257   24.2338 H   0  0  0  0  0  0
    1.0725   51.7673   25.8388 H   0  0  0  0  0  0
    0.3037   53.2921   25.4173 H   0  0  0  0  0  0
  1  2  1  0  0  0
  1 20  1  0  0  0
  1 21  1  0  0  0
  1 22  1  0  0  0
  2  6  1  0  0  0
  2  3  2  0  0  0
  3  4  1  0  0  0
  3 19  1  0  0  0
  4  5  1  0  0  0
  4 10  1  0  0  0
  5  6  2  0  0  0
  5  9  1  0  0  0
  6  7  1  0  0  0
  7  8  3  0  0  0
  9 23  1  0  0  0
  9 24  1  0  0  0
 10 11  1  0  0  0
 10 12  1  0  0  0
 10 13  1  0  0  0
 12 25  1  0  0  0
 12 26  1  0  0  0
 12 27  1  0  0  0
 13 18  2  0  0  0
 13 14  1  0  0  0
 14 15  2  0  0  0
 14 28  1  0  0  0
 15 16  1  0  0  0
 15 29  1  0  0  0
 16 17  2  0  0  0
 17 18  1  0  0  0
 17 30  1  0  0  0
 18 31  1  0  0  0
 19 32  1  0  0  0
 19 33  1  0  0  0
 19 34  1  0  0  0
M  END
> <i_i_glide_confnum>
1

> <i_i_glide_lignum>
6165

> <i_i_glide_posenum>
94

> <i_i_glide_rotatable_bonds>
3

> <i_m_Source_File_Index>
6014

> <b_m_subgroup_collapsed>
0

> <r_i_docking_score>
-6.69041

> <r_i_glide_ecoul>
-4.23978

> <r_i_glide_eff_state_penalty>
0

> <r_i_glide_einternal>
4.45118

> <r_i_glide_emodel>
-41.4861

> <r_i_glide_energy>
-29.8855

> <r_i_glide_erotb>
0.599196

> <r_i_glide_esite>
0

> <r_i_glide_evdw>
-25.6457

> <r_i_glide_gscore>
-6.69041

> <r_i_glide_hbond>
-0.526322

> <r_i_glide_ligand_efficiency>
-0.37169

> <r_i_glide_ligand_efficiency_ln>
-1.71974

> <r_i_glide_ligand_efficiency_sa>
-0.974102

> <r_i_glide_lipo>
-2.28636

> <r_i_glide_metal>
0

> <r_i_glide_rewards>
-2.55868

> <s_i_glide_gridfile>
wee1_glide-grid

> <s_m_Source_File>
wee1_decoys_glide_SP.sdf

> <s_m_Source_Path>
/Users/zhangxujun/Desktop

> <s_m_entry_id>
6289

> <s_m_entry_name>
wee1_decoys_glide_SP.6014

> <s_m_subgroup_title>
wee1_decoys_glide_SP

> <s_m_subgroupid>
wee1_decoys_glide_SP


$$$$
