ZINC09236237_3199
                    3D
 Schrodinger Suite 2024-2.
 55 59  0  0  1  0            999 V2000
    1.9465   48.4272   18.9153 C   0  0  0  0  0  0
    1.6912   49.0117   20.1851 O   0  0  0  0  0  0
    1.2504   50.2927   20.2766 C   0  0  0  0  0  0
    1.0344   51.0121   19.2971 O   0  0  0  0  0  0
    1.0654   50.7582   21.6908 C   0  0  0  0  0  0
    0.7383   52.0997   21.9296 C   0  0  0  0  0  0
    0.5635   52.5641   23.2299 C   0  0  0  0  0  0
    0.7087   51.6971   24.3131 C   0  0  0  0  0  0
    1.0261   50.3549   24.0817 C   0  0  0  0  0  0
    1.2068   49.8902   22.7834 C   0  0  0  0  0  0
    0.5784   52.2515   25.7357 C   0  0  1  0  0  0
    0.0925   53.2222   25.6375 H   0  0  0  0  0  0
   -0.2718   51.3808   26.7239 C   0  0  1  0  0  0
    0.1669   50.3917   26.8609 H   0  0  0  0  0  0
   -0.4955   52.1017   28.4005 S   0  0  0  0  0  0
    0.9682   53.0930   28.4976 C   0  0  0  0  0  0
    1.3529   53.8311   29.5117 N   0  0  0  0  0  0
    2.5942   54.3815   29.1906 N   0  0  0  0  0  0
    2.9130   53.9585   27.9888 C   0  0  0  0  0  0
    1.9011   53.1661   27.4916 N   0  0  0  0  0  0
    1.9030   52.4968   26.2820 N   0  0  0  0  0  0
    4.1842   54.2877   27.2644 C   0  0  0  0  0  0
    4.1810   54.5676   25.8916 C   0  0  0  0  0  0
    5.3765   54.7900   25.2154 C   0  0  0  0  0  0
    6.5800   54.7423   25.9105 C   0  0  0  0  0  0
    6.5951   54.4968   27.2820 C   0  0  0  0  0  0
    5.3979   54.2773   27.9593 C   0  0  0  0  0  0
   -1.7021   51.2022   26.1639 C   0  0  0  0  0  0
   -2.3550   52.1943   25.8249 O   0  0  0  0  0  0
   -2.1587   49.9333   26.0818 N   0  0  0  0  0  0
   -3.3611   49.4820   25.5184 C   0  0  0  0  0  0
   -3.8967   48.3077   26.0511 C   0  0  0  0  0  0
   -5.0784   47.7844   25.5329 C   0  0  0  0  0  0
   -5.7150   48.4313   24.4760 C   0  0  0  0  0  0
   -5.1799   49.5957   23.9291 C   0  0  0  0  0  0
   -3.9990   50.1224   24.4462 C   0  0  0  0  0  0
    2.3039   47.4055   19.0380 H   0  0  0  0  0  0
    1.0411   48.3984   18.3075 H   0  0  0  0  0  0
    2.7043   48.9929   18.3735 H   0  0  0  0  0  0
    0.6341   52.8006   21.1115 H   0  0  0  0  0  0
    0.3300   53.6061   23.3930 H   0  0  0  0  0  0
    1.1518   49.6635   24.9018 H   0  0  0  0  0  0
    1.4672   48.8509   22.6479 H   0  0  0  0  0  0
    2.4433   53.0459   25.6313 H   0  0  0  0  0  0
    3.2559   54.6198   25.3379 H   0  0  0  0  0  0
    5.3710   54.9908   24.1540 H   0  0  0  0  0  0
    7.5038   54.8960   25.3724 H   0  0  0  0  0  0
    7.5278   54.4705   27.8250 H   0  0  0  0  0  0
    5.4189   54.0713   29.0197 H   0  0  0  0  0  0
   -1.6945   49.2485   26.6728 H   0  0  0  0  0  0
   -3.4054   47.8072   26.8757 H   0  0  0  0  0  0
   -5.4997   46.8825   25.9519 H   0  0  0  0  0  0
   -6.6323   48.0254   24.0750 H   0  0  0  0  0  0
   -5.6772   50.0875   23.1064 H   0  0  0  0  0  0
   -3.5847   51.0153   24.0038 H   0  0  0  0  0  0
  1  2  1  0  0  0
  1 37  1  0  0  0
  1 38  1  0  0  0
  1 39  1  0  0  0
  2  3  1  0  0  0
  3  4  2  0  0  0
  3  5  1  0  0  0
  5 10  2  0  0  0
  5  6  1  0  0  0
  6  7  2  0  0  0
  6 40  1  0  0  0
  7  8  1  0  0  0
  7 41  1  0  0  0
  8  9  2  0  0  0
  8 11  1  0  0  0
  9 10  1  0  0  0
  9 42  1  0  0  0
 10 43  1  0  0  0
 11 12  1  0  0  0
 11 21  1  0  0  0
 11 13  1  0  0  0
 13 14  1  0  0  0
 13 15  1  0  0  0
 13 28  1  0  0  0
 15 16  1  0  0  0
 16 20  1  0  0  0
 16 17  2  0  0  0
 17 18  1  0  0  0
 18 19  2  0  0  0
 19 20  1  0  0  0
 19 22  1  0  0  0
 20 21  1  0  0  0
 21 44  1  0  0  0
 22 27  2  0  0  0
 22 23  1  0  0  0
 23 24  2  0  0  0
 23 45  1  0  0  0
 24 25  1  0  0  0
 24 46  1  0  0  0
 25 26  2  0  0  0
 25 47  1  0  0  0
 26 27  1  0  0  0
 26 48  1  0  0  0
 27 49  1  0  0  0
 28 29  2  0  0  0
 28 30  1  0  0  0
 30 31  1  0  0  0
 30 50  1  0  0  0
 31 36  2  0  0  0
 31 32  1  0  0  0
 32 33  2  0  0  0
 32 51  1  0  0  0
 33 34  1  0  0  0
 33 52  1  0  0  0
 34 35  2  0  0  0
 34 53  1  0  0  0
 35 36  1  0  0  0
 35 54  1  0  0  0
 36 55  1  0  0  0
M  END
> <i_i_glide_confnum>
14

> <i_i_glide_lignum>
3200

> <i_i_glide_posenum>
291

> <i_i_glide_rotatable_bonds>
7

> <i_m_Source_File_Index>
5128

> <b_m_subgroup_collapsed>
0

> <r_i_docking_score>
-5.99337

> <r_i_glide_ecoul>
-5.87908

> <r_i_glide_eff_state_penalty>
0

> <r_i_glide_einternal>
6.70904

> <r_i_glide_emodel>
-63.3033

> <r_i_glide_energy>
-49.0495

> <r_i_glide_erotb>
0.545464

> <r_i_glide_esite>
-0.144292

> <r_i_glide_evdw>
-43.1704

> <r_i_glide_gscore>
-5.99337

> <r_i_glide_hbond>
-0.16

> <r_i_glide_ligand_efficiency>
-0.176275

> <r_i_glide_ligand_efficiency_ln>
-1.3241

> <r_i_glide_ligand_efficiency_sa>
-0.571064

> <r_i_glide_lipo>
-2.18493

> <r_i_glide_metal>
0

> <r_i_glide_rewards>
-1.00923

> <s_i_glide_gridfile>
wee1_glide-grid

> <s_m_Source_File>
wee1_decoys_glide_SP.sdf

> <s_m_Source_Path>
/Users/zhangxujun/Desktop

> <s_m_entry_id>
5403

> <s_m_entry_name>
wee1_decoys_glide_SP.5128

> <s_m_subgroup_title>
wee1_decoys_glide_SP

> <s_m_subgroupid>
wee1_decoys_glide_SP


$$$$
