ZINC20744650_274
                    3D
 Schrodinger Suite 2024-2.
 54 56  0  0  1  0            999 V2000
   -0.0965   52.5189   29.3883 C   0  0  0  0  0  0
    1.3820   52.6363   28.9870 C   0  0  0  0  0  0
    1.7613   54.0106   28.3742 C   0  0  1  0  0  0
    0.9142   54.3233   27.7612 H   0  0  0  0  0  0
    1.8856   55.0815   29.4765 C   0  0  0  0  0  0
    3.0081   54.0204   27.4246 C   0  0  1  0  0  0
    3.2096   55.0800   27.2451 H   0  0  0  0  0  0
    4.2931   53.4057   27.9933 C   0  0  0  0  0  0
    4.3172   52.5472   28.8817 O   0  0  0  0  0  0
    5.3944   53.9570   27.4309 O   0  0  0  0  0  0
    6.6954   53.5627   27.8410 C   0  0  0  0  0  0
    2.7063   53.3862   26.1189 N   0  0  0  0  0  0
    3.1034   53.8616   24.9153 C   0  0  0  0  0  0
    3.9797   54.7248   24.8372 O   0  0  0  0  0  0
    2.4325   53.4084   23.8128 N   0  0  0  0  0  0
    2.6028   54.1528   22.5380 C   0  0  0  0  0  0
    3.6023   53.4261   21.5955 C   0  0  0  0  0  0
    3.1641   51.9811   21.5089 C   0  0  0  0  0  0
    2.3048   51.3869   22.4266 C   0  0  0  0  0  0
    2.0796   50.0882   21.9956 N   0  3  0  0  0  0
    2.7037   49.9120   20.7774 C   0  0  0  0  0  0
    3.3750   51.0788   20.4788 N   0  0  0  0  0  0
    3.9269   51.2441   19.6399 H   0  0  0  0  0  0
    1.7699   52.0683   23.6929 C   0  0  2  0  0  0
    2.0816   51.4715   24.5436 H   0  0  0  0  0  0
    0.2347   52.0997   23.7739 C   0  0  0  0  0  0
   -0.5442   52.0940   22.6062 C   0  0  0  0  0  0
   -1.9342   52.0968   22.6779 C   0  0  0  0  0  0
   -2.5707   52.1100   23.9165 C   0  0  0  0  0  0
   -1.8137   52.0979   25.0877 C   0  0  0  0  0  0
   -0.4183   52.0774   25.0158 C   0  0  0  0  0  0
    0.2946   52.0152   26.1591 F   0  0  0  0  0  0
   -2.4293   52.0996   26.2940 F   0  0  0  0  0  0
   -3.9217   52.1266   23.9758 F   0  0  0  0  0  0
   -0.3584   51.4810   29.5940 H   0  0  0  0  0  0
   -0.3134   53.0930   30.2885 H   0  0  0  0  0  0
   -0.7516   52.8705   28.5933 H   0  0  0  0  0  0
    1.9966   52.4397   29.8667 H   0  0  0  0  0  0
    1.6145   51.8358   28.2838 H   0  0  0  0  0  0
    2.7536   54.8917   30.1068 H   0  0  0  0  0  0
    2.0040   56.0756   29.0453 H   0  0  0  0  0  0
    1.0002   55.1099   30.1130 H   0  0  0  0  0  0
    6.8582   53.7844   28.8950 H   0  0  0  0  0  0
    6.8515   52.4971   27.6822 H   0  0  0  0  0  0
    7.4424   54.1065   27.2639 H   0  0  0  0  0  0
    1.9815   52.6815   26.1448 H   0  0  0  0  0  0
    1.6143   54.1862   22.0813 H   0  0  0  0  0  0
    2.8428   55.2047   22.6976 H   0  0  0  0  0  0
    3.6129   53.9066   20.6159 H   0  0  0  0  0  0
    4.6162   53.5109   21.9896 H   0  0  0  0  0  0
    2.6937   49.0140   20.1735 H   0  0  0  0  0  0
   -0.0784   52.0990   21.6323 H   0  0  0  0  0  0
   -2.5142   52.0925   21.7691 H   0  0  0  0  0  0
    1.5232   49.3991   22.4854 H   0  0  0  0  0  0
  1  2  1  0  0  0
  1 35  1  0  0  0
  1 36  1  0  0  0
  1 37  1  0  0  0
  2  3  1  0  0  0
  2 38  1  0  0  0
  2 39  1  0  0  0
  3  4  1  0  0  0
  3  5  1  0  0  0
  3  6  1  0  0  0
  5 40  1  0  0  0
  5 41  1  0  0  0
  5 42  1  0  0  0
  6  7  1  0  0  0
  6  8  1  0  0  0
  6 12  1  0  0  0
  8  9  2  0  0  0
  8 10  1  0  0  0
 10 11  1  0  0  0
 11 43  1  0  0  0
 11 44  1  0  0  0
 11 45  1  0  0  0
 12 13  1  0  0  0
 12 46  1  0  0  0
 13 14  2  0  0  0
 13 15  1  0  0  0
 15 24  1  0  0  0
 15 16  1  0  0  0
 16 17  1  0  0  0
 16 47  1  0  0  0
 16 48  1  0  0  0
 17 18  1  0  0  0
 17 49  1  0  0  0
 17 50  1  0  0  0
 18 22  1  0  0  0
 18 19  2  0  0  0
 19 20  1  0  0  0
 19 24  1  0  0  0
 20 21  2  0  0  0
 20 54  1  0  0  0
 21 22  1  0  0  0
 21 51  1  0  0  0
 22 23  1  0  0  0
 24 25  1  0  0  0
 24 26  1  0  0  0
 26 31  2  0  0  0
 26 27  1  0  0  0
 27 28  2  0  0  0
 27 52  1  0  0  0
 28 29  1  0  0  0
 28 53  1  0  0  0
 29 30  2  0  0  0
 29 34  1  0  0  0
 30 31  1  0  0  0
 30 33  1  0  0  0
 31 32  1  0  0  0
M  CHG  1  20   1
M  END
> <i_i_glide_confnum>
91

> <i_i_glide_lignum>
275

> <i_i_glide_posenum>
347

> <i_i_glide_rotatable_bonds>
8

> <i_m_Source_File_Index>
1022

> <b_m_subgroup_collapsed>
0

> <r_i_docking_score>
-4.90496

> <r_i_glide_ecoul>
-2.61001

> <r_i_glide_eff_state_penalty>
0

> <r_i_glide_einternal>
10.1681

> <r_i_glide_emodel>
-48.8359

> <r_i_glide_energy>
-39.2963

> <r_i_glide_erotb>
0.657634

> <r_i_glide_esite>
-0.049001

> <r_i_glide_evdw>
-36.6863

> <r_i_glide_gscore>
-4.90496

> <r_i_glide_hbond>
-0.0773191

> <r_i_glide_ligand_efficiency>
-0.163499

> <r_i_glide_ligand_efficiency_ln>
-1.11446

> <r_i_glide_ligand_efficiency_sa>
-0.508029

> <r_i_glide_lipo>
-1.61836

> <r_i_glide_metal>
0

> <r_i_glide_rewards>
-1.5921

> <s_i_glide_gridfile>
wee1_glide-grid

> <s_m_Source_File>
wee1_decoys_glide_SP.sdf

> <s_m_Source_Path>
/Users/zhangxujun/Desktop

> <s_m_entry_id>
1297

> <s_m_entry_name>
wee1_decoys_glide_SP.1022

> <s_m_subgroup_title>
wee1_decoys_glide_SP

> <s_m_subgroupid>
wee1_decoys_glide_SP


$$$$
