ZINC13438079_5944
                    3D
 Schrodinger Suite 2024-2.
 37 38  0  0  1  0            999 V2000
    4.0556   53.4122   19.2129 C   0  0  0  0  0  0
    3.8389   53.5050   20.7342 C   0  0  1  0  0  0
    3.1045   54.2843   20.9170 H   0  0  0  0  0  0
    3.2736   52.1790   21.2802 C   0  0  0  0  0  0
    4.0431   51.2990   21.6633 O   0  0  0  0  0  0
    1.9260   52.0752   21.2851 N   0  0  0  0  0  0
    1.0903   51.0802   21.8515 C   0  0  0  0  0  0
    1.5535   50.2387   22.8791 C   0  0  0  0  0  0
    0.7162   49.2972   23.4675 C   0  0  0  0  0  0
   -0.5961   49.1641   23.0395 C   0  0  0  0  0  0
   -1.0836   49.9994   22.0390 C   0  0  0  0  0  0
   -0.2647   50.9681   21.4299 C   0  0  0  0  0  0
   -0.8716   51.8415   20.3639 C   0  0  0  0  0  0
   -2.0972   52.0965   20.4384 O   0  0  0  0  0  0
   -1.8201   47.6997   23.8952 I   0  0  0  0  0  0
    5.3445   54.0967   21.5907 S   0  0  0  0  0  0
    5.1524   54.1046   23.3531 C   0  0  0  0  0  0
    3.8933   54.0968   23.9539 C   0  0  0  0  0  0
    3.7913   54.0996   25.3436 C   0  0  0  0  0  0
    4.9429   54.1225   26.1462 C   0  0  0  0  0  0
    6.1998   54.1507   25.5261 C   0  0  0  0  0  0
    6.3028   54.1473   24.1377 C   0  0  0  0  0  0
    4.8359   54.1054   27.6262 N   0  3  0  0  0  0
    3.7232   54.2015   28.1368 O   0  0  0  0  0  0
    5.8662   54.0018   28.2857 O   0  5  0  0  0  0
    3.1411   53.1231   18.6911 H   0  0  0  0  0  0
    4.3656   54.3733   18.8035 H   0  0  0  0  0  0
    4.8248   52.6819   18.9583 H   0  0  0  0  0  0
    1.4255   52.7259   20.6891 H   0  0  0  0  0  0
    2.5618   50.3021   23.2570 H   0  0  0  0  0  0
    1.0986   48.6646   24.2552 H   0  0  0  0  0  0
   -2.1134   49.8832   21.7299 H   0  0  0  0  0  0
    2.9941   54.0860   23.3581 H   0  0  0  0  0  0
    2.8087   54.0756   25.7944 H   0  0  0  0  0  0
    7.1024   54.1633   26.1178 H   0  0  0  0  0  0
    7.2777   54.1662   23.6720 H   0  0  0  0  0  0
   -0.1205   52.3148   19.4814 O   0  5  0  0  0  0
  1  2  1  0  0  0
  1 26  1  0  0  0
  1 27  1  0  0  0
  1 28  1  0  0  0
  2  3  1  0  0  0
  2  4  1  0  0  0
  2 16  1  0  0  0
  4  5  2  0  0  0
  4  6  1  0  0  0
  6  7  1  0  0  0
  6 29  1  0  0  0
  7 12  2  0  0  0
  7  8  1  0  0  0
  8  9  2  0  0  0
  8 30  1  0  0  0
  9 10  1  0  0  0
  9 31  1  0  0  0
 10 11  2  0  0  0
 10 15  1  0  0  0
 11 12  1  0  0  0
 11 32  1  0  0  0
 12 13  1  0  0  0
 13 14  2  0  0  0
 13 37  1  0  0  0
 16 17  1  0  0  0
 17 22  2  0  0  0
 17 18  1  0  0  0
 18 19  2  0  0  0
 18 33  1  0  0  0
 19 20  1  0  0  0
 19 34  1  0  0  0
 20 21  2  0  0  0
 20 23  1  0  0  0
 21 22  1  0  0  0
 21 35  1  0  0  0
 22 36  1  0  0  0
 23 24  2  0  0  0
 23 25  1  0  0  0
M  CHG  3  23   1  25  -1  37  -1
M  END
> <i_i_glide_confnum>
43

> <i_i_glide_lignum>
5945

> <i_i_glide_posenum>
220

> <i_i_glide_rotatable_bonds>
7

> <i_m_Source_File_Index>
5497

> <b_m_subgroup_collapsed>
0

> <r_i_docking_score>
-4.97944

> <r_i_glide_ecoul>
-6.34175

> <r_i_glide_eff_state_penalty>
0

> <r_i_glide_einternal>
3.69518

> <r_i_glide_emodel>
-54.6414

> <r_i_glide_energy>
-40.6703

> <r_i_glide_erotb>
0.455054

> <r_i_glide_esite>
-0.0253064

> <r_i_glide_evdw>
-34.3285

> <r_i_glide_gscore>
-4.97944

> <r_i_glide_hbond>
-0.153173

> <r_i_glide_ligand_efficiency>
-0.199177

> <r_i_glide_ligand_efficiency_ln>
-1.18028

> <r_i_glide_ligand_efficiency_sa>
-0.582399

> <r_i_glide_lipo>
-1.95174

> <r_i_glide_metal>
0

> <r_i_glide_rewards>
-0.636578

> <s_i_glide_gridfile>
wee1_glide-grid

> <s_m_Source_File>
wee1_decoys_glide_SP.sdf

> <s_m_Source_Path>
/Users/zhangxujun/Desktop

> <s_m_entry_id>
5772

> <s_m_entry_name>
wee1_decoys_glide_SP.5497

> <s_m_subgroup_title>
wee1_decoys_glide_SP

> <s_m_subgroupid>
wee1_decoys_glide_SP


$$$$
