ZINC09312774_4255
                    3D
 Schrodinger Suite 2024-2.
 54 57  0  0  1  0            999 V2000
   -0.6821   51.7462   29.3942 C   0  0  0  0  0  0
    0.0877   51.9357   28.0894 C   0  0  0  0  0  0
    0.8682   52.9895   27.6962 C   0  0  0  0  0  0
    1.5359   53.0356   26.2659 C   0  0  2  0  0  0
    1.1043   53.9203   25.8322 H   0  0  0  0  0  0
    1.1025   51.7957   25.4277 C   0  0  0  0  0  0
    0.3044   50.8254   25.9350 C   0  0  0  0  0  0
   -0.1578   50.8946   27.2226 N   0  0  0  0  0  0
   -0.1423   49.2917   25.1072 S   0  0  0  0  0  0
   -1.9232   49.0299   25.4571 C   0  0  0  0  0  0
   -2.4288   47.5904   25.2194 C   0  0  0  0  0  0
   -1.6940   46.6591   24.8864 O   0  0  0  0  0  0
   -3.8015   47.4190   25.2319 N   0  0  0  0  0  0
   -4.4648   47.3791   26.3245 C   0  0  0  0  0  0
   -4.0955   47.5220   27.6531 N   0  0  0  0  0  0
   -3.1220   47.7008   27.9093 H   0  0  0  0  0  0
   -5.0674   47.3827   28.6349 C   0  0  0  0  0  0
   -4.8959   47.4802   30.0157 C   0  0  0  0  0  0
   -5.9976   47.2968   30.8564 C   0  0  0  0  0  0
   -7.2541   47.0134   30.3144 C   0  0  0  0  0  0
   -7.4179   46.9239   28.9297 C   0  0  0  0  0  0
   -6.3150   47.1154   28.0969 C   0  0  0  0  0  0
   -6.2411   47.0723   26.3442 S   0  0  0  0  0  0
    1.5585   51.6286   24.0826 C   0  0  0  0  0  0
    1.9030   51.4416   22.9937 N   0  0  0  0  0  0
    3.0249   53.4830   26.1463 C   0  0  0  0  0  0
    3.8543   53.2963   27.2674 C   0  0  0  0  0  0
    5.1809   53.7085   27.2848 C   0  0  0  0  0  0
    5.7264   54.3118   26.1636 C   0  0  0  0  0  0
    4.9420   54.4962   25.0311 C   0  0  0  0  0  0
    3.5922   54.0981   24.9865 C   0  0  0  0  0  0
    2.8598   54.3427   23.7069 N   0  3  0  0  0  0
    1.6448   54.4970   23.6999 O   0  0  0  0  0  0
    3.5221   54.4124   22.6748 O   0  5  0  0  0  0
    1.1045   54.1873   28.5586 C   0  0  0  0  0  0
    1.5031   55.2507   28.0870 O   0  0  0  0  0  0
    0.9528   54.1542   30.0785 C   0  0  0  0  0  0
   -1.2948   52.6126   29.6183 H   0  0  0  0  0  0
   -1.3683   50.8968   29.3686 H   0  0  0  0  0  0
   -0.0029   51.5784   30.2268 H   0  0  0  0  0  0
   -0.5961   50.0579   27.5990 H   0  0  0  0  0  0
   -2.1396   49.2980   26.4817 H   0  0  0  0  0  0
   -2.4860   49.7059   24.8124 H   0  0  0  0  0  0
   -3.9239   47.6980   30.4369 H   0  0  0  0  0  0
   -5.8759   47.3686   31.9283 H   0  0  0  0  0  0
   -8.1027   46.8686   30.9667 H   0  0  0  0  0  0
   -8.3940   46.7133   28.5180 H   0  0  0  0  0  0
    3.4747   52.8048   28.1504 H   0  0  0  0  0  0
    5.7855   53.5452   28.1642 H   0  0  0  0  0  0
    6.7596   54.6233   26.1674 H   0  0  0  0  0  0
    5.3999   54.9614   24.1706 H   0  0  0  0  0  0
    1.4236   53.2638   30.4937 H   0  0  0  0  0  0
    1.4425   55.0228   30.5205 H   0  0  0  0  0  0
   -0.0924   54.1922   30.3739 H   0  0  0  0  0  0
  1  2  1  0  0  0
  1 38  1  0  0  0
  1 39  1  0  0  0
  1 40  1  0  0  0
  2  8  1  0  0  0
  2  3  2  0  0  0
  3  4  1  0  0  0
  3 35  1  0  0  0
  4  5  1  0  0  0
  4  6  1  0  0  0
  4 26  1  0  0  0
  6  7  2  0  0  0
  6 24  1  0  0  0
  7  8  1  0  0  0
  7  9  1  0  0  0
  8 41  1  0  0  0
  9 10  1  0  0  0
 10 11  1  0  0  0
 10 42  1  0  0  0
 10 43  1  0  0  0
 11 12  2  0  0  0
 11 13  1  0  0  0
 13 14  2  0  0  0
 14 23  1  0  0  0
 14 15  1  0  0  0
 15 16  1  0  0  0
 15 17  1  0  0  0
 17 22  2  0  0  0
 17 18  1  0  0  0
 18 19  2  0  0  0
 18 44  1  0  0  0
 19 20  1  0  0  0
 19 45  1  0  0  0
 20 21  2  0  0  0
 20 46  1  0  0  0
 21 22  1  0  0  0
 21 47  1  0  0  0
 22 23  1  0  0  0
 24 25  3  0  0  0
 26 31  2  0  0  0
 26 27  1  0  0  0
 27 28  2  0  0  0
 27 48  1  0  0  0
 28 29  1  0  0  0
 28 49  1  0  0  0
 29 30  2  0  0  0
 29 50  1  0  0  0
 30 31  1  0  0  0
 30 51  1  0  0  0
 31 32  1  0  0  0
 32 33  2  0  0  0
 32 34  1  0  0  0
 35 36  2  0  0  0
 35 37  1  0  0  0
 37 52  1  0  0  0
 37 53  1  0  0  0
 37 54  1  0  0  0
M  CHG  2  32   1  34  -1
M  END
> <i_i_glide_confnum>
61

> <i_i_glide_lignum>
4256

> <i_i_glide_posenum>
227

> <i_i_glide_rotatable_bonds>
8

> <i_m_Source_File_Index>
1061

> <b_m_subgroup_collapsed>
0

> <r_i_docking_score>
-6.20048

> <r_i_glide_ecoul>
-7.72651

> <r_i_glide_eff_state_penalty>
0

> <r_i_glide_einternal>
12.1393

> <r_i_glide_emodel>
-66.3044

> <r_i_glide_energy>
-51.4029

> <r_i_glide_erotb>
0.400119

> <r_i_glide_esite>
-0.24853

> <r_i_glide_evdw>
-43.6764

> <r_i_glide_gscore>
-6.20048

> <r_i_glide_hbond>
-0.297701

> <r_i_glide_ligand_efficiency>
-0.177157

> <r_i_glide_ligand_efficiency_ln>
-1.36114

> <r_i_glide_ligand_efficiency_sa>
-0.579491

> <r_i_glide_lipo>
-1.93003

> <r_i_glide_metal>
0

> <r_i_glide_rewards>
-0.78154

> <s_i_glide_gridfile>
wee1_glide-grid

> <s_m_Source_File>
wee1_decoys_glide_SP.sdf

> <s_m_Source_Path>
/Users/zhangxujun/Desktop

> <s_m_entry_id>
1336

> <s_m_entry_name>
wee1_decoys_glide_SP.1061

> <s_m_subgroup_title>
wee1_decoys_glide_SP

> <s_m_subgroupid>
wee1_decoys_glide_SP


$$$$
