ZINC09949870_4369
                    3D
 Schrodinger Suite 2024-2.
 35 38  0  0  1  0            999 V2000
    4.6730   54.1008   28.0118 C   0  0  0  0  0  0
    3.3081   53.8962   28.2080 C   0  0  0  0  0  0
    2.4353   53.8841   27.1174 C   0  0  0  0  0  0
    2.9132   54.0937   25.8184 C   0  0  0  0  0  0
    4.2830   54.2960   25.6106 C   0  0  0  0  0  0
    5.1486   54.2839   26.7113 C   0  0  0  0  0  0
    6.6185   54.4552   26.4469 C   0  0  0  0  0  0
    7.5042   54.4966   27.2852 O   0  0  0  0  0  0
    6.9102   54.5597   25.1321 N   0  0  0  0  0  0
    7.8922   54.6077   24.9142 H   0  0  0  0  0  0
    6.0376   54.5626   24.0884 C   0  0  0  0  0  0
    4.7751   54.4965   24.3052 N   0  0  0  0  0  0
    6.6844   54.6292   22.7078 C   0  0  0  0  0  0
    5.5961   54.9747   21.2762 S   0  0  0  0  0  0
    4.6553   53.4993   21.0592 C   0  0  0  0  0  0
    4.0938   52.7939   22.0079 N   0  0  0  0  0  0
    3.3156   51.7458   21.5368 N   0  0  0  0  0  0
    3.3333   51.6664   20.2306 C   0  0  0  0  0  0
    4.2899   52.8994   19.4698 S   0  0  0  0  0  0
    2.7045   50.7203   19.4635 N   0  0  0  0  0  0
    1.7097   49.7560   19.9025 C   0  0  0  0  0  0
    2.0009   48.3062   19.5714 C   0  0  0  0  0  0
    2.1139   48.7820   20.9919 C   0  0  0  0  0  0
    1.6696   54.0937   24.3680 Br  0  0  0  0  0  0
    2.6387   53.6207   29.9676 Br  0  0  0  0  0  0
    5.3466   54.1003   28.8598 H   0  0  0  0  0  0
    1.3808   53.7172   27.2835 H   0  0  0  0  0  0
    7.4880   55.3724   22.7009 H   0  0  0  0  0  0
    7.1880   53.6933   22.5260 H   0  0  0  0  0  0
    3.0175   50.5650   18.5101 H   0  0  0  0  0  0
    0.6803   50.1168   19.8806 H   0  0  0  0  0  0
    1.1673   47.6659   19.2853 H   0  0  0  0  0  0
    2.9093   48.0746   19.0104 H   0  0  0  0  0  0
    3.0955   48.8900   21.4522 H   0  0  0  0  0  0
    1.3551   48.4971   21.7188 H   0  0  0  0  0  0
  1  6  2  0  0  0
  1  2  1  0  0  0
  1 26  1  0  0  0
  2  3  2  0  0  0
  2 25  1  0  0  0
  3  4  1  0  0  0
  3 27  1  0  0  0
  4  5  2  0  0  0
  4 24  1  0  0  0
  5 12  1  0  0  0
  5  6  1  0  0  0
  6  7  1  0  0  0
  7  8  2  0  0  0
  7  9  1  0  0  0
  9 10  1  0  0  0
  9 11  1  0  0  0
 11 12  2  0  0  0
 11 13  1  0  0  0
 13 14  1  0  0  0
 13 28  1  0  0  0
 13 29  1  0  0  0
 14 15  1  0  0  0
 15 19  1  0  0  0
 15 16  2  0  0  0
 16 17  1  0  0  0
 17 18  2  0  0  0
 18 19  1  0  0  0
 18 20  1  0  0  0
 20 21  1  0  0  0
 20 30  1  0  0  0
 21 23  1  0  0  0
 21 22  1  0  0  0
 21 31  1  0  0  0
 22 23  1  0  0  0
 22 32  1  0  0  0
 22 33  1  0  0  0
 23 34  1  0  0  0
 23 35  1  0  0  0
M  END
> <i_i_glide_confnum>
15

> <i_i_glide_lignum>
4370

> <i_i_glide_posenum>
127

> <i_i_glide_rotatable_bonds>
5

> <i_m_Source_File_Index>
3819

> <b_m_subgroup_collapsed>
0

> <r_i_docking_score>
-6.14654

> <r_i_glide_ecoul>
-4.20923

> <r_i_glide_eff_state_penalty>
0

> <r_i_glide_einternal>
1.41035

> <r_i_glide_emodel>
-62.4678

> <r_i_glide_energy>
-43.8834

> <r_i_glide_erotb>
0.297487

> <r_i_glide_esite>
-0.0827341

> <r_i_glide_evdw>
-39.6742

> <r_i_glide_gscore>
-6.14654

> <r_i_glide_hbond>
-0.470224

> <r_i_glide_ligand_efficiency>
-0.256106

> <r_i_glide_ligand_efficiency_ln>
-1.47115

> <r_i_glide_ligand_efficiency_sa>
-0.738737

> <r_i_glide_lipo>
-2.47129

> <r_i_glide_metal>
0

> <r_i_glide_rewards>
-0.804684

> <s_i_glide_gridfile>
wee1_glide-grid

> <s_m_Source_File>
wee1_decoys_glide_SP.sdf

> <s_m_Source_Path>
/Users/zhangxujun/Desktop

> <s_m_entry_id>
4094

> <s_m_entry_name>
wee1_decoys_glide_SP.3819

> <s_m_subgroup_title>
wee1_decoys_glide_SP

> <s_m_subgroupid>
wee1_decoys_glide_SP


$$$$
