ZINC67052042_1460
                    3D
 Schrodinger Suite 2024-2.
 41 44  0  0  1  0            999 V2000
   -2.7527   50.7445   25.8535 C   0  0  0  0  0  0
   -1.3428   50.3519   25.9284 N   0  0  0  0  0  0
   -0.4081   50.8968   26.7530 C   0  0  0  0  0  0
    0.7038   50.3203   26.6286 N   0  0  0  0  0  0
    0.4838   49.3400   25.7683 N   0  0  0  0  0  0
   -0.7694   49.2929   25.2778 C   0  0  0  0  0  0
   -1.3750   48.1967   24.1769 S   0  0  0  0  0  0
   -0.7524   52.0380   27.7219 C   0  0  0  0  0  0
    0.3507   52.3805   28.7579 C   0  0  0  0  0  0
    1.6007   52.8627   28.1597 N   0  0  0  0  0  0
    2.6068   53.4603   28.8317 C   0  0  0  0  0  0
    2.5722   53.6768   30.0454 O   0  0  0  0  0  0
    3.7756   53.8238   28.0474 C   0  0  0  0  0  0
    5.0034   54.2144   28.5862 C   0  0  0  0  0  0
    6.1474   54.4972   27.3159 S   0  0  0  0  0  0
    4.8749   54.1988   26.1679 C   0  0  0  0  0  0
    3.7336   53.8467   26.7196 N   0  0  0  0  0  0
    5.0980   54.3253   24.6890 C   0  0  0  0  0  0
    6.3239   54.7988   24.1676 C   0  0  0  0  0  0
    6.5469   54.8946   22.7871 C   0  0  0  0  0  0
    5.5173   54.4952   21.9445 C   0  0  0  0  0  0
    4.3277   54.0396   22.4299 C   0  0  0  0  0  0
    4.0754   53.9567   23.7928 C   0  0  0  0  0  0
    3.5079   53.7149   21.3980 O   0  0  0  0  0  0
    4.2737   53.8690   20.2312 C   0  0  0  0  0  0
    5.4836   54.4907   20.5879 O   0  0  0  0  0  0
   -2.8891   51.8088   26.0454 H   0  0  0  0  0  0
   -3.1761   50.5316   24.8711 H   0  0  0  0  0  0
   -3.3260   50.1878   26.5951 H   0  0  0  0  0  0
    1.2171   48.6901   25.5199 H   0  0  0  0  0  0
   -1.0055   52.9338   27.1567 H   0  0  0  0  0  0
   -1.6443   51.7576   28.2834 H   0  0  0  0  0  0
   -0.0377   53.1432   29.4368 H   0  0  0  0  0  0
    0.5591   51.5073   29.3803 H   0  0  0  0  0  0
    1.7687   52.5738   27.2067 H   0  0  0  0  0  0
    5.2781   54.3261   29.6252 H   0  0  0  0  0  0
    7.1291   55.0921   24.8235 H   0  0  0  0  0  0
    7.4921   55.2557   22.4050 H   0  0  0  0  0  0
    3.1233   53.5906   24.1500 H   0  0  0  0  0  0
    3.7268   54.4963   19.5205 H   0  0  0  0  0  0
    4.4808   52.8843   19.7977 H   0  0  0  0  0  0
  1 27  1  0  0  0
  1 28  1  0  0  0
  1 29  1  0  0  0
  1  2  1  0  0  0
  2  6  1  0  0  0
  2  3  1  0  0  0
  3  8  1  0  0  0
  3  4  2  0  0  0
  4  5  1  0  0  0
  5  6  1  0  0  0
  5 30  1  0  0  0
  6  7  2  0  0  0
  8  9  1  0  0  0
  8 31  1  0  0  0
  8 32  1  0  0  0
  9 10  1  0  0  0
  9 33  1  0  0  0
  9 34  1  0  0  0
 10 11  1  0  0  0
 10 35  1  0  0  0
 11 12  2  0  0  0
 11 13  1  0  0  0
 13 17  1  0  0  0
 13 14  2  0  0  0
 14 15  1  0  0  0
 14 36  1  0  0  0
 15 16  1  0  0  0
 16 17  2  0  0  0
 16 18  1  0  0  0
 18 23  2  0  0  0
 18 19  1  0  0  0
 19 20  2  0  0  0
 19 37  1  0  0  0
 20 21  1  0  0  0
 20 38  1  0  0  0
 21 26  1  0  0  0
 21 22  2  0  0  0
 22 23  1  0  0  0
 22 24  1  0  0  0
 23 39  1  0  0  0
 24 25  1  0  0  0
 25 26  1  0  0  0
 25 40  1  0  0  0
 25 41  1  0  0  0
M  END
> <i_i_glide_confnum>
114

> <i_i_glide_lignum>
1461

> <i_i_glide_posenum>
121

> <i_i_glide_rotatable_bonds>
6

> <i_m_Source_File_Index>
3953

> <b_m_subgroup_collapsed>
0

> <r_i_docking_score>
-6.63176

> <r_i_glide_ecoul>
-5.21356

> <r_i_glide_eff_state_penalty>
0

> <r_i_glide_einternal>
3.75204

> <r_i_glide_emodel>
-68.9386

> <r_i_glide_energy>
-49.4198

> <r_i_glide_erotb>
0.771169

> <r_i_glide_esite>
-0.296368

> <r_i_glide_evdw>
-44.2063

> <r_i_glide_gscore>
-6.63176

> <r_i_glide_hbond>
-0.35317

> <r_i_glide_ligand_efficiency>
-0.255068

> <r_i_glide_ligand_efficiency_ln>
-1.55745

> <r_i_glide_ligand_efficiency_sa>
-0.755637

> <r_i_glide_lipo>
-2.6565

> <r_i_glide_metal>
0

> <r_i_glide_rewards>
-1.10454

> <s_i_glide_gridfile>
wee1_glide-grid

> <s_m_Source_File>
wee1_decoys_glide_SP.sdf

> <s_m_Source_Path>
/Users/zhangxujun/Desktop

> <s_m_entry_id>
4228

> <s_m_entry_name>
wee1_decoys_glide_SP.3953

> <s_m_subgroup_title>
wee1_decoys_glide_SP

> <s_m_subgroupid>
wee1_decoys_glide_SP


$$$$
