ZINC65477296_6216
                    3D
 Schrodinger Suite 2024-2.
 54 55  0  0  1  0            999 V2000
   -0.1638   52.0745   24.4832 C   0  0  0  0  0  0
    1.1827   52.4498   25.1268 C   0  0  1  0  0  0
    1.7310   53.7716   24.5721 C   0  0  0  0  0  0
    3.1228   54.0741   25.1452 C   0  0  0  0  0  0
    3.0455   54.1517   26.6960 N   0  3  1  0  0  0
    2.4093   52.8935   27.3452 C   0  0  0  0  0  0
    1.0671   52.5606   26.6602 C   0  0  0  0  0  0
    4.3922   54.6143   27.3415 C   0  0  1  0  0  0
    4.1959   54.8965   28.8450 C   0  0  0  0  0  0
    5.5859   53.6546   27.0891 C   0  0  0  0  0  0
    6.1549   53.6967   25.7428 N   0  0  0  0  0  0
    6.6787   54.7429   25.1069 C   0  0  0  0  0  0
    7.0281   55.7684   25.6816 O   0  0  0  0  0  0
    6.7044   54.5654   23.7766 N   0  0  0  0  0  0
    6.9020   55.6597   22.8310 C   0  0  0  0  0  0
    6.6085   55.2963   21.3927 C   0  0  0  0  0  0
    7.4140   55.5278   20.2779 C   0  0  0  0  0  0
    6.8579   55.1185   19.0660 C   0  0  0  0  0  0
    5.6078   54.5478   19.2193 C   0  0  0  0  0  0
    5.1331   54.4971   20.8886 S   0  0  0  0  0  0
    4.5456   54.0467   17.8404 S   0  0  0  0  0  0
    3.4543   55.0238   17.7801 O   0  0  0  0  0  0
    5.4380   53.8154   16.7000 O   0  0  0  0  0  0
    3.9042   52.4967   18.3625 N   0  0  0  0  0  0
    2.8946   52.3845   19.4302 C   0  0  0  0  0  0
   -0.9297   52.8251   24.6832 H   0  0  0  0  0  0
   -0.5298   51.1193   24.8628 H   0  0  0  0  0  0
   -0.0710   51.9772   23.4009 H   0  0  0  0  0  0
    1.9043   51.6736   24.8817 H   0  0  0  0  0  0
    1.7902   53.7173   23.4835 H   0  0  0  0  0  0
    1.0366   54.5826   24.7609 H   0  0  0  0  0  0
    3.8324   53.2970   24.8723 H   0  0  0  0  0  0
    3.4699   55.0458   24.7909 H   0  0  0  0  0  0
    3.1380   52.0955   27.2818 H   0  0  0  0  0  0
    2.2104   53.1269   28.3909 H   0  0  0  0  0  0
    0.3134   53.2967   26.9361 H   0  0  0  0  0  0
    0.6759   51.6235   27.0614 H   0  0  0  0  0  0
    4.5835   55.5575   26.8297 H   0  0  0  0  0  0
    5.1117   55.2966   29.2812 H   0  0  0  0  0  0
    3.3972   55.6171   29.0242 H   0  0  0  0  0  0
    3.9752   53.9916   29.4098 H   0  0  0  0  0  0
    6.3969   53.8835   27.7851 H   0  0  0  0  0  0
    5.3096   52.6244   27.3098 H   0  0  0  0  0  0
    6.1546   52.8095   25.2602 H   0  0  0  0  0  0
    6.5748   53.6446   23.3881 H   0  0  0  0  0  0
    6.3044   56.4966   23.1520 H   0  0  0  0  0  0
    7.9044   56.0444   22.9156 H   0  0  0  0  0  0
    8.3866   55.9954   20.3417 H   0  0  0  0  0  0
    7.3407   55.2501   18.1077 H   0  0  0  0  0  0
    4.4786   51.6501   18.1681 H   0  0  0  0  0  0
    2.2459   51.5317   19.2285 H   0  0  0  0  0  0
    3.3915   52.2204   20.3857 H   0  0  0  0  0  0
    2.3035   53.2965   19.4930 H   0  0  0  0  0  0
    2.3884   54.8986   26.8754 H   0  0  0  0  0  0
  1  2  1  0  0  0
  1 26  1  0  0  0
  1 27  1  0  0  0
  1 28  1  0  0  0
  2  7  1  0  0  0
  2  3  1  0  0  0
  2 29  1  0  0  0
  3  4  1  0  0  0
  3 30  1  0  0  0
  3 31  1  0  0  0
  4  5  1  0  0  0
  4 32  1  0  0  0
  4 33  1  0  0  0
  5  6  1  0  0  0
  5  8  1  0  0  0
  5 54  1  0  0  0
  6  7  1  0  0  0
  6 34  1  0  0  0
  6 35  1  0  0  0
  7 36  1  0  0  0
  7 37  1  0  0  0
  8  9  1  0  0  0
  8 10  1  0  0  0
  8 38  1  0  0  0
  9 39  1  0  0  0
  9 40  1  0  0  0
  9 41  1  0  0  0
 10 11  1  0  0  0
 10 42  1  0  0  0
 10 43  1  0  0  0
 11 12  1  0  0  0
 11 44  1  0  0  0
 12 13  2  0  0  0
 12 14  1  0  0  0
 14 15  1  0  0  0
 14 45  1  0  0  0
 15 16  1  0  0  0
 15 46  1  0  0  0
 15 47  1  0  0  0
 16 20  1  0  0  0
 16 17  2  0  0  0
 17 18  1  0  0  0
 17 48  1  0  0  0
 18 19  2  0  0  0
 18 49  1  0  0  0
 19 20  1  0  0  0
 19 21  1  0  0  0
 21 22  2  0  0  0
 21 23  2  0  0  0
 21 24  1  0  0  0
 24 25  1  0  0  0
 24 50  1  0  0  0
 25 51  1  0  0  0
 25 52  1  0  0  0
 25 53  1  0  0  0
M  CHG  1   5   1
M  END
> <i_i_glide_confnum>
1

> <i_i_glide_lignum>
6217

> <i_i_glide_posenum>
50

> <i_i_glide_rotatable_bonds>
9

> <i_m_Source_File_Index>
3100

> <b_m_subgroup_collapsed>
0

> <r_i_docking_score>
-4.85819

> <r_i_glide_ecoul>
-7.79014

> <r_i_glide_eff_state_penalty>
0

> <r_i_glide_einternal>
4.58506

> <r_i_glide_emodel>
-45.2321

> <r_i_glide_energy>
-35.094

> <r_i_glide_erotb>
1.02773

> <r_i_glide_esite>
-0.117962

> <r_i_glide_evdw>
-27.3039

> <r_i_glide_gscore>
-4.85819

> <r_i_glide_hbond>
-0.456

> <r_i_glide_ligand_efficiency>
-0.194328

> <r_i_glide_ligand_efficiency_ln>
-1.15154

> <r_i_glide_ligand_efficiency_sa>
-0.568218

> <r_i_glide_lipo>
-2.235

> <r_i_glide_metal>
0

> <r_i_glide_rewards>
-0.543248

> <s_i_glide_gridfile>
wee1_glide-grid

> <s_m_Source_File>
wee1_decoys_glide_SP.sdf

> <s_m_Source_Path>
/Users/zhangxujun/Desktop

> <s_m_entry_id>
3375

> <s_m_entry_name>
wee1_decoys_glide_SP.3100

> <s_m_subgroup_title>
wee1_decoys_glide_SP

> <s_m_subgroupid>
wee1_decoys_glide_SP


$$$$
