ZINC39753498_347
                    3D
 Schrodinger Suite 2024-2.
 68 71  0  0  1  0            999 V2000
    1.7991   56.3205   29.7677 C   0  0  0  0  0  0
    1.0032   55.1557   29.9631 O   0  0  0  0  0  0
    0.9733   54.1887   28.9752 C   0  0  0  0  0  0
    1.9174   54.0900   27.9422 C   0  0  0  0  0  0
    1.8244   53.0730   26.9925 C   0  0  0  0  0  0
    0.7769   52.1538   27.0525 C   0  0  0  0  0  0
   -0.1830   52.2408   28.0663 C   0  0  0  0  0  0
   -0.0665   53.2554   29.0314 C   0  0  0  0  0  0
   -1.1897   51.2966   28.0404 O   0  0  0  0  0  0
   -2.1989   51.2786   29.0364 C   0  0  0  0  0  0
    0.7043   51.1136   26.1193 N   0  0  0  0  0  0
   -0.2318   51.3085   24.6379 S   0  0  0  0  0  0
   -1.0823   52.4967   24.7874 O   0  0  0  0  0  0
   -0.8029   49.9941   24.3276 O   0  0  0  0  0  0
    0.9783   51.6794   23.3733 C   0  0  0  0  0  0
    1.4449   52.9842   23.2369 C   0  0  0  0  0  0
    2.3275   53.2967   22.2073 C   0  0  0  0  0  0
    2.7373   52.3055   21.3010 C   0  0  0  0  0  0
    2.2921   50.9919   21.4694 C   0  0  0  0  0  0
    1.4221   50.6756   22.5107 C   0  0  0  0  0  0
    3.5265   52.5621   20.1635 N   0  0  0  0  0  0
    4.3055   53.6350   19.9024 C   0  0  0  0  0  0
    4.5899   54.4966   20.7360 O   0  0  0  0  0  0
    4.9368   53.7502   18.4954 C   0  0  2  0  0  0
    4.0858   53.1172   17.3617 C   0  0  0  0  0  0
    4.8222   53.2451   16.0079 C   0  0  0  0  0  0
    6.2360   52.6091   16.1081 N   0  3  2  0  0  0
    7.0793   53.2743   17.2238 C   0  0  0  0  0  0
    6.3516   53.1576   18.5719 C   0  0  0  0  0  0
    6.9663   52.6973   14.7386 C   0  0  0  0  0  0
    8.2833   51.9254   14.6411 C   0  0  0  0  0  0
    9.4797   52.5110   15.0693 C   0  0  0  0  0  0
   10.6707   51.7907   15.0157 C   0  0  0  0  0  0
   10.6715   50.4945   14.5078 C   0  0  0  0  0  0
    9.4964   49.9222   14.0293 C   0  0  0  0  0  0
    8.3049   50.6426   14.0820 C   0  0  0  0  0  0
   11.8226   49.7859   14.4828 F   0  0  0  0  0  0
    1.6820   56.9881   30.6215 H   0  0  0  0  0  0
    2.8586   56.0841   29.6809 H   0  0  0  0  0  0
    1.4883   56.8708   28.8789 H   0  0  0  0  0  0
    2.7413   54.7829   27.8677 H   0  0  0  0  0  0
    2.5699   52.9962   26.2142 H   0  0  0  0  0  0
   -0.7846   53.3397   29.8310 H   0  0  0  0  0  0
   -2.7806   50.3613   28.9419 H   0  0  0  0  0  0
   -1.7858   51.2963   30.0463 H   0  0  0  0  0  0
   -2.8993   52.0966   28.8811 H   0  0  0  0  0  0
    0.4903   50.2153   26.5320 H   0  0  0  0  0  0
    1.0993   53.7631   23.9012 H   0  0  0  0  0  0
    2.6270   54.3273   22.0922 H   0  0  0  0  0  0
    2.5997   50.2135   20.7857 H   0  0  0  0  0  0
    1.0711   49.6600   22.6215 H   0  0  0  0  0  0
    3.5533   51.8208   19.4790 H   0  0  0  0  0  0
    4.9999   54.8254   18.3166 H   0  0  0  0  0  0
    3.1383   53.6458   17.2464 H   0  0  0  0  0  0
    3.9076   52.0510   17.5102 H   0  0  0  0  0  0
    4.9475   54.2844   15.6933 H   0  0  0  0  0  0
    4.2818   52.6873   15.2394 H   0  0  0  0  0  0
    8.0152   52.7200   17.2917 H   0  0  0  0  0  0
    7.2713   54.3091   16.9330 H   0  0  0  0  0  0
    6.3101   52.0980   18.8305 H   0  0  0  0  0  0
    6.9694   53.7118   19.2810 H   0  0  0  0  0  0
    7.1158   53.7614   14.5465 H   0  0  0  0  0  0
    6.2511   52.3212   14.0025 H   0  0  0  0  0  0
    9.4917   53.5159   15.4655 H   0  0  0  0  0  0
   11.5901   52.2279   15.3735 H   0  0  0  0  0  0
    9.5148   48.9215   13.6238 H   0  0  0  0  0  0
    7.3984   50.1893   13.7065 H   0  0  0  0  0  0
    6.1136   51.6341   16.3591 H   0  0  0  0  0  0
  1  2  1  0  0  0
  1 38  1  0  0  0
  1 39  1  0  0  0
  1 40  1  0  0  0
  2  3  1  0  0  0
  3  8  2  0  0  0
  3  4  1  0  0  0
  4  5  2  0  0  0
  4 41  1  0  0  0
  5  6  1  0  0  0
  5 42  1  0  0  0
  6  7  2  0  0  0
  6 11  1  0  0  0
  7  8  1  0  0  0
  7  9  1  0  0  0
  8 43  1  0  0  0
  9 10  1  0  0  0
 10 44  1  0  0  0
 10 45  1  0  0  0
 10 46  1  0  0  0
 11 12  1  0  0  0
 11 47  1  0  0  0
 12 13  2  0  0  0
 12 14  2  0  0  0
 12 15  1  0  0  0
 15 20  2  0  0  0
 15 16  1  0  0  0
 16 17  2  0  0  0
 16 48  1  0  0  0
 17 18  1  0  0  0
 17 49  1  0  0  0
 18 19  2  0  0  0
 18 21  1  0  0  0
 19 20  1  0  0  0
 19 50  1  0  0  0
 20 51  1  0  0  0
 21 22  1  0  0  0
 21 52  1  0  0  0
 22 23  2  0  0  0
 22 24  1  0  0  0
 24 29  1  0  0  0
 24 25  1  0  0  0
 24 53  1  0  0  0
 25 26  1  0  0  0
 25 54  1  0  0  0
 25 55  1  0  0  0
 26 27  1  0  0  0
 26 56  1  0  0  0
 26 57  1  0  0  0
 27 28  1  0  0  0
 27 30  1  0  0  0
 27 68  1  0  0  0
 28 29  1  0  0  0
 28 58  1  0  0  0
 28 59  1  0  0  0
 29 60  1  0  0  0
 29 61  1  0  0  0
 30 31  1  0  0  0
 30 62  1  0  0  0
 30 63  1  0  0  0
 31 36  2  0  0  0
 31 32  1  0  0  0
 32 33  2  0  0  0
 32 64  1  0  0  0
 33 34  1  0  0  0
 33 65  1  0  0  0
 34 35  2  0  0  0
 34 37  1  0  0  0
 35 36  1  0  0  0
 35 66  1  0  0  0
 36 67  1  0  0  0
M  CHG  1  27   1
M  END
> <i_i_glide_confnum>
131

> <i_i_glide_lignum>
348

> <i_i_glide_posenum>
323

> <i_i_glide_rotatable_bonds>
10

> <i_m_Source_File_Index>
303

> <b_m_subgroup_collapsed>
0

> <r_i_docking_score>
-4.00156

> <r_i_glide_ecoul>
-4.14813

> <r_i_glide_eff_state_penalty>
0

> <r_i_glide_einternal>
18.9214

> <r_i_glide_emodel>
-49.2269

> <r_i_glide_energy>
-44.1565

> <r_i_glide_erotb>
0.589834

> <r_i_glide_esite>
-0.131488

> <r_i_glide_evdw>
-40.0084

> <r_i_glide_gscore>
-4.00156

> <r_i_glide_hbond>
-0.0777005

> <r_i_glide_ligand_efficiency>
-0.10815

> <r_i_glide_ligand_efficiency_ln>
-0.867844

> <r_i_glide_ligand_efficiency_sa>
-0.360381

> <r_i_glide_lipo>
-1.79434

> <r_i_glide_metal>
0

> <r_i_glide_rewards>
0.0347792

> <s_i_glide_gridfile>
wee1_glide-grid

> <s_m_Source_File>
wee1_decoys_glide_SP.sdf

> <s_m_Source_Path>
/Users/zhangxujun/Desktop

> <s_m_entry_id>
578

> <s_m_entry_name>
wee1_decoys_glide_SP.303

> <s_m_subgroup_title>
wee1_decoys_glide_SP

> <s_m_subgroupid>
wee1_decoys_glide_SP


$$$$
