ZINC06507101_1555
                    3D
 Schrodinger Suite 2024-2.
 49 52  0  0  1  0            999 V2000
    0.3813   48.9108   25.8217 C   0  0  0  0  0  0
   -0.9649   48.9114   25.1490 C   0  0  0  0  0  0
   -1.9898   49.8442   24.9610 C   0  0  0  0  0  0
   -2.9626   49.0832   24.2754 C   0  0  0  0  0  0
   -2.6336   47.8371   24.0482 N   0  0  0  0  0  0
   -1.4229   47.7502   24.5921 N   0  0  0  0  0  0
   -0.9066   46.8847   24.6158 H   0  0  0  0  0  0
   -4.1901   49.5311   23.8647 O   0  0  0  0  0  0
   -4.4471   50.8308   24.1442 C   0  0  0  0  0  0
   -3.6352   51.6995   24.7944 C   0  0  0  0  0  0
   -2.2295   51.3252   25.3488 C   0  0  0  0  0  0
   -1.1748   52.2954   24.7542 C   0  0  0  0  0  0
    0.2159   52.3523   25.4312 C   0  0  0  0  0  0
    0.1060   52.3020   26.9148 N   0  0  0  0  0  0
   -0.8900   51.4449   27.5914 C   0  0  0  0  0  0
   -2.2509   51.5318   26.8807 C   0  0  0  0  0  0
    0.9862   53.0340   27.7401 C   0  0  0  0  0  0
    0.8994   53.1311   28.9679 O   0  0  0  0  0  0
    1.9841   53.6249   27.0308 O   0  0  0  0  0  0
    2.9992   54.3854   27.6834 C   0  0  0  0  0  0
    4.2709   54.4414   26.8470 C   0  0  0  0  0  0
    5.5077   54.4619   27.4966 C   0  0  0  0  0  0
    6.6843   54.4942   26.7547 C   0  0  0  0  0  0
    6.6228   54.5112   25.3627 C   0  0  0  0  0  0
    5.3941   54.5007   24.7083 C   0  0  0  0  0  0
    4.2167   54.4719   25.4495 C   0  0  0  0  0  0
   -4.1113   53.0334   25.0030 C   0  0  0  0  0  0
   -4.4964   54.1142   25.1470 N   0  0  0  0  0  0
   -5.7088   51.0912   23.6818 N   0  0  0  0  0  0
    0.8352   49.8818   25.9365 H   0  0  0  0  0  0
    0.3048   48.4969   26.8265 H   0  0  0  0  0  0
    1.1041   48.3036   25.2837 H   0  0  0  0  0  0
   -1.0481   52.1073   23.6877 H   0  0  0  0  0  0
   -1.5708   53.3073   24.8022 H   0  0  0  0  0  0
    0.9657   51.6729   25.0299 H   0  0  0  0  0  0
    0.5717   53.3448   25.1533 H   0  0  0  0  0  0
   -0.5049   50.4380   27.7302 H   0  0  0  0  0  0
   -1.0927   51.8264   28.5948 H   0  0  0  0  0  0
   -2.6797   52.5032   27.1216 H   0  0  0  0  0  0
   -2.9269   50.8078   27.3412 H   0  0  0  0  0  0
    2.6394   55.3981   27.8642 H   0  0  0  0  0  0
    3.2412   53.9445   28.6521 H   0  0  0  0  0  0
    5.5669   54.4433   28.5757 H   0  0  0  0  0  0
    7.6356   54.4964   27.2657 H   0  0  0  0  0  0
    7.5289   54.5238   24.7772 H   0  0  0  0  0  0
    5.3525   54.5138   23.6283 H   0  0  0  0  0  0
    3.2679   54.4674   24.9340 H   0  0  0  0  0  0
   -6.0758   52.0301   23.6621 H   0  0  0  0  0  0
   -6.3518   50.3329   23.5171 H   0  0  0  0  0  0
  1  2  1  0  0  0
  1 30  1  0  0  0
  1 31  1  0  0  0
  1 32  1  0  0  0
  2  6  1  0  0  0
  2  3  2  0  0  0
  3 11  1  0  0  0
  3  4  1  0  0  0
  4  5  2  0  0  0
  4  8  1  0  0  0
  5  6  1  0  0  0
  6  7  1  0  0  0
  8  9  1  0  0  0
  9 10  2  0  0  0
  9 29  1  0  0  0
 10 11  1  0  0  0
 10 27  1  0  0  0
 11 16  1  0  0  0
 11 12  1  0  0  0
 12 13  1  0  0  0
 12 33  1  0  0  0
 12 34  1  0  0  0
 13 14  1  0  0  0
 13 35  1  0  0  0
 13 36  1  0  0  0
 14 15  1  0  0  0
 14 17  1  0  0  0
 15 16  1  0  0  0
 15 37  1  0  0  0
 15 38  1  0  0  0
 16 39  1  0  0  0
 16 40  1  0  0  0
 17 18  2  0  0  0
 17 19  1  0  0  0
 19 20  1  0  0  0
 20 21  1  0  0  0
 20 41  1  0  0  0
 20 42  1  0  0  0
 21 26  2  0  0  0
 21 22  1  0  0  0
 22 23  2  0  0  0
 22 43  1  0  0  0
 23 24  1  0  0  0
 23 44  1  0  0  0
 24 25  2  0  0  0
 24 45  1  0  0  0
 25 26  1  0  0  0
 25 46  1  0  0  0
 26 47  1  0  0  0
 27 28  3  0  0  0
 29 48  1  0  0  0
 29 49  1  0  0  0
M  END
> <i_i_glide_confnum>
23

> <i_i_glide_lignum>
1556

> <i_i_glide_posenum>
201

> <i_i_glide_rotatable_bonds>
5

> <i_m_Source_File_Index>
3433

> <b_m_subgroup_collapsed>
0

> <r_i_docking_score>
-5.20991

> <r_i_glide_ecoul>
-3.04163

> <r_i_glide_eff_state_penalty>
0

> <r_i_glide_einternal>
3.25797

> <r_i_glide_emodel>
-52.4409

> <r_i_glide_energy>
-40.3962

> <r_i_glide_erotb>
0.404079

> <r_i_glide_esite>
-0.0576825

> <r_i_glide_evdw>
-37.3546

> <r_i_glide_gscore>
-5.20991

> <r_i_glide_hbond>
0

> <r_i_glide_ligand_efficiency>
-0.186068

> <r_i_glide_ligand_efficiency_ln>
-1.2026

> <r_i_glide_ligand_efficiency_sa>
-0.565013

> <r_i_glide_lipo>
-1.97268

> <r_i_glide_metal>
0

> <r_i_glide_rewards>
-1.25966

> <s_i_glide_gridfile>
wee1_glide-grid

> <s_m_Source_File>
wee1_decoys_glide_SP.sdf

> <s_m_Source_Path>
/Users/zhangxujun/Desktop

> <s_m_entry_id>
3708

> <s_m_entry_name>
wee1_decoys_glide_SP.3433

> <s_m_subgroup_title>
wee1_decoys_glide_SP

> <s_m_subgroupid>
wee1_decoys_glide_SP


$$$$
