ZINC23590736_4537
                    3D
 Schrodinger Suite 2024-2.
 43 46  0  0  1  0            999 V2000
    1.7957   49.0961   19.9836 C   0  0  0  0  0  0
    2.5185   50.2806   20.1199 C   0  0  0  0  0  0
    1.9615   51.3837   20.7866 C   0  0  0  0  0  0
    0.6660   51.2824   21.3088 C   0  0  0  0  0  0
   -0.0532   50.0943   21.1719 C   0  0  0  0  0  0
    0.5076   49.0028   20.5089 C   0  0  0  0  0  0
   -0.4965   47.3968   20.3094 Br  0  0  0  0  0  0
    0.0945   52.3283   21.9539 F   0  0  0  0  0  0
    2.6526   52.6008   20.9357 N   0  0  0  0  0  0
    3.9770   52.7617   21.1337 C   0  0  0  0  0  0
    4.7718   51.8311   21.2817 O   0  0  0  0  0  0
    4.4764   54.2135   21.1764 C   0  0  0  0  0  0
    5.9043   54.4966   22.2784 S   0  0  0  0  0  0
    5.3741   54.3322   23.9562 C   0  0  0  0  0  0
    6.3456   54.4414   24.8965 N   0  0  0  0  0  0
    5.9770   54.2706   26.1915 C   0  0  0  0  0  0
    4.6414   53.9727   26.5467 C   0  0  0  0  0  0
    4.0026   53.7007   27.7985 C   0  0  0  0  0  0
    2.6546   53.3867   27.6272 C   0  0  0  0  0  0
    2.1179   53.4620   25.9652 S   0  0  0  0  0  0
    3.7312   53.9036   25.4540 C   0  0  0  0  0  0
    4.0545   54.0964   24.1749 N   0  0  0  0  0  0
    1.7000   53.0556   28.7654 C   0  0  0  0  0  0
    2.5192   52.6028   29.9927 C   0  0  0  0  0  0
    3.6701   53.5766   30.2973 C   0  0  0  0  0  0
    4.7010   53.6670   29.1556 C   0  0  0  0  0  0
    6.9925   54.3648   27.1415 N   0  0  0  0  0  0
    2.2358   48.2592   19.4594 H   0  0  0  0  0  0
    3.5043   50.3406   19.6826 H   0  0  0  0  0  0
   -1.0510   50.0211   21.5776 H   0  0  0  0  0  0
    2.0791   53.4342   20.9314 H   0  0  0  0  0  0
    4.7730   54.4886   20.1640 H   0  0  0  0  0  0
    3.6759   54.8946   21.4671 H   0  0  0  0  0  0
    1.1102   53.9362   29.0212 H   0  0  0  0  0  0
    0.9872   52.2819   28.4787 H   0  0  0  0  0  0
    1.8645   52.5107   30.8602 H   0  0  0  0  0  0
    2.9270   51.6081   29.8105 H   0  0  0  0  0  0
    3.2581   54.5718   30.4674 H   0  0  0  0  0  0
    4.1829   53.2914   31.2200 H   0  0  0  0  0  0
    5.3728   52.8097   29.1932 H   0  0  0  0  0  0
    5.3112   54.5572   29.3064 H   0  0  0  0  0  0
    6.7688   54.2658   28.1245 H   0  0  0  0  0  0
    7.9444   54.4955   26.8421 H   0  0  0  0  0  0
  1  6  2  0  0  0
  1  2  1  0  0  0
  1 28  1  0  0  0
  2  3  2  0  0  0
  2 29  1  0  0  0
  3  4  1  0  0  0
  3  9  1  0  0  0
  4  5  2  0  0  0
  4  8  1  0  0  0
  5  6  1  0  0  0
  5 30  1  0  0  0
  6  7  1  0  0  0
  9 10  1  0  0  0
  9 31  1  0  0  0
 10 11  2  0  0  0
 10 12  1  0  0  0
 12 13  1  0  0  0
 12 32  1  0  0  0
 12 33  1  0  0  0
 13 14  1  0  0  0
 14 22  2  0  0  0
 14 15  1  0  0  0
 15 16  2  0  0  0
 16 17  1  0  0  0
 16 27  1  0  0  0
 17 21  2  0  0  0
 17 18  1  0  0  0
 18 26  1  0  0  0
 18 19  2  0  0  0
 19 20  1  0  0  0
 19 23  1  0  0  0
 20 21  1  0  0  0
 21 22  1  0  0  0
 23 24  1  0  0  0
 23 34  1  0  0  0
 23 35  1  0  0  0
 24 25  1  0  0  0
 24 36  1  0  0  0
 24 37  1  0  0  0
 25 26  1  0  0  0
 25 38  1  0  0  0
 25 39  1  0  0  0
 26 40  1  0  0  0
 26 41  1  0  0  0
 27 42  1  0  0  0
 27 43  1  0  0  0
M  END
> <i_i_glide_confnum>
20

> <i_i_glide_lignum>
4538

> <i_i_glide_posenum>
165

> <i_i_glide_rotatable_bonds>
5

> <i_m_Source_File_Index>
1820

> <b_m_subgroup_collapsed>
0

> <r_i_docking_score>
-5.18841

> <r_i_glide_ecoul>
-2.64653

> <r_i_glide_eff_state_penalty>
0

> <r_i_glide_einternal>
1.75743

> <r_i_glide_emodel>
-59.0047

> <r_i_glide_energy>
-44.473

> <r_i_glide_erotb>
0.369557

> <r_i_glide_esite>
-0.0166673

> <r_i_glide_evdw>
-41.8265

> <r_i_glide_gscore>
-5.18841

> <r_i_glide_hbond>
-0.269748

> <r_i_glide_ligand_efficiency>
-0.192163

> <r_i_glide_ligand_efficiency_ln>
-1.20778

> <r_i_glide_ligand_efficiency_sa>
-0.57649

> <r_i_glide_lipo>
-2.09462

> <r_i_glide_metal>
0

> <r_i_glide_rewards>
-0.688628

> <s_i_glide_gridfile>
wee1_glide-grid

> <s_m_Source_File>
wee1_decoys_glide_SP.sdf

> <s_m_Source_Path>
/Users/zhangxujun/Desktop

> <s_m_entry_id>
2095

> <s_m_entry_name>
wee1_decoys_glide_SP.1820

> <s_m_subgroup_title>
wee1_decoys_glide_SP

> <s_m_subgroupid>
wee1_decoys_glide_SP


$$$$
