ZINC34976349_3540
                    3D
 Schrodinger Suite 2024-2.
 56 58  0  0  1  0            999 V2000
    3.6955   52.9703   29.4585 C   0  0  0  0  0  0
    3.3082   53.0618   28.1245 C   0  0  0  0  0  0
    2.0262   52.6759   27.7445 C   0  0  0  0  0  0
    1.1307   52.1852   28.7012 C   0  0  0  0  0  0
    1.5266   52.0984   30.0393 C   0  0  0  0  0  0
    2.8073   52.4965   30.4201 C   0  0  0  0  0  0
   -0.2626   51.7132   28.2926 C   0  0  0  0  0  0
   -0.2715   50.8974   27.0748 N   0  0  0  0  0  0
   -0.7946   51.2640   25.8966 C   0  0  0  0  0  0
   -1.6514   52.1400   25.7679 O   0  0  0  0  0  0
   -0.2436   50.5920   24.8728 N   0  0  0  0  0  0
   -0.6855   50.6652   23.4778 C   0  0  0  0  0  0
   -0.5034   52.0487   22.8073 C   0  0  0  0  0  0
    0.8037   52.2579   22.1419 N   0  0  0  0  0  0
    0.9824   51.6350   20.8701 C   0  0  0  0  0  0
    0.0287   51.8521   19.8662 C   0  0  0  0  0  0
    0.1765   51.2599   18.6154 C   0  0  0  0  0  0
    1.2797   50.4536   18.3563 C   0  0  0  0  0  0
    2.2391   50.2272   19.3408 C   0  0  0  0  0  0
    2.0847   50.8019   20.6019 C   0  0  0  0  0  0
    1.4121   49.8859   17.1367 F   0  0  0  0  0  0
    1.7922   52.9265   22.8211 C   0  0  0  0  0  0
    1.6654   53.2609   24.0027 O   0  0  0  0  0  0
    2.8796   53.2637   22.0834 N   0  0  0  0  0  0
    4.0873   53.8701   22.4728 C   0  0  0  0  0  0
    4.9299   54.2975   21.4432 C   0  0  0  0  0  0
    6.1552   54.8966   21.7333 C   0  0  0  0  0  0
    6.5613   55.0424   23.0583 C   0  0  0  0  0  0
    5.7322   54.6214   24.1052 C   0  0  0  0  0  0
    4.4967   54.0407   23.8044 C   0  0  0  0  0  0
    6.1229   54.8391   25.5621 C   0  0  0  0  0  0
    5.0796   55.2947   26.2511 F   0  0  0  0  0  0
    6.5348   53.6981   26.1072 F   0  0  0  0  0  0
    7.1040   55.7267   25.6808 F   0  0  0  0  0  0
    4.6974   53.2644   29.7376 H   0  0  0  0  0  0
    4.0068   53.4141   27.3841 H   0  0  0  0  0  0
    1.7377   52.7450   26.7050 H   0  0  0  0  0  0
    0.8434   51.7124   30.7837 H   0  0  0  0  0  0
    3.1106   52.4227   31.4548 H   0  0  0  0  0  0
   -0.7165   51.1174   29.0860 H   0  0  0  0  0  0
   -0.8847   52.6035   28.1823 H   0  0  0  0  0  0
    0.0935   49.9603   27.1650 H   0  0  0  0  0  0
    0.5305   49.9761   25.0692 H   0  0  0  0  0  0
   -0.1480   49.9030   22.9111 H   0  0  0  0  0  0
   -1.7315   50.3610   23.4073 H   0  0  0  0  0  0
   -1.3240   52.2118   22.1117 H   0  0  0  0  0  0
   -0.6680   52.8345   23.5465 H   0  0  0  0  0  0
   -0.8202   52.4963   20.0371 H   0  0  0  0  0  0
   -0.5565   51.4324   17.8397 H   0  0  0  0  0  0
    3.1014   49.6130   19.1151 H   0  0  0  0  0  0
    2.8265   50.6010   21.3620 H   0  0  0  0  0  0
    2.8176   53.0442   21.0998 H   0  0  0  0  0  0
    4.6359   54.1789   20.4096 H   0  0  0  0  0  0
    6.7944   55.2358   20.9314 H   0  0  0  0  0  0
    7.5042   55.5203   23.2684 H   0  0  0  0  0  0
    3.8800   53.7080   24.6246 H   0  0  0  0  0  0
  1  6  2  0  0  0
  1  2  1  0  0  0
  1 35  1  0  0  0
  2  3  2  0  0  0
  2 36  1  0  0  0
  3  4  1  0  0  0
  3 37  1  0  0  0
  4  5  2  0  0  0
  4  7  1  0  0  0
  5  6  1  0  0  0
  5 38  1  0  0  0
  6 39  1  0  0  0
  7  8  1  0  0  0
  7 40  1  0  0  0
  7 41  1  0  0  0
  8  9  1  0  0  0
  8 42  1  0  0  0
  9 10  2  0  0  0
  9 11  1  0  0  0
 11 12  1  0  0  0
 11 43  1  0  0  0
 12 13  1  0  0  0
 12 44  1  0  0  0
 12 45  1  0  0  0
 13 14  1  0  0  0
 13 46  1  0  0  0
 13 47  1  0  0  0
 14 15  1  0  0  0
 14 22  1  0  0  0
 15 20  2  0  0  0
 15 16  1  0  0  0
 16 17  2  0  0  0
 16 48  1  0  0  0
 17 18  1  0  0  0
 17 49  1  0  0  0
 18 19  2  0  0  0
 18 21  1  0  0  0
 19 20  1  0  0  0
 19 50  1  0  0  0
 20 51  1  0  0  0
 22 23  2  0  0  0
 22 24  1  0  0  0
 24 25  1  0  0  0
 24 52  1  0  0  0
 25 30  2  0  0  0
 25 26  1  0  0  0
 26 27  2  0  0  0
 26 53  1  0  0  0
 27 28  1  0  0  0
 27 54  1  0  0  0
 28 29  2  0  0  0
 28 55  1  0  0  0
 29 30  1  0  0  0
 29 31  1  0  0  0
 30 56  1  0  0  0
 31 32  1  0  0  0
 31 33  1  0  0  0
 31 34  1  0  0  0
M  END
> <i_i_glide_confnum>
272

> <i_i_glide_lignum>
3541

> <i_i_glide_posenum>
339

> <i_i_glide_rotatable_bonds>
12

> <i_m_Source_File_Index>
1140

> <b_m_subgroup_collapsed>
0

> <r_i_docking_score>
-5.18854

> <r_i_glide_ecoul>
-3.58086

> <r_i_glide_eff_state_penalty>
0

> <r_i_glide_einternal>
4.31243

> <r_i_glide_emodel>
-60.8065

> <r_i_glide_energy>
-45.8531

> <r_i_glide_erotb>
0.80903

> <r_i_glide_esite>
-0.23025

> <r_i_glide_evdw>
-42.2723

> <r_i_glide_gscore>
-5.18854

> <r_i_glide_hbond>
0

> <r_i_glide_ligand_efficiency>
-0.152604

> <r_i_glide_ligand_efficiency_ln>
-1.14629

> <r_i_glide_ligand_efficiency_sa>
-0.494378

> <r_i_glide_lipo>
-2.44155

> <r_i_glide_metal>
0

> <r_i_glide_rewards>
-0.675025

> <s_i_glide_gridfile>
wee1_glide-grid

> <s_m_Source_File>
wee1_decoys_glide_SP.sdf

> <s_m_Source_Path>
/Users/zhangxujun/Desktop

> <s_m_entry_id>
1415

> <s_m_entry_name>
wee1_decoys_glide_SP.1140

> <s_m_subgroup_title>
wee1_decoys_glide_SP

> <s_m_subgroupid>
wee1_decoys_glide_SP


$$$$
