ZINC37138294_4786
                    3D
 Schrodinger Suite 2024-2.
 33 34  0  0  1  0            999 V2000
   -0.4983   51.6965   28.1283 C   0  0  0  0  0  0
   -0.1814   52.5229   29.2026 C   0  0  0  0  0  0
    0.9363   53.3551   29.1440 C   0  0  0  0  0  0
    1.7873   53.3212   28.0266 C   0  0  0  0  0  0
    1.4491   52.4979   26.9462 C   0  0  0  0  0  0
    0.3033   51.6997   26.9879 C   0  0  0  0  0  0
   -0.1471   50.6773   25.5961 S   0  0  0  0  0  0
    0.7134   51.0491   24.4663 O   0  0  0  0  0  0
   -1.6080   50.7093   25.4744 O   0  0  0  0  0  0
    0.3040   49.0734   26.0836 N   0  0  0  0  0  0
    2.9752   54.0726   28.0521 N   0  0  0  0  0  0
    4.1126   53.8251   27.1676 C   0  0  0  0  0  0
    3.9492   54.6335   25.8673 C   0  0  0  0  0  0
    5.1036   54.3594   24.8876 C   0  0  0  0  0  0
    6.7041   54.8982   25.5680 S   0  0  0  0  0  0
    6.6569   53.9550   27.1278 C   0  0  0  0  0  0
    5.3825   54.2394   27.9335 C   0  0  0  0  0  0
    1.2356   54.4116   30.4819 Cl  0  0  0  0  0  0
   -1.3729   51.0579   28.1807 H   0  0  0  0  0  0
   -0.8102   52.5152   30.0834 H   0  0  0  0  0  0
    2.0639   52.4964   26.0606 H   0  0  0  0  0  0
   -0.3804   48.6359   26.7189 H   0  0  0  0  0  0
    0.5529   48.4478   25.3131 H   0  0  0  0  0  0
    2.9709   54.9370   28.5770 H   0  0  0  0  0  0
    4.1597   52.7639   26.9202 H   0  0  0  0  0  0
    3.0087   54.3913   25.3721 H   0  0  0  0  0  0
    3.9077   55.6971   26.0809 H   0  0  0  0  0  0
    5.1788   53.2975   24.6548 H   0  0  0  0  0  0
    4.9504   54.8894   23.9462 H   0  0  0  0  0  0
    6.7362   52.8981   26.8791 H   0  0  0  0  0  0
    7.5402   54.2268   27.7053 H   0  0  0  0  0  0
    5.3576   55.2968   28.1808 H   0  0  0  0  0  0
    5.4415   53.7046   28.8818 H   0  0  0  0  0  0
  1  6  2  0  0  0
  1  2  1  0  0  0
  1 19  1  0  0  0
  2  3  2  0  0  0
  2 20  1  0  0  0
  3  4  1  0  0  0
  3 18  1  0  0  0
  4  5  2  0  0  0
  4 11  1  0  0  0
  5  6  1  0  0  0
  5 21  1  0  0  0
  6  7  1  0  0  0
  7  8  2  0  0  0
  7  9  2  0  0  0
  7 10  1  0  0  0
 10 22  1  0  0  0
 10 23  1  0  0  0
 11 12  1  0  0  0
 11 24  1  0  0  0
 12 17  1  0  0  0
 12 13  1  0  0  0
 12 25  1  0  0  0
 13 14  1  0  0  0
 13 26  1  0  0  0
 13 27  1  0  0  0
 14 15  1  0  0  0
 14 28  1  0  0  0
 14 29  1  0  0  0
 15 16  1  0  0  0
 16 17  1  0  0  0
 16 30  1  0  0  0
 16 31  1  0  0  0
 17 32  1  0  0  0
 17 33  1  0  0  0
M  END
> <i_i_glide_confnum>
2

> <i_i_glide_lignum>
4787

> <i_i_glide_posenum>
369

> <i_i_glide_rotatable_bonds>
3

> <i_m_Source_File_Index>
4186

> <b_m_subgroup_collapsed>
0

> <r_i_docking_score>
-6.16706

> <r_i_glide_ecoul>
-6.24962

> <r_i_glide_eff_state_penalty>
0

> <r_i_glide_einternal>
2.05087

> <r_i_glide_emodel>
-55.4629

> <r_i_glide_energy>
-40.699

> <r_i_glide_erotb>
0.392533

> <r_i_glide_esite>
-0.158372

> <r_i_glide_evdw>
-34.4494

> <r_i_glide_gscore>
-6.16706

> <r_i_glide_hbond>
-0.16

> <r_i_glide_ligand_efficiency>
-0.342614

> <r_i_glide_ligand_efficiency_ln>
-1.58521

> <r_i_glide_ligand_efficiency_sa>
-0.897904

> <r_i_glide_lipo>
-2.29162

> <r_i_glide_metal>
0

> <r_i_glide_rewards>
-1.28968

> <s_i_glide_gridfile>
wee1_glide-grid

> <s_m_Source_File>
wee1_decoys_glide_SP.sdf

> <s_m_Source_Path>
/Users/zhangxujun/Desktop

> <s_m_entry_id>
4461

> <s_m_entry_name>
wee1_decoys_glide_SP.4186

> <s_m_subgroup_title>
wee1_decoys_glide_SP

> <s_m_subgroupid>
wee1_decoys_glide_SP


$$$$
