ZINC12570918_418
                    3D
 Schrodinger Suite 2024-2.
 38 39  0  0  1  0            999 V2000
    7.0326   54.6617   24.8198 C   0  0  0  0  0  0
    5.5342   54.4099   24.8684 C   0  0  0  0  0  0
    4.8941   54.3397   26.1101 C   0  0  0  0  0  0
    3.5248   54.0969   26.1821 C   0  0  0  0  0  0
    2.7868   53.9188   25.0137 C   0  0  0  0  0  0
    3.4171   53.9931   23.7727 C   0  0  0  0  0  0
    4.7992   54.2367   23.6813 C   0  0  0  0  0  0
    5.4884   54.3427   22.4824 O   0  0  0  0  0  0
    4.7974   54.2651   21.2268 C   0  0  0  0  0  0
    4.4830   52.8109   20.8327 C   0  0  0  0  0  0
    5.0766   51.8747   21.3721 O   0  0  0  0  0  0
    3.5356   52.6610   19.8808 N   0  0  0  0  0  0
    3.1042   51.3758   19.5041 N   0  0  0  0  0  0
    2.1275   50.6459   20.1280 C   0  0  0  0  0  0
    1.2883   51.1766   21.4974 S   0  0  0  0  0  0
    1.9357   49.4604   19.4610 N   0  0  0  0  0  0
    1.0248   48.4610   19.6019 C   0  0  0  0  0  0
    0.1676   48.3646   20.4821 O   0  0  0  0  0  0
    1.1005   47.4565   18.5726 C   0  0  0  0  0  0
    0.3043   46.3416   18.3272 C   0  0  0  0  0  0
    0.8048   45.7328   17.1755 C   0  0  0  0  0  0
    1.8936   46.4880   16.7722 C   0  0  0  0  0  0
    2.0732   47.5267   17.6244 O   0  0  0  0  0  0
    3.1031   46.3217   15.3152 Br  0  0  0  0  0  0
    2.6606   54.0145   27.8768 Br  0  0  0  0  0  0
    7.2391   55.6769   24.4805 H   0  0  0  0  0  0
    7.5043   54.4976   25.7895 H   0  0  0  0  0  0
    7.5028   53.9748   24.1162 H   0  0  0  0  0  0
    5.4553   54.4686   27.0242 H   0  0  0  0  0  0
    1.7261   53.7259   25.0693 H   0  0  0  0  0  0
    2.8113   53.8513   22.8919 H   0  0  0  0  0  0
    3.9067   54.8951   21.2220 H   0  0  0  0  0  0
    5.4675   54.6773   20.4708 H   0  0  0  0  0  0
    2.9825   53.4073   19.4827 H   0  0  0  0  0  0
    3.7677   50.9330   18.8717 H   0  0  0  0  0  0
    2.5598   49.3163   18.6781 H   0  0  0  0  0  0
   -0.5476   46.0237   18.9102 H   0  0  0  0  0  0
    0.4249   44.8474   16.6880 H   0  0  0  0  0  0
  1  2  1  0  0  0
  1 26  1  0  0  0
  1 27  1  0  0  0
  1 28  1  0  0  0
  2  7  2  0  0  0
  2  3  1  0  0  0
  3  4  2  0  0  0
  3 29  1  0  0  0
  4  5  1  0  0  0
  4 25  1  0  0  0
  5  6  2  0  0  0
  5 30  1  0  0  0
  6  7  1  0  0  0
  6 31  1  0  0  0
  7  8  1  0  0  0
  8  9  1  0  0  0
  9 10  1  0  0  0
  9 32  1  0  0  0
  9 33  1  0  0  0
 10 11  2  0  0  0
 10 12  1  0  0  0
 12 13  1  0  0  0
 12 34  1  0  0  0
 13 14  1  0  0  0
 13 35  1  0  0  0
 14 15  2  0  0  0
 14 16  1  0  0  0
 16 17  1  0  0  0
 16 36  1  0  0  0
 17 18  2  0  0  0
 17 19  1  0  0  0
 19 23  1  0  0  0
 19 20  2  0  0  0
 20 21  1  0  0  0
 20 37  1  0  0  0
 21 22  2  0  0  0
 21 38  1  0  0  0
 22 23  1  0  0  0
 22 24  1  0  0  0
M  END
> <i_i_glide_confnum>
70

> <i_i_glide_lignum>
419

> <i_i_glide_posenum>
304

> <i_i_glide_rotatable_bonds>
9

> <i_m_Source_File_Index>
981

> <b_m_subgroup_collapsed>
0

> <r_i_docking_score>
-4.543

> <r_i_glide_ecoul>
-6.74689

> <r_i_glide_eff_state_penalty>
0

> <r_i_glide_einternal>
5.5784

> <r_i_glide_emodel>
-53.8207

> <r_i_glide_energy>
-42.6683

> <r_i_glide_erotb>
0.675049

> <r_i_glide_esite>
-0.194963

> <r_i_glide_evdw>
-35.9215

> <r_i_glide_gscore>
-4.543

> <r_i_glide_hbond>
-0.16

> <r_i_glide_ligand_efficiency>
-0.18172

> <r_i_glide_ligand_efficiency_ln>
-1.07683

> <r_i_glide_ligand_efficiency_sa>
-0.531352

> <r_i_glide_lipo>
-1.83663

> <r_i_glide_metal>
0

> <r_i_glide_rewards>
-0.218343

> <s_i_glide_gridfile>
wee1_glide-grid

> <s_m_Source_File>
wee1_decoys_glide_SP.sdf

> <s_m_Source_Path>
/Users/zhangxujun/Desktop

> <s_m_entry_id>
1256

> <s_m_entry_name>
wee1_decoys_glide_SP.981

> <s_m_subgroup_title>
wee1_decoys_glide_SP

> <s_m_subgroupid>
wee1_decoys_glide_SP


$$$$
