ZINC12418723_5134
                    3D
 Schrodinger Suite 2024-2.
 65 69  0  0  1  0            999 V2000
   -2.9527   50.9663   26.7213 C   0  0  0  0  0  0
   -1.7233   51.3805   27.5476 C   0  0  0  0  0  0
   -0.6375   52.1675   26.7656 C   0  0  1  0  0  0
   -1.1643   53.0881   26.5122 H   0  0  0  0  0  0
    0.5845   52.6524   27.6511 C   0  0  0  0  0  0
    1.3141   51.5143   28.4419 C   0  0  0  0  0  0
    2.4855   52.0921   29.2905 C   0  0  2  0  0  0
    1.9356   53.1204   30.3031 C   0  0  0  0  0  0
    1.2350   54.2794   29.5472 C   0  0  2  0  0  0
    0.0787   53.6966   28.7011 C   0  0  0  0  0  0
    2.2476   54.9832   28.6148 C   0  0  0  0  0  0
    2.8232   53.9513   27.6136 C   0  0  1  0  0  0
    3.5194   52.8052   28.3841 C   0  0  0  0  0  0
    1.6769   53.3386   26.7733 C   0  0  0  0  0  0
   -0.2932   51.5507   25.4508 N   0  0  0  0  0  0
   -0.4596   52.2025   24.2729 C   0  0  0  0  0  0
   -0.9918   53.2965   24.0813 O   0  0  0  0  0  0
    0.1892   51.3283   23.1936 C   0  0  1  0  0  0
    0.7471   50.3142   24.0487 N   0  0  0  0  0  0
    0.3050   50.3418   25.3089 C   0  0  0  0  0  0
    0.3005   49.3895   26.0813 O   0  0  0  0  0  0
   -0.9248   50.7533   22.2551 C   0  0  0  0  0  0
   -1.9348   50.1774   22.9131 F   0  0  0  0  0  0
   -1.4522   51.6934   21.4653 F   0  0  0  0  0  0
   -0.4136   49.8184   21.4504 F   0  0  0  0  0  0
    1.2180   52.0195   22.3660 N   0  0  0  0  0  0
    2.1984   52.8826   22.7161 C   0  0  0  0  0  0
    2.2608   53.4027   23.8240 O   0  0  0  0  0  0
    3.2551   53.2025   21.6796 C   0  0  0  0  0  0
    3.3008   52.5649   20.4292 C   0  0  0  0  0  0
    4.2872   52.8970   19.5051 C   0  0  0  0  0  0
    5.2560   53.8618   19.8083 C   0  0  0  0  0  0
    5.2169   54.4922   21.0482 C   0  0  0  0  0  0
    4.2344   54.1629   21.9767 C   0  0  0  0  0  0
    6.2814   54.2345   18.9602 O   0  0  0  0  0  0
    6.4276   53.5647   17.7114 C   0  0  0  0  0  0
   -3.6913   50.4772   27.3576 H   0  0  0  0  0  0
   -3.4278   51.8322   26.2586 H   0  0  0  0  0  0
   -2.6886   50.2603   25.9336 H   0  0  0  0  0  0
   -1.2732   50.4968   27.9819 H   0  0  0  0  0  0
   -2.0794   51.9565   28.3974 H   0  0  0  0  0  0
    1.7027   50.7557   27.7636 H   0  0  0  0  0  0
    0.6181   50.9944   29.1006 H   0  0  0  0  0  0
    2.9940   51.2966   29.8276 H   0  0  0  0  0  0
    2.7729   53.5002   30.8814 H   0  0  0  0  0  0
    1.2519   52.6452   31.0091 H   0  0  0  0  0  0
    0.8388   54.9975   30.2654 H   0  0  0  0  0  0
   -0.6441   53.2463   29.3814 H   0  0  0  0  0  0
   -0.4515   54.4965   28.1900 H   0  0  0  0  0  0
    3.0505   55.4347   29.1980 H   0  0  0  0  0  0
    1.7635   55.8018   28.0820 H   0  0  0  0  0  0
    3.5421   54.4366   26.9547 H   0  0  0  0  0  0
    3.9539   52.0976   27.6823 H   0  0  0  0  0  0
    4.3524   53.1909   28.9756 H   0  0  0  0  0  0
    1.2404   54.0967   26.1316 H   0  0  0  0  0  0
    2.1101   52.5966   26.1046 H   0  0  0  0  0  0
    1.4824   49.6925   23.7441 H   0  0  0  0  0  0
    1.2677   51.6936   21.4146 H   0  0  0  0  0  0
    2.5867   51.8097   20.1461 H   0  0  0  0  0  0
    4.2994   52.3778   18.5578 H   0  0  0  0  0  0
    5.9593   55.2357   21.2976 H   0  0  0  0  0  0
    4.2366   54.6739   22.9305 H   0  0  0  0  0  0
    7.2905   53.9694   17.1856 H   0  0  0  0  0  0
    6.6020   52.4969   17.8473 H   0  0  0  0  0  0
    5.5548   53.7088   17.0737 H   0  0  0  0  0  0
  1  2  1  0  0  0
  1 37  1  0  0  0
  1 38  1  0  0  0
  1 39  1  0  0  0
  2  3  1  0  0  0
  2 40  1  0  0  0
  2 41  1  0  0  0
  3  4  1  0  0  0
  3  5  1  0  0  0
  3 15  1  0  0  0
  5 10  1  0  0  0
  5 14  1  0  0  0
  5  6  1  0  0  0
  6  7  1  0  0  0
  6 42  1  0  0  0
  6 43  1  0  0  0
  7 13  1  0  0  0
  7  8  1  0  0  0
  7 44  1  0  0  0
  8  9  1  0  0  0
  8 45  1  0  0  0
  8 46  1  0  0  0
  9 10  1  0  0  0
  9 11  1  0  0  0
  9 47  1  0  0  0
 10 48  1  0  0  0
 10 49  1  0  0  0
 11 12  1  0  0  0
 11 50  1  0  0  0
 11 51  1  0  0  0
 12 13  1  0  0  0
 12 14  1  0  0  0
 12 52  1  0  0  0
 13 53  1  0  0  0
 13 54  1  0  0  0
 14 55  1  0  0  0
 14 56  1  0  0  0
 15 20  1  0  0  0
 15 16  1  0  0  0
 16 17  2  0  0  0
 16 18  1  0  0  0
 18 19  1  0  0  0
 18 22  1  0  0  0
 18 26  1  0  0  0
 19 20  1  0  0  0
 19 57  1  0  0  0
 20 21  2  0  0  0
 22 23  1  0  0  0
 22 24  1  0  0  0
 22 25  1  0  0  0
 26 27  1  0  0  0
 26 58  1  0  0  0
 27 28  2  0  0  0
 27 29  1  0  0  0
 29 34  2  0  0  0
 29 30  1  0  0  0
 30 31  2  0  0  0
 30 59  1  0  0  0
 31 32  1  0  0  0
 31 60  1  0  0  0
 32 33  2  0  0  0
 32 35  1  0  0  0
 33 34  1  0  0  0
 33 61  1  0  0  0
 34 62  1  0  0  0
 35 36  1  0  0  0
 36 63  1  0  0  0
 36 64  1  0  0  0
 36 65  1  0  0  0
M  END
> <i_i_glide_confnum>
8

> <i_i_glide_lignum>
5135

> <i_i_glide_posenum>
212

> <i_i_glide_rotatable_bonds>
8

> <i_m_Source_File_Index>
5337

> <b_m_subgroup_collapsed>
0

> <r_i_docking_score>
-3.73667

> <r_i_glide_ecoul>
0.178712

> <r_i_glide_eff_state_penalty>
0

> <r_i_glide_einternal>
4.84037

> <r_i_glide_emodel>
-43.1981

> <r_i_glide_energy>
-37.7732

> <r_i_glide_erotb>
0.418214

> <r_i_glide_esite>
-0.0401118

> <r_i_glide_evdw>
-37.9519

> <r_i_glide_gscore>
-3.73667

> <r_i_glide_hbond>
0

> <r_i_glide_ligand_efficiency>
-0.106762

> <r_i_glide_ligand_efficiency_ln>
-0.820283

> <r_i_glide_ligand_efficiency_sa>
-0.349226

> <r_i_glide_lipo>
-1.90224

> <r_i_glide_metal>
0

> <r_i_glide_rewards>
-0.341749

> <s_i_glide_gridfile>
wee1_glide-grid

> <s_m_Source_File>
wee1_decoys_glide_SP.sdf

> <s_m_Source_Path>
/Users/zhangxujun/Desktop

> <s_m_entry_id>
5612

> <s_m_entry_name>
wee1_decoys_glide_SP.5337

> <s_m_subgroup_title>
wee1_decoys_glide_SP

> <s_m_subgroupid>
wee1_decoys_glide_SP


$$$$
