ZINC12416322_6107
                    3D
 Schrodinger Suite 2024-2.
 59 64  0  0  1  0            999 V2000
   -1.3783   47.4584   20.5473 C   0  0  0  0  0  0
   -1.0259   48.4942   21.6164 C   0  0  0  0  0  0
   -1.4545   48.5473   22.9152 C   0  0  0  0  0  0
   -0.9009   49.6641   23.8731 C   0  0  1  0  0  0
   -0.3674   49.1796   24.6956 H   0  0  0  0  0  0
    0.1927   50.5420   23.1831 C   0  0  0  0  0  0
    0.4696   50.4084   21.8591 C   0  0  0  0  0  0
   -0.1069   49.3970   21.1372 N   0  0  0  0  0  0
    1.5119   51.2364   21.1064 C   0  0  0  0  0  0
    2.5871   51.7839   22.0703 C   0  0  2  0  0  0
    3.1089   50.9164   22.4761 H   0  0  0  0  0  0
    1.9043   52.4729   23.2733 C   0  0  0  0  0  0
    0.9035   51.5584   23.9978 C   0  0  0  0  0  0
    0.7003   51.7089   25.2009 O   0  0  0  0  0  0
    3.6289   52.6505   21.3638 C   0  0  0  0  0  0
    4.1758   52.4991   20.0849 C   0  0  0  0  0  0
    5.1076   53.4752   19.7190 C   0  0  0  0  0  0
    5.3152   54.4024   20.7182 C   0  0  0  0  0  0
    4.3652   54.0468   22.1188 S   0  0  0  0  0  0
   -1.9731   50.5351   24.5598 C   0  0  0  0  0  0
   -2.2642   50.3633   25.9287 C   0  0  0  0  0  0
   -3.1504   51.2178   26.5957 C   0  0  0  0  0  0
   -3.7182   52.2535   25.8623 C   0  0  0  0  0  0
   -3.4444   52.4305   24.5377 C   0  0  0  0  0  0
   -2.5942   51.5774   23.8438 C   0  0  0  0  0  0
   -4.0952   53.5324   24.0820 O   0  0  0  0  0  0
   -4.7859   54.0669   25.1825 C   0  0  0  0  0  0
   -4.5696   53.2260   26.2830 O   0  0  0  0  0  0
   -2.4585   47.5983   23.4303 C   0  0  0  0  0  0
   -3.2109   46.9705   22.6825 O   0  0  0  0  0  0
   -2.5251   47.4581   24.7739 N   0  0  0  0  0  0
   -3.4881   46.7623   25.5342 C   0  0  0  0  0  0
   -3.0968   46.3315   26.8024 C   0  0  0  0  0  0
   -4.0105   45.7027   27.6433 C   0  0  0  0  0  0
   -5.3178   45.4961   27.2268 C   0  0  0  0  0  0
   -5.7240   45.9151   25.9603 C   0  0  0  0  0  0
   -4.8129   46.5510   25.1142 C   0  0  0  0  0  0
   -6.1926   44.8968   28.0682 F   0  0  0  0  0  0
   -1.5111   46.4647   20.9740 H   0  0  0  0  0  0
   -2.3015   47.7470   20.0393 H   0  0  0  0  0  0
   -0.5968   47.3583   19.7861 H   0  0  0  0  0  0
    0.0892   49.3706   20.1482 H   0  0  0  0  0  0
    2.0520   50.5792   20.4217 H   0  0  0  0  0  0
    1.0213   52.0062   20.5079 H   0  0  0  0  0  0
    2.6207   52.8478   24.0044 H   0  0  0  0  0  0
    1.3477   53.3406   22.9151 H   0  0  0  0  0  0
    3.9044   51.6948   19.4144 H   0  0  0  0  0  0
    5.6061   53.4911   18.7606 H   0  0  0  0  0  0
    5.9837   55.2504   20.7070 H   0  0  0  0  0  0
   -1.7830   49.5734   26.4824 H   0  0  0  0  0  0
   -3.3590   51.0777   27.6465 H   0  0  0  0  0  0
   -2.3714   51.7343   22.8000 H   0  0  0  0  0  0
   -5.8536   54.0979   24.9537 H   0  0  0  0  0  0
   -4.3815   55.0546   25.4083 H   0  0  0  0  0  0
   -1.7751   47.8640   25.3163 H   0  0  0  0  0  0
   -2.0876   46.4937   27.1591 H   0  0  0  0  0  0
   -3.6953   45.3789   28.6226 H   0  0  0  0  0  0
   -6.7446   45.7654   25.6454 H   0  0  0  0  0  0
   -5.1626   46.9008   24.1532 H   0  0  0  0  0  0
  1  2  1  0  0  0
  1 39  1  0  0  0
  1 40  1  0  0  0
  1 41  1  0  0  0
  2  8  1  0  0  0
  2  3  2  0  0  0
  3  4  1  0  0  0
  3 29  1  0  0  0
  4  5  1  0  0  0
  4  6  1  0  0  0
  4 20  1  0  0  0
  6 13  1  0  0  0
  6  7  2  0  0  0
  7  8  1  0  0  0
  7  9  1  0  0  0
  8 42  1  0  0  0
  9 10  1  0  0  0
  9 43  1  0  0  0
  9 44  1  0  0  0
 10 11  1  0  0  0
 10 12  1  0  0  0
 10 15  1  0  0  0
 12 13  1  0  0  0
 12 45  1  0  0  0
 12 46  1  0  0  0
 13 14  2  0  0  0
 15 19  1  0  0  0
 15 16  2  0  0  0
 16 17  1  0  0  0
 16 47  1  0  0  0
 17 18  2  0  0  0
 17 48  1  0  0  0
 18 19  1  0  0  0
 18 49  1  0  0  0
 20 25  2  0  0  0
 20 21  1  0  0  0
 21 22  2  0  0  0
 21 50  1  0  0  0
 22 23  1  0  0  0
 22 51  1  0  0  0
 23 28  1  0  0  0
 23 24  2  0  0  0
 24 25  1  0  0  0
 24 26  1  0  0  0
 25 52  1  0  0  0
 26 27  1  0  0  0
 27 28  1  0  0  0
 27 53  1  0  0  0
 27 54  1  0  0  0
 29 30  2  0  0  0
 29 31  1  0  0  0
 31 32  1  0  0  0
 31 55  1  0  0  0
 32 37  2  0  0  0
 32 33  1  0  0  0
 33 34  2  0  0  0
 33 56  1  0  0  0
 34 35  1  0  0  0
 34 57  1  0  0  0
 35 36  2  0  0  0
 35 38  1  0  0  0
 36 37  1  0  0  0
 36 58  1  0  0  0
 37 59  1  0  0  0
M  END
> <i_i_glide_confnum>
102

> <i_i_glide_lignum>
6108

> <i_i_glide_posenum>
192

> <i_i_glide_rotatable_bonds>
5

> <i_m_Source_File_Index>
3462

> <b_m_subgroup_collapsed>
0

> <r_i_docking_score>
-3.31077

> <r_i_glide_ecoul>
-5.22419

> <r_i_glide_eff_state_penalty>
0

> <r_i_glide_einternal>
4.57454

> <r_i_glide_emodel>
-48.8652

> <r_i_glide_energy>
-42.0096

> <r_i_glide_erotb>
0.404531

> <r_i_glide_esite>
-0.115091

> <r_i_glide_evdw>
-36.7854

> <r_i_glide_gscore>
-3.31077

> <r_i_glide_hbond>
0

> <r_i_glide_ligand_efficiency>
-0.0919657

> <r_i_glide_ligand_efficiency_ln>
-0.72232

> <r_i_glide_ligand_efficiency_sa>
-0.303664

> <r_i_glide_lipo>
-0.679084

> <r_i_glide_metal>
0

> <r_i_glide_rewards>
-0.298224

> <s_i_glide_gridfile>
wee1_glide-grid

> <s_m_Source_File>
wee1_decoys_glide_SP.sdf

> <s_m_Source_Path>
/Users/zhangxujun/Desktop

> <s_m_entry_id>
3737

> <s_m_entry_name>
wee1_decoys_glide_SP.3462

> <s_m_subgroup_title>
wee1_decoys_glide_SP

> <s_m_subgroupid>
wee1_decoys_glide_SP


$$$$
