ZINC36534717_2979
                    3D
 Schrodinger Suite 2024-2.
 78 80  0  0  1  0            999 V2000
    6.7553   55.9745   24.0295 C   0  0  0  0  0  0
    6.2792   54.5422   23.8294 C   0  0  0  0  0  0
    7.0861   53.6937   24.8513 C   0  0  0  0  0  0
    4.7878   54.4075   24.1936 C   0  0  0  0  0  0
    6.5998   54.0961   22.3494 C   0  0  0  0  0  0
    5.7631   54.4419   21.0164 C   0  0  0  0  0  0
    5.9142   55.9388   20.6139 C   0  0  0  0  0  0
    6.3108   53.7881   19.6890 C   0  0  0  0  0  0
    4.3532   54.0346   21.1425 N   0  0  0  0  0  0
    3.9010   52.7592   21.2357 C   0  0  0  0  0  0
    4.6570   51.7919   21.2716 O   0  0  0  0  0  0
    2.3569   52.5536   21.2028 C   0  0  1  0  0  0
    2.0349   53.2966   20.4832 H   0  0  0  0  0  0
    1.8437   51.2621   20.5514 C   0  0  0  0  0  0
    2.4000   49.9966   20.7845 C   0  0  0  0  0  0
    1.8729   48.8655   20.1715 C   0  0  0  0  0  0
    0.7799   48.9631   19.3128 C   0  0  0  0  0  0
    0.2219   50.2259   19.0673 C   0  0  0  0  0  0
    0.7509   51.3600   19.6847 C   0  0  0  0  0  0
    0.3255   47.7781   18.7635 O   0  0  0  0  0  0
   -0.7356   47.8167   17.8185 C   0  0  0  0  0  0
    1.6542   52.8740   22.4929 N   0  0  0  0  0  0
    1.6687   54.3018   22.8606 C   0  0  0  0  0  0
    1.3026   51.9399   23.4382 C   0  0  0  0  0  0
    1.9004   50.8675   23.4971 O   0  0  0  0  0  0
    0.1143   52.1434   24.4689 C   0  0  0  0  0  0
   -0.7587   50.8492   24.3940 C   0  0  0  0  0  0
   -1.9404   50.8140   23.6344 C   0  0  0  0  0  0
   -2.7114   49.6567   23.5616 C   0  0  0  0  0  0
   -2.3066   48.5153   24.2490 C   0  0  0  0  0  0
   -1.1384   48.5239   25.0041 C   0  0  0  0  0  0
   -0.3600   49.6793   25.0644 C   0  0  0  0  0  0
    0.6051   52.4230   25.9202 C   0  0  0  0  0  0
   -0.2870   52.2433   26.9948 C   0  0  0  0  0  0
    0.1077   52.4953   28.3066 C   0  0  0  0  0  0
    1.3993   52.9421   28.5588 C   0  0  0  0  0  0
    2.2992   53.1420   27.5159 C   0  0  0  0  0  0
    1.9026   52.8941   26.2036 C   0  0  0  0  0  0
   -0.6543   53.2756   24.0735 O   0  0  0  0  0  0
    6.3915   56.4187   24.9548 H   0  0  0  0  0  0
    6.3402   56.4966   23.1953 H   0  0  0  0  0  0
    7.8486   56.0970   23.9890 H   0  0  0  0  0  0
    6.5096   52.8971   25.3353 H   0  0  0  0  0  0
    7.9099   53.1886   24.3588 H   0  0  0  0  0  0
    7.4978   54.2895   25.6672 H   0  0  0  0  0  0
    4.4392   53.3849   24.0602 H   0  0  0  0  0  0
    4.6061   54.6814   25.2347 H   0  0  0  0  0  0
    4.1618   55.0453   23.5838 H   0  0  0  0  0  0
    7.6206   54.4198   22.1466 H   0  0  0  0  0  0
    6.6386   53.0150   22.4822 H   0  0  0  0  0  0
    6.9664   56.2157   20.5043 H   0  0  0  0  0  0
    5.4290   56.1554   19.6599 H   0  0  0  0  0  0
    5.5045   56.6686   21.2817 H   0  0  0  0  0  0
    7.3308   54.1026   19.4660 H   0  0  0  0  0  0
    6.3053   52.6988   19.6830 H   0  0  0  0  0  0
    5.6962   54.0656   18.8269 H   0  0  0  0  0  0
    3.6714   54.7707   21.0637 H   0  0  0  0  0  0
    3.2249   49.8690   21.4701 H   0  0  0  0  0  0
    2.3266   47.9059   20.3692 H   0  0  0  0  0  0
   -0.6182   50.3481   18.4041 H   0  0  0  0  0  0
    0.2986   52.3204   19.4783 H   0  0  0  0  0  0
   -0.9443   46.8071   17.4650 H   0  0  0  0  0  0
   -1.6544   48.1965   18.2742 H   0  0  0  0  0  0
   -0.4744   48.4248   16.9477 H   0  0  0  0  0  0
    0.7068   54.7560   22.6873 H   0  0  0  0  0  0
    1.9400   54.4583   23.9031 H   0  0  0  0  0  0
    2.3548   54.8795   22.2465 H   0  0  0  0  0  0
   -2.2740   51.6865   23.0849 H   0  0  0  0  0  0
   -3.6191   49.6539   22.9819 H   0  0  0  0  0  0
   -2.9134   47.6209   24.2151 H   0  0  0  0  0  0
   -0.8447   47.6422   25.5561 H   0  0  0  0  0  0
    0.5419   49.6645   25.6603 H   0  0  0  0  0  0
   -1.2957   51.9000   26.8178 H   0  0  0  0  0  0
   -0.5858   52.3462   29.1221 H   0  0  0  0  0  0
    1.7107   53.1329   29.5771 H   0  0  0  0  0  0
    3.3032   53.4854   27.7313 H   0  0  0  0  0  0
    2.6232   53.0554   25.4245 H   0  0  0  0  0  0
   -0.1072   54.0521   24.1774 H   0  0  0  0  0  0
  1  2  1  0  0  0
  1 40  1  0  0  0
  1 41  1  0  0  0
  1 42  1  0  0  0
  2  3  1  0  0  0
  2  4  1  0  0  0
  2  5  1  0  0  0
  3 43  1  0  0  0
  3 44  1  0  0  0
  3 45  1  0  0  0
  4 46  1  0  0  0
  4 47  1  0  0  0
  4 48  1  0  0  0
  5  6  1  0  0  0
  5 49  1  0  0  0
  5 50  1  0  0  0
  6  7  1  0  0  0
  6  8  1  0  0  0
  6  9  1  0  0  0
  7 51  1  0  0  0
  7 52  1  0  0  0
  7 53  1  0  0  0
  8 54  1  0  0  0
  8 55  1  0  0  0
  8 56  1  0  0  0
  9 10  1  0  0  0
  9 57  1  0  0  0
 10 11  2  0  0  0
 10 12  1  0  0  0
 12 13  1  0  0  0
 12 14  1  0  0  0
 12 22  1  0  0  0
 14 19  2  0  0  0
 14 15  1  0  0  0
 15 16  2  0  0  0
 15 58  1  0  0  0
 16 17  1  0  0  0
 16 59  1  0  0  0
 17 18  2  0  0  0
 17 20  1  0  0  0
 18 19  1  0  0  0
 18 60  1  0  0  0
 19 61  1  0  0  0
 20 21  1  0  0  0
 21 62  1  0  0  0
 21 63  1  0  0  0
 21 64  1  0  0  0
 22 23  1  0  0  0
 22 24  1  0  0  0
 23 65  1  0  0  0
 23 66  1  0  0  0
 23 67  1  0  0  0
 24 25  2  0  0  0
 24 26  1  0  0  0
 26 27  1  0  0  0
 26 33  1  0  0  0
 26 39  1  0  0  0
 27 32  2  0  0  0
 27 28  1  0  0  0
 28 29  2  0  0  0
 28 68  1  0  0  0
 29 30  1  0  0  0
 29 69  1  0  0  0
 30 31  2  0  0  0
 30 70  1  0  0  0
 31 32  1  0  0  0
 31 71  1  0  0  0
 32 72  1  0  0  0
 33 38  2  0  0  0
 33 34  1  0  0  0
 34 35  2  0  0  0
 34 73  1  0  0  0
 35 36  1  0  0  0
 35 74  1  0  0  0
 36 37  2  0  0  0
 36 75  1  0  0  0
 37 38  1  0  0  0
 37 76  1  0  0  0
 38 77  1  0  0  0
 39 78  1  0  0  0
M  END
> <i_i_glide_confnum>
115

> <i_i_glide_lignum>
2980

> <i_i_glide_posenum>
148

> <i_i_glide_rotatable_bonds>
13

> <i_m_Source_File_Index>
4945

> <b_m_subgroup_collapsed>
0

> <r_i_docking_score>
-2.57527

> <r_i_glide_ecoul>
-1.75475

> <r_i_glide_eff_state_penalty>
0

> <r_i_glide_einternal>
12.1499

> <r_i_glide_emodel>
-28.8254

> <r_i_glide_energy>
-30.6027

> <r_i_glide_erotb>
0.768951

> <r_i_glide_esite>
0

> <r_i_glide_evdw>
-28.8479

> <r_i_glide_gscore>
-2.57527

> <r_i_glide_hbond>
0

> <r_i_glide_ligand_efficiency>
-0.0677703

> <r_i_glide_ligand_efficiency_ln>
-0.555304

> <r_i_glide_ligand_efficiency_sa>
-0.227842

> <r_i_glide_lipo>
-1.90597

> <r_i_glide_metal>
0

> <r_i_glide_rewards>
0.267357

> <s_i_glide_gridfile>
wee1_glide-grid

> <s_m_Source_File>
wee1_decoys_glide_SP.sdf

> <s_m_Source_Path>
/Users/zhangxujun/Desktop

> <s_m_entry_id>
5220

> <s_m_entry_name>
wee1_decoys_glide_SP.4945

> <s_m_subgroup_title>
wee1_decoys_glide_SP

> <s_m_subgroupid>
wee1_decoys_glide_SP


$$$$
