ZINC49425712_6019
                    3D
 Schrodinger Suite 2024-2.
 60 64  0  0  1  0            999 V2000
    0.4326   52.2671   31.1860 C   0  0  0  0  0  0
    0.9958   52.5410   29.8037 C   0  0  0  0  0  0
    0.2337   52.2481   28.6678 C   0  0  0  0  0  0
    0.7125   52.5129   27.3828 C   0  0  0  0  0  0
    1.9849   53.0861   27.2488 C   0  0  0  0  0  0
    2.7587   53.3632   28.4036 C   0  0  0  0  0  0
    2.2760   53.0844   29.6871 C   0  0  0  0  0  0
    4.2926   54.0569   27.9129 S   0  0  0  0  0  0
    3.7721   53.9112   26.2398 C   0  0  0  0  0  0
    2.5753   53.4117   26.0670 N   0  0  0  0  0  0
    4.6935   54.2771   25.1111 C   0  0  0  0  0  0
    5.8339   55.0507   25.3507 C   0  0  0  0  0  0
    6.7043   55.3604   24.3141 C   0  0  0  0  0  0
    6.4550   54.9072   23.0206 C   0  0  0  0  0  0
    5.3415   54.0963   22.7747 C   0  0  0  0  0  0
    4.4469   53.8219   23.8082 C   0  0  0  0  0  0
    7.4024   55.2974   22.0627 N   0  0  0  0  0  0
    7.3081   55.5730   20.7449 C   0  0  0  0  0  0
    8.3540   55.8700   20.1758 O   0  0  0  0  0  0
    5.9683   55.5128   19.9433 C   0  0  2  0  0  0
    5.1636   55.4345   20.6620 H   0  0  0  0  0  0
    6.0216   54.2959   18.9794 C   0  0  0  0  0  0
    6.9374   54.5041   17.7487 C   0  0  0  0  0  0
    6.6710   55.8435   17.0142 C   0  0  0  0  0  0
    6.7028   56.9334   18.0179 N   0  0  0  0  0  0
    5.7055   56.7919   19.0961 C   0  0  0  0  0  0
    7.5156   58.0270   17.9953 C   0  0  0  0  0  0
    7.4827   58.8963   18.8710 O   0  0  0  0  0  0
    8.3812   58.1025   16.9654 N   0  0  0  0  0  0
    9.0647   59.3259   16.5305 C   0  0  0  0  0  0
   10.1712   59.8128   17.4580 C   0  0  0  0  0  0
   10.7223   59.2432   18.6101 C   0  0  0  0  0  0
   11.7388   60.0000   19.2002 C   0  0  0  0  0  0
   11.9968   61.1663   18.5130 C   0  0  0  0  0  0
   10.9725   61.3235   17.1291 S   0  0  0  0  0  0
    0.2333   53.1998   31.7150 H   0  0  0  0  0  0
   -0.4913   51.6909   31.1406 H   0  0  0  0  0  0
    1.1429   51.7009   31.7889 H   0  0  0  0  0  0
   -0.7493   51.8110   28.7810 H   0  0  0  0  0  0
    0.1144   52.2811   26.5144 H   0  0  0  0  0  0
    2.8750   53.2887   30.5584 H   0  0  0  0  0  0
    6.0567   55.4252   26.3389 H   0  0  0  0  0  0
    7.5635   55.9826   24.5148 H   0  0  0  0  0  0
    5.1530   53.6653   21.8036 H   0  0  0  0  0  0
    3.5794   53.2152   23.5971 H   0  0  0  0  0  0
    8.3235   55.4711   22.4499 H   0  0  0  0  0  0
    6.2243   53.3671   19.5146 H   0  0  0  0  0  0
    4.9994   54.1021   18.6510 H   0  0  0  0  0  0
    7.9872   54.4543   18.0420 H   0  0  0  0  0  0
    6.8022   53.6752   17.0526 H   0  0  0  0  0  0
    7.3581   55.9862   16.1795 H   0  0  0  0  0  0
    5.6640   55.8268   16.5930 H   0  0  0  0  0  0
    4.7336   56.6878   18.6119 H   0  0  0  0  0  0
    5.5890   57.6951   19.6846 H   0  0  0  0  0  0
    8.3958   57.3339   16.3113 H   0  0  0  0  0  0
    9.4474   59.1619   15.5205 H   0  0  0  0  0  0
    8.3151   60.1178   16.4242 H   0  0  0  0  0  0
   10.3879   58.2993   19.0148 H   0  0  0  0  0  0
   12.2705   59.6973   20.0881 H   0  0  0  0  0  0
   12.7387   61.9196   18.7328 H   0  0  0  0  0  0
  1  2  1  0  0  0
  1 36  1  0  0  0
  1 37  1  0  0  0
  1 38  1  0  0  0
  2  7  2  0  0  0
  2  3  1  0  0  0
  3  4  2  0  0  0
  3 39  1  0  0  0
  4  5  1  0  0  0
  4 40  1  0  0  0
  5 10  1  0  0  0
  5  6  2  0  0  0
  6  7  1  0  0  0
  6  8  1  0  0  0
  7 41  1  0  0  0
  8  9  1  0  0  0
  9 10  2  0  0  0
  9 11  1  0  0  0
 11 16  2  0  0  0
 11 12  1  0  0  0
 12 13  2  0  0  0
 12 42  1  0  0  0
 13 14  1  0  0  0
 13 43  1  0  0  0
 14 15  2  0  0  0
 14 17  1  0  0  0
 15 16  1  0  0  0
 15 44  1  0  0  0
 16 45  1  0  0  0
 17 18  1  0  0  0
 17 46  1  0  0  0
 18 19  2  0  0  0
 18 20  1  0  0  0
 20 21  1  0  0  0
 20 26  1  0  0  0
 20 22  1  0  0  0
 22 23  1  0  0  0
 22 47  1  0  0  0
 22 48  1  0  0  0
 23 24  1  0  0  0
 23 49  1  0  0  0
 23 50  1  0  0  0
 24 25  1  0  0  0
 24 51  1  0  0  0
 24 52  1  0  0  0
 25 26  1  0  0  0
 25 27  1  0  0  0
 26 53  1  0  0  0
 26 54  1  0  0  0
 27 28  2  0  0  0
 27 29  1  0  0  0
 29 30  1  0  0  0
 29 55  1  0  0  0
 30 31  1  0  0  0
 30 56  1  0  0  0
 30 57  1  0  0  0
 31 35  1  0  0  0
 31 32  2  0  0  0
 32 33  1  0  0  0
 32 58  1  0  0  0
 33 34  2  0  0  0
 33 59  1  0  0  0
 34 35  1  0  0  0
 34 60  1  0  0  0
M  END
> <i_i_glide_confnum>
145

> <i_i_glide_lignum>
6020

> <i_i_glide_posenum>
281

> <i_i_glide_rotatable_bonds>
8

> <i_m_Source_File_Index>
4453

> <b_m_subgroup_collapsed>
0

> <r_i_docking_score>
-3.97117

> <r_i_glide_ecoul>
-2.31789

> <r_i_glide_eff_state_penalty>
0

> <r_i_glide_einternal>
5.70004

> <r_i_glide_emodel>
-51.8876

> <r_i_glide_energy>
-47.9382

> <r_i_glide_erotb>
0.41426

> <r_i_glide_esite>
-0.0266647

> <r_i_glide_evdw>
-45.6203

> <r_i_glide_gscore>
-3.97117

> <r_i_glide_hbond>
-0.340734

> <r_i_glide_ligand_efficiency>
-0.116799

> <r_i_glide_ligand_efficiency_ln>
-0.877343

> <r_i_glide_ligand_efficiency_sa>
-0.378384

> <r_i_glide_lipo>
-2.98723

> <r_i_glide_metal>
0

> <r_i_glide_rewards>
1.5979

> <s_i_glide_gridfile>
wee1_glide-grid

> <s_m_Source_File>
wee1_decoys_glide_SP.sdf

> <s_m_Source_Path>
/Users/zhangxujun/Desktop

> <s_m_entry_id>
4728

> <s_m_entry_name>
wee1_decoys_glide_SP.4453

> <s_m_subgroup_title>
wee1_decoys_glide_SP

> <s_m_subgroupid>
wee1_decoys_glide_SP


$$$$
