ZINC39446762_3789
                    3D
 Schrodinger Suite 2024-2.
 37 40  0  0  1  0            999 V2000
   -0.0116   51.6969   21.2632 C   0  0  0  0  0  0
    1.0601   51.5000   22.3594 C   0  0  1  0  0  0
    1.1661   50.4260   22.5263 H   0  0  0  0  0  0
    2.3859   52.0604   21.8796 C   0  0  0  0  0  0
    3.1953   51.5297   20.8710 C   0  0  0  0  0  0
    4.3548   52.2000   20.4812 C   0  0  0  0  0  0
    4.7048   53.4097   21.0797 C   0  0  0  0  0  0
    3.9007   53.9470   22.0830 C   0  0  0  0  0  0
    2.7505   53.2685   22.4850 C   0  0  0  0  0  0
    1.6240   53.7859   23.7316 S   0  0  0  0  0  0
    0.7996   52.1672   23.7349 C   0  0  1  0  0  0
    1.3302   51.5571   24.4657 H   0  0  0  0  0  0
   -0.6738   52.3221   24.2203 C   0  0  0  0  0  0
   -1.5220   52.8831   23.5254 O   0  0  0  0  0  0
   -1.0402   51.8263   25.4675 N   0  0  0  0  0  0
   -0.3593   52.0497   26.5267 C   0  0  0  0  0  0
   -0.7180   51.6994   27.8503 N   0  0  0  0  0  0
   -1.5464   51.1667   28.0779 H   0  0  0  0  0  0
    0.2243   52.1409   28.7772 C   0  0  0  0  0  0
    0.2787   52.0967   30.1694 C   0  0  0  0  0  0
    1.4407   52.5174   30.8227 C   0  0  0  0  0  0
    2.5244   53.0067   30.0843 C   0  0  0  0  0  0
    2.4361   53.1205   28.6972 C   0  0  0  0  0  0
    1.2769   52.6891   28.0576 C   0  0  0  0  0  0
    0.8944   52.6886   26.7265 N   0  0  0  0  0  0
    1.4404   53.0871   25.9755 H   0  0  0  0  0  0
    0.2945   51.2363   20.3230 H   0  0  0  0  0  0
   -0.9629   51.2427   21.5414 H   0  0  0  0  0  0
   -0.1839   52.7551   21.0661 H   0  0  0  0  0  0
    2.9303   50.6098   20.3692 H   0  0  0  0  0  0
    4.9657   51.7934   19.6882 H   0  0  0  0  0  0
    5.5913   53.9356   20.7573 H   0  0  0  0  0  0
    4.1702   54.8901   22.5356 H   0  0  0  0  0  0
   -0.5418   51.6964   30.7498 H   0  0  0  0  0  0
    1.5003   52.4490   31.9000 H   0  0  0  0  0  0
    3.4339   53.3035   30.5836 H   0  0  0  0  0  0
    3.2656   53.5243   28.1350 H   0  0  0  0  0  0
  1  2  1  0  0  0
  1 27  1  0  0  0
  1 28  1  0  0  0
  1 29  1  0  0  0
  2  3  1  0  0  0
  2 11  1  0  0  0
  2  4  1  0  0  0
  4  9  2  0  0  0
  4  5  1  0  0  0
  5  6  2  0  0  0
  5 30  1  0  0  0
  6  7  1  0  0  0
  6 31  1  0  0  0
  7  8  2  0  0  0
  7 32  1  0  0  0
  8  9  1  0  0  0
  8 33  1  0  0  0
  9 10  1  0  0  0
 10 11  1  0  0  0
 11 12  1  0  0  0
 11 13  1  0  0  0
 13 14  2  0  0  0
 13 15  1  0  0  0
 15 16  2  0  0  0
 16 25  1  0  0  0
 16 17  1  0  0  0
 17 18  1  0  0  0
 17 19  1  0  0  0
 19 24  2  0  0  0
 19 20  1  0  0  0
 20 21  2  0  0  0
 20 34  1  0  0  0
 21 22  1  0  0  0
 21 35  1  0  0  0
 22 23  2  0  0  0
 22 36  1  0  0  0
 23 24  1  0  0  0
 23 37  1  0  0  0
 24 25  1  0  0  0
 25 26  1  0  0  0
M  END
> <i_i_glide_confnum>
2

> <i_i_glide_lignum>
3790

> <i_i_glide_posenum>
35

> <i_i_glide_rotatable_bonds>
2

> <i_m_Source_File_Index>
2491

> <b_m_subgroup_collapsed>
0

> <r_i_docking_score>
-4.57807

> <r_i_glide_ecoul>
-2.4681

> <r_i_glide_eff_state_penalty>
0

> <r_i_glide_einternal>
1.57668

> <r_i_glide_emodel>
-46.5047

> <r_i_glide_energy>
-36.7031

> <r_i_glide_erotb>
0.386867

> <r_i_glide_esite>
-0.0688552

> <r_i_glide_evdw>
-34.235

> <r_i_glide_gscore>
-4.57807

> <r_i_glide_hbond>
0

> <r_i_glide_ligand_efficiency>
-0.208094

> <r_i_glide_ligand_efficiency_ln>
-1.11905

> <r_i_glide_ligand_efficiency_sa>
-0.583087

> <r_i_glide_lipo>
-1.36936

> <r_i_glide_metal>
0

> <r_i_glide_rewards>
-1.44475

> <s_i_glide_gridfile>
wee1_glide-grid

> <s_m_Source_File>
wee1_decoys_glide_SP.sdf

> <s_m_Source_Path>
/Users/zhangxujun/Desktop

> <s_m_entry_id>
2766

> <s_m_entry_name>
wee1_decoys_glide_SP.2491

> <s_m_subgroup_title>
wee1_decoys_glide_SP

> <s_m_subgroupid>
wee1_decoys_glide_SP


$$$$
