ZINC49623811_4744
                    3D
 Schrodinger Suite 2024-2.
 33 34  0  0  1  0            999 V2000
    3.9830   53.6967   26.5216 C   0  0  0  0  0  0
    2.8765   53.7338   27.3611 C   0  0  0  0  0  0
    3.0548   54.0088   28.7163 C   0  0  0  0  0  0
    4.3224   54.2736   29.2325 C   0  0  0  0  0  0
    5.4287   54.2274   28.3938 C   0  0  0  0  0  0
    5.2574   53.9257   27.0426 C   0  0  0  0  0  0
    6.4631   53.8174   26.1385 C   0  0  0  0  0  0
    6.7044   55.3513   25.2185 S   0  0  0  0  0  0
    6.3305   54.8967   23.5166 C   0  0  0  0  0  0
    6.9518   55.5871   22.5160 N   0  0  0  0  0  0
    7.6790   56.2383   22.7570 H   0  0  0  0  0  0
    6.6253   55.5664   21.2097 C   0  0  0  0  0  0
    7.1044   56.3715   20.4223 O   0  0  0  0  0  0
    5.6415   54.5543   20.9060 C   0  0  0  0  0  0
    5.1044   53.8229   21.9058 C   0  0  0  0  0  0
    5.4501   53.9987   23.2170 N   0  0  0  0  0  0
    4.1748   52.8597   21.6820 N   0  0  0  0  0  0
    1.9169   53.9844   29.6098 C   0  0  0  0  0  0
    0.9885   53.9135   30.3954 C   0  0  0  0  0  0
   -0.0956   53.8163   31.3697 C   0  0  0  0  0  0
    0.3044   53.2967   32.6110 O   0  0  0  0  0  0
    3.8541   53.4657   25.4737 H   0  0  0  0  0  0
    1.8941   53.5297   26.9587 H   0  0  0  0  0  0
    4.4642   54.4966   30.2797 H   0  0  0  0  0  0
    6.4126   54.4178   28.7988 H   0  0  0  0  0  0
    7.3556   53.6032   26.7273 H   0  0  0  0  0  0
    6.3537   52.9774   25.4688 H   0  0  0  0  0  0
    5.3591   54.4085   19.8763 H   0  0  0  0  0  0
    3.8514   52.6611   20.7478 H   0  0  0  0  0  0
    3.7708   52.3590   22.4559 H   0  0  0  0  0  0
   -0.8681   53.1758   30.9426 H   0  0  0  0  0  0
   -0.4956   54.8188   31.5078 H   0  0  0  0  0  0
   -0.3735   52.6430   32.8817 H   0  0  0  0  0  0
  1  6  2  0  0  0
  1  2  1  0  0  0
  1 22  1  0  0  0
  2  3  2  0  0  0
  2 23  1  0  0  0
  3  4  1  0  0  0
  3 18  1  0  0  0
  4  5  2  0  0  0
  4 24  1  0  0  0
  5  6  1  0  0  0
  5 25  1  0  0  0
  6  7  1  0  0  0
  7  8  1  0  0  0
  7 26  1  0  0  0
  7 27  1  0  0  0
  8  9  1  0  0  0
  9 16  2  0  0  0
  9 10  1  0  0  0
 10 11  1  0  0  0
 10 12  1  0  0  0
 12 13  2  0  0  0
 12 14  1  0  0  0
 14 15  2  0  0  0
 14 28  1  0  0  0
 15 16  1  0  0  0
 15 17  1  0  0  0
 17 29  1  0  0  0
 17 30  1  0  0  0
 18 19  3  0  0  0
 19 20  1  0  0  0
 20 21  1  0  0  0
 20 31  1  0  0  0
 20 32  1  0  0  0
 21 33  1  0  0  0
M  END
> <i_i_glide_confnum>
5

> <i_i_glide_lignum>
4745

> <i_i_glide_posenum>
261

> <i_i_glide_rotatable_bonds>
6

> <i_m_Source_File_Index>
286

> <b_m_subgroup_collapsed>
0

> <r_i_docking_score>
-7.15241

> <r_i_glide_ecoul>
-9.65712

> <r_i_glide_eff_state_penalty>
0

> <r_i_glide_einternal>
3.17191

> <r_i_glide_emodel>
-64.5715

> <r_i_glide_energy>
-45.14

> <r_i_glide_erotb>
1.10066

> <r_i_glide_esite>
0

> <r_i_glide_evdw>
-35.4829

> <r_i_glide_gscore>
-7.15241

> <r_i_glide_hbond>
-0.34998

> <r_i_glide_ligand_efficiency>
-0.357621

> <r_i_glide_ligand_efficiency_ln>
-1.79001

> <r_i_glide_ligand_efficiency_sa>
-0.970732

> <r_i_glide_lipo>
-2.74494

> <r_i_glide_metal>
0

> <r_i_glide_rewards>
-1.93545

> <s_i_glide_gridfile>
wee1_glide-grid

> <s_m_Source_File>
wee1_decoys_glide_SP.sdf

> <s_m_Source_Path>
/Users/zhangxujun/Desktop

> <s_m_entry_id>
561

> <s_m_entry_name>
wee1_decoys_glide_SP.286

> <s_m_subgroup_title>
wee1_decoys_glide_SP

> <s_m_subgroupid>
wee1_decoys_glide_SP


$$$$
