ZINC14668001_6129
                    3D
 Schrodinger Suite 2024-2.
 47 48  0  0  1  0            999 V2000
   -0.3613   49.0739   22.1778 C   0  0  0  0  0  0
   -0.0472   50.5588   21.8792 C   0  0  2  0  0  0
   -0.3914   50.7239   20.8565 H   0  0  0  0  0  0
    1.4468   50.9527   21.8789 C   0  0  0  0  0  0
    2.3018   50.2071   22.3656 O   0  0  0  0  0  0
    1.7169   52.1478   21.3132 N   0  0  0  0  0  0
    2.9989   52.6940   21.3654 N   0  0  0  0  0  0
    3.3744   53.4196   22.4449 C   0  0  0  0  0  0
    2.6647   53.5861   23.4420 O   0  0  0  0  0  0
    4.7236   54.0961   22.3340 C   0  0  0  0  0  0
    5.1581   54.5659   21.0804 C   0  0  0  0  0  0
    6.3363   55.2963   20.9576 C   0  0  0  0  0  0
    7.1114   55.5470   22.0804 C   0  0  0  0  0  0
    6.7043   55.0870   23.3281 C   0  0  0  0  0  0
    5.5087   54.3691   23.4780 C   0  0  0  0  0  0
    5.0931   53.9024   24.7115 O   0  0  0  0  0  0
    5.3756   54.6430   25.8987 C   0  0  0  0  0  0
    4.1254   54.4967   26.7765 C   0  0  0  0  0  0
    6.6193   54.0902   26.6139 C   0  0  0  0  0  0
    6.8864   55.9599   19.2621 Br  0  0  0  0  0  0
   -0.8174   51.5018   22.6468 O   0  0  0  0  0  0
   -0.8417   51.5291   24.0355 C   0  0  0  0  0  0
    0.0292   50.8019   24.8669 C   0  0  0  0  0  0
   -0.0965   50.8514   26.2548 C   0  0  0  0  0  0
   -1.0827   51.6416   26.8384 C   0  0  0  0  0  0
   -1.9377   52.3891   26.0307 C   0  0  0  0  0  0
   -1.8151   52.3395   24.6405 C   0  0  0  0  0  0
   -2.8929   53.2951   23.6816 Cl  0  0  0  0  0  0
   -1.2404   51.6968   28.5567 Cl  0  0  0  0  0  0
    0.0982   48.4325   21.4262 H   0  0  0  0  0  0
   -0.0058   48.7289   23.1466 H   0  0  0  0  0  0
   -1.4358   48.8960   22.1396 H   0  0  0  0  0  0
    1.0319   52.7737   20.9150 H   0  0  0  0  0  0
    3.6293   52.3016   20.6816 H   0  0  0  0  0  0
    4.5675   54.4094   20.1876 H   0  0  0  0  0  0
    8.0376   56.0965   21.9907 H   0  0  0  0  0  0
    7.3381   55.3036   24.1712 H   0  0  0  0  0  0
    5.5155   55.7037   25.6804 H   0  0  0  0  0  0
    4.2364   55.0262   27.7225 H   0  0  0  0  0  0
    3.2454   54.8954   26.2718 H   0  0  0  0  0  0
    3.9233   53.4486   27.0017 H   0  0  0  0  0  0
    6.8405   54.6594   27.5176 H   0  0  0  0  0  0
    6.4717   53.0504   26.9070 H   0  0  0  0  0  0
    7.5038   54.1232   25.9826 H   0  0  0  0  0  0
    0.8204   50.1917   24.4653 H   0  0  0  0  0  0
    0.5664   50.2690   26.8786 H   0  0  0  0  0  0
   -2.6987   53.0087   26.4815 H   0  0  0  0  0  0
  1  2  1  0  0  0
  1 30  1  0  0  0
  1 31  1  0  0  0
  1 32  1  0  0  0
  2  3  1  0  0  0
  2  4  1  0  0  0
  2 21  1  0  0  0
  4  5  2  0  0  0
  4  6  1  0  0  0
  6  7  1  0  0  0
  6 33  1  0  0  0
  7  8  1  0  0  0
  7 34  1  0  0  0
  8  9  2  0  0  0
  8 10  1  0  0  0
 10 15  2  0  0  0
 10 11  1  0  0  0
 11 12  2  0  0  0
 11 35  1  0  0  0
 12 13  1  0  0  0
 12 20  1  0  0  0
 13 14  2  0  0  0
 13 36  1  0  0  0
 14 15  1  0  0  0
 14 37  1  0  0  0
 15 16  1  0  0  0
 16 17  1  0  0  0
 17 18  1  0  0  0
 17 19  1  0  0  0
 17 38  1  0  0  0
 18 39  1  0  0  0
 18 40  1  0  0  0
 18 41  1  0  0  0
 19 42  1  0  0  0
 19 43  1  0  0  0
 19 44  1  0  0  0
 21 22  1  0  0  0
 22 27  2  0  0  0
 22 23  1  0  0  0
 23 24  2  0  0  0
 23 45  1  0  0  0
 24 25  1  0  0  0
 24 46  1  0  0  0
 25 26  2  0  0  0
 25 29  1  0  0  0
 26 27  1  0  0  0
 26 47  1  0  0  0
 27 28  1  0  0  0
M  END
> <i_i_glide_confnum>
101

> <i_i_glide_lignum>
6130

> <i_i_glide_posenum>
182

> <i_i_glide_rotatable_bonds>
9

> <i_m_Source_File_Index>
420

> <b_m_subgroup_collapsed>
0

> <r_i_docking_score>
-4.29576

> <r_i_glide_ecoul>
-2.05093

> <r_i_glide_eff_state_penalty>
0

> <r_i_glide_einternal>
6.15517

> <r_i_glide_emodel>
-54.9875

> <r_i_glide_energy>
-45.4317

> <r_i_glide_erotb>
0.592834

> <r_i_glide_esite>
-0.00573191

> <r_i_glide_evdw>
-43.3807

> <r_i_glide_gscore>
-4.29576

> <r_i_glide_hbond>
0

> <r_i_glide_ligand_efficiency>
-0.15342

> <r_i_glide_ligand_efficiency_ln>
-0.991587

> <r_i_glide_ligand_efficiency_sa>
-0.465873

> <r_i_glide_lipo>
-2.09898

> <r_i_glide_metal>
0

> <r_i_glide_rewards>
-0.307201

> <s_i_glide_gridfile>
wee1_glide-grid

> <s_m_Source_File>
wee1_decoys_glide_SP.sdf

> <s_m_Source_Path>
/Users/zhangxujun/Desktop

> <s_m_entry_id>
695

> <s_m_entry_name>
wee1_decoys_glide_SP.420

> <s_m_subgroup_title>
wee1_decoys_glide_SP

> <s_m_subgroupid>
wee1_decoys_glide_SP


$$$$
