ZINC02336476_4563
                    3D
 Schrodinger Suite 2024-2.
 46 49  0  0  1  0            999 V2000
    1.6157   55.2415   30.0808 C   0  0  0  0  0  0
    2.1566   53.7910   30.0808 C   0  0  1  0  0  0
    1.9068   53.3552   31.0503 H   0  0  0  0  0  0
    1.4587   52.8762   29.0527 C   0  0  0  0  0  0
    1.6593   53.3886   27.6122 C   0  0  0  0  0  0
    3.1381   53.7084   27.3895 C   0  0  0  0  0  0
    4.0531   53.8357   28.4352 C   0  0  0  0  0  0
    5.6929   54.1231   27.9016 S   0  0  0  0  0  0
    5.1501   54.2039   26.2390 C   0  0  0  0  0  0
    3.7469   53.9733   26.1259 C   0  0  0  0  0  0
    3.2369   54.0404   24.8071 C   0  0  0  0  0  0
    4.0479   54.2692   23.7532 N   0  0  0  0  0  0
    5.3684   54.4398   23.9971 C   0  0  0  0  0  0
    5.9729   54.4447   25.2109 N   0  0  0  0  0  0
    6.4136   54.6510   22.5907 S   0  0  0  0  0  0
    5.4040   54.4587   21.0735 C   0  0  0  0  0  0
    4.6561   53.1207   20.9234 C   0  0  0  0  0  0
    5.1044   52.0920   21.4234 O   0  0  0  0  0  0
    3.5089   53.1461   20.2244 N   0  0  0  0  0  0
    2.6995   51.9687   19.9002 C   0  0  0  0  0  0
    2.0405   51.3422   21.1161 C   0  0  0  0  0  0
    2.1108   50.0874   21.7086 C   0  0  0  0  0  0
    1.2752   50.1114   22.8245 C   0  0  0  0  0  0
    0.7045   51.3718   22.8488 C   0  0  0  0  0  0
    1.1753   52.1208   21.8194 O   0  0  0  0  0  0
    1.8897   53.8646   24.4993 N   0  0  0  0  0  0
    3.6988   53.6935   29.9131 C   0  0  0  0  0  0
    1.8420   55.7596   29.1456 H   0  0  0  0  0  0
    0.5323   55.2545   30.2123 H   0  0  0  0  0  0
    2.0419   55.8398   30.8812 H   0  0  0  0  0  0
    1.8312   51.8529   29.1356 H   0  0  0  0  0  0
    0.3863   52.8392   29.2515 H   0  0  0  0  0  0
    1.0736   54.2888   27.4403 H   0  0  0  0  0  0
    1.3031   52.6315   26.9143 H   0  0  0  0  0  0
    6.0647   54.5626   20.2135 H   0  0  0  0  0  0
    4.7043   55.2916   21.0311 H   0  0  0  0  0  0
    3.1778   54.0275   19.8582 H   0  0  0  0  0  0
    3.3351   51.2386   19.3898 H   0  0  0  0  0  0
    1.9482   52.2530   19.1632 H   0  0  0  0  0  0
    2.7047   49.2532   21.3695 H   0  0  0  0  0  0
    1.1034   49.3060   23.5231 H   0  0  0  0  0  0
    0.0013   51.8535   23.5105 H   0  0  0  0  0  0
    1.2265   53.6696   25.2334 H   0  0  0  0  0  0
    1.6119   53.8832   23.5269 H   0  0  0  0  0  0
    4.0562   52.7393   30.3005 H   0  0  0  0  0  0
    4.2006   54.4740   30.4822 H   0  0  0  0  0  0
  1  2  1  0  0  0
  1 28  1  0  0  0
  1 29  1  0  0  0
  1 30  1  0  0  0
  2  3  1  0  0  0
  2 27  1  0  0  0
  2  4  1  0  0  0
  4  5  1  0  0  0
  4 31  1  0  0  0
  4 32  1  0  0  0
  5  6  1  0  0  0
  5 33  1  0  0  0
  5 34  1  0  0  0
  6 10  1  0  0  0
  6  7  2  0  0  0
  7  8  1  0  0  0
  7 27  1  0  0  0
  8  9  1  0  0  0
  9 14  2  0  0  0
  9 10  1  0  0  0
 10 11  2  0  0  0
 11 12  1  0  0  0
 11 26  1  0  0  0
 12 13  2  0  0  0
 13 14  1  0  0  0
 13 15  1  0  0  0
 15 16  1  0  0  0
 16 17  1  0  0  0
 16 35  1  0  0  0
 16 36  1  0  0  0
 17 18  2  0  0  0
 17 19  1  0  0  0
 19 20  1  0  0  0
 19 37  1  0  0  0
 20 21  1  0  0  0
 20 38  1  0  0  0
 20 39  1  0  0  0
 21 25  1  0  0  0
 21 22  2  0  0  0
 22 23  1  0  0  0
 22 40  1  0  0  0
 23 24  2  0  0  0
 23 41  1  0  0  0
 24 25  1  0  0  0
 24 42  1  0  0  0
 26 43  1  0  0  0
 26 44  1  0  0  0
 27 45  1  0  0  0
 27 46  1  0  0  0
M  END
> <i_i_glide_confnum>
90

> <i_i_glide_lignum>
4564

> <i_i_glide_posenum>
307

> <i_i_glide_rotatable_bonds>
6

> <i_m_Source_File_Index>
120

> <b_m_subgroup_collapsed>
0

> <r_i_docking_score>
-6.48015

> <r_i_glide_ecoul>
-3.83675

> <r_i_glide_eff_state_penalty>
0

> <r_i_glide_einternal>
1.88724

> <r_i_glide_emodel>
-67.177

> <r_i_glide_energy>
-48.6217

> <r_i_glide_erotb>
0.64545

> <r_i_glide_esite>
0

> <r_i_glide_evdw>
-44.785

> <r_i_glide_gscore>
-6.48015

> <r_i_glide_hbond>
-0.155619

> <r_i_glide_ligand_efficiency>
-0.249237

> <r_i_glide_ligand_efficiency_ln>
-1.52184

> <r_i_glide_ligand_efficiency_sa>
-0.738363

> <r_i_glide_lipo>
-2.92261

> <r_i_glide_metal>
0

> <r_i_glide_rewards>
-1.23261

> <s_i_glide_gridfile>
wee1_glide-grid

> <s_m_Source_File>
wee1_decoys_glide_SP.sdf

> <s_m_Source_Path>
/Users/zhangxujun/Desktop

> <s_m_entry_id>
395

> <s_m_entry_name>
wee1_decoys_glide_SP.120

> <s_m_subgroup_title>
wee1_decoys_glide_SP

> <s_m_subgroupid>
wee1_decoys_glide_SP


$$$$
