ZINC38008926_1582
                    3D
 Schrodinger Suite 2024-2.
 42 43  0  0  1  0            999 V2000
    7.0714   54.8967   25.6811 C   0  0  0  0  0  0
    5.5542   54.7751   25.7925 C   0  0  1  0  0  0
    5.1616   55.7461   26.0873 H   0  0  0  0  0  0
    4.9633   54.4310   24.4138 C   0  0  0  0  0  0
    3.4343   54.4712   24.4534 C   0  0  0  0  0  0
    2.8991   53.4911   25.5011 C   0  0  0  0  0  0
    3.5362   53.6396   26.9177 C   0  0  1  0  0  0
    3.2662   52.7714   27.5220 H   0  0  0  0  0  0
    5.0912   53.7295   26.8520 C   0  0  2  0  0  0
    5.4146   52.7594   26.4817 H   0  0  0  0  0  0
    5.7753   53.8554   28.2300 C   0  0  0  0  0  0
    2.9929   54.8706   27.5407 N   0  0  0  0  0  0
    2.3543   54.8509   29.1864 S   0  0  0  0  0  0
    3.3937   54.3337   30.0815 O   0  0  0  0  0  0
    1.7323   56.1559   29.4284 O   0  0  0  0  0  0
    1.0359   53.6429   29.2249 C   0  0  0  0  0  0
    0.6462   53.0641   30.4352 C   0  0  0  0  0  0
   -0.3559   52.0969   30.4013 C   0  0  0  0  0  0
   -0.9579   51.6864   29.2645 N   0  0  0  0  0  0
   -0.5598   52.2301   28.0901 C   0  0  0  0  0  0
    0.4036   53.2373   28.0487 C   0  0  0  0  0  0
   -1.1834   51.7902   26.9137 N   0  0  0  0  0  0
   -2.0867   50.6462   26.8788 N   0  0  0  0  0  0
    7.5038   53.9486   25.3672 H   0  0  0  0  0  0
    7.3605   55.6518   24.9479 H   0  0  0  0  0  0
    7.5043   55.1805   26.6385 H   0  0  0  0  0  0
    5.3303   55.1401   23.6728 H   0  0  0  0  0  0
    5.3307   53.4633   24.0674 H   0  0  0  0  0  0
    3.1010   55.4675   24.7125 H   0  0  0  0  0  0
    3.0209   54.2467   23.4691 H   0  0  0  0  0  0
    1.8178   53.5673   25.4998 H   0  0  0  0  0  0
    3.1039   52.4965   25.1302 H   0  0  0  0  0  0
    5.6277   54.8442   28.6664 H   0  0  0  0  0  0
    6.8486   53.6753   28.1730 H   0  0  0  0  0  0
    5.3810   53.1151   28.9256 H   0  0  0  0  0  0
    2.4898   55.4849   26.8986 H   0  0  0  0  0  0
    1.1057   53.3436   31.3723 H   0  0  0  0  0  0
   -0.6942   51.5879   31.2816 H   0  0  0  0  0  0
    0.6645   53.6967   27.1203 H   0  0  0  0  0  0
   -0.7900   51.9863   26.0031 H   0  0  0  0  0  0
   -1.6948   49.8676   27.4185 H   0  0  0  0  0  0
   -2.9814   50.9215   27.2587 H   0  0  0  0  0  0
  1  2  1  0  0  0
  1 24  1  0  0  0
  1 25  1  0  0  0
  1 26  1  0  0  0
  2  3  1  0  0  0
  2  9  1  0  0  0
  2  4  1  0  0  0
  4  5  1  0  0  0
  4 27  1  0  0  0
  4 28  1  0  0  0
  5  6  1  0  0  0
  5 29  1  0  0  0
  5 30  1  0  0  0
  6  7  1  0  0  0
  6 31  1  0  0  0
  6 32  1  0  0  0
  7  8  1  0  0  0
  7  9  1  0  0  0
  7 12  1  0  0  0
  9 10  1  0  0  0
  9 11  1  0  0  0
 11 33  1  0  0  0
 11 34  1  0  0  0
 11 35  1  0  0  0
 12 13  1  0  0  0
 12 36  1  0  0  0
 13 14  2  0  0  0
 13 15  2  0  0  0
 13 16  1  0  0  0
 16 21  2  0  0  0
 16 17  1  0  0  0
 17 18  2  0  0  0
 17 37  1  0  0  0
 18 19  1  0  0  0
 18 38  1  0  0  0
 19 20  2  0  0  0
 20 21  1  0  0  0
 20 22  1  0  0  0
 21 39  1  0  0  0
 22 23  1  0  0  0
 22 40  1  0  0  0
 23 41  1  0  0  0
 23 42  1  0  0  0
M  END
> <i_i_glide_confnum>
1

> <i_i_glide_lignum>
1583

> <i_i_glide_posenum>
162

> <i_i_glide_rotatable_bonds>
4

> <i_m_Source_File_Index>
2486

> <b_m_subgroup_collapsed>
0

> <r_i_docking_score>
-4.85103

> <r_i_glide_ecoul>
-6.4974

> <r_i_glide_eff_state_penalty>
0

> <r_i_glide_einternal>
2.88179

> <r_i_glide_emodel>
-44.516

> <r_i_glide_energy>
-37.5311

> <r_i_glide_erotb>
0.618238

> <r_i_glide_esite>
-0.102614

> <r_i_glide_evdw>
-31.0337

> <r_i_glide_gscore>
-4.85103

> <r_i_glide_hbond>
-0.16

> <r_i_glide_ligand_efficiency>
-0.242552

> <r_i_glide_ligand_efficiency_ln>
-1.21405

> <r_i_glide_ligand_efficiency_sa>
-0.658386

> <r_i_glide_lipo>
-1.99062

> <r_i_glide_metal>
0

> <r_i_glide_rewards>
-0.689741

> <s_i_glide_gridfile>
wee1_glide-grid

> <s_m_Source_File>
wee1_decoys_glide_SP.sdf

> <s_m_Source_Path>
/Users/zhangxujun/Desktop

> <s_m_entry_id>
2761

> <s_m_entry_name>
wee1_decoys_glide_SP.2486

> <s_m_subgroup_title>
wee1_decoys_glide_SP

> <s_m_subgroupid>
wee1_decoys_glide_SP


$$$$
