ZINC30826862_3424
                    3D
 Schrodinger Suite 2024-2.
 58 61  0  0  1  0            999 V2000
    0.5284   57.0457   15.9599 C   0  0  0  0  0  0
    2.0235   57.1793   16.1707 C   0  0  0  0  0  0
    2.6733   58.3606   15.8142 C   0  0  0  0  0  0
    4.0400   58.4971   16.0373 C   0  0  0  0  0  0
    4.7686   57.4668   16.6356 C   0  0  0  0  0  0
    4.1062   56.2750   16.9764 C   0  0  0  0  0  0
    2.7414   56.1332   16.7498 C   0  0  0  0  0  0
    6.2470   57.6475   16.8953 C   0  0  0  0  0  0
    6.9388   58.3081   16.1200 O   0  0  0  0  0  0
    6.6806   57.0571   18.0353 N   0  0  0  0  0  0
    7.9252   56.8772   18.5938 C   0  0  0  0  0  0
    9.3744   57.5366   18.0815 S   0  0  0  0  0  0
    7.9516   56.0935   19.7146 N   0  0  0  0  0  0
    6.9200   55.2972   20.2551 C   0  0  0  0  0  0
    6.1304   54.4967   19.4241 C   0  0  0  0  0  0
    5.0804   53.7431   19.9412 C   0  0  0  0  0  0
    4.8506   53.7403   21.3225 C   0  0  0  0  0  0
    5.6750   54.4943   22.1829 C   0  0  0  0  0  0
    6.7057   55.2783   21.6368 C   0  0  0  0  0  0
    5.4686   54.4966   23.6639 C   0  0  0  0  0  0
    4.3094   54.4923   24.2941 N   0  0  0  0  0  0
    4.6509   54.4791   25.6119 C   0  0  0  0  0  0
    3.8558   54.4542   26.7667 C   0  0  0  0  0  0
    4.4947   54.4320   28.0166 C   0  0  0  0  0  0
    5.8982   54.4206   28.0960 C   0  0  0  0  0  0
    6.7048   54.4484   26.9582 C   0  0  0  0  0  0
    6.0461   54.4837   25.7287 C   0  0  0  0  0  0
    6.5744   54.5114   24.4737 O   0  0  0  0  0  0
    3.6840   54.3962   29.3139 C   0  0  0  0  0  0
    2.4190   55.2826   29.2873 C   0  0  0  0  0  0
    3.3675   52.9461   29.7304 C   0  0  0  0  0  0
    3.8268   52.9712   21.8194 O   0  0  0  0  0  0
    4.2136   52.9306   18.9850 C   0  0  0  0  0  0
    0.0849   56.3743   16.6969 H   0  0  0  0  0  0
    0.0314   58.0103   16.0766 H   0  0  0  0  0  0
    0.3136   56.6650   14.9607 H   0  0  0  0  0  0
    2.1221   59.1830   15.3759 H   0  0  0  0  0  0
    4.5211   59.4282   15.7655 H   0  0  0  0  0  0
    4.6340   55.4437   17.4091 H   0  0  0  0  0  0
    2.2441   55.2133   17.0272 H   0  0  0  0  0  0
    5.9392   56.6170   18.5574 H   0  0  0  0  0  0
    8.8405   56.0328   20.1921 H   0  0  0  0  0  0
    6.3354   54.4598   18.3646 H   0  0  0  0  0  0
    7.3371   55.8623   22.2906 H   0  0  0  0  0  0
    2.7803   54.4390   26.6851 H   0  0  0  0  0  0
    6.3760   54.3966   29.0649 H   0  0  0  0  0  0
    7.7800   54.4310   27.0338 H   0  0  0  0  0  0
    4.3241   54.8285   30.0823 H   0  0  0  0  0  0
    2.6595   56.2997   28.9772 H   0  0  0  0  0  0
    1.9606   55.3478   30.2735 H   0  0  0  0  0  0
    1.6597   54.8966   28.6058 H   0  0  0  0  0  0
    4.2790   52.3541   29.8178 H   0  0  0  0  0  0
    2.8578   52.9034   30.6934 H   0  0  0  0  0  0
    2.7276   52.4550   28.9965 H   0  0  0  0  0  0
    3.3049   52.5740   21.1189 H   0  0  0  0  0  0
    4.6455   52.8704   17.9876 H   0  0  0  0  0  0
    4.0999   51.9063   19.3378 H   0  0  0  0  0  0
    3.2168   53.3676   18.9089 H   0  0  0  0  0  0
  1  2  1  0  0  0
  1 34  1  0  0  0
  1 35  1  0  0  0
  1 36  1  0  0  0
  2  7  2  0  0  0
  2  3  1  0  0  0
  3  4  2  0  0  0
  3 37  1  0  0  0
  4  5  1  0  0  0
  4 38  1  0  0  0
  5  6  2  0  0  0
  5  8  1  0  0  0
  6  7  1  0  0  0
  6 39  1  0  0  0
  7 40  1  0  0  0
  8  9  2  0  0  0
  8 10  1  0  0  0
 10 11  1  0  0  0
 10 41  1  0  0  0
 11 12  2  0  0  0
 11 13  1  0  0  0
 13 14  1  0  0  0
 13 42  1  0  0  0
 14 19  2  0  0  0
 14 15  1  0  0  0
 15 16  2  0  0  0
 15 43  1  0  0  0
 16 17  1  0  0  0
 16 33  1  0  0  0
 17 18  2  0  0  0
 17 32  1  0  0  0
 18 19  1  0  0  0
 18 20  1  0  0  0
 19 44  1  0  0  0
 20 28  1  0  0  0
 20 21  2  0  0  0
 21 22  1  0  0  0
 22 27  2  0  0  0
 22 23  1  0  0  0
 23 24  2  0  0  0
 23 45  1  0  0  0
 24 25  1  0  0  0
 24 29  1  0  0  0
 25 26  2  0  0  0
 25 46  1  0  0  0
 26 27  1  0  0  0
 26 47  1  0  0  0
 27 28  1  0  0  0
 29 30  1  0  0  0
 29 31  1  0  0  0
 29 48  1  0  0  0
 30 49  1  0  0  0
 30 50  1  0  0  0
 30 51  1  0  0  0
 31 52  1  0  0  0
 31 53  1  0  0  0
 31 54  1  0  0  0
 32 55  1  0  0  0
 33 56  1  0  0  0
 33 57  1  0  0  0
 33 58  1  0  0  0
M  END
> <i_i_glide_confnum>
107

> <i_i_glide_lignum>
3425

> <i_i_glide_posenum>
262

> <i_i_glide_rotatable_bonds>
8

> <i_m_Source_File_Index>
852

> <b_m_subgroup_collapsed>
0

> <r_i_docking_score>
-5.31458

> <r_i_glide_ecoul>
-0.276499

> <r_i_glide_eff_state_penalty>
0

> <r_i_glide_einternal>
7.54459

> <r_i_glide_emodel>
-59.6505

> <r_i_glide_energy>
-47.2932

> <r_i_glide_erotb>
0.571645

> <r_i_glide_esite>
-0.0267485

> <r_i_glide_evdw>
-47.0167

> <r_i_glide_gscore>
-5.31458

> <r_i_glide_hbond>
0

> <r_i_glide_ligand_efficiency>
-0.161048

> <r_i_glide_ligand_efficiency_ln>
-1.18193

> <r_i_glide_ligand_efficiency_sa>
-0.516566

> <r_i_glide_lipo>
-3.27987

> <r_i_glide_metal>
0

> <r_i_glide_rewards>
-0.187299

> <s_i_glide_gridfile>
wee1_glide-grid

> <s_m_Source_File>
wee1_decoys_glide_SP.sdf

> <s_m_Source_Path>
/Users/zhangxujun/Desktop

> <s_m_entry_id>
1127

> <s_m_entry_name>
wee1_decoys_glide_SP.852

> <s_m_subgroup_title>
wee1_decoys_glide_SP

> <s_m_subgroupid>
wee1_decoys_glide_SP


$$$$
