ZINC30983250_4836
                    3D
 Schrodinger Suite 2024-2.
 63 66  0  0  1  0            999 V2000
    9.3473   56.9937   18.4940 C   0  0  0  0  0  0
   10.2649   58.0311   18.3481 C   0  0  0  0  0  0
    9.8229   59.2972   17.9714 C   0  0  0  0  0  0
    8.4724   59.5270   17.7241 C   0  0  0  0  0  0
    7.5510   58.4976   17.8802 C   0  0  0  0  0  0
    7.9870   57.2304   18.2768 C   0  0  0  0  0  0
    6.9759   56.1260   18.5251 C   0  0  0  0  0  0
    6.4394   56.1666   20.2556 S   0  0  0  0  0  0
    5.3542   54.7121   20.3321 C   0  0  0  0  0  0
    4.8299   54.4269   21.7498 C   0  0  0  0  0  0
    5.9454   54.0802   22.7574 C   0  0  0  0  0  0
    5.4957   54.0964   24.1457 N   0  0  0  0  0  0
    5.9887   54.8673   25.1332 C   0  0  0  0  0  0
    6.8816   55.6951   24.9679 O   0  0  0  0  0  0
    5.3772   54.6851   26.5380 C   0  0  2  0  0  0
    5.8836   53.3698   27.1631 C   0  0  0  0  0  0
    5.2603   53.1722   28.5535 C   0  0  0  0  0  0
    3.7242   53.1923   28.3976 N   0  3  2  0  0  0
    3.2372   54.5596   27.8567 C   0  0  0  0  0  0
    3.8332   54.7369   26.4536 C   0  0  0  0  0  0
    3.0283   52.8479   29.7350 C   0  0  0  0  0  0
    1.5868   52.4629   29.4787 C   0  0  0  0  0  0
    1.0123   52.1728   28.3430 N   0  0  0  0  0  0
   -0.2471   51.9853   28.6955 C   0  0  0  0  0  0
   -0.4945   52.0966   29.9870 N   0  0  0  0  0  0
    0.7414   52.4385   30.5344 O   0  0  0  0  0  0
   -1.3210   51.6994   27.6820 C   0  0  0  0  0  0
   -1.0677   51.8635   26.3101 C   0  0  0  0  0  0
   -2.0707   51.6348   25.3724 C   0  0  0  0  0  0
   -3.3353   51.2395   25.7974 C   0  0  0  0  0  0
   -3.6035   51.0661   27.1517 C   0  0  0  0  0  0
   -2.5997   51.2946   28.0892 C   0  0  0  0  0  0
   -4.3099   51.0232   24.8858 F   0  0  0  0  0  0
   10.7058   60.3139   17.8591 F   0  0  0  0  0  0
    9.6931   56.0200   18.8120 H   0  0  0  0  0  0
   11.3130   57.8557   18.5446 H   0  0  0  0  0  0
    8.1285   60.5044   17.4183 H   0  0  0  0  0  0
    6.5013   58.6974   17.7114 H   0  0  0  0  0  0
    6.1112   56.2414   17.8709 H   0  0  0  0  0  0
    7.4140   55.1529   18.2981 H   0  0  0  0  0  0
    4.5198   54.8700   19.6494 H   0  0  0  0  0  0
    5.9031   53.8475   19.9604 H   0  0  0  0  0  0
    4.2567   55.2931   22.0794 H   0  0  0  0  0  0
    4.1159   53.6045   21.7026 H   0  0  0  0  0  0
    6.3290   53.0881   22.5253 H   0  0  0  0  0  0
    6.7974   54.7507   22.6201 H   0  0  0  0  0  0
    4.8099   53.3999   24.3928 H   0  0  0  0  0  0
    5.7532   55.5353   27.1131 H   0  0  0  0  0  0
    5.5490   52.5158   26.5786 H   0  0  0  0  0  0
    6.9679   53.3672   27.2938 H   0  0  0  0  0  0
    5.5444   53.9393   29.2792 H   0  0  0  0  0  0
    5.5040   52.1763   28.9174 H   0  0  0  0  0  0
    3.5480   55.3322   28.5646 H   0  0  0  0  0  0
    2.1490   54.5364   27.7966 H   0  0  0  0  0  0
    3.5044   55.6984   26.0729 H   0  0  0  0  0  0
    3.4241   53.9202   25.8569 H   0  0  0  0  0  0
    3.5887   52.0265   30.1803 H   0  0  0  0  0  0
    3.1410   53.7292   30.3639 H   0  0  0  0  0  0
   -0.0941   52.1733   25.9634 H   0  0  0  0  0  0
   -1.8717   51.7650   24.3199 H   0  0  0  0  0  0
   -4.5836   50.7458   27.4720 H   0  0  0  0  0  0
   -2.8194   51.1353   29.1351 H   0  0  0  0  0  0
    3.4585   52.4685   27.7381 H   0  0  0  0  0  0
  1  6  2  0  0  0
  1  2  1  0  0  0
  1 35  1  0  0  0
  2  3  2  0  0  0
  2 36  1  0  0  0
  3  4  1  0  0  0
  3 34  1  0  0  0
  4  5  2  0  0  0
  4 37  1  0  0  0
  5  6  1  0  0  0
  5 38  1  0  0  0
  6  7  1  0  0  0
  7  8  1  0  0  0
  7 39  1  0  0  0
  7 40  1  0  0  0
  8  9  1  0  0  0
  9 10  1  0  0  0
  9 41  1  0  0  0
  9 42  1  0  0  0
 10 11  1  0  0  0
 10 43  1  0  0  0
 10 44  1  0  0  0
 11 12  1  0  0  0
 11 45  1  0  0  0
 11 46  1  0  0  0
 12 13  1  0  0  0
 12 47  1  0  0  0
 13 14  2  0  0  0
 13 15  1  0  0  0
 15 20  1  0  0  0
 15 16  1  0  0  0
 15 48  1  0  0  0
 16 17  1  0  0  0
 16 49  1  0  0  0
 16 50  1  0  0  0
 17 18  1  0  0  0
 17 51  1  0  0  0
 17 52  1  0  0  0
 18 19  1  0  0  0
 18 21  1  0  0  0
 18 63  1  0  0  0
 19 20  1  0  0  0
 19 53  1  0  0  0
 19 54  1  0  0  0
 20 55  1  0  0  0
 20 56  1  0  0  0
 21 22  1  0  0  0
 21 57  1  0  0  0
 21 58  1  0  0  0
 22 26  1  0  0  0
 22 23  2  0  0  0
 23 24  1  0  0  0
 24 25  2  0  0  0
 24 27  1  0  0  0
 25 26  1  0  0  0
 27 32  2  0  0  0
 27 28  1  0  0  0
 28 29  2  0  0  0
 28 59  1  0  0  0
 29 30  1  0  0  0
 29 60  1  0  0  0
 30 31  2  0  0  0
 30 33  1  0  0  0
 31 32  1  0  0  0
 31 61  1  0  0  0
 32 62  1  0  0  0
M  CHG  1  18   1
M  END
> <i_i_glide_confnum>
303

> <i_i_glide_lignum>
4837

> <i_i_glide_posenum>
220

> <i_i_glide_rotatable_bonds>
11

> <i_m_Source_File_Index>
4917

> <b_m_subgroup_collapsed>
0

> <r_i_docking_score>
-4.77362

> <r_i_glide_ecoul>
-2.43474

> <r_i_glide_eff_state_penalty>
0

> <r_i_glide_einternal>
6.98275

> <r_i_glide_emodel>
-58.7542

> <r_i_glide_energy>
-47.2335

> <r_i_glide_erotb>
0.855152

> <r_i_glide_esite>
-0.150583

> <r_i_glide_evdw>
-44.7988

> <r_i_glide_gscore>
-4.77362

> <r_i_glide_hbond>
-0.257681

> <r_i_glide_ligand_efficiency>
-0.140401

> <r_i_glide_ligand_efficiency_ln>
-1.05463

> <r_i_glide_ligand_efficiency_sa>
-0.454844

> <r_i_glide_lipo>
-2.001

> <r_i_glide_metal>
0

> <r_i_glide_rewards>
-0.614362

> <s_i_glide_gridfile>
wee1_glide-grid

> <s_m_Source_File>
wee1_decoys_glide_SP.sdf

> <s_m_Source_Path>
/Users/zhangxujun/Desktop

> <s_m_entry_id>
5192

> <s_m_entry_name>
wee1_decoys_glide_SP.4917

> <s_m_subgroup_title>
wee1_decoys_glide_SP

> <s_m_subgroupid>
wee1_decoys_glide_SP


$$$$
