ZINC39198245_1142
                    3D
 Schrodinger Suite 2024-2.
 74 79  0  0  1  0            999 V2000
    6.8575   53.1726   17.2287 C   0  0  0  0  0  0
    6.9288   54.1104   18.4500 C   0  0  1  0  0  0
    6.9006   53.3980   19.2720 H   0  0  0  0  0  0
    8.2522   54.9206   18.6442 C   0  0  2  0  0  0
    9.1188   54.2600   18.5745 H   0  0  0  0  0  0
    8.1502   55.7770   19.9271 C   0  0  0  0  0  0
    7.4660   56.8265   19.0315 C   0  0  1  0  0  0
    7.6179   57.8768   19.2818 H   0  0  0  0  0  0
    8.3186   56.2700   17.8587 C   0  0  0  0  0  0
    9.7468   56.8781   17.7655 C   0  0  0  0  0  0
    7.6996   56.3395   16.4376 C   0  0  0  0  0  0
    5.9444   56.5049   18.9502 C   0  0  0  0  0  0
    5.6395   55.0047   18.6082 C   0  0  2  0  0  0
    5.1548   55.0243   17.6303 H   0  0  0  0  0  0
    4.5221   54.4114   19.3575 N   0  0  0  0  0  0
    4.5376   53.9660   20.6251 C   0  0  0  0  0  0
    5.5035   54.0964   21.3776 O   0  0  0  0  0  0
    3.2601   53.2611   21.1333 C   0  0  2  0  0  0
    2.7236   54.0278   22.3686 C   0  0  0  0  0  0
    1.4956   53.3227   22.9650 C   0  0  0  0  0  0
    1.9671   51.9190   23.3919 N   0  3  2  0  0  0
    2.3929   51.0794   22.1573 C   0  0  0  0  0  0
    3.5715   51.7746   21.4355 C   0  0  0  0  0  0
    0.9317   51.1358   24.2320 C   0  0  0  0  0  0
    0.4286   51.8460   25.4965 C   0  0  0  0  0  0
   -0.8502   51.8153   26.0851 C   0  0  0  0  0  0
   -0.8954   52.3971   27.2661 N   0  0  0  0  0  0
    0.3422   52.8967   27.4650 C   0  0  0  0  0  0
    1.1908   52.6056   26.3784 N   0  0  0  0  0  0
    2.4862   53.0665   26.3586 C   0  0  0  0  0  0
    2.9730   53.8263   27.4198 C   0  0  0  0  0  0
    2.1502   54.1164   28.5026 C   0  0  0  0  0  0
    0.8338   53.6550   28.5436 C   0  0  0  0  0  0
   -2.0873   51.1857   25.5349 C   0  0  0  0  0  0
   -2.8839   50.3714   26.3491 C   0  0  0  0  0  0
   -4.0405   49.7896   25.8389 C   0  0  0  0  0  0
   -4.4079   50.0264   24.5160 C   0  0  0  0  0  0
   -3.6260   50.8419   23.6993 C   0  0  0  0  0  0
   -2.4677   51.4222   24.2095 C   0  0  0  0  0  0
    6.8397   53.7137   16.2835 H   0  0  0  0  0  0
    7.7149   52.4985   17.2047 H   0  0  0  0  0  0
    5.9624   52.5488   17.2646 H   0  0  0  0  0  0
    7.5906   55.3755   20.7712 H   0  0  0  0  0  0
    9.0995   56.0784   20.3721 H   0  0  0  0  0  0
   10.2781   56.8986   18.7162 H   0  0  0  0  0  0
    9.7112   57.9077   17.4086 H   0  0  0  0  0  0
   10.3690   56.3094   17.0731 H   0  0  0  0  0  0
    6.6664   56.0127   16.3747 H   0  0  0  0  0  0
    7.7118   57.3626   16.0603 H   0  0  0  0  0  0
    8.2680   55.7263   15.7372 H   0  0  0  0  0  0
    5.5043   56.7627   19.9121 H   0  0  0  0  0  0
    5.4836   57.1575   18.2087 H   0  0  0  0  0  0
    3.7038   54.1929   18.8103 H   0  0  0  0  0  0
    2.5114   53.2963   20.3388 H   0  0  0  0  0  0
    3.4672   54.0791   23.1676 H   0  0  0  0  0  0
    2.3952   55.0230   22.0818 H   0  0  0  0  0  0
    0.6731   53.2048   22.2597 H   0  0  0  0  0  0
    1.1523   53.8541   23.8526 H   0  0  0  0  0  0
    1.5159   50.9650   21.5173 H   0  0  0  0  0  0
    2.7069   50.0978   22.5219 H   0  0  0  0  0  0
    3.7405   51.2248   20.5071 H   0  0  0  0  0  0
    4.4421   51.6768   22.0811 H   0  0  0  0  0  0
    0.1293   50.8809   23.5391 H   0  0  0  0  0  0
    1.4306   50.1963   24.4826 H   0  0  0  0  0  0
    3.1030   52.8237   25.5119 H   0  0  0  0  0  0
    3.9927   54.1898   27.4089 H   0  0  0  0  0  0
    2.5382   54.7106   29.3196 H   0  0  0  0  0  0
    0.1954   53.8846   29.3843 H   0  0  0  0  0  0
   -2.5957   50.1689   27.3720 H   0  0  0  0  0  0
   -4.6455   49.1532   26.4670 H   0  0  0  0  0  0
   -5.3065   49.5749   24.1209 H   0  0  0  0  0  0
   -3.9199   51.0202   22.6758 H   0  0  0  0  0  0
   -1.8729   52.0642   23.5773 H   0  0  0  0  0  0
    2.7704   52.0298   23.9901 H   0  0  0  0  0  0
  1  2  1  0  0  0
  1 40  1  0  0  0
  1 41  1  0  0  0
  1 42  1  0  0  0
  2  3  1  0  0  0
  2 13  1  0  0  0
  2  4  1  0  0  0
  4  5  1  0  0  0
  4  9  1  0  0  0
  4  6  1  0  0  0
  6  7  1  0  0  0
  6 43  1  0  0  0
  6 44  1  0  0  0
  7  8  1  0  0  0
  7  9  1  0  0  0
  7 12  1  0  0  0
  9 10  1  0  0  0
  9 11  1  0  0  0
 10 45  1  0  0  0
 10 46  1  0  0  0
 10 47  1  0  0  0
 11 48  1  0  0  0
 11 49  1  0  0  0
 11 50  1  0  0  0
 12 13  1  0  0  0
 12 51  1  0  0  0
 12 52  1  0  0  0
 13 14  1  0  0  0
 13 15  1  0  0  0
 15 16  1  0  0  0
 15 53  1  0  0  0
 16 17  2  0  0  0
 16 18  1  0  0  0
 18 23  1  0  0  0
 18 19  1  0  0  0
 18 54  1  0  0  0
 19 20  1  0  0  0
 19 55  1  0  0  0
 19 56  1  0  0  0
 20 21  1  0  0  0
 20 57  1  0  0  0
 20 58  1  0  0  0
 21 22  1  0  0  0
 21 24  1  0  0  0
 21 74  1  0  0  0
 22 23  1  0  0  0
 22 59  1  0  0  0
 22 60  1  0  0  0
 23 61  1  0  0  0
 23 62  1  0  0  0
 24 25  1  0  0  0
 24 63  1  0  0  0
 24 64  1  0  0  0
 25 29  1  0  0  0
 25 26  2  0  0  0
 26 27  1  0  0  0
 26 34  1  0  0  0
 27 28  2  0  0  0
 28 33  1  0  0  0
 28 29  1  0  0  0
 29 30  1  0  0  0
 30 31  2  0  0  0
 30 65  1  0  0  0
 31 32  1  0  0  0
 31 66  1  0  0  0
 32 33  2  0  0  0
 32 67  1  0  0  0
 33 68  1  0  0  0
 34 39  2  0  0  0
 34 35  1  0  0  0
 35 36  2  0  0  0
 35 69  1  0  0  0
 36 37  1  0  0  0
 36 70  1  0  0  0
 37 38  2  0  0  0
 37 71  1  0  0  0
 38 39  1  0  0  0
 38 72  1  0  0  0
 39 73  1  0  0  0
M  CHG  1  21   1
M  END
> <i_i_glide_confnum>
8

> <i_i_glide_lignum>
1143

> <i_i_glide_posenum>
264

> <i_i_glide_rotatable_bonds>
6

> <i_m_Source_File_Index>
2702

> <b_m_subgroup_collapsed>
0

> <r_i_docking_score>
-3.6071

> <r_i_glide_ecoul>
-1.9234

> <r_i_glide_eff_state_penalty>
0

> <r_i_glide_einternal>
6.13719

> <r_i_glide_emodel>
-42.5396

> <r_i_glide_energy>
-35.1384

> <r_i_glide_erotb>
0.5452

> <r_i_glide_esite>
0

> <r_i_glide_evdw>
-33.215

> <r_i_glide_gscore>
-3.6071

> <r_i_glide_hbond>
0

> <r_i_glide_ligand_efficiency>
-0.10306

> <r_i_glide_ligand_efficiency_ln>
-0.791838

> <r_i_glide_ligand_efficiency_sa>
-0.337116

> <r_i_glide_lipo>
-1.63141

> <r_i_glide_metal>
0

> <r_i_glide_rewards>
-0.571625

> <s_i_glide_gridfile>
wee1_glide-grid

> <s_m_Source_File>
wee1_decoys_glide_SP.sdf

> <s_m_Source_Path>
/Users/zhangxujun/Desktop

> <s_m_entry_id>
2977

> <s_m_entry_name>
wee1_decoys_glide_SP.2702

> <s_m_subgroup_title>
wee1_decoys_glide_SP

> <s_m_subgroupid>
wee1_decoys_glide_SP


$$$$
