ZINC36211566_3390
                    3D
 Schrodinger Suite 2024-2.
 68 72  0  0  1  0            999 V2000
   -6.4013   52.0132   24.4717 C   0  0  0  0  0  0
   -6.5561   50.9665   25.5914 C   0  0  0  0  0  0
   -5.7103   51.2329   26.8573 C   0  0  2  0  0  0
   -5.8811   50.3814   27.5222 H   0  0  0  0  0  0
   -6.1708   52.4952   27.6132 C   0  0  0  0  0  0
   -4.2824   51.2319   26.5400 N   0  0  0  0  0  0
   -3.2573   51.2295   27.4127 C   0  0  0  0  0  0
   -3.4319   51.2967   28.6273 O   0  0  0  0  0  0
   -1.8154   51.0331   26.8518 C   0  0  2  0  0  0
   -1.5005   50.0967   27.2818 H   0  0  0  0  0  0
   -0.7225   52.0593   27.3184 C   0  0  0  0  0  0
   -0.3745   52.0793   28.8201 C   0  0  0  0  0  0
    0.4923   53.3211   29.1550 C   0  0  0  0  0  0
    1.7011   53.3592   28.2689 N   0  0  0  0  0  0
    1.5764   52.9822   26.8309 C   0  0  0  0  0  0
    0.6634   51.7605   26.7096 C   0  0  0  0  0  0
    2.9048   53.7261   28.8120 C   0  0  0  0  0  0
    3.0545   53.9104   30.0256 O   0  0  0  0  0  0
    4.1183   53.9324   27.9182 C   0  0  0  0  0  0
    5.3894   53.4960   28.3498 C   0  0  0  0  0  0
    6.5408   53.6956   27.5763 C   0  0  0  0  0  0
    6.3788   54.3004   26.3389 C   0  0  0  0  0  0
    5.1660   54.7311   25.9046 C   0  0  0  0  0  0
    4.0262   54.6004   26.6796 C   0  0  0  0  0  0
    5.2999   55.2965   24.6800 O   0  0  0  0  0  0
    6.5955   54.9827   24.2589 C   0  0  0  0  0  0
    7.3066   54.5886   25.3941 O   0  0  0  0  0  0
   -1.7580   50.7476   25.4040 N   0  0  0  0  0  0
   -1.9458   51.6263   24.4018 C   0  0  0  0  0  0
   -2.2805   52.7967   24.5971 O   0  0  0  0  0  0
   -1.7238   51.1150   22.9959 C   0  0  0  0  0  0
   -1.1300   49.8553   22.7307 C   0  0  0  0  0  0
   -0.9097   49.4177   21.4160 C   0  0  0  0  0  0
   -1.2802   50.2690   20.3822 C   0  0  0  0  0  0
   -1.8515   51.4840   20.6220 C   0  0  0  0  0  0
   -2.0926   51.9334   21.9127 C   0  0  0  0  0  0
   -2.1339   52.0970   19.4427 O   0  0  0  0  0  0
   -1.4999   51.3164   18.4627 C   0  0  0  0  0  0
   -1.1907   50.0753   19.0404 O   0  0  0  0  0  0
   -7.0130   51.7473   23.6093 H   0  0  0  0  0  0
   -6.7164   53.0036   24.8004 H   0  0  0  0  0  0
   -5.3694   52.0898   24.1272 H   0  0  0  0  0  0
   -6.2907   49.9875   25.1889 H   0  0  0  0  0  0
   -7.6089   50.8873   25.8667 H   0  0  0  0  0  0
   -7.2580   52.5272   27.6895 H   0  0  0  0  0  0
   -5.8002   52.4958   28.6379 H   0  0  0  0  0  0
   -5.8533   53.4100   27.1117 H   0  0  0  0  0  0
   -4.0509   51.1615   25.5613 H   0  0  0  0  0  0
   -1.0736   53.0421   26.9996 H   0  0  0  0  0  0
   -1.2789   52.1527   29.4206 H   0  0  0  0  0  0
    0.0674   51.1398   29.1587 H   0  0  0  0  0  0
   -0.0865   54.2314   28.9983 H   0  0  0  0  0  0
    0.7568   53.2116   30.2085 H   0  0  0  0  0  0
    1.1690   53.8148   26.2588 H   0  0  0  0  0  0
    2.5189   52.6301   26.4105 H   0  0  0  0  0  0
    1.1051   50.8395   27.0974 H   0  0  0  0  0  0
    0.5931   51.5722   25.6400 H   0  0  0  0  0  0
    5.4897   52.9710   29.2818 H   0  0  0  0  0  0
    7.5041   53.3536   27.9229 H   0  0  0  0  0  0
    3.1044   55.0115   26.3154 H   0  0  0  0  0  0
    7.0765   55.8349   23.7776 H   0  0  0  0  0  0
    6.5578   54.1517   23.5516 H   0  0  0  0  0  0
   -1.5328   49.7916   25.1780 H   0  0  0  0  0  0
   -0.8197   49.2012   23.5323 H   0  0  0  0  0  0
   -0.4586   48.4561   21.2205 H   0  0  0  0  0  0
   -2.5474   52.8969   22.0819 H   0  0  0  0  0  0
   -2.1419   51.1854   17.5907 H   0  0  0  0  0  0
   -0.5732   51.8054   18.1531 H   0  0  0  0  0  0
  1  2  1  0  0  0
  1 40  1  0  0  0
  1 41  1  0  0  0
  1 42  1  0  0  0
  2  3  1  0  0  0
  2 43  1  0  0  0
  2 44  1  0  0  0
  3  4  1  0  0  0
  3  5  1  0  0  0
  3  6  1  0  0  0
  5 45  1  0  0  0
  5 46  1  0  0  0
  5 47  1  0  0  0
  6  7  1  0  0  0
  6 48  1  0  0  0
  7  8  2  0  0  0
  7  9  1  0  0  0
  9 10  1  0  0  0
  9 11  1  0  0  0
  9 28  1  0  0  0
 11 16  1  0  0  0
 11 12  1  0  0  0
 11 49  1  0  0  0
 12 13  1  0  0  0
 12 50  1  0  0  0
 12 51  1  0  0  0
 13 14  1  0  0  0
 13 52  1  0  0  0
 13 53  1  0  0  0
 14 15  1  0  0  0
 14 17  1  0  0  0
 15 16  1  0  0  0
 15 54  1  0  0  0
 15 55  1  0  0  0
 16 56  1  0  0  0
 16 57  1  0  0  0
 17 18  2  0  0  0
 17 19  1  0  0  0
 19 24  2  0  0  0
 19 20  1  0  0  0
 20 21  2  0  0  0
 20 58  1  0  0  0
 21 22  1  0  0  0
 21 59  1  0  0  0
 22 27  1  0  0  0
 22 23  2  0  0  0
 23 24  1  0  0  0
 23 25  1  0  0  0
 24 60  1  0  0  0
 25 26  1  0  0  0
 26 27  1  0  0  0
 26 61  1  0  0  0
 26 62  1  0  0  0
 28 29  1  0  0  0
 28 63  1  0  0  0
 29 30  2  0  0  0
 29 31  1  0  0  0
 31 36  2  0  0  0
 31 32  1  0  0  0
 32 33  2  0  0  0
 32 64  1  0  0  0
 33 34  1  0  0  0
 33 65  1  0  0  0
 34 39  1  0  0  0
 34 35  2  0  0  0
 35 36  1  0  0  0
 35 37  1  0  0  0
 36 66  1  0  0  0
 37 38  1  0  0  0
 38 39  1  0  0  0
 38 67  1  0  0  0
 38 68  1  0  0  0
M  END
> <i_i_glide_confnum>
14

> <i_i_glide_lignum>
3391

> <i_i_glide_posenum>
360

> <i_i_glide_rotatable_bonds>
10

> <i_m_Source_File_Index>
4147

> <b_m_subgroup_collapsed>
0

> <r_i_docking_score>
-6.75714

> <r_i_glide_ecoul>
-6.92699

> <r_i_glide_eff_state_penalty>
0

> <r_i_glide_einternal>
2.1387

> <r_i_glide_emodel>
-66.8974

> <r_i_glide_energy>
-46.6159

> <r_i_glide_erotb>
0.631042

> <r_i_glide_esite>
-0.110306

> <r_i_glide_evdw>
-39.6889

> <r_i_glide_gscore>
-6.75714

> <r_i_glide_hbond>
-0.800834

> <r_i_glide_ligand_efficiency>
-0.182625

> <r_i_glide_ligand_efficiency_ln>
-1.46547

> <r_i_glide_ligand_efficiency_sa>
-0.608548

> <r_i_glide_lipo>
-2.1403

> <r_i_glide_metal>
0

> <r_i_glide_rewards>
-1.31325

> <s_i_glide_gridfile>
wee1_glide-grid

> <s_m_Source_File>
wee1_decoys_glide_SP.sdf

> <s_m_Source_Path>
/Users/zhangxujun/Desktop

> <s_m_entry_id>
4422

> <s_m_entry_name>
wee1_decoys_glide_SP.4147

> <s_m_subgroup_title>
wee1_decoys_glide_SP

> <s_m_subgroupid>
wee1_decoys_glide_SP


$$$$
