ZINC37928940_3771
                    3D
 Schrodinger Suite 2024-2.
 38 39  0  0  1  0            999 V2000
    0.7439   52.0960   20.9309 C   0  0  0  0  0  0
    0.6565   51.0345   22.0435 C   0  0  2  0  0  0
    0.6254   50.0559   21.5609 H   0  0  0  0  0  0
   -0.6425   51.1645   22.8869 C   0  0  0  0  0  0
   -0.5866   52.3228   23.9168 C   0  0  2  0  0  0
   -0.4836   53.2565   23.3652 H   0  0  0  0  0  0
    0.6687   52.1303   24.8007 C   0  0  0  0  0  0
    1.9043   52.1211   23.9728 N   0  0  0  0  0  0
    1.9014   51.0090   22.9784 C   0  0  0  0  0  0
    2.5692   53.6978   23.4605 S   0  0  0  0  0  0
    3.1884   53.5367   22.1389 O   0  0  0  0  0  0
    1.5311   54.7071   23.6802 O   0  0  0  0  0  0
    3.8835   54.0791   24.6497 C   0  0  0  0  0  0
    3.5178   54.1831   25.9974 C   0  0  0  0  0  0
    4.4758   54.4257   26.9821 C   0  0  0  0  0  0
    5.8142   54.5817   26.6279 C   0  0  0  0  0  0
    6.1916   54.4964   25.2888 C   0  0  0  0  0  0
    5.2395   54.2380   24.3004 C   0  0  0  0  0  0
    5.6892   54.1372   22.9876 N   0  0  0  0  0  0
    4.0047   54.5287   28.6398 Cl  0  0  0  0  0  0
   -1.8676   52.4175   24.7613 C   0  0  0  0  0  0
    0.7068   53.1116   21.3226 H   0  0  0  0  0  0
   -0.0810   51.9931   20.2253 H   0  0  0  0  0  0
    1.6692   51.9958   20.3619 H   0  0  0  0  0  0
   -1.5188   51.2648   22.2444 H   0  0  0  0  0  0
   -0.8109   50.2282   23.4235 H   0  0  0  0  0  0
    0.7692   52.8244   25.6337 H   0  0  0  0  0  0
    0.5886   51.1412   25.2562 H   0  0  0  0  0  0
    1.8316   50.0901   23.5638 H   0  0  0  0  0  0
    2.8615   50.9732   22.4633 H   0  0  0  0  0  0
    2.4850   54.0703   26.2898 H   0  0  0  0  0  0
    6.5564   54.7695   27.3907 H   0  0  0  0  0  0
    7.2314   54.6140   25.0208 H   0  0  0  0  0  0
    6.6536   54.3236   22.7588 H   0  0  0  0  0  0
    4.9912   53.9525   22.2707 H   0  0  0  0  0  0
   -2.0136   51.5242   25.3707 H   0  0  0  0  0  0
   -1.8325   53.2779   25.4317 H   0  0  0  0  0  0
   -2.7490   52.5365   24.1294 H   0  0  0  0  0  0
  1  2  1  0  0  0
  1 22  1  0  0  0
  1 23  1  0  0  0
  1 24  1  0  0  0
  2  3  1  0  0  0
  2  9  1  0  0  0
  2  4  1  0  0  0
  4  5  1  0  0  0
  4 25  1  0  0  0
  4 26  1  0  0  0
  5  6  1  0  0  0
  5  7  1  0  0  0
  5 21  1  0  0  0
  7  8  1  0  0  0
  7 27  1  0  0  0
  7 28  1  0  0  0
  8  9  1  0  0  0
  8 10  1  0  0  0
  9 29  1  0  0  0
  9 30  1  0  0  0
 10 11  2  0  0  0
 10 12  2  0  0  0
 10 13  1  0  0  0
 13 18  2  0  0  0
 13 14  1  0  0  0
 14 15  2  0  0  0
 14 31  1  0  0  0
 15 16  1  0  0  0
 15 20  1  0  0  0
 16 17  2  0  0  0
 16 32  1  0  0  0
 17 18  1  0  0  0
 17 33  1  0  0  0
 18 19  1  0  0  0
 19 34  1  0  0  0
 19 35  1  0  0  0
 21 36  1  0  0  0
 21 37  1  0  0  0
 21 38  1  0  0  0
M  END
> <i_i_glide_confnum>
13

> <i_i_glide_lignum>
3772

> <i_i_glide_posenum>
100

> <i_i_glide_rotatable_bonds>
2

> <i_m_Source_File_Index>
4738

> <b_m_subgroup_collapsed>
0

> <r_i_docking_score>
-4.27486

> <r_i_glide_ecoul>
-0.0584411

> <r_i_glide_eff_state_penalty>
0

> <r_i_glide_einternal>
1.74942

> <r_i_glide_emodel>
-35.9524

> <r_i_glide_energy>
-29.841

> <r_i_glide_erotb>
0.401697

> <r_i_glide_esite>
0

> <r_i_glide_evdw>
-29.7825

> <r_i_glide_gscore>
-4.27486

> <r_i_glide_hbond>
0

> <r_i_glide_ligand_efficiency>
-0.224993

> <r_i_glide_ligand_efficiency_ln>
-1.08377

> <r_i_glide_ligand_efficiency_sa>
-0.600371

> <r_i_glide_lipo>
-2.18657

> <r_i_glide_metal>
0

> <r_i_glide_rewards>
-0.992093

> <s_i_glide_gridfile>
wee1_glide-grid

> <s_m_Source_File>
wee1_decoys_glide_SP.sdf

> <s_m_Source_Path>
/Users/zhangxujun/Desktop

> <s_m_entry_id>
5013

> <s_m_entry_name>
wee1_decoys_glide_SP.4738

> <s_m_subgroup_title>
wee1_decoys_glide_SP

> <s_m_subgroupid>
wee1_decoys_glide_SP


$$$$
