ZINC39884128_3347
                    3D
 Schrodinger Suite 2024-2.
 48 52  0  0  1  0            999 V2000
    1.0236   53.8716   28.9304 C   0  0  0  0  0  0
    0.1679   53.2748   29.8576 C   0  0  0  0  0  0
   -0.3682   52.0192   29.5860 C   0  0  0  0  0  0
   -0.0566   51.3776   28.3891 C   0  0  0  0  0  0
    0.8449   51.9417   27.4944 C   0  0  0  0  0  0
    1.3925   53.1997   27.7524 C   0  0  0  0  0  0
    2.4148   53.8445   26.7942 C   0  0  2  0  0  0
    2.2529   54.8967   26.9712 H   0  0  0  0  0  0
    2.2439   53.6086   25.2635 C   0  0  0  0  0  0
    3.2331   53.6510   24.3287 C   0  0  0  0  0  0
    2.8689   53.2028   23.0731 N   0  0  0  0  0  0
    1.5049   52.9776   22.8951 C   0  0  0  0  0  0
    0.9072   52.5941   21.8888 O   0  0  0  0  0  0
    0.7044   53.2779   24.4815 S   0  0  0  0  0  0
    3.7773   52.6699   22.0204 C   0  0  0  0  0  0
    4.4911   53.7432   21.1954 C   0  0  0  0  0  0
    4.5438   54.8967   21.5990 O   0  0  0  0  0  0
    5.0685   53.3060   20.0559 N   0  0  0  0  0  0
    5.9044   54.0092   19.1665 C   0  0  0  0  0  0
    6.5770   55.2011   19.4871 C   0  0  0  0  0  0
    7.4276   55.7925   18.5564 C   0  0  0  0  0  0
    7.6118   55.1986   17.3111 C   0  0  0  0  0  0
    6.9536   54.0158   16.9869 C   0  0  0  0  0  0
    6.1032   53.4211   17.9149 C   0  0  0  0  0  0
    8.4413   55.7725   16.4111 F   0  0  0  0  0  0
    4.9565   54.0967   24.6456 S   0  0  0  0  0  0
    4.7755   54.5023   26.3995 C   0  0  1  0  0  0
    4.3859   55.5203   26.4145 H   0  0  0  0  0  0
    3.8950   53.5425   27.1466 C   0  0  1  0  0  0
    4.1140   52.5073   26.8813 H   0  0  0  0  0  0
    4.4840   53.6948   28.5510 C   0  0  0  0  0  0
    3.8810   53.4287   29.5885 O   0  0  0  0  0  0
    5.7269   54.0967   28.4561 N   0  5  0  0  0  0
    6.0232   54.5033   27.2477 C   0  0  0  0  0  0
    7.1044   54.8966   26.8268 O   0  0  0  0  0  0
   -1.1946   51.3831   30.4817 O   0  0  0  0  0  0
    1.4431   54.8412   29.1556 H   0  0  0  0  0  0
   -0.0726   53.7833   30.7793 H   0  0  0  0  0  0
   -0.4956   50.4234   28.1553 H   0  0  0  0  0  0
    1.1044   51.3956   26.6002 H   0  0  0  0  0  0
    4.5735   52.0967   22.4817 H   0  0  0  0  0  0
    3.2574   51.9893   21.3438 H   0  0  0  0  0  0
    4.8481   52.3649   19.7595 H   0  0  0  0  0  0
    6.4767   55.6708   20.4525 H   0  0  0  0  0  0
    7.9524   56.7043   18.7989 H   0  0  0  0  0  0
    7.1072   53.5589   16.0208 H   0  0  0  0  0  0
    5.6055   52.4967   17.6549 H   0  0  0  0  0  0
   -1.2538   51.6967   31.4039 H   0  0  0  0  0  0
  1  6  2  0  0  0
  1  2  1  0  0  0
  1 37  1  0  0  0
  2  3  2  0  0  0
  2 38  1  0  0  0
  3  4  1  0  0  0
  3 36  1  0  0  0
  4  5  2  0  0  0
  4 39  1  0  0  0
  5  6  1  0  0  0
  5 40  1  0  0  0
  6  7  1  0  0  0
  7  8  1  0  0  0
  7 29  1  0  0  0
  7  9  1  0  0  0
  9 14  1  0  0  0
  9 10  2  0  0  0
 10 11  1  0  0  0
 10 26  1  0  0  0
 11 12  1  0  0  0
 11 15  1  0  0  0
 12 13  2  0  0  0
 12 14  1  0  0  0
 15 16  1  0  0  0
 15 41  1  0  0  0
 15 42  1  0  0  0
 16 17  2  0  0  0
 16 18  1  0  0  0
 18 19  1  0  0  0
 18 43  1  0  0  0
 19 24  2  0  0  0
 19 20  1  0  0  0
 20 21  2  0  0  0
 20 44  1  0  0  0
 21 22  1  0  0  0
 21 45  1  0  0  0
 22 23  2  0  0  0
 22 25  1  0  0  0
 23 24  1  0  0  0
 23 46  1  0  0  0
 24 47  1  0  0  0
 26 27  1  0  0  0
 27 28  1  0  0  0
 27 34  1  0  0  0
 27 29  1  0  0  0
 29 30  1  0  0  0
 29 31  1  0  0  0
 31 32  2  0  0  0
 31 33  1  0  0  0
 33 34  1  0  0  0
 34 35  2  0  0  0
 36 48  1  0  0  0
M  CHG  1  33  -1
M  END
> <i_i_glide_confnum>
3

> <i_i_glide_lignum>
3348

> <i_i_glide_posenum>
200

> <i_i_glide_rotatable_bonds>
6

> <i_m_Source_File_Index>
67

> <b_m_subgroup_collapsed>
0

> <r_i_docking_score>
-7.94334

> <r_i_glide_ecoul>
-10.8193

> <r_i_glide_eff_state_penalty>
0

> <r_i_glide_einternal>
7.33641

> <r_i_glide_emodel>
-68.1017

> <r_i_glide_energy>
-51.4669

> <r_i_glide_erotb>
0.346054

> <r_i_glide_esite>
-0.0280699

> <r_i_glide_evdw>
-40.6476

> <r_i_glide_gscore>
-7.94334

> <r_i_glide_hbond>
-0.420707

> <r_i_glide_ligand_efficiency>
-0.240707

> <r_i_glide_ligand_efficiency_ln>
-1.76656

> <r_i_glide_ligand_efficiency_sa>
-0.772076

> <r_i_glide_lipo>
-2.38901

> <r_i_glide_metal>
0

> <r_i_glide_rewards>
-1.79633

> <s_i_glide_gridfile>
wee1_glide-grid

> <s_m_Source_File>
wee1_decoys_glide_SP.sdf

> <s_m_Source_Path>
/Users/zhangxujun/Desktop

> <s_m_entry_id>
342

> <s_m_entry_name>
wee1_decoys_glide_SP.67

> <s_m_subgroup_title>
wee1_decoys_glide_SP

> <s_m_subgroupid>
wee1_decoys_glide_SP


$$$$
