ZINC04966914_4717
                    3D
 Schrodinger Suite 2024-2.
 39 41  0  0  1  0            999 V2000
    1.6806   52.8965   27.3672 C   0  0  0  0  0  0
    1.4875   52.8118   28.7316 C   0  0  0  0  0  0
    2.8177   53.4603   29.6820 S   0  0  0  0  0  0
    3.6640   53.8607   28.2081 C   0  0  0  0  0  0
    2.9373   53.4963   27.0789 C   0  0  0  0  0  0
    3.6659   53.8228   25.9783 N   0  0  0  0  0  0
    3.4225   53.6948   25.0066 H   0  0  0  0  0  0
    4.8734   54.3828   26.3736 C   0  0  0  0  0  0
    4.8912   54.4524   27.7661 C   0  0  0  0  0  0
    5.8957   54.8254   25.4616 C   0  0  0  0  0  0
    6.7045   55.6961   25.7938 O   0  0  0  0  0  0
    5.8341   54.2429   24.2446 N   0  0  0  0  0  0
    6.8080   54.5939   23.3243 N   0  0  0  0  0  0
    6.3943   54.8968   22.0816 C   0  0  0  0  0  0
    5.2394   54.7790   21.6639 O   0  0  0  0  0  0
    7.4242   55.3135   21.3271 N   0  0  0  0  0  0
    7.3634   55.6453   19.8999 C   0  0  0  0  0  0
    6.5269   56.9006   19.5469 C   0  0  0  0  0  0
    6.5219   57.2526   18.0474 C   0  0  0  0  0  0
    7.9423   57.3254   17.4665 C   0  0  0  0  0  0
    8.7137   56.0215   17.7247 C   0  0  0  0  0  0
    8.7502   55.6515   19.2197 C   0  0  0  0  0  0
    0.9754   52.5450   26.6292 H   0  0  0  0  0  0
    0.6266   52.3955   29.2367 H   0  0  0  0  0  0
    5.7016   54.8559   28.3586 H   0  0  0  0  0  0
    5.5375   53.2840   24.1431 H   0  0  0  0  0  0
    7.6270   54.0121   23.4374 H   0  0  0  0  0  0
    8.2900   55.5403   21.7966 H   0  0  0  0  0  0
    6.8398   54.8121   19.4213 H   0  0  0  0  0  0
    5.5042   56.7719   19.8838 H   0  0  0  0  0  0
    6.9230   57.7601   20.0816 H   0  0  0  0  0  0
    5.9461   56.5040   17.4995 H   0  0  0  0  0  0
    6.0077   58.2023   17.8891 H   0  0  0  0  0  0
    7.8972   57.5264   16.3952 H   0  0  0  0  0  0
    8.4787   58.1666   17.9106 H   0  0  0  0  0  0
    8.2512   55.2092   17.1627 H   0  0  0  0  0  0
    9.7318   56.1105   17.3425 H   0  0  0  0  0  0
    9.3863   56.3809   19.7255 H   0  0  0  0  0  0
    9.2350   54.6809   19.3324 H   0  0  0  0  0  0
  1  5  1  0  0  0
  1  2  2  0  0  0
  1 23  1  0  0  0
  2  3  1  0  0  0
  2 24  1  0  0  0
  3  4  1  0  0  0
  4  9  1  0  0  0
  4  5  2  0  0  0
  5  6  1  0  0  0
  6  7  1  0  0  0
  6  8  1  0  0  0
  8  9  2  0  0  0
  8 10  1  0  0  0
  9 25  1  0  0  0
 10 11  2  0  0  0
 10 12  1  0  0  0
 12 13  1  0  0  0
 12 26  1  0  0  0
 13 14  1  0  0  0
 13 27  1  0  0  0
 14 15  2  0  0  0
 14 16  1  0  0  0
 16 17  1  0  0  0
 16 28  1  0  0  0
 17 22  1  0  0  0
 17 18  1  0  0  0
 17 29  1  0  0  0
 18 19  1  0  0  0
 18 30  1  0  0  0
 18 31  1  0  0  0
 19 20  1  0  0  0
 19 32  1  0  0  0
 19 33  1  0  0  0
 20 21  1  0  0  0
 20 34  1  0  0  0
 20 35  1  0  0  0
 21 22  1  0  0  0
 21 36  1  0  0  0
 21 37  1  0  0  0
 22 38  1  0  0  0
 22 39  1  0  0  0
M  END
> <i_i_glide_confnum>
5

> <i_i_glide_lignum>
4718

> <i_i_glide_posenum>
367

> <i_i_glide_rotatable_bonds>
6

> <i_m_Source_File_Index>
607

> <b_m_subgroup_collapsed>
0

> <r_i_docking_score>
-5.92839

> <r_i_glide_ecoul>
-4.36975

> <r_i_glide_eff_state_penalty>
0

> <r_i_glide_einternal>
6.5636

> <r_i_glide_emodel>
-55.7468

> <r_i_glide_energy>
-43.3485

> <r_i_glide_erotb>
0.787087

> <r_i_glide_esite>
0

> <r_i_glide_evdw>
-38.9788

> <r_i_glide_gscore>
-5.92839

> <r_i_glide_hbond>
-0.397138

> <r_i_glide_ligand_efficiency>
-0.282304

> <r_i_glide_ligand_efficiency_ln>
-1.46578

> <r_i_glide_ligand_efficiency_sa>
-0.778856

> <r_i_glide_lipo>
-1.51239

> <r_i_glide_metal>
0

> <r_i_glide_rewards>
-2.20154

> <s_i_glide_gridfile>
wee1_glide-grid

> <s_m_Source_File>
wee1_decoys_glide_SP.sdf

> <s_m_Source_Path>
/Users/zhangxujun/Desktop

> <s_m_entry_id>
882

> <s_m_entry_name>
wee1_decoys_glide_SP.607

> <s_m_subgroup_title>
wee1_decoys_glide_SP

> <s_m_subgroupid>
wee1_decoys_glide_SP


$$$$
