ZINC45231073_5463
                    3D
 Schrodinger Suite 2024-2.
 67 71  0  0  1  0            999 V2000
    1.8376   54.4789   29.2432 C   0  0  0  0  0  0
    3.2614   54.4966   29.3274 O   0  0  0  0  0  0
    4.0199   54.3962   28.1743 C   0  0  0  0  0  0
    5.4014   54.4714   28.3044 C   0  0  0  0  0  0
    6.1972   54.4258   27.1658 C   0  0  0  0  0  0
    5.5861   54.3107   25.8939 C   0  0  0  0  0  0
    6.3493   54.2949   24.7035 C   0  0  0  0  0  0
    5.7175   54.1856   23.4716 C   0  0  0  0  0  0
    4.3346   54.0966   23.3880 C   0  0  0  0  0  0
    3.5328   54.0966   24.5360 C   0  0  0  0  0  0
    4.1570   54.2146   25.8261 C   0  0  0  0  0  0
    3.4016   54.2558   26.9659 N   0  0  0  0  0  0
    2.0023   53.9901   24.3955 C   0  0  0  0  0  0
    1.5041   52.5543   24.1039 C   0  0  0  0  0  0
    1.7084   52.1073   22.9725 O   0  0  0  0  0  0
    0.9524   51.7819   25.0833 N   0  0  0  0  0  0
    0.5042   52.2953   26.3821 C   0  0  0  0  0  0
   -1.0391   52.3422   26.3379 C   0  0  0  0  0  0
   -1.5618   51.0515   26.0354 O   0  0  0  0  0  0
   -1.1056   50.5051   24.7959 C   0  0  1  0  0  0
   -1.4384   51.1500   23.9796 H   0  0  0  0  0  0
    0.4475   50.4254   24.7805 C   0  0  0  0  0  0
   -1.8107   49.1533   24.5760 C   0  0  0  0  0  0
   -1.4771   48.1280   25.6815 N   0  3  0  0  0  0
   -2.2951   46.8256   25.5780 C   0  0  0  0  0  0
   -3.7721   46.9361   25.9514 C   0  0  0  0  0  0
   -4.7299   46.0890   25.3907 C   0  0  0  0  0  0
   -6.0562   46.2102   25.8102 C   0  0  0  0  0  0
   -6.3907   47.1616   26.7775 C   0  0  0  0  0  0
   -5.3861   47.9879   27.2996 C   0  0  0  0  0  0
   -4.0955   47.8729   26.8820 N   0  0  0  0  0  0
   -5.6495   49.0152   28.3545 C   0  0  0  0  0  0
   -6.8818   49.6815   28.4092 C   0  0  0  0  0  0
   -7.1345   50.6358   29.3920 C   0  0  0  0  0  0
   -6.1566   50.9325   30.3355 C   0  0  0  0  0  0
   -4.9261   50.2838   30.3029 C   0  0  0  0  0  0
   -4.6745   49.3335   29.3148 C   0  0  0  0  0  0
   -6.4049   51.8649   31.2824 F   0  0  0  0  0  0
    3.7683   54.0172   22.1627 F   0  0  0  0  0  0
    1.4160   54.6804   30.2285 H   0  0  0  0  0  0
    1.4792   53.4988   28.9266 H   0  0  0  0  0  0
    1.4561   55.2412   28.5606 H   0  0  0  0  0  0
    5.8529   54.5874   29.2791 H   0  0  0  0  0  0
    7.2724   54.4911   27.2486 H   0  0  0  0  0  0
    7.4276   54.3707   24.7517 H   0  0  0  0  0  0
    6.3041   54.1815   22.5651 H   0  0  0  0  0  0
    1.4916   54.4570   25.2303 H   0  0  0  0  0  0
    1.6962   54.6025   23.5455 H   0  0  0  0  0  0
    0.7964   51.5136   27.0865 H   0  0  0  0  0  0
    1.0147   53.1703   26.7738 H   0  0  0  0  0  0
   -1.4404   52.7014   27.2832 H   0  0  0  0  0  0
   -1.3637   53.0545   25.5780 H   0  0  0  0  0  0
    0.8580   50.0059   23.8602 H   0  0  0  0  0  0
    0.7918   49.7451   25.5607 H   0  0  0  0  0  0
   -2.8937   49.2780   24.6122 H   0  0  0  0  0  0
   -1.5383   48.6902   23.6275 H   0  0  0  0  0  0
   -0.4891   47.9078   25.6740 H   0  0  0  0  0  0
   -2.1493   46.4696   24.5577 H   0  0  0  0  0  0
   -1.7944   46.1458   26.2707 H   0  0  0  0  0  0
   -4.4689   45.3504   24.6494 H   0  0  0  0  0  0
   -6.8182   45.5650   25.4014 H   0  0  0  0  0  0
   -7.4117   47.2416   27.1200 H   0  0  0  0  0  0
   -7.6532   49.4745   27.6826 H   0  0  0  0  0  0
   -8.0855   51.1464   29.4232 H   0  0  0  0  0  0
   -4.1674   50.5076   31.0408 H   0  0  0  0  0  0
   -3.7093   48.8415   29.3058 H   0  0  0  0  0  0
   -1.6663   48.5020   26.6156 H   0  0  0  0  0  0
  1  2  1  0  0  0
  1 40  1  0  0  0
  1 41  1  0  0  0
  1 42  1  0  0  0
  2  3  1  0  0  0
  3 12  2  0  0  0
  3  4  1  0  0  0
  4  5  2  0  0  0
  4 43  1  0  0  0
  5  6  1  0  0  0
  5 44  1  0  0  0
  6 11  2  0  0  0
  6  7  1  0  0  0
  7  8  2  0  0  0
  7 45  1  0  0  0
  8  9  1  0  0  0
  8 46  1  0  0  0
  9 10  2  0  0  0
  9 39  1  0  0  0
 10 11  1  0  0  0
 10 13  1  0  0  0
 11 12  1  0  0  0
 13 14  1  0  0  0
 13 47  1  0  0  0
 13 48  1  0  0  0
 14 15  2  0  0  0
 14 16  1  0  0  0
 16 22  1  0  0  0
 16 17  1  0  0  0
 17 18  1  0  0  0
 17 49  1  0  0  0
 17 50  1  0  0  0
 18 19  1  0  0  0
 18 51  1  0  0  0
 18 52  1  0  0  0
 19 20  1  0  0  0
 20 21  1  0  0  0
 20 22  1  0  0  0
 20 23  1  0  0  0
 22 53  1  0  0  0
 22 54  1  0  0  0
 23 24  1  0  0  0
 23 55  1  0  0  0
 23 56  1  0  0  0
 24 25  1  0  0  0
 24 57  1  0  0  0
 24 67  1  0  0  0
 25 26  1  0  0  0
 25 58  1  0  0  0
 25 59  1  0  0  0
 26 31  2  0  0  0
 26 27  1  0  0  0
 27 28  2  0  0  0
 27 60  1  0  0  0
 28 29  1  0  0  0
 28 61  1  0  0  0
 29 30  2  0  0  0
 29 62  1  0  0  0
 30 31  1  0  0  0
 30 32  1  0  0  0
 32 37  2  0  0  0
 32 33  1  0  0  0
 33 34  2  0  0  0
 33 63  1  0  0  0
 34 35  1  0  0  0
 34 64  1  0  0  0
 35 36  2  0  0  0
 35 38  1  0  0  0
 36 37  1  0  0  0
 36 65  1  0  0  0
 37 66  1  0  0  0
M  CHG  1  24   1
M  END
> <i_i_glide_confnum>
45

> <i_i_glide_lignum>
5464

> <i_i_glide_posenum>
112

> <i_i_glide_rotatable_bonds>
9

> <i_m_Source_File_Index>
4178

> <b_m_subgroup_collapsed>
0

> <r_i_docking_score>
-6.01461

> <r_i_glide_ecoul>
-3.66637

> <r_i_glide_eff_state_penalty>
0

> <r_i_glide_einternal>
2.35274

> <r_i_glide_emodel>
-66.6177

> <r_i_glide_energy>
-46.7339

> <r_i_glide_erotb>
0.608882

> <r_i_glide_esite>
-0.176138

> <r_i_glide_evdw>
-43.0676

> <r_i_glide_gscore>
-6.01461

> <r_i_glide_hbond>
-0.190508

> <r_i_glide_ligand_efficiency>
-0.158279

> <r_i_glide_ligand_efficiency_ln>
-1.29693

> <r_i_glide_ligand_efficiency_sa>
-0.532131

> <r_i_glide_lipo>
-2.95287

> <r_i_glide_metal>
0

> <r_i_glide_rewards>
-0.600642

> <s_i_glide_gridfile>
wee1_glide-grid

> <s_m_Source_File>
wee1_decoys_glide_SP.sdf

> <s_m_Source_Path>
/Users/zhangxujun/Desktop

> <s_m_entry_id>
4453

> <s_m_entry_name>
wee1_decoys_glide_SP.4178

> <s_m_subgroup_title>
wee1_decoys_glide_SP

> <s_m_subgroupid>
wee1_decoys_glide_SP


$$$$
