ZINC08442832_2743
                    3D
 Schrodinger Suite 2024-2.
 53 56  0  0  1  0            999 V2000
    0.7044   52.4966   31.0374 C   0  0  0  0  0  0
    0.8918   53.7828   30.2743 C   0  0  0  0  0  0
    0.7043   55.0262   30.8817 C   0  0  0  0  0  0
    1.1055   56.0993   30.1217 C   0  0  0  0  0  0
    1.6271   55.5833   28.5730 S   0  0  0  0  0  0
    1.3660   53.8970   28.9543 C   0  0  0  0  0  0
    1.7288   52.8036   27.9361 C   0  0  2  0  0  0
    1.8447   51.8601   28.4714 H   0  0  0  0  0  0
    3.0776   53.1231   27.3037 C   0  0  0  0  0  0
    3.2292   53.3546   25.9831 C   0  0  0  0  0  0
    2.1808   53.1734   25.0552 N   0  0  0  0  0  0
    0.8826   52.8471   25.5115 C   0  0  0  0  0  0
    0.6568   52.5664   26.8374 C   0  0  0  0  0  0
   -0.6532   52.0509   27.3125 C   0  0  0  0  0  0
   -0.8959   51.8584   28.5001 O   0  0  0  0  0  0
   -1.7643   51.8361   26.2766 C   0  0  0  0  0  0
   -1.2535   51.5789   24.8408 C   0  0  0  0  0  0
   -0.2814   52.7375   24.4858 C   0  0  0  0  0  0
   -2.4724   51.6636   23.8961 C   0  0  0  0  0  0
   -0.5446   50.1999   24.7626 C   0  0  0  0  0  0
    2.4914   53.0887   23.6640 C   0  0  0  0  0  0
    2.3043   51.8935   22.9529 C   0  0  0  0  0  0
    2.6542   51.7984   21.6092 C   0  0  0  0  0  0
    3.2508   52.8843   20.9588 C   0  0  0  0  0  0
    3.5040   54.0536   21.6821 C   0  0  0  0  0  0
    3.0775   54.1716   23.0007 C   0  0  0  0  0  0
    3.5697   52.8184   19.5139 N   0  3  0  0  0  0
    4.3477   53.6483   19.0494 O   0  0  0  0  0  0
    3.0097   51.9600   18.8401 O   0  5  0  0  0  0
    4.4697   53.7037   25.4911 N   0  0  0  0  0  0
    4.1853   53.2985   28.1919 C   0  0  0  0  0  0
    5.0973   53.4655   28.8813 N   0  0  0  0  0  0
    1.3387   51.6967   30.6631 H   0  0  0  0  0  0
   -0.3294   52.1512   31.0206 H   0  0  0  0  0  0
    0.9702   52.6091   32.0886 H   0  0  0  0  0  0
    0.3469   55.1197   31.8954 H   0  0  0  0  0  0
    1.1073   57.1470   30.3876 H   0  0  0  0  0  0
   -2.3352   52.7646   26.2821 H   0  0  0  0  0  0
   -2.4327   51.0506   26.6322 H   0  0  0  0  0  0
   -0.7953   53.6965   24.4758 H   0  0  0  0  0  0
    0.0124   52.5160   23.4666 H   0  0  0  0  0  0
   -3.2143   50.9017   24.1390 H   0  0  0  0  0  0
   -2.9706   52.6325   23.9540 H   0  0  0  0  0  0
   -2.1823   51.5084   22.8562 H   0  0  0  0  0  0
   -1.2118   49.3994   25.0852 H   0  0  0  0  0  0
   -0.2407   49.9695   23.7415 H   0  0  0  0  0  0
    0.3470   50.1369   25.3867 H   0  0  0  0  0  0
    1.8916   51.0284   23.4505 H   0  0  0  0  0  0
    2.4695   50.8745   21.0782 H   0  0  0  0  0  0
    3.9694   54.8965   21.1970 H   0  0  0  0  0  0
    3.2359   55.1016   23.5260 H   0  0  0  0  0  0
    5.2425   53.8255   26.1302 H   0  0  0  0  0  0
    4.7077   53.5011   24.5316 H   0  0  0  0  0  0
  1  2  1  0  0  0
  1 33  1  0  0  0
  1 34  1  0  0  0
  1 35  1  0  0  0
  2  6  2  0  0  0
  2  3  1  0  0  0
  3  4  2  0  0  0
  3 36  1  0  0  0
  4  5  1  0  0  0
  4 37  1  0  0  0
  5  6  1  0  0  0
  6  7  1  0  0  0
  7  8  1  0  0  0
  7 13  1  0  0  0
  7  9  1  0  0  0
  9 10  2  0  0  0
  9 31  1  0  0  0
 10 11  1  0  0  0
 10 30  1  0  0  0
 11 12  1  0  0  0
 11 21  1  0  0  0
 12 18  1  0  0  0
 12 13  2  0  0  0
 13 14  1  0  0  0
 14 15  2  0  0  0
 14 16  1  0  0  0
 16 17  1  0  0  0
 16 38  1  0  0  0
 16 39  1  0  0  0
 17 18  1  0  0  0
 17 19  1  0  0  0
 17 20  1  0  0  0
 18 40  1  0  0  0
 18 41  1  0  0  0
 19 42  1  0  0  0
 19 43  1  0  0  0
 19 44  1  0  0  0
 20 45  1  0  0  0
 20 46  1  0  0  0
 20 47  1  0  0  0
 21 26  2  0  0  0
 21 22  1  0  0  0
 22 23  2  0  0  0
 22 48  1  0  0  0
 23 24  1  0  0  0
 23 49  1  0  0  0
 24 25  2  0  0  0
 24 27  1  0  0  0
 25 26  1  0  0  0
 25 50  1  0  0  0
 26 51  1  0  0  0
 27 28  2  0  0  0
 27 29  1  0  0  0
 30 52  1  0  0  0
 30 53  1  0  0  0
 31 32  3  0  0  0
M  CHG  2  27   1  29  -1
M  END
> <i_i_glide_confnum>
1

> <i_i_glide_lignum>
2744

> <i_i_glide_posenum>
217

> <i_i_glide_rotatable_bonds>
4

> <i_m_Source_File_Index>
5249

> <b_m_subgroup_collapsed>
0

> <r_i_docking_score>
-5.36391

> <r_i_glide_ecoul>
-0.0174947

> <r_i_glide_eff_state_penalty>
0

> <r_i_glide_einternal>
14.0641

> <r_i_glide_emodel>
-42.6039

> <r_i_glide_energy>
-38.6189

> <r_i_glide_erotb>
0.210978

> <r_i_glide_esite>
-0.156134

> <r_i_glide_evdw>
-38.6014

> <r_i_glide_gscore>
-5.36391

> <r_i_glide_hbond>
0

> <r_i_glide_ligand_efficiency>
-0.173029

> <r_i_glide_ligand_efficiency_ln>
-1.20973

> <r_i_glide_ligand_efficiency_sa>
-0.543551

> <r_i_glide_lipo>
-2.45442

> <r_i_glide_metal>
0

> <r_i_glide_rewards>
-1.03164

> <s_i_glide_gridfile>
wee1_glide-grid

> <s_m_Source_File>
wee1_decoys_glide_SP.sdf

> <s_m_Source_Path>
/Users/zhangxujun/Desktop

> <s_m_entry_id>
5524

> <s_m_entry_name>
wee1_decoys_glide_SP.5249

> <s_m_subgroup_title>
wee1_decoys_glide_SP

> <s_m_subgroupid>
wee1_decoys_glide_SP


$$$$
