ZINC36312028_736
                    3D
 Schrodinger Suite 2024-2.
 71 74  0  0  1  0            999 V2000
    2.9590   55.0760   28.5305 C   0  0  0  0  0  0
    3.3641   53.7229   27.9103 C   0  0  0  0  0  0
    4.3535   53.0201   28.8817 C   0  0  0  0  0  0
    2.1016   52.8203   27.8400 C   0  0  0  0  0  0
    3.9919   53.9564   26.5053 C   0  0  0  0  0  0
    3.1981   53.9326   25.3475 C   0  0  0  0  0  0
    3.7616   54.0956   24.0845 C   0  0  0  0  0  0
    5.1420   54.2843   23.9356 C   0  0  0  0  0  0
    5.9310   54.3710   25.0904 C   0  0  0  0  0  0
    5.3659   54.2046   26.3546 C   0  0  0  0  0  0
    5.7735   54.4967   22.5693 C   0  0  0  0  0  0
    6.7675   55.2219   22.4886 O   0  0  0  0  0  0
    5.1933   53.9526   21.4622 N   0  0  0  0  0  0
    4.7114   52.5565   21.4861 C   0  0  0  0  0  0
    3.5289   52.4057   20.5024 C   0  0  0  0  0  0
    3.9031   52.8856   19.0658 N   0  3  0  0  0  0
    4.3500   54.3621   19.2108 C   0  0  0  0  0  0
    5.5819   54.4549   20.1291 C   0  0  0  0  0  0
    2.7848   52.7384   17.9589 C   0  0  1  0  0  0
    2.2508   53.6911   17.9771 H   0  0  0  0  0  0
    3.4059   52.5049   16.5349 C   0  0  0  0  0  0
    2.3721   52.4987   15.3862 C   0  0  0  0  0  0
    3.1463   52.7434   14.0864 C   0  0  0  0  0  0
    4.5177   53.2901   14.5008 C   0  0  0  0  0  0
    4.4377   53.5165   16.0133 C   0  0  0  0  0  0
    1.7283   51.6633   18.3468 C   0  0  0  0  0  0
    0.8228   51.9792   19.1235 O   0  0  0  0  0  0
    1.8998   50.4081   17.8724 N   0  0  0  0  0  0
    1.0957   49.3001   18.1799 C   0  0  0  0  0  0
    1.7467   48.1278   18.5776 C   0  0  0  0  0  0
    1.0052   46.9843   18.8775 C   0  0  0  0  0  0
   -0.3841   47.0003   18.7691 C   0  0  0  0  0  0
   -1.0357   48.1546   18.3387 C   0  0  0  0  0  0
   -0.3041   49.3002   18.0300 C   0  0  0  0  0  0
   -0.9645   50.3887   17.5660 F   0  0  0  0  0  0
   -1.0989   45.8932   19.0701 F   0  0  0  0  0  0
    2.4367   54.9440   29.4787 H   0  0  0  0  0  0
    2.2992   55.6411   27.8719 H   0  0  0  0  0  0
    3.8286   55.6967   28.7360 H   0  0  0  0  0  0
    4.7510   52.0975   28.4617 H   0  0  0  0  0  0
    5.2003   53.6550   29.1412 H   0  0  0  0  0  0
    3.8726   52.7621   29.8262 H   0  0  0  0  0  0
    2.3016   51.8936   27.3020 H   0  0  0  0  0  0
    1.7396   52.5461   28.8328 H   0  0  0  0  0  0
    1.2647   53.3154   27.3471 H   0  0  0  0  0  0
    2.1308   53.7827   25.4035 H   0  0  0  0  0  0
    3.1067   54.0833   23.2251 H   0  0  0  0  0  0
    6.9936   54.5572   25.0131 H   0  0  0  0  0  0
    6.0164   54.2681   27.2128 H   0  0  0  0  0  0
    5.5021   51.8881   21.1437 H   0  0  0  0  0  0
    4.4029   52.2352   22.4805 H   0  0  0  0  0  0
    2.6313   52.9316   20.8330 H   0  0  0  0  0  0
    3.3098   51.3399   20.4221 H   0  0  0  0  0  0
    3.5049   54.9451   19.5728 H   0  0  0  0  0  0
    4.6312   54.7444   18.2361 H   0  0  0  0  0  0
    5.9361   55.4878   20.1606 H   0  0  0  0  0  0
    6.3721   53.8360   19.7015 H   0  0  0  0  0  0
    3.9059   51.5384   16.5023 H   0  0  0  0  0  0
    1.7479   51.6054   15.3661 H   0  0  0  0  0  0
    1.6891   53.3404   15.5218 H   0  0  0  0  0  0
    3.2642   51.8137   13.5278 H   0  0  0  0  0  0
    2.6166   53.4434   13.4400 H   0  0  0  0  0  0
    5.2954   52.5555   14.2769 H   0  0  0  0  0  0
    4.7754   54.2044   13.9647 H   0  0  0  0  0  0
    4.0627   54.5294   16.1696 H   0  0  0  0  0  0
    5.4018   53.4497   16.5191 H   0  0  0  0  0  0
    2.7759   50.1850   17.3988 H   0  0  0  0  0  0
    2.8265   48.1015   18.6561 H   0  0  0  0  0  0
    1.5040   46.0827   19.1952 H   0  0  0  0  0  0
   -2.1102   48.1574   18.2336 H   0  0  0  0  0  0
    4.6837   52.3210   18.7429 H   0  0  0  0  0  0
  1  2  1  0  0  0
  1 37  1  0  0  0
  1 38  1  0  0  0
  1 39  1  0  0  0
  2  3  1  0  0  0
  2  4  1  0  0  0
  2  5  1  0  0  0
  3 40  1  0  0  0
  3 41  1  0  0  0
  3 42  1  0  0  0
  4 43  1  0  0  0
  4 44  1  0  0  0
  4 45  1  0  0  0
  5 10  2  0  0  0
  5  6  1  0  0  0
  6  7  2  0  0  0
  6 46  1  0  0  0
  7  8  1  0  0  0
  7 47  1  0  0  0
  8  9  2  0  0  0
  8 11  1  0  0  0
  9 10  1  0  0  0
  9 48  1  0  0  0
 10 49  1  0  0  0
 11 12  2  0  0  0
 11 13  1  0  0  0
 13 18  1  0  0  0
 13 14  1  0  0  0
 14 15  1  0  0  0
 14 50  1  0  0  0
 14 51  1  0  0  0
 15 16  1  0  0  0
 15 52  1  0  0  0
 15 53  1  0  0  0
 16 17  1  0  0  0
 16 19  1  0  0  0
 16 71  1  0  0  0
 17 18  1  0  0  0
 17 54  1  0  0  0
 17 55  1  0  0  0
 18 56  1  0  0  0
 18 57  1  0  0  0
 19 20  1  0  0  0
 19 21  1  0  0  0
 19 26  1  0  0  0
 21 25  1  0  0  0
 21 22  1  0  0  0
 21 58  1  0  0  0
 22 23  1  0  0  0
 22 59  1  0  0  0
 22 60  1  0  0  0
 23 24  1  0  0  0
 23 61  1  0  0  0
 23 62  1  0  0  0
 24 25  1  0  0  0
 24 63  1  0  0  0
 24 64  1  0  0  0
 25 65  1  0  0  0
 25 66  1  0  0  0
 26 27  2  0  0  0
 26 28  1  0  0  0
 28 29  1  0  0  0
 28 67  1  0  0  0
 29 34  2  0  0  0
 29 30  1  0  0  0
 30 31  2  0  0  0
 30 68  1  0  0  0
 31 32  1  0  0  0
 31 69  1  0  0  0
 32 33  2  0  0  0
 32 36  1  0  0  0
 33 34  1  0  0  0
 33 70  1  0  0  0
 34 35  1  0  0  0
M  CHG  1  16   1
M  END
> <i_i_glide_confnum>
147

> <i_i_glide_lignum>
737

> <i_i_glide_posenum>
345

> <i_i_glide_rotatable_bonds>
8

> <i_m_Source_File_Index>
4381

> <b_m_subgroup_collapsed>
0

> <r_i_docking_score>
-4.96877

> <r_i_glide_ecoul>
-4.13939

> <r_i_glide_eff_state_penalty>
0

> <r_i_glide_einternal>
15.7016

> <r_i_glide_emodel>
-43.2527

> <r_i_glide_energy>
-38.785

> <r_i_glide_erotb>
0.518888

> <r_i_glide_esite>
-0.183051

> <r_i_glide_evdw>
-34.6456

> <r_i_glide_gscore>
-4.96877

> <r_i_glide_hbond>
-0.287829

> <r_i_glide_ligand_efficiency>
-0.141965

> <r_i_glide_ligand_efficiency_ln>
-1.09075

> <r_i_glide_ligand_efficiency_sa>
-0.464376

> <r_i_glide_lipo>
-2.59748

> <r_i_glide_metal>
0

> <r_i_glide_rewards>
-0.0661047

> <s_i_glide_gridfile>
wee1_glide-grid

> <s_m_Source_File>
wee1_decoys_glide_SP.sdf

> <s_m_Source_Path>
/Users/zhangxujun/Desktop

> <s_m_entry_id>
4656

> <s_m_entry_name>
wee1_decoys_glide_SP.4381

> <s_m_subgroup_title>
wee1_decoys_glide_SP

> <s_m_subgroupid>
wee1_decoys_glide_SP


$$$$
