ZINC39695388_650
                    3D
 Schrodinger Suite 2024-2.
 75 78  0  0  1  0            999 V2000
   -2.0679   51.7236   17.5854 C   0  0  0  0  0  0
   -1.6716   52.2687   18.9687 C   0  0  0  0  0  0
   -1.3889   51.1829   20.0296 C   0  0  1  0  0  0
   -2.3307   50.6442   20.1650 H   0  0  0  0  0  0
   -0.3390   50.1669   19.5841 C   0  0  0  0  0  0
    0.9428   50.6033   19.2337 C   0  0  0  0  0  0
    1.9092   49.6842   18.8585 C   0  0  0  0  0  0
    1.6020   48.3269   18.8289 C   0  0  0  0  0  0
    0.3274   47.8799   19.1679 C   0  0  0  0  0  0
   -0.6482   48.8025   19.5402 C   0  0  0  0  0  0
   -0.9459   51.7460   21.3082 N   0  0  0  0  0  0
   -1.5549   51.5600   22.4891 C   0  0  0  0  0  0
   -2.7279   51.2124   22.5784 O   0  0  0  0  0  0
   -0.6701   51.5548   23.7666 C   0  0  2  0  0  0
   -1.3579   51.6628   24.6042 H   0  0  0  0  0  0
    0.3912   52.6832   23.8453 C   0  0  0  0  0  0
    1.6229   52.0306   23.3798 N   0  0  0  0  0  0
    1.4257   50.6074   23.0894 C   0  0  0  0  0  0
    0.1675   50.2371   23.8766 C   0  0  0  0  0  0
    0.6450   49.9599   25.3285 C   0  0  0  0  0  0
   -0.4879   49.5704   26.2666 C   0  0  0  0  0  0
   -1.1773   48.3172   25.6816 N   0  3  0  0  0  0
   -1.6470   48.4735   24.2205 C   0  0  0  0  0  0
   -0.4194   48.8836   23.3876 C   0  0  0  0  0  0
    2.6935   52.6802   22.8829 C   0  0  0  0  0  0
    3.2499   52.2490   21.8704 O   0  0  0  0  0  0
    3.3334   53.8493   23.7145 C   0  0  2  0  0  0
    2.5807   54.6254   23.8699 H   0  0  0  0  0  0
    4.6534   54.4309   23.0986 C   0  0  0  0  0  0
    5.9046   53.5248   23.1810 C   0  0  0  0  0  0
    4.4549   54.8968   21.6510 C   0  0  0  0  0  0
    3.7580   53.2967   24.9593 O   0  0  0  0  0  0
    3.6465   53.8985   26.1858 C   0  0  0  0  0  0
    2.4127   54.0965   26.7975 C   0  0  0  0  0  0
    2.3457   54.5147   28.1267 C   0  0  0  0  0  0
    3.5208   54.7117   28.8477 C   0  0  0  0  0  0
    4.7614   54.4967   28.2482 C   0  0  0  0  0  0
    4.8201   54.0847   26.9174 C   0  0  0  0  0  0
   -2.3067   52.5358   16.8978 H   0  0  0  0  0  0
   -1.2538   51.1500   17.1337 H   0  0  0  0  0  0
   -2.9453   51.0769   17.6499 H   0  0  0  0  0  0
   -2.4901   52.8964   19.3150 H   0  0  0  0  0  0
   -0.8036   52.9272   18.8652 H   0  0  0  0  0  0
    1.1968   51.6531   19.2457 H   0  0  0  0  0  0
    2.8951   50.0352   18.5753 H   0  0  0  0  0  0
    2.3572   47.6181   18.5245 H   0  0  0  0  0  0
    0.0954   46.8278   19.1346 H   0  0  0  0  0  0
   -1.6396   48.4517   19.7943 H   0  0  0  0  0  0
   -0.0120   52.1235   21.3059 H   0  0  0  0  0  0
    0.4597   52.9114   24.9064 H   0  0  0  0  0  0
    0.0509   53.5510   23.2813 H   0  0  0  0  0  0
    1.2548   50.4764   22.0195 H   0  0  0  0  0  0
    2.2902   49.9751   23.2968 H   0  0  0  0  0  0
    1.4198   49.1882   25.3502 H   0  0  0  0  0  0
    1.1044   50.8511   25.7547 H   0  0  0  0  0  0
   -0.0958   49.3093   27.2565 H   0  0  0  0  0  0
   -1.2603   50.3289   26.3882 H   0  0  0  0  0  0
   -0.5321   47.5425   25.7820 H   0  0  0  0  0  0
   -2.0670   47.5141   23.9120 H   0  0  0  0  0  0
   -2.4449   49.2208   24.2283 H   0  0  0  0  0  0
   -0.7008   48.9377   22.3385 H   0  0  0  0  0  0
    0.3342   48.0987   23.4302 H   0  0  0  0  0  0
    4.8951   55.2960   23.7077 H   0  0  0  0  0  0
    5.7697   52.5806   22.6546 H   0  0  0  0  0  0
    6.7783   54.0181   22.7532 H   0  0  0  0  0  0
    6.1564   53.2960   24.2139 H   0  0  0  0  0  0
    4.5586   54.0935   20.9228 H   0  0  0  0  0  0
    3.4472   55.2959   21.5686 H   0  0  0  0  0  0
    5.1737   55.6649   21.3583 H   0  0  0  0  0  0
    1.5028   53.9806   26.2386 H   0  0  0  0  0  0
    1.3831   54.6876   28.5867 H   0  0  0  0  0  0
    3.4680   55.0342   29.8765 H   0  0  0  0  0  0
    5.6773   54.6422   28.8088 H   0  0  0  0  0  0
    5.7759   53.8765   26.4601 H   0  0  0  0  0  0
   -1.9426   48.0967   26.3085 H   0  0  0  0  0  0
  1  2  1  0  0  0
  1 39  1  0  0  0
  1 40  1  0  0  0
  1 41  1  0  0  0
  2  3  1  0  0  0
  2 42  1  0  0  0
  2 43  1  0  0  0
  3  4  1  0  0  0
  3  5  1  0  0  0
  3 11  1  0  0  0
  5 10  2  0  0  0
  5  6  1  0  0  0
  6  7  2  0  0  0
  6 44  1  0  0  0
  7  8  1  0  0  0
  7 45  1  0  0  0
  8  9  2  0  0  0
  8 46  1  0  0  0
  9 10  1  0  0  0
  9 47  1  0  0  0
 10 48  1  0  0  0
 11 12  1  0  0  0
 11 49  1  0  0  0
 12 13  2  0  0  0
 12 14  1  0  0  0
 14 15  1  0  0  0
 14 19  1  0  0  0
 14 16  1  0  0  0
 16 17  1  0  0  0
 16 50  1  0  0  0
 16 51  1  0  0  0
 17 18  1  0  0  0
 17 25  1  0  0  0
 18 19  1  0  0  0
 18 52  1  0  0  0
 18 53  1  0  0  0
 19 24  1  0  0  0
 19 20  1  0  0  0
 20 21  1  0  0  0
 20 54  1  0  0  0
 20 55  1  0  0  0
 21 22  1  0  0  0
 21 56  1  0  0  0
 21 57  1  0  0  0
 22 23  1  0  0  0
 22 58  1  0  0  0
 22 75  1  0  0  0
 23 24  1  0  0  0
 23 59  1  0  0  0
 23 60  1  0  0  0
 24 61  1  0  0  0
 24 62  1  0  0  0
 25 26  2  0  0  0
 25 27  1  0  0  0
 27 28  1  0  0  0
 27 29  1  0  0  0
 27 32  1  0  0  0
 29 30  1  0  0  0
 29 31  1  0  0  0
 29 63  1  0  0  0
 30 64  1  0  0  0
 30 65  1  0  0  0
 30 66  1  0  0  0
 31 67  1  0  0  0
 31 68  1  0  0  0
 31 69  1  0  0  0
 32 33  1  0  0  0
 33 38  2  0  0  0
 33 34  1  0  0  0
 34 35  2  0  0  0
 34 70  1  0  0  0
 35 36  1  0  0  0
 35 71  1  0  0  0
 36 37  2  0  0  0
 36 72  1  0  0  0
 37 38  1  0  0  0
 37 73  1  0  0  0
 38 74  1  0  0  0
M  CHG  1  22   1
M  END
> <i_i_glide_confnum>
152

> <i_i_glide_lignum>
651

> <i_i_glide_posenum>
327

> <i_i_glide_rotatable_bonds>
10

> <i_m_Source_File_Index>
1586

> <b_m_subgroup_collapsed>
0

> <r_i_docking_score>
-2.19822

> <r_i_glide_ecoul>
-3.9142

> <r_i_glide_eff_state_penalty>
0

> <r_i_glide_einternal>
25.1127

> <r_i_glide_emodel>
-25.7191

> <r_i_glide_energy>
-32.0372

> <r_i_glide_erotb>
0.53075

> <r_i_glide_esite>
-0.115523

> <r_i_glide_evdw>
-28.123

> <r_i_glide_gscore>
-2.19822

> <r_i_glide_hbond>
-0.0438329

> <r_i_glide_ligand_efficiency>
-0.0628062

> <r_i_glide_ligand_efficiency_ln>
-0.482557

> <r_i_glide_ligand_efficiency_sa>
-0.205443

> <r_i_glide_lipo>
-2.36217

> <r_i_glide_metal>
0

> <r_i_glide_rewards>
1.78584

> <s_i_glide_gridfile>
wee1_glide-grid

> <s_m_Source_File>
wee1_decoys_glide_SP.sdf

> <s_m_Source_Path>
/Users/zhangxujun/Desktop

> <s_m_entry_id>
1861

> <s_m_entry_name>
wee1_decoys_glide_SP.1586

> <s_m_subgroup_title>
wee1_decoys_glide_SP

> <s_m_subgroupid>
wee1_decoys_glide_SP


$$$$
