ZINC46560474_4860
                    3D
 Schrodinger Suite 2024-2.
 66 69  0  0  1  0            999 V2000
    1.1832   49.9168   21.0023 C   0  0  0  0  0  0
    2.0173   50.8892   21.8479 C   0  0  2  0  0  0
    2.8740   50.3544   22.2653 H   0  0  0  0  0  0
    1.1071   51.4161   22.9870 C   0  0  0  0  0  0
    0.5334   52.4985   22.8634 O   0  0  0  0  0  0
    0.9746   50.6238   24.0711 N   0  0  0  0  0  0
    0.1257   50.8323   25.2620 C   0  0  2  0  0  0
    0.1892   49.8596   25.7571 H   0  0  0  0  0  0
   -1.3620   51.0369   24.9299 C   0  0  0  0  0  0
   -1.8873   52.3239   24.7525 C   0  0  0  0  0  0
   -3.2419   52.5009   24.4851 C   0  0  0  0  0  0
   -4.0801   51.3906   24.4138 C   0  0  0  0  0  0
   -3.5744   50.1077   24.6098 C   0  0  0  0  0  0
   -2.2187   49.9314   24.8723 C   0  0  0  0  0  0
    0.6470   51.8066   26.3372 C   0  0  0  0  0  0
    0.2377   51.6055   27.6619 C   0  0  0  0  0  0
    0.6716   52.4581   28.6725 C   0  0  0  0  0  0
    1.5249   53.5210   28.3830 C   0  0  0  0  0  0
    1.9725   53.6971   27.0645 C   0  0  0  0  0  0
    1.5344   52.8508   26.0504 C   0  0  0  0  0  0
    1.8700   54.3443   29.4378 O   0  0  0  0  0  0
    2.6098   55.5311   29.1688 C   0  0  0  0  0  0
    2.6388   52.1109   21.0942 N   0  3  0  0  0  0
    3.7703   52.7662   21.9180 C   0  0  0  0  0  0
    4.3121   54.0037   21.1820 C   0  0  0  0  0  0
    4.8392   53.7027   19.8390 N   0  0  0  0  0  0
    3.8525   52.9548   19.0268 C   0  0  0  0  0  0
    3.2060   51.7294   19.7085 C   0  0  0  0  0  0
    5.9735   54.3086   19.2827 C   0  0  0  0  0  0
    6.7222   55.2922   19.9553 C   0  0  0  0  0  0
    7.9127   55.7564   19.3907 C   0  0  0  0  0  0
    8.3457   55.2500   18.1608 C   0  0  0  0  0  0
    7.5441   54.2925   17.5354 C   0  0  0  0  0  0
    6.3932   53.8263   18.0784 N   0  0  0  0  0  0
    9.6328   55.7338   17.5003 C   0  0  0  0  0  0
    9.4483   55.9015   16.1903 F   0  0  0  0  0  0
   10.0473   56.8945   18.0116 F   0  0  0  0  0  0
   10.5841   54.8181   17.6817 F   0  0  0  0  0  0
    0.7424   49.1317   21.6212 H   0  0  0  0  0  0
    0.3811   50.4468   20.4835 H   0  0  0  0  0  0
    1.8135   49.4240   20.2610 H   0  0  0  0  0  0
    1.5073   49.7662   24.0843 H   0  0  0  0  0  0
   -1.2429   53.1890   24.8089 H   0  0  0  0  0  0
   -3.6405   53.4945   24.3392 H   0  0  0  0  0  0
   -5.1329   51.5260   24.2134 H   0  0  0  0  0  0
   -4.2328   49.2521   24.5673 H   0  0  0  0  0  0
   -1.8387   48.9325   25.0374 H   0  0  0  0  0  0
   -0.4345   50.7937   27.9111 H   0  0  0  0  0  0
    0.3287   52.3022   29.6861 H   0  0  0  0  0  0
    2.6457   54.5001   26.8053 H   0  0  0  0  0  0
    1.8854   53.0297   25.0467 H   0  0  0  0  0  0
    2.7039   56.1146   30.0816 H   0  0  0  0  0  0
    2.1027   56.1625   28.4379 H   0  0  0  0  0  0
    3.6144   55.2992   28.8126 H   0  0  0  0  0  0
    3.3331   53.0750   22.8684 H   0  0  0  0  0  0
    4.5473   52.0170   22.0817 H   0  0  0  0  0  0
    3.5064   54.7257   21.0415 H   0  0  0  0  0  0
    5.0500   54.4829   21.8221 H   0  0  0  0  0  0
    4.2428   52.6548   18.0529 H   0  0  0  0  0  0
    3.0686   53.6887   18.8279 H   0  0  0  0  0  0
    3.9045   50.9025   19.8409 H   0  0  0  0  0  0
    2.3561   51.4049   19.1077 H   0  0  0  0  0  0
    6.4178   55.6928   20.9080 H   0  0  0  0  0  0
    8.5035   56.4953   19.9140 H   0  0  0  0  0  0
    7.8226   53.8665   16.5813 H   0  0  0  0  0  0
    1.9091   52.8013   20.9565 H   0  0  0  0  0  0
  1  2  1  0  0  0
  1 39  1  0  0  0
  1 40  1  0  0  0
  1 41  1  0  0  0
  2  3  1  0  0  0
  2  4  1  0  0  0
  2 23  1  0  0  0
  4  5  2  0  0  0
  4  6  1  0  0  0
  6  7  1  0  0  0
  6 42  1  0  0  0
  7  8  1  0  0  0
  7  9  1  0  0  0
  7 15  1  0  0  0
  9 14  2  0  0  0
  9 10  1  0  0  0
 10 11  2  0  0  0
 10 43  1  0  0  0
 11 12  1  0  0  0
 11 44  1  0  0  0
 12 13  2  0  0  0
 12 45  1  0  0  0
 13 14  1  0  0  0
 13 46  1  0  0  0
 14 47  1  0  0  0
 15 20  2  0  0  0
 15 16  1  0  0  0
 16 17  2  0  0  0
 16 48  1  0  0  0
 17 18  1  0  0  0
 17 49  1  0  0  0
 18 19  2  0  0  0
 18 21  1  0  0  0
 19 20  1  0  0  0
 19 50  1  0  0  0
 20 51  1  0  0  0
 21 22  1  0  0  0
 22 52  1  0  0  0
 22 53  1  0  0  0
 22 54  1  0  0  0
 23 28  1  0  0  0
 23 24  1  0  0  0
 23 66  1  0  0  0
 24 25  1  0  0  0
 24 55  1  0  0  0
 24 56  1  0  0  0
 25 26  1  0  0  0
 25 57  1  0  0  0
 25 58  1  0  0  0
 26 27  1  0  0  0
 26 29  1  0  0  0
 27 28  1  0  0  0
 27 59  1  0  0  0
 27 60  1  0  0  0
 28 61  1  0  0  0
 28 62  1  0  0  0
 29 34  2  0  0  0
 29 30  1  0  0  0
 30 31  2  0  0  0
 30 63  1  0  0  0
 31 32  1  0  0  0
 31 64  1  0  0  0
 32 33  2  0  0  0
 32 35  1  0  0  0
 33 34  1  0  0  0
 33 65  1  0  0  0
 35 36  1  0  0  0
 35 37  1  0  0  0
 35 38  1  0  0  0
M  CHG  1  23   1
M  END
> <i_i_glide_confnum>
69

> <i_i_glide_lignum>
4861

> <i_i_glide_posenum>
299

> <i_i_glide_rotatable_bonds>
9

> <i_m_Source_File_Index>
2696

> <b_m_subgroup_collapsed>
0

> <r_i_docking_score>
-3.83823

> <r_i_glide_ecoul>
-3.05225

> <r_i_glide_eff_state_penalty>
0

> <r_i_glide_einternal>
1.1493

> <r_i_glide_emodel>
-52.5282

> <r_i_glide_energy>
-41.8164

> <r_i_glide_erotb>
0.572615

> <r_i_glide_esite>
-0.0528285

> <r_i_glide_evdw>
-38.7642

> <r_i_glide_gscore>
-3.83823

> <r_i_glide_hbond>
0

> <r_i_glide_ligand_efficiency>
-0.106618

> <r_i_glide_ligand_efficiency_ln>
-0.837399

> <r_i_glide_ligand_efficiency_sa>
-0.352044

> <r_i_glide_lipo>
-1.83389

> <r_i_glide_metal>
0

> <r_i_glide_rewards>
-0.128087

> <s_i_glide_gridfile>
wee1_glide-grid

> <s_m_Source_File>
wee1_decoys_glide_SP.sdf

> <s_m_Source_Path>
/Users/zhangxujun/Desktop

> <s_m_entry_id>
2971

> <s_m_entry_name>
wee1_decoys_glide_SP.2696

> <s_m_subgroup_title>
wee1_decoys_glide_SP

> <s_m_subgroupid>
wee1_decoys_glide_SP


$$$$
