ZINC15958228_2426
                    3D
 Schrodinger Suite 2024-2.
 58 63  0  0  1  0            999 V2000
    1.6748   47.1042   16.2175 C   0  0  0  0  0  0
    0.4087   47.5314   16.9609 C   0  0  0  0  0  0
   -0.6796   47.2932   16.4389 O   0  0  0  0  0  0
    0.5586   48.2221   18.2819 C   0  0  0  0  0  0
    1.8198   48.4466   18.8512 C   0  0  0  0  0  0
    1.9293   49.0901   20.0771 C   0  0  0  0  0  0
    0.7891   49.5348   20.7596 C   0  0  0  0  0  0
   -0.4729   49.3103   20.1925 C   0  0  0  0  0  0
   -0.5846   48.6576   18.9674 C   0  0  0  0  0  0
    0.9246   50.1967   22.0093 N   0  0  0  0  0  0
    1.8097   51.2124   22.2239 C   0  0  0  0  0  0
    2.5901   51.7242   21.4210 O   0  0  0  0  0  0
    1.7076   51.6377   23.6725 C   0  0  1  0  0  0
    2.6717   51.6029   24.1709 H   0  0  0  0  0  0
    1.0519   53.0150   23.8375 C   0  0  1  0  0  0
    0.3337   53.1630   23.0271 H   0  0  0  0  0  0
    0.2544   52.8959   25.0405 N   0  0  0  0  0  0
   -0.2212   51.5261   25.1825 C   0  0  2  0  0  0
    0.7636   50.6640   24.3038 C   0  0  1  0  0  0
    1.3121   49.9151   24.8800 H   0  0  0  0  0  0
    0.2116   49.8673   23.1274 C   0  0  0  0  0  0
   -0.6745   49.0192   23.2293 O   0  0  0  0  0  0
   -1.7187   51.4102   25.0222 C   0  0  0  0  0  0
   -2.5661   51.6578   23.9346 C   0  0  0  0  0  0
   -3.9513   51.5357   24.1003 C   0  0  0  0  0  0
   -4.4832   51.1559   25.3349 C   0  0  0  0  0  0
   -3.6377   50.9059   26.4188 C   0  0  0  0  0  0
   -2.2613   51.0544   26.2434 C   0  0  0  0  0  0
   -1.2522   50.8925   27.1729 N   0  0  0  0  0  0
   -0.0327   51.1451   26.6786 C   0  0  0  0  0  0
    1.0321   51.0526   27.2932 O   0  0  0  0  0  0
    2.0150   54.2293   23.7877 C   0  0  0  0  0  0
    3.2736   54.1411   24.6503 C   0  0  0  0  0  0
    3.1842   54.0927   26.0455 C   0  0  0  0  0  0
    4.3424   54.0784   26.8182 C   0  0  0  0  0  0
    5.5896   54.1042   26.1992 C   0  0  0  0  0  0
    5.6888   54.1200   24.8107 C   0  0  0  0  0  0
    4.5311   54.1462   24.0358 C   0  0  0  0  0  0
    2.2426   46.3967   16.8163 H   0  0  0  0  0  0
    2.3118   47.9732   16.0340 H   0  0  0  0  0  0
    1.4296   46.6455   15.2597 H   0  0  0  0  0  0
    2.7334   48.1437   18.3565 H   0  0  0  0  0  0
    2.9149   49.2559   20.4867 H   0  0  0  0  0  0
   -1.3695   49.6412   20.6962 H   0  0  0  0  0  0
   -1.5716   48.4992   18.5527 H   0  0  0  0  0  0
   -0.5061   53.5575   25.0526 H   0  0  0  0  0  0
   -2.1642   51.9551   22.9769 H   0  0  0  0  0  0
   -4.6210   51.7385   23.2780 H   0  0  0  0  0  0
   -5.5551   51.0578   25.4504 H   0  0  0  0  0  0
   -4.0514   50.6076   27.3711 H   0  0  0  0  0  0
   -1.3714   50.4086   28.0570 H   0  0  0  0  0  0
    2.3152   54.3746   22.7463 H   0  0  0  0  0  0
    1.4930   55.1435   24.0650 H   0  0  0  0  0  0
    2.2193   54.0798   26.5344 H   0  0  0  0  0  0
    4.2735   54.0492   27.8967 H   0  0  0  0  0  0
    6.4867   54.0879   26.8000 H   0  0  0  0  0  0
    6.6591   54.1247   24.3331 H   0  0  0  0  0  0
    4.6130   54.1741   22.9574 H   0  0  0  0  0  0
  1  2  1  0  0  0
  1 39  1  0  0  0
  1 40  1  0  0  0
  1 41  1  0  0  0
  2  3  2  0  0  0
  2  4  1  0  0  0
  4  9  2  0  0  0
  4  5  1  0  0  0
  5  6  2  0  0  0
  5 42  1  0  0  0
  6  7  1  0  0  0
  6 43  1  0  0  0
  7  8  2  0  0  0
  7 10  1  0  0  0
  8  9  1  0  0  0
  8 44  1  0  0  0
  9 45  1  0  0  0
 10 21  1  0  0  0
 10 11  1  0  0  0
 11 12  2  0  0  0
 11 13  1  0  0  0
 13 14  1  0  0  0
 13 19  1  0  0  0
 13 15  1  0  0  0
 15 16  1  0  0  0
 15 17  1  0  0  0
 15 32  1  0  0  0
 17 18  1  0  0  0
 17 46  1  0  0  0
 18 30  1  0  0  0
 18 19  1  0  0  0
 18 23  1  0  0  0
 19 20  1  0  0  0
 19 21  1  0  0  0
 21 22  2  0  0  0
 23 28  2  0  0  0
 23 24  1  0  0  0
 24 25  2  0  0  0
 24 47  1  0  0  0
 25 26  1  0  0  0
 25 48  1  0  0  0
 26 27  2  0  0  0
 26 49  1  0  0  0
 27 28  1  0  0  0
 27 50  1  0  0  0
 28 29  1  0  0  0
 29 30  1  0  0  0
 29 51  1  0  0  0
 30 31  2  0  0  0
 32 33  1  0  0  0
 32 52  1  0  0  0
 32 53  1  0  0  0
 33 38  2  0  0  0
 33 34  1  0  0  0
 34 35  2  0  0  0
 34 54  1  0  0  0
 35 36  1  0  0  0
 35 55  1  0  0  0
 36 37  2  0  0  0
 36 56  1  0  0  0
 37 38  1  0  0  0
 37 57  1  0  0  0
 38 58  1  0  0  0
M  END
> <i_i_glide_confnum>
57

> <i_i_glide_lignum>
2427

> <i_i_glide_posenum>
336

> <i_i_glide_rotatable_bonds>
4

> <i_m_Source_File_Index>
3148

> <b_m_subgroup_collapsed>
0

> <r_i_docking_score>
-4.52547

> <r_i_glide_ecoul>
-1.68786

> <r_i_glide_eff_state_penalty>
0

> <r_i_glide_einternal>
4.83905

> <r_i_glide_emodel>
-41.6305

> <r_i_glide_energy>
-36.2958

> <r_i_glide_erotb>
0.279213

> <r_i_glide_esite>
-0.155125

> <r_i_glide_evdw>
-34.6079

> <r_i_glide_gscore>
-4.52547

> <r_i_glide_hbond>
-0.0861889

> <r_i_glide_ligand_efficiency>
-0.129299

> <r_i_glide_ligand_efficiency_ln>
-0.993442

> <r_i_glide_ligand_efficiency_sa>
-0.422947

> <r_i_glide_lipo>
-2.008

> <r_i_glide_metal>
0

> <r_i_glide_rewards>
-0.5718

> <s_i_glide_gridfile>
wee1_glide-grid

> <s_m_Source_File>
wee1_decoys_glide_SP.sdf

> <s_m_Source_Path>
/Users/zhangxujun/Desktop

> <s_m_entry_id>
3423

> <s_m_entry_name>
wee1_decoys_glide_SP.3148

> <s_m_subgroup_title>
wee1_decoys_glide_SP

> <s_m_subgroupid>
wee1_decoys_glide_SP


$$$$
