ZINC12941652_1470
                    3D
 Schrodinger Suite 2024-2.
 44 47  0  0  1  0            999 V2000
    4.0353   53.9549   27.7964 C   0  0  0  0  0  0
    5.3079   54.4963   28.0062 C   0  0  0  0  0  0
    6.1285   54.8693   26.9383 C   0  0  0  0  0  0
    5.6132   54.6550   25.6560 C   0  0  0  0  0  0
    4.3472   54.0967   25.4205 C   0  0  0  0  0  0
    3.5320   53.7482   26.5068 C   0  0  0  0  0  0
    4.1516   53.9619   24.0758 N   0  0  0  0  0  0
    5.2579   54.4474   23.5477 C   0  0  0  0  0  0
    6.1865   54.9074   24.4476 O   0  0  0  0  0  0
    5.5762   54.4970   22.2163 N   0  0  0  0  0  0
    4.9311   53.6349   21.2047 C   0  0  0  0  0  0
    4.6397   54.3165   19.8503 C   0  0  0  0  0  0
    5.7857   55.1827   19.2715 C   0  0  0  0  0  0
    6.3597   56.0602   20.4088 C   0  0  0  0  0  0
    6.7057   55.2969   21.7070 C   0  0  0  0  0  0
    6.8798   54.3012   18.6068 C   0  0  0  0  0  0
    8.0702   54.4971   18.8763 O   0  0  0  0  0  0
    6.4757   53.4128   17.6695 N   0  0  0  0  0  0
    7.4055   52.4967   17.1786 N   0  0  0  0  0  0
    7.7820   52.5821   15.8840 C   0  0  0  0  0  0
    7.4368   53.4708   15.0990 O   0  0  0  0  0  0
    8.6914   51.5386   15.4784 C   0  0  0  0  0  0
    9.5076   50.6732   16.2068 C   0  0  0  0  0  0
   10.2421   49.9280   15.2815 C   0  0  0  0  0  0
    9.8664   50.3820   14.0294 C   0  0  0  0  0  0
    8.9401   51.3695   14.1486 O   0  0  0  0  0  0
    3.4332   53.6771   28.6498 H   0  0  0  0  0  0
    5.6607   54.6353   29.0182 H   0  0  0  0  0  0
    7.1044   55.2938   27.1037 H   0  0  0  0  0  0
    2.5576   53.3122   26.3496 H   0  0  0  0  0  0
    3.9703   53.3026   21.5985 H   0  0  0  0  0  0
    5.5057   52.7199   21.0733 H   0  0  0  0  0  0
    3.7206   54.8967   19.8934 H   0  0  0  0  0  0
    4.2884   53.5900   19.1158 H   0  0  0  0  0  0
    5.4050   55.7501   18.4210 H   0  0  0  0  0  0
    7.2124   56.6307   20.0369 H   0  0  0  0  0  0
    5.6905   56.8951   20.6072 H   0  0  0  0  0  0
    6.9844   56.0408   22.4538 H   0  0  0  0  0  0
    7.5846   54.6637   21.5947 H   0  0  0  0  0  0
    5.5196   53.1106   17.5512 H   0  0  0  0  0  0
    7.3907   51.6216   17.6831 H   0  0  0  0  0  0
    9.5719   50.5938   17.2823 H   0  0  0  0  0  0
   10.9735   49.1645   15.4979 H   0  0  0  0  0  0
   10.1712   50.1248   13.0235 H   0  0  0  0  0  0
  1  6  2  0  0  0
  1  2  1  0  0  0
  1 27  1  0  0  0
  2  3  2  0  0  0
  2 28  1  0  0  0
  3  4  1  0  0  0
  3 29  1  0  0  0
  4  9  1  0  0  0
  4  5  2  0  0  0
  5  6  1  0  0  0
  5  7  1  0  0  0
  6 30  1  0  0  0
  7  8  2  0  0  0
  8  9  1  0  0  0
  8 10  1  0  0  0
 10 15  1  0  0  0
 10 11  1  0  0  0
 11 12  1  0  0  0
 11 31  1  0  0  0
 11 32  1  0  0  0
 12 13  1  0  0  0
 12 33  1  0  0  0
 12 34  1  0  0  0
 13 14  1  0  0  0
 13 16  1  0  0  0
 13 35  1  0  0  0
 14 15  1  0  0  0
 14 36  1  0  0  0
 14 37  1  0  0  0
 15 38  1  0  0  0
 15 39  1  0  0  0
 16 17  2  0  0  0
 16 18  1  0  0  0
 18 19  1  0  0  0
 18 40  1  0  0  0
 19 20  1  0  0  0
 19 41  1  0  0  0
 20 21  2  0  0  0
 20 22  1  0  0  0
 22 26  1  0  0  0
 22 23  2  0  0  0
 23 24  1  0  0  0
 23 42  1  0  0  0
 24 25  2  0  0  0
 24 43  1  0  0  0
 25 26  1  0  0  0
 25 44  1  0  0  0
M  END
> <i_i_glide_confnum>
94

> <i_i_glide_lignum>
1471

> <i_i_glide_posenum>
378

> <i_i_glide_rotatable_bonds>
6

> <i_m_Source_File_Index>
4674

> <b_m_subgroup_collapsed>
0

> <r_i_docking_score>
-5.4946

> <r_i_glide_ecoul>
-1.20909

> <r_i_glide_eff_state_penalty>
0

> <r_i_glide_einternal>
4.81787

> <r_i_glide_emodel>
-51.6316

> <r_i_glide_energy>
-39.3923

> <r_i_glide_erotb>
0.760837

> <r_i_glide_esite>
-0.0936993

> <r_i_glide_evdw>
-38.1832

> <r_i_glide_gscore>
-5.4946

> <r_i_glide_hbond>
-0.0197375

> <r_i_glide_ligand_efficiency>
-0.211331

> <r_i_glide_ligand_efficiency_ln>
-1.29039

> <r_i_glide_ligand_efficiency_sa>
-0.626067

> <r_i_glide_lipo>
-2.69683

> <r_i_glide_metal>
0

> <r_i_glide_rewards>
-1.35465

> <s_i_glide_gridfile>
wee1_glide-grid

> <s_m_Source_File>
wee1_decoys_glide_SP.sdf

> <s_m_Source_Path>
/Users/zhangxujun/Desktop

> <s_m_entry_id>
4949

> <s_m_entry_name>
wee1_decoys_glide_SP.4674

> <s_m_subgroup_title>
wee1_decoys_glide_SP

> <s_m_subgroupid>
wee1_decoys_glide_SP


$$$$
