ZINC16401260_5842
                    3D
 Schrodinger Suite 2024-2.
 47 50  0  0  1  0            999 V2000
    1.8853   53.3314   24.7939 C   0  0  0  0  0  0
    2.3159   53.3209   23.4714 C   0  0  0  0  0  0
    3.6201   53.7123   23.1460 C   0  0  0  0  0  0
    4.4911   54.0963   24.1760 C   0  0  0  0  0  0
    4.0602   54.0982   25.4980 C   0  0  0  0  0  0
    2.7563   53.7020   25.8259 C   0  0  0  0  0  0
    2.2492   53.6923   27.2803 C   0  0  0  0  0  0
    1.5914   52.3366   27.6769 C   0  0  0  0  0  0
    1.0450   52.3302   29.1151 C   0  0  0  0  0  0
    2.1150   52.7467   30.1381 C   0  0  0  0  0  0
    2.7425   54.1021   29.7706 C   0  0  0  0  0  0
    3.3023   54.1202   28.3397 C   0  0  0  0  0  0
    4.0765   53.6380   21.7202 C   0  0  0  0  0  0
    3.5226   52.8789   20.9208 O   0  0  0  0  0  0
    5.1256   54.5686   21.2810 C   0  0  0  0  0  0
    5.6688   54.6500   20.0381 C   0  0  0  0  0  0
    6.6988   55.6955   19.8110 C   0  0  0  0  0  0
    7.1045   56.4963   20.6573 O   0  0  0  0  0  0
    7.2253   55.7599   18.5673 N   0  0  0  0  0  0
    6.8431   54.9739   17.4749 C   0  0  0  0  0  0
    7.3924   55.1461   16.2006 C   0  0  0  0  0  0
    6.9437   54.3316   15.1555 C   0  0  0  0  0  0
    5.9565   53.3772   15.4200 C   0  0  0  0  0  0
    5.4078   53.1983   16.6471 N   0  0  0  0  0  0
    5.8618   53.9895   17.6481 C   0  0  0  0  0  0
    5.3377   53.8453   18.9402 N   0  0  0  0  0  0
    7.6657   54.5176   13.4043 Br  0  0  0  0  0  0
    0.8689   53.0392   25.0107 H   0  0  0  0  0  0
    1.6246   53.0137   22.6990 H   0  0  0  0  0  0
    5.5219   54.3631   23.9854 H   0  0  0  0  0  0
    4.7716   54.3893   26.2533 H   0  0  0  0  0  0
    1.4680   54.4542   27.2776 H   0  0  0  0  0  0
    0.7506   52.0979   27.0259 H   0  0  0  0  0  0
    2.3197   51.5309   27.5931 H   0  0  0  0  0  0
    0.1901   53.0049   29.1888 H   0  0  0  0  0  0
    0.6683   51.3337   29.3580 H   0  0  0  0  0  0
    1.6765   52.7911   31.1373 H   0  0  0  0  0  0
    2.8967   51.9851   30.1818 H   0  0  0  0  0  0
    1.9940   54.8892   29.8788 H   0  0  0  0  0  0
    3.5426   54.3367   30.4789 H   0  0  0  0  0  0
    4.1656   53.4535   28.2965 H   0  0  0  0  0  0
    3.6401   55.1386   28.1408 H   0  0  0  0  0  0
    5.4616   55.2573   22.0406 H   0  0  0  0  0  0
    7.9257   56.4754   18.4499 H   0  0  0  0  0  0
    8.1495   55.8930   16.0199 H   0  0  0  0  0  0
    5.5922   52.7282   14.6369 H   0  0  0  0  0  0
    4.6504   53.1167   19.0790 H   0  0  0  0  0  0
  1  6  2  0  0  0
  1  2  1  0  0  0
  1 28  1  0  0  0
  2  3  2  0  0  0
  2 29  1  0  0  0
  3  4  1  0  0  0
  3 13  1  0  0  0
  4  5  2  0  0  0
  4 30  1  0  0  0
  5  6  1  0  0  0
  5 31  1  0  0  0
  6  7  1  0  0  0
  7 12  1  0  0  0
  7  8  1  0  0  0
  7 32  1  0  0  0
  8  9  1  0  0  0
  8 33  1  0  0  0
  8 34  1  0  0  0
  9 10  1  0  0  0
  9 35  1  0  0  0
  9 36  1  0  0  0
 10 11  1  0  0  0
 10 37  1  0  0  0
 10 38  1  0  0  0
 11 12  1  0  0  0
 11 39  1  0  0  0
 11 40  1  0  0  0
 12 41  1  0  0  0
 12 42  1  0  0  0
 13 14  2  0  0  0
 13 15  1  0  0  0
 15 16  2  0  0  0
 15 43  1  0  0  0
 16 26  1  0  0  0
 16 17  1  0  0  0
 17 18  2  0  0  0
 17 19  1  0  0  0
 19 20  1  0  0  0
 19 44  1  0  0  0
 20 25  2  0  0  0
 20 21  1  0  0  0
 21 22  2  0  0  0
 21 45  1  0  0  0
 22 23  1  0  0  0
 22 27  1  0  0  0
 23 24  2  0  0  0
 23 46  1  0  0  0
 24 25  1  0  0  0
 25 26  1  0  0  0
 26 47  1  0  0  0
M  END
> <i_i_glide_confnum>
28

> <i_i_glide_lignum>
5843

> <i_i_glide_posenum>
373

> <i_i_glide_rotatable_bonds>
3

> <i_m_Source_File_Index>
1366

> <b_m_subgroup_collapsed>
0

> <r_i_docking_score>
-5.20297

> <r_i_glide_ecoul>
-1.96261

> <r_i_glide_eff_state_penalty>
0

> <r_i_glide_einternal>
7.21826

> <r_i_glide_emodel>
-46.1036

> <r_i_glide_energy>
-37.3071

> <r_i_glide_erotb>
0.327587

> <r_i_glide_esite>
-0.0283316

> <r_i_glide_evdw>
-35.3445

> <r_i_glide_gscore>
-5.20297

> <r_i_glide_hbond>
-0.274483

> <r_i_glide_ligand_efficiency>
-0.192703

> <r_i_glide_ligand_efficiency_ln>
-1.21117

> <r_i_glide_ligand_efficiency_sa>
-0.578108

> <r_i_glide_lipo>
-2.27562

> <r_i_glide_metal>
0

> <r_i_glide_rewards>
-0.89051

> <s_i_glide_gridfile>
wee1_glide-grid

> <s_m_Source_File>
wee1_decoys_glide_SP.sdf

> <s_m_Source_Path>
/Users/zhangxujun/Desktop

> <s_m_entry_id>
1641

> <s_m_entry_name>
wee1_decoys_glide_SP.1366

> <s_m_subgroup_title>
wee1_decoys_glide_SP

> <s_m_subgroupid>
wee1_decoys_glide_SP


$$$$
