ZINC01347221_2389
                    3D
 Schrodinger Suite 2024-2.
 54 57  0  0  1  0            999 V2000
    6.1493   54.7678   24.1211 C   0  0  0  0  0  0
    5.3175   54.8952   25.2294 C   0  0  0  0  0  0
    4.0005   54.4401   25.1815 C   0  0  0  0  0  0
    3.4929   53.8286   24.0052 C   0  0  0  0  0  0
    2.1654   53.3341   23.9298 C   0  0  0  0  0  0
    1.7027   52.7155   22.7644 C   0  0  0  0  0  0
    2.5470   52.5766   21.6639 C   0  0  0  0  0  0
    3.8498   53.0683   21.6998 C   0  0  0  0  0  0
    4.3490   53.6963   22.8699 C   0  0  0  0  0  0
    5.6796   54.1815   22.9476 C   0  0  0  0  0  0
    0.0168   52.0996   22.6887 S   0  0  0  0  0  0
   -0.3775   52.0970   21.2745 O   0  0  0  0  0  0
   -0.7366   52.8682   23.6860 O   0  0  0  0  0  0
    0.1055   50.4243   23.2389 N   0  0  0  0  0  0
    0.2150   49.2984   22.2894 C   0  0  0  0  0  0
   -0.8960   48.2740   22.6065 C   0  0  0  0  0  0
   -0.8968   47.8828   24.1122 C   0  0  0  0  0  0
   -0.8189   49.0766   25.1178 C   0  0  1  0  0  0
   -0.6072   48.6743   26.1109 H   0  0  0  0  0  0
    0.2795   50.0801   24.6676 C   0  0  0  0  0  0
   -2.1875   49.8015   25.2277 C   0  0  0  0  0  0
   -2.8518   50.0576   24.2181 O   0  0  0  0  0  0
   -2.5964   50.0966   26.4817 N   0  0  0  0  0  0
   -3.8410   50.6970   26.7117 N   0  0  0  0  0  0
   -4.0280   52.0192   26.4912 C   0  0  0  0  0  0
   -3.1530   52.7876   26.0808 O   0  0  0  0  0  0
   -5.4157   52.5398   26.7901 C   0  0  0  0  0  0
   -5.8767   53.6893   26.1318 C   0  0  0  0  0  0
   -7.1346   54.2119   26.4239 C   0  0  0  0  0  0
   -7.9348   53.5943   27.3811 C   0  0  0  0  0  0
   -7.4948   52.4478   28.0385 C   0  0  0  0  0  0
   -6.2417   51.9187   27.7443 C   0  0  0  0  0  0
   -9.1470   54.1144   27.6769 F   0  0  0  0  0  0
    7.1670   55.1281   24.1664 H   0  0  0  0  0  0
    5.6925   55.3510   26.1326 H   0  0  0  0  0  0
    3.3622   54.5401   26.0467 H   0  0  0  0  0  0
    1.5157   53.4382   24.7878 H   0  0  0  0  0  0
    2.1881   52.1020   20.7607 H   0  0  0  0  0  0
    4.4893   52.9640   20.8354 H   0  0  0  0  0  0
    6.3286   54.0957   22.0889 H   0  0  0  0  0  0
    1.2111   48.8640   22.3835 H   0  0  0  0  0  0
    0.1259   49.6699   21.2679 H   0  0  0  0  0  0
   -0.7970   47.3883   21.9804 H   0  0  0  0  0  0
   -1.8597   48.7015   22.3289 H   0  0  0  0  0  0
   -0.0513   47.2301   24.3359 H   0  0  0  0  0  0
   -1.7189   47.2137   24.3743 H   0  0  0  0  0  0
    0.2955   50.9848   25.2777 H   0  0  0  0  0  0
    1.2630   49.6140   24.7462 H   0  0  0  0  0  0
   -2.0964   49.8412   27.3282 H   0  0  0  0  0  0
   -4.5921   50.0239   26.7178 H   0  0  0  0  0  0
   -5.2604   54.1793   25.3886 H   0  0  0  0  0  0
   -7.4942   55.0942   25.9156 H   0  0  0  0  0  0
   -8.1233   51.9755   28.7792 H   0  0  0  0  0  0
   -5.9174   51.0377   28.2824 H   0  0  0  0  0  0
  1 10  2  0  0  0
  1  2  1  0  0  0
  1 34  1  0  0  0
  2  3  2  0  0  0
  2 35  1  0  0  0
  3  4  1  0  0  0
  3 36  1  0  0  0
  4  9  2  0  0  0
  4  5  1  0  0  0
  5  6  2  0  0  0
  5 37  1  0  0  0
  6  7  1  0  0  0
  6 11  1  0  0  0
  7  8  2  0  0  0
  7 38  1  0  0  0
  8  9  1  0  0  0
  8 39  1  0  0  0
  9 10  1  0  0  0
 10 40  1  0  0  0
 11 12  2  0  0  0
 11 13  2  0  0  0
 11 14  1  0  0  0
 14 20  1  0  0  0
 14 15  1  0  0  0
 15 16  1  0  0  0
 15 41  1  0  0  0
 15 42  1  0  0  0
 16 17  1  0  0  0
 16 43  1  0  0  0
 16 44  1  0  0  0
 17 18  1  0  0  0
 17 45  1  0  0  0
 17 46  1  0  0  0
 18 19  1  0  0  0
 18 20  1  0  0  0
 18 21  1  0  0  0
 20 47  1  0  0  0
 20 48  1  0  0  0
 21 22  2  0  0  0
 21 23  1  0  0  0
 23 24  1  0  0  0
 23 49  1  0  0  0
 24 25  1  0  0  0
 24 50  1  0  0  0
 25 26  2  0  0  0
 25 27  1  0  0  0
 27 32  2  0  0  0
 27 28  1  0  0  0
 28 29  2  0  0  0
 28 51  1  0  0  0
 29 30  1  0  0  0
 29 52  1  0  0  0
 30 31  2  0  0  0
 30 33  1  0  0  0
 31 32  1  0  0  0
 31 53  1  0  0  0
 32 54  1  0  0  0
M  END
> <i_i_glide_confnum>
203

> <i_i_glide_lignum>
2390

> <i_i_glide_posenum>
372

> <i_i_glide_rotatable_bonds>
7

> <i_m_Source_File_Index>
6031

> <b_m_subgroup_collapsed>
0

> <r_i_docking_score>
-5.18875

> <r_i_glide_ecoul>
-6.01594

> <r_i_glide_eff_state_penalty>
0

> <r_i_glide_einternal>
3.01908

> <r_i_glide_emodel>
-57.7529

> <r_i_glide_energy>
-43.157

> <r_i_glide_erotb>
0.580952

> <r_i_glide_esite>
-0.194772

> <r_i_glide_evdw>
-37.141

> <r_i_glide_gscore>
-5.18875

> <r_i_glide_hbond>
-0.142573

> <r_i_glide_ligand_efficiency>
-0.162148

> <r_i_glide_ligand_efficiency_ln>
-1.1619

> <r_i_glide_ligand_efficiency_sa>
-0.514789

> <r_i_glide_lipo>
-2.21518

> <r_i_glide_metal>
0

> <r_i_glide_rewards>
-0.45773

> <s_i_glide_gridfile>
wee1_glide-grid

> <s_m_Source_File>
wee1_decoys_glide_SP.sdf

> <s_m_Source_Path>
/Users/zhangxujun/Desktop

> <s_m_entry_id>
6306

> <s_m_entry_name>
wee1_decoys_glide_SP.6031

> <s_m_subgroup_title>
wee1_decoys_glide_SP

> <s_m_subgroupid>
wee1_decoys_glide_SP


$$$$
