ZINC43741659_1250
                    3D
 Schrodinger Suite 2024-2.
 76 80  0  0  1  0            999 V2000
   -0.4863   51.6978   30.2899 C   0  0  0  0  0  0
    0.7112   52.6128   30.5037 C   0  0  0  0  0  0
    0.7046   53.4119   31.4369 O   0  0  0  0  0  0
    1.8988   52.5057   29.5055 C   0  0  2  0  0  0
    2.1873   51.4546   29.4812 H   0  0  0  0  0  0
    3.1482   53.3518   29.8976 C   0  0  0  0  0  0
    3.7904   53.8251   28.5748 C   0  0  0  0  0  0
    2.9955   53.0920   27.4887 C   0  0  1  0  0  0
    3.4215   52.0967   27.4907 H   0  0  0  0  0  0
    1.5636   52.9732   28.0585 C   0  0  1  0  0  0
    0.8457   51.9110   27.1826 C   0  0  0  0  0  0
    0.7923   52.2936   25.6813 C   0  0  0  0  0  0
    2.1701   52.6784   25.0432 C   0  0  2  0  0  0
    2.7040   51.7533   24.8817 H   0  0  0  0  0  0
    3.0313   53.5650   26.0067 C   0  0  2  0  0  0
    2.5780   54.5352   25.9539 H   0  0  0  0  0  0
    4.4502   53.7836   25.4758 C   0  0  0  0  0  0
    4.4547   54.2834   24.0258 C   0  0  0  0  0  0
    3.5234   53.5262   23.0715 C   0  0  0  0  0  0
    3.9153   53.2550   21.8082 C   0  0  0  0  0  0
    3.1050   52.6947   20.7522 C   0  0  0  0  0  0
    3.4283   52.5836   19.5232 N   0  0  0  0  0  0
    4.7419   53.0445   19.2529 O   0  0  0  0  0  0
    4.7138   54.2079   18.4129 C   0  0  0  0  0  0
    4.3232   53.9074   16.9545 C   0  0  0  0  0  0
    3.9686   54.8367   16.2295 O   0  0  0  0  0  0
    4.3994   52.6370   16.5237 N   0  0  0  0  0  0
    4.0154   52.1733   15.1897 C   0  0  0  0  0  0
    2.4951   52.2521   14.9041 C   0  0  0  0  0  0
    1.6155   51.6937   16.0099 C   0  0  0  0  0  0
    0.4648   52.1822   16.6275 C   0  0  0  0  0  0
    0.0868   51.2866   17.6173 N   0  0  0  0  0  0
   -0.7020   51.3940   18.2392 H   0  0  0  0  0  0
    0.9799   50.2415   17.6313 C   0  0  0  0  0  0
    1.9044   50.4960   16.6471 N   0  3  0  0  0  0
    1.6805   52.2778   21.1319 C   0  0  0  0  0  0
    1.4867   52.0984   22.6547 C   0  0  0  0  0  0
    2.0915   53.2108   23.5755 C   0  0  1  0  0  0
    1.2509   54.4966   23.4827 C   0  0  0  0  0  0
    0.8108   54.3391   28.0943 C   0  0  0  0  0  0
   -0.2165   50.8529   29.6661 H   0  0  0  0  0  0
   -1.2920   52.2382   29.7955 H   0  0  0  0  0  0
   -0.8549   51.3200   31.2433 H   0  0  0  0  0  0
    2.8934   54.2341   30.4816 H   0  0  0  0  0  0
    3.8484   52.7601   30.4889 H   0  0  0  0  0  0
    3.6389   54.9009   28.4752 H   0  0  0  0  0  0
    4.8645   53.6441   28.5117 H   0  0  0  0  0  0
    1.3500   50.9484   27.2812 H   0  0  0  0  0  0
   -0.1689   51.7394   27.5419 H   0  0  0  0  0  0
    0.1196   53.1415   25.6054 H   0  0  0  0  0  0
    0.3130   51.4975   25.1116 H   0  0  0  0  0  0
    4.9585   54.5157   26.1056 H   0  0  0  0  0  0
    5.0570   52.8974   25.5888 H   0  0  0  0  0  0
    5.4763   54.3439   23.6498 H   0  0  0  0  0  0
    4.0937   55.2967   24.0598 H   0  0  0  0  0  0
    4.9275   53.5389   21.5656 H   0  0  0  0  0  0
    4.0519   54.9714   18.8288 H   0  0  0  0  0  0
    5.7141   54.6372   18.4051 H   0  0  0  0  0  0
    4.7020   51.9245   17.1887 H   0  0  0  0  0  0
    4.5741   52.7271   14.4324 H   0  0  0  0  0  0
    4.3431   51.1366   15.1098 H   0  0  0  0  0  0
    2.2313   53.2934   14.7126 H   0  0  0  0  0  0
    2.2914   51.7281   13.9696 H   0  0  0  0  0  0
   -0.0948   53.0911   16.4581 H   0  0  0  0  0  0
    0.9912   49.4027   18.3130 H   0  0  0  0  0  0
    0.9802   53.0181   20.7470 H   0  0  0  0  0  0
    1.4344   51.3387   20.6352 H   0  0  0  0  0  0
    1.9225   51.1304   22.9135 H   0  0  0  0  0  0
    0.4208   51.9895   22.8555 H   0  0  0  0  0  0
    0.2150   54.3420   23.7743 H   0  0  0  0  0  0
    1.6592   55.3021   24.0818 H   0  0  0  0  0  0
    1.2405   54.8928   22.4800 H   0  0  0  0  0  0
    1.1032   54.9854   27.2819 H   0  0  0  0  0  0
   -0.2719   54.2058   28.0819 H   0  0  0  0  0  0
    1.0408   54.9231   28.9853 H   0  0  0  0  0  0
    2.7680   49.9479   16.4854 H   0  0  0  0  0  0
  1  2  1  0  0  0
  1 41  1  0  0  0
  1 42  1  0  0  0
  1 43  1  0  0  0
  2  3  2  0  0  0
  2  4  1  0  0  0
  4  5  1  0  0  0
  4 10  1  0  0  0
  4  6  1  0  0  0
  6  7  1  0  0  0
  6 44  1  0  0  0
  6 45  1  0  0  0
  7  8  1  0  0  0
  7 46  1  0  0  0
  7 47  1  0  0  0
  8  9  1  0  0  0
  8 15  1  0  0  0
  8 10  1  0  0  0
 10 11  1  0  0  0
 10 40  1  0  0  0
 11 12  1  0  0  0
 11 48  1  0  0  0
 11 49  1  0  0  0
 12 13  1  0  0  0
 12 50  1  0  0  0
 12 51  1  0  0  0
 13 14  1  0  0  0
 13 38  1  0  0  0
 13 15  1  0  0  0
 15 16  1  0  0  0
 15 17  1  0  0  0
 17 18  1  0  0  0
 17 52  1  0  0  0
 17 53  1  0  0  0
 18 19  1  0  0  0
 18 54  1  0  0  0
 18 55  1  0  0  0
 19 38  1  0  0  0
 19 20  2  0  0  0
 20 21  1  0  0  0
 20 56  1  0  0  0
 21 22  2  0  0  0
 21 36  1  0  0  0
 22 23  1  0  0  0
 23 24  1  0  0  0
 24 25  1  0  0  0
 24 57  1  0  0  0
 24 58  1  0  0  0
 25 26  2  0  0  0
 25 27  1  0  0  0
 27 28  1  0  0  0
 27 59  1  0  0  0
 28 29  1  0  0  0
 28 60  1  0  0  0
 28 61  1  0  0  0
 29 30  1  0  0  0
 29 62  1  0  0  0
 29 63  1  0  0  0
 30 35  1  0  0  0
 30 31  2  0  0  0
 31 32  1  0  0  0
 31 64  1  0  0  0
 32 33  1  0  0  0
 32 34  1  0  0  0
 34 35  2  0  0  0
 34 65  1  0  0  0
 35 76  1  0  0  0
 36 37  1  0  0  0
 36 66  1  0  0  0
 36 67  1  0  0  0
 37 38  1  0  0  0
 37 68  1  0  0  0
 37 69  1  0  0  0
 38 39  1  0  0  0
 39 70  1  0  0  0
 39 71  1  0  0  0
 39 72  1  0  0  0
 40 73  1  0  0  0
 40 74  1  0  0  0
 40 75  1  0  0  0
M  CHG  1  35   1
M  END
> <i_i_glide_confnum>
44

> <i_i_glide_lignum>
1251

> <i_i_glide_posenum>
308

> <i_i_glide_rotatable_bonds>
8

> <i_m_Source_File_Index>
5117

> <b_m_subgroup_collapsed>
0

> <r_i_docking_score>
-2.26184

> <r_i_glide_ecoul>
-4.46021

> <r_i_glide_eff_state_penalty>
0

> <r_i_glide_einternal>
7.91039

> <r_i_glide_emodel>
-24.3136

> <r_i_glide_energy>
-30.0496

> <r_i_glide_erotb>
0.524715

> <r_i_glide_esite>
-0.35615

> <r_i_glide_evdw>
-25.5894

> <r_i_glide_gscore>
-2.26184

> <r_i_glide_hbond>
-0.36

> <r_i_glide_ligand_efficiency>
-0.0646239

> <r_i_glide_ligand_efficiency_ln>
-0.496523

> <r_i_glide_ligand_efficiency_sa>
-0.211389

> <r_i_glide_lipo>
-2.31329

> <r_i_glide_metal>
0

> <r_i_glide_rewards>
2.19139

> <s_i_glide_gridfile>
wee1_glide-grid

> <s_m_Source_File>
wee1_decoys_glide_SP.sdf

> <s_m_Source_Path>
/Users/zhangxujun/Desktop

> <s_m_entry_id>
5392

> <s_m_entry_name>
wee1_decoys_glide_SP.5117

> <s_m_subgroup_title>
wee1_decoys_glide_SP

> <s_m_subgroupid>
wee1_decoys_glide_SP


$$$$
