ZINC39662479_378
                    3D
 Schrodinger Suite 2024-2.
 64 67  0  0  1  0            999 V2000
    6.9051   54.0298   28.2695 C   0  0  0  0  0  0
    5.4916   54.2030   28.3351 O   0  0  0  0  0  0
    4.7523   54.0972   27.1713 C   0  0  0  0  0  0
    5.3196   54.2409   25.9004 C   0  0  0  0  0  0
    4.5409   54.0969   24.7589 C   0  0  0  0  0  0
    3.1772   53.7792   24.8358 C   0  0  0  0  0  0
    2.6037   53.6967   26.1148 C   0  0  0  0  0  0
    3.3729   53.8546   27.2789 C   0  0  0  0  0  0
    2.7192   53.7554   28.6625 C   0  0  0  0  0  0
    3.2669   52.7558   29.3544 F   0  0  0  0  0  0
    2.9028   54.8927   29.3325 F   0  0  0  0  0  0
    1.4045   53.5325   28.5951 F   0  0  0  0  0  0
    2.4166   53.5653   23.5324 C   0  0  0  0  0  0
    2.8802   54.0900   22.5156 O   0  0  0  0  0  0
    1.3184   52.7612   23.4473 N   0  0  0  0  0  0
    0.7161   52.4823   22.1410 C   0  0  0  0  0  0
   -0.6961   51.9989   22.5014 C   0  0  2  0  0  0
   -1.2931   52.8927   22.6765 H   0  0  0  0  0  0
   -0.4802   51.1833   23.8018 C   0  0  0  0  0  0
    0.5872   52.0602   24.5159 C   0  0  0  0  0  0
   -1.8042   51.0109   24.5932 C   0  0  0  0  0  0
   -1.5777   50.3291   25.9513 C   0  0  0  0  0  0
   -0.9862   48.9303   25.6831 N   0  3  0  0  0  0
    0.3229   48.9539   24.8667 C   0  0  0  0  0  0
    0.0594   49.7300   23.5543 C   0  0  0  0  0  0
   -1.3704   51.2436   21.3307 C   0  0  0  0  0  0
   -2.5898   51.1039   21.3550 O   0  0  0  0  0  0
   -0.6206   50.7700   20.3213 N   0  0  0  0  0  0
   -1.1336   49.9987   19.1864 C   0  0  1  0  0  0
   -1.9809   49.3958   19.5239 H   0  0  0  0  0  0
   -1.6972   50.8983   18.1602 C   0  0  0  0  0  0
   -2.1416   51.6048   17.3579 N   0  0  0  0  0  0
   -0.1299   49.0055   18.5910 C   0  0  0  0  0  0
    1.1994   48.9316   19.0393 C   0  0  0  0  0  0
    2.0762   48.0084   18.4806 C   0  0  0  0  0  0
    1.6364   47.1502   17.4758 C   0  0  0  0  0  0
    0.3154   47.2028   17.0317 C   0  0  0  0  0  0
   -0.5637   48.1278   17.5892 C   0  0  0  0  0  0
    7.3197   54.0548   29.2794 H   0  0  0  0  0  0
    7.1660   53.0653   27.8302 H   0  0  0  0  0  0
    7.3854   54.8250   27.6970 H   0  0  0  0  0  0
    6.3676   54.4534   25.7727 H   0  0  0  0  0  0
    5.0325   54.1984   23.7990 H   0  0  0  0  0  0
    1.5452   53.5478   26.2326 H   0  0  0  0  0  0
    1.3160   51.6784   21.7082 H   0  0  0  0  0  0
    0.7047   53.3220   21.4480 H   0  0  0  0  0  0
    0.0287   52.8252   25.0548 H   0  0  0  0  0  0
    1.1938   51.5070   25.2336 H   0  0  0  0  0  0
   -2.2431   51.9894   24.7841 H   0  0  0  0  0  0
   -2.5502   50.4753   24.0066 H   0  0  0  0  0  0
   -0.8728   50.8506   26.5991 H   0  0  0  0  0  0
   -2.5031   50.1595   26.5060 H   0  0  0  0  0  0
   -0.8547   48.4932   26.5992 H   0  0  0  0  0  0
    1.0873   49.3949   25.5060 H   0  0  0  0  0  0
    0.5889   47.9092   24.6948 H   0  0  0  0  0  0
   -0.6233   49.1569   22.9272 H   0  0  0  0  0  0
    0.9953   49.7692   22.9942 H   0  0  0  0  0  0
    0.3325   51.0866   20.2391 H   0  0  0  0  0  0
    1.5788   49.5924   19.8047 H   0  0  0  0  0  0
    3.1095   47.9815   18.8022 H   0  0  0  0  0  0
    2.3301   46.4524   17.0309 H   0  0  0  0  0  0
   -0.0173   46.5362   16.2499 H   0  0  0  0  0  0
   -1.5834   48.1677   17.2338 H   0  0  0  0  0  0
   -1.6745   48.3668   25.2060 H   0  0  0  0  0  0
  1  2  1  0  0  0
  1 39  1  0  0  0
  1 40  1  0  0  0
  1 41  1  0  0  0
  2  3  1  0  0  0
  3  8  2  0  0  0
  3  4  1  0  0  0
  4  5  2  0  0  0
  4 42  1  0  0  0
  5  6  1  0  0  0
  5 43  1  0  0  0
  6  7  2  0  0  0
  6 13  1  0  0  0
  7  8  1  0  0  0
  7 44  1  0  0  0
  8  9  1  0  0  0
  9 10  1  0  0  0
  9 11  1  0  0  0
  9 12  1  0  0  0
 13 14  2  0  0  0
 13 15  1  0  0  0
 15 20  1  0  0  0
 15 16  1  0  0  0
 16 17  1  0  0  0
 16 45  1  0  0  0
 16 46  1  0  0  0
 17 18  1  0  0  0
 17 19  1  0  0  0
 17 26  1  0  0  0
 19 25  1  0  0  0
 19 20  1  0  0  0
 19 21  1  0  0  0
 20 47  1  0  0  0
 20 48  1  0  0  0
 21 22  1  0  0  0
 21 49  1  0  0  0
 21 50  1  0  0  0
 22 23  1  0  0  0
 22 51  1  0  0  0
 22 52  1  0  0  0
 23 24  1  0  0  0
 23 53  1  0  0  0
 23 64  1  0  0  0
 24 25  1  0  0  0
 24 54  1  0  0  0
 24 55  1  0  0  0
 25 56  1  0  0  0
 25 57  1  0  0  0
 26 27  2  0  0  0
 26 28  1  0  0  0
 28 29  1  0  0  0
 28 58  1  0  0  0
 29 30  1  0  0  0
 29 31  1  0  0  0
 29 33  1  0  0  0
 31 32  3  0  0  0
 33 38  2  0  0  0
 33 34  1  0  0  0
 34 35  2  0  0  0
 34 59  1  0  0  0
 35 36  1  0  0  0
 35 60  1  0  0  0
 36 37  2  0  0  0
 36 61  1  0  0  0
 37 38  1  0  0  0
 37 62  1  0  0  0
 38 63  1  0  0  0
M  CHG  1  23   1
M  END
> <i_i_glide_confnum>
32

> <i_i_glide_lignum>
379

> <i_i_glide_posenum>
179

> <i_i_glide_rotatable_bonds>
9

> <i_m_Source_File_Index>
3303

> <b_m_subgroup_collapsed>
0

> <r_i_docking_score>
-5.90048

> <r_i_glide_ecoul>
-5.23851

> <r_i_glide_eff_state_penalty>
0

> <r_i_glide_einternal>
5.2946

> <r_i_glide_emodel>
-63.4792

> <r_i_glide_energy>
-44.2418

> <r_i_glide_erotb>
0.406066

> <r_i_glide_esite>
-0.107607

> <r_i_glide_evdw>
-39.0033

> <r_i_glide_gscore>
-5.90048

> <r_i_glide_hbond>
-0.190861

> <r_i_glide_ligand_efficiency>
-0.163902

> <r_i_glide_ligand_efficiency_ln>
-1.28733

> <r_i_glide_ligand_efficiency_sa>
-0.541194

> <r_i_glide_lipo>
-1.91759

> <r_i_glide_metal>
0

> <r_i_glide_rewards>
-1.35455

> <s_i_glide_gridfile>
wee1_glide-grid

> <s_m_Source_File>
wee1_decoys_glide_SP.sdf

> <s_m_Source_Path>
/Users/zhangxujun/Desktop

> <s_m_entry_id>
3578

> <s_m_entry_name>
wee1_decoys_glide_SP.3303

> <s_m_subgroup_title>
wee1_decoys_glide_SP

> <s_m_subgroupid>
wee1_decoys_glide_SP


$$$$
