ZINC36027162_749
                    3D
 Schrodinger Suite 2024-2.
 60 63  0  0  1  0            999 V2000
   -2.0842   49.2054   19.3642 C   0  0  0  0  0  0
   -1.0457   48.6009   20.3061 C   0  0  2  0  0  0
   -0.9720   47.5200   20.1714 H   0  0  0  0  0  0
   -1.3817   48.8697   21.7834 C   0  0  0  0  0  0
   -2.4071   48.4796   22.3419 O   0  0  0  0  0  0
   -0.3427   49.5466   22.3311 N   0  0  0  0  0  0
    0.6739   49.9828   21.3669 C   0  0  0  0  0  0
    0.3968   49.0904   20.1636 N   0  3  0  0  0  0
    0.4795   51.4480   20.8770 C   0  0  0  0  0  0
    1.5292   51.9109   19.8308 C   0  0  0  0  0  0
    2.9076   51.5688   20.2566 N   0  0  0  0  0  0
    3.1431   50.1741   20.6758 C   0  0  0  0  0  0
    2.1542   49.7463   21.7772 C   0  0  0  0  0  0
    4.1790   52.8061   20.4511 S   0  0  0  0  0  0
    5.4891   52.1415   20.4817 O   0  0  0  0  0  0
    3.9050   53.9124   19.5284 O   0  0  0  0  0  0
    3.9494   53.4897   22.0953 C   0  0  0  0  0  0
    2.6746   53.8458   22.5332 C   0  0  0  0  0  0
    2.4794   54.3295   23.8247 C   0  0  0  0  0  0
    3.5699   54.4964   24.6773 C   0  0  0  0  0  0
    4.8637   54.1947   24.2359 C   0  0  0  0  0  0
    5.0456   53.6964   22.9386 C   0  0  0  0  0  0
    6.0523   54.4082   25.1679 C   0  0  0  0  0  0
    7.1044   53.6999   24.7723 F   0  0  0  0  0  0
    6.3922   55.6967   25.1673 F   0  0  0  0  0  0
    5.7514   54.0504   26.4174 F   0  0  0  0  0  0
   -0.2526   49.8305   23.7854 C   0  0  2  0  0  0
    0.6578   50.4114   23.9218 H   0  0  0  0  0  0
   -0.0149   48.5252   24.5865 C   0  0  0  0  0  0
   -1.3364   50.7670   24.3727 C   0  0  0  0  0  0
   -1.9094   51.7743   23.5823 C   0  0  0  0  0  0
   -2.8757   52.6297   24.1062 C   0  0  0  0  0  0
   -3.2863   52.4781   25.4270 C   0  0  0  0  0  0
   -2.7386   51.4782   26.2256 C   0  0  0  0  0  0
   -1.7704   50.6267   25.7005 C   0  0  0  0  0  0
   -3.0603   48.7434   19.5317 H   0  0  0  0  0  0
   -2.1801   50.2814   19.5135 H   0  0  0  0  0  0
   -1.7970   49.0234   18.3272 H   0  0  0  0  0  0
    1.0656   48.3364   20.0967 H   0  0  0  0  0  0
   -0.5231   51.6152   20.4861 H   0  0  0  0  0  0
    0.5475   52.0946   21.7493 H   0  0  0  0  0  0
    1.3619   51.4613   18.8516 H   0  0  0  0  0  0
    1.4696   52.9858   19.6706 H   0  0  0  0  0  0
    3.1047   49.5369   19.7911 H   0  0  0  0  0  0
    4.1583   50.1066   21.0475 H   0  0  0  0  0  0
    2.3915   50.3164   22.6761 H   0  0  0  0  0  0
    2.3269   48.7047   22.0546 H   0  0  0  0  0  0
    1.8315   53.7619   21.8692 H   0  0  0  0  0  0
    1.4863   54.5889   24.1583 H   0  0  0  0  0  0
    3.4087   54.8794   25.6745 H   0  0  0  0  0  0
    6.0396   53.4541   22.5891 H   0  0  0  0  0  0
    0.3877   48.7217   25.5813 H   0  0  0  0  0  0
   -0.9385   47.9563   24.7080 H   0  0  0  0  0  0
    0.7049   47.8790   24.0864 H   0  0  0  0  0  0
   -1.6179   51.9039   22.5531 H   0  0  0  0  0  0
   -3.3087   53.4053   23.4915 H   0  0  0  0  0  0
   -4.0395   53.1370   25.8339 H   0  0  0  0  0  0
   -3.0619   51.3543   27.2492 H   0  0  0  0  0  0
   -1.3695   49.8605   26.3497 H   0  0  0  0  0  0
    0.4826   49.6656   19.3368 H   0  0  0  0  0  0
  1  2  1  0  0  0
  1 36  1  0  0  0
  1 37  1  0  0  0
  1 38  1  0  0  0
  2  3  1  0  0  0
  2  8  1  0  0  0
  2  4  1  0  0  0
  4  5  2  0  0  0
  4  6  1  0  0  0
  6  7  1  0  0  0
  6 27  1  0  0  0
  7 13  1  0  0  0
  7  8  1  0  0  0
  7  9  1  0  0  0
  8 39  1  0  0  0
  8 60  1  0  0  0
  9 10  1  0  0  0
  9 40  1  0  0  0
  9 41  1  0  0  0
 10 11  1  0  0  0
 10 42  1  0  0  0
 10 43  1  0  0  0
 11 12  1  0  0  0
 11 14  1  0  0  0
 12 13  1  0  0  0
 12 44  1  0  0  0
 12 45  1  0  0  0
 13 46  1  0  0  0
 13 47  1  0  0  0
 14 15  2  0  0  0
 14 16  2  0  0  0
 14 17  1  0  0  0
 17 22  2  0  0  0
 17 18  1  0  0  0
 18 19  2  0  0  0
 18 48  1  0  0  0
 19 20  1  0  0  0
 19 49  1  0  0  0
 20 21  2  0  0  0
 20 50  1  0  0  0
 21 22  1  0  0  0
 21 23  1  0  0  0
 22 51  1  0  0  0
 23 24  1  0  0  0
 23 25  1  0  0  0
 23 26  1  0  0  0
 27 28  1  0  0  0
 27 29  1  0  0  0
 27 30  1  0  0  0
 29 52  1  0  0  0
 29 53  1  0  0  0
 29 54  1  0  0  0
 30 35  2  0  0  0
 30 31  1  0  0  0
 31 32  2  0  0  0
 31 55  1  0  0  0
 32 33  1  0  0  0
 32 56  1  0  0  0
 33 34  2  0  0  0
 33 57  1  0  0  0
 34 35  1  0  0  0
 34 58  1  0  0  0
 35 59  1  0  0  0
M  CHG  1   8   1
M  END
> <i_i_glide_confnum>
26

> <i_i_glide_lignum>
750

> <i_i_glide_posenum>
82

> <i_i_glide_rotatable_bonds>
5

> <i_m_Source_File_Index>
3229

> <b_m_subgroup_collapsed>
0

> <r_i_docking_score>
-4.02267

> <r_i_glide_ecoul>
-1.12891

> <r_i_glide_eff_state_penalty>
0

> <r_i_glide_einternal>
3.96291

> <r_i_glide_emodel>
-39.5984

> <r_i_glide_energy>
-33.6917

> <r_i_glide_erotb>
0.348632

> <r_i_glide_esite>
-0.136401

> <r_i_glide_evdw>
-32.5628

> <r_i_glide_gscore>
-4.02267

> <r_i_glide_hbond>
0

> <r_i_glide_ligand_efficiency>
-0.121899

> <r_i_glide_ligand_efficiency_ln>
-0.894622

> <r_i_glide_ligand_efficiency_sa>
-0.390996

> <r_i_glide_lipo>
-1.80776

> <r_i_glide_metal>
0

> <r_i_glide_rewards>
-0.629668

> <s_i_glide_gridfile>
wee1_glide-grid

> <s_m_Source_File>
wee1_decoys_glide_SP.sdf

> <s_m_Source_Path>
/Users/zhangxujun/Desktop

> <s_m_entry_id>
3504

> <s_m_entry_name>
wee1_decoys_glide_SP.3229

> <s_m_subgroup_title>
wee1_decoys_glide_SP

> <s_m_subgroupid>
wee1_decoys_glide_SP


$$$$
