ZINC32284734_2114
                    3D
 Schrodinger Suite 2024-2.
 59 62  0  0  1  0            999 V2000
   -3.8542   45.8887   26.3774 C   0  0  0  0  0  0
   -3.3289   47.2156   25.8543 C   0  0  0  0  0  0
   -3.6961   48.4094   26.4814 C   0  0  0  0  0  0
   -3.1856   49.6336   26.0382 C   0  0  0  0  0  0
   -2.3162   49.6643   24.9443 C   0  0  0  0  0  0
   -1.9557   48.4755   24.3073 C   0  0  0  0  0  0
   -2.4565   47.2546   24.7618 C   0  0  0  0  0  0
   -2.0945   46.1091   24.1358 F   0  0  0  0  0  0
   -3.6237   51.1334   26.9186 S   0  0  0  0  0  0
   -4.9811   50.9408   27.4381 O   0  0  0  0  0  0
   -3.3110   52.2894   26.0692 O   0  0  0  0  0  0
   -2.5674   51.1875   28.3464 N   0  0  0  0  0  0
   -1.2604   51.6967   28.3876 C   0  0  0  0  0  0
   -0.5325   52.0268   27.2431 C   0  0  0  0  0  0
    0.7278   52.6012   27.3532 C   0  0  0  0  0  0
    1.2899   52.8641   28.6143 C   0  0  0  0  0  0
    0.5684   52.4979   29.7584 C   0  0  0  0  0  0
   -0.6875   51.9095   29.6432 C   0  0  0  0  0  0
    2.6382   53.5412   28.7612 C   0  0  0  0  0  0
    3.0473   53.9132   29.8647 O   0  0  0  0  0  0
    3.3498   53.6932   27.6280 N   0  0  0  0  0  0
    4.6805   54.2919   27.4872 C   0  0  1  0  0  0
    4.6177   55.2844   27.9391 H   0  0  0  0  0  0
    5.7581   53.4788   28.2395 C   0  0  0  0  0  0
    5.1049   54.5170   26.0259 C   0  0  0  0  0  0
    6.2312   55.2970   25.7677 C   0  0  0  0  0  0
    6.7046   55.4499   24.4683 C   0  0  0  0  0  0
    6.0942   54.8075   23.3935 C   0  0  0  0  0  0
    4.9256   54.0594   23.6299 C   0  0  0  0  0  0
    4.4312   53.9491   24.9343 C   0  0  0  0  0  0
    4.2931   53.3400   22.6430 O   0  0  0  0  0  0
    3.8021   54.0553   21.5229 C   0  0  0  0  0  0
    4.8989   54.4121   20.5153 C   0  0  0  0  0  0
    5.9512   55.3866   21.0552 C   0  0  0  0  0  0
    6.7024   54.8966   22.1595 O   0  0  0  0  0  0
   -4.3793   45.3503   25.5869 H   0  0  0  0  0  0
   -3.0256   45.2664   26.7180 H   0  0  0  0  0  0
   -4.5438   46.0192   27.2120 H   0  0  0  0  0  0
   -4.3485   48.3855   27.3435 H   0  0  0  0  0  0
   -1.9158   50.6013   24.5881 H   0  0  0  0  0  0
   -1.2802   48.4971   23.4653 H   0  0  0  0  0  0
   -2.8811   50.6653   29.1521 H   0  0  0  0  0  0
   -0.9312   51.8576   26.2561 H   0  0  0  0  0  0
    1.2397   52.8538   26.4358 H   0  0  0  0  0  0
    0.9683   52.6718   30.7492 H   0  0  0  0  0  0
   -1.2250   51.6410   30.5442 H   0  0  0  0  0  0
    2.8871   53.4634   26.7640 H   0  0  0  0  0  0
    6.7243   53.9857   28.2399 H   0  0  0  0  0  0
    5.4902   53.3160   29.2813 H   0  0  0  0  0  0
    5.8961   52.4971   27.7843 H   0  0  0  0  0  0
    6.7529   55.7717   26.5850 H   0  0  0  0  0  0
    7.5859   56.0446   24.2900 H   0  0  0  0  0  0
    3.5624   53.3286   25.0830 H   0  0  0  0  0  0
    3.0725   53.4119   21.0326 H   0  0  0  0  0  0
    3.2365   54.9312   21.8437 H   0  0  0  0  0  0
    5.3890   53.4987   20.1776 H   0  0  0  0  0  0
    4.4333   54.8478   19.6298 H   0  0  0  0  0  0
    6.6698   55.5932   20.2612 H   0  0  0  0  0  0
    5.5047   56.3539   21.2817 H   0  0  0  0  0  0
  1  2  1  0  0  0
  1 36  1  0  0  0
  1 37  1  0  0  0
  1 38  1  0  0  0
  2  7  2  0  0  0
  2  3  1  0  0  0
  3  4  2  0  0  0
  3 39  1  0  0  0
  4  5  1  0  0  0
  4  9  1  0  0  0
  5  6  2  0  0  0
  5 40  1  0  0  0
  6  7  1  0  0  0
  6 41  1  0  0  0
  7  8  1  0  0  0
  9 10  2  0  0  0
  9 11  2  0  0  0
  9 12  1  0  0  0
 12 13  1  0  0  0
 12 42  1  0  0  0
 13 18  2  0  0  0
 13 14  1  0  0  0
 14 15  2  0  0  0
 14 43  1  0  0  0
 15 16  1  0  0  0
 15 44  1  0  0  0
 16 17  2  0  0  0
 16 19  1  0  0  0
 17 18  1  0  0  0
 17 45  1  0  0  0
 18 46  1  0  0  0
 19 20  2  0  0  0
 19 21  1  0  0  0
 21 22  1  0  0  0
 21 47  1  0  0  0
 22 23  1  0  0  0
 22 24  1  0  0  0
 22 25  1  0  0  0
 24 48  1  0  0  0
 24 49  1  0  0  0
 24 50  1  0  0  0
 25 30  2  0  0  0
 25 26  1  0  0  0
 26 27  2  0  0  0
 26 51  1  0  0  0
 27 28  1  0  0  0
 27 52  1  0  0  0
 28 35  1  0  0  0
 28 29  2  0  0  0
 29 30  1  0  0  0
 29 31  1  0  0  0
 30 53  1  0  0  0
 31 32  1  0  0  0
 32 33  1  0  0  0
 32 54  1  0  0  0
 32 55  1  0  0  0
 33 34  1  0  0  0
 33 56  1  0  0  0
 33 57  1  0  0  0
 34 35  1  0  0  0
 34 58  1  0  0  0
 34 59  1  0  0  0
M  END
> <i_i_glide_confnum>
111

> <i_i_glide_lignum>
2115

> <i_i_glide_posenum>
191

> <i_i_glide_rotatable_bonds>
7

> <i_m_Source_File_Index>
4144

> <b_m_subgroup_collapsed>
0

> <r_i_docking_score>
-6.02677

> <r_i_glide_ecoul>
-5.58122

> <r_i_glide_eff_state_penalty>
0

> <r_i_glide_einternal>
3.48029

> <r_i_glide_emodel>
-66.1419

> <r_i_glide_energy>
-49.0681

> <r_i_glide_erotb>
0.519006

> <r_i_glide_esite>
-0.231243

> <r_i_glide_evdw>
-43.4868

> <r_i_glide_gscore>
-6.02677

> <r_i_glide_hbond>
-0.32

> <r_i_glide_ligand_efficiency>
-0.177258

> <r_i_glide_ligand_efficiency_ln>
-1.33148

> <r_i_glide_ligand_efficiency_sa>
-0.574247

> <r_i_glide_lipo>
-2.66655

> <r_i_glide_metal>
0

> <r_i_glide_rewards>
-0.316459

> <s_i_glide_gridfile>
wee1_glide-grid

> <s_m_Source_File>
wee1_decoys_glide_SP.sdf

> <s_m_Source_Path>
/Users/zhangxujun/Desktop

> <s_m_entry_id>
4419

> <s_m_entry_name>
wee1_decoys_glide_SP.4144

> <s_m_subgroup_title>
wee1_decoys_glide_SP

> <s_m_subgroupid>
wee1_decoys_glide_SP


$$$$
