ZINC26553641_4384
                    3D
 Schrodinger Suite 2024-2.
 59 62  0  0  1  0            999 V2000
    0.6195   54.8292   30.2868 C   0  0  0  0  0  0
    1.6185   54.1292   29.3750 C   0  0  0  0  0  0
    2.9658   54.5238   29.4244 C   0  0  0  0  0  0
    3.9177   53.9518   28.5815 C   0  0  0  0  0  0
    3.5330   52.8718   27.8020 C   0  0  0  0  0  0
    2.2068   52.4957   27.6893 C   0  0  0  0  0  0
    1.2411   53.1386   28.4467 C   0  0  0  0  0  0
   -0.0679   52.7699   28.1519 N   0  0  0  0  0  0
   -0.8367   51.9797   28.9168 C   0  0  0  0  0  0
   -0.5499   51.6966   30.0799 O   0  0  0  0  0  0
   -2.1280   51.5035   28.2783 C   0  0  0  0  0  0
   -3.1027   50.8948   29.0792 C   0  0  0  0  0  0
   -4.3068   50.4509   28.5387 C   0  0  0  0  0  0
   -4.5732   50.6380   27.1866 C   0  0  0  0  0  0
   -3.6399   51.2839   26.3739 C   0  0  0  0  0  0
   -2.4153   51.6943   26.9113 C   0  0  0  0  0  0
   -4.0244   51.5808   24.6521 S   0  0  0  0  0  0
   -3.0790   52.5807   24.1455 O   0  0  0  0  0  0
   -4.1505   50.2719   24.0063 O   0  0  0  0  0  0
   -5.7286   52.3719   24.7037 C   0  0  0  0  0  0
    5.2274   54.4658   28.4840 N   0  0  0  0  0  0
    6.0503   54.4620   27.3993 C   0  0  0  0  0  0
    7.2652   54.4970   27.5528 O   0  0  0  0  0  0
    5.5233   54.4249   26.0412 C   0  0  0  0  0  0
    6.2311   54.0984   24.8863 C   0  0  0  0  0  0
    5.4313   53.9961   23.7398 C   0  0  0  0  0  0
    4.0972   54.3086   24.0002 C   0  0  0  0  0  0
    3.9048   54.8965   25.6066 S   0  0  0  0  0  0
    2.9384   54.0886   23.0377 C   0  0  0  0  0  0
    3.5166   53.9221   21.6198 C   0  0  0  0  0  0
    4.6806   52.9104   21.5911 C   0  0  2  0  0  0
    4.3694   51.9648   22.0378 H   0  0  0  0  0  0
    5.8888   53.4602   22.3945 C   0  0  0  0  0  0
    5.0957   52.5857   20.1438 C   0  0  0  0  0  0
    0.8234   54.5806   31.3265 H   0  0  0  0  0  0
    0.7105   55.9094   30.1837 H   0  0  0  0  0  0
   -0.4132   54.5581   30.0820 H   0  0  0  0  0  0
    3.2668   55.3069   30.0845 H   0  0  0  0  0  0
    4.2687   52.3968   27.1827 H   0  0  0  0  0  0
    1.9295   51.7155   26.9950 H   0  0  0  0  0  0
   -0.3540   52.9050   27.1964 H   0  0  0  0  0  0
   -2.9127   50.7068   30.1288 H   0  0  0  0  0  0
   -5.0242   49.9479   29.1698 H   0  0  0  0  0  0
   -5.5056   50.2797   26.7773 H   0  0  0  0  0  0
   -1.7040   52.1658   26.2502 H   0  0  0  0  0  0
   -6.0523   52.5527   23.6821 H   0  0  0  0  0  0
   -6.4252   51.6886   25.1815 H   0  0  0  0  0  0
   -5.6663   53.3078   25.2536 H   0  0  0  0  0  0
    5.6663   54.7347   29.3524 H   0  0  0  0  0  0
    7.2810   53.8424   24.8819 H   0  0  0  0  0  0
    2.2101   54.8966   23.0698 H   0  0  0  0  0  0
    2.4006   53.1822   23.3186 H   0  0  0  0  0  0
    3.8291   54.8740   21.1907 H   0  0  0  0  0  0
    2.7192   53.5747   20.9611 H   0  0  0  0  0  0
    6.6127   52.6654   22.5616 H   0  0  0  0  0  0
    6.3909   54.2595   21.8489 H   0  0  0  0  0  0
    5.4471   53.4734   19.6172 H   0  0  0  0  0  0
    4.2604   52.1773   19.5735 H   0  0  0  0  0  0
    5.8923   51.8431   20.1068 H   0  0  0  0  0  0
  1  2  1  0  0  0
  1 35  1  0  0  0
  1 36  1  0  0  0
  1 37  1  0  0  0
  2  7  2  0  0  0
  2  3  1  0  0  0
  3  4  2  0  0  0
  3 38  1  0  0  0
  4  5  1  0  0  0
  4 21  1  0  0  0
  5  6  2  0  0  0
  5 39  1  0  0  0
  6  7  1  0  0  0
  6 40  1  0  0  0
  7  8  1  0  0  0
  8  9  1  0  0  0
  8 41  1  0  0  0
  9 10  2  0  0  0
  9 11  1  0  0  0
 11 16  2  0  0  0
 11 12  1  0  0  0
 12 13  2  0  0  0
 12 42  1  0  0  0
 13 14  1  0  0  0
 13 43  1  0  0  0
 14 15  2  0  0  0
 14 44  1  0  0  0
 15 16  1  0  0  0
 15 17  1  0  0  0
 16 45  1  0  0  0
 17 18  2  0  0  0
 17 19  2  0  0  0
 17 20  1  0  0  0
 20 46  1  0  0  0
 20 47  1  0  0  0
 20 48  1  0  0  0
 21 22  1  0  0  0
 21 49  1  0  0  0
 22 23  2  0  0  0
 22 24  1  0  0  0
 24 28  1  0  0  0
 24 25  2  0  0  0
 25 26  1  0  0  0
 25 50  1  0  0  0
 26 33  1  0  0  0
 26 27  2  0  0  0
 27 28  1  0  0  0
 27 29  1  0  0  0
 29 30  1  0  0  0
 29 51  1  0  0  0
 29 52  1  0  0  0
 30 31  1  0  0  0
 30 53  1  0  0  0
 30 54  1  0  0  0
 31 32  1  0  0  0
 31 33  1  0  0  0
 31 34  1  0  0  0
 33 55  1  0  0  0
 33 56  1  0  0  0
 34 57  1  0  0  0
 34 58  1  0  0  0
 34 59  1  0  0  0
M  END
> <i_i_glide_confnum>
84

> <i_i_glide_lignum>
4385

> <i_i_glide_posenum>
166

> <i_i_glide_rotatable_bonds>
7

> <i_m_Source_File_Index>
2817

> <b_m_subgroup_collapsed>
0

> <r_i_docking_score>
-3.54751

> <r_i_glide_ecoul>
-2.11415

> <r_i_glide_eff_state_penalty>
0

> <r_i_glide_einternal>
12.7434

> <r_i_glide_emodel>
-37.3686

> <r_i_glide_energy>
-41.9841

> <r_i_glide_erotb>
0.522795

> <r_i_glide_esite>
-0.0464796

> <r_i_glide_evdw>
-39.87

> <r_i_glide_gscore>
-3.54751

> <r_i_glide_hbond>
-0.151551

> <r_i_glide_ligand_efficiency>
-0.1075

> <r_i_glide_ligand_efficiency_ln>
-0.788947

> <r_i_glide_ligand_efficiency_sa>
-0.344811

> <r_i_glide_lipo>
-3.14589

> <r_i_glide_metal>
0

> <r_i_glide_rewards>
1.58424

> <s_i_glide_gridfile>
wee1_glide-grid

> <s_m_Source_File>
wee1_decoys_glide_SP.sdf

> <s_m_Source_Path>
/Users/zhangxujun/Desktop

> <s_m_entry_id>
3092

> <s_m_entry_name>
wee1_decoys_glide_SP.2817

> <s_m_subgroup_title>
wee1_decoys_glide_SP

> <s_m_subgroupid>
wee1_decoys_glide_SP


$$$$
