ZINC09242496_3634
                    3D
 Schrodinger Suite 2024-2.
 48 51  0  0  1  0            999 V2000
   -5.6475   51.4733   28.5888 C   0  0  0  0  0  0
   -4.5826   50.3946   28.3440 C   0  0  0  0  0  0
   -3.1768   50.9443   28.0542 C   0  0  0  0  0  0
   -3.1777   51.6958   26.8448 O   0  0  0  0  0  0
   -1.9813   51.9386   26.1961 C   0  0  0  0  0  0
   -0.7066   51.6591   26.7172 C   0  0  0  0  0  0
    0.4369   51.9293   25.9631 C   0  0  0  0  0  0
    0.3261   52.4970   24.6929 C   0  0  0  0  0  0
   -0.9448   52.7809   24.1824 C   0  0  0  0  0  0
   -2.0848   52.4993   24.9270 C   0  0  0  0  0  0
    1.5084   52.7288   23.8081 C   0  0  0  0  0  0
    2.7468   53.4023   23.8801 C   0  0  0  0  0  0
    3.3034   53.1629   22.5983 C   0  0  0  0  0  0
    2.5552   52.4569   21.7971 N   0  0  0  0  0  0
    1.4840   52.2033   22.5377 N   0  0  0  0  0  0
    0.7213   51.6480   22.1781 H   0  0  0  0  0  0
    4.5302   53.5846   22.1498 O   0  0  0  0  0  0
    5.3100   54.1844   23.0803 C   0  0  0  0  0  0
    4.9563   54.4969   24.3450 C   0  0  0  0  0  0
    3.5479   54.2338   24.9164 C   0  0  2  0  0  0
    3.1041   55.2289   24.9211 H   0  0  0  0  0  0
    3.4944   53.8379   26.4049 C   0  0  0  0  0  0
    4.6109   53.2967   27.0566 C   0  0  0  0  0  0
    4.5523   52.9405   28.3972 C   0  0  0  0  0  0
    3.3663   53.1118   29.0962 C   0  0  0  0  0  0
    2.2591   53.6947   28.4883 C   0  0  0  0  0  0
    2.3354   54.0689   27.1497 C   0  0  0  0  0  0
    3.2594   52.4917   30.8817 Br  0  0  0  0  0  0
    5.9041   55.1874   25.1538 C   0  0  0  0  0  0
    6.7044   55.6967   25.8090 N   0  0  0  0  0  0
    6.4996   54.4968   22.4814 N   0  0  0  0  0  0
   -6.6228   51.0220   28.7724 H   0  0  0  0  0  0
   -5.3966   52.0822   29.4571 H   0  0  0  0  0  0
   -5.7449   52.1366   27.7285 H   0  0  0  0  0  0
   -4.8926   49.7585   27.5145 H   0  0  0  0  0  0
   -4.5288   49.7405   29.2155 H   0  0  0  0  0  0
   -2.5060   50.0969   27.9544 H   0  0  0  0  0  0
   -2.8150   51.5558   28.8822 H   0  0  0  0  0  0
   -0.5866   51.2163   27.6949 H   0  0  0  0  0  0
    1.4092   51.6842   26.3633 H   0  0  0  0  0  0
   -1.0589   53.2114   23.2008 H   0  0  0  0  0  0
   -3.0608   52.7164   24.5187 H   0  0  0  0  0  0
    5.5262   53.0916   26.5226 H   0  0  0  0  0  0
    5.4112   52.4934   28.8748 H   0  0  0  0  0  0
    1.3412   53.8332   29.0405 H   0  0  0  0  0  0
    1.4728   54.4967   26.6728 H   0  0  0  0  0  0
    7.2741   54.8676   23.0158 H   0  0  0  0  0  0
    6.5580   54.5464   21.4748 H   0  0  0  0  0  0
  1  2  1  0  0  0
  1 32  1  0  0  0
  1 33  1  0  0  0
  1 34  1  0  0  0
  2  3  1  0  0  0
  2 35  1  0  0  0
  2 36  1  0  0  0
  3  4  1  0  0  0
  3 37  1  0  0  0
  3 38  1  0  0  0
  4  5  1  0  0  0
  5 10  2  0  0  0
  5  6  1  0  0  0
  6  7  2  0  0  0
  6 39  1  0  0  0
  7  8  1  0  0  0
  7 40  1  0  0  0
  8  9  2  0  0  0
  8 11  1  0  0  0
  9 10  1  0  0  0
  9 41  1  0  0  0
 10 42  1  0  0  0
 11 15  1  0  0  0
 11 12  2  0  0  0
 12 20  1  0  0  0
 12 13  1  0  0  0
 13 14  2  0  0  0
 13 17  1  0  0  0
 14 15  1  0  0  0
 15 16  1  0  0  0
 17 18  1  0  0  0
 18 19  2  0  0  0
 18 31  1  0  0  0
 19 20  1  0  0  0
 19 29  1  0  0  0
 20 21  1  0  0  0
 20 22  1  0  0  0
 22 27  2  0  0  0
 22 23  1  0  0  0
 23 24  2  0  0  0
 23 43  1  0  0  0
 24 25  1  0  0  0
 24 44  1  0  0  0
 25 26  2  0  0  0
 25 28  1  0  0  0
 26 27  1  0  0  0
 26 45  1  0  0  0
 27 46  1  0  0  0
 29 30  3  0  0  0
 31 47  1  0  0  0
 31 48  1  0  0  0
M  END
> <i_i_glide_confnum>
22

> <i_i_glide_lignum>
3635

> <i_i_glide_posenum>
275

> <i_i_glide_rotatable_bonds>
6

> <i_m_Source_File_Index>
1543

> <b_m_subgroup_collapsed>
0

> <r_i_docking_score>
-5.96261

> <r_i_glide_ecoul>
-4.57264

> <r_i_glide_eff_state_penalty>
0

> <r_i_glide_einternal>
11.3786

> <r_i_glide_emodel>
-49.9048

> <r_i_glide_energy>
-42.9581

> <r_i_glide_erotb>
0.393863

> <r_i_glide_esite>
0

> <r_i_glide_evdw>
-38.3854

> <r_i_glide_gscore>
-5.96261

> <r_i_glide_hbond>
-0.32

> <r_i_glide_ligand_efficiency>
-0.205607

> <r_i_glide_ligand_efficiency_ln>
-1.36529

> <r_i_glide_ligand_efficiency_sa>
-0.631691

> <r_i_glide_lipo>
-2.54308

> <r_i_glide_metal>
0

> <r_i_glide_rewards>
-0.888233

> <s_i_glide_gridfile>
wee1_glide-grid

> <s_m_Source_File>
wee1_decoys_glide_SP.sdf

> <s_m_Source_Path>
/Users/zhangxujun/Desktop

> <s_m_entry_id>
1818

> <s_m_entry_name>
wee1_decoys_glide_SP.1543

> <s_m_subgroup_title>
wee1_decoys_glide_SP

> <s_m_subgroupid>
wee1_decoys_glide_SP


$$$$
