ZINC39658711_336
                    3D
 Schrodinger Suite 2024-2.
 76 79  0  0  1  0            999 V2000
    6.2668   54.3043   26.6155 C   0  0  0  0  0  0
    5.3529   54.6358   25.4148 C   0  0  0  0  0  0
    6.1008   54.3589   24.0951 C   0  0  0  0  0  0
    3.9587   53.9366   25.5821 C   0  0  2  0  0  0
    4.1306   52.8988   25.8423 H   0  0  0  0  0  0
    3.0345   54.0221   24.3347 C   0  0  0  0  0  0
    2.4268   55.0494   24.0812 O   0  0  0  0  0  0
    2.8750   52.9582   23.5383 N   0  0  0  0  0  0
    1.7066   52.0991   23.6342 C   0  0  0  0  0  0
    1.9219   51.0872   22.4959 C   0  0  2  0  0  0
    2.4873   50.2437   22.8915 H   0  0  0  0  0  0
    2.7655   51.8492   21.4147 C   0  0  0  0  0  0
    3.5628   52.8890   22.2562 C   0  0  0  0  0  0
    3.7750   50.9989   20.6073 C   0  0  0  0  0  0
    3.0794   49.9538   19.7394 C   0  0  0  0  0  0
    2.3065   50.7205   18.6504 N   0  3  0  0  0  0
    1.3101   51.7703   19.2031 C   0  0  0  0  0  0
    1.9586   52.6286   20.3269 C   0  0  0  0  0  0
    0.5130   50.5935   22.0932 C   0  0  0  0  0  0
   -0.4172   51.3820   21.9148 O   0  0  0  0  0  0
    0.3538   49.2678   22.0174 N   0  0  0  0  0  0
   -0.8914   48.5912   21.6479 C   0  0  0  0  0  0
   -1.9454   48.5526   22.7683 C   0  0  0  0  0  0
   -1.4392   47.7668   24.3292 S   0  0  0  0  0  0
   -2.7319   48.3326   25.4875 C   0  0  0  0  0  0
   -2.8555   49.8509   25.5456 C   0  0  0  0  0  0
   -3.9964   50.4825   25.0346 C   0  0  0  0  0  0
   -4.1099   51.8678   25.1067 C   0  0  0  0  0  0
   -3.0898   52.6133   25.6985 C   0  0  0  0  0  0
   -1.9445   51.9951   26.1906 C   0  0  0  0  0  0
   -1.8250   50.6116   26.1075 C   0  0  0  0  0  0
    3.3688   54.6457   26.6874 O   0  0  0  0  0  0
    2.4365   54.0725   27.5369 C   0  0  0  0  0  0
    1.9667   54.8961   28.5640 C   0  0  0  0  0  0
    1.0564   54.4090   29.5018 C   0  0  0  0  0  0
    0.6057   53.0957   29.4004 C   0  0  0  0  0  0
    1.0547   52.2646   28.3772 C   0  0  0  0  0  0
    1.9654   52.7564   27.4432 C   0  0  0  0  0  0
    6.4228   53.2282   26.7078 H   0  0  0  0  0  0
    7.2531   54.7556   26.5242 H   0  0  0  0  0  0
    5.8344   54.6630   27.5535 H   0  0  0  0  0  0
    5.1871   55.7127   25.4433 H   0  0  0  0  0  0
    6.2598   53.2968   23.9405 H   0  0  0  0  0  0
    5.5549   54.7514   23.2384 H   0  0  0  0  0  0
    7.0831   54.8391   24.0861 H   0  0  0  0  0  0
    1.5621   51.6538   24.6185 H   0  0  0  0  0  0
    0.8667   52.7660   23.4359 H   0  0  0  0  0  0
    3.6234   53.8316   21.7102 H   0  0  0  0  0  0
    4.5600   52.4933   22.4586 H   0  0  0  0  0  0
    4.4204   51.6285   19.9954 H   0  0  0  0  0  0
    4.4557   50.5023   21.2812 H   0  0  0  0  0  0
    3.7597   49.2985   19.2046 H   0  0  0  0  0  0
    2.3767   49.3306   20.2782 H   0  0  0  0  0  0
    2.9961   51.1719   18.0705 H   0  0  0  0  0  0
    1.0083   52.3805   18.3514 H   0  0  0  0  0  0
    0.4373   51.2004   19.5144 H   0  0  0  0  0  0
    1.2285   53.2909   20.8031 H   0  0  0  0  0  0
    2.6328   53.3052   19.8037 H   0  0  0  0  0  0
    1.1238   48.6858   22.3011 H   0  0  0  0  0  0
   -1.3288   48.9653   20.7185 H   0  0  0  0  0  0
   -0.6301   47.5664   21.3983 H   0  0  0  0  0  0
   -2.0460   49.5930   23.0789 H   0  0  0  0  0  0
   -2.9503   48.3116   22.4161 H   0  0  0  0  0  0
   -3.6888   47.8798   25.2146 H   0  0  0  0  0  0
   -2.4884   47.9551   26.4817 H   0  0  0  0  0  0
   -4.7973   49.9040   24.5934 H   0  0  0  0  0  0
   -4.9870   52.3584   24.7105 H   0  0  0  0  0  0
   -3.1869   53.6852   25.7739 H   0  0  0  0  0  0
   -1.1560   52.5802   26.6401 H   0  0  0  0  0  0
   -0.9426   50.1256   26.5002 H   0  0  0  0  0  0
    2.3204   55.9133   28.6389 H   0  0  0  0  0  0
    0.6962   55.0505   30.2939 H   0  0  0  0  0  0
   -0.0987   52.7131   30.1243 H   0  0  0  0  0  0
    0.7017   51.2459   28.3154 H   0  0  0  0  0  0
    2.2997   52.0993   26.6668 H   0  0  0  0  0  0
    1.8337   50.0674   18.0421 H   0  0  0  0  0  0
  1  2  1  0  0  0
  1 39  1  0  0  0
  1 40  1  0  0  0
  1 41  1  0  0  0
  2  3  1  0  0  0
  2  4  1  0  0  0
  2 42  1  0  0  0
  3 43  1  0  0  0
  3 44  1  0  0  0
  3 45  1  0  0  0
  4  5  1  0  0  0
  4  6  1  0  0  0
  4 32  1  0  0  0
  6  7  2  0  0  0
  6  8  1  0  0  0
  8 13  1  0  0  0
  8  9  1  0  0  0
  9 10  1  0  0  0
  9 46  1  0  0  0
  9 47  1  0  0  0
 10 11  1  0  0  0
 10 12  1  0  0  0
 10 19  1  0  0  0
 12 18  1  0  0  0
 12 13  1  0  0  0
 12 14  1  0  0  0
 13 48  1  0  0  0
 13 49  1  0  0  0
 14 15  1  0  0  0
 14 50  1  0  0  0
 14 51  1  0  0  0
 15 16  1  0  0  0
 15 52  1  0  0  0
 15 53  1  0  0  0
 16 17  1  0  0  0
 16 54  1  0  0  0
 16 76  1  0  0  0
 17 18  1  0  0  0
 17 55  1  0  0  0
 17 56  1  0  0  0
 18 57  1  0  0  0
 18 58  1  0  0  0
 19 20  2  0  0  0
 19 21  1  0  0  0
 21 22  1  0  0  0
 21 59  1  0  0  0
 22 23  1  0  0  0
 22 60  1  0  0  0
 22 61  1  0  0  0
 23 24  1  0  0  0
 23 62  1  0  0  0
 23 63  1  0  0  0
 24 25  1  0  0  0
 25 26  1  0  0  0
 25 64  1  0  0  0
 25 65  1  0  0  0
 26 31  2  0  0  0
 26 27  1  0  0  0
 27 28  2  0  0  0
 27 66  1  0  0  0
 28 29  1  0  0  0
 28 67  1  0  0  0
 29 30  2  0  0  0
 29 68  1  0  0  0
 30 31  1  0  0  0
 30 69  1  0  0  0
 31 70  1  0  0  0
 32 33  1  0  0  0
 33 38  2  0  0  0
 33 34  1  0  0  0
 34 35  2  0  0  0
 34 71  1  0  0  0
 35 36  1  0  0  0
 35 72  1  0  0  0
 36 37  2  0  0  0
 36 73  1  0  0  0
 37 38  1  0  0  0
 37 74  1  0  0  0
 38 75  1  0  0  0
M  CHG  1  16   1
M  END
> <i_i_glide_confnum>
525

> <i_i_glide_lignum>
337

> <i_i_glide_posenum>
57

> <i_i_glide_rotatable_bonds>
12

> <i_m_Source_File_Index>
5041

> <b_m_subgroup_collapsed>
0

> <r_i_docking_score>
0.5985

> <r_i_glide_ecoul>
-4.53824

> <r_i_glide_eff_state_penalty>
0

> <r_i_glide_einternal>
22.8227

> <r_i_glide_emodel>
-10.4287

> <r_i_glide_energy>
-38.812

> <r_i_glide_erotb>
0.706962

> <r_i_glide_esite>
-0.0924694

> <r_i_glide_evdw>
-34.2737

> <r_i_glide_gscore>
0.5985

> <r_i_glide_hbond>
0

> <r_i_glide_ligand_efficiency>
0.016625

> <r_i_glide_ligand_efficiency_ln>
0.130577

> <r_i_glide_ligand_efficiency_sa>
0.0548945

> <r_i_glide_lipo>
-2.81463

> <r_i_glide_metal>
0

> <r_i_glide_rewards>
5.19306

> <s_i_glide_gridfile>
wee1_glide-grid

> <s_m_Source_File>
wee1_decoys_glide_SP.sdf

> <s_m_Source_Path>
/Users/zhangxujun/Desktop

> <s_m_entry_id>
5316

> <s_m_entry_name>
wee1_decoys_glide_SP.5041

> <s_m_subgroup_title>
wee1_decoys_glide_SP

> <s_m_subgroupid>
wee1_decoys_glide_SP


$$$$
