ZINC04553415_3840
                    3D
 Schrodinger Suite 2024-2.
 48 51  0  0  1  0            999 V2000
    1.9846   52.3662   31.1773 C   0  0  0  0  0  0
    3.2690   52.8679   30.4896 C   0  0  0  0  0  0
    3.1483   53.8677   29.2872 C   0  0  0  0  0  0
    2.2847   55.1069   29.6561 C   0  0  0  0  0  0
    4.5979   54.3937   29.0666 C   0  0  0  0  0  0
    2.5854   53.1547   27.9808 C   0  0  1  0  0  0
    2.9312   52.1189   28.0169 H   0  0  0  0  0  0
    1.0296   53.0863   27.9288 C   0  0  0  0  0  0
    0.5106   52.1512   26.8208 C   0  0  0  0  0  0
    1.1279   52.5866   25.4954 C   0  0  0  0  0  0
    2.3041   53.3524   25.4543 C   0  0  0  0  0  0
    2.7465   53.8158   23.8431 S   0  0  0  0  0  0
    1.3923   52.9599   23.2136 C   0  0  0  0  0  0
    0.6072   52.3634   24.2047 C   0  0  0  0  0  0
   -0.5765   51.6496   23.7394 C   0  0  0  0  0  0
   -0.8846   51.4430   22.5267 N   0  0  0  0  0  0
    0.0195   51.9559   21.4842 C   0  0  1  0  0  0
   -0.6233   52.5205   20.8103 H   0  0  0  0  0  0
    1.1053   52.8949   21.8648 N   0  0  0  0  0  0
    0.5441   50.7838   20.6620 C   0  0  0  0  0  0
    0.2856   49.4140   20.6426 C   0  0  0  0  0  0
    1.1517   48.8382   19.7129 C   0  0  0  0  0  0
    1.9141   49.8756   19.2140 C   0  0  0  0  0  0
    1.5685   51.0452   19.8046 O   0  0  0  0  0  0
   -1.4773   51.1137   24.6172 O   0  0  0  0  0  0
    3.0972   53.8211   26.6654 C   0  0  0  0  0  0
    2.2323   51.7974   32.0745 H   0  0  0  0  0  0
    1.4141   51.6962   30.5426 H   0  0  0  0  0  0
    1.3325   53.1799   31.4926 H   0  0  0  0  0  0
    3.9049   53.2944   31.2671 H   0  0  0  0  0  0
    3.8241   51.9884   30.1596 H   0  0  0  0  0  0
    2.2050   55.8021   28.8189 H   0  0  0  0  0  0
    1.2680   54.8440   29.9485 H   0  0  0  0  0  0
    2.7002   55.6730   30.4817 H   0  0  0  0  0  0
    4.6510   55.1815   28.3149 H   0  0  0  0  0  0
    5.0210   54.8302   29.9734 H   0  0  0  0  0  0
    5.2720   53.5955   28.7515 H   0  0  0  0  0  0
    0.6242   52.7178   28.8651 H   0  0  0  0  0  0
    0.6009   54.0844   27.8387 H   0  0  0  0  0  0
    0.7651   51.1140   27.0432 H   0  0  0  0  0  0
   -0.5773   52.2071   26.8009 H   0  0  0  0  0  0
    1.8200   52.9799   21.1545 H   0  0  0  0  0  0
   -0.4496   48.9030   21.2464 H   0  0  0  0  0  0
    1.2207   47.7965   19.4353 H   0  0  0  0  0  0
    2.7044   49.9339   18.4819 H   0  0  0  0  0  0
   -1.0118   50.7240   25.3583 H   0  0  0  0  0  0
    3.0012   54.9012   26.7435 H   0  0  0  0  0  0
    4.1513   53.5864   26.5181 H   0  0  0  0  0  0
  1  2  1  0  0  0
  1 27  1  0  0  0
  1 28  1  0  0  0
  1 29  1  0  0  0
  2  3  1  0  0  0
  2 30  1  0  0  0
  2 31  1  0  0  0
  3  4  1  0  0  0
  3  5  1  0  0  0
  3  6  1  0  0  0
  4 32  1  0  0  0
  4 33  1  0  0  0
  4 34  1  0  0  0
  5 35  1  0  0  0
  5 36  1  0  0  0
  5 37  1  0  0  0
  6  7  1  0  0  0
  6 26  1  0  0  0
  6  8  1  0  0  0
  8  9  1  0  0  0
  8 38  1  0  0  0
  8 39  1  0  0  0
  9 10  1  0  0  0
  9 40  1  0  0  0
  9 41  1  0  0  0
 10 14  1  0  0  0
 10 11  2  0  0  0
 11 12  1  0  0  0
 11 26  1  0  0  0
 12 13  1  0  0  0
 13 19  1  0  0  0
 13 14  2  0  0  0
 14 15  1  0  0  0
 15 16  2  0  0  0
 15 25  1  0  0  0
 16 17  1  0  0  0
 17 18  1  0  0  0
 17 19  1  0  0  0
 17 20  1  0  0  0
 19 42  1  0  0  0
 20 24  1  0  0  0
 20 21  2  0  0  0
 21 22  1  0  0  0
 21 43  1  0  0  0
 22 23  2  0  0  0
 22 44  1  0  0  0
 23 24  1  0  0  0
 23 45  1  0  0  0
 25 46  1  0  0  0
 26 47  1  0  0  0
 26 48  1  0  0  0
M  END
> <i_i_glide_confnum>
9

> <i_i_glide_lignum>
3841

> <i_i_glide_posenum>
173

> <i_i_glide_rotatable_bonds>
4

> <i_m_Source_File_Index>
226

> <b_m_subgroup_collapsed>
0

> <r_i_docking_score>
-4.74117

> <r_i_glide_ecoul>
-2.58391

> <r_i_glide_eff_state_penalty>
0

> <r_i_glide_einternal>
4.25545

> <r_i_glide_emodel>
-41.1653

> <r_i_glide_energy>
-33.2273

> <r_i_glide_erotb>
0.320035

> <r_i_glide_esite>
-0.0057434

> <r_i_glide_evdw>
-30.6434

> <r_i_glide_gscore>
-4.74117

> <r_i_glide_hbond>
0

> <r_i_glide_ligand_efficiency>
-0.197549

> <r_i_glide_ligand_efficiency_ln>
-1.13478

> <r_i_glide_ligand_efficiency_sa>
-0.569829

> <r_i_glide_lipo>
-1.99821

> <r_i_glide_metal>
0

> <r_i_glide_rewards>
-1.1375

> <s_i_glide_gridfile>
wee1_glide-grid

> <s_m_Source_File>
wee1_decoys_glide_SP.sdf

> <s_m_Source_Path>
/Users/zhangxujun/Desktop

> <s_m_entry_id>
501

> <s_m_entry_name>
wee1_decoys_glide_SP.226

> <s_m_subgroup_title>
wee1_decoys_glide_SP

> <s_m_subgroupid>
wee1_decoys_glide_SP


$$$$
