ZINC39633759_780
                    3D
 Schrodinger Suite 2024-2.
 69 73  0  0  1  0            999 V2000
    1.9150   53.9849   28.0336 C   0  0  0  0  0  0
    0.7953   53.7586   28.8289 C   0  0  0  0  0  0
    0.9335   53.0980   30.0458 C   0  0  0  0  0  0
    2.1817   52.6609   30.4796 C   0  0  0  0  0  0
    3.3071   52.9057   29.6955 C   0  0  0  0  0  0
    3.1751   53.5712   28.4725 C   0  0  0  0  0  0
    4.3855   53.8519   27.6575 C   0  0  0  0  0  0
    5.7064   54.0991   27.9956 C   0  0  0  0  0  0
    6.4005   54.2668   26.8030 C   0  0  0  0  0  0
    5.4894   54.0976   25.7651 C   0  0  0  0  0  0
    4.2564   53.8679   26.2996 O   0  0  0  0  0  0
    5.7385   54.0967   24.3351 C   0  0  0  0  0  0
    6.8985   54.2808   23.9607 O   0  0  0  0  0  0
    4.7359   53.8469   23.4455 N   0  0  0  0  0  0
    3.3031   53.6965   23.6942 C   0  0  0  0  0  0
    2.6744   53.5140   22.2770 C   0  0  1  0  0  0
    2.2492   54.4967   22.0814 H   0  0  0  0  0  0
    3.8510   53.1300   21.3029 C   0  0  0  0  0  0
    5.0459   53.7730   22.0233 C   0  0  0  0  0  0
    3.9013   53.6948   19.8519 C   0  0  0  0  0  0
    2.8668   53.0686   18.8979 C   0  0  0  0  0  0
    3.1044   51.5482   18.8238 N   0  3  0  0  0  0
    3.1506   50.8447   20.1901 C   0  0  0  0  0  0
    4.1303   51.5995   21.1289 C   0  0  0  0  0  0
    1.4650   52.5356   22.3360 C   0  0  0  0  0  0
    0.6520   52.5527   21.4131 O   0  0  0  0  0  0
    1.3167   51.6801   23.3674 N   0  0  0  0  0  0
    0.2600   50.6652   23.4844 C   0  0  0  0  0  0
    0.7023   49.5232   24.4327 C   0  0  0  0  0  0
    0.3032   49.5757   25.9243 C   0  0  0  0  0  0
    0.2474   50.9586   26.5981 C   0  0  0  0  0  0
   -1.0685   51.7156   26.3397 C   0  0  0  0  0  0
   -1.2437   52.2814   24.9218 C   0  0  0  0  0  0
   -1.1450   51.2586   23.7711 C   0  0  0  0  0  0
   -0.1534   52.8881   30.8166 F   0  0  0  0  0  0
    1.8037   54.4972   27.0899 H   0  0  0  0  0  0
   -0.1780   54.0964   28.5086 H   0  0  0  0  0  0
    2.2679   52.1500   31.4281 H   0  0  0  0  0  0
    4.2784   52.5773   30.0363 H   0  0  0  0  0  0
    6.1234   54.1570   28.9897 H   0  0  0  0  0  0
    7.4592   54.4573   26.7038 H   0  0  0  0  0  0
    2.8972   54.5848   24.1824 H   0  0  0  0  0  0
    3.2119   52.8137   24.3229 H   0  0  0  0  0  0
    5.9831   53.2953   21.7664 H   0  0  0  0  0  0
    5.1375   54.8111   21.6980 H   0  0  0  0  0  0
    3.7654   54.7773   19.8688 H   0  0  0  0  0  0
    4.8937   53.5509   19.4172 H   0  0  0  0  0  0
    1.8407   53.2289   19.2306 H   0  0  0  0  0  0
    2.9657   53.4414   17.8773 H   0  0  0  0  0  0
    2.4238   51.1036   18.2234 H   0  0  0  0  0  0
    2.1244   50.7604   20.5348 H   0  0  0  0  0  0
    3.4994   49.8361   19.9667 H   0  0  0  0  0  0
    5.1264   51.4635   20.7050 H   0  0  0  0  0  0
    4.1784   51.0914   22.0816 H   0  0  0  0  0  0
    2.0135   51.6682   24.0945 H   0  0  0  0  0  0
    0.2061   50.1836   22.5038 H   0  0  0  0  0  0
    1.7855   49.4082   24.3693 H   0  0  0  0  0  0
    0.3079   48.5831   24.0432 H   0  0  0  0  0  0
    1.0020   48.9462   26.4787 H   0  0  0  0  0  0
   -0.6614   49.0809   26.0587 H   0  0  0  0  0  0
    1.1063   51.5665   26.3122 H   0  0  0  0  0  0
    0.3386   50.8106   27.6758 H   0  0  0  0  0  0
   -1.1472   52.5416   27.0461 H   0  0  0  0  0  0
   -1.9111   51.0625   26.5773 H   0  0  0  0  0  0
   -0.5231   53.0840   24.7623 H   0  0  0  0  0  0
   -2.2211   52.7635   24.8695 H   0  0  0  0  0  0
   -1.8644   50.4506   23.9122 H   0  0  0  0  0  0
   -1.4869   51.7549   22.8619 H   0  0  0  0  0  0
    4.0109   51.3527   18.3882 H   0  0  0  0  0  0
  1  6  2  0  0  0
  1  2  1  0  0  0
  1 36  1  0  0  0
  2  3  2  0  0  0
  2 37  1  0  0  0
  3  4  1  0  0  0
  3 35  1  0  0  0
  4  5  2  0  0  0
  4 38  1  0  0  0
  5  6  1  0  0  0
  5 39  1  0  0  0
  6  7  1  0  0  0
  7 11  1  0  0  0
  7  8  2  0  0  0
  8  9  1  0  0  0
  8 40  1  0  0  0
  9 10  2  0  0  0
  9 41  1  0  0  0
 10 11  1  0  0  0
 10 12  1  0  0  0
 12 13  2  0  0  0
 12 14  1  0  0  0
 14 19  1  0  0  0
 14 15  1  0  0  0
 15 16  1  0  0  0
 15 42  1  0  0  0
 15 43  1  0  0  0
 16 17  1  0  0  0
 16 18  1  0  0  0
 16 25  1  0  0  0
 18 24  1  0  0  0
 18 19  1  0  0  0
 18 20  1  0  0  0
 19 44  1  0  0  0
 19 45  1  0  0  0
 20 21  1  0  0  0
 20 46  1  0  0  0
 20 47  1  0  0  0
 21 22  1  0  0  0
 21 48  1  0  0  0
 21 49  1  0  0  0
 22 23  1  0  0  0
 22 50  1  0  0  0
 22 69  1  0  0  0
 23 24  1  0  0  0
 23 51  1  0  0  0
 23 52  1  0  0  0
 24 53  1  0  0  0
 24 54  1  0  0  0
 25 26  2  0  0  0
 25 27  1  0  0  0
 27 28  1  0  0  0
 27 55  1  0  0  0
 28 34  1  0  0  0
 28 29  1  0  0  0
 28 56  1  0  0  0
 29 30  1  0  0  0
 29 57  1  0  0  0
 29 58  1  0  0  0
 30 31  1  0  0  0
 30 59  1  0  0  0
 30 60  1  0  0  0
 31 32  1  0  0  0
 31 61  1  0  0  0
 31 62  1  0  0  0
 32 33  1  0  0  0
 32 63  1  0  0  0
 32 64  1  0  0  0
 33 34  1  0  0  0
 33 65  1  0  0  0
 33 66  1  0  0  0
 34 67  1  0  0  0
 34 68  1  0  0  0
M  CHG  1  22   1
M  END
> <i_i_glide_confnum>
1391

> <i_i_glide_lignum>
781

> <i_i_glide_posenum>
103

> <i_i_glide_rotatable_bonds>
6

> <i_m_Source_File_Index>
3851

> <b_m_subgroup_collapsed>
0

> <r_i_docking_score>
-6.52064

> <r_i_glide_ecoul>
-1.70218

> <r_i_glide_eff_state_penalty>
0

> <r_i_glide_einternal>
6.03879

> <r_i_glide_emodel>
-70.1036

> <r_i_glide_energy>
-51.6328

> <r_i_glide_erotb>
0.551742

> <r_i_glide_esite>
-0.18466

> <r_i_glide_evdw>
-49.9306

> <r_i_glide_gscore>
-6.52064

> <r_i_glide_hbond>
-0.2

> <r_i_glide_ligand_efficiency>
-0.191783

> <r_i_glide_ligand_efficiency_ln>
-1.44059

> <r_i_glide_ligand_efficiency_sa>
-0.621304

> <r_i_glide_lipo>
-2.72449

> <r_i_glide_metal>
0

> <r_i_glide_rewards>
-1.21138

> <s_i_glide_gridfile>
wee1_glide-grid

> <s_m_Source_File>
wee1_decoys_glide_SP.sdf

> <s_m_Source_Path>
/Users/zhangxujun/Desktop

> <s_m_entry_id>
4126

> <s_m_entry_name>
wee1_decoys_glide_SP.3851

> <s_m_subgroup_title>
wee1_decoys_glide_SP

> <s_m_subgroupid>
wee1_decoys_glide_SP


$$$$
