ZINC37934297_4726
                    3D
 Schrodinger Suite 2024-2.
 43 44  0  0  1  0            999 V2000
    3.3580   55.0981   29.1652 C   0  0  0  0  0  0
    3.4083   53.8409   28.4016 N   0  0  0  0  0  0
    2.1927   53.1069   28.3341 C   0  0  0  0  0  0
    1.4300   52.9408   29.4969 C   0  0  0  0  0  0
    0.2333   52.2411   29.4724 C   0  0  0  0  0  0
   -0.2331   51.6726   28.2981 C   0  0  0  0  0  0
    0.5184   51.7854   27.1343 C   0  0  0  0  0  0
    1.7243   52.4968   27.1535 C   0  0  0  0  0  0
   -0.0919   50.9854   25.6579 S   0  0  0  0  0  0
    0.8964   51.1799   24.5918 O   0  0  0  0  0  0
   -1.4839   51.4140   25.4886 O   0  0  0  0  0  0
   -0.1122   49.2882   26.0702 N   0  0  0  0  0  0
   -0.4956   52.0967   30.6350 N   0  0  0  0  0  0
    4.3696   53.7768   27.2837 C   0  0  0  0  0  0
    3.9365   54.6795   26.1014 C   0  0  0  0  0  0
    4.5038   54.3088   24.7257 C   0  0  0  0  0  0
    5.9554   54.7259   24.4287 C   0  0  0  0  0  0
    6.9114   54.9575   25.6099 C   0  0  0  0  0  0
    6.9322   53.8960   26.7227 C   0  0  0  0  0  0
    5.8169   54.0432   27.7672 C   0  0  0  0  0  0
    2.6598   55.1030   29.9984 H   0  0  0  0  0  0
    4.3285   55.3170   29.6076 H   0  0  0  0  0  0
    3.0625   55.9233   28.5187 H   0  0  0  0  0  0
    1.7691   53.3281   30.4435 H   0  0  0  0  0  0
   -1.1614   51.1162   28.2932 H   0  0  0  0  0  0
    2.2863   52.5559   26.2356 H   0  0  0  0  0  0
   -0.7641   49.0264   26.8266 H   0  0  0  0  0  0
    0.8047   48.8550   26.1962 H   0  0  0  0  0  0
   -0.1504   52.4496   31.5176 H   0  0  0  0  0  0
   -1.2302   51.3995   30.6761 H   0  0  0  0  0  0
    4.3710   52.7448   26.9318 H   0  0  0  0  0  0
    2.8522   54.6815   26.0110 H   0  0  0  0  0  0
    4.2053   55.6967   26.3274 H   0  0  0  0  0  0
    4.3952   53.2409   24.5819 H   0  0  0  0  0  0
    3.8654   54.7478   23.9570 H   0  0  0  0  0  0
    6.3938   53.9902   23.7521 H   0  0  0  0  0  0
    5.9313   55.6554   23.8623 H   0  0  0  0  0  0
    7.9042   55.0142   25.1750 H   0  0  0  0  0  0
    6.7214   55.9395   26.0463 H   0  0  0  0  0  0
    6.9265   52.8973   26.2925 H   0  0  0  0  0  0
    7.8781   53.9827   27.2611 H   0  0  0  0  0  0
    5.8993   55.0461   28.1861 H   0  0  0  0  0  0
    6.0342   53.3637   28.5926 H   0  0  0  0  0  0
  1  2  1  0  0  0
  1 21  1  0  0  0
  1 22  1  0  0  0
  1 23  1  0  0  0
  2  3  1  0  0  0
  2 14  1  0  0  0
  3  8  2  0  0  0
  3  4  1  0  0  0
  4  5  2  0  0  0
  4 24  1  0  0  0
  5  6  1  0  0  0
  5 13  1  0  0  0
  6  7  2  0  0  0
  6 25  1  0  0  0
  7  8  1  0  0  0
  7  9  1  0  0  0
  8 26  1  0  0  0
  9 10  2  0  0  0
  9 11  2  0  0  0
  9 12  1  0  0  0
 12 27  1  0  0  0
 12 28  1  0  0  0
 13 29  1  0  0  0
 13 30  1  0  0  0
 14 20  1  0  0  0
 14 15  1  0  0  0
 14 31  1  0  0  0
 15 16  1  0  0  0
 15 32  1  0  0  0
 15 33  1  0  0  0
 16 17  1  0  0  0
 16 34  1  0  0  0
 16 35  1  0  0  0
 17 18  1  0  0  0
 17 36  1  0  0  0
 17 37  1  0  0  0
 18 19  1  0  0  0
 18 38  1  0  0  0
 18 39  1  0  0  0
 19 20  1  0  0  0
 19 40  1  0  0  0
 19 41  1  0  0  0
 20 42  1  0  0  0
 20 43  1  0  0  0
M  END
> <i_i_glide_confnum>
17

> <i_i_glide_lignum>
4727

> <i_i_glide_posenum>
97

> <i_i_glide_rotatable_bonds>
3

> <i_m_Source_File_Index>
4345

> <b_m_subgroup_collapsed>
0

> <r_i_docking_score>
-5.39024

> <r_i_glide_ecoul>
-5.90017

> <r_i_glide_eff_state_penalty>
0

> <r_i_glide_einternal>
2.19539

> <r_i_glide_emodel>
-42.5363

> <r_i_glide_energy>
-33.8397

> <r_i_glide_erotb>
0.414556

> <r_i_glide_esite>
-0.238315

> <r_i_glide_evdw>
-27.9395

> <r_i_glide_gscore>
-5.39024

> <r_i_glide_hbond>
-0.166656

> <r_i_glide_ligand_efficiency>
-0.269512

> <r_i_glide_ligand_efficiency_ln>
-1.349

> <r_i_glide_ligand_efficiency_sa>
-0.731569

> <r_i_glide_lipo>
-2.40027

> <r_i_glide_metal>
0

> <r_i_glide_rewards>
-0.717562

> <s_i_glide_gridfile>
wee1_glide-grid

> <s_m_Source_File>
wee1_decoys_glide_SP.sdf

> <s_m_Source_Path>
/Users/zhangxujun/Desktop

> <s_m_entry_id>
4620

> <s_m_entry_name>
wee1_decoys_glide_SP.4345

> <s_m_subgroup_title>
wee1_decoys_glide_SP

> <s_m_subgroupid>
wee1_decoys_glide_SP


$$$$
