ZINC35701701_5903
                    3D
 Schrodinger Suite 2024-2.
 58 61  0  0  1  0            999 V2000
    3.3864   53.0260   17.4548 C   0  0  0  0  0  0
    3.7723   53.1885   18.9259 C   0  0  0  0  0  0
    3.4746   52.3456   19.9580 C   0  0  0  0  0  0
    4.0242   52.5968   21.4090 C   0  0  1  0  0  0
    4.6782   51.7595   21.6589 H   0  0  0  0  0  0
    4.9410   53.8145   21.3980 N   0  0  0  0  0  0
    5.7649   54.3126   22.4247 C   0  0  0  0  0  0
    6.5787   55.2971   22.0045 C   0  0  0  0  0  0
    6.3053   55.8011   20.3590 S   0  0  0  0  0  0
    5.1192   54.5026   20.1878 C   0  0  0  0  0  0
    4.5839   54.2696   19.0592 N   0  0  0  0  0  0
    5.8258   53.8522   23.8023 C   0  0  0  0  0  0
    6.2570   54.4957   24.9100 C   0  0  0  0  0  0
    6.6805   55.6970   25.0803 O   0  5  0  0  0  0
    6.3310   53.8258   26.1118 N   0  0  0  0  0  0
    5.8100   54.2338   27.4157 C   0  0  0  0  0  0
    4.4090   53.6702   27.7146 C   0  0  2  0  0  0
    4.4461   52.5805   27.6564 H   0  0  0  0  0  0
    3.2792   54.2574   26.8760 C   0  0  0  0  0  0
    2.0560   54.1597   27.7635 C   0  0  0  0  0  0
    2.6247   53.9903   29.1755 C   0  0  0  0  0  0
    4.0430   54.0677   29.0342 O   0  0  0  0  0  0
    2.8855   52.5587   22.4777 C   0  0  0  0  0  0
    2.3046   51.3402   22.8804 C   0  0  0  0  0  0
    1.2345   51.2959   23.7742 C   0  0  0  0  0  0
    0.7226   52.4780   24.2990 C   0  0  0  0  0  0
    1.2894   53.6928   23.9276 C   0  0  0  0  0  0
    2.3567   53.7226   23.0310 C   0  0  0  0  0  0
    2.8921   54.8968   22.7022 F   0  0  0  0  0  0
    2.6130   51.1793   19.7407 C   0  0  0  0  0  0
    2.9027   50.0603   20.1596 O   0  0  0  0  0  0
    1.4394   51.4855   19.1291 O   0  0  0  0  0  0
    0.4248   50.5041   18.9476 C   0  0  0  0  0  0
   -0.3800   50.2982   20.2203 C   0  0  0  0  0  0
   -0.4999   49.1249   20.8603 C   0  0  0  0  0  0
    2.5752   53.7099   17.2062 H   0  0  0  0  0  0
    4.2289   53.2455   16.7958 H   0  0  0  0  0  0
    3.0688   52.0138   17.2095 H   0  0  0  0  0  0
    7.3200   55.8075   22.6024 H   0  0  0  0  0  0
    5.5032   52.8580   23.9381 H   0  0  0  0  0  0
    6.3620   52.8192   26.0395 H   0  0  0  0  0  0
    6.5061   53.8727   28.1731 H   0  0  0  0  0  0
    5.8171   55.3199   27.4968 H   0  0  0  0  0  0
    3.5005   55.2963   26.6333 H   0  0  0  0  0  0
    3.1936   53.7556   25.9132 H   0  0  0  0  0  0
    1.4270   55.0486   27.6822 H   0  0  0  0  0  0
    1.4466   53.2960   27.4883 H   0  0  0  0  0  0
    2.2750   54.7671   29.8566 H   0  0  0  0  0  0
    2.3515   53.0239   29.6033 H   0  0  0  0  0  0
    2.6988   50.4026   22.5207 H   0  0  0  0  0  0
    0.8157   50.3443   24.0679 H   0  0  0  0  0  0
   -0.0992   52.4512   24.9996 H   0  0  0  0  0  0
    0.9136   54.6127   24.3437 H   0  0  0  0  0  0
    0.8505   49.5606   18.6012 H   0  0  0  0  0  0
   -0.2480   50.8454   18.1609 H   0  0  0  0  0  0
   -0.8718   51.1750   20.6191 H   0  0  0  0  0  0
   -0.0147   48.2330   20.4905 H   0  0  0  0  0  0
   -1.0840   49.0429   21.7662 H   0  0  0  0  0  0
  1  2  1  0  0  0
  1 36  1  0  0  0
  1 37  1  0  0  0
  1 38  1  0  0  0
  2 11  1  0  0  0
  2  3  2  0  0  0
  3  4  1  0  0  0
  3 30  1  0  0  0
  4  5  1  0  0  0
  4  6  1  0  0  0
  4 23  1  0  0  0
  6 10  1  0  0  0
  6  7  1  0  0  0
  7  8  2  0  0  0
  7 12  1  0  0  0
  8  9  1  0  0  0
  8 39  1  0  0  0
  9 10  1  0  0  0
 10 11  2  0  0  0
 12 13  2  0  0  0
 12 40  1  0  0  0
 13 14  1  0  0  0
 13 15  1  0  0  0
 15 16  1  0  0  0
 15 41  1  0  0  0
 16 17  1  0  0  0
 16 42  1  0  0  0
 16 43  1  0  0  0
 17 18  1  0  0  0
 17 22  1  0  0  0
 17 19  1  0  0  0
 19 20  1  0  0  0
 19 44  1  0  0  0
 19 45  1  0  0  0
 20 21  1  0  0  0
 20 46  1  0  0  0
 20 47  1  0  0  0
 21 22  1  0  0  0
 21 48  1  0  0  0
 21 49  1  0  0  0
 23 28  2  0  0  0
 23 24  1  0  0  0
 24 25  2  0  0  0
 24 50  1  0  0  0
 25 26  1  0  0  0
 25 51  1  0  0  0
 26 27  2  0  0  0
 26 52  1  0  0  0
 27 28  1  0  0  0
 27 53  1  0  0  0
 28 29  1  0  0  0
 30 31  2  0  0  0
 30 32  1  0  0  0
 32 33  1  0  0  0
 33 34  1  0  0  0
 33 54  1  0  0  0
 33 55  1  0  0  0
 34 35  2  0  0  0
 34 56  1  0  0  0
 35 57  1  0  0  0
 35 58  1  0  0  0
M  CHG  1  14  -1
M  END
> <i_i_glide_confnum>
442

> <i_i_glide_lignum>
5904

> <i_i_glide_posenum>
176

> <i_i_glide_rotatable_bonds>
9

> <i_m_Source_File_Index>
1945

> <b_m_subgroup_collapsed>
0

> <r_i_docking_score>
-5.14736

> <r_i_glide_ecoul>
-0.753071

> <r_i_glide_eff_state_penalty>
0

> <r_i_glide_einternal>
10.5536

> <r_i_glide_emodel>
-49.6673

> <r_i_glide_energy>
-40.283

> <r_i_glide_erotb>
0.730092

> <r_i_glide_esite>
-0.0635611

> <r_i_glide_evdw>
-39.53

> <r_i_glide_gscore>
-5.14736

> <r_i_glide_hbond>
-0.0832075

> <r_i_glide_ligand_efficiency>
-0.155981

> <r_i_glide_ligand_efficiency_ln>
-1.14475

> <r_i_glide_ligand_efficiency_sa>
-0.500314

> <r_i_glide_lipo>
-3.21175

> <r_i_glide_metal>
0

> <r_i_glide_rewards>
-0.429481

> <s_i_glide_gridfile>
wee1_glide-grid

> <s_m_Source_File>
wee1_decoys_glide_SP.sdf

> <s_m_Source_Path>
/Users/zhangxujun/Desktop

> <s_m_entry_id>
2220

> <s_m_entry_name>
wee1_decoys_glide_SP.1945

> <s_m_subgroup_title>
wee1_decoys_glide_SP

> <s_m_subgroupid>
wee1_decoys_glide_SP


$$$$
