ZINC54620615_5869
                    3D
 Schrodinger Suite 2024-2.
 53 56  0  0  1  0            999 V2000
    5.1512   54.8970   29.1237 C   0  0  0  0  0  0
    5.1243   53.4784   28.5372 C   0  0  1  0  0  0
    6.1423   53.0842   28.5812 H   0  0  0  0  0  0
    4.2443   52.5078   29.3718 C   0  0  0  0  0  0
    2.7950   52.8893   29.6713 C   0  0  0  0  0  0
    2.0228   53.6487   28.7841 C   0  0  0  0  0  0
    0.6921   53.9309   29.0726 C   0  0  0  0  0  0
    0.1285   53.4689   30.2560 C   0  0  0  0  0  0
    0.8814   52.7244   31.1553 C   0  0  0  0  0  0
    2.2090   52.4338   30.8613 C   0  0  0  0  0  0
    2.9302   51.6979   31.7378 F   0  0  0  0  0  0
    4.7635   53.4888   27.1200 N   0  0  0  0  0  0
    5.4417   54.0957   26.1262 C   0  0  0  0  0  0
    6.6143   54.4614   26.2631 O   0  0  0  0  0  0
    4.7559   54.1917   24.9533 N   0  0  0  0  0  0
    3.2989   54.4863   24.9533 C   0  0  0  0  0  0
    2.6643   53.7936   23.7390 C   0  0  0  0  0  0
    3.3146   54.2390   22.4281 C   0  0  0  0  0  0
    4.8369   54.0101   22.4766 C   0  0  2  0  0  0
    4.9866   52.9336   22.5872 H   0  0  0  0  0  0
    5.5115   54.6079   23.7520 C   0  0  0  0  0  0
    5.5063   54.4380   21.1808 C   0  0  0  0  0  0
    5.1718   53.8912   19.9620 N   0  0  0  0  0  0
    4.4461   53.2008   19.8355 H   0  0  0  0  0  0
    6.0332   54.4133   19.0254 C   0  0  0  0  0  0
    6.2058   54.2071   17.6554 C   0  0  0  0  0  0
    7.2407   54.9229   17.0445 C   0  0  0  0  0  0
    8.0629   55.7962   17.7617 C   0  0  0  0  0  0
    7.8868   55.9960   19.1326 C   0  0  0  0  0  0
    6.8533   55.2970   19.7735 C   0  0  0  0  0  0
    6.4885   55.3065   21.0940 N   0  0  0  0  0  0
    5.4083   54.8968   30.1766 H   0  0  0  0  0  0
    5.9041   55.5093   28.6271 H   0  0  0  0  0  0
    4.1786   55.3802   29.0436 H   0  0  0  0  0  0
    4.7054   52.3751   30.3446 H   0  0  0  0  0  0
    4.2335   51.5229   28.9147 H   0  0  0  0  0  0
    2.4301   54.0283   27.8650 H   0  0  0  0  0  0
    0.0962   54.4968   28.3751 H   0  0  0  0  0  0
   -0.8955   53.6817   30.4805 H   0  0  0  0  0  0
    0.4300   52.3649   32.0714 H   0  0  0  0  0  0
    3.9160   53.0005   26.8746 H   0  0  0  0  0  0
    2.7794   54.0927   25.8214 H   0  0  0  0  0  0
    3.1386   55.5612   24.8843 H   0  0  0  0  0  0
    2.7256   52.7096   23.8484 H   0  0  0  0  0  0
    1.5985   54.0247   23.7096 H   0  0  0  0  0  0
    2.8539   53.6702   21.6187 H   0  0  0  0  0  0
    3.1038   55.2967   22.2874 H   0  0  0  0  0  0
    5.5419   55.6961   23.7596 H   0  0  0  0  0  0
    6.5167   54.1810   23.7885 H   0  0  0  0  0  0
    5.5860   53.5208   17.0969 H   0  0  0  0  0  0
    7.4171   54.7954   15.9858 H   0  0  0  0  0  0
    8.8557   56.3202   17.2467 H   0  0  0  0  0  0
    8.5438   56.6552   19.6821 H   0  0  0  0  0  0
  1  2  1  0  0  0
  1 32  1  0  0  0
  1 33  1  0  0  0
  1 34  1  0  0  0
  2  3  1  0  0  0
  2  4  1  0  0  0
  2 12  1  0  0  0
  4  5  1  0  0  0
  4 35  1  0  0  0
  4 36  1  0  0  0
  5 10  2  0  0  0
  5  6  1  0  0  0
  6  7  2  0  0  0
  6 37  1  0  0  0
  7  8  1  0  0  0
  7 38  1  0  0  0
  8  9  2  0  0  0
  8 39  1  0  0  0
  9 10  1  0  0  0
  9 40  1  0  0  0
 10 11  1  0  0  0
 12 13  1  0  0  0
 12 41  1  0  0  0
 13 14  2  0  0  0
 13 15  1  0  0  0
 15 21  1  0  0  0
 15 16  1  0  0  0
 16 17  1  0  0  0
 16 42  1  0  0  0
 16 43  1  0  0  0
 17 18  1  0  0  0
 17 44  1  0  0  0
 17 45  1  0  0  0
 18 19  1  0  0  0
 18 46  1  0  0  0
 18 47  1  0  0  0
 19 20  1  0  0  0
 19 21  1  0  0  0
 19 22  1  0  0  0
 21 48  1  0  0  0
 21 49  1  0  0  0
 22 31  2  0  0  0
 22 23  1  0  0  0
 23 24  1  0  0  0
 23 25  1  0  0  0
 25 30  2  0  0  0
 25 26  1  0  0  0
 26 27  2  0  0  0
 26 50  1  0  0  0
 27 28  1  0  0  0
 27 51  1  0  0  0
 28 29  2  0  0  0
 28 52  1  0  0  0
 29 30  1  0  0  0
 29 53  1  0  0  0
 30 31  1  0  0  0
M  END
> <i_i_glide_confnum>
68

> <i_i_glide_lignum>
5870

> <i_i_glide_posenum>
48

> <i_i_glide_rotatable_bonds>
6

> <i_m_Source_File_Index>
3060

> <b_m_subgroup_collapsed>
0

> <r_i_docking_score>
-5.82637

> <r_i_glide_ecoul>
-4.02335

> <r_i_glide_eff_state_penalty>
0

> <r_i_glide_einternal>
6.73648

> <r_i_glide_emodel>
-54.2567

> <r_i_glide_energy>
-42.5062

> <r_i_glide_erotb>
0.670151

> <r_i_glide_esite>
-0.0239243

> <r_i_glide_evdw>
-38.4828

> <r_i_glide_gscore>
-5.82637

> <r_i_glide_hbond>
-0.023949

> <r_i_glide_ligand_efficiency>
-0.208085

> <r_i_glide_ligand_efficiency_ln>
-1.3449

> <r_i_glide_ligand_efficiency_sa>
-0.631867

> <r_i_glide_lipo>
-2.23747

> <r_i_glide_metal>
0

> <r_i_glide_rewards>
-1.68353

> <s_i_glide_gridfile>
wee1_glide-grid

> <s_m_Source_File>
wee1_decoys_glide_SP.sdf

> <s_m_Source_Path>
/Users/zhangxujun/Desktop

> <s_m_entry_id>
3335

> <s_m_entry_name>
wee1_decoys_glide_SP.3060

> <s_m_subgroup_title>
wee1_decoys_glide_SP

> <s_m_subgroupid>
wee1_decoys_glide_SP


$$$$
