ZINC13358367_1937
                    3D
 Schrodinger Suite 2024-2.
 55 57  0  0  1  0            999 V2000
    5.1631   54.7250   27.2921 C   0  0  0  0  0  0
    4.8975   54.5115   25.8069 C   0  0  0  0  0  0
    3.6477   54.0387   25.3971 C   0  0  0  0  0  0
    3.3876   53.7593   24.0515 C   0  0  0  0  0  0
    4.3935   53.9937   23.1066 C   0  0  0  0  0  0
    5.6388   54.4966   23.4938 C   0  0  0  0  0  0
    5.8864   54.7637   24.8471 C   0  0  0  0  0  0
    7.1044   55.2672   25.2246 O   0  0  0  0  0  0
    6.7004   54.7624   22.4344 C   0  0  0  0  0  0
    2.0848   53.1745   23.6768 C   0  0  0  0  0  0
    1.8684   52.3572   22.6210 C   0  0  0  0  0  0
    0.5458   51.8177   22.2896 C   0  0  0  0  0  0
   -0.4710   52.3728   22.7162 O   0  0  0  0  0  0
    0.4471   50.6534   21.3444 C   0  0  0  0  0  0
    1.4868   49.7162   21.2215 C   0  0  0  0  0  0
    1.3423   48.6071   20.3904 C   0  0  0  0  0  0
    0.1541   48.4155   19.6801 C   0  0  0  0  0  0
   -0.8749   49.3521   19.7753 C   0  0  0  0  0  0
   -0.7355   50.4537   20.6158 C   0  0  0  0  0  0
   -0.0655   46.9578   18.6511 S   0  0  0  0  0  0
   -0.3869   47.4377   17.3020 O   0  0  0  0  0  0
    1.1044   46.1022   18.8763 O   0  0  0  0  0  0
   -1.4849   46.1068   19.3075 N   0  0  0  0  0  0
   -2.8036   46.1767   18.6146 C   0  0  0  0  0  0
   -3.8696   46.9350   19.4334 C   0  0  0  0  0  0
   -3.9399   46.4549   20.8952 C   0  0  0  0  0  0
   -2.5481   46.4645   21.5623 C   0  0  0  0  0  0
   -1.4824   45.6854   20.7383 C   0  0  1  0  0  0
   -0.4957   45.8799   21.1448 H   0  0  0  0  0  0
   -1.6063   44.1456   20.8810 C   0  0  0  0  0  0
   -2.0951   43.6971   21.9424 O   0  0  0  0  0  0
    4.2390   54.9034   27.8453 H   0  0  0  0  0  0
    5.6643   53.8501   27.7106 H   0  0  0  0  0  0
    5.8083   55.5879   27.4628 H   0  0  0  0  0  0
    2.8876   53.8433   26.1393 H   0  0  0  0  0  0
    4.2043   53.7891   22.0631 H   0  0  0  0  0  0
    7.7166   55.2960   24.4803 H   0  0  0  0  0  0
    7.0125   55.8070   22.4617 H   0  0  0  0  0  0
    6.3425   54.5445   21.4267 H   0  0  0  0  0  0
    7.5816   54.1517   22.6279 H   0  0  0  0  0  0
    1.2520   53.4526   24.3100 H   0  0  0  0  0  0
    2.6832   52.0644   21.9756 H   0  0  0  0  0  0
    2.4083   49.8198   21.7780 H   0  0  0  0  0  0
    2.1556   47.8968   20.3095 H   0  0  0  0  0  0
   -1.7863   49.2172   19.2111 H   0  0  0  0  0  0
   -1.5576   51.1511   20.6933 H   0  0  0  0  0  0
   -2.6727   46.6615   17.6475 H   0  0  0  0  0  0
   -3.1171   45.1562   18.3921 H   0  0  0  0  0  0
   -3.6562   48.0033   19.4121 H   0  0  0  0  0  0
   -4.8451   46.8231   18.9574 H   0  0  0  0  0  0
   -4.6301   47.0800   21.4618 H   0  0  0  0  0  0
   -4.3493   45.4447   20.9273 H   0  0  0  0  0  0
   -2.2205   47.5017   21.6582 H   0  0  0  0  0  0
   -2.6129   46.0975   22.5868 H   0  0  0  0  0  0
   -1.1573   43.4062   19.9728 O   0  5  0  0  0  0
  1  2  1  0  0  0
  1 32  1  0  0  0
  1 33  1  0  0  0
  1 34  1  0  0  0
  2  7  2  0  0  0
  2  3  1  0  0  0
  3  4  2  0  0  0
  3 35  1  0  0  0
  4  5  1  0  0  0
  4 10  1  0  0  0
  5  6  2  0  0  0
  5 36  1  0  0  0
  6  7  1  0  0  0
  6  9  1  0  0  0
  7  8  1  0  0  0
  8 37  1  0  0  0
  9 38  1  0  0  0
  9 39  1  0  0  0
  9 40  1  0  0  0
 10 11  2  0  0  0
 10 41  1  0  0  0
 11 12  1  0  0  0
 11 42  1  0  0  0
 12 13  2  0  0  0
 12 14  1  0  0  0
 14 19  2  0  0  0
 14 15  1  0  0  0
 15 16  2  0  0  0
 15 43  1  0  0  0
 16 17  1  0  0  0
 16 44  1  0  0  0
 17 18  2  0  0  0
 17 20  1  0  0  0
 18 19  1  0  0  0
 18 45  1  0  0  0
 19 46  1  0  0  0
 20 21  2  0  0  0
 20 22  2  0  0  0
 20 23  1  0  0  0
 23 28  1  0  0  0
 23 24  1  0  0  0
 24 25  1  0  0  0
 24 47  1  0  0  0
 24 48  1  0  0  0
 25 26  1  0  0  0
 25 49  1  0  0  0
 25 50  1  0  0  0
 26 27  1  0  0  0
 26 51  1  0  0  0
 26 52  1  0  0  0
 27 28  1  0  0  0
 27 53  1  0  0  0
 27 54  1  0  0  0
 28 29  1  0  0  0
 28 30  1  0  0  0
 30 31  2  0  0  0
 30 55  1  0  0  0
M  CHG  1  55  -1
M  END
> <i_i_glide_confnum>
160

> <i_i_glide_lignum>
1938

> <i_i_glide_posenum>
327

> <i_i_glide_rotatable_bonds>
7

> <i_m_Source_File_Index>
5443

> <b_m_subgroup_collapsed>
0

> <r_i_docking_score>
-5.74468

> <r_i_glide_ecoul>
-8.98836

> <r_i_glide_eff_state_penalty>
0

> <r_i_glide_einternal>
6.54656

> <r_i_glide_emodel>
-50.3405

> <r_i_glide_energy>
-37.6208

> <r_i_glide_erotb>
0.510285

> <r_i_glide_esite>
-0.0647135

> <r_i_glide_evdw>
-28.6324

> <r_i_glide_gscore>
-5.74468

> <r_i_glide_hbond>
-0.86463

> <r_i_glide_ligand_efficiency>
-0.185312

> <r_i_glide_ligand_efficiency_ln>
-1.2956

> <r_i_glide_ligand_efficiency_sa>
-0.582137

> <r_i_glide_lipo>
-2.41529

> <r_i_glide_metal>
0

> <r_i_glide_rewards>
-0.130459

> <s_i_glide_gridfile>
wee1_glide-grid

> <s_m_Source_File>
wee1_decoys_glide_SP.sdf

> <s_m_Source_Path>
/Users/zhangxujun/Desktop

> <s_m_entry_id>
5718

> <s_m_entry_name>
wee1_decoys_glide_SP.5443

> <s_m_subgroup_title>
wee1_decoys_glide_SP

> <s_m_subgroupid>
wee1_decoys_glide_SP


$$$$
