ZINC12972681_5136
                    3D
 Schrodinger Suite 2024-2.
 63 66  0  0  1  0            999 V2000
    4.1340   53.7157   19.5642 C   0  0  0  0  0  0
    3.2933   52.5712   20.1384 C   0  0  0  0  0  0
    2.6131   51.6697   19.2888 C   0  0  0  0  0  0
    1.8243   50.6331   19.8595 C   0  0  0  0  0  0
    1.7619   50.5559   21.2710 C   0  0  0  0  0  0
    2.4123   51.4257   22.0772 N   0  0  0  0  0  0
    3.1480   52.4149   21.5255 C   0  0  0  0  0  0
    3.7826   53.3556   22.5404 C   0  0  0  0  0  0
    0.8218   49.3018   22.1265 S   0  0  0  0  0  0
    0.5341   49.8500   23.8464 C   0  0  0  0  0  0
   -0.2725   51.1576   24.0029 C   0  0  0  0  0  0
   -0.7879   51.7124   23.0293 O   0  0  0  0  0  0
   -0.4006   51.6662   25.2487 N   0  0  0  0  0  0
   -1.4362   51.2090   26.1872 C   0  0  1  0  0  0
   -1.6031   50.1375   26.0354 H   0  0  0  0  0  0
   -0.7666   51.4306   27.5381 C   0  0  0  0  0  0
    0.5693   52.0047   27.1602 C   0  0  0  0  0  0
    0.7007   52.1208   25.9002 N   0  0  0  0  0  0
    1.5808   52.3724   28.1724 C   0  0  0  0  0  0
    2.8204   52.8977   27.7773 C   0  0  0  0  0  0
    3.7904   53.2062   28.7276 C   0  0  0  0  0  0
    3.5259   52.9971   30.0777 C   0  0  0  0  0  0
    2.2924   52.4967   30.4863 C   0  0  0  0  0  0
    1.3227   52.1868   29.5380 C   0  0  0  0  0  0
   -2.8146   51.8838   26.0546 C   0  0  0  0  0  0
   -3.0731   52.8961   25.1240 C   0  0  0  0  0  0
   -4.3159   53.5227   25.0924 C   0  0  0  0  0  0
   -5.3257   53.1427   25.9732 C   0  0  0  0  0  0
   -5.0840   52.0967   26.8781 C   0  0  0  0  0  0
   -3.8371   51.4769   26.9170 C   0  0  0  0  0  0
   -6.5109   53.8499   25.8910 O   0  0  0  0  0  0
   -7.5805   53.5034   26.7649 C   0  0  0  0  0  0
    1.0063   49.6872   19.0094 C   0  0  0  0  0  0
   -0.2185   49.6460   19.0941 O   0  0  0  0  0  0
    1.6678   48.8742   18.1901 N   0  0  0  0  0  0
    2.7058   51.8644   17.7670 C   0  0  0  0  0  0
    3.5487   54.2756   18.8336 H   0  0  0  0  0  0
    5.0152   53.3204   19.0529 H   0  0  0  0  0  0
    4.4692   54.4423   20.3045 H   0  0  0  0  0  0
    4.8711   53.3166   22.4658 H   0  0  0  0  0  0
    3.4550   54.3810   22.3628 H   0  0  0  0  0  0
    3.5066   53.1093   23.5678 H   0  0  0  0  0  0
    0.0099   49.0513   24.3701 H   0  0  0  0  0  0
    1.5046   49.9525   24.3318 H   0  0  0  0  0  0
   -1.3170   52.1356   28.1618 H   0  0  0  0  0  0
   -0.6449   50.4967   28.0819 H   0  0  0  0  0  0
    3.0501   53.0497   26.7307 H   0  0  0  0  0  0
    4.7476   53.5966   28.4138 H   0  0  0  0  0  0
    4.2881   53.2230   30.8092 H   0  0  0  0  0  0
    2.0856   52.3399   31.5362 H   0  0  0  0  0  0
    0.3777   51.7889   29.8843 H   0  0  0  0  0  0
   -2.3107   53.2413   24.4406 H   0  0  0  0  0  0
   -4.4934   54.3172   24.3824 H   0  0  0  0  0  0
   -5.8425   51.7636   27.5684 H   0  0  0  0  0  0
   -3.6557   50.6863   27.6333 H   0  0  0  0  0  0
   -8.4285   54.1584   26.5719 H   0  0  0  0  0  0
   -7.9124   52.4765   26.6027 H   0  0  0  0  0  0
   -7.2993   53.6281   27.8111 H   0  0  0  0  0  0
    2.6489   49.0271   17.9716 H   0  0  0  0  0  0
    1.1412   48.2172   17.6391 H   0  0  0  0  0  0
    2.7043   50.9330   17.2076 H   0  0  0  0  0  0
    1.8763   52.4774   17.4136 H   0  0  0  0  0  0
    3.6435   52.3278   17.4629 H   0  0  0  0  0  0
  1  2  1  0  0  0
  1 37  1  0  0  0
  1 38  1  0  0  0
  1 39  1  0  0  0
  2  7  2  0  0  0
  2  3  1  0  0  0
  3  4  2  0  0  0
  3 36  1  0  0  0
  4  5  1  0  0  0
  4 33  1  0  0  0
  5  6  2  0  0  0
  5  9  1  0  0  0
  6  7  1  0  0  0
  7  8  1  0  0  0
  8 40  1  0  0  0
  8 41  1  0  0  0
  8 42  1  0  0  0
  9 10  1  0  0  0
 10 11  1  0  0  0
 10 43  1  0  0  0
 10 44  1  0  0  0
 11 12  2  0  0  0
 11 13  1  0  0  0
 13 18  1  0  0  0
 13 14  1  0  0  0
 14 15  1  0  0  0
 14 16  1  0  0  0
 14 25  1  0  0  0
 16 17  1  0  0  0
 16 45  1  0  0  0
 16 46  1  0  0  0
 17 18  2  0  0  0
 17 19  1  0  0  0
 19 24  2  0  0  0
 19 20  1  0  0  0
 20 21  2  0  0  0
 20 47  1  0  0  0
 21 22  1  0  0  0
 21 48  1  0  0  0
 22 23  2  0  0  0
 22 49  1  0  0  0
 23 24  1  0  0  0
 23 50  1  0  0  0
 24 51  1  0  0  0
 25 30  2  0  0  0
 25 26  1  0  0  0
 26 27  2  0  0  0
 26 52  1  0  0  0
 27 28  1  0  0  0
 27 53  1  0  0  0
 28 29  2  0  0  0
 28 31  1  0  0  0
 29 30  1  0  0  0
 29 54  1  0  0  0
 30 55  1  0  0  0
 31 32  1  0  0  0
 32 56  1  0  0  0
 32 57  1  0  0  0
 32 58  1  0  0  0
 33 34  2  0  0  0
 33 35  1  0  0  0
 35 59  1  0  0  0
 35 60  1  0  0  0
 36 61  1  0  0  0
 36 62  1  0  0  0
 36 63  1  0  0  0
M  END
> <i_i_glide_confnum>
62

> <i_i_glide_lignum>
5137

> <i_i_glide_posenum>
89

> <i_i_glide_rotatable_bonds>
8

> <i_m_Source_File_Index>
2932

> <b_m_subgroup_collapsed>
0

> <r_i_docking_score>
-4.44102

> <r_i_glide_ecoul>
-5.80412

> <r_i_glide_eff_state_penalty>
0

> <r_i_glide_einternal>
11.4336

> <r_i_glide_emodel>
-55.9812

> <r_i_glide_energy>
-47.6003

> <r_i_glide_erotb>
0.51114

> <r_i_glide_esite>
-0.120416

> <r_i_glide_evdw>
-41.7962

> <r_i_glide_gscore>
-4.44102

> <r_i_glide_hbond>
-0.157482

> <r_i_glide_ligand_efficiency>
-0.126886

> <r_i_glide_ligand_efficiency_ln>
-0.974903

> <r_i_glide_ligand_efficiency_sa>
-0.415054

> <r_i_glide_lipo>
-1.46906

> <r_i_glide_metal>
0

> <r_i_glide_rewards>
-0.244781

> <s_i_glide_gridfile>
wee1_glide-grid

> <s_m_Source_File>
wee1_decoys_glide_SP.sdf

> <s_m_Source_Path>
/Users/zhangxujun/Desktop

> <s_m_entry_id>
3207

> <s_m_entry_name>
wee1_decoys_glide_SP.2932

> <s_m_subgroup_title>
wee1_decoys_glide_SP

> <s_m_subgroupid>
wee1_decoys_glide_SP


$$$$
