ZINC20571924_974
                    3D
 Schrodinger Suite 2024-2.
 54 58  0  0  1  0            999 V2000
    3.7678   55.3027   16.9620 C   0  0  0  0  0  0
    4.5814   54.6643   16.0353 C   0  0  0  0  0  0
    5.9306   54.4694   16.3174 C   0  0  0  0  0  0
    6.5119   54.9068   17.5197 C   0  0  0  0  0  0
    5.6573   55.5231   18.4693 C   0  0  0  0  0  0
    4.3037   55.7287   18.1712 C   0  0  0  0  0  0
    6.1834   56.0005   19.8049 C   0  0  0  0  0  0
    6.7046   57.1182   19.8789 O   0  0  0  0  0  0
    6.1259   55.1403   20.8565 N   0  0  0  0  0  0
    6.8971   55.4934   22.0633 C   0  0  0  0  0  0
    6.7027   54.4360   23.1679 C   0  0  0  0  0  0
    5.2963   54.1187   23.4486 N   0  0  0  0  0  0
    4.4559   54.0002   22.2419 C   0  0  0  0  0  0
    5.2033   53.9840   20.8872 C   0  0  0  0  0  0
    4.7877   54.1442   24.7225 C   0  0  0  0  0  0
    5.5048   54.3070   25.8044 N   0  0  0  0  0  0
    4.7368   54.2804   26.9222 C   0  0  0  0  0  0
    5.2212   54.4270   28.2299 C   0  0  0  0  0  0
    4.3035   54.3872   29.2812 C   0  0  0  0  0  0
    2.9392   54.2084   29.0508 C   0  0  0  0  0  0
    2.4364   54.0585   27.7602 C   0  0  0  0  0  0
    3.3465   54.0969   26.6968 C   0  0  0  0  0  0
    3.0595   53.9496   24.9727 S   0  0  0  0  0  0
    2.0843   54.1795   30.0944 F   0  0  0  0  0  0
    7.8491   54.7118   17.7889 N   0  5  0  0  0  0
    9.0020   54.9844   16.7564 S   0  0  0  0  0  0
    8.5950   55.1367   15.3549 O   0  0  0  0  0  0
   10.2023   54.1841   17.0221 O   0  0  0  0  0  0
    9.4235   56.6665   17.2442 C   0  0  0  0  0  0
   10.7154   56.9676   17.6813 C   0  0  0  0  0  0
   11.0256   58.2602   18.0948 C   0  0  0  0  0  0
   10.0471   59.2503   18.0627 C   0  0  0  0  0  0
    8.7636   58.9661   17.6035 C   0  0  0  0  0  0
    8.4534   57.6745   17.1864 C   0  0  0  0  0  0
   10.3471   60.4984   18.4849 F   0  0  0  0  0  0
    2.7206   55.4593   16.7492 H   0  0  0  0  0  0
    4.1689   54.3144   15.1005 H   0  0  0  0  0  0
    6.5252   53.9447   15.5856 H   0  0  0  0  0  0
    3.6491   56.2099   18.8815 H   0  0  0  0  0  0
    7.9630   55.5373   21.8311 H   0  0  0  0  0  0
    6.5723   56.4591   22.4467 H   0  0  0  0  0  0
    7.2458   54.7315   24.0658 H   0  0  0  0  0  0
    7.1544   53.4864   22.8818 H   0  0  0  0  0  0
    3.8528   54.9090   22.2243 H   0  0  0  0  0  0
    3.7949   53.1357   22.3146 H   0  0  0  0  0  0
    4.4412   54.0216   20.1088 H   0  0  0  0  0  0
    5.7513   53.0506   20.7682 H   0  0  0  0  0  0
    6.2745   54.5750   28.4223 H   0  0  0  0  0  0
    4.6590   54.4976   30.2946 H   0  0  0  0  0  0
    1.3787   53.9176   27.5930 H   0  0  0  0  0  0
   11.4737   56.1985   17.7288 H   0  0  0  0  0  0
   12.0181   58.4892   18.4523 H   0  0  0  0  0  0
    8.0075   59.7387   17.5776 H   0  0  0  0  0  0
    7.4547   57.4540   16.8388 H   0  0  0  0  0  0
  1  6  2  0  0  0
  1  2  1  0  0  0
  1 36  1  0  0  0
  2  3  2  0  0  0
  2 37  1  0  0  0
  3  4  1  0  0  0
  3 38  1  0  0  0
  4  5  2  0  0  0
  4 25  1  0  0  0
  5  6  1  0  0  0
  5  7  1  0  0  0
  6 39  1  0  0  0
  7  8  2  0  0  0
  7  9  1  0  0  0
  9 14  1  0  0  0
  9 10  1  0  0  0
 10 11  1  0  0  0
 10 40  1  0  0  0
 10 41  1  0  0  0
 11 12  1  0  0  0
 11 42  1  0  0  0
 11 43  1  0  0  0
 12 13  1  0  0  0
 12 15  1  0  0  0
 13 14  1  0  0  0
 13 44  1  0  0  0
 13 45  1  0  0  0
 14 46  1  0  0  0
 14 47  1  0  0  0
 15 23  1  0  0  0
 15 16  2  0  0  0
 16 17  1  0  0  0
 17 22  2  0  0  0
 17 18  1  0  0  0
 18 19  2  0  0  0
 18 48  1  0  0  0
 19 20  1  0  0  0
 19 49  1  0  0  0
 20 21  2  0  0  0
 20 24  1  0  0  0
 21 22  1  0  0  0
 21 50  1  0  0  0
 22 23  1  0  0  0
 25 26  1  0  0  0
 26 27  2  0  0  0
 26 28  2  0  0  0
 26 29  1  0  0  0
 29 34  2  0  0  0
 29 30  1  0  0  0
 30 31  2  0  0  0
 30 51  1  0  0  0
 31 32  1  0  0  0
 31 52  1  0  0  0
 32 33  2  0  0  0
 32 35  1  0  0  0
 33 34  1  0  0  0
 33 53  1  0  0  0
 34 54  1  0  0  0
M  CHG  1  25  -1
M  END
> <i_i_glide_confnum>
270

> <i_i_glide_lignum>
975

> <i_i_glide_posenum>
346

> <i_i_glide_rotatable_bonds>
6

> <i_m_Source_File_Index>
1397

> <b_m_subgroup_collapsed>
0

> <r_i_docking_score>
-5.43622

> <r_i_glide_ecoul>
-4.90226

> <r_i_glide_eff_state_penalty>
0

> <r_i_glide_einternal>
7.22027

> <r_i_glide_emodel>
-61.0696

> <r_i_glide_energy>
-48.1305

> <r_i_glide_erotb>
0.466516

> <r_i_glide_esite>
-0.0972642

> <r_i_glide_evdw>
-43.2282

> <r_i_glide_gscore>
-5.43622

> <r_i_glide_hbond>
-0.302448

> <r_i_glide_ligand_efficiency>
-0.15532

> <r_i_glide_ligand_efficiency_ln>
-1.19337

> <r_i_glide_ligand_efficiency_sa>
-0.508064

> <r_i_glide_lipo>
-2.71833

> <r_i_glide_metal>
0

> <r_i_glide_rewards>
0.112063

> <s_i_glide_gridfile>
wee1_glide-grid

> <s_m_Source_File>
wee1_decoys_glide_SP.sdf

> <s_m_Source_Path>
/Users/zhangxujun/Desktop

> <s_m_entry_id>
1672

> <s_m_entry_name>
wee1_decoys_glide_SP.1397

> <s_m_subgroup_title>
wee1_decoys_glide_SP

> <s_m_subgroupid>
wee1_decoys_glide_SP


$$$$
