ZINC16749487_2458
                    3D
 Schrodinger Suite 2024-2.
 56 60  0  0  1  0            999 V2000
   -1.3509   49.3085   25.0864 C   0  0  0  0  0  0
   -1.1769   50.7151   25.7170 C   0  0  2  0  0  0
   -0.1573   50.7831   26.0990 H   0  0  0  0  0  0
   -2.1874   50.8965   26.8509 C   0  0  0  0  0  0
   -3.2766   51.7155   26.2330 C   0  0  0  0  0  0
   -4.5116   52.0892   26.7620 C   0  0  0  0  0  0
   -5.2934   53.0372   26.0951 C   0  0  0  0  0  0
   -4.8269   53.6204   24.9147 C   0  0  0  0  0  0
   -3.5858   53.2526   24.3963 C   0  0  0  0  0  0
   -2.8243   52.2657   25.0374 C   0  0  0  0  0  0
   -1.5245   51.7886   24.7572 N   0  0  0  0  0  0
   -0.8192   52.0008   23.6119 C   0  0  0  0  0  0
   -1.3271   52.4928   22.6032 O   0  0  0  0  0  0
    0.6864   51.6501   23.5490 C   0  0  0  0  0  0
    1.3981   52.1465   24.6945 O   0  0  0  0  0  0
    1.8107   53.4430   24.7878 C   0  0  0  0  0  0
    1.5045   54.3260   23.9843 O   0  0  0  0  0  0
    2.7716   53.6570   25.9218 C   0  0  0  0  0  0
    2.3689   53.4115   27.2852 C   0  0  0  0  0  0
    1.0543   53.0054   27.6753 C   0  0  0  0  0  0
    0.7403   52.7414   29.0059 C   0  0  0  0  0  0
    1.7012   52.8778   29.9975 C   0  0  0  0  0  0
    2.9878   53.2922   29.6733 C   0  0  0  0  0  0
    3.3344   53.5733   28.3273 C   0  0  0  0  0  0
    4.6290   54.0080   27.9993 C   0  0  0  0  0  0
    5.0389   54.2707   26.6829 C   0  0  0  0  0  0
    4.1103   54.0904   25.6128 C   0  0  0  0  0  0
    4.5935   54.3169   24.2829 C   0  0  0  0  0  0
    5.9044   54.7062   24.0444 C   0  0  0  0  0  0
    6.7765   54.9011   25.0996 C   0  0  0  0  0  0
    6.3637   54.6888   26.4097 C   0  0  0  0  0  0
   -6.8573   53.5592   26.7772 S   0  0  0  0  0  0
   -6.7978   55.0203   26.8815 O   0  0  0  0  0  0
   -7.1485   52.7244   27.9468 O   0  0  0  0  0  0
   -8.0278   53.1724   25.5411 N   0  0  0  0  0  0
   -1.1211   48.5377   25.8251 H   0  0  0  0  0  0
   -2.3801   49.1349   24.7688 H   0  0  0  0  0  0
   -0.6980   49.1344   24.2328 H   0  0  0  0  0  0
   -1.7263   51.4539   27.6670 H   0  0  0  0  0  0
   -2.5247   49.9546   27.2814 H   0  0  0  0  0  0
   -4.8429   51.6780   27.7039 H   0  0  0  0  0  0
   -5.4144   54.3735   24.4087 H   0  0  0  0  0  0
   -3.2357   53.7485   23.5041 H   0  0  0  0  0  0
    0.8308   50.5744   23.4719 H   0  0  0  0  0  0
    1.1054   52.0656   22.6292 H   0  0  0  0  0  0
    0.2785   52.8962   26.9336 H   0  0  0  0  0  0
   -0.2567   52.4226   29.2742 H   0  0  0  0  0  0
    1.4427   52.6628   31.0244 H   0  0  0  0  0  0
    3.7356   53.3937   30.4461 H   0  0  0  0  0  0
    5.3490   54.1381   28.7955 H   0  0  0  0  0  0
    3.9505   54.1745   23.4283 H   0  0  0  0  0  0
    6.2447   54.8629   23.0305 H   0  0  0  0  0  0
    7.7886   55.2006   24.8820 H   0  0  0  0  0  0
    7.0556   54.8239   27.2287 H   0  0  0  0  0  0
   -7.8980   53.6925   24.6689 H   0  0  0  0  0  0
   -8.1509   52.1686   25.3840 H   0  0  0  0  0  0
  1  2  1  0  0  0
  1 36  1  0  0  0
  1 37  1  0  0  0
  1 38  1  0  0  0
  2  3  1  0  0  0
  2 11  1  0  0  0
  2  4  1  0  0  0
  4  5  1  0  0  0
  4 39  1  0  0  0
  4 40  1  0  0  0
  5 10  2  0  0  0
  5  6  1  0  0  0
  6  7  2  0  0  0
  6 41  1  0  0  0
  7  8  1  0  0  0
  7 32  1  0  0  0
  8  9  2  0  0  0
  8 42  1  0  0  0
  9 10  1  0  0  0
  9 43  1  0  0  0
 10 11  1  0  0  0
 11 12  1  0  0  0
 12 13  2  0  0  0
 12 14  1  0  0  0
 14 15  1  0  0  0
 14 44  1  0  0  0
 14 45  1  0  0  0
 15 16  1  0  0  0
 16 17  2  0  0  0
 16 18  1  0  0  0
 18 27  2  0  0  0
 18 19  1  0  0  0
 19 24  2  0  0  0
 19 20  1  0  0  0
 20 21  2  0  0  0
 20 46  1  0  0  0
 21 22  1  0  0  0
 21 47  1  0  0  0
 22 23  2  0  0  0
 22 48  1  0  0  0
 23 24  1  0  0  0
 23 49  1  0  0  0
 24 25  1  0  0  0
 25 26  2  0  0  0
 25 50  1  0  0  0
 26 31  1  0  0  0
 26 27  1  0  0  0
 27 28  1  0  0  0
 28 29  2  0  0  0
 28 51  1  0  0  0
 29 30  1  0  0  0
 29 52  1  0  0  0
 30 31  2  0  0  0
 30 53  1  0  0  0
 31 54  1  0  0  0
 32 33  2  0  0  0
 32 34  2  0  0  0
 32 35  1  0  0  0
 35 55  1  0  0  0
 35 56  1  0  0  0
M  END
> <i_i_glide_confnum>
17

> <i_i_glide_lignum>
2459

> <i_i_glide_posenum>
188

> <i_i_glide_rotatable_bonds>
6

> <i_m_Source_File_Index>
1754

> <b_m_subgroup_collapsed>
0

> <r_i_docking_score>
-5.72982

> <r_i_glide_ecoul>
-3.50537

> <r_i_glide_eff_state_penalty>
0

> <r_i_glide_einternal>
2.15414

> <r_i_glide_emodel>
-64.8888

> <r_i_glide_energy>
-50.2555

> <r_i_glide_erotb>
0.35946

> <r_i_glide_esite>
-0.00647291

> <r_i_glide_evdw>
-46.7502

> <r_i_glide_gscore>
-5.72982

> <r_i_glide_hbond>
0

> <r_i_glide_ligand_efficiency>
-0.168524

> <r_i_glide_ligand_efficiency_ln>
-1.26588

> <r_i_glide_ligand_efficiency_sa>
-0.545952

> <r_i_glide_lipo>
-3.41402

> <r_i_glide_metal>
0

> <r_i_glide_rewards>
0.194534

> <s_i_glide_gridfile>
wee1_glide-grid

> <s_m_Source_File>
wee1_decoys_glide_SP.sdf

> <s_m_Source_Path>
/Users/zhangxujun/Desktop

> <s_m_entry_id>
2029

> <s_m_entry_name>
wee1_decoys_glide_SP.1754

> <s_m_subgroup_title>
wee1_decoys_glide_SP

> <s_m_subgroupid>
wee1_decoys_glide_SP


$$$$
