ZINC06462170_3097
                    3D
 Schrodinger Suite 2024-2.
 67 69  0  0  1  0            999 V2000
   -2.6826   51.4333   21.2955 C   0  0  0  0  0  0
   -3.5225   50.8283   22.4362 C   0  0  0  0  0  0
   -3.3098   51.4333   23.8536 C   0  0  0  0  0  0
   -4.0326   50.5042   24.8608 C   0  0  0  0  0  0
   -3.9639   52.8364   23.9385 C   0  0  0  0  0  0
   -1.8667   51.4810   24.1446 N   0  0  0  0  0  0
   -1.2912   51.9372   25.2708 C   0  0  0  0  0  0
   -1.9211   52.5483   26.1376 O   0  0  0  0  0  0
    0.2173   51.6171   25.4937 C   0  0  2  0  0  0
    0.2210   50.5330   25.5996 H   0  0  0  0  0  0
    0.6789   52.1118   26.8745 C   0  0  0  0  0  0
    1.3967   53.2965   27.1057 C   0  0  0  0  0  0
    1.6943   53.7199   28.3979 C   0  0  0  0  0  0
    1.2404   52.9833   29.4831 C   0  0  0  0  0  0
    0.4937   51.8299   29.2818 C   0  0  0  0  0  0
    0.2398   51.3844   27.9894 C   0  0  0  0  0  0
    1.5038   53.4055   30.7390 F   0  0  0  0  0  0
    1.1588   51.8792   24.3419 N   0  0  0  0  0  0
    1.7632   50.6646   23.7165 C   0  0  0  0  0  0
    0.8789   49.8791   22.7413 C   0  0  0  0  0  0
   -0.1540   49.0808   23.2484 C   0  0  0  0  0  0
   -0.9703   48.3402   22.3973 C   0  0  0  0  0  0
   -0.7417   48.3596   21.0260 C   0  0  0  0  0  0
    0.3290   49.0882   20.5144 C   0  0  0  0  0  0
    1.1628   49.8392   21.3622 C   0  0  0  0  0  0
    2.2742   50.5204   20.9057 O   0  0  0  0  0  0
    2.6349   50.4521   19.5268 C   0  0  0  0  0  0
    1.4418   53.1432   23.8970 C   0  0  0  0  0  0
    0.6916   54.0963   24.0775 O   0  0  0  0  0  0
    2.7494   53.4323   23.3612 C   0  0  0  0  0  0
    3.9029   53.8735   24.0144 C   0  0  0  0  0  0
    4.9660   54.0965   23.1073 C   0  0  0  0  0  0
    4.7099   53.8165   21.8384 N   0  0  0  0  0  0
    3.0953   53.2960   21.6807 S   0  0  0  0  0  0
    6.3107   54.5435   23.4720 C   0  0  0  0  0  0
    6.7059   54.5741   24.6372 O   0  0  0  0  0  0
    7.1045   54.9632   22.4828 N   0  0  0  0  0  0
    3.9920   54.0937   25.3652 N   0  0  0  0  0  0
   -2.9169   50.9489   20.3483 H   0  0  0  0  0  0
   -2.8828   52.4964   21.1844 H   0  0  0  0  0  0
   -1.6128   51.3076   21.4676 H   0  0  0  0  0  0
   -3.3181   49.7573   22.4644 H   0  0  0  0  0  0
   -4.5767   50.8967   22.1667 H   0  0  0  0  0  0
   -5.0922   50.4078   24.6260 H   0  0  0  0  0  0
   -3.6046   49.4999   24.8557 H   0  0  0  0  0  0
   -3.9640   50.8760   25.8834 H   0  0  0  0  0  0
   -5.0206   52.7947   23.6816 H   0  0  0  0  0  0
   -3.9296   53.2573   24.9418 H   0  0  0  0  0  0
   -3.4759   53.5561   23.2813 H   0  0  0  0  0  0
   -1.2718   51.0121   23.4778 H   0  0  0  0  0  0
    1.6673   53.9613   26.3111 H   0  0  0  0  0  0
    2.2386   54.6386   28.5585 H   0  0  0  0  0  0
    0.0836   51.2967   30.1224 H   0  0  0  0  0  0
   -0.3622   50.4963   27.8540 H   0  0  0  0  0  0
    2.7030   50.8937   23.2191 H   0  0  0  0  0  0
    2.0067   49.9336   24.4816 H   0  0  0  0  0  0
   -0.3436   49.0242   24.3095 H   0  0  0  0  0  0
   -1.7740   47.7446   22.8044 H   0  0  0  0  0  0
   -1.3709   47.7864   20.3637 H   0  0  0  0  0  0
    0.5045   49.0446   19.4495 H   0  0  0  0  0  0
    3.5043   51.0814   19.3516 H   0  0  0  0  0  0
    2.8958   49.4358   19.2274 H   0  0  0  0  0  0
    1.8370   50.8218   18.8816 H   0  0  0  0  0  0
    6.8027   54.9155   21.5223 H   0  0  0  0  0  0
    8.0418   55.2685   22.7255 H   0  0  0  0  0  0
    4.8751   54.3848   25.7671 H   0  0  0  0  0  0
    3.2717   53.8085   26.0100 H   0  0  0  0  0  0
  1  2  1  0  0  0
  1 39  1  0  0  0
  1 40  1  0  0  0
  1 41  1  0  0  0
  2  3  1  0  0  0
  2 42  1  0  0  0
  2 43  1  0  0  0
  3  4  1  0  0  0
  3  5  1  0  0  0
  3  6  1  0  0  0
  4 44  1  0  0  0
  4 45  1  0  0  0
  4 46  1  0  0  0
  5 47  1  0  0  0
  5 48  1  0  0  0
  5 49  1  0  0  0
  6  7  1  0  0  0
  6 50  1  0  0  0
  7  8  2  0  0  0
  7  9  1  0  0  0
  9 10  1  0  0  0
  9 11  1  0  0  0
  9 18  1  0  0  0
 11 16  2  0  0  0
 11 12  1  0  0  0
 12 13  2  0  0  0
 12 51  1  0  0  0
 13 14  1  0  0  0
 13 52  1  0  0  0
 14 15  2  0  0  0
 14 17  1  0  0  0
 15 16  1  0  0  0
 15 53  1  0  0  0
 16 54  1  0  0  0
 18 19  1  0  0  0
 18 28  1  0  0  0
 19 20  1  0  0  0
 19 55  1  0  0  0
 19 56  1  0  0  0
 20 25  2  0  0  0
 20 21  1  0  0  0
 21 22  2  0  0  0
 21 57  1  0  0  0
 22 23  1  0  0  0
 22 58  1  0  0  0
 23 24  2  0  0  0
 23 59  1  0  0  0
 24 25  1  0  0  0
 24 60  1  0  0  0
 25 26  1  0  0  0
 26 27  1  0  0  0
 27 61  1  0  0  0
 27 62  1  0  0  0
 27 63  1  0  0  0
 28 29  2  0  0  0
 28 30  1  0  0  0
 30 34  1  0  0  0
 30 31  2  0  0  0
 31 32  1  0  0  0
 31 38  1  0  0  0
 32 33  2  0  0  0
 32 35  1  0  0  0
 33 34  1  0  0  0
 35 36  2  0  0  0
 35 37  1  0  0  0
 37 64  1  0  0  0
 37 65  1  0  0  0
 38 66  1  0  0  0
 38 67  1  0  0  0
M  END
> <i_i_glide_confnum>
247

> <i_i_glide_lignum>
3098

> <i_i_glide_posenum>
234

> <i_i_glide_rotatable_bonds>
12

> <i_m_Source_File_Index>
4893

> <b_m_subgroup_collapsed>
0

> <r_i_docking_score>
-5.11832

> <r_i_glide_ecoul>
-6.44702

> <r_i_glide_eff_state_penalty>
0

> <r_i_glide_einternal>
25.7429

> <r_i_glide_emodel>
-53.1732

> <r_i_glide_energy>
-49.7435

> <r_i_glide_erotb>
0.591903

> <r_i_glide_esite>
-0.0297724

> <r_i_glide_evdw>
-43.2965

> <r_i_glide_gscore>
-5.11832

> <r_i_glide_hbond>
-0.32

> <r_i_glide_ligand_efficiency>
-0.138333

> <r_i_glide_ligand_efficiency_ln>
-1.11004

> <r_i_glide_ligand_efficiency_sa>
-0.460956

> <r_i_glide_lipo>
-1.6526

> <r_i_glide_metal>
0

> <r_i_glide_rewards>
-0.575972

> <s_i_glide_gridfile>
wee1_glide-grid

> <s_m_Source_File>
wee1_decoys_glide_SP.sdf

> <s_m_Source_Path>
/Users/zhangxujun/Desktop

> <s_m_entry_id>
5168

> <s_m_entry_name>
wee1_decoys_glide_SP.4893

> <s_m_subgroup_title>
wee1_decoys_glide_SP

> <s_m_subgroupid>
wee1_decoys_glide_SP


$$$$
