ZINC33939859_4242
                    3D
 Schrodinger Suite 2024-2.
 72 77  0  0  1  0            999 V2000
    5.7059   54.2325   25.6229 C   0  0  0  0  0  0
    5.4560   54.0772   27.1202 C   0  0  0  0  0  0
    6.4200   54.1166   27.8837 O   0  0  0  0  0  0
    4.0343   54.0763   27.5702 C   0  0  0  0  0  0
    3.6747   54.7465   28.7431 C   0  0  0  0  0  0
    2.3476   54.7635   29.1600 C   0  0  0  0  0  0
    1.3813   54.0610   28.4433 C   0  0  0  0  0  0
    1.7177   53.3101   27.2990 C   0  0  0  0  0  0
    3.0555   53.3543   26.8697 C   0  0  0  0  0  0
    0.7458   52.5222   26.5932 N   0  0  0  0  0  0
    0.8718   51.9748   25.1886 C   0  0  1  0  0  0
    1.5041   51.0934   25.1880 H   0  0  0  0  0  0
   -0.5696   51.5722   24.8853 C   0  0  1  0  0  0
   -1.5445   52.6282   24.3548 C   0  0  0  0  0  0
   -2.6619   51.9612   24.0477 C   0  0  0  0  0  0
   -2.3775   50.5302   24.4705 C   0  0  1  0  0  0
   -0.9823   50.4596   24.1220 O   0  0  0  0  0  0
   -2.2824   50.3687   26.0382 C   0  0  1  0  0  0
   -2.2896   49.3044   26.2889 H   0  0  0  0  0  0
   -0.8467   50.9162   26.2071 C   0  0  2  0  0  0
   -0.2355   50.0237   26.3896 H   0  0  0  0  0  0
   -0.3355   51.9343   27.2174 C   0  0  0  0  0  0
   -0.7857   52.0955   28.3506 O   0  0  0  0  0  0
   -3.3911   51.0274   26.9140 C   0  0  0  0  0  0
   -3.9078   52.0954   26.5781 O   0  0  0  0  0  0
   -3.6957   50.3790   28.0592 N   0  0  0  0  0  0
   -4.6859   50.7065   29.0116 C   0  0  0  0  0  0
   -5.8176   51.4887   28.7287 C   0  0  0  0  0  0
   -6.7393   51.7756   29.7327 C   0  0  0  0  0  0
   -6.5404   51.2769   31.0173 C   0  0  0  0  0  0
   -5.4349   50.4805   31.3026 C   0  0  0  0  0  0
   -4.5201   50.1860   30.2964 C   0  0  0  0  0  0
   -3.1827   49.4699   23.7119 C   0  0  0  0  0  0
    1.4676   52.9175   24.1114 C   0  0  0  0  0  0
    1.4158   54.1368   24.2412 O   0  0  0  0  0  0
    2.0735   52.3301   23.0639 N   0  0  0  0  0  0
    2.8101   53.0235   22.0006 C   0  0  0  0  0  0
    4.1528   53.6708   22.4423 C   0  0  0  0  0  0
    4.9861   54.2972   21.3027 C   0  0  0  0  0  0
    5.1035   53.3724   20.0786 C   0  0  0  0  0  0
    3.7270   52.8942   19.5920 C   0  0  0  0  0  0
    2.9361   52.1852   20.7083 C   0  0  0  0  0  0
    5.5030   53.2982   25.1024 H   0  0  0  0  0  0
    5.0459   54.9984   25.2167 H   0  0  0  0  0  0
    6.7347   54.5358   25.4297 H   0  0  0  0  0  0
    4.4143   55.2906   29.3143 H   0  0  0  0  0  0
    2.0636   55.3237   30.0390 H   0  0  0  0  0  0
    0.3652   54.1201   28.7986 H   0  0  0  0  0  0
    3.3541   52.8007   25.9962 H   0  0  0  0  0  0
   -1.3357   53.6844   24.2803 H   0  0  0  0  0  0
   -3.6068   52.3311   23.6809 H   0  0  0  0  0  0
   -3.0777   49.6127   28.3179 H   0  0  0  0  0  0
   -6.0007   51.8738   27.7382 H   0  0  0  0  0  0
   -7.6108   52.3746   29.5129 H   0  0  0  0  0  0
   -7.2552   51.4950   31.7978 H   0  0  0  0  0  0
   -5.2839   50.0957   32.2998 H   0  0  0  0  0  0
   -3.6823   49.5536   30.5309 H   0  0  0  0  0  0
   -4.2404   49.5291   23.9687 H   0  0  0  0  0  0
   -3.0913   49.6042   22.6341 H   0  0  0  0  0  0
   -2.8345   48.4659   23.9556 H   0  0  0  0  0  0
    2.0746   51.3219   23.0139 H   0  0  0  0  0  0
    2.1895   53.8696   21.6976 H   0  0  0  0  0  0
    4.7762   52.9010   22.8939 H   0  0  0  0  0  0
    3.9725   54.4297   23.2047 H   0  0  0  0  0  0
    5.9829   54.5376   21.6738 H   0  0  0  0  0  0
    4.5573   55.2570   21.0051 H   0  0  0  0  0  0
    5.7031   52.4983   20.3273 H   0  0  0  0  0  0
    5.6291   53.8840   19.2719 H   0  0  0  0  0  0
    3.8542   52.2172   18.7441 H   0  0  0  0  0  0
    3.1492   53.7399   19.2166 H   0  0  0  0  0  0
    1.9460   51.9217   20.3329 H   0  0  0  0  0  0
    3.4476   51.2496   20.9385 H   0  0  0  0  0  0
  1  2  1  0  0  0
  1 43  1  0  0  0
  1 44  1  0  0  0
  1 45  1  0  0  0
  2  3  2  0  0  0
  2  4  1  0  0  0
  4  9  2  0  0  0
  4  5  1  0  0  0
  5  6  2  0  0  0
  5 46  1  0  0  0
  6  7  1  0  0  0
  6 47  1  0  0  0
  7  8  2  0  0  0
  7 48  1  0  0  0
  8  9  1  0  0  0
  8 10  1  0  0  0
  9 49  1  0  0  0
 10 22  1  0  0  0
 10 11  1  0  0  0
 11 12  1  0  0  0
 11 13  1  0  0  0
 11 34  1  0  0  0
 13 17  1  0  0  0
 13 20  1  0  0  0
 13 14  1  0  0  0
 14 15  2  0  0  0
 14 50  1  0  0  0
 15 16  1  0  0  0
 15 51  1  0  0  0
 16 17  1  0  0  0
 16 18  1  0  0  0
 16 33  1  0  0  0
 18 19  1  0  0  0
 18 20  1  0  0  0
 18 24  1  0  0  0
 20 21  1  0  0  0
 20 22  1  0  0  0
 22 23  2  0  0  0
 24 25  2  0  0  0
 24 26  1  0  0  0
 26 27  1  0  0  0
 26 52  1  0  0  0
 27 32  2  0  0  0
 27 28  1  0  0  0
 28 29  2  0  0  0
 28 53  1  0  0  0
 29 30  1  0  0  0
 29 54  1  0  0  0
 30 31  2  0  0  0
 30 55  1  0  0  0
 31 32  1  0  0  0
 31 56  1  0  0  0
 32 57  1  0  0  0
 33 58  1  0  0  0
 33 59  1  0  0  0
 33 60  1  0  0  0
 34 35  2  0  0  0
 34 36  1  0  0  0
 36 37  1  0  0  0
 36 61  1  0  0  0
 37 42  1  0  0  0
 37 38  1  0  0  0
 37 62  1  0  0  0
 38 39  1  0  0  0
 38 63  1  0  0  0
 38 64  1  0  0  0
 39 40  1  0  0  0
 39 65  1  0  0  0
 39 66  1  0  0  0
 40 41  1  0  0  0
 40 67  1  0  0  0
 40 68  1  0  0  0
 41 42  1  0  0  0
 41 69  1  0  0  0
 41 70  1  0  0  0
 42 71  1  0  0  0
 42 72  1  0  0  0
M  END
> <i_i_glide_confnum>
127

> <i_i_glide_lignum>
4243

> <i_i_glide_posenum>
328

> <i_i_glide_rotatable_bonds>
8

> <i_m_Source_File_Index>
3710

> <b_m_subgroup_collapsed>
0

> <r_i_docking_score>
-6.14997

> <r_i_glide_ecoul>
-5.8534

> <r_i_glide_eff_state_penalty>
0

> <r_i_glide_einternal>
12.1532

> <r_i_glide_emodel>
-72.0915

> <r_i_glide_energy>
-57.6502

> <r_i_glide_erotb>
0.517917

> <r_i_glide_esite>
-0.166755

> <r_i_glide_evdw>
-51.7968

> <r_i_glide_gscore>
-6.14997

> <r_i_glide_hbond>
-0.16

> <r_i_glide_ligand_efficiency>
-0.157691

> <r_i_glide_ligand_efficiency_ln>
-1.31873

> <r_i_glide_ligand_efficiency_sa>
-0.534765

> <r_i_glide_lipo>
-2.07169

> <r_i_glide_metal>
0

> <r_i_glide_rewards>
-0.801589

> <s_i_glide_gridfile>
wee1_glide-grid

> <s_m_Source_File>
wee1_decoys_glide_SP.sdf

> <s_m_Source_Path>
/Users/zhangxujun/Desktop

> <s_m_entry_id>
3985

> <s_m_entry_name>
wee1_decoys_glide_SP.3710

> <s_m_subgroup_title>
wee1_decoys_glide_SP

> <s_m_subgroupid>
wee1_decoys_glide_SP


$$$$
