ZINC39688736_346
                    3D
 Schrodinger Suite 2024-2.
 69 73  0  0  1  0            999 V2000
    0.2603   51.9716   29.4553 C   0  0  0  0  0  0
    1.1394   52.7545   28.4571 C   0  0  1  0  0  0
    0.8638   53.8110   28.5231 H   0  0  0  0  0  0
    2.6412   52.6474   28.8457 C   0  0  0  0  0  0
    3.6953   53.3960   28.0138 C   0  0  0  0  0  0
    3.3851   54.1487   26.8746 C   0  0  0  0  0  0
    4.4012   54.7475   26.1323 C   0  0  0  0  0  0
    5.7263   54.6343   26.5435 C   0  0  0  0  0  0
    6.0454   53.9106   27.6874 C   0  0  0  0  0  0
    5.0315   53.2926   28.4153 C   0  0  0  0  0  0
    6.7058   55.2374   25.8320 F   0  0  0  0  0  0
    0.9015   52.3334   27.0745 N   0  0  0  0  0  0
   -0.2504   52.4244   26.3801 C   0  0  0  0  0  0
   -1.3041   52.7950   26.8827 O   0  0  0  0  0  0
   -0.2733   52.0771   24.8721 C   0  0  1  0  0  0
   -0.8491   52.8670   24.3853 H   0  0  0  0  0  0
    1.1316   52.2061   24.2700 C   0  0  0  0  0  0
    1.0836   51.3475   23.0949 N   0  0  0  0  0  0
   -0.0586   50.4154   23.1493 C   0  0  0  0  0  0
   -0.7802   50.6615   24.5025 C   0  0  0  0  0  0
   -0.4054   49.5674   25.5611 C   0  0  0  0  0  0
   -0.9639   48.1653   25.2259 C   0  0  0  0  0  0
   -2.4841   48.2598   24.9998 N   0  3  0  0  0  0
   -2.8863   49.3106   23.9471 C   0  0  0  0  0  0
   -2.3281   50.6617   24.4166 C   0  0  0  0  0  0
    1.8367   51.4917   21.9660 C   0  0  0  0  0  0
    1.6341   50.7901   20.9724 O   0  0  0  0  0  0
    2.9070   52.4900   21.9217 C   0  0  0  0  0  0
    3.5503   53.2967   22.8674 C   0  0  0  0  0  0
    4.5426   54.0134   22.2076 C   0  0  0  0  0  0
    4.5121   53.6191   20.8812 C   0  0  0  0  0  0
    3.5256   52.6919   20.7222 O   0  0  0  0  0  0
    5.3330   53.9893   19.6931 C   0  0  0  0  0  0
    6.2685   55.0259   19.7925 C   0  0  0  0  0  0
    7.0661   55.3584   18.7002 C   0  0  0  0  0  0
    6.9259   54.6579   17.5058 C   0  0  0  0  0  0
    5.9920   53.6323   17.3938 C   0  0  0  0  0  0
    5.1948   53.2985   18.4853 C   0  0  0  0  0  0
    7.7029   54.9781   16.4462 F   0  0  0  0  0  0
    0.5579   52.1585   30.4879 H   0  0  0  0  0  0
   -0.7883   52.2654   29.3937 H   0  0  0  0  0  0
    0.3299   50.8971   29.2825 H   0  0  0  0  0  0
    2.9197   51.5925   28.8396 H   0  0  0  0  0  0
    2.7548   52.9796   29.8789 H   0  0  0  0  0  0
    2.3691   54.2779   26.5391 H   0  0  0  0  0  0
    4.1604   55.3030   25.2405 H   0  0  0  0  0  0
    7.0734   53.8263   28.0066 H   0  0  0  0  0  0
    5.2924   52.7079   29.2817 H   0  0  0  0  0  0
    1.7153   51.9885   26.5944 H   0  0  0  0  0  0
    1.2976   53.2609   24.0490 H   0  0  0  0  0  0
    1.8875   51.7588   24.9149 H   0  0  0  0  0  0
    0.1785   49.3703   22.9495 H   0  0  0  0  0  0
   -0.7385   50.7486   22.3628 H   0  0  0  0  0  0
    0.6785   49.5055   25.6724 H   0  0  0  0  0  0
   -0.7738   49.8289   26.5548 H   0  0  0  0  0  0
   -0.5235   47.7100   24.3380 H   0  0  0  0  0  0
   -0.8956   47.4813   26.0727 H   0  0  0  0  0  0
   -2.8515   47.3526   24.7510 H   0  0  0  0  0  0
   -2.4866   48.9791   22.9875 H   0  0  0  0  0  0
   -3.9776   49.3024   23.9076 H   0  0  0  0  0  0
   -2.7707   50.9558   25.3706 H   0  0  0  0  0  0
   -2.6550   51.4224   23.7052 H   0  0  0  0  0  0
    3.3719   53.3534   23.9282 H   0  0  0  0  0  0
    5.2264   54.7200   22.6535 H   0  0  0  0  0  0
    6.3892   55.5714   20.7165 H   0  0  0  0  0  0
    7.7932   56.1528   18.7747 H   0  0  0  0  0  0
    5.8902   53.0882   16.4675 H   0  0  0  0  0  0
    4.4787   52.4956   18.3873 H   0  0  0  0  0  0
   -2.9033   48.5006   25.8901 H   0  0  0  0  0  0
  1  2  1  0  0  0
  1 40  1  0  0  0
  1 41  1  0  0  0
  1 42  1  0  0  0
  2  3  1  0  0  0
  2  4  1  0  0  0
  2 12  1  0  0  0
  4  5  1  0  0  0
  4 43  1  0  0  0
  4 44  1  0  0  0
  5 10  2  0  0  0
  5  6  1  0  0  0
  6  7  2  0  0  0
  6 45  1  0  0  0
  7  8  1  0  0  0
  7 46  1  0  0  0
  8  9  2  0  0  0
  8 11  1  0  0  0
  9 10  1  0  0  0
  9 47  1  0  0  0
 10 48  1  0  0  0
 12 13  1  0  0  0
 12 49  1  0  0  0
 13 14  2  0  0  0
 13 15  1  0  0  0
 15 16  1  0  0  0
 15 20  1  0  0  0
 15 17  1  0  0  0
 17 18  1  0  0  0
 17 50  1  0  0  0
 17 51  1  0  0  0
 18 19  1  0  0  0
 18 26  1  0  0  0
 19 20  1  0  0  0
 19 52  1  0  0  0
 19 53  1  0  0  0
 20 25  1  0  0  0
 20 21  1  0  0  0
 21 22  1  0  0  0
 21 54  1  0  0  0
 21 55  1  0  0  0
 22 23  1  0  0  0
 22 56  1  0  0  0
 22 57  1  0  0  0
 23 24  1  0  0  0
 23 58  1  0  0  0
 23 69  1  0  0  0
 24 25  1  0  0  0
 24 59  1  0  0  0
 24 60  1  0  0  0
 25 61  1  0  0  0
 25 62  1  0  0  0
 26 27  2  0  0  0
 26 28  1  0  0  0
 28 32  1  0  0  0
 28 29  2  0  0  0
 29 30  1  0  0  0
 29 63  1  0  0  0
 30 31  2  0  0  0
 30 64  1  0  0  0
 31 32  1  0  0  0
 31 33  1  0  0  0
 33 38  2  0  0  0
 33 34  1  0  0  0
 34 35  2  0  0  0
 34 65  1  0  0  0
 35 36  1  0  0  0
 35 66  1  0  0  0
 36 37  2  0  0  0
 36 39  1  0  0  0
 37 38  1  0  0  0
 37 67  1  0  0  0
 38 68  1  0  0  0
M  CHG  1  23   1
M  END
> <i_i_glide_confnum>
245

> <i_i_glide_lignum>
347

> <i_i_glide_posenum>
151

> <i_i_glide_rotatable_bonds>
8

> <i_m_Source_File_Index>
3737

> <b_m_subgroup_collapsed>
0

> <r_i_docking_score>
-5.06054

> <r_i_glide_ecoul>
-1.49616

> <r_i_glide_eff_state_penalty>
0

> <r_i_glide_einternal>
6.19611

> <r_i_glide_emodel>
-53.545

> <r_i_glide_energy>
-42.2672

> <r_i_glide_erotb>
0.5541

> <r_i_glide_esite>
-0.0562496

> <r_i_glide_evdw>
-40.7711

> <r_i_glide_gscore>
-5.06054

> <r_i_glide_hbond>
0

> <r_i_glide_ligand_efficiency>
-0.136771

> <r_i_glide_ligand_efficiency_ln>
-1.09751

> <r_i_glide_ligand_efficiency_sa>
-0.455753

> <r_i_glide_lipo>
-2.70637

> <r_i_glide_metal>
0

> <r_i_glide_rewards>
-0.589045

> <s_i_glide_gridfile>
wee1_glide-grid

> <s_m_Source_File>
wee1_decoys_glide_SP.sdf

> <s_m_Source_Path>
/Users/zhangxujun/Desktop

> <s_m_entry_id>
4012

> <s_m_entry_name>
wee1_decoys_glide_SP.3737

> <s_m_subgroup_title>
wee1_decoys_glide_SP

> <s_m_subgroupid>
wee1_decoys_glide_SP


$$$$
