ZINC36796621_4341
                    3D
 Schrodinger Suite 2024-2.
 49 51  0  0  1  0            999 V2000
    1.8673   51.6210   20.7866 C   0  0  0  0  0  0
    2.7145   52.3512   21.8494 C   0  0  1  0  0  0
    2.9660   51.5944   22.5909 H   0  0  0  0  0  0
    4.0366   52.8779   21.2606 C   0  0  0  0  0  0
    5.1042   52.4280   21.6820 O   0  0  0  0  0  0
    3.9066   53.8193   20.3024 N   0  0  0  0  0  0
    4.8790   54.4965   19.6634 C   0  0  0  0  0  0
    6.0768   54.4984   19.9546 O   0  0  0  0  0  0
    4.3658   55.2090   18.6470 N   0  0  0  0  0  0
    5.1454   55.9503   17.6513 C   0  0  0  0  0  0
    5.7237   55.0174   16.5576 C   0  0  0  0  0  0
    4.6135   54.3241   15.7355 C   0  0  0  0  0  0
    3.6538   55.3537   15.1010 C   0  0  0  0  0  0
    3.1187   56.3761   16.1263 C   0  0  0  0  0  0
    4.2654   57.0071   16.9472 C   0  0  0  0  0  0
    1.7655   53.6570   22.7122 S   0  0  0  0  0  0
    2.5663   53.7061   24.3233 C   0  0  0  0  0  0
    1.9157   53.5592   25.3929 N   0  0  0  0  0  0
    2.7134   53.7064   26.4783 N   0  0  0  0  0  0
    4.0458   53.9382   26.2558 C   0  0  0  0  0  0
    5.3314   54.0960   27.3071 S   0  0  0  0  0  0
    4.2830   54.0741   24.5314 S   0  0  0  0  0  0
    2.0942   53.6752   27.7482 C   0  0  0  0  0  0
    2.1256   54.8110   28.5693 C   0  0  0  0  0  0
    1.4517   54.8161   29.7867 C   0  0  0  0  0  0
    0.7412   53.6852   30.1842 C   0  0  0  0  0  0
    0.7019   52.5501   29.3747 C   0  0  0  0  0  0
    1.3783   52.5427   28.1559 C   0  0  0  0  0  0
   -0.0925   53.6975   31.6914 Cl  0  0  0  0  0  0
    2.4402   50.8412   20.2815 H   0  0  0  0  0  0
    1.0019   51.1385   21.2429 H   0  0  0  0  0  0
    1.4961   52.3061   20.0239 H   0  0  0  0  0  0
    2.9569   54.0530   20.0469 H   0  0  0  0  0  0
    3.4206   54.9973   18.3684 H   0  0  0  0  0  0
    5.9551   56.4705   18.1696 H   0  0  0  0  0  0
    6.3723   54.2661   17.0116 H   0  0  0  0  0  0
    6.3668   55.5935   15.8923 H   0  0  0  0  0  0
    4.0506   53.6431   16.3773 H   0  0  0  0  0  0
    5.0599   53.7023   14.9596 H   0  0  0  0  0  0
    2.8245   54.8401   14.6138 H   0  0  0  0  0  0
    4.1813   55.8906   14.3109 H   0  0  0  0  0  0
    2.4033   55.8876   16.7936 H   0  0  0  0  0  0
    2.5599   57.1579   15.6127 H   0  0  0  0  0  0
    4.8851   57.6153   16.2889 H   0  0  0  0  0  0
    3.8546   57.6991   17.6818 H   0  0  0  0  0  0
    2.6600   55.6956   28.2614 H   0  0  0  0  0  0
    1.4724   55.6976   30.4141 H   0  0  0  0  0  0
    0.1359   51.6823   29.6840 H   0  0  0  0  0  0
    1.3280   51.6642   27.5249 H   0  0  0  0  0  0
  1  2  1  0  0  0
  1 30  1  0  0  0
  1 31  1  0  0  0
  1 32  1  0  0  0
  2  3  1  0  0  0
  2  4  1  0  0  0
  2 16  1  0  0  0
  4  5  2  0  0  0
  4  6  1  0  0  0
  6  7  1  0  0  0
  6 33  1  0  0  0
  7  8  2  0  0  0
  7  9  1  0  0  0
  9 10  1  0  0  0
  9 34  1  0  0  0
 10 15  1  0  0  0
 10 11  1  0  0  0
 10 35  1  0  0  0
 11 12  1  0  0  0
 11 36  1  0  0  0
 11 37  1  0  0  0
 12 13  1  0  0  0
 12 38  1  0  0  0
 12 39  1  0  0  0
 13 14  1  0  0  0
 13 40  1  0  0  0
 13 41  1  0  0  0
 14 15  1  0  0  0
 14 42  1  0  0  0
 14 43  1  0  0  0
 15 44  1  0  0  0
 15 45  1  0  0  0
 16 17  1  0  0  0
 17 22  1  0  0  0
 17 18  2  0  0  0
 18 19  1  0  0  0
 19 20  1  0  0  0
 19 23  1  0  0  0
 20 21  2  0  0  0
 20 22  1  0  0  0
 23 28  2  0  0  0
 23 24  1  0  0  0
 24 25  2  0  0  0
 24 46  1  0  0  0
 25 26  1  0  0  0
 25 47  1  0  0  0
 26 27  2  0  0  0
 26 29  1  0  0  0
 27 28  1  0  0  0
 27 48  1  0  0  0
 28 49  1  0  0  0
M  END
> <i_i_glide_confnum>
157

> <i_i_glide_lignum>
4342

> <i_i_glide_posenum>
307

> <i_i_glide_rotatable_bonds>
8

> <i_m_Source_File_Index>
864

> <b_m_subgroup_collapsed>
0

> <r_i_docking_score>
-6.00545

> <r_i_glide_ecoul>
-4.89847

> <r_i_glide_eff_state_penalty>
0

> <r_i_glide_einternal>
8.13834

> <r_i_glide_emodel>
-64.9379

> <r_i_glide_energy>
-49.9329

> <r_i_glide_erotb>
0.673645

> <r_i_glide_esite>
-0.0149139

> <r_i_glide_evdw>
-45.0344

> <r_i_glide_gscore>
-6.00545

> <r_i_glide_hbond>
-0.32

> <r_i_glide_ligand_efficiency>
-0.21448

> <r_i_glide_ligand_efficiency_ln>
-1.38623

> <r_i_glide_ligand_efficiency_sa>
-0.651288

> <r_i_glide_lipo>
-2.21509

> <r_i_glide_metal>
0

> <r_i_glide_rewards>
-1.1426

> <s_i_glide_gridfile>
wee1_glide-grid

> <s_m_Source_File>
wee1_decoys_glide_SP.sdf

> <s_m_Source_Path>
/Users/zhangxujun/Desktop

> <s_m_entry_id>
1139

> <s_m_entry_name>
wee1_decoys_glide_SP.864

> <s_m_subgroup_title>
wee1_decoys_glide_SP

> <s_m_subgroupid>
wee1_decoys_glide_SP


$$$$
