ZINC32964323_5465
                    3D
 Schrodinger Suite 2024-2.
 55 59  0  0  1  0            999 V2000
    0.9003   55.3716   15.6468 C   0  0  0  0  0  0
    2.2369   55.6343   16.3242 C   0  0  0  0  0  0
    2.6832   56.9508   16.4782 C   0  0  0  0  0  0
    3.9047   57.2149   17.0973 C   0  0  0  0  0  0
    4.6804   56.1605   17.5766 C   0  0  0  0  0  0
    4.2401   54.8454   17.4259 C   0  0  0  0  0  0
    3.0133   54.5630   16.7972 C   0  0  0  0  0  0
    2.5266   53.2795   16.5941 O   0  0  0  0  0  0
    3.0947   52.1583   17.2840 C   0  0  0  0  0  0
    2.7043   52.1560   18.7562 C   0  0  0  0  0  0
    3.5371   52.4232   19.6786 N   0  0  0  0  0  0
    2.9091   52.5002   20.9281 N   0  0  0  0  0  0
    3.6086   52.8955   22.1179 C   0  0  0  0  0  0
    4.8677   52.9907   22.0811 N   0  0  0  0  0  0
    2.7213   53.1075   23.2932 C   0  0  0  0  0  0
    3.1502   53.6095   24.5020 C   0  0  0  0  0  0
    4.4315   54.0969   25.0562 C   0  0  0  0  0  0
    5.5350   54.6872   24.4391 C   0  0  0  0  0  0
    6.5270   54.9363   25.3731 C   0  0  0  0  0  0
    6.0022   54.5673   26.5936 C   0  0  0  0  0  0
    4.7142   54.0909   26.4324 N   0  0  0  0  0  0
    3.8951   53.7145   27.5356 C   0  0  0  0  0  0
    2.6027   54.2306   27.6721 C   0  0  0  0  0  0
    1.8067   53.9048   28.7670 C   0  0  0  0  0  0
    2.3106   53.0903   29.7896 C   0  0  0  0  0  0
    3.6216   52.6116   29.6822 C   0  0  0  0  0  0
    4.4018   52.8999   28.5586 C   0  0  0  0  0  0
    4.3045   51.6969   30.9752 Cl  0  0  0  0  0  0
    1.5990   52.7429   30.9233 O   0  0  0  0  0  0
    0.2802   53.2407   31.1129 C   0  0  0  0  0  0
    1.2628   52.7636   23.2003 C   0  0  0  0  0  0
    0.5492   52.8404   24.2040 O   0  0  0  0  0  0
    0.7606   52.3727   21.9493 N   0  0  0  0  0  0
    1.5232   52.2781   20.9361 C   0  0  0  0  0  0
    1.0045   51.8928   19.2854 S   0  0  0  0  0  0
    0.4303   56.2869   15.2824 H   0  0  0  0  0  0
    1.0370   54.7016   14.7968 H   0  0  0  0  0  0
    0.2193   54.8809   16.3417 H   0  0  0  0  0  0
    2.0863   57.7789   16.1215 H   0  0  0  0  0  0
    4.2428   58.2360   17.2102 H   0  0  0  0  0  0
    5.6259   56.3635   18.0595 H   0  0  0  0  0  0
    4.8745   54.0572   17.7960 H   0  0  0  0  0  0
    4.1748   52.0983   17.1350 H   0  0  0  0  0  0
    2.7028   51.2576   16.8101 H   0  0  0  0  0  0
    5.1954   52.7812   21.1488 H   0  0  0  0  0  0
    2.4022   53.6766   25.2705 H   0  0  0  0  0  0
    5.6344   54.9129   23.3894 H   0  0  0  0  0  0
    7.5009   55.3555   25.1621 H   0  0  0  0  0  0
    6.4291   54.6362   27.5855 H   0  0  0  0  0  0
    2.2002   54.8951   26.9323 H   0  0  0  0  0  0
    0.8088   54.3113   28.8163 H   0  0  0  0  0  0
    5.4083   52.5057   28.4953 H   0  0  0  0  0  0
   -0.0955   52.9000   32.0777 H   0  0  0  0  0  0
   -0.4002   52.8734   30.3448 H   0  0  0  0  0  0
    0.2592   54.3300   31.1230 H   0  0  0  0  0  0
  1  2  1  0  0  0
  1 36  1  0  0  0
  1 37  1  0  0  0
  1 38  1  0  0  0
  2  7  2  0  0  0
  2  3  1  0  0  0
  3  4  2  0  0  0
  3 39  1  0  0  0
  4  5  1  0  0  0
  4 40  1  0  0  0
  5  6  2  0  0  0
  5 41  1  0  0  0
  6  7  1  0  0  0
  6 42  1  0  0  0
  7  8  1  0  0  0
  8  9  1  0  0  0
  9 10  1  0  0  0
  9 43  1  0  0  0
  9 44  1  0  0  0
 10 35  1  0  0  0
 10 11  2  0  0  0
 11 12  1  0  0  0
 12 34  1  0  0  0
 12 13  1  0  0  0
 13 14  2  0  0  0
 13 15  1  0  0  0
 14 45  1  0  0  0
 15 16  2  0  0  0
 15 31  1  0  0  0
 16 17  1  0  0  0
 16 46  1  0  0  0
 17 21  1  0  0  0
 17 18  2  0  0  0
 18 19  1  0  0  0
 18 47  1  0  0  0
 19 20  2  0  0  0
 19 48  1  0  0  0
 20 21  1  0  0  0
 20 49  1  0  0  0
 21 22  1  0  0  0
 22 27  2  0  0  0
 22 23  1  0  0  0
 23 24  2  0  0  0
 23 50  1  0  0  0
 24 25  1  0  0  0
 24 51  1  0  0  0
 25 26  2  0  0  0
 25 29  1  0  0  0
 26 27  1  0  0  0
 26 28  1  0  0  0
 27 52  1  0  0  0
 29 30  1  0  0  0
 30 53  1  0  0  0
 30 54  1  0  0  0
 30 55  1  0  0  0
 31 32  2  0  0  0
 31 33  1  0  0  0
 33 34  2  0  0  0
 34 35  1  0  0  0
M  END
> <i_i_glide_confnum>
121

> <i_i_glide_lignum>
5466

> <i_i_glide_posenum>
221

> <i_i_glide_rotatable_bonds>
6

> <i_m_Source_File_Index>
2694

> <b_m_subgroup_collapsed>
0

> <r_i_docking_score>
-6.54902

> <r_i_glide_ecoul>
-4.24045

> <r_i_glide_eff_state_penalty>
0

> <r_i_glide_einternal>
1.30766

> <r_i_glide_emodel>
-75.2489

> <r_i_glide_energy>
-53.4393

> <r_i_glide_erotb>
0.39953

> <r_i_glide_esite>
-0.0844467

> <r_i_glide_evdw>
-49.1988

> <r_i_glide_gscore>
-6.54902

> <r_i_glide_hbond>
-0.0159176

> <r_i_glide_ligand_efficiency>
-0.187115

> <r_i_glide_ligand_efficiency_ln>
-1.43765

> <r_i_glide_ligand_efficiency_sa>
-0.612065

> <r_i_glide_lipo>
-3.06466

> <r_i_glide_metal>
0

> <r_i_glide_rewards>
-0.687518

> <s_i_glide_gridfile>
wee1_glide-grid

> <s_m_Source_File>
wee1_decoys_glide_SP.sdf

> <s_m_Source_Path>
/Users/zhangxujun/Desktop

> <s_m_entry_id>
2969

> <s_m_entry_name>
wee1_decoys_glide_SP.2694

> <s_m_subgroup_title>
wee1_decoys_glide_SP

> <s_m_subgroupid>
wee1_decoys_glide_SP


$$$$
