ZINC32217754_4842
                    3D
 Schrodinger Suite 2024-2.
 69 72  0  0  1  0            999 V2000
    5.4155   54.0151   22.8276 C   0  0  0  0  0  0
    6.1974   54.2989   24.1288 C   0  0  0  0  0  0
    6.9602   55.6319   24.0329 C   0  0  0  0  0  0
    5.3596   54.2450   25.4108 C   0  0  0  0  0  0
    6.0132   54.0986   26.6392 C   0  0  0  0  0  0
    5.2896   54.1191   27.8277 C   0  0  0  0  0  0
    3.9021   54.2809   27.7915 C   0  0  0  0  0  0
    3.2430   54.3841   26.5716 C   0  0  0  0  0  0
    3.9655   54.3735   25.3854 C   0  0  0  0  0  0
    2.9721   54.4450   29.3115 S   0  0  0  0  0  0
    3.9044   54.0963   30.3878 O   0  0  0  0  0  0
    2.3159   55.7568   29.2707 O   0  0  0  0  0  0
    1.7279   53.1917   29.3144 N   0  0  0  0  0  0
    2.1371   51.7829   29.3488 C   0  0  0  0  0  0
    1.9052   51.1611   27.9681 C   0  0  0  0  0  0
    0.3948   51.2506   27.6124 C   0  0  0  0  0  0
   -0.0660   52.7385   27.6250 C   0  0  0  0  0  0
    0.3185   53.4553   28.9393 C   0  0  0  0  0  0
    0.1679   50.7046   26.1845 C   0  0  0  0  0  0
    0.6636   51.2690   25.2073 O   0  0  0  0  0  0
   -0.6218   49.6269   26.0818 N   0  0  0  0  0  0
   -1.0893   49.0029   24.8448 C   0  0  0  0  0  0
   -2.6136   48.6997   24.8379 C   0  0  2  0  0  0
   -2.8398   48.0515   23.9888 H   0  0  0  0  0  0
   -3.5180   49.9275   24.7737 C   0  0  0  0  0  0
   -4.5355   50.1928   23.8547 C   0  0  0  0  0  0
   -5.2330   51.3805   24.0821 C   0  0  0  0  0  0
   -4.7466   52.0785   25.1716 C   0  0  0  0  0  0
   -3.4364   51.2421   25.9281 S   0  0  0  0  0  0
   -3.0084   47.8580   26.0817 N   0  3  0  0  0  0
   -4.5080   47.5357   26.2328 C   0  0  0  0  0  0
   -4.5482   46.3822   27.2337 C   0  0  0  0  0  0
   -3.1807   45.6976   27.1739 C   0  0  0  0  0  0
   -2.3256   46.4843   26.1780 C   0  0  0  0  0  0
    4.8817   53.0657   22.8809 H   0  0  0  0  0  0
    6.0887   53.9593   21.9727 H   0  0  0  0  0  0
    4.6893   54.7973   22.6058 H   0  0  0  0  0  0
    6.9395   53.5018   24.2101 H   0  0  0  0  0  0
    7.6737   55.7372   24.8484 H   0  0  0  0  0  0
    7.5045   55.7017   23.0921 H   0  0  0  0  0  0
    6.3044   56.4963   24.0851 H   0  0  0  0  0  0
    7.0873   53.9908   26.6785 H   0  0  0  0  0  0
    5.8169   54.0434   28.7684 H   0  0  0  0  0  0
    2.1732   54.4966   26.5403 H   0  0  0  0  0  0
    3.4282   54.4845   24.4563 H   0  0  0  0  0  0
    3.1940   51.7287   29.6140 H   0  0  0  0  0  0
    1.5659   51.2968   30.1357 H   0  0  0  0  0  0
    2.5074   51.7554   27.2817 H   0  0  0  0  0  0
    2.2979   50.1447   28.0346 H   0  0  0  0  0  0
   -0.1991   50.6514   28.3051 H   0  0  0  0  0  0
   -1.1477   52.8216   27.5147 H   0  0  0  0  0  0
    0.4400   53.2964   26.8414 H   0  0  0  0  0  0
   -0.3153   53.1463   29.7716 H   0  0  0  0  0  0
    0.1788   54.5283   28.8292 H   0  0  0  0  0  0
   -0.8951   49.1662   26.9544 H   0  0  0  0  0  0
   -0.8530   49.6151   23.9711 H   0  0  0  0  0  0
   -0.5181   48.0865   24.6914 H   0  0  0  0  0  0
   -4.7806   49.5228   23.0430 H   0  0  0  0  0  0
   -6.0581   51.7163   23.4691 H   0  0  0  0  0  0
   -5.0937   53.0222   25.5663 H   0  0  0  0  0  0
   -5.0308   48.4402   26.5499 H   0  0  0  0  0  0
   -4.8621   47.2506   25.2403 H   0  0  0  0  0  0
   -4.7363   46.7670   28.2372 H   0  0  0  0  0  0
   -5.3569   45.6896   26.9982 H   0  0  0  0  0  0
   -3.2751   44.6520   26.8817 H   0  0  0  0  0  0
   -2.7068   45.6978   28.1581 H   0  0  0  0  0  0
   -2.3380   46.0649   25.1721 H   0  0  0  0  0  0
   -1.2960   46.6551   26.4899 H   0  0  0  0  0  0
   -2.7091   48.3730   26.9109 H   0  0  0  0  0  0
  1  2  1  0  0  0
  1 35  1  0  0  0
  1 36  1  0  0  0
  1 37  1  0  0  0
  2  3  1  0  0  0
  2  4  1  0  0  0
  2 38  1  0  0  0
  3 39  1  0  0  0
  3 40  1  0  0  0
  3 41  1  0  0  0
  4  9  2  0  0  0
  4  5  1  0  0  0
  5  6  2  0  0  0
  5 42  1  0  0  0
  6  7  1  0  0  0
  6 43  1  0  0  0
  7  8  2  0  0  0
  7 10  1  0  0  0
  8  9  1  0  0  0
  8 44  1  0  0  0
  9 45  1  0  0  0
 10 11  2  0  0  0
 10 12  2  0  0  0
 10 13  1  0  0  0
 13 18  1  0  0  0
 13 14  1  0  0  0
 14 15  1  0  0  0
 14 46  1  0  0  0
 14 47  1  0  0  0
 15 16  1  0  0  0
 15 48  1  0  0  0
 15 49  1  0  0  0
 16 17  1  0  0  0
 16 19  1  0  0  0
 16 50  1  0  0  0
 17 18  1  0  0  0
 17 51  1  0  0  0
 17 52  1  0  0  0
 18 53  1  0  0  0
 18 54  1  0  0  0
 19 20  2  0  0  0
 19 21  1  0  0  0
 21 22  1  0  0  0
 21 55  1  0  0  0
 22 23  1  0  0  0
 22 56  1  0  0  0
 22 57  1  0  0  0
 23 24  1  0  0  0
 23 25  1  0  0  0
 23 30  1  0  0  0
 25 29  1  0  0  0
 25 26  2  0  0  0
 26 27  1  0  0  0
 26 58  1  0  0  0
 27 28  2  0  0  0
 27 59  1  0  0  0
 28 29  1  0  0  0
 28 60  1  0  0  0
 30 34  1  0  0  0
 30 31  1  0  0  0
 30 69  1  0  0  0
 31 32  1  0  0  0
 31 61  1  0  0  0
 31 62  1  0  0  0
 32 33  1  0  0  0
 32 63  1  0  0  0
 32 64  1  0  0  0
 33 34  1  0  0  0
 33 65  1  0  0  0
 33 66  1  0  0  0
 34 67  1  0  0  0
 34 68  1  0  0  0
M  CHG  1  30   1
M  END
> <i_i_glide_confnum>
10

> <i_i_glide_lignum>
4843

> <i_i_glide_posenum>
141

> <i_i_glide_rotatable_bonds>
9

> <i_m_Source_File_Index>
2372

> <b_m_subgroup_collapsed>
0

> <r_i_docking_score>
-5.25325

> <r_i_glide_ecoul>
-6.50985

> <r_i_glide_eff_state_penalty>
0

> <r_i_glide_einternal>
5.32086

> <r_i_glide_emodel>
-55.6374

> <r_i_glide_energy>
-45.3515

> <r_i_glide_erotb>
0.676188

> <r_i_glide_esite>
-0.272445

> <r_i_glide_evdw>
-38.8416

> <r_i_glide_gscore>
-5.25325

> <r_i_glide_hbond>
-0.332345

> <r_i_glide_ligand_efficiency>
-0.159189

> <r_i_glide_ligand_efficiency_ln>
-1.1683

> <r_i_glide_ligand_efficiency_sa>
-0.510605

> <r_i_glide_lipo>
-2.67892

> <r_i_glide_metal>
0

> <r_i_glide_rewards>
0.272837

> <s_i_glide_gridfile>
wee1_glide-grid

> <s_m_Source_File>
wee1_decoys_glide_SP.sdf

> <s_m_Source_Path>
/Users/zhangxujun/Desktop

> <s_m_entry_id>
2647

> <s_m_entry_name>
wee1_decoys_glide_SP.2372

> <s_m_subgroup_title>
wee1_decoys_glide_SP

> <s_m_subgroupid>
wee1_decoys_glide_SP


$$$$
