ZINC39253058_5055
                    3D
 Schrodinger Suite 2024-2.
 48 51  0  0  1  0            999 V2000
    4.7789   53.0506   28.8053 C   0  0  0  0  0  0
    3.9041   52.5388   29.7612 C   0  0  0  0  0  0
    2.5319   52.7319   29.6276 C   0  0  0  0  0  0
    2.0334   53.4353   28.5240 C   0  0  0  0  0  0
    2.9162   53.9476   27.5690 C   0  0  0  0  0  0
    4.3015   53.7640   27.6979 C   0  0  0  0  0  0
    5.2607   54.3275   26.7210 C   0  0  0  0  0  0
    6.5281   54.3167   26.8384 N   0  0  0  0  0  0
    7.1029   54.8967   25.8660 N   0  0  0  0  0  0
    6.2616   55.3440   25.0418 C   0  0  0  0  0  0
    4.8576   55.0283   25.4422 C   0  0  1  0  0  0
    4.3153   55.9394   25.6817 H   0  0  0  0  0  0
    4.1483   54.1767   24.4031 C   0  0  0  0  0  0
    3.0137   54.4964   23.9146 N   0  0  0  0  0  0
    2.4406   53.7826   22.8808 N   0  0  0  0  0  0
    2.9691   52.9196   21.9639 C   0  0  0  0  0  0
    4.1787   52.7220   21.8074 O   0  0  0  0  0  0
    1.9504   52.1898   21.0482 C   0  0  1  0  0  0
    1.7140   52.8964   20.2517 H   0  0  0  0  0  0
    2.4453   50.8841   20.4745 C   0  0  0  0  0  0
    1.6679   49.8863   20.9207 C   0  0  0  0  0  0
    0.7112   50.3972   21.7973 N   0  0  0  0  0  0
    0.7270   51.8442   21.7503 N   0  0  0  0  0  0
   -0.6099   49.7799   21.8791 C   0  0  0  0  0  0
   -1.3370   50.1844   23.1626 C   0  0  0  0  0  0
   -2.2398   51.2545   23.1271 C   0  0  0  0  0  0
   -2.8650   51.6916   24.2949 C   0  0  0  0  0  0
   -2.6043   51.0523   25.5060 C   0  0  0  0  0  0
   -1.7296   49.9660   25.5453 C   0  0  0  0  0  0
   -1.0962   49.5277   24.3812 C   0  0  0  0  0  0
   -0.0243   48.1725   24.4803 Cl  0  0  0  0  0  0
   -3.3634   51.6069   26.9526 Cl  0  0  0  0  0  0
    0.3349   53.6969   28.3212 Cl  0  0  0  0  0  0
    1.4864   52.1037   30.8520 Cl  0  0  0  0  0  0
    5.8406   52.8960   28.9330 H   0  0  0  0  0  0
    4.3010   52.0036   30.6122 H   0  0  0  0  0  0
    2.5065   54.4956   26.7342 H   0  0  0  0  0  0
    6.5503   55.8903   24.1480 H   0  0  0  0  0  0
    4.7143   53.2970   24.1173 H   0  0  0  0  0  0
    1.4868   54.0621   22.7111 H   0  0  0  0  0  0
    3.2942   50.8090   19.8084 H   0  0  0  0  0  0
    1.7429   48.8256   20.7253 H   0  0  0  0  0  0
    0.8001   52.0995   22.7267 H   0  0  0  0  0  0
   -1.1990   50.0621   21.0059 H   0  0  0  0  0  0
   -0.5369   48.6932   21.8378 H   0  0  0  0  0  0
   -2.4375   51.7666   22.1970 H   0  0  0  0  0  0
   -3.5458   52.5290   24.2624 H   0  0  0  0  0  0
   -1.5374   49.4611   26.4812 H   0  0  0  0  0  0
  1  6  2  0  0  0
  1  2  1  0  0  0
  1 35  1  0  0  0
  2  3  2  0  0  0
  2 36  1  0  0  0
  3  4  1  0  0  0
  3 34  1  0  0  0
  4  5  2  0  0  0
  4 33  1  0  0  0
  5  6  1  0  0  0
  5 37  1  0  0  0
  6  7  1  0  0  0
  7 11  1  0  0  0
  7  8  2  0  0  0
  8  9  1  0  0  0
  9 10  2  0  0  0
 10 11  1  0  0  0
 10 38  1  0  0  0
 11 12  1  0  0  0
 11 13  1  0  0  0
 13 14  2  0  0  0
 13 39  1  0  0  0
 14 15  1  0  0  0
 15 16  1  0  0  0
 15 40  1  0  0  0
 16 17  2  0  0  0
 16 18  1  0  0  0
 18 19  1  0  0  0
 18 23  1  0  0  0
 18 20  1  0  0  0
 20 21  2  0  0  0
 20 41  1  0  0  0
 21 22  1  0  0  0
 21 42  1  0  0  0
 22 23  1  0  0  0
 22 24  1  0  0  0
 23 43  1  0  0  0
 24 25  1  0  0  0
 24 44  1  0  0  0
 24 45  1  0  0  0
 25 30  2  0  0  0
 25 26  1  0  0  0
 26 27  2  0  0  0
 26 46  1  0  0  0
 27 28  1  0  0  0
 27 47  1  0  0  0
 28 29  2  0  0  0
 28 32  1  0  0  0
 29 30  1  0  0  0
 29 48  1  0  0  0
 30 31  1  0  0  0
M  END
> <i_i_glide_confnum>
80

> <i_i_glide_lignum>
5056

> <i_i_glide_posenum>
308

> <i_i_glide_rotatable_bonds>
7

> <i_m_Source_File_Index>
2327

> <b_m_subgroup_collapsed>
0

> <r_i_docking_score>
-4.97633

> <r_i_glide_ecoul>
-1.81686

> <r_i_glide_eff_state_penalty>
0

> <r_i_glide_einternal>
3.26202

> <r_i_glide_emodel>
-61.5137

> <r_i_glide_energy>
-47.6566

> <r_i_glide_erotb>
0.550869

> <r_i_glide_esite>
-0.0145431

> <r_i_glide_evdw>
-45.8397

> <r_i_glide_gscore>
-4.97633

> <r_i_glide_hbond>
0

> <r_i_glide_ligand_efficiency>
-0.15551

> <r_i_glide_ligand_efficiency_ln>
-1.11434

> <r_i_glide_ligand_efficiency_sa>
-0.493714

> <r_i_glide_lipo>
-1.65091

> <r_i_glide_metal>
0

> <r_i_glide_rewards>
-1.29723

> <s_i_glide_gridfile>
wee1_glide-grid

> <s_m_Source_File>
wee1_decoys_glide_SP.sdf

> <s_m_Source_Path>
/Users/zhangxujun/Desktop

> <s_m_entry_id>
2602

> <s_m_entry_name>
wee1_decoys_glide_SP.2327

> <s_m_subgroup_title>
wee1_decoys_glide_SP

> <s_m_subgroupid>
wee1_decoys_glide_SP


$$$$
