ZINC16396191_4878
                    3D
 Schrodinger Suite 2024-2.
 69 71  0  0  1  0            999 V2000
    1.6013   54.4954   29.2236 C   0  0  0  0  0  0
    2.6852   55.2860   28.4673 C   0  0  0  0  0  0
    3.7609   54.4954   27.8539 N   0  0  0  0  0  0
    3.6552   54.2074   26.4666 C   0  0  0  0  0  0
    2.4711   53.6969   25.9136 C   0  0  0  0  0  0
    2.3315   53.5362   24.5348 C   0  0  0  0  0  0
    3.3904   53.8588   23.6854 C   0  0  0  0  0  0
    4.5811   54.3527   24.2237 C   0  0  0  0  0  0
    4.7005   54.5387   25.5984 C   0  0  0  0  0  0
    3.1989   53.7750   22.2939 N   0  0  0  0  0  0
    4.0867   53.3015   21.3929 C   0  0  0  0  0  0
    5.1052   52.6824   21.6967 O   0  0  0  0  0  0
    3.7586   53.5980   19.9184 C   0  0  0  0  0  0
    4.4624   53.2587   17.5004 C   0  0  0  0  0  0
    5.6645   53.0568   16.5555 C   0  0  0  0  0  0
    6.6926   54.2058   16.7291 C   0  0  1  0  0  0
    7.1838   54.2574   18.1953 C   0  0  0  0  0  0
    5.9960   54.5002   19.1323 C   0  0  0  0  0  0
    7.8598   53.9976   15.7278 C   0  0  0  0  0  0
    7.6067   53.7506   14.5484 O   0  0  0  0  0  0
    9.1235   54.0769   16.1900 N   0  0  0  0  0  0
   10.3158   53.6996   15.4412 C   0  0  0  0  0  0
   10.3557   52.2094   15.1288 C   0  0  0  0  0  0
   10.3289   51.7862   13.7981 C   0  0  0  0  0  0
   10.3032   50.4286   13.5083 C   0  0  0  0  0  0
   10.3045   49.4991   14.5430 C   0  0  0  0  0  0
   10.3417   49.9108   15.8725 C   0  0  0  0  0  0
   10.3726   51.2717   16.1673 C   0  0  0  0  0  0
    4.7534   53.8294   28.7242 C   0  0  0  0  0  0
    4.2753   52.4429   29.2050 C   0  0  0  0  0  0
    6.1856   53.7310   28.1573 C   0  0  0  0  0  0
    0.8064   55.1706   29.5438 H   0  0  0  0  0  0
    1.1341   53.7205   28.6135 H   0  0  0  0  0  0
    1.9880   54.0213   30.1261 H   0  0  0  0  0  0
    3.1263   56.0152   29.1487 H   0  0  0  0  0  0
    2.1965   55.8805   27.6955 H   0  0  0  0  0  0
    1.6332   53.4466   26.5415 H   0  0  0  0  0  0
    1.3978   53.1643   24.1382 H   0  0  0  0  0  0
    5.4009   54.6440   23.5807 H   0  0  0  0  0  0
    5.6029   54.9969   25.9666 H   0  0  0  0  0  0
    2.3121   54.1135   21.9448 H   0  0  0  0  0  0
    2.9377   52.9702   19.5737 H   0  0  0  0  0  0
    3.5046   54.6457   19.7636 H   0  0  0  0  0  0
    3.8082   52.3841   17.4547 H   0  0  0  0  0  0
    3.8965   54.1623   17.2749 H   0  0  0  0  0  0
    6.1066   52.0968   16.8263 H   0  0  0  0  0  0
    5.2528   53.0280   15.5432 H   0  0  0  0  0  0
    6.2664   55.1645   16.4258 H   0  0  0  0  0  0
    7.8699   55.0884   18.3702 H   0  0  0  0  0  0
    7.6202   53.3013   18.4827 H   0  0  0  0  0  0
    5.4904   55.4440   18.9226 H   0  0  0  0  0  0
    6.3321   54.4940   20.1705 H   0  0  0  0  0  0
    9.2614   54.2834   17.1682 H   0  0  0  0  0  0
   10.3938   54.2976   14.5309 H   0  0  0  0  0  0
   11.1896   53.9457   16.0467 H   0  0  0  0  0  0
   10.3082   52.5059   12.9927 H   0  0  0  0  0  0
   10.2798   50.0964   12.4814 H   0  0  0  0  0  0
   10.2804   48.4504   14.3016 H   0  0  0  0  0  0
   10.3432   49.1822   16.6694 H   0  0  0  0  0  0
   10.3828   51.5921   17.1995 H   0  0  0  0  0  0
    4.8171   54.4338   29.6305 H   0  0  0  0  0  0
    5.0997   51.8222   29.5492 H   0  0  0  0  0  0
    3.7608   51.9012   28.4155 H   0  0  0  0  0  0
    3.5821   52.5203   30.0421 H   0  0  0  0  0  0
    6.8769   53.3115   28.8856 H   0  0  0  0  0  0
    6.2347   53.0910   27.2772 H   0  0  0  0  0  0
    6.5801   54.7148   27.9064 H   0  0  0  0  0  0
    4.9631   53.3495   18.9653 N   0  3  1  0  0  0
    5.3946   52.4562   19.1939 H   0  0  0  0  0  0
  1  2  1  0  0  0
  1 32  1  0  0  0
  1 33  1  0  0  0
  1 34  1  0  0  0
  2  3  1  0  0  0
  2 35  1  0  0  0
  2 36  1  0  0  0
  3  4  1  0  0  0
  3 29  1  0  0  0
  4  9  2  0  0  0
  4  5  1  0  0  0
  5  6  2  0  0  0
  5 37  1  0  0  0
  6  7  1  0  0  0
  6 38  1  0  0  0
  7  8  2  0  0  0
  7 10  1  0  0  0
  8  9  1  0  0  0
  8 39  1  0  0  0
  9 40  1  0  0  0
 10 11  1  0  0  0
 10 41  1  0  0  0
 11 12  2  0  0  0
 11 13  1  0  0  0
 13 42  1  0  0  0
 13 43  1  0  0  0
 13 68  1  0  0  0
 14 15  1  0  0  0
 14 44  1  0  0  0
 14 45  1  0  0  0
 14 68  1  0  0  0
 15 16  1  0  0  0
 15 46  1  0  0  0
 15 47  1  0  0  0
 16 17  1  0  0  0
 16 19  1  0  0  0
 16 48  1  0  0  0
 17 18  1  0  0  0
 17 49  1  0  0  0
 17 50  1  0  0  0
 18 51  1  0  0  0
 18 52  1  0  0  0
 18 68  1  0  0  0
 19 20  2  0  0  0
 19 21  1  0  0  0
 21 22  1  0  0  0
 21 53  1  0  0  0
 22 23  1  0  0  0
 22 54  1  0  0  0
 22 55  1  0  0  0
 23 28  2  0  0  0
 23 24  1  0  0  0
 24 25  2  0  0  0
 24 56  1  0  0  0
 25 26  1  0  0  0
 25 57  1  0  0  0
 26 27  2  0  0  0
 26 58  1  0  0  0
 27 28  1  0  0  0
 27 59  1  0  0  0
 28 60  1  0  0  0
 29 30  1  0  0  0
 29 31  1  0  0  0
 29 61  1  0  0  0
 30 62  1  0  0  0
 30 63  1  0  0  0
 30 64  1  0  0  0
 31 65  1  0  0  0
 31 66  1  0  0  0
 31 67  1  0  0  0
 68 69  1  0  0  0
M  CHG  1  68   1
M  END
> <i_i_glide_confnum>
114

> <i_i_glide_lignum>
4879

> <i_i_glide_posenum>
185

> <i_i_glide_rotatable_bonds>
11

> <i_m_Source_File_Index>
3975

> <b_m_subgroup_collapsed>
0

> <r_i_docking_score>
-4.86463

> <r_i_glide_ecoul>
-5.27998

> <r_i_glide_eff_state_penalty>
0

> <r_i_glide_einternal>
14.8916

> <r_i_glide_emodel>
-49.7615

> <r_i_glide_energy>
-43.8802

> <r_i_glide_erotb>
0.833151

> <r_i_glide_esite>
-0.0621021

> <r_i_glide_evdw>
-38.6002

> <r_i_glide_gscore>
-4.86463

> <r_i_glide_hbond>
-0.105976

> <r_i_glide_ligand_efficiency>
-0.15202

> <r_i_glide_ligand_efficiency_ln>
-1.08932

> <r_i_glide_ligand_efficiency_sa>
-0.482632

> <r_i_glide_lipo>
-2.94338

> <r_i_glide_metal>
0

> <r_i_glide_rewards>
0.135681

> <s_i_glide_gridfile>
wee1_glide-grid

> <s_m_Source_File>
wee1_decoys_glide_SP.sdf

> <s_m_Source_Path>
/Users/zhangxujun/Desktop

> <s_m_entry_id>
4250

> <s_m_entry_name>
wee1_decoys_glide_SP.3975

> <s_m_subgroup_title>
wee1_decoys_glide_SP

> <s_m_subgroupid>
wee1_decoys_glide_SP


$$$$
