ZINC08921277_4547
                    3D
 Schrodinger Suite 2024-2.
 42 43  0  0  1  0            999 V2000
    6.1141   54.0903   28.1709 C   0  0  0  0  0  0
    6.8893   54.2050   26.8600 C   0  0  0  0  0  0
    6.3767   55.2406   26.0275 O   0  0  0  0  0  0
    5.9195   54.8406   24.7933 C   0  0  0  0  0  0
    6.6142   55.2247   23.6458 C   0  0  0  0  0  0
    6.1590   54.8689   22.3655 C   0  0  0  0  0  0
    4.9608   54.1529   22.2609 C   0  0  0  0  0  0
    4.2504   53.7759   23.3975 C   0  0  0  0  0  0
    4.7413   54.0956   24.6692 C   0  0  0  0  0  0
    4.1076   53.6314   25.7973 O   0  0  0  0  0  0
    3.1043   54.4967   26.2736 C   0  0  0  0  0  0
    2.5452   54.0899   27.6310 C   0  0  0  0  0  0
    2.1315   55.0817   28.5260 C   0  0  0  0  0  0
    1.5769   54.7280   29.7518 C   0  0  0  0  0  0
    1.4376   53.3819   30.0817 C   0  0  0  0  0  0
    1.8371   52.3875   29.1931 C   0  0  0  0  0  0
    2.3926   52.7436   27.9685 C   0  0  0  0  0  0
    0.7044   52.8971   31.7666 Br  0  0  0  0  0  0
    2.6148   52.8215   23.1856 Br  0  0  0  0  0  0
    6.8834   55.2122   21.1397 C   0  0  0  0  0  0
    8.0640   55.6967   21.1239 N   0  0  0  0  0  0
    8.7043   55.9432   19.9282 N   0  0  0  0  0  0
    8.2614   56.5304   18.7668 C   0  0  0  0  0  0
    6.8355   57.3473   18.4817 S   0  0  0  0  0  0
    9.1445   56.4317   17.7519 N   0  0  0  0  0  0
    6.6979   53.5179   28.8869 H   0  0  0  0  0  0
    5.9043   55.0682   28.6041 H   0  0  0  0  0  0
    5.1740   53.5625   28.0410 H   0  0  0  0  0  0
    6.9615   53.2335   26.3668 H   0  0  0  0  0  0
    7.9045   54.4953   27.1093 H   0  0  0  0  0  0
    7.5045   55.8193   23.7616 H   0  0  0  0  0  0
    4.5658   53.8783   21.2918 H   0  0  0  0  0  0
    3.5040   55.5117   26.3348 H   0  0  0  0  0  0
    2.2776   54.4967   25.5627 H   0  0  0  0  0  0
    2.2318   56.1268   28.2739 H   0  0  0  0  0  0
    1.2572   55.4943   30.4432 H   0  0  0  0  0  0
    1.7094   51.3457   29.4479 H   0  0  0  0  0  0
    2.7003   51.9736   27.2812 H   0  0  0  0  0  0
    6.3494   54.9760   20.2220 H   0  0  0  0  0  0
    9.6984   56.0515   20.0781 H   0  0  0  0  0  0
    8.9071   56.8337   16.8563 H   0  0  0  0  0  0
   10.0227   55.9485   17.8824 H   0  0  0  0  0  0
  1  2  1  0  0  0
  1 26  1  0  0  0
  1 27  1  0  0  0
  1 28  1  0  0  0
  2  3  1  0  0  0
  2 29  1  0  0  0
  2 30  1  0  0  0
  3  4  1  0  0  0
  4  9  2  0  0  0
  4  5  1  0  0  0
  5  6  2  0  0  0
  5 31  1  0  0  0
  6  7  1  0  0  0
  6 20  1  0  0  0
  7  8  2  0  0  0
  7 32  1  0  0  0
  8  9  1  0  0  0
  8 19  1  0  0  0
  9 10  1  0  0  0
 10 11  1  0  0  0
 11 12  1  0  0  0
 11 33  1  0  0  0
 11 34  1  0  0  0
 12 17  2  0  0  0
 12 13  1  0  0  0
 13 14  2  0  0  0
 13 35  1  0  0  0
 14 15  1  0  0  0
 14 36  1  0  0  0
 15 16  2  0  0  0
 15 18  1  0  0  0
 16 17  1  0  0  0
 16 37  1  0  0  0
 17 38  1  0  0  0
 20 21  2  0  0  0
 20 39  1  0  0  0
 21 22  1  0  0  0
 22 23  1  0  0  0
 22 40  1  0  0  0
 23 24  2  0  0  0
 23 25  1  0  0  0
 25 41  1  0  0  0
 25 42  1  0  0  0
M  END
> <i_i_glide_confnum>
126

> <i_i_glide_lignum>
4548

> <i_i_glide_posenum>
29

> <i_i_glide_rotatable_bonds>
8

> <i_m_Source_File_Index>
4065

> <b_m_subgroup_collapsed>
0

> <r_i_docking_score>
-6.34244

> <r_i_glide_ecoul>
-2.70081

> <r_i_glide_eff_state_penalty>
0

> <r_i_glide_einternal>
9.36464

> <r_i_glide_emodel>
-60.3787

> <r_i_glide_energy>
-45.8083

> <r_i_glide_erotb>
0.513817

> <r_i_glide_esite>
-0.0138926

> <r_i_glide_evdw>
-43.1075

> <r_i_glide_gscore>
-6.34244

> <r_i_glide_hbond>
-0.376808

> <r_i_glide_ligand_efficiency>
-0.253698

> <r_i_glide_ligand_efficiency_ln>
-1.50335

> <r_i_glide_ligand_efficiency_sa>
-0.741817

> <r_i_glide_lipo>
-3.53682

> <r_i_glide_metal>
0

> <r_i_glide_rewards>
-0.368241

> <s_i_glide_gridfile>
wee1_glide-grid

> <s_m_Source_File>
wee1_decoys_glide_SP.sdf

> <s_m_Source_Path>
/Users/zhangxujun/Desktop

> <s_m_entry_id>
4340

> <s_m_entry_name>
wee1_decoys_glide_SP.4065

> <s_m_subgroup_title>
wee1_decoys_glide_SP

> <s_m_subgroupid>
wee1_decoys_glide_SP


$$$$
