ZINC08185783_105
                    3D
 Schrodinger Suite 2024-2.
 56 58  0  0  1  0            999 V2000
    4.4262   54.8397   29.6837 C   0  0  0  0  0  0
    4.0992   53.7341   28.6791 C   0  0  1  0  0  0
    4.6936   52.8351   28.8600 H   0  0  0  0  0  0
    2.6259   53.3945   28.6428 C   0  0  0  0  0  0
    1.5200   54.2289   28.4644 C   0  0  0  0  0  0
    0.2950   53.5673   28.4954 C   0  0  0  0  0  0
    0.4232   52.2063   28.7145 C   0  0  0  0  0  0
    2.0797   51.7517   28.8780 S   0  0  0  0  0  0
    5.8077   53.7513   26.7366 C   0  0  2  0  0  0
    5.6234   52.7079   26.4954 H   0  0  0  0  0  0
    6.9907   53.8653   27.7272 C   0  0  0  0  0  0
    6.0096   54.5871   25.4596 C   0  0  0  0  0  0
    6.5452   55.6942   25.5538 O   0  0  0  0  0  0
    5.5448   54.0297   24.3215 N   0  0  0  0  0  0
    5.6977   54.4827   23.0035 C   0  0  0  0  0  0
    4.7665   54.0418   22.0588 C   0  0  0  0  0  0
    4.8649   54.4623   20.7331 C   0  0  0  0  0  0
    5.9129   55.3034   20.3526 C   0  0  0  0  0  0
    6.8740   55.6974   21.2808 C   0  0  0  0  0  0
    6.7590   55.2979   22.6038 C   0  0  0  0  0  0
    6.0430   55.9026   18.6730 S   0  0  0  0  0  0
    4.7051   55.8083   18.0769 O   0  0  0  0  0  0
    6.7415   57.1925   18.7501 O   0  0  0  0  0  0
    7.1094   54.7480   17.8513 N   0  0  0  0  0  0
    8.5148   54.7179   18.3308 C   0  0  0  0  0  0
    9.4165   54.0172   17.2929 C   0  0  0  0  0  0
    8.8675   52.6360   16.8702 C   0  0  0  0  0  0
    7.3694   52.6874   16.5056 C   0  0  0  0  0  0
    6.5342   53.4064   17.5819 C   0  0  0  0  0  0
    4.3053   54.4571   30.6933 H   0  0  0  0  0  0
    5.4490   55.2035   29.6033 H   0  0  0  0  0  0
    3.7608   55.6949   29.5680 H   0  0  0  0  0  0
    1.6007   55.2956   28.3082 H   0  0  0  0  0  0
   -0.6469   54.0741   28.3590 H   0  0  0  0  0  0
   -0.3557   51.4590   28.7861 H   0  0  0  0  0  0
    7.9037   53.4891   27.2776 H   0  0  0  0  0  0
    7.1655   54.8897   28.0583 H   0  0  0  0  0  0
    6.8451   53.2750   28.6291 H   0  0  0  0  0  0
    5.0235   53.1703   24.4051 H   0  0  0  0  0  0
    3.9482   53.3977   22.3450 H   0  0  0  0  0  0
    4.1210   54.1475   20.0140 H   0  0  0  0  0  0
    7.7051   56.3211   20.9847 H   0  0  0  0  0  0
    7.5037   55.6282   23.3085 H   0  0  0  0  0  0
    8.8700   55.7321   18.5179 H   0  0  0  0  0  0
    8.5627   54.1035   19.2284 H   0  0  0  0  0  0
    9.5096   54.6579   16.4138 H   0  0  0  0  0  0
   10.4267   53.9064   17.6883 H   0  0  0  0  0  0
    9.0136   51.9234   17.6817 H   0  0  0  0  0  0
    9.4450   52.2486   16.0306 H   0  0  0  0  0  0
    6.9853   51.6794   16.3559 H   0  0  0  0  0  0
    7.2452   53.2008   15.5506 H   0  0  0  0  0  0
    6.6098   52.7969   18.4845 H   0  0  0  0  0  0
    5.5003   53.5004   17.2518 H   0  0  0  0  0  0
    4.4943   54.2435   27.2855 N   0  3  0  0  0  0
    3.7720   53.9552   26.6409 H   0  0  0  0  0  0
    4.5286   55.2533   27.3004 H   0  0  0  0  0  0
  1  2  1  0  0  0
  1 30  1  0  0  0
  1 31  1  0  0  0
  1 32  1  0  0  0
  2  3  1  0  0  0
  2  4  1  0  0  0
  2 54  1  0  0  0
  4  8  1  0  0  0
  4  5  2  0  0  0
  5  6  1  0  0  0
  5 33  1  0  0  0
  6  7  2  0  0  0
  6 34  1  0  0  0
  7  8  1  0  0  0
  7 35  1  0  0  0
  9 10  1  0  0  0
  9 11  1  0  0  0
  9 12  1  0  0  0
  9 54  1  0  0  0
 11 36  1  0  0  0
 11 37  1  0  0  0
 11 38  1  0  0  0
 12 13  2  0  0  0
 12 14  1  0  0  0
 14 15  1  0  0  0
 14 39  1  0  0  0
 15 20  2  0  0  0
 15 16  1  0  0  0
 16 17  2  0  0  0
 16 40  1  0  0  0
 17 18  1  0  0  0
 17 41  1  0  0  0
 18 19  2  0  0  0
 18 21  1  0  0  0
 19 20  1  0  0  0
 19 42  1  0  0  0
 20 43  1  0  0  0
 21 22  2  0  0  0
 21 23  2  0  0  0
 21 24  1  0  0  0
 24 29  1  0  0  0
 24 25  1  0  0  0
 25 26  1  0  0  0
 25 44  1  0  0  0
 25 45  1  0  0  0
 26 27  1  0  0  0
 26 46  1  0  0  0
 26 47  1  0  0  0
 27 28  1  0  0  0
 27 48  1  0  0  0
 27 49  1  0  0  0
 28 29  1  0  0  0
 28 50  1  0  0  0
 28 51  1  0  0  0
 29 52  1  0  0  0
 29 53  1  0  0  0
 54 55  1  0  0  0
 54 56  1  0  0  0
M  CHG  1  54   1
M  END
> <i_i_glide_confnum>
269

> <i_i_glide_lignum>
106

> <i_i_glide_posenum>
293

> <i_i_glide_rotatable_bonds>
8

> <i_m_Source_File_Index>
955

> <b_m_subgroup_collapsed>
0

> <r_i_docking_score>
-5.99114

> <r_i_glide_ecoul>
-2.88989

> <r_i_glide_eff_state_penalty>
0

> <r_i_glide_einternal>
11.9034

> <r_i_glide_emodel>
-58.3975

> <r_i_glide_energy>
-46.0902

> <r_i_glide_erotb>
0.776587

> <r_i_glide_esite>
-0.00752502

> <r_i_glide_evdw>
-43.2003

> <r_i_glide_gscore>
-5.99114

> <r_i_glide_hbond>
-0.21032

> <r_i_glide_ligand_efficiency>
-0.213969

> <r_i_glide_ligand_efficiency_ln>
-1.38293

> <r_i_glide_ligand_efficiency_sa>
-0.649737

> <r_i_glide_lipo>
-2.9352

> <r_i_glide_metal>
0

> <r_i_glide_rewards>
-1.02118

> <s_i_glide_gridfile>
wee1_glide-grid

> <s_m_Source_File>
wee1_decoys_glide_SP.sdf

> <s_m_Source_Path>
/Users/zhangxujun/Desktop

> <s_m_entry_id>
1230

> <s_m_entry_name>
wee1_decoys_glide_SP.955

> <s_m_subgroup_title>
wee1_decoys_glide_SP

> <s_m_subgroupid>
wee1_decoys_glide_SP


$$$$
