ZINC09135431_106
                    3D
 Schrodinger Suite 2024-2.
 60 62  0  0  1  0            999 V2000
    3.3106   54.2430   27.2476 C   0  0  0  0  0  0
    4.4890   54.3006   26.3818 N   0  0  0  0  0  0
    5.7180   54.4913   27.1723 C   0  0  0  0  0  0
    6.9825   53.9928   26.4616 C   0  0  0  0  0  0
    7.0506   54.5188   25.0206 C   0  0  0  0  0  0
    5.7498   54.1916   24.2951 C   0  0  0  0  0  0
    4.5208   54.1105   24.9912 C   0  0  0  0  0  0
    3.3428   53.8785   24.2631 C   0  0  0  0  0  0
    3.3743   53.7034   22.8778 C   0  0  0  0  0  0
    4.5922   53.7312   22.1903 C   0  0  0  0  0  0
    5.7606   53.9806   22.9144 C   0  0  0  0  0  0
    4.7040   53.5704   20.6646 C   0  0  2  0  0  0
    5.5145   52.8654   20.4871 H   0  0  0  0  0  0
    5.0392   54.9317   19.9896 C   0  0  0  0  0  0
    6.2976   54.9327   19.2282 N   0  0  0  0  0  0
    7.3646   55.7156   19.5254 C   0  0  0  0  0  0
    7.3643   56.4952   20.4813 O   0  0  0  0  0  0
    8.5448   55.6276   18.6128 C   0  0  0  0  0  0
    9.3081   56.5870   18.4801 O   0  0  0  0  0  0
    8.6970   54.4373   17.9842 N   0  0  0  0  0  0
    9.7277   54.0352   17.1139 C   0  0  0  0  0  0
   11.0501   54.4757   17.2817 C   0  0  0  0  0  0
   12.0620   54.0216   16.4396 C   0  0  0  0  0  0
   11.7675   53.1191   15.4237 C   0  0  0  0  0  0
   10.4596   52.6719   15.2476 C   0  0  0  0  0  0
    9.4252   53.1205   16.0840 C   0  0  0  0  0  0
    7.9902   52.6219   15.8548 C   0  0  0  0  0  0
    7.2127   53.6489   15.5076 F   0  0  0  0  0  0
    7.9082   51.6991   14.8952 F   0  0  0  0  0  0
    7.5048   52.0965   16.9809 F   0  0  0  0  0  0
    3.6303   52.8063   18.4076 C   0  0  0  0  0  0
    3.4136   51.3588   20.4416 C   0  0  0  0  0  0
    2.9211   53.2247   27.2854 H   0  0  0  0  0  0
    3.5163   54.5575   28.2721 H   0  0  0  0  0  0
    2.5214   54.8961   26.8801 H   0  0  0  0  0  0
    5.8768   55.5679   27.1036 H   0  0  0  0  0  0
    5.6543   54.2722   28.2389 H   0  0  0  0  0  0
    7.8609   54.2791   27.0397 H   0  0  0  0  0  0
    6.9839   52.9037   26.4671 H   0  0  0  0  0  0
    7.9030   54.0964   24.4813 H   0  0  0  0  0  0
    7.1843   55.6007   25.0214 H   0  0  0  0  0  0
    2.3885   53.8365   24.7663 H   0  0  0  0  0  0
    2.4458   53.5512   22.3479 H   0  0  0  0  0  0
    6.7028   54.0626   22.3915 H   0  0  0  0  0  0
    5.1041   55.6979   20.7657 H   0  0  0  0  0  0
    4.2325   55.2961   19.3551 H   0  0  0  0  0  0
    6.3102   54.3805   18.3846 H   0  0  0  0  0  0
    7.9980   53.7297   18.1446 H   0  0  0  0  0  0
   11.3100   55.1543   18.0813 H   0  0  0  0  0  0
   13.0759   54.3659   16.5808 H   0  0  0  0  0  0
   12.5546   52.7642   14.7733 H   0  0  0  0  0  0
   10.2613   51.9750   14.4462 H   0  0  0  0  0  0
    4.6398   52.4971   18.1323 H   0  0  0  0  0  0
    2.8987   52.0951   18.0212 H   0  0  0  0  0  0
    3.4044   53.8007   18.0258 H   0  0  0  0  0  0
    4.3022   50.8288   20.0934 H   0  0  0  0  0  0
    3.3483   51.3444   21.5279 H   0  0  0  0  0  0
    2.5099   50.9327   20.0000 H   0  0  0  0  0  0
    3.5320   52.8245   19.9554 N   0  3  0  0  0  0
    2.6751   53.3082   20.1987 H   0  0  0  0  0  0
  1  2  1  0  0  0
  1 33  1  0  0  0
  1 34  1  0  0  0
  1 35  1  0  0  0
  2  7  1  0  0  0
  2  3  1  0  0  0
  3  4  1  0  0  0
  3 36  1  0  0  0
  3 37  1  0  0  0
  4  5  1  0  0  0
  4 38  1  0  0  0
  4 39  1  0  0  0
  5  6  1  0  0  0
  5 40  1  0  0  0
  5 41  1  0  0  0
  6 11  2  0  0  0
  6  7  1  0  0  0
  7  8  2  0  0  0
  8  9  1  0  0  0
  8 42  1  0  0  0
  9 10  2  0  0  0
  9 43  1  0  0  0
 10 11  1  0  0  0
 10 12  1  0  0  0
 11 44  1  0  0  0
 12 13  1  0  0  0
 12 14  1  0  0  0
 12 59  1  0  0  0
 14 15  1  0  0  0
 14 45  1  0  0  0
 14 46  1  0  0  0
 15 16  1  0  0  0
 15 47  1  0  0  0
 16 17  2  0  0  0
 16 18  1  0  0  0
 18 19  2  0  0  0
 18 20  1  0  0  0
 20 21  1  0  0  0
 20 48  1  0  0  0
 21 26  2  0  0  0
 21 22  1  0  0  0
 22 23  2  0  0  0
 22 49  1  0  0  0
 23 24  1  0  0  0
 23 50  1  0  0  0
 24 25  2  0  0  0
 24 51  1  0  0  0
 25 26  1  0  0  0
 25 52  1  0  0  0
 26 27  1  0  0  0
 27 28  1  0  0  0
 27 29  1  0  0  0
 27 30  1  0  0  0
 31 53  1  0  0  0
 31 54  1  0  0  0
 31 55  1  0  0  0
 31 59  1  0  0  0
 32 56  1  0  0  0
 32 57  1  0  0  0
 32 58  1  0  0  0
 32 59  1  0  0  0
 59 60  1  0  0  0
M  CHG  1  59   1
M  END
> <i_i_glide_confnum>
232

> <i_i_glide_lignum>
107

> <i_i_glide_posenum>
174

> <i_i_glide_rotatable_bonds>
9

> <i_m_Source_File_Index>
4613

> <b_m_subgroup_collapsed>
0

> <r_i_docking_score>
-5.63062

> <r_i_glide_ecoul>
-4.41628

> <r_i_glide_eff_state_penalty>
0

> <r_i_glide_einternal>
9.37148

> <r_i_glide_emodel>
-53.0347

> <r_i_glide_energy>
-41.3317

> <r_i_glide_erotb>
0.694362

> <r_i_glide_esite>
-0.0569301

> <r_i_glide_evdw>
-36.9154

> <r_i_glide_gscore>
-5.63062

> <r_i_glide_hbond>
-0.234888

> <r_i_glide_ligand_efficiency>
-0.175957

> <r_i_glide_ligand_efficiency_ln>
-1.26085

> <r_i_glide_ligand_efficiency_sa>
-0.558629

> <r_i_glide_lipo>
-2.48597

> <r_i_glide_metal>
0

> <r_i_glide_rewards>
-1.03899

> <s_i_glide_gridfile>
wee1_glide-grid

> <s_m_Source_File>
wee1_decoys_glide_SP.sdf

> <s_m_Source_Path>
/Users/zhangxujun/Desktop

> <s_m_entry_id>
4888

> <s_m_entry_name>
wee1_decoys_glide_SP.4613

> <s_m_subgroup_title>
wee1_decoys_glide_SP

> <s_m_subgroupid>
wee1_decoys_glide_SP


$$$$
