ZINC28579274_3823
                    3D
 Schrodinger Suite 2024-2.
 38 40  0  0  1  0            999 V2000
   -2.6662   49.3854   25.6827 C   0  0  0  0  0  0
   -3.8471   49.0888   25.0067 C   0  0  0  0  0  0
   -4.5899   50.1154   24.4257 C   0  0  0  0  0  0
   -4.1648   51.4389   24.5206 C   0  0  0  0  0  0
   -2.9859   51.7380   25.1980 C   0  0  0  0  0  0
   -2.2256   50.7074   25.7731 C   0  0  0  0  0  0
   -1.0348   50.9559   26.4816 N   0  0  0  0  0  0
   -0.0982   51.8670   26.1382 C   0  0  0  0  0  0
   -0.1293   52.4968   25.0785 O   0  0  0  0  0  0
    0.8478   52.0195   27.0898 N   0  0  0  0  0  0
    1.9541   52.8327   27.0461 C   0  0  0  0  0  0
    2.6421   53.2167   28.1439 C   0  0  0  0  0  0
    3.8778   54.0649   27.8622 C   0  0  1  0  0  0
    3.8895   54.9490   28.5036 H   0  0  0  0  0  0
    5.1921   53.3001   28.1111 C   0  0  0  0  0  0
    6.4133   54.0612   27.5813 C   0  0  0  0  0  0
    6.3008   54.2634   26.0647 C   0  0  0  0  0  0
    5.0192   55.0119   25.6690 C   0  0  0  0  0  0
    3.7276   54.5832   26.4163 C   0  0  1  0  0  0
    3.1045   55.4678   26.4821 H   0  0  0  0  0  0
    2.7010   53.4103   25.5257 S   0  0  0  0  0  0
    2.3208   52.8294   29.4776 C   0  0  0  0  0  0
    2.1059   52.5019   30.5649 N   0  0  0  0  0  0
   -6.0496   49.7459   23.5834 Cl  0  0  0  0  0  0
   -2.0946   48.5834   26.1282 H   0  0  0  0  0  0
   -4.1849   48.0656   24.9373 H   0  0  0  0  0  0
   -4.7486   52.2309   24.0743 H   0  0  0  0  0  0
   -2.6703   52.7686   25.2761 H   0  0  0  0  0  0
   -0.8392   50.3059   27.2321 H   0  0  0  0  0  0
    0.7155   51.5124   27.9515 H   0  0  0  0  0  0
    5.3125   53.0992   29.1762 H   0  0  0  0  0  0
    5.1530   52.3391   27.6048 H   0  0  0  0  0  0
    6.4787   55.0282   28.0799 H   0  0  0  0  0  0
    7.3289   53.5181   27.8218 H   0  0  0  0  0  0
    7.1722   54.8008   25.6899 H   0  0  0  0  0  0
    6.3155   53.2968   25.5664 H   0  0  0  0  0  0
    5.1842   56.0749   25.8380 H   0  0  0  0  0  0
    4.8738   54.9259   24.5909 H   0  0  0  0  0  0
  1  6  2  0  0  0
  1  2  1  0  0  0
  1 25  1  0  0  0
  2  3  2  0  0  0
  2 26  1  0  0  0
  3  4  1  0  0  0
  3 24  1  0  0  0
  4  5  2  0  0  0
  4 27  1  0  0  0
  5  6  1  0  0  0
  5 28  1  0  0  0
  6  7  1  0  0  0
  7  8  1  0  0  0
  7 29  1  0  0  0
  8  9  2  0  0  0
  8 10  1  0  0  0
 10 11  1  0  0  0
 10 30  1  0  0  0
 11 21  1  0  0  0
 11 12  2  0  0  0
 12 13  1  0  0  0
 12 22  1  0  0  0
 13 14  1  0  0  0
 13 19  1  0  0  0
 13 15  1  0  0  0
 15 16  1  0  0  0
 15 31  1  0  0  0
 15 32  1  0  0  0
 16 17  1  0  0  0
 16 33  1  0  0  0
 16 34  1  0  0  0
 17 18  1  0  0  0
 17 35  1  0  0  0
 17 36  1  0  0  0
 18 19  1  0  0  0
 18 37  1  0  0  0
 18 38  1  0  0  0
 19 20  1  0  0  0
 19 21  1  0  0  0
 22 23  3  0  0  0
M  END
> <i_i_glide_confnum>
5

> <i_i_glide_lignum>
3824

> <i_i_glide_posenum>
93

> <i_i_glide_rotatable_bonds>
5

> <i_m_Source_File_Index>
4803

> <b_m_subgroup_collapsed>
0

> <r_i_docking_score>
-5.20369

> <r_i_glide_ecoul>
-3.46615

> <r_i_glide_eff_state_penalty>
0

> <r_i_glide_einternal>
1.2875

> <r_i_glide_emodel>
-45.7619

> <r_i_glide_energy>
-33.3108

> <r_i_glide_erotb>
0.50749

> <r_i_glide_esite>
-0.0630862

> <r_i_glide_evdw>
-29.8447

> <r_i_glide_gscore>
-5.20369

> <r_i_glide_hbond>
-0.0353257

> <r_i_glide_ligand_efficiency>
-0.236531

> <r_i_glide_ligand_efficiency_ln>
-1.27197

> <r_i_glide_ligand_efficiency_sa>
-0.66277

> <r_i_glide_lipo>
-2.2503

> <r_i_glide_metal>
0

> <r_i_glide_rewards>
-1.35032

> <s_i_glide_gridfile>
wee1_glide-grid

> <s_m_Source_File>
wee1_decoys_glide_SP.sdf

> <s_m_Source_Path>
/Users/zhangxujun/Desktop

> <s_m_entry_id>
5078

> <s_m_entry_name>
wee1_decoys_glide_SP.4803

> <s_m_subgroup_title>
wee1_decoys_glide_SP

> <s_m_subgroupid>
wee1_decoys_glide_SP


$$$$
