ZINC39695847_350
                    3D
 Schrodinger Suite 2024-2.
 78 82  0  0  1  0            999 V2000
   -1.6572   56.5343   15.5754 C   0  0  0  0  0  0
   -1.6632   55.2404   16.3682 C   0  0  0  0  0  0
   -2.8460   54.5010   16.4806 C   0  0  0  0  0  0
   -2.8954   53.3059   17.2013 C   0  0  0  0  0  0
   -1.7211   52.8608   17.8211 C   0  0  0  0  0  0
   -0.5281   53.6111   17.6815 C   0  0  0  0  0  0
   -0.4715   54.8052   16.9584 C   0  0  0  0  0  0
    0.3914   52.8972   18.4117 N   0  0  0  0  0  0
   -0.2531   51.8052   18.9437 C   0  0  0  0  0  0
   -1.5247   51.7603   18.6124 N   0  0  0  0  0  0
    0.4355   50.8881   19.9548 C   0  0  2  0  0  0
    1.4103   50.6242   19.5408 H   0  0  0  0  0  0
   -0.3012   49.5482   20.1683 C   0  0  0  0  0  0
    0.7168   51.5735   21.2272 N   0  0  0  0  0  0
   -0.1872   52.0893   22.0866 C   0  0  0  0  0  0
   -1.3947   52.0969   21.8487 O   0  0  0  0  0  0
    0.2817   52.6684   23.4476 C   0  0  2  0  0  0
   -0.2741   53.5951   23.6018 H   0  0  0  0  0  0
    1.7664   53.0751   23.4331 C   0  0  0  0  0  0
    2.1164   53.0649   24.8566 N   0  0  0  0  0  0
    1.1114   52.3668   25.6704 C   0  0  0  0  0  0
    0.1397   51.7083   24.6570 C   0  0  0  0  0  0
    0.5801   50.2380   24.3378 C   0  0  0  0  0  0
    0.4752   49.2951   25.5578 C   0  0  0  0  0  0
   -0.9751   49.3393   26.0817 N   0  3  0  0  0  0
   -1.4744   50.7629   26.4045 C   0  0  0  0  0  0
   -1.3317   51.6152   25.1341 C   0  0  0  0  0  0
    3.1908   53.7506   25.3296 C   0  0  0  0  0  0
    3.9100   54.3973   24.5650 O   0  0  0  0  0  0
    3.5670   53.6668   26.8374 C   0  0  1  0  0  0
    3.2118   52.7021   27.1798 H   0  0  0  0  0  0
    5.0996   53.6402   27.1473 C   0  0  0  0  0  0
    5.8657   54.9586   26.9082 C   0  0  0  0  0  0
    5.3570   53.1702   28.5919 C   0  0  0  0  0  0
    2.9744   54.7858   27.5100 O   0  0  0  0  0  0
    2.1559   54.6388   28.6148 C   0  0  0  0  0  0
    1.5773   53.4337   29.0515 C   0  0  0  0  0  0
    0.7622   53.4145   30.1802 C   0  0  0  0  0  0
    0.5300   54.5921   30.8816 C   0  0  0  0  0  0
    1.1046   55.7915   30.4676 C   0  0  0  0  0  0
    1.9038   55.8111   29.3286 C   0  0  0  0  0  0
   -1.6784   57.3931   16.2469 H   0  0  0  0  0  0
   -0.7538   56.6048   14.9677 H   0  0  0  0  0  0
   -2.5040   56.5927   14.8906 H   0  0  0  0  0  0
   -3.7460   54.8583   16.0002 H   0  0  0  0  0  0
   -3.8135   52.7438   17.2847 H   0  0  0  0  0  0
    0.4438   55.3726   16.8709 H   0  0  0  0  0  0
   -0.3797   48.9921   19.2339 H   0  0  0  0  0  0
    0.2298   48.9166   20.8810 H   0  0  0  0  0  0
   -1.3129   49.7006   20.5471 H   0  0  0  0  0  0
    1.6934   51.6728   21.4552 H   0  0  0  0  0  0
    1.9037   54.0430   22.9443 H   0  0  0  0  0  0
    2.3824   52.3003   22.9763 H   0  0  0  0  0  0
    1.4893   51.6819   26.4255 H   0  0  0  0  0  0
    0.5624   53.1437   26.2041 H   0  0  0  0  0  0
   -0.0045   49.8142   23.5202 H   0  0  0  0  0  0
    1.6113   50.2272   23.9819 H   0  0  0  0  0  0
    0.6827   48.2536   25.3028 H   0  0  0  0  0  0
    1.1044   49.5707   26.4024 H   0  0  0  0  0  0
   -1.6006   48.8981   25.4242 H   0  0  0  0  0  0
   -2.5113   50.6500   26.7262 H   0  0  0  0  0  0
   -0.8820   51.1226   27.2475 H   0  0  0  0  0  0
   -1.7041   52.6166   25.3559 H   0  0  0  0  0  0
   -1.9815   51.2411   24.3405 H   0  0  0  0  0  0
    5.5463   52.8974   26.4884 H   0  0  0  0  0  0
    5.6083   55.6966   27.6643 H   0  0  0  0  0  0
    6.9421   54.7974   26.9834 H   0  0  0  0  0  0
    5.6791   55.3999   25.9319 H   0  0  0  0  0  0
    4.8455   53.8095   29.3096 H   0  0  0  0  0  0
    5.0120   52.1496   28.7513 H   0  0  0  0  0  0
    6.4166   53.2037   28.8423 H   0  0  0  0  0  0
    1.7244   52.4979   28.5430 H   0  0  0  0  0  0
    0.3130   52.4901   30.5166 H   0  0  0  0  0  0
   -0.0945   54.5683   31.7629 H   0  0  0  0  0  0
    0.9305   56.7039   31.0206 H   0  0  0  0  0  0
    2.3411   56.7434   29.0014 H   0  0  0  0  0  0
   -1.0604   48.8069   26.9645 H   0  0  0  0  0  0
    1.3588   53.1213   18.5956 H   0  0  0  0  0  0
  1  2  1  0  0  0
  1 42  1  0  0  0
  1 43  1  0  0  0
  1 44  1  0  0  0
  2  7  2  0  0  0
  2  3  1  0  0  0
  3  4  2  0  0  0
  3 45  1  0  0  0
  4  5  1  0  0  0
  4 46  1  0  0  0
  5 10  1  0  0  0
  5  6  2  0  0  0
  6  7  1  0  0  0
  6  8  1  0  0  0
  7 47  1  0  0  0
  8  9  1  0  0  0
  8 78  1  0  0  0
  9 10  2  0  0  0
  9 11  1  0  0  0
 11 12  1  0  0  0
 11 13  1  0  0  0
 11 14  1  0  0  0
 13 48  1  0  0  0
 13 49  1  0  0  0
 13 50  1  0  0  0
 14 15  1  0  0  0
 14 51  1  0  0  0
 15 16  2  0  0  0
 15 17  1  0  0  0
 17 18  1  0  0  0
 17 22  1  0  0  0
 17 19  1  0  0  0
 19 20  1  0  0  0
 19 52  1  0  0  0
 19 53  1  0  0  0
 20 21  1  0  0  0
 20 28  1  0  0  0
 21 22  1  0  0  0
 21 54  1  0  0  0
 21 55  1  0  0  0
 22 27  1  0  0  0
 22 23  1  0  0  0
 23 24  1  0  0  0
 23 56  1  0  0  0
 23 57  1  0  0  0
 24 25  1  0  0  0
 24 58  1  0  0  0
 24 59  1  0  0  0
 25 26  1  0  0  0
 25 60  1  0  0  0
 25 77  1  0  0  0
 26 27  1  0  0  0
 26 61  1  0  0  0
 26 62  1  0  0  0
 27 63  1  0  0  0
 27 64  1  0  0  0
 28 29  2  0  0  0
 28 30  1  0  0  0
 30 31  1  0  0  0
 30 32  1  0  0  0
 30 35  1  0  0  0
 32 33  1  0  0  0
 32 34  1  0  0  0
 32 65  1  0  0  0
 33 66  1  0  0  0
 33 67  1  0  0  0
 33 68  1  0  0  0
 34 69  1  0  0  0
 34 70  1  0  0  0
 34 71  1  0  0  0
 35 36  1  0  0  0
 36 41  2  0  0  0
 36 37  1  0  0  0
 37 38  2  0  0  0
 37 72  1  0  0  0
 38 39  1  0  0  0
 38 73  1  0  0  0
 39 40  2  0  0  0
 39 74  1  0  0  0
 40 41  1  0  0  0
 40 75  1  0  0  0
 41 76  1  0  0  0
M  CHG  1  25   1
M  END
> <i_i_glide_confnum>
43

> <i_i_glide_lignum>
351

> <i_i_glide_posenum>
392

> <i_i_glide_rotatable_bonds>
9

> <i_m_Source_File_Index>
2718

> <b_m_subgroup_collapsed>
0

> <r_i_docking_score>
-7.05298

> <r_i_glide_ecoul>
-11.0412

> <r_i_glide_eff_state_penalty>
0

> <r_i_glide_einternal>
8.52104

> <r_i_glide_emodel>
-77.6322

> <r_i_glide_energy>
-54.8421

> <r_i_glide_erotb>
0.534458

> <r_i_glide_esite>
-0.136894

> <r_i_glide_evdw>
-43.8008

> <r_i_glide_gscore>
-7.05298

> <r_i_glide_hbond>
-0.2

> <r_i_glide_ligand_efficiency>
-0.185605

> <r_i_glide_ligand_efficiency_ln>
-1.52083

> <r_i_glide_ligand_efficiency_sa>
-0.623998

> <r_i_glide_lipo>
-2.81101

> <r_i_glide_metal>
0

> <r_i_glide_rewards>
-0.593307

> <s_i_glide_gridfile>
wee1_glide-grid

> <s_m_Source_File>
wee1_decoys_glide_SP.sdf

> <s_m_Source_Path>
/Users/zhangxujun/Desktop

> <s_m_entry_id>
2993

> <s_m_entry_name>
wee1_decoys_glide_SP.2718

> <s_m_subgroup_title>
wee1_decoys_glide_SP

> <s_m_subgroupid>
wee1_decoys_glide_SP


$$$$
