ZINC20504497_5083
                    3D
 Schrodinger Suite 2024-2.
 76 80  0  0  1  0            999 V2000
    3.1942   53.4949   26.0769 C   0  0  0  0  0  0
    1.8218   53.2424   25.4034 C   0  0  2  0  0  0
    1.3582   54.2118   25.2221 H   0  0  0  0  0  0
    0.8817   52.4912   26.3338 C   0  0  0  0  0  0
    0.1565   51.3560   25.9961 C   0  0  0  0  0  0
   -0.9243   50.8972   27.2807 S   0  0  0  0  0  0
   -0.2299   52.0675   28.3580 C   0  0  0  0  0  0
    0.6515   52.8560   27.6472 N   0  3  0  0  0  0
   -0.4934   52.1599   29.6940 N   0  0  0  0  0  0
    0.1267   53.1272   30.6233 C   0  0  0  0  0  0
    1.5767   53.4643   30.3076 C   0  0  0  0  0  0
    1.9004   54.6973   29.7340 C   0  0  0  0  0  0
    3.2040   54.9345   29.3095 C   0  0  0  0  0  0
    4.1780   53.9544   29.4736 C   0  0  0  0  0  0
    3.8670   52.7384   30.0779 C   0  0  0  0  0  0
    2.5634   52.4970   30.5013 C   0  0  0  0  0  0
    0.3019   50.6282   24.6805 C   0  0  0  0  0  0
    0.6148   51.6856   23.5906 C   0  0  1  0  0  0
    1.8969   52.5206   24.0124 C   0  0  1  0  0  0
    2.7032   51.7922   24.1337 H   0  0  0  0  0  0
    2.3368   53.4462   22.8277 C   0  0  2  0  0  0
    1.4818   54.0274   22.4875 H   0  0  0  0  0  0
    2.8047   52.5422   21.6421 C   0  0  1  0  0  0
    3.4347   51.7495   22.0493 H   0  0  0  0  0  0
    1.5218   51.8245   21.1399 C   0  0  0  0  0  0
    0.9107   50.9370   22.2527 C   0  0  0  0  0  0
    3.6739   53.2346   20.5270 C   0  0  2  0  0  0
    3.1054   54.0890   20.1703 H   0  0  0  0  0  0
    3.9025   52.2803   19.3318 C   0  0  0  0  0  0
    5.0514   53.7511   21.0526 C   0  0  0  0  0  0
    5.5036   53.2188   22.0738 O   0  0  0  0  0  0
    5.6231   54.8730   20.5305 N   0  0  0  0  0  0
    6.7808   55.4946   21.2125 C   0  0  0  0  0  0
    7.9953   55.5243   20.2593 C   0  0  0  0  0  0
    7.6573   56.1463   18.9800 N   0  0  0  0  0  0
    6.5563   55.4415   18.3160 C   0  0  0  0  0  0
    5.2812   55.4044   19.1932 C   0  0  0  0  0  0
    8.8354   56.1874   18.1167 C   0  0  0  0  0  0
    3.2269   54.4732   23.2110 O   0  0  0  0  0  0
   -0.6530   52.5684   23.4353 C   0  0  0  0  0  0
    3.1980   54.4510   26.5934 H   0  0  0  0  0  0
    3.4375   52.7296   26.8113 H   0  0  0  0  0  0
    4.0231   53.5159   25.3748 H   0  0  0  0  0  0
   -1.2065   51.5583   30.0912 H   0  0  0  0  0  0
   -0.4954   54.0231   30.6517 H   0  0  0  0  0  0
    0.0743   52.6778   31.6179 H   0  0  0  0  0  0
    1.1446   55.4566   29.5897 H   0  0  0  0  0  0
    3.4641   55.8795   28.8627 H   0  0  0  0  0  0
    5.1899   54.1457   29.1420 H   0  0  0  0  0  0
    4.6359   51.9922   30.2150 H   0  0  0  0  0  0
    2.3043   51.5663   30.9768 H   0  0  0  0  0  0
   -0.5910   50.0473   24.4442 H   0  0  0  0  0  0
    1.1060   49.8985   24.7816 H   0  0  0  0  0  0
    0.8102   52.5379   20.7197 H   0  0  0  0  0  0
    1.7595   51.1569   20.3130 H   0  0  0  0  0  0
    0.0189   50.4207   21.8957 H   0  0  0  0  0  0
    1.6302   50.1381   22.4498 H   0  0  0  0  0  0
    4.6993   52.5899   18.6554 H   0  0  0  0  0  0
    4.1740   51.2879   19.6836 H   0  0  0  0  0  0
    3.0086   52.1835   18.7168 H   0  0  0  0  0  0
    7.0771   54.9758   22.1259 H   0  0  0  0  0  0
    6.5169   56.5140   21.4910 H   0  0  0  0  0  0
    8.8142   56.0642   20.7383 H   0  0  0  0  0  0
    8.3139   54.4998   20.0584 H   0  0  0  0  0  0
    6.3233   55.9285   17.3668 H   0  0  0  0  0  0
    6.8770   54.4139   18.1189 H   0  0  0  0  0  0
    4.9028   56.4221   19.2824 H   0  0  0  0  0  0
    4.5243   54.8214   18.6740 H   0  0  0  0  0  0
    8.6092   56.6999   17.1803 H   0  0  0  0  0  0
    9.6503   56.7323   18.5980 H   0  0  0  0  0  0
    9.1959   55.1841   17.8802 H   0  0  0  0  0  0
    4.1220   54.1181   23.1388 H   0  0  0  0  0  0
   -0.8955   53.1309   24.3363 H   0  0  0  0  0  0
   -0.5374   53.2966   22.6607 H   0  0  0  0  0  0
   -1.5286   51.9679   23.1848 H   0  0  0  0  0  0
    1.1570   53.6118   28.0874 H   0  0  0  0  0  0
  1  2  1  0  0  0
  1 41  1  0  0  0
  1 42  1  0  0  0
  1 43  1  0  0  0
  2  3  1  0  0  0
  2 19  1  0  0  0
  2  4  1  0  0  0
  4  8  1  0  0  0
  4  5  2  0  0  0
  5  6  1  0  0  0
  5 17  1  0  0  0
  6  7  1  0  0  0
  7  8  2  0  0  0
  7  9  1  0  0  0
  8 76  1  0  0  0
  9 10  1  0  0  0
  9 44  1  0  0  0
 10 11  1  0  0  0
 10 45  1  0  0  0
 10 46  1  0  0  0
 11 16  2  0  0  0
 11 12  1  0  0  0
 12 13  2  0  0  0
 12 47  1  0  0  0
 13 14  1  0  0  0
 13 48  1  0  0  0
 14 15  2  0  0  0
 14 49  1  0  0  0
 15 16  1  0  0  0
 15 50  1  0  0  0
 16 51  1  0  0  0
 17 18  1  0  0  0
 17 52  1  0  0  0
 17 53  1  0  0  0
 18 26  1  0  0  0
 18 19  1  0  0  0
 18 40  1  0  0  0
 19 20  1  0  0  0
 19 21  1  0  0  0
 21 22  1  0  0  0
 21 23  1  0  0  0
 21 39  1  0  0  0
 23 24  1  0  0  0
 23 25  1  0  0  0
 23 27  1  0  0  0
 25 26  1  0  0  0
 25 54  1  0  0  0
 25 55  1  0  0  0
 26 56  1  0  0  0
 26 57  1  0  0  0
 27 28  1  0  0  0
 27 29  1  0  0  0
 27 30  1  0  0  0
 29 58  1  0  0  0
 29 59  1  0  0  0
 29 60  1  0  0  0
 30 31  2  0  0  0
 30 32  1  0  0  0
 32 37  1  0  0  0
 32 33  1  0  0  0
 33 34  1  0  0  0
 33 61  1  0  0  0
 33 62  1  0  0  0
 34 35  1  0  0  0
 34 63  1  0  0  0
 34 64  1  0  0  0
 35 36  1  0  0  0
 35 38  1  0  0  0
 36 37  1  0  0  0
 36 65  1  0  0  0
 36 66  1  0  0  0
 37 67  1  0  0  0
 37 68  1  0  0  0
 38 69  1  0  0  0
 38 70  1  0  0  0
 38 71  1  0  0  0
 39 72  1  0  0  0
 40 73  1  0  0  0
 40 74  1  0  0  0
 40 75  1  0  0  0
M  CHG  1   8   1
M  END
> <i_i_glide_confnum>
177

> <i_i_glide_lignum>
5084

> <i_i_glide_posenum>
97

> <i_i_glide_rotatable_bonds>
7

> <i_m_Source_File_Index>
647

> <b_m_subgroup_collapsed>
0

> <r_i_docking_score>
-4.3915

> <r_i_glide_ecoul>
-4.36593

> <r_i_glide_eff_state_penalty>
0

> <r_i_glide_einternal>
4.18881

> <r_i_glide_emodel>
-50.0471

> <r_i_glide_energy>
-40.2893

> <r_i_glide_erotb>
0.494128

> <r_i_glide_esite>
-0.0495178

> <r_i_glide_evdw>
-35.9234

> <r_i_glide_gscore>
-4.3915

> <r_i_glide_hbond>
0

> <r_i_glide_ligand_efficiency>
-0.125471

> <r_i_glide_ligand_efficiency_ln>
-0.964031

> <r_i_glide_ligand_efficiency_sa>
-0.410425

> <r_i_glide_lipo>
-2.01314

> <r_i_glide_metal>
0

> <r_i_glide_rewards>
-0.371909

> <s_i_glide_gridfile>
wee1_glide-grid

> <s_m_Source_File>
wee1_decoys_glide_SP.sdf

> <s_m_Source_Path>
/Users/zhangxujun/Desktop

> <s_m_entry_id>
922

> <s_m_entry_name>
wee1_decoys_glide_SP.647

> <s_m_subgroup_title>
wee1_decoys_glide_SP

> <s_m_subgroupid>
wee1_decoys_glide_SP


$$$$
