ZINC13361287_2594
                    3D
 Schrodinger Suite 2024-2.
 47 49  0  0  1  0            999 V2000
    2.2371   53.4347   28.6488 C   0  0  0  0  0  0
    2.0989   53.6549   27.1307 C   0  0  1  0  0  0
    1.5107   54.5610   27.0151 H   0  0  0  0  0  0
    3.4810   53.8295   26.4613 C   0  0  0  0  0  0
    3.3704   54.2512   24.9783 C   0  0  0  0  0  0
    2.3844   53.3102   24.3007 C   0  0  0  0  0  0
    1.4617   52.4933   24.9721 C   0  0  0  0  0  0
    0.7630   51.6625   24.0854 C   0  0  0  0  0  0
    1.1396   51.8378   22.7559 C   0  0  0  0  0  0
    2.2674   53.1423   22.5768 S   0  0  0  0  0  0
    0.6847   51.1274   21.5993 C   0  0  0  0  0  0
    0.2715   51.7121   20.5961 O   0  0  0  0  0  0
    0.8305   49.7948   21.7284 N   0  0  0  0  0  0
    0.7923   48.9507   20.6339 N   0  0  0  0  0  0
   -0.7794   48.2238   20.3001 S   0  0  0  0  0  0
   -1.2956   47.6765   21.5611 O   0  0  0  0  0  0
   -1.5790   49.1803   19.5274 O   0  0  0  0  0  0
   -0.3707   46.8379   19.2312 C   0  0  0  0  0  0
   -0.4967   45.5348   19.7234 C   0  0  0  0  0  0
   -0.0688   44.4303   18.9745 C   0  0  0  0  0  0
    0.4168   44.6572   17.6795 C   0  0  0  0  0  0
    0.5209   45.9507   17.1735 C   0  0  0  0  0  0
    0.1519   47.0604   17.9511 C   0  0  0  0  0  0
    0.2952   48.3698   17.5322 O   0  0  0  0  0  0
    0.9144   48.6455   16.2808 C   0  0  0  0  0  0
   -0.0882   43.0506   19.5616 C   0  0  0  0  0  0
   -0.4955   42.8968   20.7362 O   0  0  0  0  0  0
    1.2819   52.4993   26.4914 C   0  0  0  0  0  0
    2.8088   52.5327   28.8704 H   0  0  0  0  0  0
    1.2616   53.3352   29.1267 H   0  0  0  0  0  0
    2.7478   54.2737   29.1236 H   0  0  0  0  0  0
    4.0549   54.5866   26.9967 H   0  0  0  0  0  0
    4.0659   52.9156   26.5748 H   0  0  0  0  0  0
    3.0494   55.2889   24.8821 H   0  0  0  0  0  0
    4.3516   54.1913   24.5079 H   0  0  0  0  0  0
    0.0320   50.9345   24.4110 H   0  0  0  0  0  0
    1.3342   49.4229   22.5205 H   0  0  0  0  0  0
    1.2009   49.4226   19.8201 H   0  0  0  0  0  0
   -0.8773   45.3833   20.7260 H   0  0  0  0  0  0
    0.7470   43.8307   17.0661 H   0  0  0  0  0  0
    0.9211   46.0760   16.1780 H   0  0  0  0  0  0
    1.0033   49.7247   16.1537 H   0  0  0  0  0  0
    1.9179   48.2231   16.2288 H   0  0  0  0  0  0
    0.3197   48.2609   15.4508 H   0  0  0  0  0  0
    1.5864   51.5383   26.9026 H   0  0  0  0  0  0
    0.2252   52.6159   26.7399 H   0  0  0  0  0  0
    0.3044   42.0964   18.8558 O   0  5  0  0  0  0
  1  2  1  0  0  0
  1 29  1  0  0  0
  1 30  1  0  0  0
  1 31  1  0  0  0
  2  3  1  0  0  0
  2 28  1  0  0  0
  2  4  1  0  0  0
  4  5  1  0  0  0
  4 32  1  0  0  0
  4 33  1  0  0  0
  5  6  1  0  0  0
  5 34  1  0  0  0
  5 35  1  0  0  0
  6 10  1  0  0  0
  6  7  2  0  0  0
  7  8  1  0  0  0
  7 28  1  0  0  0
  8  9  2  0  0  0
  8 36  1  0  0  0
  9 10  1  0  0  0
  9 11  1  0  0  0
 11 12  2  0  0  0
 11 13  1  0  0  0
 13 14  1  0  0  0
 13 37  1  0  0  0
 14 15  1  0  0  0
 14 38  1  0  0  0
 15 16  2  0  0  0
 15 17  2  0  0  0
 15 18  1  0  0  0
 18 23  2  0  0  0
 18 19  1  0  0  0
 19 20  2  0  0  0
 19 39  1  0  0  0
 20 21  1  0  0  0
 20 26  1  0  0  0
 21 22  2  0  0  0
 21 40  1  0  0  0
 22 23  1  0  0  0
 22 41  1  0  0  0
 23 24  1  0  0  0
 24 25  1  0  0  0
 25 42  1  0  0  0
 25 43  1  0  0  0
 25 44  1  0  0  0
 26 27  2  0  0  0
 26 47  1  0  0  0
 28 45  1  0  0  0
 28 46  1  0  0  0
M  CHG  1  47  -1
M  END
> <i_i_glide_confnum>
197

> <i_i_glide_lignum>
2595

> <i_i_glide_posenum>
379

> <i_i_glide_rotatable_bonds>
7

> <i_m_Source_File_Index>
5740

> <b_m_subgroup_collapsed>
0

> <r_i_docking_score>
-4.23407

> <r_i_glide_ecoul>
-8.1192

> <r_i_glide_eff_state_penalty>
0

> <r_i_glide_einternal>
9.36831

> <r_i_glide_emodel>
-42.8571

> <r_i_glide_energy>
-34.8851

> <r_i_glide_erotb>
0.552578

> <r_i_glide_esite>
-0.0718999

> <r_i_glide_evdw>
-26.7659

> <r_i_glide_gscore>
-4.23407

> <r_i_glide_hbond>
-0.4

> <r_i_glide_ligand_efficiency>
-0.151217

> <r_i_glide_ligand_efficiency_ln>
-0.977347

> <r_i_glide_ligand_efficiency_sa>
-0.459183

> <r_i_glide_lipo>
-1.54691

> <r_i_glide_metal>
0

> <r_i_glide_rewards>
-0.211665

> <s_i_glide_gridfile>
wee1_glide-grid

> <s_m_Source_File>
wee1_decoys_glide_SP.sdf

> <s_m_Source_Path>
/Users/zhangxujun/Desktop

> <s_m_entry_id>
6015

> <s_m_entry_name>
wee1_decoys_glide_SP.5740

> <s_m_subgroup_title>
wee1_decoys_glide_SP

> <s_m_subgroupid>
wee1_decoys_glide_SP


$$$$
