ZINC13632920_2856
                    3D
 Schrodinger Suite 2024-2.
 62 64  0  0  1  0            999 V2000
    1.5637   52.1928   31.3962 C   0  0  0  0  0  0
    0.6838   52.9497   30.3830 C   0  0  0  0  0  0
   -0.5029   52.0178   30.0131 C   0  0  0  0  0  0
    0.1194   54.2106   31.0694 C   0  0  0  0  0  0
    1.5315   53.3506   29.1540 C   0  0  0  0  0  0
    1.2219   52.8971   27.8647 C   0  0  0  0  0  0
    2.0209   53.2359   26.7823 C   0  0  0  0  0  0
    3.1623   54.0389   26.9534 C   0  0  0  0  0  0
    3.4671   54.4992   28.2372 C   0  0  0  0  0  0
    2.6601   54.1649   29.3173 C   0  0  0  0  0  0
    4.0717   54.3811   25.7949 C   0  0  0  0  0  0
    5.1715   54.8996   25.9930 O   0  0  0  0  0  0
    3.5697   54.0742   24.5805 N   0  0  0  0  0  0
    4.1694   54.0981   23.3170 C   0  0  0  0  0  0
    3.3556   53.6823   22.2621 C   0  0  0  0  0  0
    3.8516   53.6518   20.9652 C   0  0  0  0  0  0
    5.1522   54.0711   20.7136 C   0  0  0  0  0  0
    5.9698   54.4970   21.7651 C   0  0  0  0  0  0
    5.4914   54.4923   23.0699 C   0  0  0  0  0  0
    5.6280   53.9317   19.4034 N   0  0  0  0  0  0
    6.3227   54.7811   18.5932 C   0  0  0  0  0  0
    6.7063   56.3706   19.0055 S   0  0  0  0  0  0
    6.6256   54.1328   17.4233 N   0  0  0  0  0  0
    7.2489   54.5141   16.2781 C   0  0  0  0  0  0
    7.7555   55.6152   16.0646 O   0  0  0  0  0  0
    7.2959   53.4802   15.2661 C   0  0  0  0  0  0
    6.3072   52.5798   15.0511 C   0  0  0  0  0  0
    6.2951   51.5025   14.0397 C   0  0  0  0  0  0
    7.4289   51.1488   13.3010 C   0  0  0  0  0  0
    7.3693   50.1118   12.3761 C   0  0  0  0  0  0
    6.1748   49.4129   12.1635 C   0  0  0  0  0  0
    5.0426   49.7688   12.9041 C   0  0  0  0  0  0
    5.1025   50.8052   13.8294 C   0  0  0  0  0  0
    6.1100   48.3223   11.1658 N   0  3  0  0  0  0
    5.0630   47.6976   11.0325 O   0  0  0  0  0  0
    7.1044   48.0967   10.4826 O   0  5  0  0  0  0
    1.0067   51.8965   32.2851 H   0  0  0  0  0  0
    2.4159   52.7819   31.7254 H   0  0  0  0  0  0
    1.9733   51.2968   30.9435 H   0  0  0  0  0  0
   -1.2012   52.4967   29.3293 H   0  0  0  0  0  0
   -0.1694   51.0943   29.5391 H   0  0  0  0  0  0
   -1.0833   51.7123   30.8824 H   0  0  0  0  0  0
   -0.4954   54.7888   30.3842 H   0  0  0  0  0  0
   -0.4918   53.9546   31.9385 H   0  0  0  0  0  0
    0.9011   54.8824   31.4189 H   0  0  0  0  0  0
    0.3711   52.2627   27.6717 H   0  0  0  0  0  0
    1.7441   52.8275   25.8208 H   0  0  0  0  0  0
    4.3383   55.1169   28.4118 H   0  0  0  0  0  0
    2.9297   54.5377   30.2899 H   0  0  0  0  0  0
    2.6304   53.7117   24.5855 H   0  0  0  0  0  0
    2.3350   53.3716   22.4362 H   0  0  0  0  0  0
    3.2135   53.3120   20.1632 H   0  0  0  0  0  0
    6.9903   54.8002   21.5856 H   0  0  0  0  0  0
    6.1604   54.8075   23.8526 H   0  0  0  0  0  0
    5.3197   53.0752   18.9653 H   0  0  0  0  0  0
    6.3605   53.1585   17.4183 H   0  0  0  0  0  0
    8.1895   53.4953   14.6591 H   0  0  0  0  0  0
    5.4228   52.6179   15.6728 H   0  0  0  0  0  0
    8.3692   51.6601   13.4424 H   0  0  0  0  0  0
    8.2667   49.8582   11.8286 H   0  0  0  0  0  0
    4.1074   49.2435   12.7702 H   0  0  0  0  0  0
    4.2154   51.0455   14.3968 H   0  0  0  0  0  0
  1  2  1  0  0  0
  1 37  1  0  0  0
  1 38  1  0  0  0
  1 39  1  0  0  0
  2  3  1  0  0  0
  2  4  1  0  0  0
  2  5  1  0  0  0
  3 40  1  0  0  0
  3 41  1  0  0  0
  3 42  1  0  0  0
  4 43  1  0  0  0
  4 44  1  0  0  0
  4 45  1  0  0  0
  5 10  2  0  0  0
  5  6  1  0  0  0
  6  7  2  0  0  0
  6 46  1  0  0  0
  7  8  1  0  0  0
  7 47  1  0  0  0
  8  9  2  0  0  0
  8 11  1  0  0  0
  9 10  1  0  0  0
  9 48  1  0  0  0
 10 49  1  0  0  0
 11 12  2  0  0  0
 11 13  1  0  0  0
 13 14  1  0  0  0
 13 50  1  0  0  0
 14 19  2  0  0  0
 14 15  1  0  0  0
 15 16  2  0  0  0
 15 51  1  0  0  0
 16 17  1  0  0  0
 16 52  1  0  0  0
 17 18  2  0  0  0
 17 20  1  0  0  0
 18 19  1  0  0  0
 18 53  1  0  0  0
 19 54  1  0  0  0
 20 21  1  0  0  0
 20 55  1  0  0  0
 21 22  2  0  0  0
 21 23  1  0  0  0
 23 24  1  0  0  0
 23 56  1  0  0  0
 24 25  2  0  0  0
 24 26  1  0  0  0
 26 27  2  0  0  0
 26 57  1  0  0  0
 27 28  1  0  0  0
 27 58  1  0  0  0
 28 33  2  0  0  0
 28 29  1  0  0  0
 29 30  2  0  0  0
 29 59  1  0  0  0
 30 31  1  0  0  0
 30 60  1  0  0  0
 31 32  2  0  0  0
 31 34  1  0  0  0
 32 33  1  0  0  0
 32 61  1  0  0  0
 33 62  1  0  0  0
 34 35  2  0  0  0
 34 36  1  0  0  0
M  CHG  2  34   1  36  -1
M  END
> <i_i_glide_confnum>
124

> <i_i_glide_lignum>
2857

> <i_i_glide_posenum>
331

> <i_i_glide_rotatable_bonds>
11

> <i_m_Source_File_Index>
5052

> <b_m_subgroup_collapsed>
0

> <r_i_docking_score>
-4.17054

> <r_i_glide_ecoul>
-3.50058

> <r_i_glide_eff_state_penalty>
0

> <r_i_glide_einternal>
4.02077

> <r_i_glide_emodel>
-58.0042

> <r_i_glide_energy>
-47.594

> <r_i_glide_erotb>
0.728081

> <r_i_glide_esite>
-0.189196

> <r_i_glide_evdw>
-44.0934

> <r_i_glide_gscore>
-4.17054

> <r_i_glide_hbond>
0

> <r_i_glide_ligand_efficiency>
-0.115848

> <r_i_glide_ligand_efficiency_ln>
-0.909898

> <r_i_glide_ligand_efficiency_sa>
-0.382522

> <r_i_glide_lipo>
-1.94064

> <r_i_glide_metal>
0

> <r_i_glide_rewards>
-0.0390212

> <s_i_glide_gridfile>
wee1_glide-grid

> <s_m_Source_File>
wee1_decoys_glide_SP.sdf

> <s_m_Source_Path>
/Users/zhangxujun/Desktop

> <s_m_entry_id>
5327

> <s_m_entry_name>
wee1_decoys_glide_SP.5052

> <s_m_subgroup_title>
wee1_decoys_glide_SP

> <s_m_subgroupid>
wee1_decoys_glide_SP


$$$$
