ZINC65256352_2231
                    3D
 Schrodinger Suite 2024-2.
 65 69  0  0  1  0            999 V2000
   -4.8181   45.4513   25.5321 C   0  0  0  0  0  0
   -4.7001   46.0632   24.2845 C   0  0  0  0  0  0
   -3.5561   46.7949   23.9750 C   0  0  0  0  0  0
   -2.5233   46.9179   24.9154 C   0  0  0  0  0  0
   -2.6454   46.2766   26.1548 C   0  0  0  0  0  0
   -3.7925   45.5527   26.4688 C   0  0  0  0  0  0
   -1.2602   47.7412   24.6403 C   0  0  1  0  0  0
   -0.4106   47.1002   24.8839 H   0  0  0  0  0  0
   -1.0591   48.3253   23.2099 C   0  0  0  0  0  0
    0.0881   49.2458   23.0327 N   0  0  0  0  0  0
    0.1877   50.2388   24.1300 C   0  0  0  0  0  0
    0.1034   49.6534   25.5502 C   0  0  0  0  0  0
   -1.1978   48.8651   25.6817 N   0  3  0  0  0  0
    0.7333   49.4465   21.7999 C   0  0  0  0  0  0
    0.4957   48.6587   20.6576 C   0  0  0  0  0  0
    1.2857   48.8372   19.5163 C   0  0  0  0  0  0
    2.2953   49.8005   19.5146 C   0  0  0  0  0  0
    2.4505   50.5877   20.6572 C   0  0  0  0  0  0
    1.6990   50.4057   21.7728 N   0  0  0  0  0  0
    3.5274   51.6200   20.7646 C   0  0  0  0  0  0
    4.7046   51.2966   20.8818 O   0  0  0  0  0  0
    3.1051   52.8896   20.8157 N   0  0  0  0  0  0
    3.9211   53.9832   21.3272 C   0  0  0  0  0  0
    3.8814   54.0663   22.8497 C   0  0  0  0  0  0
    5.0630   54.0981   23.5918 C   0  0  0  0  0  0
    5.0068   54.1586   24.9836 C   0  0  0  0  0  0
    3.7742   54.1555   25.6497 C   0  0  0  0  0  0
    2.5998   54.0950   24.8922 C   0  0  0  0  0  0
    2.6494   54.0679   23.5045 C   0  0  0  0  0  0
    3.7090   54.2235   27.0514 N   0  0  0  0  0  0
    4.8455   54.3172   27.9705 C   0  0  0  0  0  0
    4.3046   54.2345   29.3946 C   0  0  0  0  0  0
    2.8808   54.7269   29.2547 C   0  0  0  0  0  0
    2.4959   54.2137   27.8730 C   0  0  0  0  0  0
   -5.7117   44.8933   25.7752 H   0  0  0  0  0  0
   -5.5017   45.9794   23.5639 H   0  0  0  0  0  0
   -3.4952   47.2696   23.0062 H   0  0  0  0  0  0
   -1.8593   46.3595   26.8947 H   0  0  0  0  0  0
   -3.8795   45.0721   27.4341 H   0  0  0  0  0  0
   -1.9523   48.8918   22.9408 H   0  0  0  0  0  0
   -1.0016   47.4847   22.5206 H   0  0  0  0  0  0
    1.0893   50.8491   24.0623 H   0  0  0  0  0  0
   -0.6551   50.9168   23.9822 H   0  0  0  0  0  0
    0.9222   48.9669   25.7818 H   0  0  0  0  0  0
    0.0506   50.4264   26.3181 H   0  0  0  0  0  0
   -1.2911   48.4950   26.6323 H   0  0  0  0  0  0
   -0.2613   47.8917   20.6395 H   0  0  0  0  0  0
    1.1345   48.2206   18.6429 H   0  0  0  0  0  0
    2.9344   49.9346   18.6497 H   0  0  0  0  0  0
    2.1406   53.0998   20.6071 H   0  0  0  0  0  0
    3.5053   54.8965   20.9224 H   0  0  0  0  0  0
    4.9496   53.9167   20.9621 H   0  0  0  0  0  0
    6.0242   54.0808   23.0979 H   0  0  0  0  0  0
    5.9315   54.1908   25.5377 H   0  0  0  0  0  0
    1.6326   54.0844   25.3681 H   0  0  0  0  0  0
    1.7287   54.0333   22.9412 H   0  0  0  0  0  0
    5.4058   55.2415   27.8210 H   0  0  0  0  0  0
    5.5163   53.4736   27.7949 H   0  0  0  0  0  0
    4.8830   54.8554   30.0819 H   0  0  0  0  0  0
    4.3349   53.2046   29.7586 H   0  0  0  0  0  0
    2.2225   54.3382   30.0324 H   0  0  0  0  0  0
    2.8190   55.8166   29.2914 H   0  0  0  0  0  0
    2.0590   53.2150   27.9164 H   0  0  0  0  0  0
    1.7611   54.8971   27.4488 H   0  0  0  0  0  0
   -1.9986   49.4683   25.5633 H   0  0  0  0  0  0
  1  6  2  0  0  0
  1  2  1  0  0  0
  1 35  1  0  0  0
  2  3  2  0  0  0
  2 36  1  0  0  0
  3  4  1  0  0  0
  3 37  1  0  0  0
  4  5  2  0  0  0
  4  7  1  0  0  0
  5  6  1  0  0  0
  5 38  1  0  0  0
  6 39  1  0  0  0
  7  8  1  0  0  0
  7 13  1  0  0  0
  7  9  1  0  0  0
  9 10  1  0  0  0
  9 40  1  0  0  0
  9 41  1  0  0  0
 10 11  1  0  0  0
 10 14  1  0  0  0
 11 12  1  0  0  0
 11 42  1  0  0  0
 11 43  1  0  0  0
 12 13  1  0  0  0
 12 44  1  0  0  0
 12 45  1  0  0  0
 13 46  1  0  0  0
 13 65  1  0  0  0
 14 19  2  0  0  0
 14 15  1  0  0  0
 15 16  2  0  0  0
 15 47  1  0  0  0
 16 17  1  0  0  0
 16 48  1  0  0  0
 17 18  2  0  0  0
 17 49  1  0  0  0
 18 19  1  0  0  0
 18 20  1  0  0  0
 20 21  2  0  0  0
 20 22  1  0  0  0
 22 23  1  0  0  0
 22 50  1  0  0  0
 23 24  1  0  0  0
 23 51  1  0  0  0
 23 52  1  0  0  0
 24 29  2  0  0  0
 24 25  1  0  0  0
 25 26  2  0  0  0
 25 53  1  0  0  0
 26 27  1  0  0  0
 26 54  1  0  0  0
 27 28  2  0  0  0
 27 30  1  0  0  0
 28 29  1  0  0  0
 28 55  1  0  0  0
 29 56  1  0  0  0
 30 34  1  0  0  0
 30 31  1  0  0  0
 31 32  1  0  0  0
 31 57  1  0  0  0
 31 58  1  0  0  0
 32 33  1  0  0  0
 32 59  1  0  0  0
 32 60  1  0  0  0
 33 34  1  0  0  0
 33 61  1  0  0  0
 33 62  1  0  0  0
 34 63  1  0  0  0
 34 64  1  0  0  0
M  CHG  1  13   1
M  END
> <i_i_glide_confnum>
252

> <i_i_glide_lignum>
2232

> <i_i_glide_posenum>
285

> <i_i_glide_rotatable_bonds>
7

> <i_m_Source_File_Index>
4416

> <b_m_subgroup_collapsed>
0

> <r_i_docking_score>
-6.27894

> <r_i_glide_ecoul>
-8.73044

> <r_i_glide_eff_state_penalty>
0

> <r_i_glide_einternal>
12.148

> <r_i_glide_emodel>
-71.8149

> <r_i_glide_energy>
-53.5166

> <r_i_glide_erotb>
0.714194

> <r_i_glide_esite>
-0.123413

> <r_i_glide_evdw>
-44.7862

> <r_i_glide_gscore>
-6.27894

> <r_i_glide_hbond>
-0.277353

> <r_i_glide_ligand_efficiency>
-0.190271

> <r_i_glide_ligand_efficiency_ln>
-1.3964

> <r_i_glide_ligand_efficiency_sa>
-0.6103

> <r_i_glide_lipo>
-2.29199

> <r_i_glide_metal>
0

> <r_i_glide_rewards>
-0.751498

> <s_i_glide_gridfile>
wee1_glide-grid

> <s_m_Source_File>
wee1_decoys_glide_SP.sdf

> <s_m_Source_Path>
/Users/zhangxujun/Desktop

> <s_m_entry_id>
4691

> <s_m_entry_name>
wee1_decoys_glide_SP.4416

> <s_m_subgroup_title>
wee1_decoys_glide_SP

> <s_m_subgroupid>
wee1_decoys_glide_SP


$$$$
