ZINC34784768_2370
                    3D
 Schrodinger Suite 2024-2.
 46 49  0  0  1  0            999 V2000
   -2.7963   48.3755   24.3599 C   0  0  0  0  0  0
   -2.7408   49.0498   23.1419 C   0  0  0  0  0  0
   -1.5294   49.5764   22.7003 C   0  0  0  0  0  0
   -0.3758   49.4372   23.4852 C   0  0  0  0  0  0
   -0.4403   48.7434   24.6951 C   0  0  0  0  0  0
   -1.6504   48.2177   25.1365 C   0  0  0  0  0  0
    0.8588   49.9036   23.0872 O   0  0  0  0  0  0
    1.0659   51.1868   22.6868 C   0  0  0  0  0  0
    0.2005   52.0567   22.5495 O   0  0  0  0  0  0
    2.4258   51.3292   22.4816 N   0  0  0  0  0  0
    3.0173   52.4964   22.0430 C   0  0  0  0  0  0
    3.4510   53.6165   22.7904 C   0  0  0  0  0  0
    4.0442   54.4929   22.0055 N   0  0  0  0  0  0
    4.1154   53.9337   20.7846 N   0  0  0  0  0  0
    3.5209   52.6862   20.7672 C   0  0  0  0  0  0
    3.5043   51.8501   19.6815 N   0  0  0  0  0  0
    4.7317   54.6428   19.7232 C   0  0  0  0  0  0
    4.0874   54.7131   18.4794 C   0  0  0  0  0  0
    4.6532   55.4351   17.4300 C   0  0  0  0  0  0
    5.8699   56.0893   17.6109 C   0  0  0  0  0  0
    6.5218   56.0232   18.8423 C   0  0  0  0  0  0
    5.9587   55.3080   19.9003 C   0  0  0  0  0  0
    6.6139   55.2760   21.0853 F   0  0  0  0  0  0
    4.0187   55.5048   16.2384 F   0  0  0  0  0  0
    3.4024   53.8504   24.2707 C   0  0  0  0  0  0
    2.2678   53.5412   25.0268 C   0  0  0  0  0  0
    2.2816   53.6963   26.4117 C   0  0  0  0  0  0
    3.4275   54.1712   27.0459 C   0  0  0  0  0  0
    4.5584   54.4975   26.3025 C   0  0  0  0  0  0
    4.5429   54.3445   24.9188 C   0  0  0  0  0  0
    3.4441   54.3679   28.7617 Cl  0  0  0  0  0  0
   -3.7356   47.9717   24.7078 H   0  0  0  0  0  0
   -3.6330   49.1641   22.5435 H   0  0  0  0  0  0
   -1.4837   50.0927   21.7526 H   0  0  0  0  0  0
    0.4474   48.6117   25.2991 H   0  0  0  0  0  0
   -1.6953   47.6960   26.0817 H   0  0  0  0  0  0
    2.9946   50.5022   22.5771 H   0  0  0  0  0  0
    2.9574   51.0015   19.6882 H   0  0  0  0  0  0
    4.1954   51.8917   18.9377 H   0  0  0  0  0  0
    3.1336   54.2277   18.3256 H   0  0  0  0  0  0
    6.3042   56.6492   16.7959 H   0  0  0  0  0  0
    7.4658   56.5296   18.9768 H   0  0  0  0  0  0
    1.3705   53.1801   24.5507 H   0  0  0  0  0  0
    1.4033   53.4498   26.9900 H   0  0  0  0  0  0
    5.4457   54.8655   26.7967 H   0  0  0  0  0  0
    5.4318   54.5842   24.3529 H   0  0  0  0  0  0
  1  6  2  0  0  0
  1  2  1  0  0  0
  1 32  1  0  0  0
  2  3  2  0  0  0
  2 33  1  0  0  0
  3  4  1  0  0  0
  3 34  1  0  0  0
  4  5  2  0  0  0
  4  7  1  0  0  0
  5  6  1  0  0  0
  5 35  1  0  0  0
  6 36  1  0  0  0
  7  8  1  0  0  0
  8  9  2  0  0  0
  8 10  1  0  0  0
 10 11  1  0  0  0
 10 37  1  0  0  0
 11 15  2  0  0  0
 11 12  1  0  0  0
 12 13  2  0  0  0
 12 25  1  0  0  0
 13 14  1  0  0  0
 14 15  1  0  0  0
 14 17  1  0  0  0
 15 16  1  0  0  0
 16 38  1  0  0  0
 16 39  1  0  0  0
 17 22  2  0  0  0
 17 18  1  0  0  0
 18 19  2  0  0  0
 18 40  1  0  0  0
 19 20  1  0  0  0
 19 24  1  0  0  0
 20 21  2  0  0  0
 20 41  1  0  0  0
 21 22  1  0  0  0
 21 42  1  0  0  0
 22 23  1  0  0  0
 25 30  2  0  0  0
 25 26  1  0  0  0
 26 27  2  0  0  0
 26 43  1  0  0  0
 27 28  1  0  0  0
 27 44  1  0  0  0
 28 29  2  0  0  0
 28 31  1  0  0  0
 29 30  1  0  0  0
 29 45  1  0  0  0
 30 46  1  0  0  0
M  END
> <i_i_glide_confnum>
110

> <i_i_glide_lignum>
2371

> <i_i_glide_posenum>
383

> <i_i_glide_rotatable_bonds>
6

> <i_m_Source_File_Index>
5306

> <b_m_subgroup_collapsed>
0

> <r_i_docking_score>
-4.24879

> <r_i_glide_ecoul>
-4.55176

> <r_i_glide_eff_state_penalty>
0

> <r_i_glide_einternal>
3.51317

> <r_i_glide_emodel>
-50.0174

> <r_i_glide_energy>
-40.8386

> <r_i_glide_erotb>
0.513813

> <r_i_glide_esite>
-0.0755089

> <r_i_glide_evdw>
-36.2868

> <r_i_glide_gscore>
-4.24879

> <r_i_glide_hbond>
-0.0786592

> <r_i_glide_ligand_efficiency>
-0.137058

> <r_i_glide_ligand_efficiency_ln>
-0.958232

> <r_i_glide_ligand_efficiency_sa>
-0.43055

> <r_i_glide_lipo>
-2.04829

> <r_i_glide_metal>
0

> <r_i_glide_rewards>
-0.0630336

> <s_i_glide_gridfile>
wee1_glide-grid

> <s_m_Source_File>
wee1_decoys_glide_SP.sdf

> <s_m_Source_Path>
/Users/zhangxujun/Desktop

> <s_m_entry_id>
5581

> <s_m_entry_name>
wee1_decoys_glide_SP.5306

> <s_m_subgroup_title>
wee1_decoys_glide_SP

> <s_m_subgroupid>
wee1_decoys_glide_SP


$$$$
