ZINC02417941_3917
                    3D
 Schrodinger Suite 2024-2.
 43 46  0  0  1  0            999 V2000
    1.9797   53.0264   29.7719 C   0  0  0  0  0  0
    2.7734   53.6736   28.6201 C   0  0  1  0  0  0
    2.6801   54.7552   28.7409 H   0  0  0  0  0  0
    4.2572   53.2580   28.6611 C   0  0  0  0  0  0
    5.1058   54.0512   27.6466 C   0  0  0  0  0  0
    4.4283   54.0450   26.2657 C   0  0  0  0  0  0
    3.0714   53.6969   26.1285 C   0  0  0  0  0  0
    2.5445   53.7253   24.4837 S   0  0  0  0  0  0
    4.1273   54.1807   23.9554 C   0  0  0  0  0  0
    5.0654   54.2606   25.0105 C   0  0  0  0  0  0
    6.4606   54.6512   24.8873 C   0  0  0  0  0  0
    7.0443   55.2972   25.7523 O   0  0  0  0  0  0
    7.1043   54.2400   23.7982 N   0  0  0  0  0  0
    4.2564   54.4827   22.6118 N   0  0  0  0  0  0
    4.7502   53.6285   21.6990 C   0  0  0  0  0  0
    5.1072   52.4754   21.9324 O   0  0  0  0  0  0
    4.8362   54.1904   20.3830 C   0  0  0  0  0  0
    5.5044   55.3374   19.9694 C   0  0  0  0  0  0
    5.3699   55.5761   18.5681 C   0  0  0  0  0  0
    5.8339   56.6485   17.7844 C   0  0  0  0  0  0
    5.5729   56.6661   16.4133 C   0  0  0  0  0  0
    4.8703   55.6336   15.8008 C   0  0  0  0  0  0
    4.3983   54.5520   16.5401 C   0  0  0  0  0  0
    4.6426   54.5350   17.9206 C   0  0  0  0  0  0
    4.1388   53.2967   19.0549 S   0  0  0  0  0  0
    4.5796   55.6923   14.0997 Cl  0  0  0  0  0  0
    6.3835   56.4231   20.9860 Cl  0  0  0  0  0  0
    2.1462   53.2691   27.2642 C   0  0  0  0  0  0
    1.9893   51.9376   29.7054 H   0  0  0  0  0  0
    2.3902   53.2970   30.7435 H   0  0  0  0  0  0
    0.9374   53.3457   29.7606 H   0  0  0  0  0  0
    4.3543   52.1814   28.5130 H   0  0  0  0  0  0
    4.6588   53.4280   29.6609 H   0  0  0  0  0  0
    5.2410   55.0778   27.9886 H   0  0  0  0  0  0
    6.1051   53.6174   27.6008 H   0  0  0  0  0  0
    6.6325   53.6770   23.1060 H   0  0  0  0  0  0
    8.0811   54.4976   23.6818 H   0  0  0  0  0  0
    3.8789   55.3610   22.2903 H   0  0  0  0  0  0
    6.3807   57.4632   18.2340 H   0  0  0  0  0  0
    5.9261   57.4945   15.8144 H   0  0  0  0  0  0
    3.8554   53.7500   16.0601 H   0  0  0  0  0  0
    2.0171   52.1863   27.2239 H   0  0  0  0  0  0
    1.1567   53.7139   27.1549 H   0  0  0  0  0  0
  1  2  1  0  0  0
  1 29  1  0  0  0
  1 30  1  0  0  0
  1 31  1  0  0  0
  2  3  1  0  0  0
  2 28  1  0  0  0
  2  4  1  0  0  0
  4  5  1  0  0  0
  4 32  1  0  0  0
  4 33  1  0  0  0
  5  6  1  0  0  0
  5 34  1  0  0  0
  5 35  1  0  0  0
  6 10  1  0  0  0
  6  7  2  0  0  0
  7  8  1  0  0  0
  7 28  1  0  0  0
  8  9  1  0  0  0
  9 10  2  0  0  0
  9 14  1  0  0  0
 10 11  1  0  0  0
 11 12  2  0  0  0
 11 13  1  0  0  0
 13 36  1  0  0  0
 13 37  1  0  0  0
 14 15  1  0  0  0
 14 38  1  0  0  0
 15 16  2  0  0  0
 15 17  1  0  0  0
 17 25  1  0  0  0
 17 18  2  0  0  0
 18 19  1  0  0  0
 18 27  1  0  0  0
 19 24  2  0  0  0
 19 20  1  0  0  0
 20 21  2  0  0  0
 20 39  1  0  0  0
 21 22  1  0  0  0
 21 40  1  0  0  0
 22 23  2  0  0  0
 22 26  1  0  0  0
 23 24  1  0  0  0
 23 41  1  0  0  0
 24 25  1  0  0  0
 28 42  1  0  0  0
 28 43  1  0  0  0
M  END
> <i_i_glide_confnum>
3

> <i_i_glide_lignum>
3918

> <i_i_glide_posenum>
344

> <i_i_glide_rotatable_bonds>
4

> <i_m_Source_File_Index>
2450

> <b_m_subgroup_collapsed>
0

> <r_i_docking_score>
-7.05152

> <r_i_glide_ecoul>
-7.75733

> <r_i_glide_eff_state_penalty>
0

> <r_i_glide_einternal>
12.029

> <r_i_glide_emodel>
-63.3156

> <r_i_glide_energy>
-48.8694

> <r_i_glide_erotb>
0.310136

> <r_i_glide_esite>
0

> <r_i_glide_evdw>
-41.112

> <r_i_glide_gscore>
-7.05152

> <r_i_glide_hbond>
-0.608

> <r_i_glide_ligand_efficiency>
-0.261167

> <r_i_glide_ligand_efficiency_ln>
-1.64148

> <r_i_glide_ligand_efficiency_sa>
-0.783502

> <r_i_glide_lipo>
-2.39867

> <r_i_glide_metal>
0

> <r_i_glide_rewards>
-1.13578

> <s_i_glide_gridfile>
wee1_glide-grid

> <s_m_Source_File>
wee1_decoys_glide_SP.sdf

> <s_m_Source_Path>
/Users/zhangxujun/Desktop

> <s_m_entry_id>
2725

> <s_m_entry_name>
wee1_decoys_glide_SP.2450

> <s_m_subgroup_title>
wee1_decoys_glide_SP

> <s_m_subgroupid>
wee1_decoys_glide_SP


$$$$
