ZINC39593972_3024
                    3D
 Schrodinger Suite 2024-2.
 54 57  0  0  1  0            999 V2000
   -4.4847   45.5764   27.9285 C   0  0  0  0  0  0
   -4.3223   45.9229   26.4578 C   0  0  0  0  0  0
   -3.4463   46.9492   26.0951 C   0  0  0  0  0  0
   -3.3161   47.3343   24.7596 C   0  0  0  0  0  0
   -4.0401   46.6563   23.7698 C   0  0  0  0  0  0
   -4.8953   45.6135   24.1241 C   0  0  0  0  0  0
   -5.0378   45.2418   25.4618 C   0  0  0  0  0  0
   -6.2074   43.7967   25.8877 Br  0  0  0  0  0  0
   -2.4484   48.3973   24.4801 N   0  0  0  0  0  0
   -2.6796   49.4158   23.6258 C   0  0  0  0  0  0
   -3.6671   49.5035   22.8951 O   0  0  0  0  0  0
   -1.6376   50.5355   23.6069 C   0  0  0  0  0  0
   -1.8559   51.7430   24.9600 S   0  0  0  0  0  0
   -1.3201   50.7902   26.4161 C   0  0  1  0  0  0
   -1.9409   49.8967   26.4827 H   0  0  0  0  0  0
    0.0354   50.3592   26.2488 N   0  0  0  0  0  0
    0.7046   50.6164   27.2754 N   0  0  0  0  0  0
   -0.1165   51.2419   28.2802 C   0  0  2  0  0  0
   -0.2652   50.4971   29.0615 H   0  0  0  0  0  0
   -1.3966   51.5242   27.6610 N   0  0  0  0  0  0
   -2.5586   51.2967   28.4810 N   0  0  0  0  0  0
    0.5617   52.4819   28.9247 C   0  0  2  0  0  0
   -0.1784   53.0680   29.4715 H   0  0  0  0  0  0
    1.3093   53.3050   27.9292 C   0  0  0  0  0  0
    2.5766   53.2602   28.3499 C   0  0  0  0  0  0
    2.7179   52.5556   29.4957 N   0  0  0  0  0  0
    1.5894   52.0969   29.8592 N   0  0  0  0  0  0
    3.7626   53.7724   27.6236 C   0  0  0  0  0  0
    3.6421   54.1347   26.2780 C   0  0  0  0  0  0
    4.7337   54.6197   25.5733 C   0  0  0  0  0  0
    5.9783   54.7590   26.2031 C   0  0  0  0  0  0
    6.1073   54.3919   27.5408 C   0  0  0  0  0  0
    5.0104   53.9036   28.2461 C   0  0  0  0  0  0
    7.1040   55.2518   25.5755 O   0  0  0  0  0  0
    6.9751   55.6866   24.2269 C   0  0  0  0  0  0
   -4.4973   44.4969   28.0658 H   0  0  0  0  0  0
   -3.6549   45.9549   28.5278 H   0  0  0  0  0  0
   -5.4214   45.9817   28.3115 H   0  0  0  0  0  0
   -2.8954   47.4707   26.8672 H   0  0  0  0  0  0
   -3.9473   46.9359   22.7304 H   0  0  0  0  0  0
   -5.4560   45.0963   23.3590 H   0  0  0  0  0  0
   -1.6623   48.4890   25.1082 H   0  0  0  0  0  0
   -0.6307   50.1176   23.6304 H   0  0  0  0  0  0
   -1.7209   51.0734   22.6626 H   0  0  0  0  0  0
   -3.3654   51.5559   27.9318 H   0  0  0  0  0  0
   -2.5939   50.2940   28.6549 H   0  0  0  0  0  0
    0.8758   53.6991   27.0279 H   0  0  0  0  0  0
    2.7024   54.0346   25.7558 H   0  0  0  0  0  0
    4.5866   54.8828   24.5374 H   0  0  0  0  0  0
    7.0596   54.4964   28.0406 H   0  0  0  0  0  0
    5.1367   53.6294   29.2816 H   0  0  0  0  0  0
    6.2576   56.4964   24.1509 H   0  0  0  0  0  0
    7.9043   56.0969   23.8659 H   0  0  0  0  0  0
    6.6909   54.8733   23.5574 H   0  0  0  0  0  0
  1  2  1  0  0  0
  1 36  1  0  0  0
  1 37  1  0  0  0
  1 38  1  0  0  0
  2  7  2  0  0  0
  2  3  1  0  0  0
  3  4  2  0  0  0
  3 39  1  0  0  0
  4  5  1  0  0  0
  4  9  1  0  0  0
  5  6  2  0  0  0
  5 40  1  0  0  0
  6  7  1  0  0  0
  6 41  1  0  0  0
  7  8  1  0  0  0
  9 10  1  0  0  0
  9 42  1  0  0  0
 10 11  2  0  0  0
 10 12  1  0  0  0
 12 13  1  0  0  0
 12 43  1  0  0  0
 12 44  1  0  0  0
 13 14  1  0  0  0
 14 15  1  0  0  0
 14 20  1  0  0  0
 14 16  1  0  0  0
 16 17  2  0  0  0
 17 18  1  0  0  0
 18 19  1  0  0  0
 18 20  1  0  0  0
 18 22  1  0  0  0
 20 21  1  0  0  0
 21 45  1  0  0  0
 21 46  1  0  0  0
 22 23  1  0  0  0
 22 27  1  0  0  0
 22 24  1  0  0  0
 24 25  2  0  0  0
 24 47  1  0  0  0
 25 26  1  0  0  0
 25 28  1  0  0  0
 26 27  2  0  0  0
 28 33  2  0  0  0
 28 29  1  0  0  0
 29 30  2  0  0  0
 29 48  1  0  0  0
 30 31  1  0  0  0
 30 49  1  0  0  0
 31 32  2  0  0  0
 31 34  1  0  0  0
 32 33  1  0  0  0
 32 50  1  0  0  0
 33 51  1  0  0  0
 34 35  1  0  0  0
 35 52  1  0  0  0
 35 53  1  0  0  0
 35 54  1  0  0  0
M  END
> <i_i_glide_confnum>
207

> <i_i_glide_lignum>
3025

> <i_i_glide_posenum>
397

> <i_i_glide_rotatable_bonds>
8

> <i_m_Source_File_Index>
2899

> <b_m_subgroup_collapsed>
0

> <r_i_docking_score>
-5.6112

> <r_i_glide_ecoul>
-8.7003

> <r_i_glide_eff_state_penalty>
0

> <r_i_glide_einternal>
1.71465

> <r_i_glide_emodel>
-65.4357

> <r_i_glide_energy>
-47.7521

> <r_i_glide_erotb>
0.538756

> <r_i_glide_esite>
-0.439859

> <r_i_glide_evdw>
-39.0518

> <r_i_glide_gscore>
-5.6112

> <r_i_glide_hbond>
-0.395423

> <r_i_glide_ligand_efficiency>
-0.17535

> <r_i_glide_ligand_efficiency_ln>
-1.2565

> <r_i_glide_ligand_efficiency_sa>
-0.556701

> <r_i_glide_lipo>
-2.21862

> <r_i_glide_metal>
0

> <r_i_glide_rewards>
0.161586

> <s_i_glide_gridfile>
wee1_glide-grid

> <s_m_Source_File>
wee1_decoys_glide_SP.sdf

> <s_m_Source_Path>
/Users/zhangxujun/Desktop

> <s_m_entry_id>
3174

> <s_m_entry_name>
wee1_decoys_glide_SP.2899

> <s_m_subgroup_title>
wee1_decoys_glide_SP

> <s_m_subgroupid>
wee1_decoys_glide_SP


$$$$
