ZINC34990083_2624
                    3D
 Schrodinger Suite 2024-2.
 43 46  0  0  1  0            999 V2000
   -0.1351   52.0983   29.8359 C   0  0  0  0  0  0
   -0.5590   51.9880   28.5148 C   0  0  0  0  0  0
    0.2626   52.3959   27.4673 C   0  0  0  0  0  0
    1.5522   52.9075   27.7345 C   0  0  0  0  0  0
    2.0068   52.9852   29.0821 C   0  0  0  0  0  0
    1.1374   52.5796   30.1344 C   0  0  0  0  0  0
    3.3295   53.4706   29.2339 C   0  0  0  0  0  0
    3.8766   53.5803   30.3753 O   0  5  0  0  0  0
    4.1215   53.8437   28.2045 N   0  0  0  0  0  0
    3.5940   53.7362   26.9596 C   0  0  0  0  0  0
    2.3341   53.2949   26.6893 N   0  0  0  0  0  0
    4.4669   54.0916   25.8021 C   0  0  0  0  0  0
    4.1337   53.8139   24.5185 C   0  0  0  0  0  0
    4.8566   54.0959   23.2913 C   0  0  0  0  0  0
    6.0762   54.6876   22.9731 C   0  0  0  0  0  0
    6.1655   54.7298   21.5814 C   0  0  0  0  0  0
    5.0271   54.1105   21.0869 C   0  0  0  0  0  0
    4.2492   53.7311   22.1339 O   0  0  0  0  0  0
    4.5122   53.8129   19.7211 C   0  0  0  0  0  0
    3.4857   52.8791   19.5472 C   0  0  0  0  0  0
    2.9995   52.5993   18.2755 C   0  0  0  0  0  0
    3.5393   53.2566   17.1700 C   0  0  0  0  0  0
    4.5551   54.2005   17.3340 C   0  0  0  0  0  0
    5.0434   54.4737   18.6099 C   0  0  0  0  0  0
    2.9397   52.8593   15.5349 S   0  0  0  0  0  0
    1.6506   52.1742   15.6707 O   0  0  0  0  0  0
    3.0677   54.0650   14.7071 O   0  0  0  0  0  0
    4.0829   51.6968   14.9255 N   0  0  0  0  0  0
    5.7039   54.7444   26.1043 C   0  0  0  0  0  0
    6.7033   55.2906   26.3023 N   0  0  0  0  0  0
   -0.7914   51.7747   30.6313 H   0  0  0  0  0  0
   -1.5348   51.5777   28.2999 H   0  0  0  0  0  0
   -0.0708   52.3114   26.4432 H   0  0  0  0  0  0
    1.4643   52.6347   31.1630 H   0  0  0  0  0  0
    3.1957   53.3111   24.3266 H   0  0  0  0  0  0
    6.8136   55.0699   23.6619 H   0  0  0  0  0  0
    6.9766   55.1466   21.0031 H   0  0  0  0  0  0
    3.0622   52.3602   20.3939 H   0  0  0  0  0  0
    2.2198   51.8615   18.1519 H   0  0  0  0  0  0
    4.9718   54.7106   16.4774 H   0  0  0  0  0  0
    5.8303   55.2024   18.7313 H   0  0  0  0  0  0
    4.0089   50.7929   15.4151 H   0  0  0  0  0  0
    3.9626   51.5424   13.9241 H   0  0  0  0  0  0
  1  6  2  0  0  0
  1  2  1  0  0  0
  1 31  1  0  0  0
  2  3  2  0  0  0
  2 32  1  0  0  0
  3  4  1  0  0  0
  3 33  1  0  0  0
  4 11  2  0  0  0
  4  5  1  0  0  0
  5  6  1  0  0  0
  5  7  2  0  0  0
  6 34  1  0  0  0
  7  8  1  0  0  0
  7  9  1  0  0  0
  9 10  2  0  0  0
 10 11  1  0  0  0
 10 12  1  0  0  0
 12 13  2  0  0  0
 12 29  1  0  0  0
 13 14  1  0  0  0
 13 35  1  0  0  0
 14 18  1  0  0  0
 14 15  2  0  0  0
 15 16  1  0  0  0
 15 36  1  0  0  0
 16 17  2  0  0  0
 16 37  1  0  0  0
 17 18  1  0  0  0
 17 19  1  0  0  0
 19 24  2  0  0  0
 19 20  1  0  0  0
 20 21  2  0  0  0
 20 38  1  0  0  0
 21 22  1  0  0  0
 21 39  1  0  0  0
 22 23  2  0  0  0
 22 25  1  0  0  0
 23 24  1  0  0  0
 23 40  1  0  0  0
 24 41  1  0  0  0
 25 26  2  0  0  0
 25 27  2  0  0  0
 25 28  1  0  0  0
 28 42  1  0  0  0
 28 43  1  0  0  0
 29 30  3  0  0  0
M  CHG  1   8  -1
M  END
> <i_i_glide_confnum>
7

> <i_i_glide_lignum>
2625

> <i_i_glide_posenum>
347

> <i_i_glide_rotatable_bonds>
5

> <i_m_Source_File_Index>
1637

> <b_m_subgroup_collapsed>
0

> <r_i_docking_score>
-5.93073

> <r_i_glide_ecoul>
-4.91985

> <r_i_glide_eff_state_penalty>
0

> <r_i_glide_einternal>
1.60372

> <r_i_glide_emodel>
-59.322

> <r_i_glide_energy>
-41.9758

> <r_i_glide_erotb>
0.453746

> <r_i_glide_esite>
-0.100798

> <r_i_glide_evdw>
-37.056

> <r_i_glide_gscore>
-5.93073

> <r_i_glide_hbond>
-0.608

> <r_i_glide_ligand_efficiency>
-0.197691

> <r_i_glide_ligand_efficiency_ln>
-1.34753

> <r_i_glide_ligand_efficiency_sa>
-0.614271

> <r_i_glide_lipo>
-1.81099

> <r_i_glide_metal>
0

> <r_i_glide_rewards>
-1.27391

> <s_i_glide_gridfile>
wee1_glide-grid

> <s_m_Source_File>
wee1_decoys_glide_SP.sdf

> <s_m_Source_Path>
/Users/zhangxujun/Desktop

> <s_m_entry_id>
1912

> <s_m_entry_name>
wee1_decoys_glide_SP.1637

> <s_m_subgroup_title>
wee1_decoys_glide_SP

> <s_m_subgroupid>
wee1_decoys_glide_SP


$$$$
