ZINC38732214_1192
                    3D
 Schrodinger Suite 2024-2.
 71 75  0  0  1  0            999 V2000
   -4.9899   53.1601   25.3958 C   0  0  0  0  0  0
   -4.0958   53.7114   24.4818 C   0  0  0  0  0  0
   -2.8946   53.0608   24.2122 C   0  0  0  0  0  0
   -2.5776   51.8620   24.8623 C   0  0  0  0  0  0
   -3.4820   51.3234   25.7873 C   0  0  0  0  0  0
   -4.6884   51.9673   26.0489 C   0  0  0  0  0  0
   -1.2206   51.1721   24.6463 C   0  0  2  0  0  0
   -1.1261   50.4693   25.4779 H   0  0  0  0  0  0
    0.0043   52.0947   24.7902 C   0  0  0  0  0  0
    0.7043   52.1082   26.0035 C   0  0  0  0  0  0
    1.8365   52.9043   26.1571 C   0  0  0  0  0  0
    2.2736   53.6965   25.0984 C   0  0  0  0  0  0
    1.5817   53.7010   23.8911 C   0  0  0  0  0  0
    0.4611   52.8914   23.7310 C   0  0  0  0  0  0
    3.6832   54.6760   25.2825 Cl  0  0  0  0  0  0
   -1.1605   50.2432   23.5091 N   0  0  0  0  0  0
   -1.4246   50.4461   22.2044 C   0  0  0  0  0  0
   -1.8329   51.5134   21.7393 O   0  0  0  0  0  0
   -1.1410   49.2352   21.2734 C   0  0  1  0  0  0
   -0.9037   48.3788   21.9093 H   0  0  0  0  0  0
   -2.4338   48.9411   20.4622 C   0  0  0  0  0  0
   -2.2132   47.7436   19.5145 C   0  0  0  0  0  0
   -1.0183   47.9719   18.5665 C   0  0  0  0  0  0
    0.2726   48.3216   19.3342 C   0  0  0  0  0  0
    0.0351   49.5377   20.2711 C   0  0  2  0  0  0
   -0.2237   50.4289   19.6987 H   0  0  0  0  0  0
    1.3805   49.8454   20.9967 C   0  0  0  0  0  0
    1.5844   49.2984   22.0850 O   0  0  0  0  0  0
    2.1961   50.8233   20.5148 N   0  0  0  0  0  0
    2.3269   51.0439   19.0550 C   0  0  0  0  0  0
    2.7884   52.4965   18.7756 C   0  0  0  0  0  0
    3.9077   52.9251   19.6404 N   0  0  0  0  0  0
    3.5734   52.7718   21.0609 C   0  0  0  0  0  0
    3.3011   51.2897   21.3732 C   0  0  0  0  0  0
    5.0729   53.6033   19.1632 C   0  0  0  0  0  0
    5.7274   54.5996   19.9065 C   0  0  0  0  0  0
    6.8588   55.2302   19.3781 C   0  0  0  0  0  0
    7.3276   54.8610   18.1144 C   0  0  0  0  0  0
    6.6495   53.8718   17.3969 C   0  0  0  0  0  0
    5.5577   53.2967   17.9404 N   0  3  0  0  0  0
   -5.9247   53.6606   25.5996 H   0  0  0  0  0  0
   -4.3341   54.6385   23.9796 H   0  0  0  0  0  0
   -2.2112   53.4988   23.5011 H   0  0  0  0  0  0
   -3.2508   50.4068   26.3133 H   0  0  0  0  0  0
   -5.3833   51.5444   26.7596 H   0  0  0  0  0  0
    0.3801   51.4957   26.8330 H   0  0  0  0  0  0
    2.3769   52.9014   27.0923 H   0  0  0  0  0  0
    1.9146   54.3294   23.0794 H   0  0  0  0  0  0
   -0.0478   52.8957   22.7813 H   0  0  0  0  0  0
   -0.7505   49.3497   23.7372 H   0  0  0  0  0  0
   -3.2605   48.6656   21.1210 H   0  0  0  0  0  0
   -2.7063   49.7846   19.8233 H   0  0  0  0  0  0
   -3.1169   47.5629   18.9293 H   0  0  0  0  0  0
   -2.0458   46.8381   20.0997 H   0  0  0  0  0  0
   -1.2574   48.7765   17.8688 H   0  0  0  0  0  0
   -0.8571   47.0823   17.9548 H   0  0  0  0  0  0
    1.0274   48.5337   18.5747 H   0  0  0  0  0  0
    0.5385   47.4302   19.9076 H   0  0  0  0  0  0
    3.1041   50.3830   18.6654 H   0  0  0  0  0  0
    1.3785   50.9334   18.5328 H   0  0  0  0  0  0
    1.9672   53.2037   18.9049 H   0  0  0  0  0  0
    3.0960   52.5796   17.7334 H   0  0  0  0  0  0
    2.6941   53.3853   21.2552 H   0  0  0  0  0  0
    4.3736   53.1475   21.6967 H   0  0  0  0  0  0
    3.1049   51.1686   22.4411 H   0  0  0  0  0  0
    4.1899   50.7235   21.0908 H   0  0  0  0  0  0
    5.3619   54.9019   20.8774 H   0  0  0  0  0  0
    7.3709   55.9965   19.9420 H   0  0  0  0  0  0
    8.2063   55.3344   17.6995 H   0  0  0  0  0  0
    6.9435   53.5103   16.4210 H   0  0  0  0  0  0
    5.1116   52.5339   17.4452 H   0  0  0  0  0  0
  1  6  2  0  0  0
  1  2  1  0  0  0
  1 41  1  0  0  0
  2  3  2  0  0  0
  2 42  1  0  0  0
  3  4  1  0  0  0
  3 43  1  0  0  0
  4  5  2  0  0  0
  4  7  1  0  0  0
  5  6  1  0  0  0
  5 44  1  0  0  0
  6 45  1  0  0  0
  7  8  1  0  0  0
  7  9  1  0  0  0
  7 16  1  0  0  0
  9 14  2  0  0  0
  9 10  1  0  0  0
 10 11  2  0  0  0
 10 46  1  0  0  0
 11 12  1  0  0  0
 11 47  1  0  0  0
 12 13  2  0  0  0
 12 15  1  0  0  0
 13 14  1  0  0  0
 13 48  1  0  0  0
 14 49  1  0  0  0
 16 17  1  0  0  0
 16 50  1  0  0  0
 17 18  2  0  0  0
 17 19  1  0  0  0
 19 20  1  0  0  0
 19 25  1  0  0  0
 19 21  1  0  0  0
 21 22  1  0  0  0
 21 51  1  0  0  0
 21 52  1  0  0  0
 22 23  1  0  0  0
 22 53  1  0  0  0
 22 54  1  0  0  0
 23 24  1  0  0  0
 23 55  1  0  0  0
 23 56  1  0  0  0
 24 25  1  0  0  0
 24 57  1  0  0  0
 24 58  1  0  0  0
 25 26  1  0  0  0
 25 27  1  0  0  0
 27 28  2  0  0  0
 27 29  1  0  0  0
 29 34  1  0  0  0
 29 30  1  0  0  0
 30 31  1  0  0  0
 30 59  1  0  0  0
 30 60  1  0  0  0
 31 32  1  0  0  0
 31 61  1  0  0  0
 31 62  1  0  0  0
 32 33  1  0  0  0
 32 35  1  0  0  0
 33 34  1  0  0  0
 33 63  1  0  0  0
 33 64  1  0  0  0
 34 65  1  0  0  0
 34 66  1  0  0  0
 35 40  2  0  0  0
 35 36  1  0  0  0
 36 37  2  0  0  0
 36 67  1  0  0  0
 37 38  1  0  0  0
 37 68  1  0  0  0
 38 39  2  0  0  0
 38 69  1  0  0  0
 39 40  1  0  0  0
 39 70  1  0  0  0
 40 71  1  0  0  0
M  CHG  1  40   1
M  END
> <i_i_glide_confnum>
225

> <i_i_glide_lignum>
1193

> <i_i_glide_posenum>
346

> <i_i_glide_rotatable_bonds>
8

> <i_m_Source_File_Index>
5332

> <b_m_subgroup_collapsed>
0

> <r_i_docking_score>
-3.75705

> <r_i_glide_ecoul>
-3.15039

> <r_i_glide_eff_state_penalty>
0

> <r_i_glide_einternal>
3.41993

> <r_i_glide_emodel>
-52.0412

> <r_i_glide_energy>
-42.6592

> <r_i_glide_erotb>
0.612112

> <r_i_glide_esite>
-0.130174

> <r_i_glide_evdw>
-39.5088

> <r_i_glide_gscore>
-3.75705

> <r_i_glide_hbond>
-0.0321144

> <r_i_glide_ligand_efficiency>
-0.101542

> <r_i_glide_ligand_efficiency_ln>
-0.814816

> <r_i_glide_ligand_efficiency_sa>
-0.33836

> <r_i_glide_lipo>
-1.85415

> <r_i_glide_metal>
0

> <r_i_glide_rewards>
0.0952785

> <s_i_glide_gridfile>
wee1_glide-grid

> <s_m_Source_File>
wee1_decoys_glide_SP.sdf

> <s_m_Source_Path>
/Users/zhangxujun/Desktop

> <s_m_entry_id>
5607

> <s_m_entry_name>
wee1_decoys_glide_SP.5332

> <s_m_subgroup_title>
wee1_decoys_glide_SP

> <s_m_subgroupid>
wee1_decoys_glide_SP


$$$$
