ZINC54733541_4597
                    3D
 Schrodinger Suite 2024-2.
 51 52  0  0  1  0            999 V2000
    1.9559   53.1961   27.2690 C   0  0  0  0  0  0
    1.9607   53.2697   25.7479 C   0  0  0  0  0  0
    0.8073   52.8966   25.0567 C   0  0  0  0  0  0
    0.7539   52.9915   23.6718 C   0  0  0  0  0  0
    1.8672   53.4287   22.9628 C   0  0  0  0  0  0
    3.0652   53.7434   23.6247 C   0  0  0  0  0  0
    3.0972   53.6956   25.0333 C   0  0  0  0  0  0
    4.3747   54.0702   25.7848 C   0  0  0  0  0  0
    4.2362   54.0946   22.9684 O   0  0  0  0  0  0
    4.3335   54.1813   21.5406 C   0  0  1  0  0  0
    3.6007   54.8967   21.1696 H   0  0  0  0  0  0
    5.7457   54.7348   21.2728 C   0  0  0  0  0  0
    4.1512   52.8170   20.8301 C   0  0  0  0  0  0
    4.6737   51.7943   21.2820 O   0  0  0  0  0  0
    3.4030   52.8600   19.7038 N   0  0  0  0  0  0
    3.1042   51.6964   18.9933 N   0  0  0  0  0  0
    2.0162   50.9672   19.3045 C   0  0  0  0  0  0
    1.2010   51.2522   20.1857 O   0  0  0  0  0  0
    1.9041   49.9089   18.4821 N   0  0  0  0  0  0
    0.8027   48.9416   18.4575 C   0  0  1  0  0  0
    0.7716   48.4602   19.4361 H   0  0  0  0  0  0
   -0.5767   49.5812   18.1802 C   0  0  0  0  0  0
    1.1211   47.8898   17.4115 C   0  0  0  0  0  0
    1.4411   46.5511   17.5917 C   0  0  0  0  0  0
    1.6911   45.8520   16.4091 C   0  0  0  0  0  0
    1.5629   46.6183   15.2584 C   0  0  0  0  0  0
    1.1044   48.2330   15.7001 S   0  0  0  0  0  0
    1.7553   46.2281   13.8134 C   0  0  0  0  0  0
    0.9606   53.0107   27.6720 H   0  0  0  0  0  0
    2.6218   52.4036   27.6130 H   0  0  0  0  0  0
    2.3056   54.1366   27.6951 H   0  0  0  0  0  0
   -0.0636   52.5490   25.5945 H   0  0  0  0  0  0
   -0.1476   52.7177   23.1447 H   0  0  0  0  0  0
    1.7793   53.4891   21.8905 H   0  0  0  0  0  0
    5.2499   54.1317   25.1370 H   0  0  0  0  0  0
    4.6101   53.3167   26.5366 H   0  0  0  0  0  0
    4.2489   55.0260   26.2935 H   0  0  0  0  0  0
    5.9804   54.7849   20.2077 H   0  0  0  0  0  0
    5.8856   55.7341   21.6828 H   0  0  0  0  0  0
    6.4872   54.0989   21.7547 H   0  0  0  0  0  0
    2.9584   53.6883   19.3305 H   0  0  0  0  0  0
    3.8694   51.3679   18.4135 H   0  0  0  0  0  0
    2.7354   49.6353   17.9646 H   0  0  0  0  0  0
   -1.3557   48.8216   18.1152 H   0  0  0  0  0  0
   -0.8683   50.2738   18.9688 H   0  0  0  0  0  0
   -0.5806   50.1412   17.2447 H   0  0  0  0  0  0
    1.5031   46.0978   18.5697 H   0  0  0  0  0  0
    1.9667   44.8087   16.3906 H   0  0  0  0  0  0
    2.0694   45.1906   13.7055 H   0  0  0  0  0  0
    0.8340   46.3472   13.2423 H   0  0  0  0  0  0
    2.5100   46.8516   13.3344 H   0  0  0  0  0  0
  1  2  1  0  0  0
  1 29  1  0  0  0
  1 30  1  0  0  0
  1 31  1  0  0  0
  2  7  2  0  0  0
  2  3  1  0  0  0
  3  4  2  0  0  0
  3 32  1  0  0  0
  4  5  1  0  0  0
  4 33  1  0  0  0
  5  6  2  0  0  0
  5 34  1  0  0  0
  6  7  1  0  0  0
  6  9  1  0  0  0
  7  8  1  0  0  0
  8 35  1  0  0  0
  8 36  1  0  0  0
  8 37  1  0  0  0
  9 10  1  0  0  0
 10 11  1  0  0  0
 10 12  1  0  0  0
 10 13  1  0  0  0
 12 38  1  0  0  0
 12 39  1  0  0  0
 12 40  1  0  0  0
 13 14  2  0  0  0
 13 15  1  0  0  0
 15 16  1  0  0  0
 15 41  1  0  0  0
 16 17  1  0  0  0
 16 42  1  0  0  0
 17 18  2  0  0  0
 17 19  1  0  0  0
 19 20  1  0  0  0
 19 43  1  0  0  0
 20 21  1  0  0  0
 20 22  1  0  0  0
 20 23  1  0  0  0
 22 44  1  0  0  0
 22 45  1  0  0  0
 22 46  1  0  0  0
 23 27  1  0  0  0
 23 24  2  0  0  0
 24 25  1  0  0  0
 24 47  1  0  0  0
 25 26  2  0  0  0
 25 48  1  0  0  0
 26 27  1  0  0  0
 26 28  1  0  0  0
 28 49  1  0  0  0
 28 50  1  0  0  0
 28 51  1  0  0  0
M  END
> <i_i_glide_confnum>
53

> <i_i_glide_lignum>
4598

> <i_i_glide_posenum>
180

> <i_i_glide_rotatable_bonds>
9

> <i_m_Source_File_Index>
5817

> <b_m_subgroup_collapsed>
0

> <r_i_docking_score>
-4.50088

> <r_i_glide_ecoul>
-6.6871

> <r_i_glide_eff_state_penalty>
0

> <r_i_glide_einternal>
5.17777

> <r_i_glide_emodel>
-46.3517

> <r_i_glide_energy>
-36.0005

> <r_i_glide_erotb>
1.23503

> <r_i_glide_esite>
-0.238574

> <r_i_glide_evdw>
-29.3134

> <r_i_glide_gscore>
-4.50088

> <r_i_glide_hbond>
-0.358296

> <r_i_glide_ligand_efficiency>
-0.173111

> <r_i_glide_ligand_efficiency_ln>
-1.05702

> <r_i_glide_ligand_efficiency_sa>
-0.51284

> <r_i_glide_lipo>
-1.75967

> <r_i_glide_metal>
0

> <r_i_glide_rewards>
-0.910636

> <s_i_glide_gridfile>
wee1_glide-grid

> <s_m_Source_File>
wee1_decoys_glide_SP.sdf

> <s_m_Source_Path>
/Users/zhangxujun/Desktop

> <s_m_entry_id>
6092

> <s_m_entry_name>
wee1_decoys_glide_SP.5817

> <s_m_subgroup_title>
wee1_decoys_glide_SP

> <s_m_subgroupid>
wee1_decoys_glide_SP


$$$$
