ZINC54599876_1761
                    3D
 Schrodinger Suite 2024-2.
 31 32  0  0  1  0            999 V2000
    6.7044   54.4967   24.8425 C   0  0  0  0  0  0
    5.5543   54.3140   23.8865 C   0  0  0  0  0  0
    4.2004   54.0967   24.1741 C   0  0  0  0  0  0
    3.5726   54.0192   22.9454 C   0  0  0  0  0  0
    4.5668   54.2219   22.0117 N   0  0  0  0  0  0
    5.7712   54.3673   22.5915 N   0  0  0  0  0  0
    4.4113   54.3197   20.5442 C   0  0  1  0  0  0
    3.5044   54.8967   20.4150 H   0  0  0  0  0  0
    5.5463   55.1298   19.8548 C   0  0  0  0  0  0
    5.2679   55.2875   18.3466 C   0  0  0  0  0  0
    5.0146   53.9306   17.6587 C   0  0  0  0  0  0
    3.9245   53.0965   18.3715 C   0  0  0  0  0  0
    4.1996   52.9375   19.8848 C   0  0  1  0  0  0
    3.3459   52.4349   20.3425 H   0  0  0  0  0  0
    5.3107   52.0967   20.0817 O   0  0  0  0  0  0
    2.2587   53.8325   22.6193 N   0  0  0  0  0  0
    3.3919   53.9525   25.8926 Br  0  0  0  0  0  0
    6.4054   54.3510   25.8805 H   0  0  0  0  0  0
    7.1324   55.4963   24.7647 H   0  0  0  0  0  0
    7.5044   53.7859   24.6364 H   0  0  0  0  0  0
    5.5861   56.1351   20.2767 H   0  0  0  0  0  0
    6.5213   54.6683   20.0207 H   0  0  0  0  0  0
    6.1035   55.7974   17.8654 H   0  0  0  0  0  0
    4.3983   55.9316   18.2034 H   0  0  0  0  0  0
    5.9442   53.3591   17.6375 H   0  0  0  0  0  0
    4.7377   54.0881   16.6155 H   0  0  0  0  0  0
    3.8154   52.1250   17.8853 H   0  0  0  0  0  0
    2.9869   53.6399   18.2425 H   0  0  0  0  0  0
    5.3185   51.4447   19.3533 H   0  0  0  0  0  0
    1.5895   53.5319   23.3126 H   0  0  0  0  0  0
    1.8950   54.0986   21.7124 H   0  0  0  0  0  0
  1  2  1  0  0  0
  1 18  1  0  0  0
  1 19  1  0  0  0
  1 20  1  0  0  0
  2  6  2  0  0  0
  2  3  1  0  0  0
  3  4  2  0  0  0
  3 17  1  0  0  0
  4  5  1  0  0  0
  4 16  1  0  0  0
  5  6  1  0  0  0
  5  7  1  0  0  0
  7  8  1  0  0  0
  7 13  1  0  0  0
  7  9  1  0  0  0
  9 10  1  0  0  0
  9 21  1  0  0  0
  9 22  1  0  0  0
 10 11  1  0  0  0
 10 23  1  0  0  0
 10 24  1  0  0  0
 11 12  1  0  0  0
 11 25  1  0  0  0
 11 26  1  0  0  0
 12 13  1  0  0  0
 12 27  1  0  0  0
 12 28  1  0  0  0
 13 14  1  0  0  0
 13 15  1  0  0  0
 15 29  1  0  0  0
 16 30  1  0  0  0
 16 31  1  0  0  0
M  END
> <i_i_glide_confnum>
2

> <i_i_glide_lignum>
1762

> <i_i_glide_posenum>
218

> <i_i_glide_rotatable_bonds>
2

> <i_m_Source_File_Index>
3926

> <b_m_subgroup_collapsed>
0

> <r_i_docking_score>
-5.61632

> <r_i_glide_ecoul>
-8.65162

> <r_i_glide_eff_state_penalty>
0

> <r_i_glide_einternal>
0.911736

> <r_i_glide_emodel>
-39.7449

> <r_i_glide_energy>
-29.4692

> <r_i_glide_erotb>
0.238842

> <r_i_glide_esite>
0

> <r_i_glide_evdw>
-20.8176

> <r_i_glide_gscore>
-5.61632

> <r_i_glide_hbond>
-0.470919

> <r_i_glide_ligand_efficiency>
-0.374421

> <r_i_glide_ligand_efficiency_ln>
-1.51463

> <r_i_glide_ligand_efficiency_sa>
-0.923402

> <r_i_glide_lipo>
-1.33332

> <r_i_glide_metal>
0

> <r_i_glide_rewards>
-1.7123

> <s_i_glide_gridfile>
wee1_glide-grid

> <s_m_Source_File>
wee1_decoys_glide_SP.sdf

> <s_m_Source_Path>
/Users/zhangxujun/Desktop

> <s_m_entry_id>
4201

> <s_m_entry_name>
wee1_decoys_glide_SP.3926

> <s_m_subgroup_title>
wee1_decoys_glide_SP

> <s_m_subgroupid>
wee1_decoys_glide_SP


$$$$
