ZINC11719796_2135
                    3D
 Schrodinger Suite 2024-2.
 50 52  0  0  1  0            999 V2000
   -0.1855   52.5164   29.4840 C   0  0  0  0  0  0
    0.1315   52.9823   28.0503 C   0  0  1  0  0  0
   -0.6308   53.6974   27.7449 H   0  0  0  0  0  0
    1.5149   53.7100   28.0727 C   0  0  0  0  0  0
    1.6789   54.6612   28.8385 O   0  0  0  0  0  0
    2.4821   53.2820   27.2319 N   0  0  0  0  0  0
    3.7940   53.7513   27.1728 C   0  0  0  0  0  0
    4.2437   54.3191   25.9752 C   0  0  0  0  0  0
    5.5783   54.7038   25.8426 C   0  0  0  0  0  0
    6.4674   54.4955   26.8943 C   0  0  0  0  0  0
    6.0264   53.9208   28.0844 C   0  0  0  0  0  0
    4.6908   53.5484   28.2335 C   0  0  0  0  0  0
    4.2897   52.9600   29.3858 F   0  0  0  0  0  0
    6.0128   55.2698   24.6948 F   0  0  0  0  0  0
   -1.0822   50.8935   27.1069 C   0  0  0  0  0  0
   -0.8854   49.7602   26.0787 C   0  0  0  0  0  0
   -0.8966   50.3034   24.6368 C   0  0  1  0  0  0
    0.1286   51.4320   24.4584 C   0  0  0  0  0  0
   -0.0630   52.5361   25.5030 C   0  0  0  0  0  0
   -0.4925   49.1891   23.7453 N   0  0  0  0  0  0
   -0.9815   49.2238   22.0542 S   0  0  0  0  0  0
   -1.4561   47.8823   21.6994 O   0  0  0  0  0  0
   -1.7891   50.4255   21.8135 O   0  0  0  0  0  0
    0.5880   49.4671   21.1819 C   0  0  0  0  0  0
    1.0098   48.7257   20.0826 C   0  0  0  0  0  0
    2.2113   49.1975   19.5405 C   0  0  0  0  0  0
    2.7039   50.3045   20.2190 C   0  0  0  0  0  0
    1.6989   50.7511   21.5543 S   0  0  0  0  0  0
   -0.0888   53.3371   30.1994 H   0  0  0  0  0  0
   -1.2143   52.1632   29.5590 H   0  0  0  0  0  0
    0.4812   51.7074   29.7856 H   0  0  0  0  0  0
    2.2327   52.6232   26.5121 H   0  0  0  0  0  0
    3.5686   54.4653   25.1458 H   0  0  0  0  0  0
    7.5038   54.7681   26.7980 H   0  0  0  0  0  0
    6.7329   53.7509   28.8814 H   0  0  0  0  0  0
   -0.9993   50.4964   28.1150 H   0  0  0  0  0  0
   -2.0328   51.4227   27.0016 H   0  0  0  0  0  0
    0.0476   49.2375   26.2980 H   0  0  0  0  0  0
   -1.6737   49.0110   26.1903 H   0  0  0  0  0  0
   -1.9052   50.6529   24.3981 H   0  0  0  0  0  0
    0.0242   51.8643   23.4620 H   0  0  0  0  0  0
    1.1465   51.0405   24.5211 H   0  0  0  0  0  0
   -1.0519   52.9968   25.4322 H   0  0  0  0  0  0
    0.7042   53.2967   25.3648 H   0  0  0  0  0  0
   -0.5990   48.2638   24.1693 H   0  0  0  0  0  0
    0.4587   47.8890   19.6753 H   0  0  0  0  0  0
    2.6944   48.7644   18.6776 H   0  0  0  0  0  0
    3.5925   50.8762   19.9912 H   0  0  0  0  0  0
    0.0770   51.9018   26.9150 N   0  3  1  0  0  0
    0.9368   51.3765   26.9902 H   0  0  0  0  0  0
  1  2  1  0  0  0
  1 29  1  0  0  0
  1 30  1  0  0  0
  1 31  1  0  0  0
  2  3  1  0  0  0
  2  4  1  0  0  0
  2 49  1  0  0  0
  4  5  2  0  0  0
  4  6  1  0  0  0
  6  7  1  0  0  0
  6 32  1  0  0  0
  7 12  2  0  0  0
  7  8  1  0  0  0
  8  9  2  0  0  0
  8 33  1  0  0  0
  9 10  1  0  0  0
  9 14  1  0  0  0
 10 11  2  0  0  0
 10 34  1  0  0  0
 11 12  1  0  0  0
 11 35  1  0  0  0
 12 13  1  0  0  0
 15 16  1  0  0  0
 15 36  1  0  0  0
 15 37  1  0  0  0
 15 49  1  0  0  0
 16 17  1  0  0  0
 16 38  1  0  0  0
 16 39  1  0  0  0
 17 18  1  0  0  0
 17 20  1  0  0  0
 17 40  1  0  0  0
 18 19  1  0  0  0
 18 41  1  0  0  0
 18 42  1  0  0  0
 19 43  1  0  0  0
 19 44  1  0  0  0
 19 49  1  0  0  0
 20 21  1  0  0  0
 20 45  1  0  0  0
 21 22  2  0  0  0
 21 23  2  0  0  0
 21 24  1  0  0  0
 24 28  1  0  0  0
 24 25  2  0  0  0
 25 26  1  0  0  0
 25 46  1  0  0  0
 26 27  2  0  0  0
 26 47  1  0  0  0
 27 28  1  0  0  0
 27 48  1  0  0  0
 49 50  1  0  0  0
M  CHG  1  49   1
M  END
> <i_i_glide_confnum>
131

> <i_i_glide_lignum>
2136

> <i_i_glide_posenum>
89

> <i_i_glide_rotatable_bonds>
7

> <i_m_Source_File_Index>
4132

> <b_m_subgroup_collapsed>
0

> <r_i_docking_score>
-4.39661

> <r_i_glide_ecoul>
-2.45822

> <r_i_glide_eff_state_penalty>
0

> <r_i_glide_einternal>
10.6411

> <r_i_glide_emodel>
-46.3977

> <r_i_glide_energy>
-40.7437

> <r_i_glide_erotb>
0.643624

> <r_i_glide_esite>
-0.00932508

> <r_i_glide_evdw>
-38.2854

> <r_i_glide_gscore>
-4.39661

> <r_i_glide_hbond>
0

> <r_i_glide_ligand_efficiency>
-0.157022

> <r_i_glide_ligand_efficiency_ln>
-1.01487

> <r_i_glide_ligand_efficiency_sa>
-0.47681

> <r_i_glide_lipo>
-1.92863

> <r_i_glide_metal>
0

> <r_i_glide_rewards>
-0.819276

> <s_i_glide_gridfile>
wee1_glide-grid

> <s_m_Source_File>
wee1_decoys_glide_SP.sdf

> <s_m_Source_Path>
/Users/zhangxujun/Desktop

> <s_m_entry_id>
4407

> <s_m_entry_name>
wee1_decoys_glide_SP.4132

> <s_m_subgroup_title>
wee1_decoys_glide_SP

> <s_m_subgroupid>
wee1_decoys_glide_SP


$$$$
