ZINC39756648_2179
                    3D
 Schrodinger Suite 2024-2.
 56 59  0  0  1  0            999 V2000
    0.7046   48.9456   25.4525 C   0  0  0  0  0  0
    0.8014   50.0934   24.4468 C   0  0  0  0  0  0
    1.4486   49.8576   23.2277 C   0  0  0  0  0  0
    1.5078   50.8456   22.2467 C   0  0  0  0  0  0
    0.8917   52.0755   22.4619 C   0  0  0  0  0  0
    0.2313   52.3181   23.6653 C   0  0  0  0  0  0
    0.2134   51.3527   24.6803 C   0  0  0  0  0  0
   -0.4819   51.6371   25.8693 N   0  0  0  0  0  0
   -1.9409   51.5747   25.8410 C   0  0  2  0  0  0
   -2.3563   52.4448   25.3299 H   0  0  0  0  0  0
   -2.1796   51.6964   27.2716 N   0  0  0  0  0  0
   -1.0217   52.0073   27.9774 N   0  0  0  0  0  0
   -0.0752   51.9419   27.1565 C   0  0  0  0  0  0
    1.2650   52.1565   27.6561 C   0  0  0  0  0  0
    2.2579   52.9107   27.1352 C   0  0  0  0  0  0
    2.3776   53.6973   25.8986 C   0  0  0  0  0  0
    3.5064   54.3747   25.6067 C   0  0  0  0  0  0
    4.5957   54.3356   26.5699 C   0  0  0  0  0  0
    4.4941   53.6544   27.7402 C   0  0  0  0  0  0
    3.3319   52.9313   28.0413 C   0  0  0  0  0  0
    3.0641   52.2176   29.1085 N   0  3  0  0  0  0
    1.7451   51.5774   28.9700 C   0  0  0  0  0  0
   -2.6529   50.0774   25.0556 S   0  0  0  0  0  0
   -4.1257   49.6774   26.0491 C   0  0  1  0  0  0
   -3.9031   49.8900   27.0938 H   0  0  0  0  0  0
   -5.3466   50.5373   25.6618 C   0  0  0  0  0  0
   -4.4043   48.1639   26.0201 C   0  0  0  0  0  0
   -5.2368   47.6832   25.2480 O   0  0  0  0  0  0
   -3.6959   47.4203   26.8879 N   0  0  0  0  0  0
   -3.9061   46.0063   27.1726 C   0  0  0  0  0  0
   -5.1530   45.7565   28.0022 C   0  0  0  0  0  0
   -6.1316   44.8966   27.6763 C   0  0  0  0  0  0
    0.6328   47.9905   24.9307 H   0  0  0  0  0  0
    1.5746   48.8963   26.1036 H   0  0  0  0  0  0
   -0.1834   49.0104   26.0816 H   0  0  0  0  0  0
    1.9033   48.8978   23.0311 H   0  0  0  0  0  0
    2.0130   50.6494   21.3110 H   0  0  0  0  0  0
    0.9199   52.8358   21.6946 H   0  0  0  0  0  0
   -0.2589   53.2687   23.8169 H   0  0  0  0  0  0
   -2.9230   52.3069   27.5732 H   0  0  0  0  0  0
    1.5623   53.7810   25.2031 H   0  0  0  0  0  0
    3.5870   54.9555   24.6988 H   0  0  0  0  0  0
    5.5072   54.8736   26.3512 H   0  0  0  0  0  0
    5.3355   53.6663   28.4194 H   0  0  0  0  0  0
    1.1291   51.8392   29.8327 H   0  0  0  0  0  0
    1.8943   50.4981   28.9100 H   0  0  0  0  0  0
   -6.2204   50.2900   26.2661 H   0  0  0  0  0  0
   -5.1415   51.5985   25.8062 H   0  0  0  0  0  0
   -5.6194   50.3944   24.6151 H   0  0  0  0  0  0
   -2.9916   47.8800   27.4669 H   0  0  0  0  0  0
   -3.0546   45.6947   27.7800 H   0  0  0  0  0  0
   -3.8777   45.4063   26.2620 H   0  0  0  0  0  0
   -5.2322   46.3392   28.9093 H   0  0  0  0  0  0
   -6.0822   44.3039   26.7743 H   0  0  0  0  0  0
   -7.0025   44.7732   28.3039 H   0  0  0  0  0  0
    3.6893   52.0950   29.9001 H   0  0  0  0  0  0
  1  2  1  0  0  0
  1 33  1  0  0  0
  1 34  1  0  0  0
  1 35  1  0  0  0
  2  7  2  0  0  0
  2  3  1  0  0  0
  3  4  2  0  0  0
  3 36  1  0  0  0
  4  5  1  0  0  0
  4 37  1  0  0  0
  5  6  2  0  0  0
  5 38  1  0  0  0
  6  7  1  0  0  0
  6 39  1  0  0  0
  7  8  1  0  0  0
  8 13  1  0  0  0
  8  9  1  0  0  0
  9 10  1  0  0  0
  9 11  1  0  0  0
  9 23  1  0  0  0
 11 12  1  0  0  0
 11 40  1  0  0  0
 12 13  2  0  0  0
 13 14  1  0  0  0
 14 22  1  0  0  0
 14 15  2  0  0  0
 15 20  1  0  0  0
 15 16  1  0  0  0
 16 17  2  0  0  0
 16 41  1  0  0  0
 17 18  1  0  0  0
 17 42  1  0  0  0
 18 19  2  0  0  0
 18 43  1  0  0  0
 19 20  1  0  0  0
 19 44  1  0  0  0
 20 21  2  0  0  0
 21 22  1  0  0  0
 21 56  1  0  0  0
 22 45  1  0  0  0
 22 46  1  0  0  0
 23 24  1  0  0  0
 24 25  1  0  0  0
 24 26  1  0  0  0
 24 27  1  0  0  0
 26 47  1  0  0  0
 26 48  1  0  0  0
 26 49  1  0  0  0
 27 28  2  0  0  0
 27 29  1  0  0  0
 29 30  1  0  0  0
 29 50  1  0  0  0
 30 31  1  0  0  0
 30 51  1  0  0  0
 30 52  1  0  0  0
 31 32  2  0  0  0
 31 53  1  0  0  0
 32 54  1  0  0  0
 32 55  1  0  0  0
M  CHG  1  21   1
M  END
> <i_i_glide_confnum>
146

> <i_i_glide_lignum>
2180

> <i_i_glide_posenum>
399

> <i_i_glide_rotatable_bonds>
8

> <i_m_Source_File_Index>
4515

> <b_m_subgroup_collapsed>
0

> <r_i_docking_score>
-3.92856

> <r_i_glide_ecoul>
-2.08603

> <r_i_glide_eff_state_penalty>
0

> <r_i_glide_einternal>
9.17854

> <r_i_glide_emodel>
-41.7806

> <r_i_glide_energy>
-35.8186

> <r_i_glide_erotb>
0.89531

> <r_i_glide_esite>
-0.231207

> <r_i_glide_evdw>
-33.7326

> <r_i_glide_gscore>
-3.92856

> <r_i_glide_hbond>
-0.16

> <r_i_glide_ligand_efficiency>
-0.130952

> <r_i_glide_ligand_efficiency_ln>
-0.892611

> <r_i_glide_ligand_efficiency_sa>
-0.406898

> <r_i_glide_lipo>
-1.89343

> <r_i_glide_metal>
0

> <r_i_glide_rewards>
-0.539698

> <s_i_glide_gridfile>
wee1_glide-grid

> <s_m_Source_File>
wee1_decoys_glide_SP.sdf

> <s_m_Source_Path>
/Users/zhangxujun/Desktop

> <s_m_entry_id>
4790

> <s_m_entry_name>
wee1_decoys_glide_SP.4515

> <s_m_subgroup_title>
wee1_decoys_glide_SP

> <s_m_subgroupid>
wee1_decoys_glide_SP


$$$$
