ZINC38782846_1484
                    3D
 Schrodinger Suite 2024-2.
 40 44  0  0  1  0            999 V2000
    0.3034   54.0971   31.4048 C   0  0  0  0  0  0
   -0.0264   52.9412   30.7059 C   0  0  0  0  0  0
    0.3521   53.1475   29.3857 C   0  0  0  0  0  0
    0.8897   54.3916   29.2538 O   0  0  0  0  0  0
    0.8537   54.9697   30.4814 C   0  0  0  0  0  0
    0.2203   52.3127   28.2098 C   0  0  0  0  0  0
   -0.6372   51.3093   28.0440 C   0  0  0  0  0  0
   -0.3459   50.8130   26.6623 C   0  0  2  0  0  0
    0.0523   49.7963   26.7097 H   0  0  0  0  0  0
    0.7043   51.6970   26.2209 N   0  0  0  0  0  0
    0.9913   52.5389   27.1253 N   0  0  0  0  0  0
   -1.5473   50.8829   25.6729 C   0  0  2  0  0  0
   -1.6444   51.9023   25.2964 H   0  0  0  0  0  0
   -2.8412   50.5009   26.2030 N   0  0  0  0  0  0
   -2.8890   49.0683   26.0816 N   0  0  0  0  0  0
   -2.1879   48.7941   24.8410 C   0  0  1  0  0  0
   -2.9357   48.7369   24.0474 H   0  0  0  0  0  0
   -1.3618   49.9663   24.5608 N   0  0  0  0  0  0
   -0.4607   50.1636   23.5121 C   0  0  0  0  0  0
    0.7570   49.4579   23.4803 C   0  0  0  0  0  0
    1.7087   49.6903   22.4784 C   0  0  0  0  0  0
    1.3952   50.6299   21.5065 C   0  0  0  0  0  0
    0.2160   51.3167   21.5253 C   0  0  0  0  0  0
   -0.7330   51.1239   22.5252 C   0  0  0  0  0  0
    0.1771   52.1760   20.4738 O   0  0  0  0  0  0
    1.3250   51.9024   19.7085 C   0  0  0  0  0  0
    2.1458   51.0424   20.4560 O   0  0  0  0  0  0
   -1.3627   47.1815   24.8526 S   0  0  0  0  0  0
    0.1489   54.2740   32.4577 H   0  0  0  0  0  0
   -0.4947   52.0558   31.1168 H   0  0  0  0  0  0
    1.2414   55.9766   30.5475 H   0  0  0  0  0  0
   -1.3687   50.8980   28.7271 H   0  0  0  0  0  0
   -2.9525   50.7099   27.1855 H   0  0  0  0  0  0
   -2.2761   48.7369   26.8310 H   0  0  0  0  0  0
    0.9895   48.7474   24.2613 H   0  0  0  0  0  0
    2.6480   49.1562   22.4768 H   0  0  0  0  0  0
   -1.6569   51.6822   22.5461 H   0  0  0  0  0  0
    1.8650   52.8270   19.4888 H   0  0  0  0  0  0
    1.0357   51.4011   18.7802 H   0  0  0  0  0  0
   -0.6189   47.3848   25.9495 H   0  0  0  0  0  0
  1  5  2  0  0  0
  1  2  1  0  0  0
  1 29  1  0  0  0
  2  3  2  0  0  0
  2 30  1  0  0  0
  3  4  1  0  0  0
  3  6  1  0  0  0
  4  5  1  0  0  0
  5 31  1  0  0  0
  6 11  1  0  0  0
  6  7  2  0  0  0
  7  8  1  0  0  0
  7 32  1  0  0  0
  8  9  1  0  0  0
  8 10  1  0  0  0
  8 12  1  0  0  0
 10 11  2  0  0  0
 12 13  1  0  0  0
 12 18  1  0  0  0
 12 14  1  0  0  0
 14 15  1  0  0  0
 14 33  1  0  0  0
 15 16  1  0  0  0
 15 34  1  0  0  0
 16 17  1  0  0  0
 16 18  1  0  0  0
 16 28  1  0  0  0
 18 19  1  0  0  0
 19 24  2  0  0  0
 19 20  1  0  0  0
 20 21  2  0  0  0
 20 35  1  0  0  0
 21 22  1  0  0  0
 21 36  1  0  0  0
 22 27  1  0  0  0
 22 23  2  0  0  0
 23 24  1  0  0  0
 23 25  1  0  0  0
 24 37  1  0  0  0
 25 26  1  0  0  0
 26 27  1  0  0  0
 26 38  1  0  0  0
 26 39  1  0  0  0
 28 40  1  0  0  0
M  END
> <i_i_glide_confnum>
42

> <i_i_glide_lignum>
1485

> <i_i_glide_posenum>
368

> <i_i_glide_rotatable_bonds>
4

> <i_m_Source_File_Index>
3982

> <b_m_subgroup_collapsed>
0

> <r_i_docking_score>
-4.98856

> <r_i_glide_ecoul>
-10.0628

> <r_i_glide_eff_state_penalty>
0

> <r_i_glide_einternal>
9.65168

> <r_i_glide_emodel>
-49.7967

> <r_i_glide_energy>
-40.4174

> <r_i_glide_erotb>
0.449638

> <r_i_glide_esite>
-0.352217

> <r_i_glide_evdw>
-30.3547

> <r_i_glide_gscore>
-4.98856

> <r_i_glide_hbond>
-0.356675

> <r_i_glide_ligand_efficiency>
-0.199543

> <r_i_glide_ligand_efficiency_ln>
-1.18244

> <r_i_glide_ligand_efficiency_sa>
-0.583466

> <r_i_glide_lipo>
-0.729808

> <r_i_glide_metal>
0

> <r_i_glide_rewards>
-0.972355

> <s_i_glide_gridfile>
wee1_glide-grid

> <s_m_Source_File>
wee1_decoys_glide_SP.sdf

> <s_m_Source_Path>
/Users/zhangxujun/Desktop

> <s_m_entry_id>
4257

> <s_m_entry_name>
wee1_decoys_glide_SP.3982

> <s_m_subgroup_title>
wee1_decoys_glide_SP

> <s_m_subgroupid>
wee1_decoys_glide_SP


$$$$
