ZINC15106677_2250
                    3D
 Schrodinger Suite 2024-2.
 51 55  0  0  1  0            999 V2000
    1.0969   52.4333   26.5784 C   0  0  0  0  0  0
    2.0440   52.9687   25.5119 C   0  0  0  0  0  0
    3.2209   53.7327   25.7631 C   0  0  0  0  0  0
    3.8709   54.0972   24.5881 C   0  0  0  0  0  0
    3.0280   53.6410   23.1575 S   0  0  0  0  0  0
    1.9050   52.7281   24.1247 C   0  0  0  0  0  0
    0.9367   51.9075   23.4421 C   0  0  0  0  0  0
    0.3287   52.3112   22.4508 O   0  0  0  0  0  0
    0.8222   50.6874   24.0071 N   0  0  0  0  0  0
   -0.0347   49.6178   23.7013 C   0  0  0  0  0  0
   -0.7411   49.4846   22.4985 C   0  0  0  0  0  0
   -1.5667   48.3789   22.2977 C   0  0  0  0  0  0
   -1.6968   47.3958   23.2926 C   0  0  0  0  0  0
   -0.9828   47.5378   24.4816 C   0  0  0  0  0  0
   -0.1525   48.6340   24.6840 C   0  0  0  0  0  0
   -2.4897   46.2673   23.1817 O   0  0  0  0  0  0
   -3.2661   46.0853   22.0021 C   0  0  0  0  0  0
    5.1046   54.7194   24.5566 N   0  0  0  0  0  0
    5.9600   54.7927   25.5998 C   0  0  0  0  0  0
    7.0768   55.2969   25.5037 O   0  0  0  0  0  0
    5.4318   54.1243   26.8976 C   0  0  0  0  0  0
    3.8753   54.2354   27.0645 C   0  0  2  0  0  0
    3.6624   55.2965   27.1337 H   0  0  0  0  0  0
    3.3392   53.6830   28.3869 C   0  0  0  0  0  0
    3.9983   52.6374   29.0671 C   0  0  0  0  0  0
    3.4706   52.0961   30.2430 C   0  0  0  0  0  0
    2.2487   52.5855   30.6849 C   0  0  0  0  0  0
    1.6250   53.6291   30.0632 C   0  0  0  0  0  0
    2.1603   54.2286   28.9301 C   0  0  0  0  0  0
    0.4902   53.9476   30.7375 O   0  0  0  0  0  0
    0.3045   52.9046   31.6564 C   0  0  0  0  0  0
    1.5192   52.2091   31.7650 O   0  0  0  0  0  0
    1.6301   51.8638   27.3388 H   0  0  0  0  0  0
    0.5975   53.2462   27.1009 H   0  0  0  0  0  0
    0.2996   51.7879   26.2171 H   0  0  0  0  0  0
    1.3916   50.5373   24.8248 H   0  0  0  0  0  0
   -0.6554   50.2170   21.7111 H   0  0  0  0  0  0
   -2.0958   48.3025   21.3605 H   0  0  0  0  0  0
   -1.0693   46.7963   25.2623 H   0  0  0  0  0  0
    0.3861   48.7077   25.6181 H   0  0  0  0  0  0
   -3.9659   46.9081   21.8492 H   0  0  0  0  0  0
   -2.6313   45.9855   21.1201 H   0  0  0  0  0  0
   -3.8534   45.1711   22.0925 H   0  0  0  0  0  0
    5.4647   55.1154   23.7015 H   0  0  0  0  0  0
    5.7329   53.0780   26.8247 H   0  0  0  0  0  0
    5.9496   54.5639   27.7524 H   0  0  0  0  0  0
    4.9182   52.2201   28.6872 H   0  0  0  0  0  0
    3.9953   51.3071   30.7612 H   0  0  0  0  0  0
    1.6521   55.0492   28.4451 H   0  0  0  0  0  0
   -0.4654   52.2249   31.2808 H   0  0  0  0  0  0
   -0.0133   53.2962   32.6250 H   0  0  0  0  0  0
  1  2  1  0  0  0
  1 33  1  0  0  0
  1 34  1  0  0  0
  1 35  1  0  0  0
  2  6  2  0  0  0
  2  3  1  0  0  0
  3 22  1  0  0  0
  3  4  2  0  0  0
  4  5  1  0  0  0
  4 18  1  0  0  0
  5  6  1  0  0  0
  6  7  1  0  0  0
  7  8  2  0  0  0
  7  9  1  0  0  0
  9 10  1  0  0  0
  9 36  1  0  0  0
 10 15  2  0  0  0
 10 11  1  0  0  0
 11 12  2  0  0  0
 11 37  1  0  0  0
 12 13  1  0  0  0
 12 38  1  0  0  0
 13 14  2  0  0  0
 13 16  1  0  0  0
 14 15  1  0  0  0
 14 39  1  0  0  0
 15 40  1  0  0  0
 16 17  1  0  0  0
 17 41  1  0  0  0
 17 42  1  0  0  0
 17 43  1  0  0  0
 18 19  1  0  0  0
 18 44  1  0  0  0
 19 20  2  0  0  0
 19 21  1  0  0  0
 21 22  1  0  0  0
 21 45  1  0  0  0
 21 46  1  0  0  0
 22 23  1  0  0  0
 22 24  1  0  0  0
 24 29  2  0  0  0
 24 25  1  0  0  0
 25 26  2  0  0  0
 25 47  1  0  0  0
 26 27  1  0  0  0
 26 48  1  0  0  0
 27 32  1  0  0  0
 27 28  2  0  0  0
 28 29  1  0  0  0
 28 30  1  0  0  0
 29 49  1  0  0  0
 30 31  1  0  0  0
 31 32  1  0  0  0
 31 50  1  0  0  0
 31 51  1  0  0  0
M  END
> <i_i_glide_confnum>
23

> <i_i_glide_lignum>
2251

> <i_i_glide_posenum>
321

> <i_i_glide_rotatable_bonds>
5

> <i_m_Source_File_Index>
1156

> <b_m_subgroup_collapsed>
0

> <r_i_docking_score>
-7.42726

> <r_i_glide_ecoul>
-5.99539

> <r_i_glide_eff_state_penalty>
0

> <r_i_glide_einternal>
3.21906

> <r_i_glide_emodel>
-69.306

> <r_i_glide_energy>
-52.7335

> <r_i_glide_erotb>
0.41851

> <r_i_glide_esite>
-0.1

> <r_i_glide_evdw>
-46.7381

> <r_i_glide_gscore>
-7.42726

> <r_i_glide_hbond>
-0.32

> <r_i_glide_ligand_efficiency>
-0.239589

> <r_i_glide_ligand_efficiency_ln>
-1.67508

> <r_i_glide_ligand_efficiency_sa>
-0.752641

> <r_i_glide_lipo>
-2.57011

> <r_i_glide_metal>
0

> <r_i_glide_rewards>
-1.61945

> <s_i_glide_gridfile>
wee1_glide-grid

> <s_m_Source_File>
wee1_decoys_glide_SP.sdf

> <s_m_Source_Path>
/Users/zhangxujun/Desktop

> <s_m_entry_id>
1431

> <s_m_entry_name>
wee1_decoys_glide_SP.1156

> <s_m_subgroup_title>
wee1_decoys_glide_SP

> <s_m_subgroupid>
wee1_decoys_glide_SP


$$$$
