ZINC40288104_99
                    3D
 Schrodinger Suite 2024-2.
 51 53  0  0  1  0            999 V2000
   11.4953   57.5124   17.7309 C   0  0  0  0  0  0
   10.4655   58.0023   16.6977 C   0  0  0  0  0  0
   10.4735   57.0644   15.4695 C   0  0  0  0  0  0
    9.0557   58.2221   17.3317 C   0  0  1  0  0  0
    9.1763   58.9137   18.1691 H   0  0  0  0  0  0
    8.0540   58.8196   16.3365 C   0  0  0  0  0  0
    7.1631   58.1702   15.7771 O   0  0  0  0  0  0
    8.3045   60.1287   16.1215 O   0  0  0  0  0  0
    7.4479   60.8918   15.2818 C   0  0  0  0  0  0
    8.5072   56.9721   17.8988 N   0  0  0  0  0  0
    7.4409   56.8502   18.7190 C   0  0  0  0  0  0
    6.9467   57.8293   19.2811 O   0  0  0  0  0  0
    6.9440   55.5906   18.8602 N   0  0  0  0  0  0
    7.6707   54.3673   18.4323 C   0  0  0  0  0  0
    6.9542   53.7254   17.2103 C   0  0  0  0  0  0
    5.4656   53.7000   17.5013 C   0  0  0  0  0  0
    4.8611   54.4081   18.5378 C   0  0  0  0  0  0
    3.5046   54.1154   18.4827 N   0  3  0  0  0  0
    3.2854   53.1660   17.5075 C   0  0  0  0  0  0
    4.5015   52.8968   16.9201 N   0  0  0  0  0  0
    4.6769   52.1823   16.2259 H   0  0  0  0  0  0
    5.6055   55.3625   19.4853 C   0  0  1  0  0  0
    5.1035   56.3296   19.4844 H   0  0  0  0  0  0
    5.5909   54.9734   20.9808 C   0  0  0  0  0  0
    6.6947   55.2411   21.8076 C   0  0  0  0  0  0
    6.6656   54.9039   23.1618 C   0  0  0  0  0  0
    5.5370   54.3123   23.7200 C   0  0  0  0  0  0
    4.4269   54.0545   22.9181 C   0  0  0  0  0  0
    4.4609   54.3747   21.5618 C   0  0  0  0  0  0
    2.8456   53.2971   23.6628 Br  0  0  0  0  0  0
    5.5198   54.0124   25.0389 F   0  0  0  0  0  0
   12.4981   57.4783   17.3040 H   0  0  0  0  0  0
   11.5313   58.1675   18.6017 H   0  0  0  0  0  0
   11.2574   56.5083   18.0816 H   0  0  0  0  0  0
   10.8207   58.9726   16.3447 H   0  0  0  0  0  0
   10.1018   56.0705   15.7203 H   0  0  0  0  0  0
    9.8573   57.4536   14.6585 H   0  0  0  0  0  0
   11.4824   56.9473   15.0740 H   0  0  0  0  0  0
    7.7926   61.9238   15.2356 H   0  0  0  0  0  0
    7.4256   60.4917   14.2674 H   0  0  0  0  0  0
    6.4304   60.8947   15.6779 H   0  0  0  0  0  0
    9.0006   56.1364   17.6278 H   0  0  0  0  0  0
    8.7480   54.5002   18.3217 H   0  0  0  0  0  0
    7.6053   53.6968   19.2814 H   0  0  0  0  0  0
    7.1603   54.3155   16.3168 H   0  0  0  0  0  0
    7.3440   52.7251   17.0171 H   0  0  0  0  0  0
    2.3437   52.6865   17.2764 H   0  0  0  0  0  0
    7.5840   55.7118   21.4157 H   0  0  0  0  0  0
    7.5044   55.1257   23.7970 H   0  0  0  0  0  0
    3.5734   54.1748   20.9866 H   0  0  0  0  0  0
    2.7918   54.5013   19.0965 H   0  0  0  0  0  0
  1  2  1  0  0  0
  1 32  1  0  0  0
  1 33  1  0  0  0
  1 34  1  0  0  0
  2  3  1  0  0  0
  2  4  1  0  0  0
  2 35  1  0  0  0
  3 36  1  0  0  0
  3 37  1  0  0  0
  3 38  1  0  0  0
  4  5  1  0  0  0
  4  6  1  0  0  0
  4 10  1  0  0  0
  6  7  2  0  0  0
  6  8  1  0  0  0
  8  9  1  0  0  0
  9 39  1  0  0  0
  9 40  1  0  0  0
  9 41  1  0  0  0
 10 11  1  0  0  0
 10 42  1  0  0  0
 11 12  2  0  0  0
 11 13  1  0  0  0
 13 22  1  0  0  0
 13 14  1  0  0  0
 14 15  1  0  0  0
 14 43  1  0  0  0
 14 44  1  0  0  0
 15 16  1  0  0  0
 15 45  1  0  0  0
 15 46  1  0  0  0
 16 20  1  0  0  0
 16 17  2  0  0  0
 17 18  1  0  0  0
 17 22  1  0  0  0
 18 19  2  0  0  0
 18 51  1  0  0  0
 19 20  1  0  0  0
 19 47  1  0  0  0
 20 21  1  0  0  0
 22 23  1  0  0  0
 22 24  1  0  0  0
 24 29  2  0  0  0
 24 25  1  0  0  0
 25 26  2  0  0  0
 25 48  1  0  0  0
 26 27  1  0  0  0
 26 49  1  0  0  0
 27 28  2  0  0  0
 27 31  1  0  0  0
 28 29  1  0  0  0
 28 30  1  0  0  0
 29 50  1  0  0  0
M  CHG  1  18   1
M  END
> <i_i_glide_confnum>
92

> <i_i_glide_lignum>
100

> <i_i_glide_posenum>
356

> <i_i_glide_rotatable_bonds>
7

> <i_m_Source_File_Index>
2126

> <b_m_subgroup_collapsed>
0

> <r_i_docking_score>
-4.59774

> <r_i_glide_ecoul>
-8.54435

> <r_i_glide_eff_state_penalty>
0

> <r_i_glide_einternal>
5.79178

> <r_i_glide_emodel>
-42.0131

> <r_i_glide_energy>
-32.9141

> <r_i_glide_erotb>
0.486436

> <r_i_glide_esite>
-0.154105

> <r_i_glide_evdw>
-24.3697

> <r_i_glide_gscore>
-4.59774

> <r_i_glide_hbond>
-0.214596

> <r_i_glide_ligand_efficiency>
-0.164205

> <r_i_glide_ligand_efficiency_ln>
-1.06129

> <r_i_glide_ligand_efficiency_sa>
-0.498623

> <r_i_glide_lipo>
-1.46564

> <r_i_glide_metal>
0

> <r_i_glide_rewards>
-0.749693

> <s_i_glide_gridfile>
wee1_glide-grid

> <s_m_Source_File>
wee1_decoys_glide_SP.sdf

> <s_m_Source_Path>
/Users/zhangxujun/Desktop

> <s_m_entry_id>
2401

> <s_m_entry_name>
wee1_decoys_glide_SP.2126

> <s_m_subgroup_title>
wee1_decoys_glide_SP

> <s_m_subgroupid>
wee1_decoys_glide_SP


$$$$
