ZINC67133148_1563
                    3D
 Schrodinger Suite 2024-2.
 47 50  0  0  1  0            999 V2000
    3.8549   53.9750   22.1131 C   0  0  0  0  0  0
    5.2570   54.5130   21.8628 C   0  0  0  0  0  0
    6.3041   54.8983   22.7286 C   0  0  0  0  0  0
    7.3033   55.3659   21.9982 N   0  0  0  0  0  0
    6.9779   55.2968   20.6654 N   0  0  0  0  0  0
    5.7418   54.7948   20.5933 N   0  0  0  0  0  0
    5.1217   54.6173   19.3308 C   0  0  0  0  0  0
    4.5687   53.3671   19.0348 C   0  0  0  0  0  0
    3.9223   53.1318   17.8282 C   0  0  0  0  0  0
    3.8109   54.1361   16.8744 C   0  0  0  0  0  0
    4.3686   55.4130   17.1163 C   0  0  0  0  0  0
    5.0447   55.6690   18.3531 C   0  0  0  0  0  0
    5.5979   56.8960   18.6013 N   0  0  0  0  0  0
    5.5073   57.8675   17.6611 C   0  0  0  0  0  0
    4.8549   57.6968   16.4469 C   0  0  0  0  0  0
    4.2806   56.4608   16.1640 C   0  0  0  0  0  0
    6.3060   54.9655   24.1800 C   0  0  0  0  0  0
    7.1012   55.6957   24.7804 O   0  0  0  0  0  0
    5.3705   54.2076   24.7880 N   0  0  0  0  0  0
    5.1358   54.0787   26.1681 C   0  0  0  0  0  0
    6.1364   54.2478   27.1358 C   0  0  0  0  0  0
    5.8429   54.0729   28.4817 C   0  0  0  0  0  0
    4.5605   53.7051   28.8808 C   0  0  0  0  0  0
    3.5555   53.4924   27.9257 C   0  0  0  0  0  0
    3.8505   53.6985   26.5727 C   0  0  0  0  0  0
    2.2442   53.0923   28.2459 N   0  0  0  0  0  0
    1.8020   52.4709   29.3601 C   0  0  0  0  0  0
    2.5098   52.1018   30.2998 O   0  0  0  0  0  0
    0.3032   52.1922   29.4133 C   0  0  0  0  0  0
    3.8586   52.8974   22.2764 H   0  0  0  0  0  0
    3.3877   54.4388   22.9815 H   0  0  0  0  0  0
    3.1724   54.1703   21.2845 H   0  0  0  0  0  0
    4.6446   52.5516   19.7402 H   0  0  0  0  0  0
    3.5206   52.1476   17.6284 H   0  0  0  0  0  0
    3.3085   53.9394   15.9384 H   0  0  0  0  0  0
    5.9514   58.8229   17.9072 H   0  0  0  0  0  0
    4.7945   58.5142   15.7415 H   0  0  0  0  0  0
    3.7700   56.2952   15.2263 H   0  0  0  0  0  0
    4.7397   53.7049   24.1836 H   0  0  0  0  0  0
    7.1506   54.4966   26.8677 H   0  0  0  0  0  0
    6.6194   54.2113   29.2202 H   0  0  0  0  0  0
    4.3678   53.5869   29.9354 H   0  0  0  0  0  0
    3.0833   53.5418   25.8281 H   0  0  0  0  0  0
    1.5637   53.2329   27.5143 H   0  0  0  0  0  0
   -0.2479   52.7801   28.6785 H   0  0  0  0  0  0
   -0.0897   52.4305   30.4029 H   0  0  0  0  0  0
    0.1113   51.1363   29.2214 H   0  0  0  0  0  0
  1  2  1  0  0  0
  1 30  1  0  0  0
  1 31  1  0  0  0
  1 32  1  0  0  0
  2  6  1  0  0  0
  2  3  2  0  0  0
  3  4  1  0  0  0
  3 17  1  0  0  0
  4  5  2  0  0  0
  5  6  1  0  0  0
  6  7  1  0  0  0
  7 12  2  0  0  0
  7  8  1  0  0  0
  8  9  2  0  0  0
  8 33  1  0  0  0
  9 10  1  0  0  0
  9 34  1  0  0  0
 10 11  2  0  0  0
 10 35  1  0  0  0
 11 16  1  0  0  0
 11 12  1  0  0  0
 12 13  1  0  0  0
 13 14  2  0  0  0
 14 15  1  0  0  0
 14 36  1  0  0  0
 15 16  2  0  0  0
 15 37  1  0  0  0
 16 38  1  0  0  0
 17 18  2  0  0  0
 17 19  1  0  0  0
 19 20  1  0  0  0
 19 39  1  0  0  0
 20 25  2  0  0  0
 20 21  1  0  0  0
 21 22  2  0  0  0
 21 40  1  0  0  0
 22 23  1  0  0  0
 22 41  1  0  0  0
 23 24  2  0  0  0
 23 42  1  0  0  0
 24 25  1  0  0  0
 24 26  1  0  0  0
 25 43  1  0  0  0
 26 27  1  0  0  0
 26 44  1  0  0  0
 27 28  2  0  0  0
 27 29  1  0  0  0
 29 45  1  0  0  0
 29 46  1  0  0  0
 29 47  1  0  0  0
M  END
> <i_i_glide_confnum>
113

> <i_i_glide_lignum>
1564

> <i_i_glide_posenum>
67

> <i_i_glide_rotatable_bonds>
6

> <i_m_Source_File_Index>
1999

> <b_m_subgroup_collapsed>
0

> <r_i_docking_score>
-7.00873

> <r_i_glide_ecoul>
-6.38553

> <r_i_glide_eff_state_penalty>
0

> <r_i_glide_einternal>
11.2651

> <r_i_glide_emodel>
-69.2061

> <r_i_glide_energy>
-52.3066

> <r_i_glide_erotb>
0.651767

> <r_i_glide_esite>
0

> <r_i_glide_evdw>
-45.921

> <r_i_glide_gscore>
-7.00873

> <r_i_glide_hbond>
-0.592721

> <r_i_glide_ligand_efficiency>
-0.24168

> <r_i_glide_ligand_efficiency_ln>
-1.60482

> <r_i_glide_ligand_efficiency_sa>
-0.742519

> <r_i_glide_lipo>
-2.22945

> <r_i_glide_metal>
0

> <r_i_glide_rewards>
-1.58445

> <s_i_glide_gridfile>
wee1_glide-grid

> <s_m_Source_File>
wee1_decoys_glide_SP.sdf

> <s_m_Source_Path>
/Users/zhangxujun/Desktop

> <s_m_entry_id>
2274

> <s_m_entry_name>
wee1_decoys_glide_SP.1999

> <s_m_subgroup_title>
wee1_decoys_glide_SP

> <s_m_subgroupid>
wee1_decoys_glide_SP


$$$$
