ZINC39676912_3689
                    3D
 Schrodinger Suite 2024-2.
 71 74  0  0  1  0            999 V2000
    4.3042   53.1492   29.7942 C   0  0  0  0  0  0
    4.7856   54.5088   29.2624 C   0  0  0  0  0  0
    4.9750   54.4966   27.7646 C   0  0  0  0  0  0
    6.2015   54.1188   27.2201 C   0  0  0  0  0  0
    6.3591   54.0966   25.8400 C   0  0  0  0  0  0
    5.2939   54.4256   24.9947 C   0  0  0  0  0  0
    4.1021   54.8906   25.5637 C   0  0  0  0  0  0
    3.9275   54.8878   26.9389 C   0  0  0  0  0  0
    5.4869   54.2891   23.5006 C   0  0  0  0  0  0
    6.5893   54.5825   23.0295 O   0  0  0  0  0  0
    4.4851   53.8013   22.7165 N   0  0  0  0  0  0
    3.1320   53.3851   23.1165 C   0  0  0  0  0  0
    2.4155   53.1457   21.7768 C   0  0  1  0  0  0
    1.9062   54.0967   21.6817 H   0  0  0  0  0  0
    3.5257   52.8460   20.7149 C   0  0  0  0  0  0
    4.6933   53.6801   21.2731 C   0  0  0  0  0  0
    3.3235   53.2960   19.2426 C   0  0  0  0  0  0
    2.2424   52.4973   18.5041 C   0  0  0  0  0  0
    2.7044   51.0270   18.4590 N   0  3  0  0  0  0
    3.0402   50.4135   19.8310 C   0  0  0  0  0  0
    3.9916   51.3528   20.6297 C   0  0  0  0  0  0
    1.2748   52.1159   21.9201 C   0  0  0  0  0  0
    0.2578   52.2668   21.2446 O   0  0  0  0  0  0
    1.4547   51.0433   22.7102 N   0  0  0  0  0  0
    0.5361   49.9113   22.7914 C   0  0  0  0  0  0
   -0.8719   50.2573   23.3144 C   0  0  0  0  0  0
   -1.6147   49.0286   23.8130 C   0  0  0  0  0  0
   -2.5144   48.3830   22.9575 C   0  0  0  0  0  0
   -3.2186   47.2558   23.3851 C   0  0  0  0  0  0
   -3.0072   46.7614   24.6730 C   0  0  0  0  0  0
   -2.0972   47.3882   25.5214 C   0  0  0  0  0  0
   -1.4039   48.5305   25.1093 C   0  0  0  0  0  0
   -0.4402   49.2077   26.0817 C   0  0  0  0  0  0
   -4.2013   46.5771   22.4492 C   0  0  0  0  0  0
    4.1959   53.1627   30.8784 H   0  0  0  0  0  0
    3.3355   52.8811   29.3705 H   0  0  0  0  0  0
    5.0061   52.3535   29.5403 H   0  0  0  0  0  0
    5.7426   54.8095   29.6823 H   0  0  0  0  0  0
    4.0849   55.2963   29.5425 H   0  0  0  0  0  0
    7.0223   53.8308   27.8616 H   0  0  0  0  0  0
    7.3010   53.7697   25.4261 H   0  0  0  0  0  0
    3.3010   55.2900   24.9688 H   0  0  0  0  0  0
    2.9911   55.2200   27.3625 H   0  0  0  0  0  0
    2.5594   54.1475   23.6335 H   0  0  0  0  0  0
    3.2102   52.4967   23.7286 H   0  0  0  0  0  0
    5.6680   53.3180   20.9467 H   0  0  0  0  0  0
    4.6040   54.6960   20.8827 H   0  0  0  0  0  0
    3.1044   54.3606   19.1886 H   0  0  0  0  0  0
    4.2631   53.1996   18.6926 H   0  0  0  0  0  0
    1.2646   52.5327   18.9815 H   0  0  0  0  0  0
    2.1391   52.8101   17.4640 H   0  0  0  0  0  0
    2.0416   50.4463   17.9645 H   0  0  0  0  0  0
    2.0813   50.2080   20.2959 H   0  0  0  0  0  0
    3.5044   49.4570   19.5931 H   0  0  0  0  0  0
    4.9563   51.3109   20.1204 H   0  0  0  0  0  0
    4.1949   50.9529   21.6233 H   0  0  0  0  0  0
    2.3044   50.9683   23.2469 H   0  0  0  0  0  0
    1.0121   49.2165   23.4847 H   0  0  0  0  0  0
    0.4793   49.3277   21.8711 H   0  0  0  0  0  0
   -1.4531   50.7601   22.5404 H   0  0  0  0  0  0
   -0.8178   50.9927   24.1182 H   0  0  0  0  0  0
   -2.6749   48.7641   21.9591 H   0  0  0  0  0  0
   -3.5546   45.9027   25.0295 H   0  0  0  0  0  0
   -1.9407   46.9943   26.5145 H   0  0  0  0  0  0
   -0.9527   49.9933   26.6381 H   0  0  0  0  0  0
   -0.0245   48.4967   26.7906 H   0  0  0  0  0  0
    0.4246   49.6456   25.5882 H   0  0  0  0  0  0
   -4.5150   45.6012   22.8206 H   0  0  0  0  0  0
   -3.7449   46.4248   21.4707 H   0  0  0  0  0  0
   -5.0829   47.2032   22.3079 H   0  0  0  0  0  0
    3.5727   50.9560   17.9254 H   0  0  0  0  0  0
  1  2  1  0  0  0
  1 35  1  0  0  0
  1 36  1  0  0  0
  1 37  1  0  0  0
  2  3  1  0  0  0
  2 38  1  0  0  0
  2 39  1  0  0  0
  3  8  2  0  0  0
  3  4  1  0  0  0
  4  5  2  0  0  0
  4 40  1  0  0  0
  5  6  1  0  0  0
  5 41  1  0  0  0
  6  7  2  0  0  0
  6  9  1  0  0  0
  7  8  1  0  0  0
  7 42  1  0  0  0
  8 43  1  0  0  0
  9 10  2  0  0  0
  9 11  1  0  0  0
 11 16  1  0  0  0
 11 12  1  0  0  0
 12 13  1  0  0  0
 12 44  1  0  0  0
 12 45  1  0  0  0
 13 14  1  0  0  0
 13 15  1  0  0  0
 13 22  1  0  0  0
 15 21  1  0  0  0
 15 16  1  0  0  0
 15 17  1  0  0  0
 16 46  1  0  0  0
 16 47  1  0  0  0
 17 18  1  0  0  0
 17 48  1  0  0  0
 17 49  1  0  0  0
 18 19  1  0  0  0
 18 50  1  0  0  0
 18 51  1  0  0  0
 19 20  1  0  0  0
 19 52  1  0  0  0
 19 71  1  0  0  0
 20 21  1  0  0  0
 20 53  1  0  0  0
 20 54  1  0  0  0
 21 55  1  0  0  0
 21 56  1  0  0  0
 22 23  2  0  0  0
 22 24  1  0  0  0
 24 25  1  0  0  0
 24 57  1  0  0  0
 25 26  1  0  0  0
 25 58  1  0  0  0
 25 59  1  0  0  0
 26 27  1  0  0  0
 26 60  1  0  0  0
 26 61  1  0  0  0
 27 32  2  0  0  0
 27 28  1  0  0  0
 28 29  2  0  0  0
 28 62  1  0  0  0
 29 30  1  0  0  0
 29 34  1  0  0  0
 30 31  2  0  0  0
 30 63  1  0  0  0
 31 32  1  0  0  0
 31 64  1  0  0  0
 32 33  1  0  0  0
 33 65  1  0  0  0
 33 66  1  0  0  0
 33 67  1  0  0  0
 34 68  1  0  0  0
 34 69  1  0  0  0
 34 70  1  0  0  0
M  CHG  1  19   1
M  END
> <i_i_glide_confnum>
242

> <i_i_glide_lignum>
3690

> <i_i_glide_posenum>
206

> <i_i_glide_rotatable_bonds>
8

> <i_m_Source_File_Index>
5391

> <b_m_subgroup_collapsed>
0

> <r_i_docking_score>
-5.40621

> <r_i_glide_ecoul>
-4.16839

> <r_i_glide_eff_state_penalty>
0

> <r_i_glide_einternal>
5.19047

> <r_i_glide_emodel>
-54.1223

> <r_i_glide_energy>
-39.4315

> <r_i_glide_erotb>
0.696809

> <r_i_glide_esite>
-0.1

> <r_i_glide_evdw>
-35.2631

> <r_i_glide_gscore>
-5.40621

> <r_i_glide_hbond>
-0.212148

> <r_i_glide_ligand_efficiency>
-0.163824

> <r_i_glide_ligand_efficiency_ln>
-1.20231

> <r_i_glide_ligand_efficiency_sa>
-0.525472

> <r_i_glide_lipo>
-2.30515

> <r_i_glide_metal>
0

> <r_i_glide_rewards>
-1.0973

> <s_i_glide_gridfile>
wee1_glide-grid

> <s_m_Source_File>
wee1_decoys_glide_SP.sdf

> <s_m_Source_Path>
/Users/zhangxujun/Desktop

> <s_m_entry_id>
5666

> <s_m_entry_name>
wee1_decoys_glide_SP.5391

> <s_m_subgroup_title>
wee1_decoys_glide_SP

> <s_m_subgroupid>
wee1_decoys_glide_SP


$$$$
