ZINC00714781_2081
                    3D
 Schrodinger Suite 2024-2.
 63 67  0  0  1  0            999 V2000
    2.9577   54.3386   22.4690 C   0  0  0  0  0  0
    2.7106   52.8426   22.6947 C   0  0  0  0  0  0
    2.3016   52.6107   24.0445 O   0  0  0  0  0  0
    0.9899   52.7021   24.3972 C   0  0  0  0  0  0
    0.0623   52.8934   23.6093 O   0  0  0  0  0  0
    0.7846   52.4966   25.8369 C   0  0  0  0  0  0
    1.5728   53.0671   26.8891 C   0  0  0  0  0  0
    1.1467   52.6829   28.1717 C   0  0  0  0  0  0
   -0.2615   51.6864   28.0863 S   0  0  0  0  0  0
   -0.2622   51.7229   26.3635 C   0  0  0  0  0  0
   -1.2449   50.9818   25.7007 N   0  0  0  0  0  0
   -2.4625   51.5994   25.3456 C   0  0  0  0  0  0
   -3.5215   50.8580   24.8921 C   0  0  0  0  0  0
   -3.4340   49.3240   24.7246 C   0  0  1  0  0  0
   -3.6910   49.0999   23.6864 H   0  0  0  0  0  0
   -2.0080   48.8262   24.9572 C   0  0  0  0  0  0
   -1.0225   49.6184   25.4347 C   0  0  0  0  0  0
    0.2474   49.1290   25.6815 N   0  0  0  0  0  0
   -1.7886   47.4390   24.7092 C   0  0  0  0  0  0
   -1.6956   46.3104   24.4800 N   0  0  0  0  0  0
   -4.4702   48.5522   25.5510 C   0  0  0  0  0  0
   -4.3554   48.4728   26.9456 C   0  0  0  0  0  0
   -5.2959   47.7514   27.6814 C   0  0  0  0  0  0
   -6.3374   47.1238   26.9965 C   0  0  0  0  0  0
   -6.4724   47.1851   25.6477 N   0  0  0  0  0  0
   -5.5479   47.8907   24.9471 C   0  0  0  0  0  0
   -4.8120   51.4865   24.4999 C   0  0  0  0  0  0
   -5.6349   50.9025   23.7947 O   0  0  0  0  0  0
   -5.0018   52.9804   24.7963 C   0  0  0  0  0  0
   -4.0802   53.4632   25.9205 C   0  0  0  0  0  0
   -2.6243   53.1123   25.5797 C   0  0  0  0  0  0
    1.7845   53.0577   29.4943 C   0  0  0  0  0  0
    3.2586   52.6171   29.6021 C   0  0  0  0  0  0
    4.2534   53.4910   28.8091 C   0  0  0  0  0  0
    4.0929   53.4974   27.2750 C   0  0  0  0  0  0
    2.7478   54.0312   26.7393 C   0  0  0  0  0  0
    3.3460   54.5141   21.4672 H   0  0  0  0  0  0
    2.0256   54.8927   22.5705 H   0  0  0  0  0  0
    3.6754   54.7371   23.1861 H   0  0  0  0  0  0
    3.6296   52.2908   22.4815 H   0  0  0  0  0  0
    1.9708   52.4639   21.9861 H   0  0  0  0  0  0
    0.4036   48.1330   25.7668 H   0  0  0  0  0  0
    0.9571   49.7277   26.0725 H   0  0  0  0  0  0
   -3.5337   48.9566   27.4540 H   0  0  0  0  0  0
   -5.2100   47.6805   28.7557 H   0  0  0  0  0  0
   -7.0854   46.5581   27.5303 H   0  0  0  0  0  0
   -5.6913   47.9250   23.8781 H   0  0  0  0  0  0
   -6.0548   53.1863   24.9903 H   0  0  0  0  0  0
   -4.7268   53.5102   23.8860 H   0  0  0  0  0  0
   -4.3703   53.0002   26.8676 H   0  0  0  0  0  0
   -4.1827   54.5418   26.0585 H   0  0  0  0  0  0
   -2.1011   53.4203   26.4819 H   0  0  0  0  0  0
   -2.2334   53.6820   24.7337 H   0  0  0  0  0  0
    1.7373   54.1372   29.6396 H   0  0  0  0  0  0
    1.2213   52.6244   30.3228 H   0  0  0  0  0  0
    3.5516   52.6450   30.6529 H   0  0  0  0  0  0
    3.3590   51.5749   29.2988 H   0  0  0  0  0  0
    4.1995   54.5173   29.1746 H   0  0  0  0  0  0
    5.2642   53.1530   29.0394 H   0  0  0  0  0  0
    4.8904   54.1156   26.8623 H   0  0  0  0  0  0
    4.2760   52.4978   26.8858 H   0  0  0  0  0  0
    2.8795   54.3650   25.7107 H   0  0  0  0  0  0
    2.5170   54.9479   27.2809 H   0  0  0  0  0  0
  1  2  1  0  0  0
  1 37  1  0  0  0
  1 38  1  0  0  0
  1 39  1  0  0  0
  2  3  1  0  0  0
  2 40  1  0  0  0
  2 41  1  0  0  0
  3  4  1  0  0  0
  4  5  2  0  0  0
  4  6  1  0  0  0
  6 10  2  0  0  0
  6  7  1  0  0  0
  7 36  1  0  0  0
  7  8  2  0  0  0
  8  9  1  0  0  0
  8 32  1  0  0  0
  9 10  1  0  0  0
 10 11  1  0  0  0
 11 17  1  0  0  0
 11 12  1  0  0  0
 12 31  1  0  0  0
 12 13  2  0  0  0
 13 14  1  0  0  0
 13 27  1  0  0  0
 14 15  1  0  0  0
 14 16  1  0  0  0
 14 21  1  0  0  0
 16 17  2  0  0  0
 16 19  1  0  0  0
 17 18  1  0  0  0
 18 42  1  0  0  0
 18 43  1  0  0  0
 19 20  3  0  0  0
 21 26  2  0  0  0
 21 22  1  0  0  0
 22 23  2  0  0  0
 22 44  1  0  0  0
 23 24  1  0  0  0
 23 45  1  0  0  0
 24 25  2  0  0  0
 24 46  1  0  0  0
 25 26  1  0  0  0
 26 47  1  0  0  0
 27 28  2  0  0  0
 27 29  1  0  0  0
 29 30  1  0  0  0
 29 48  1  0  0  0
 29 49  1  0  0  0
 30 31  1  0  0  0
 30 50  1  0  0  0
 30 51  1  0  0  0
 31 52  1  0  0  0
 31 53  1  0  0  0
 32 33  1  0  0  0
 32 54  1  0  0  0
 32 55  1  0  0  0
 33 34  1  0  0  0
 33 56  1  0  0  0
 33 57  1  0  0  0
 34 35  1  0  0  0
 34 58  1  0  0  0
 34 59  1  0  0  0
 35 36  1  0  0  0
 35 60  1  0  0  0
 35 61  1  0  0  0
 36 62  1  0  0  0
 36 63  1  0  0  0
M  END
> <i_i_glide_confnum>
71

> <i_i_glide_lignum>
2082

> <i_i_glide_posenum>
107

> <i_i_glide_rotatable_bonds>
6

> <i_m_Source_File_Index>
1725

> <b_m_subgroup_collapsed>
0

> <r_i_docking_score>
-4.25254

> <r_i_glide_ecoul>
-3.00232

> <r_i_glide_eff_state_penalty>
0

> <r_i_glide_einternal>
2.67628

> <r_i_glide_emodel>
-48.1009

> <r_i_glide_energy>
-37.5478

> <r_i_glide_erotb>
0.34076

> <r_i_glide_esite>
-0.172286

> <r_i_glide_evdw>
-34.5455

> <r_i_glide_gscore>
-4.25254

> <r_i_glide_hbond>
-0.216643

> <r_i_glide_ligand_efficiency>
-0.121501

> <r_i_glide_ligand_efficiency_ln>
-0.933527

> <r_i_glide_ligand_efficiency_sa>
-0.397438

> <r_i_glide_lipo>
-1.71434

> <r_i_glide_metal>
0

> <r_i_glide_rewards>
-0.312412

> <s_i_glide_gridfile>
wee1_glide-grid

> <s_m_Source_File>
wee1_decoys_glide_SP.sdf

> <s_m_Source_Path>
/Users/zhangxujun/Desktop

> <s_m_entry_id>
2000

> <s_m_entry_name>
wee1_decoys_glide_SP.1725

> <s_m_subgroup_title>
wee1_decoys_glide_SP

> <s_m_subgroupid>
wee1_decoys_glide_SP


$$$$
