ZINC36369743_4640
                    3D
 Schrodinger Suite 2024-2.
 80 83  0  0  1  0            999 V2000
    3.5203   51.9677   31.8015 C   0  0  0  0  0  0
    2.9448   52.1569   30.4087 C   0  0  0  0  0  0
    3.5037   51.6384   29.4509 O   0  0  0  0  0  0
    1.6265   52.9498   30.2731 C   0  0  2  0  0  0
    1.2847   53.1200   31.2955 H   0  0  0  0  0  0
    0.5695   52.0957   29.5287 C   0  0  0  0  0  0
    0.2209   52.8410   28.2375 C   0  0  0  0  0  0
    1.2597   53.9670   28.0484 C   0  0  1  0  0  0
    0.7330   54.8486   27.6816 H   0  0  0  0  0  0
    1.7320   54.3121   29.4998 C   0  0  2  0  0  0
    3.1137   55.0255   29.5327 C   0  0  0  0  0  0
    4.1221   54.6448   28.4762 C   0  0  0  0  0  0
    3.5703   54.6204   27.0421 C   0  0  2  0  0  0
    3.1457   55.5988   26.8089 H   0  0  0  0  0  0
    2.3880   53.6121   27.0081 C   0  0  2  0  0  0
    2.7767   52.6203   27.2347 H   0  0  0  0  0  0
    1.8282   53.5695   25.5733 C   0  0  0  0  0  0
    2.8621   53.1473   24.5377 C   0  0  0  0  0  0
    4.1871   53.9204   24.6182 C   0  0  0  0  0  0
    4.8725   54.2086   23.4815 C   0  0  0  0  0  0
    6.1403   54.8968   23.3936 C   0  0  0  0  0  0
    6.7588   55.2852   22.3481 N   0  0  0  0  0  0
    6.0744   55.0184   21.1399 O   0  0  0  0  0  0
    6.3095   56.0726   20.1863 C   0  0  0  0  0  0
    7.7477   56.1000   19.6199 C   0  0  0  0  0  0
    8.5928   55.2968   20.0029 O   0  0  0  0  0  0
    8.0279   57.0397   18.6901 N   0  0  0  0  0  0
    9.3188   57.1017   17.9819 C   0  0  0  0  0  0
    9.5769   58.3335   17.0338 C   0  0  0  0  0  0
   10.5812   57.8138   15.9589 C   0  0  0  0  0  0
    8.2799   58.7577   16.2955 C   0  0  0  0  0  0
   10.1752   59.5440   17.8689 C   0  0  1  0  0  0
   11.0495   59.1682   18.4004 H   0  0  0  0  0  0
   10.7189   60.7954   17.0946 C   0  0  0  0  0  0
   10.7036   61.9058   17.6818 O   0  0  0  0  0  0
   11.2139   60.6501   15.9535 O   0  5  0  0  0  0
    9.2661   59.9661   18.8817 O   0  0  0  0  0  0
    6.7583   55.3281   24.7244 C   0  0  0  0  0  0
    5.6943   55.5050   25.8388 C   0  0  0  0  0  0
    4.7398   54.2940   26.0265 C   0  0  1  0  0  0
    5.6601   53.1721   26.5596 C   0  0  0  0  0  0
    0.7294   55.2893   30.1751 C   0  0  0  0  0  0
    3.9493   52.8962   32.1691 H   0  0  0  0  0  0
    2.7425   51.6233   32.4806 H   0  0  0  0  0  0
    4.3257   51.2374   31.7814 H   0  0  0  0  0  0
   -0.3223   51.9775   30.1478 H   0  0  0  0  0  0
    0.8988   51.0814   29.2838 H   0  0  0  0  0  0
   -0.7696   53.2821   28.3413 H   0  0  0  0  0  0
    0.1411   52.1620   27.3887 H   0  0  0  0  0  0
    3.5895   54.8963   30.4823 H   0  0  0  0  0  0
    2.9680   56.0973   29.3809 H   0  0  0  0  0  0
    4.5456   53.6862   28.7445 H   0  0  0  0  0  0
    4.9871   55.2970   28.5547 H   0  0  0  0  0  0
    1.3759   54.4968   25.2707 H   0  0  0  0  0  0
    0.9939   52.8729   25.5201 H   0  0  0  0  0  0
    2.4257   53.2152   23.5394 H   0  0  0  0  0  0
    3.0144   52.0969   24.7024 H   0  0  0  0  0  0
    4.4262   53.8761   22.5551 H   0  0  0  0  0  0
    6.0531   57.0408   20.6190 H   0  0  0  0  0  0
    5.6239   55.9057   19.3570 H   0  0  0  0  0  0
    7.3047   57.6678   18.3710 H   0  0  0  0  0  0
    9.3452   56.1761   17.4020 H   0  0  0  0  0  0
   10.1466   56.9986   18.6896 H   0  0  0  0  0  0
   10.2807   56.8540   15.5382 H   0  0  0  0  0  0
   10.6664   58.4764   15.0987 H   0  0  0  0  0  0
   11.5802   57.6833   16.3759 H   0  0  0  0  0  0
    7.8293   57.9204   15.7604 H   0  0  0  0  0  0
    7.5273   59.1548   16.9795 H   0  0  0  0  0  0
    8.4796   59.5379   15.5595 H   0  0  0  0  0  0
    9.1057   59.2289   19.4809 H   0  0  0  0  0  0
    7.5190   54.6051   25.0090 H   0  0  0  0  0  0
    7.2877   56.2728   24.5988 H   0  0  0  0  0  0
    6.2277   55.6967   26.7692 H   0  0  0  0  0  0
    5.1050   56.4004   25.6555 H   0  0  0  0  0  0
    6.2508   53.4823   27.4206 H   0  0  0  0  0  0
    5.1041   52.2947   26.8821 H   0  0  0  0  0  0
    6.4110   52.8972   25.8286 H   0  0  0  0  0  0
   -0.2839   54.8937   30.1962 H   0  0  0  0  0  0
    1.0087   55.4969   31.2103 H   0  0  0  0  0  0
    0.7044   56.2528   29.6626 H   0  0  0  0  0  0
  1  2  1  0  0  0
  1 43  1  0  0  0
  1 44  1  0  0  0
  1 45  1  0  0  0
  2  3  2  0  0  0
  2  4  1  0  0  0
  4  5  1  0  0  0
  4 10  1  0  0  0
  4  6  1  0  0  0
  6  7  1  0  0  0
  6 46  1  0  0  0
  6 47  1  0  0  0
  7  8  1  0  0  0
  7 48  1  0  0  0
  7 49  1  0  0  0
  8  9  1  0  0  0
  8 15  1  0  0  0
  8 10  1  0  0  0
 10 11  1  0  0  0
 10 42  1  0  0  0
 11 12  1  0  0  0
 11 50  1  0  0  0
 11 51  1  0  0  0
 12 13  1  0  0  0
 12 52  1  0  0  0
 12 53  1  0  0  0
 13 14  1  0  0  0
 13 40  1  0  0  0
 13 15  1  0  0  0
 15 16  1  0  0  0
 15 17  1  0  0  0
 17 18  1  0  0  0
 17 54  1  0  0  0
 17 55  1  0  0  0
 18 19  1  0  0  0
 18 56  1  0  0  0
 18 57  1  0  0  0
 19 40  1  0  0  0
 19 20  2  0  0  0
 20 21  1  0  0  0
 20 58  1  0  0  0
 21 22  2  0  0  0
 21 38  1  0  0  0
 22 23  1  0  0  0
 23 24  1  0  0  0
 24 25  1  0  0  0
 24 59  1  0  0  0
 24 60  1  0  0  0
 25 26  2  0  0  0
 25 27  1  0  0  0
 27 28  1  0  0  0
 27 61  1  0  0  0
 28 29  1  0  0  0
 28 62  1  0  0  0
 28 63  1  0  0  0
 29 30  1  0  0  0
 29 31  1  0  0  0
 29 32  1  0  0  0
 30 64  1  0  0  0
 30 65  1  0  0  0
 30 66  1  0  0  0
 31 67  1  0  0  0
 31 68  1  0  0  0
 31 69  1  0  0  0
 32 33  1  0  0  0
 32 34  1  0  0  0
 32 37  1  0  0  0
 34 35  2  0  0  0
 34 36  1  0  0  0
 37 70  1  0  0  0
 38 39  1  0  0  0
 38 71  1  0  0  0
 38 72  1  0  0  0
 39 40  1  0  0  0
 39 73  1  0  0  0
 39 74  1  0  0  0
 40 41  1  0  0  0
 41 75  1  0  0  0
 41 76  1  0  0  0
 41 77  1  0  0  0
 42 78  1  0  0  0
 42 79  1  0  0  0
 42 80  1  0  0  0
M  CHG  1  36  -1
M  END
> <i_i_glide_confnum>
20

> <i_i_glide_lignum>
4641

> <i_i_glide_posenum>
207

> <i_i_glide_rotatable_bonds>
10

> <i_m_Source_File_Index>
3301

> <b_m_subgroup_collapsed>
0

> <r_i_docking_score>
-5.67549

> <r_i_glide_ecoul>
-5.00694

> <r_i_glide_eff_state_penalty>
0

> <r_i_glide_einternal>
12.547

> <r_i_glide_emodel>
-37.1964

> <r_i_glide_energy>
-35.4802

> <r_i_glide_erotb>
0.540203

> <r_i_glide_esite>
-0.0285139

> <r_i_glide_evdw>
-30.4733

> <r_i_glide_gscore>
-5.67549

> <r_i_glide_hbond>
-0.221528

> <r_i_glide_ligand_efficiency>
-0.153392

> <r_i_glide_ligand_efficiency_ln>
-1.23088

> <r_i_glide_ligand_efficiency_sa>
-0.511135

> <r_i_glide_lipo>
-3.39993

> <r_i_glide_metal>
0

> <r_i_glide_rewards>
-0.291016

> <s_i_glide_gridfile>
wee1_glide-grid

> <s_m_Source_File>
wee1_decoys_glide_SP.sdf

> <s_m_Source_Path>
/Users/zhangxujun/Desktop

> <s_m_entry_id>
3576

> <s_m_entry_name>
wee1_decoys_glide_SP.3301

> <s_m_subgroup_title>
wee1_decoys_glide_SP

> <s_m_subgroupid>
wee1_decoys_glide_SP


$$$$
