ZINC38556372_699
                    3D
 Schrodinger Suite 2024-2.
 45 48  0  0  1  0            999 V2000
    3.5000   53.2811   22.4801 C   0  0  0  0  0  0
    4.5788   54.0825   22.1173 C   0  0  0  0  0  0
    5.0117   54.0971   20.7943 C   0  0  0  0  0  0
    4.3781   53.3102   19.8349 C   0  0  0  0  0  0
    3.2972   52.5110   20.2003 C   0  0  0  0  0  0
    2.8457   52.4944   21.5257 C   0  0  0  0  0  0
    1.7209   51.6249   21.9296 C   0  0  0  0  0  0
    1.6120   50.9353   23.0678 C   0  0  0  0  0  0
    0.2592   50.2987   22.9703 C   0  0  2  0  0  0
    0.3580   49.2168   22.8683 H   0  0  0  0  0  0
   -0.2571   50.8101   21.7261 N   0  0  0  0  0  0
    0.6076   51.5578   21.1653 N   0  0  0  0  0  0
   -0.6865   50.5954   24.1679 C   0  0  2  0  0  0
   -1.6745   50.1891   23.9429 H   0  0  0  0  0  0
   -0.8676   52.0011   24.4273 N   0  0  0  0  0  0
   -0.7400   52.2335   25.6647 N   0  0  0  0  0  0
   -0.4327   51.0342   26.3992 C   0  0  1  0  0  0
   -1.2925   50.7876   27.0259 H   0  0  0  0  0  0
   -0.2042   50.0128   25.3994 N   0  0  0  0  0  0
   -0.5165   48.6327   25.6818 N   0  0  0  0  0  0
    0.9895   51.2968   27.5042 S   0  0  0  0  0  0
    0.5847   52.8347   28.3888 C   0  0  0  0  0  0
    1.8598   53.3235   29.0927 C   0  0  0  0  0  0
    1.8977   53.2695   30.3232 O   0  0  0  0  0  0
    3.0204   53.8003   28.2625 C   0  0  0  0  0  0
    4.2608   54.0184   28.8810 C   0  0  0  0  0  0
    5.3557   54.4544   28.1390 C   0  0  0  0  0  0
    5.2176   54.6851   26.7734 C   0  0  0  0  0  0
    3.9896   54.4947   26.1489 C   0  0  0  0  0  0
    2.8954   54.0506   26.8865 C   0  0  0  0  0  0
    6.7046   55.2982   25.7564 Br  0  0  0  0  0  0
    6.3429   55.0997   20.3454 Cl  0  0  0  0  0  0
    3.1646   53.2698   23.5062 H   0  0  0  0  0  0
    5.0790   54.6887   22.8577 H   0  0  0  0  0  0
    4.7222   53.3121   18.8105 H   0  0  0  0  0  0
    2.8200   51.8963   19.4499 H   0  0  0  0  0  0
    2.3002   50.8227   23.8912 H   0  0  0  0  0  0
    0.2773   48.2210   26.1611 H   0  0  0  0  0  0
   -1.2958   48.6113   26.3348 H   0  0  0  0  0  0
    0.2247   53.5963   27.6983 H   0  0  0  0  0  0
   -0.2081   52.6469   29.1133 H   0  0  0  0  0  0
    4.3907   53.8458   29.9399 H   0  0  0  0  0  0
    6.3063   54.6172   28.6252 H   0  0  0  0  0  0
    3.8854   54.7006   25.0950 H   0  0  0  0  0  0
    1.9592   53.9085   26.3653 H   0  0  0  0  0  0
  1  6  2  0  0  0
  1  2  1  0  0  0
  1 33  1  0  0  0
  2  3  2  0  0  0
  2 34  1  0  0  0
  3  4  1  0  0  0
  3 32  1  0  0  0
  4  5  2  0  0  0
  4 35  1  0  0  0
  5  6  1  0  0  0
  5 36  1  0  0  0
  6  7  1  0  0  0
  7 12  1  0  0  0
  7  8  2  0  0  0
  8  9  1  0  0  0
  8 37  1  0  0  0
  9 10  1  0  0  0
  9 11  1  0  0  0
  9 13  1  0  0  0
 11 12  2  0  0  0
 13 14  1  0  0  0
 13 19  1  0  0  0
 13 15  1  0  0  0
 15 16  2  0  0  0
 16 17  1  0  0  0
 17 18  1  0  0  0
 17 19  1  0  0  0
 17 21  1  0  0  0
 19 20  1  0  0  0
 20 38  1  0  0  0
 20 39  1  0  0  0
 21 22  1  0  0  0
 22 23  1  0  0  0
 22 40  1  0  0  0
 22 41  1  0  0  0
 23 24  2  0  0  0
 23 25  1  0  0  0
 25 30  2  0  0  0
 25 26  1  0  0  0
 26 27  2  0  0  0
 26 42  1  0  0  0
 27 28  1  0  0  0
 27 43  1  0  0  0
 28 29  2  0  0  0
 28 31  1  0  0  0
 29 30  1  0  0  0
 29 44  1  0  0  0
 30 45  1  0  0  0
M  END
> <i_i_glide_confnum>
135

> <i_i_glide_lignum>
700

> <i_i_glide_posenum>
362

> <i_i_glide_rotatable_bonds>
6

> <i_m_Source_File_Index>
929

> <b_m_subgroup_collapsed>
0

> <r_i_docking_score>
-6.40066

> <r_i_glide_ecoul>
-7.81843

> <r_i_glide_eff_state_penalty>
0

> <r_i_glide_einternal>
6.49648

> <r_i_glide_emodel>
-66.6448

> <r_i_glide_energy>
-50.0243

> <r_i_glide_erotb>
0.420905

> <r_i_glide_esite>
-0.199073

> <r_i_glide_evdw>
-42.2058

> <r_i_glide_gscore>
-6.40066

> <r_i_glide_hbond>
-0.420197

> <r_i_glide_ligand_efficiency>
-0.220712

> <r_i_glide_ligand_efficiency_ln>
-1.46559

> <r_i_glide_ligand_efficiency_sa>
-0.678098

> <r_i_glide_lipo>
-2.55314

> <r_i_glide_metal>
0

> <r_i_glide_rewards>
-0.366095

> <s_i_glide_gridfile>
wee1_glide-grid

> <s_m_Source_File>
wee1_decoys_glide_SP.sdf

> <s_m_Source_Path>
/Users/zhangxujun/Desktop

> <s_m_entry_id>
1204

> <s_m_entry_name>
wee1_decoys_glide_SP.929

> <s_m_subgroup_title>
wee1_decoys_glide_SP

> <s_m_subgroupid>
wee1_decoys_glide_SP


$$$$
