ZINC33170514_691
                    3D
 Schrodinger Suite 2024-2.
 42 45  0  0  1  0            999 V2000
    6.3509   54.8123   23.9873 C   0  0  0  0  0  0
    5.1363   54.4971   24.5862 C   0  0  0  0  0  0
    4.0233   54.1184   23.8109 C   0  0  0  0  0  0
    4.1633   54.0966   22.4103 C   0  0  0  0  0  0
    5.3799   54.4288   21.8003 C   0  0  0  0  0  0
    6.4746   54.7659   22.6040 C   0  0  0  0  0  0
    5.5052   54.2979   20.4075 N   0  0  0  0  0  0
    6.5552   55.3018   19.3648 S   0  0  0  0  0  0
    7.3167   56.2469   20.1920 O   0  0  0  0  0  0
    7.2376   54.3685   18.4615 O   0  0  0  0  0  0
    5.4853   56.2834   18.3267 C   0  0  0  0  0  0
    4.2808   55.7499   17.8660 C   0  0  0  0  0  0
    3.4735   56.5015   17.0186 C   0  0  0  0  0  0
    3.8778   57.7781   16.6271 C   0  0  0  0  0  0
    5.0943   58.3012   17.0638 C   0  0  0  0  0  0
    5.9031   57.5519   17.9127 C   0  0  0  0  0  0
    2.7531   58.8166   15.4994 Br  0  0  0  0  0  0
    2.7040   53.7446   24.4596 C   0  0  0  0  0  0
    1.6514   53.7592   23.8184 O   0  0  0  0  0  0
    2.8079   53.3939   25.7577 N   0  0  0  0  0  0
    1.8704   52.8971   26.6751 C   0  0  0  0  0  0
    0.5633   52.4955   26.3522 C   0  0  0  0  0  0
   -0.3016   51.9759   27.3199 C   0  0  0  0  0  0
    0.0908   51.8288   28.6503 C   0  0  0  0  0  0
    1.3955   52.2102   28.9859 C   0  0  0  0  0  0
    2.2750   52.7341   28.0165 C   0  0  0  0  0  0
    3.5137   53.0381   28.4813 N   0  0  0  0  0  0
    3.4933   52.6060   30.0875 S   0  0  0  0  0  0
    1.9085   52.0986   30.2316 N   0  0  0  0  0  0
    7.2033   55.0775   24.5918 H   0  0  0  0  0  0
    5.0855   54.5536   25.6638 H   0  0  0  0  0  0
    3.3245   53.8117   21.7898 H   0  0  0  0  0  0
    7.4474   54.9627   22.1804 H   0  0  0  0  0  0
    4.9827   53.5612   19.9526 H   0  0  0  0  0  0
    3.9646   54.7604   18.1604 H   0  0  0  0  0  0
    2.5328   56.1030   16.6721 H   0  0  0  0  0  0
    5.3929   59.2960   16.7586 H   0  0  0  0  0  0
    6.8457   57.9604   18.2462 H   0  0  0  0  0  0
    3.7310   53.4532   26.1539 H   0  0  0  0  0  0
    0.1990   52.5656   25.3406 H   0  0  0  0  0  0
   -1.2953   51.6700   27.0283 H   0  0  0  0  0  0
   -0.5837   51.4128   29.3860 H   0  0  0  0  0  0
  1  6  2  0  0  0
  1  2  1  0  0  0
  1 30  1  0  0  0
  2  3  2  0  0  0
  2 31  1  0  0  0
  3  4  1  0  0  0
  3 18  1  0  0  0
  4  5  2  0  0  0
  4 32  1  0  0  0
  5  6  1  0  0  0
  5  7  1  0  0  0
  6 33  1  0  0  0
  7  8  1  0  0  0
  7 34  1  0  0  0
  8  9  2  0  0  0
  8 10  2  0  0  0
  8 11  1  0  0  0
 11 16  2  0  0  0
 11 12  1  0  0  0
 12 13  2  0  0  0
 12 35  1  0  0  0
 13 14  1  0  0  0
 13 36  1  0  0  0
 14 15  2  0  0  0
 14 17  1  0  0  0
 15 16  1  0  0  0
 15 37  1  0  0  0
 16 38  1  0  0  0
 18 19  2  0  0  0
 18 20  1  0  0  0
 20 21  1  0  0  0
 20 39  1  0  0  0
 21 26  1  0  0  0
 21 22  2  0  0  0
 22 23  1  0  0  0
 22 40  1  0  0  0
 23 24  2  0  0  0
 23 41  1  0  0  0
 24 25  1  0  0  0
 24 42  1  0  0  0
 25 29  2  0  0  0
 25 26  1  0  0  0
 26 27  2  0  0  0
 27 28  1  0  0  0
 28 29  1  0  0  0
M  END
> <i_i_glide_confnum>
64

> <i_i_glide_lignum>
692

> <i_i_glide_posenum>
336

> <i_i_glide_rotatable_bonds>
6

> <i_m_Source_File_Index>
3256

> <b_m_subgroup_collapsed>
0

> <r_i_docking_score>
-4.96421

> <r_i_glide_ecoul>
-3.0132

> <r_i_glide_eff_state_penalty>
0

> <r_i_glide_einternal>
7.57553

> <r_i_glide_emodel>
-58.8684

> <r_i_glide_energy>
-48.7641

> <r_i_glide_erotb>
0.509678

> <r_i_glide_esite>
0

> <r_i_glide_evdw>
-45.751

> <r_i_glide_gscore>
-4.96421

> <r_i_glide_hbond>
-0.152133

> <r_i_glide_ligand_efficiency>
-0.17118

> <r_i_glide_ligand_efficiency_ln>
-1.13668

> <r_i_glide_ligand_efficiency_sa>
-0.525918

> <r_i_glide_lipo>
-2.53166

> <r_i_glide_metal>
0

> <r_i_glide_rewards>
-0.050567

> <s_i_glide_gridfile>
wee1_glide-grid

> <s_m_Source_File>
wee1_decoys_glide_SP.sdf

> <s_m_Source_Path>
/Users/zhangxujun/Desktop

> <s_m_entry_id>
3531

> <s_m_entry_name>
wee1_decoys_glide_SP.3256

> <s_m_subgroup_title>
wee1_decoys_glide_SP

> <s_m_subgroupid>
wee1_decoys_glide_SP


$$$$
