ZINC20731083_4329
                    3D
 Schrodinger Suite 2024-2.
 49 53  0  0  1  0            999 V2000
    4.7729   54.3056   18.9000 C   0  0  0  0  0  0
    3.9838   53.6683   19.8621 C   0  0  0  0  0  0
    4.3566   53.7749   21.2129 C   0  0  0  0  0  0
    5.5062   54.5100   21.5385 C   0  0  0  0  0  0
    6.3040   55.1516   20.5878 C   0  0  0  0  0  0
    5.9118   55.0305   19.2552 C   0  0  0  0  0  0
    6.6470   55.6277   18.2920 F   0  0  0  0  0  0
    5.7003   54.4966   22.8846 O   0  0  0  0  0  0
    4.6536   53.7633   23.4540 N   0  0  0  0  0  0
    3.8787   53.3214   22.4829 C   0  0  0  0  0  0
    2.6604   52.4719   22.8128 C   0  0  1  0  0  0
    1.3387   53.2579   22.7035 C   0  0  0  0  0  0
    0.1435   52.3870   23.1218 C   0  0  0  0  0  0
    0.1068   51.1286   22.2199 N   0  3  1  0  0  0
    1.3813   50.2781   22.4161 C   0  0  0  0  0  0
    2.5981   51.1380   22.0240 C   0  0  0  0  0  0
   -1.1964   50.2776   22.3754 C   0  0  1  0  0  0
   -0.9200   49.2889   22.0049 H   0  0  0  0  0  0
   -1.6435   50.1958   23.8479 C   0  0  0  0  0  0
   -1.2605   49.2411   24.7788 C   0  0  0  0  0  0
   -1.8502   49.4815   25.9942 N   0  0  0  0  0  0
   -1.6956   48.8977   26.8211 H   0  0  0  0  0  0
   -2.6431   50.5999   25.9121 C   0  0  0  0  0  0
   -2.5278   51.0862   24.5728 C   0  0  0  0  0  0
   -3.2300   52.2565   24.2342 C   0  0  0  0  0  0
   -4.0061   52.8926   25.1957 C   0  0  0  0  0  0
   -4.1177   52.3767   26.4817 C   0  0  0  0  0  0
   -3.4358   51.2264   26.8776 C   0  0  0  0  0  0
   -4.9124   54.4966   24.7353 Br  0  0  0  0  0  0
   -2.2815   50.8307   21.3916 C   0  0  0  0  0  0
   -3.3370   50.1684   21.2913 O   0  0  0  0  0  0
   -2.0733   51.8942   20.7559 O   0  5  0  0  0  0
    4.4971   54.2348   17.8583 H   0  0  0  0  0  0
    3.1031   53.1205   19.5641 H   0  0  0  0  0  0
    7.1884   55.7025   20.8668 H   0  0  0  0  0  0
    2.7039   52.1774   23.8643 H   0  0  0  0  0  0
    1.1743   53.5983   21.6817 H   0  0  0  0  0  0
    1.3533   54.1231   23.3686 H   0  0  0  0  0  0
   -0.7960   52.9033   22.9476 H   0  0  0  0  0  0
    0.2033   52.0629   24.1624 H   0  0  0  0  0  0
    1.4005   49.9334   23.4517 H   0  0  0  0  0  0
    1.3054   49.4238   21.7411 H   0  0  0  0  0  0
    3.4864   50.5348   22.2076 H   0  0  0  0  0  0
    2.5291   51.3313   20.9529 H   0  0  0  0  0  0
   -0.6024   48.3894   24.6753 H   0  0  0  0  0  0
   -3.1775   52.6719   23.2409 H   0  0  0  0  0  0
   -4.7465   52.8871   27.1939 H   0  0  0  0  0  0
   -3.5168   50.8377   27.8837 H   0  0  0  0  0  0
    0.0803   51.4375   21.2547 H   0  0  0  0  0  0
  1  6  2  0  0  0
  1  2  1  0  0  0
  1 33  1  0  0  0
  2  3  2  0  0  0
  2 34  1  0  0  0
  3 10  1  0  0  0
  3  4  1  0  0  0
  4  5  2  0  0  0
  4  8  1  0  0  0
  5  6  1  0  0  0
  5 35  1  0  0  0
  6  7  1  0  0  0
  8  9  1  0  0  0
  9 10  2  0  0  0
 10 11  1  0  0  0
 11 16  1  0  0  0
 11 12  1  0  0  0
 11 36  1  0  0  0
 12 13  1  0  0  0
 12 37  1  0  0  0
 12 38  1  0  0  0
 13 14  1  0  0  0
 13 39  1  0  0  0
 13 40  1  0  0  0
 14 15  1  0  0  0
 14 17  1  0  0  0
 14 49  1  0  0  0
 15 16  1  0  0  0
 15 41  1  0  0  0
 15 42  1  0  0  0
 16 43  1  0  0  0
 16 44  1  0  0  0
 17 18  1  0  0  0
 17 19  1  0  0  0
 17 30  1  0  0  0
 19 24  1  0  0  0
 19 20  2  0  0  0
 20 21  1  0  0  0
 20 45  1  0  0  0
 21 22  1  0  0  0
 21 23  1  0  0  0
 23 28  2  0  0  0
 23 24  1  0  0  0
 24 25  2  0  0  0
 25 26  1  0  0  0
 25 46  1  0  0  0
 26 27  2  0  0  0
 26 29  1  0  0  0
 27 28  1  0  0  0
 27 47  1  0  0  0
 28 48  1  0  0  0
 30 31  2  0  0  0
 30 32  1  0  0  0
M  CHG  2  14   1  32  -1
M  END
> <i_i_glide_confnum>
3

> <i_i_glide_lignum>
4330

> <i_i_glide_posenum>
160

> <i_i_glide_rotatable_bonds>
4

> <i_m_Source_File_Index>
4209

> <b_m_subgroup_collapsed>
0

> <r_i_docking_score>
-4.12712

> <r_i_glide_ecoul>
-8.18968

> <r_i_glide_eff_state_penalty>
0

> <r_i_glide_einternal>
10.7198

> <r_i_glide_emodel>
-41.4739

> <r_i_glide_energy>
-35.2522

> <r_i_glide_erotb>
0.271915

> <r_i_glide_esite>
-0.101062

> <r_i_glide_evdw>
-27.0626

> <r_i_glide_gscore>
-4.12712

> <r_i_glide_hbond>
-0.226069

> <r_i_glide_ligand_efficiency>
-0.137571

> <r_i_glide_ligand_efficiency_ln>
-0.937726

> <r_i_glide_ligand_efficiency_sa>
-0.427464

> <r_i_glide_lipo>
-1.2725

> <r_i_glide_metal>
0

> <r_i_glide_rewards>
-0.217822

> <s_i_glide_gridfile>
wee1_glide-grid

> <s_m_Source_File>
wee1_decoys_glide_SP.sdf

> <s_m_Source_Path>
/Users/zhangxujun/Desktop

> <s_m_entry_id>
4484

> <s_m_entry_name>
wee1_decoys_glide_SP.4209

> <s_m_subgroup_title>
wee1_decoys_glide_SP

> <s_m_subgroupid>
wee1_decoys_glide_SP


$$$$
