ZINC13131382_4710
                    3D
 Schrodinger Suite 2024-2.
 39 42  0  0  1  0            999 V2000
    2.4116   52.0967   31.4117 C   0  0  0  0  0  0
    1.1581   52.5132   30.9743 C   0  0  0  0  0  0
    0.9969   52.9327   29.6573 C   0  0  0  0  0  0
    2.0784   52.9175   28.7660 C   0  0  0  0  0  0
    3.3373   52.5048   29.2274 C   0  0  0  0  0  0
    3.5040   52.1015   30.5491 C   0  0  0  0  0  0
    1.8193   53.2915   27.2924 C   0  0  1  0  0  0
    1.1901   54.1825   27.2842 H   0  0  0  0  0  0
    3.0624   53.6723   26.4417 C   0  0  0  0  0  0
    2.8007   53.8902   24.9167 C   0  0  2  0  0  0
    2.2507   54.8229   24.7954 H   0  0  0  0  0  0
    1.9255   52.8458   24.3541 N   0  0  0  0  0  0
    1.1042   52.0980   25.1703 C   0  0  0  0  0  0
    1.1036   52.2629   26.5337 N   0  0  0  0  0  0
    0.2565   51.3629   27.0537 N   0  0  0  0  0  0
   -0.1795   50.7290   25.9888 C   0  0  0  0  0  0
    0.2847   51.1418   24.8211 N   0  0  0  0  0  0
   -1.0604   49.6969   26.0817 N   0  0  0  0  0  0
    4.0721   54.1470   24.0766 C   0  0  0  0  0  0
    5.2941   54.4973   24.6757 C   0  0  0  0  0  0
    6.4031   54.8154   23.8954 C   0  0  0  0  0  0
    6.3052   54.7912   22.5084 C   0  0  0  0  0  0
    5.1137   54.4148   21.8953 C   0  0  0  0  0  0
    4.0033   54.0971   22.6746 C   0  0  0  0  0  0
    7.3632   55.1614   21.7522 F   0  0  0  0  0  0
    2.5341   51.7698   32.4349 H   0  0  0  0  0  0
    0.3132   52.4969   31.6508 H   0  0  0  0  0  0
    0.0157   53.2316   29.3177 H   0  0  0  0  0  0
    4.1966   52.4705   28.5761 H   0  0  0  0  0  0
    4.4747   51.7806   30.8988 H   0  0  0  0  0  0
    3.5143   54.5615   26.8830 H   0  0  0  0  0  0
    3.8187   52.8964   26.5292 H   0  0  0  0  0  0
    1.7493   52.9091   23.3631 H   0  0  0  0  0  0
   -1.2845   49.2609   26.9871 H   0  0  0  0  0  0
   -1.3432   49.1862   25.2609 H   0  0  0  0  0  0
    5.4041   54.5513   25.7472 H   0  0  0  0  0  0
    7.3352   55.1017   24.3592 H   0  0  0  0  0  0
    5.0429   54.3981   20.8174 H   0  0  0  0  0  0
    3.0800   53.8505   22.1712 H   0  0  0  0  0  0
  1  6  2  0  0  0
  1  2  1  0  0  0
  1 26  1  0  0  0
  2  3  2  0  0  0
  2 27  1  0  0  0
  3  4  1  0  0  0
  3 28  1  0  0  0
  4  5  2  0  0  0
  4  7  1  0  0  0
  5  6  1  0  0  0
  5 29  1  0  0  0
  6 30  1  0  0  0
  7  8  1  0  0  0
  7 14  1  0  0  0
  7  9  1  0  0  0
  9 10  1  0  0  0
  9 31  1  0  0  0
  9 32  1  0  0  0
 10 11  1  0  0  0
 10 12  1  0  0  0
 10 19  1  0  0  0
 12 13  1  0  0  0
 12 33  1  0  0  0
 13 17  2  0  0  0
 13 14  1  0  0  0
 14 15  1  0  0  0
 15 16  2  0  0  0
 16 17  1  0  0  0
 16 18  1  0  0  0
 18 34  1  0  0  0
 18 35  1  0  0  0
 19 24  2  0  0  0
 19 20  1  0  0  0
 20 21  2  0  0  0
 20 36  1  0  0  0
 21 22  1  0  0  0
 21 37  1  0  0  0
 22 23  2  0  0  0
 22 25  1  0  0  0
 23 24  1  0  0  0
 23 38  1  0  0  0
 24 39  1  0  0  0
M  END
> <i_i_glide_confnum>
4

> <i_i_glide_lignum>
4711

> <i_i_glide_posenum>
375

> <i_i_glide_rotatable_bonds>
2

> <i_m_Source_File_Index>
5597

> <b_m_subgroup_collapsed>
0

> <r_i_docking_score>
-6.72676

> <r_i_glide_ecoul>
-5.2704

> <r_i_glide_eff_state_penalty>
0

> <r_i_glide_einternal>
10.6024

> <r_i_glide_emodel>
-48.3505

> <r_i_glide_energy>
-39.1475

> <r_i_glide_erotb>
0.386967

> <r_i_glide_esite>
-0.138359

> <r_i_glide_evdw>
-33.8771

> <r_i_glide_gscore>
-6.72676

> <r_i_glide_hbond>
-0.16

> <r_i_glide_ligand_efficiency>
-0.292468

> <r_i_glide_ligand_efficiency_ln>
-1.62659

> <r_i_glide_ligand_efficiency_sa>
-0.831739

> <r_i_glide_lipo>
-2.74539

> <r_i_glide_metal>
0

> <r_i_glide_rewards>
-1.58556

> <s_i_glide_gridfile>
wee1_glide-grid

> <s_m_Source_File>
wee1_decoys_glide_SP.sdf

> <s_m_Source_Path>
/Users/zhangxujun/Desktop

> <s_m_entry_id>
5872

> <s_m_entry_name>
wee1_decoys_glide_SP.5597

> <s_m_subgroup_title>
wee1_decoys_glide_SP

> <s_m_subgroupid>
wee1_decoys_glide_SP


$$$$
