ZINC39197465_6014
                    3D
 Schrodinger Suite 2024-2.
 78 82  0  0  1  0            999 V2000
    6.9614   55.1310   25.8649 C   0  0  0  0  0  0
    6.2500   53.8336   26.2620 C   0  0  0  0  0  0
    4.9868   54.0932   27.0827 C   0  0  0  0  0  0
    5.1758   54.2403   28.4606 C   0  0  0  0  0  0
    4.1037   54.4961   29.3059 C   0  0  0  0  0  0
    2.8253   54.6394   28.7820 C   0  0  0  0  0  0
    2.6211   54.4954   27.4128 C   0  0  0  0  0  0
    3.6765   54.1971   26.5376 C   0  0  0  0  0  0
    3.3865   54.0131   25.1458 N   0  0  0  0  0  0
    2.3114   53.3980   24.5072 C   0  0  0  0  0  0
    2.6407   53.4534   23.1553 C   0  0  0  0  0  0
    3.8733   54.1105   23.0465 C   0  0  0  0  0  0
    4.2552   54.4962   24.2412 N   0  0  0  0  0  0
    4.6947   54.2809   21.8668 C   0  0  0  0  0  0
    5.9051   54.4961   21.9573 O   0  0  0  0  0  0
    4.0444   54.1763   20.6974 N   0  0  0  0  0  0
    4.6618   54.2562   19.3620 C   0  0  2  0  0  0
    5.6380   53.7729   19.4177 H   0  0  0  0  0  0
    4.9127   55.7240   18.9542 C   0  0  0  0  0  0
    3.8938   53.4488   18.2929 C   0  0  0  0  0  0
    4.0544   53.7055   17.1001 O   0  0  0  0  0  0
    3.1027   52.4591   18.7367 N   0  0  0  0  0  0
    2.3504   51.5258   17.9048 C   0  0  2  0  0  0
    2.9847   51.2943   17.0420 H   0  0  0  0  0  0
    1.0451   52.1086   17.3004 C   0  0  0  0  0  0
    0.1900   51.0725   16.5346 C   0  0  0  0  0  0
   -0.0178   49.7855   17.3531 C   0  0  0  0  0  0
    1.3415   49.1627   17.7231 C   0  0  1  0  0  0
    1.9040   49.0066   16.7992 H   0  0  0  0  0  0
    2.1293   50.1603   18.6020 C   0  0  0  0  0  0
    1.1783   47.8032   18.4250 C   0  0  0  0  0  0
    1.0846   52.7861   25.1107 C   0  0  0  0  0  0
    1.0816   52.0920   26.3192 C   0  0  0  0  0  0
   -0.0995   51.5504   26.8205 C   0  0  0  0  0  0
   -1.3110   51.6901   26.1374 C   0  0  0  0  0  0
   -1.3173   52.3646   24.8944 C   0  0  0  0  0  0
   -0.1185   52.8965   24.4077 C   0  0  0  0  0  0
   -2.5929   52.4783   24.0576 C   0  0  0  0  0  0
   -3.8712   52.2990   24.8944 C   0  0  0  0  0  0
   -3.7602   51.0381   25.7651 C   0  0  0  0  0  0
   -2.6031   51.1709   26.7718 C   0  0  0  0  0  0
    7.8544   54.9042   25.2817 H   0  0  0  0  0  0
    6.3294   55.7760   25.2545 H   0  0  0  0  0  0
    7.2332   55.6951   26.7554 H   0  0  0  0  0  0
    6.9344   53.2056   26.8361 H   0  0  0  0  0  0
    6.0335   53.2651   25.3668 H   0  0  0  0  0  0
    6.1680   54.1635   28.8823 H   0  0  0  0  0  0
    4.2777   54.5962   30.3656 H   0  0  0  0  0  0
    1.9900   54.8570   29.4312 H   0  0  0  0  0  0
    1.6125   54.5918   27.0441 H   0  0  0  0  0  0
    2.0662   53.0261   22.3468 H   0  0  0  0  0  0
    3.0321   54.1716   20.6965 H   0  0  0  0  0  0
    5.4610   55.7854   18.0136 H   0  0  0  0  0  0
    3.9735   56.2615   18.8201 H   0  0  0  0  0  0
    5.5048   56.2513   19.7024 H   0  0  0  0  0  0
    3.0560   52.2986   19.7296 H   0  0  0  0  0  0
    0.4324   52.4995   18.1137 H   0  0  0  0  0  0
    1.2758   52.9499   16.6414 H   0  0  0  0  0  0
   -0.7741   51.5071   16.2687 H   0  0  0  0  0  0
    0.6814   50.8263   15.5911 H   0  0  0  0  0  0
   -0.6047   49.0708   16.7736 H   0  0  0  0  0  0
   -0.6114   49.9697   18.2494 H   0  0  0  0  0  0
    1.5894   50.3029   19.5403 H   0  0  0  0  0  0
    3.0915   49.7206   18.8810 H   0  0  0  0  0  0
    0.6235   47.8975   19.3585 H   0  0  0  0  0  0
    2.1499   47.3639   18.6549 H   0  0  0  0  0  0
    0.6441   47.0949   17.7895 H   0  0  0  0  0  0
    1.9923   51.9585   26.8816 H   0  0  0  0  0  0
   -0.0778   51.0269   27.7661 H   0  0  0  0  0  0
   -0.1265   53.4060   23.4569 H   0  0  0  0  0  0
   -2.6221   53.4333   23.5296 H   0  0  0  0  0  0
   -2.5607   51.7030   23.2901 H   0  0  0  0  0  0
   -4.7404   52.2288   24.2374 H   0  0  0  0  0  0
   -4.0325   53.1755   25.5238 H   0  0  0  0  0  0
   -3.5975   50.1638   25.1311 H   0  0  0  0  0  0
   -4.6957   50.8598   26.2969 H   0  0  0  0  0  0
   -2.4305   50.2150   27.2697 H   0  0  0  0  0  0
   -2.8988   51.8714   27.5550 H   0  0  0  0  0  0
  1  2  1  0  0  0
  1 42  1  0  0  0
  1 43  1  0  0  0
  1 44  1  0  0  0
  2  3  1  0  0  0
  2 45  1  0  0  0
  2 46  1  0  0  0
  3  8  2  0  0  0
  3  4  1  0  0  0
  4  5  2  0  0  0
  4 47  1  0  0  0
  5  6  1  0  0  0
  5 48  1  0  0  0
  6  7  2  0  0  0
  6 49  1  0  0  0
  7  8  1  0  0  0
  7 50  1  0  0  0
  8  9  1  0  0  0
  9 13  1  0  0  0
  9 10  1  0  0  0
 10 11  2  0  0  0
 10 32  1  0  0  0
 11 12  1  0  0  0
 11 51  1  0  0  0
 12 13  2  0  0  0
 12 14  1  0  0  0
 14 15  2  0  0  0
 14 16  1  0  0  0
 16 17  1  0  0  0
 16 52  1  0  0  0
 17 18  1  0  0  0
 17 19  1  0  0  0
 17 20  1  0  0  0
 19 53  1  0  0  0
 19 54  1  0  0  0
 19 55  1  0  0  0
 20 21  2  0  0  0
 20 22  1  0  0  0
 22 23  1  0  0  0
 22 56  1  0  0  0
 23 24  1  0  0  0
 23 30  1  0  0  0
 23 25  1  0  0  0
 25 26  1  0  0  0
 25 57  1  0  0  0
 25 58  1  0  0  0
 26 27  1  0  0  0
 26 59  1  0  0  0
 26 60  1  0  0  0
 27 28  1  0  0  0
 27 61  1  0  0  0
 27 62  1  0  0  0
 28 29  1  0  0  0
 28 30  1  0  0  0
 28 31  1  0  0  0
 30 63  1  0  0  0
 30 64  1  0  0  0
 31 65  1  0  0  0
 31 66  1  0  0  0
 31 67  1  0  0  0
 32 37  2  0  0  0
 32 33  1  0  0  0
 33 34  2  0  0  0
 33 68  1  0  0  0
 34 35  1  0  0  0
 34 69  1  0  0  0
 35 41  1  0  0  0
 35 36  2  0  0  0
 36 37  1  0  0  0
 36 38  1  0  0  0
 37 70  1  0  0  0
 38 39  1  0  0  0
 38 71  1  0  0  0
 38 72  1  0  0  0
 39 40  1  0  0  0
 39 73  1  0  0  0
 39 74  1  0  0  0
 40 41  1  0  0  0
 40 75  1  0  0  0
 40 76  1  0  0  0
 41 77  1  0  0  0
 41 78  1  0  0  0
M  END
> <i_i_glide_confnum>
307

> <i_i_glide_lignum>
6015

> <i_i_glide_posenum>
103

> <i_i_glide_rotatable_bonds>
9

> <i_m_Source_File_Index>
985

> <b_m_subgroup_collapsed>
0

> <r_i_docking_score>
-5.65471

> <r_i_glide_ecoul>
-1.69654

> <r_i_glide_eff_state_penalty>
0

> <r_i_glide_einternal>
5.29212

> <r_i_glide_emodel>
-59.7555

> <r_i_glide_energy>
-46.4854

> <r_i_glide_erotb>
0.623975

> <r_i_glide_esite>
-0.101675

> <r_i_glide_evdw>
-44.7888

> <r_i_glide_gscore>
-5.65471

> <r_i_glide_hbond>
-0.269413

> <r_i_glide_ligand_efficiency>
-0.148808

> <r_i_glide_ligand_efficiency_ln>
-1.21932

> <r_i_glide_ligand_efficiency_sa>
-0.500289

> <r_i_glide_lipo>
-2.87161

> <r_i_glide_metal>
0

> <r_i_glide_rewards>
-0.542064

> <s_i_glide_gridfile>
wee1_glide-grid

> <s_m_Source_File>
wee1_decoys_glide_SP.sdf

> <s_m_Source_Path>
/Users/zhangxujun/Desktop

> <s_m_entry_id>
1260

> <s_m_entry_name>
wee1_decoys_glide_SP.985

> <s_m_subgroup_title>
wee1_decoys_glide_SP

> <s_m_subgroupid>
wee1_decoys_glide_SP


$$$$
