ZINC43414323_1595
                    3D
 Schrodinger Suite 2024-2.
 48 49  0  0  1  0            999 V2000
   -0.2870   52.7690   28.2089 C   0  0  0  0  0  0
    0.5596   53.5655   29.2190 C   0  0  0  0  0  0
    1.5827   54.4493   28.4683 C   0  0  0  0  0  0
    2.5800   53.6124   27.5859 C   0  0  0  0  0  0
    1.6272   52.9369   26.5318 C   0  0  0  0  0  0
    0.5512   52.0140   27.1575 C   0  0  0  0  0  0
    3.4109   52.4983   28.3436 C   0  0  0  0  0  0
    3.7640   52.7232   29.8267 C   0  0  0  0  0  0
    3.9045   53.8925   30.2451 O   0  0  0  0  0  0
    3.9015   51.6984   30.5307 O   0  5  0  0  0  0
    3.5446   54.6431   26.8849 C   0  0  0  0  0  0
    3.8725   54.3493   25.4824 N   0  0  0  0  0  0
    5.0563   54.4968   24.8523 C   0  0  0  0  0  0
    6.0279   55.0166   25.4075 O   0  0  0  0  0  0
    5.0767   54.0926   23.5461 N   0  0  0  0  0  0
    3.9773   53.3645   22.8676 C   0  0  0  0  0  0
    3.5344   54.2199   21.6680 C   0  0  0  0  0  0
    4.6988   54.4969   20.6844 C   0  0  0  0  0  0
    5.9880   54.9574   21.4251 C   0  0  0  0  0  0
    6.3105   54.1896   22.7412 C   0  0  0  0  0  0
    5.0230   53.1526   20.0061 N   0  3  0  0  0  0
   -0.9023   53.4863   27.6813 H   0  0  0  0  0  0
   -0.9603   52.0833   28.7256 H   0  0  0  0  0  0
   -0.0926   54.1887   29.8317 H   0  0  0  0  0  0
    1.0494   52.8814   29.9110 H   0  0  0  0  0  0
    1.0471   55.1782   27.8590 H   0  0  0  0  0  0
    2.1101   55.0643   29.1966 H   0  0  0  0  0  0
    2.2087   52.3532   25.8218 H   0  0  0  0  0  0
    1.1157   53.6954   25.9342 H   0  0  0  0  0  0
   -0.1078   51.6406   26.3713 H   0  0  0  0  0  0
    0.9862   51.1204   27.6021 H   0  0  0  0  0  0
    2.9134   51.5351   28.3082 H   0  0  0  0  0  0
    4.3570   52.3485   27.8239 H   0  0  0  0  0  0
    3.1044   55.6372   26.8778 H   0  0  0  0  0  0
    4.4527   54.7582   27.4807 H   0  0  0  0  0  0
    3.0948   54.0301   24.9248 H   0  0  0  0  0  0
    4.3849   52.4297   22.4819 H   0  0  0  0  0  0
    3.1520   53.0665   23.5155 H   0  0  0  0  0  0
    2.7151   53.6950   21.1683 H   0  0  0  0  0  0
    3.1269   55.1549   22.0553 H   0  0  0  0  0  0
    4.4146   55.1780   19.8792 H   0  0  0  0  0  0
    5.9025   56.0133   21.6816 H   0  0  0  0  0  0
    6.8614   54.8926   20.7719 H   0  0  0  0  0  0
    7.1306   54.6737   23.2793 H   0  0  0  0  0  0
    6.6226   53.1705   22.5244 H   0  0  0  0  0  0
    5.2980   52.4611   20.6852 H   0  0  0  0  0  0
    4.2160   52.7960   19.5110 H   0  0  0  0  0  0
    5.7677   53.2520   19.3304 H   0  0  0  0  0  0
  1  6  1  0  0  0
  1  2  1  0  0  0
  1 22  1  0  0  0
  1 23  1  0  0  0
  2  3  1  0  0  0
  2 24  1  0  0  0
  2 25  1  0  0  0
  3  4  1  0  0  0
  3 26  1  0  0  0
  3 27  1  0  0  0
  4  5  1  0  0  0
  4  7  1  0  0  0
  4 11  1  0  0  0
  5  6  1  0  0  0
  5 28  1  0  0  0
  5 29  1  0  0  0
  6 30  1  0  0  0
  6 31  1  0  0  0
  7  8  1  0  0  0
  7 32  1  0  0  0
  7 33  1  0  0  0
  8  9  2  0  0  0
  8 10  1  0  0  0
 11 12  1  0  0  0
 11 34  1  0  0  0
 11 35  1  0  0  0
 12 13  1  0  0  0
 12 36  1  0  0  0
 13 14  2  0  0  0
 13 15  1  0  0  0
 15 20  1  0  0  0
 15 16  1  0  0  0
 16 17  1  0  0  0
 16 37  1  0  0  0
 16 38  1  0  0  0
 17 18  1  0  0  0
 17 39  1  0  0  0
 17 40  1  0  0  0
 18 19  1  0  0  0
 18 21  1  0  0  0
 18 41  1  0  0  0
 19 20  1  0  0  0
 19 42  1  0  0  0
 19 43  1  0  0  0
 20 44  1  0  0  0
 20 45  1  0  0  0
 21 46  1  0  0  0
 21 47  1  0  0  0
 21 48  1  0  0  0
M  CHG  2  10  -1  21   1
M  END
> <i_i_glide_confnum>
105

> <i_i_glide_lignum>
1596

> <i_i_glide_posenum>
20

> <i_i_glide_rotatable_bonds>
6

> <i_m_Source_File_Index>
4108

> <b_m_subgroup_collapsed>
0

> <r_i_docking_score>
-6.05025

> <r_i_glide_ecoul>
-7.2428

> <r_i_glide_eff_state_penalty>
0

> <r_i_glide_einternal>
9.88029

> <r_i_glide_emodel>
-47.0154

> <r_i_glide_energy>
-33.2305

> <r_i_glide_erotb>
1.03654

> <r_i_glide_esite>
-0.0362225

> <r_i_glide_evdw>
-25.9877

> <r_i_glide_gscore>
-6.05025

> <r_i_glide_hbond>
-0.32

> <r_i_glide_ligand_efficiency>
-0.288107

> <r_i_glide_ligand_efficiency_ln>
-1.49591

> <r_i_glide_ligand_efficiency_sa>
-0.794866

> <r_i_glide_lipo>
-2.00538

> <r_i_glide_metal>
0

> <r_i_glide_rewards>
-2.33938

> <s_i_glide_gridfile>
wee1_glide-grid

> <s_m_Source_File>
wee1_decoys_glide_SP.sdf

> <s_m_Source_Path>
/Users/zhangxujun/Desktop

> <s_m_entry_id>
4383

> <s_m_entry_name>
wee1_decoys_glide_SP.4108

> <s_m_subgroup_title>
wee1_decoys_glide_SP

> <s_m_subgroupid>
wee1_decoys_glide_SP


$$$$
