ZINC03271716_4566
                    3D
 Schrodinger Suite 2024-2.
 41 43  0  0  1  0            999 V2000
    7.0570   55.3333   25.6194 C   0  0  0  0  0  0
    5.9305   54.7631   24.7959 C   0  0  0  0  0  0
    4.6254   54.7708   25.2833 C   0  0  0  0  0  0
    3.5992   54.2427   24.5060 C   0  0  0  0  0  0
    3.8672   53.6964   23.2428 C   0  0  0  0  0  0
    5.1879   53.6970   22.7735 C   0  0  0  0  0  0
    6.2129   54.2344   23.5401 C   0  0  0  0  0  0
    2.7474   53.0513   22.4698 C   0  0  0  0  0  0
    1.5888   52.7373   23.0084 N   0  0  0  0  0  0
    0.8211   52.0977   22.0442 N   0  0  0  0  0  0
    1.5607   51.9990   20.9716 C   0  0  0  0  0  0
    2.7547   52.6656   21.1403 N   0  0  0  0  0  0
    3.7171   52.8857   20.1635 N   0  0  0  0  0  0
    1.0266   51.2379   19.4791 S   0  0  0  0  0  0
    2.4011   50.0426   19.3357 C   0  0  0  0  0  0
    1.8949   48.6115   19.1826 C   0  0  0  0  0  0
    1.2280   48.0979   20.0815 O   0  0  0  0  0  0
    2.2384   48.0090   18.0301 N   0  0  0  0  0  0
    1.7921   46.7966   17.4836 C   0  0  0  0  0  0
    0.6940   46.0667   17.9662 C   0  0  0  0  0  0
    0.3266   44.8753   17.3460 C   0  0  0  0  0  0
    1.0457   44.4164   16.2448 C   0  0  0  0  0  0
    2.1243   45.1459   15.7499 C   0  0  0  0  0  0
    2.4947   46.3374   16.3672 C   0  0  0  0  0  0
    0.5943   42.9327   15.4882 Cl  0  0  0  0  0  0
    6.7044   56.0968   26.3096 H   0  0  0  0  0  0
    7.5172   54.5299   26.1933 H   0  0  0  0  0  0
    7.7796   55.8026   24.9474 H   0  0  0  0  0  0
    4.4041   55.1788   26.2587 H   0  0  0  0  0  0
    2.5936   54.2457   24.9009 H   0  0  0  0  0  0
    5.4578   53.2574   21.8292 H   0  0  0  0  0  0
    7.2269   54.2216   23.1655 H   0  0  0  0  0  0
    4.1020   52.0261   19.7958 H   0  0  0  0  0  0
    3.3772   53.5147   19.4493 H   0  0  0  0  0  0
    3.0404   50.0541   20.2182 H   0  0  0  0  0  0
    3.0280   50.3351   18.4910 H   0  0  0  0  0  0
    2.9302   48.4999   17.4550 H   0  0  0  0  0  0
    0.1111   46.4061   18.8077 H   0  0  0  0  0  0
   -0.5165   44.3125   17.7178 H   0  0  0  0  0  0
    2.6754   44.7899   14.8933 H   0  0  0  0  0  0
    3.3382   46.8956   15.9829 H   0  0  0  0  0  0
  1  2  1  0  0  0
  1 26  1  0  0  0
  1 27  1  0  0  0
  1 28  1  0  0  0
  2  7  2  0  0  0
  2  3  1  0  0  0
  3  4  2  0  0  0
  3 29  1  0  0  0
  4  5  1  0  0  0
  4 30  1  0  0  0
  5  6  2  0  0  0
  5  8  1  0  0  0
  6  7  1  0  0  0
  6 31  1  0  0  0
  7 32  1  0  0  0
  8 12  1  0  0  0
  8  9  2  0  0  0
  9 10  1  0  0  0
 10 11  2  0  0  0
 11 12  1  0  0  0
 11 14  1  0  0  0
 12 13  1  0  0  0
 13 33  1  0  0  0
 13 34  1  0  0  0
 14 15  1  0  0  0
 15 16  1  0  0  0
 15 35  1  0  0  0
 15 36  1  0  0  0
 16 17  2  0  0  0
 16 18  1  0  0  0
 18 19  1  0  0  0
 18 37  1  0  0  0
 19 24  2  0  0  0
 19 20  1  0  0  0
 20 21  2  0  0  0
 20 38  1  0  0  0
 21 22  1  0  0  0
 21 39  1  0  0  0
 22 23  2  0  0  0
 22 25  1  0  0  0
 23 24  1  0  0  0
 23 40  1  0  0  0
 24 41  1  0  0  0
M  END
> <i_i_glide_confnum>
26

> <i_i_glide_lignum>
4567

> <i_i_glide_posenum>
126

> <i_i_glide_rotatable_bonds>
6

> <i_m_Source_File_Index>
5822

> <b_m_subgroup_collapsed>
0

> <r_i_docking_score>
-4.94317

> <r_i_glide_ecoul>
-7.10629

> <r_i_glide_eff_state_penalty>
0

> <r_i_glide_einternal>
2.31623

> <r_i_glide_emodel>
-51.7075

> <r_i_glide_energy>
-38.4236

> <r_i_glide_erotb>
0.691474

> <r_i_glide_esite>
-0.178556

> <r_i_glide_evdw>
-31.3173

> <r_i_glide_gscore>
-4.94317

> <r_i_glide_hbond>
-0.16

> <r_i_glide_ligand_efficiency>
-0.197727

> <r_i_glide_ligand_efficiency_ln>
-1.17168

> <r_i_glide_ligand_efficiency_sa>
-0.578156

> <r_i_glide_lipo>
-1.61949

> <r_i_glide_metal>
0

> <r_i_glide_rewards>
-1.04479

> <s_i_glide_gridfile>
wee1_glide-grid

> <s_m_Source_File>
wee1_decoys_glide_SP.sdf

> <s_m_Source_Path>
/Users/zhangxujun/Desktop

> <s_m_entry_id>
6097

> <s_m_entry_name>
wee1_decoys_glide_SP.5822

> <s_m_subgroup_title>
wee1_decoys_glide_SP

> <s_m_subgroupid>
wee1_decoys_glide_SP


$$$$
