ZINC08912120_6031
                    3D
 Schrodinger Suite 2024-2.
 61 64  0  0  1  0            999 V2000
   -0.7561   51.8389   18.0867 C   0  0  0  0  0  0
    0.3581   50.8139   18.3708 C   0  0  0  0  0  0
    1.6674   51.4039   18.9554 C   0  0  1  0  0  0
    2.3494   50.5653   19.1331 H   0  0  0  0  0  0
    2.3768   52.3419   17.9435 C   0  0  0  0  0  0
    4.2851   52.9837   19.6088 C   0  0  0  0  0  0
    4.5281   53.4002   17.0838 C   0  0  0  0  0  0
    5.9835   53.8142   17.2936 C   0  0  0  0  0  0
    6.2860   55.1152   17.7112 C   0  0  0  0  0  0
    7.6124   55.4865   17.9222 C   0  0  0  0  0  0
    8.6326   54.5609   17.7103 C   0  0  0  0  0  0
    8.3406   53.2691   17.2800 C   0  0  0  0  0  0
    7.0136   52.8969   17.0684 C   0  0  0  0  0  0
    1.4459   52.0923   20.2349 N   0  0  0  0  0  0
    1.2711   51.4762   21.4199 C   0  0  0  0  0  0
    1.0798   50.2648   21.5392 O   0  0  0  0  0  0
    1.4383   52.3386   22.5631 C   0  0  0  0  0  0
    2.0001   53.6151   22.6092 C   0  0  0  0  0  0
    2.1521   54.1057   23.9062 C   0  0  0  0  0  0
    1.8144   53.1752   24.8834 C   0  0  0  0  0  0
    1.1051   51.7481   24.1680 S   0  0  0  0  0  0
    1.9226   53.2976   26.2471 N   0  0  0  0  0  0
    0.8491   52.7719   27.1063 C   0  0  0  0  0  0
    0.7827   53.5220   28.4508 C   0  0  0  0  0  0
    2.0401   53.4370   29.1170 O   0  0  0  0  0  0
    3.1127   53.7801   28.3225 C   0  0  0  0  0  0
    3.1019   53.6962   26.9099 C   0  0  0  0  0  0
    4.2907   54.0394   26.2369 C   0  0  0  0  0  0
    5.4331   54.4384   26.9302 C   0  0  0  0  0  0
    5.4181   54.4961   28.3193 C   0  0  0  0  0  0
    4.2607   54.1643   29.0147 C   0  0  0  0  0  0
    6.8645   54.8615   26.0656 Cl  0  0  0  0  0  0
   -1.6379   51.3461   17.6737 H   0  0  0  0  0  0
   -1.0656   52.3519   18.9990 H   0  0  0  0  0  0
   -0.4358   52.5914   17.3672 H   0  0  0  0  0  0
    0.5859   50.2622   17.4573 H   0  0  0  0  0  0
   -0.0296   50.0606   19.0573 H   0  0  0  0  0  0
    1.9534   53.3480   17.9490 H   0  0  0  0  0  0
    2.3124   51.9380   16.9308 H   0  0  0  0  0  0
    3.7670   53.9271   19.7917 H   0  0  0  0  0  0
    3.9983   52.2059   20.3145 H   0  0  0  0  0  0
    5.3665   53.0945   19.6642 H   0  0  0  0  0  0
    3.8862   54.2835   17.0217 H   0  0  0  0  0  0
    4.4149   52.8285   16.1591 H   0  0  0  0  0  0
    5.5000   55.8356   17.8775 H   0  0  0  0  0  0
    7.8484   56.4878   18.2498 H   0  0  0  0  0  0
    9.6595   54.8483   17.8820 H   0  0  0  0  0  0
    9.1365   52.5564   17.1168 H   0  0  0  0  0  0
    6.7866   51.8895   16.7495 H   0  0  0  0  0  0
    1.4275   53.1005   20.2133 H   0  0  0  0  0  0
    2.3050   54.1625   21.7286 H   0  0  0  0  0  0
    2.5556   55.0853   24.1275 H   0  0  0  0  0  0
   -0.1143   52.8623   26.6062 H   0  0  0  0  0  0
    1.0143   51.7054   27.2780 H   0  0  0  0  0  0
    0.5271   54.5667   28.2766 H   0  0  0  0  0  0
    0.0085   53.0955   29.0895 H   0  0  0  0  0  0
    4.3657   53.9772   25.1645 H   0  0  0  0  0  0
    6.3040   54.7948   28.8601 H   0  0  0  0  0  0
    4.2592   54.2002   30.0922 H   0  0  0  0  0  0
    3.9048   52.4980   18.1875 N   0  3  2  0  0  0
    4.3628   51.5789   18.0823 H   0  0  0  0  0  0
  1  2  1  0  0  0
  1 33  1  0  0  0
  1 34  1  0  0  0
  1 35  1  0  0  0
  2  3  1  0  0  0
  2 36  1  0  0  0
  2 37  1  0  0  0
  3  4  1  0  0  0
  3  5  1  0  0  0
  3 14  1  0  0  0
  5 38  1  0  0  0
  5 39  1  0  0  0
  5 60  1  0  0  0
  6 40  1  0  0  0
  6 41  1  0  0  0
  6 42  1  0  0  0
  6 60  1  0  0  0
  7  8  1  0  0  0
  7 43  1  0  0  0
  7 44  1  0  0  0
  7 60  1  0  0  0
  8 13  2  0  0  0
  8  9  1  0  0  0
  9 10  2  0  0  0
  9 45  1  0  0  0
 10 11  1  0  0  0
 10 46  1  0  0  0
 11 12  2  0  0  0
 11 47  1  0  0  0
 12 13  1  0  0  0
 12 48  1  0  0  0
 13 49  1  0  0  0
 14 15  1  0  0  0
 14 50  1  0  0  0
 15 16  2  0  0  0
 15 17  1  0  0  0
 17 21  1  0  0  0
 17 18  2  0  0  0
 18 19  1  0  0  0
 18 51  1  0  0  0
 19 20  2  0  0  0
 19 52  1  0  0  0
 20 21  1  0  0  0
 20 22  1  0  0  0
 22 27  1  0  0  0
 22 23  1  0  0  0
 23 24  1  0  0  0
 23 53  1  0  0  0
 23 54  1  0  0  0
 24 25  1  0  0  0
 24 55  1  0  0  0
 24 56  1  0  0  0
 25 26  1  0  0  0
 26 31  2  0  0  0
 26 27  1  0  0  0
 27 28  2  0  0  0
 28 29  1  0  0  0
 28 57  1  0  0  0
 29 30  2  0  0  0
 29 32  1  0  0  0
 30 31  1  0  0  0
 30 58  1  0  0  0
 31 59  1  0  0  0
 60 61  1  0  0  0
M  CHG  1  60   1
M  END
> <i_i_glide_confnum>
251

> <i_i_glide_lignum>
6032

> <i_i_glide_posenum>
275

> <i_i_glide_rotatable_bonds>
9

> <i_m_Source_File_Index>
5631

> <b_m_subgroup_collapsed>
0

> <r_i_docking_score>
-6.28335

> <r_i_glide_ecoul>
-7.90479

> <r_i_glide_eff_state_penalty>
0

> <r_i_glide_einternal>
5.72577

> <r_i_glide_emodel>
-65.5782

> <r_i_glide_energy>
-47.0414

> <r_i_glide_erotb>
0.637599

> <r_i_glide_esite>
-0.102903

> <r_i_glide_evdw>
-39.1366

> <r_i_glide_gscore>
-6.28335

> <r_i_glide_hbond>
-0.441795

> <r_i_glide_ligand_efficiency>
-0.196355

> <r_i_glide_ligand_efficiency_ln>
-1.40701

> <r_i_glide_ligand_efficiency_sa>
-0.623387

> <r_i_glide_lipo>
-2.78313

> <r_i_glide_metal>
0

> <r_i_glide_rewards>
-0.450565

> <s_i_glide_gridfile>
wee1_glide-grid

> <s_m_Source_File>
wee1_decoys_glide_SP.sdf

> <s_m_Source_Path>
/Users/zhangxujun/Desktop

> <s_m_entry_id>
5906

> <s_m_entry_name>
wee1_decoys_glide_SP.5631

> <s_m_subgroup_title>
wee1_decoys_glide_SP

> <s_m_subgroupid>
wee1_decoys_glide_SP


$$$$
