ZINC59434839_3190
                    3D
 Schrodinger Suite 2024-2.
 63 66  0  0  1  0            999 V2000
   -6.3720   52.0447   24.5875 C   0  0  0  0  0  0
   -5.7345   51.5225   25.7498 O   0  0  0  0  0  0
   -4.3734   51.6966   25.9089 C   0  0  0  0  0  0
   -3.8003   51.1543   27.0575 C   0  0  0  0  0  0
   -2.4372   51.2905   27.3079 C   0  0  0  0  0  0
   -1.6130   51.9805   26.4097 C   0  0  0  0  0  0
   -2.1920   52.5037   25.2470 C   0  0  0  0  0  0
   -3.5538   52.3725   24.9966 C   0  0  0  0  0  0
   -0.1061   52.2110   26.6523 C   0  0  1  0  0  0
   -0.0545   53.2967   26.6705 H   0  0  0  0  0  0
    0.4663   51.7698   28.0350 C   0  0  0  0  0  0
    1.3798   52.8203   28.6884 C   0  0  0  0  0  0
    0.8907   53.6900   29.4099 O   0  0  0  0  0  0
    2.8889   52.7548   28.4441 C   0  0  0  0  0  0
    3.5294   54.0897   28.0492 C   0  0  0  0  0  0
    3.9648   54.8844   28.8863 O   0  0  0  0  0  0
    3.5044   54.3369   26.6940 N   0  0  0  0  0  0
    4.5849   54.3686   26.0205 C   0  0  0  0  0  0
    4.6330   54.4967   24.6521 N   0  0  0  0  0  0
    5.8805   54.9903   24.1002 C   0  0  1  0  0  0
    5.9414   56.0561   24.3352 H   0  0  0  0  0  0
    6.9751   54.2949   24.8851 C   0  0  0  0  0  0
    6.3155   54.1738   26.5673 S   0  0  0  0  0  0
    6.0466   54.8871   22.5788 C   0  0  0  0  0  0
    7.1042   55.5675   21.9668 C   0  0  0  0  0  0
    7.2308   55.5760   20.5804 C   0  0  0  0  0  0
    6.2981   54.8967   19.8008 C   0  0  0  0  0  0
    5.2529   54.1941   20.3964 C   0  0  0  0  0  0
    5.1299   54.1845   21.7838 C   0  0  0  0  0  0
    0.7042   51.7206   25.5238 N   0  0  0  0  0  0
    1.1442   52.4648   24.4847 C   0  0  0  0  0  0
    1.1038   53.6962   24.4898 O   0  0  0  0  0  0
    1.6211   51.7311   23.2469 C   0  0  0  0  0  0
    1.8657   50.3464   23.2429 C   0  0  0  0  0  0
    2.3042   49.7091   22.0838 C   0  0  0  0  0  0
    2.5006   50.4447   20.9185 C   0  0  0  0  0  0
    2.2550   51.8134   20.9007 C   0  0  0  0  0  0
    1.8184   52.4521   22.0578 C   0  0  0  0  0  0
   -7.4365   51.8141   24.6258 H   0  0  0  0  0  0
   -6.2718   53.1297   24.5257 H   0  0  0  0  0  0
   -5.9718   51.5973   23.6759 H   0  0  0  0  0  0
   -4.4166   50.6140   27.7602 H   0  0  0  0  0  0
   -2.0536   50.8204   28.2006 H   0  0  0  0  0  0
   -1.5896   53.0460   24.5338 H   0  0  0  0  0  0
   -3.9547   52.8053   24.0935 H   0  0  0  0  0  0
   -0.3326   51.6550   28.7630 H   0  0  0  0  0  0
    0.9638   50.8031   27.9706 H   0  0  0  0  0  0
    3.3586   52.3847   29.3539 H   0  0  0  0  0  0
    3.1036   52.0125   27.6815 H   0  0  0  0  0  0
    3.8084   54.8470   24.1880 H   0  0  0  0  0  0
    7.9036   54.8636   24.8821 H   0  0  0  0  0  0
    7.1828   53.2966   24.5090 H   0  0  0  0  0  0
    7.8325   56.0969   22.5641 H   0  0  0  0  0  0
    8.0519   56.0986   20.1114 H   0  0  0  0  0  0
    6.3945   54.8998   18.7251 H   0  0  0  0  0  0
    4.5406   53.6604   19.7837 H   0  0  0  0  0  0
    4.3094   53.6438   22.2304 H   0  0  0  0  0  0
    0.7852   50.7181   25.4548 H   0  0  0  0  0  0
    1.7334   49.7416   24.1282 H   0  0  0  0  0  0
    2.5032   48.6469   22.0923 H   0  0  0  0  0  0
    2.8480   49.9512   20.0211 H   0  0  0  0  0  0
    2.4032   52.3793   19.9923 H   0  0  0  0  0  0
    1.6346   53.5173   22.0149 H   0  0  0  0  0  0
  1  2  1  0  0  0
  1 39  1  0  0  0
  1 40  1  0  0  0
  1 41  1  0  0  0
  2  3  1  0  0  0
  3  8  2  0  0  0
  3  4  1  0  0  0
  4  5  2  0  0  0
  4 42  1  0  0  0
  5  6  1  0  0  0
  5 43  1  0  0  0
  6  7  2  0  0  0
  6  9  1  0  0  0
  7  8  1  0  0  0
  7 44  1  0  0  0
  8 45  1  0  0  0
  9 10  1  0  0  0
  9 11  1  0  0  0
  9 30  1  0  0  0
 11 12  1  0  0  0
 11 46  1  0  0  0
 11 47  1  0  0  0
 12 13  2  0  0  0
 12 14  1  0  0  0
 14 15  1  0  0  0
 14 48  1  0  0  0
 14 49  1  0  0  0
 15 17  1  0  0  0
 15 16  2  0  0  0
 17 18  2  0  0  0
 18 19  1  0  0  0
 18 23  1  0  0  0
 19 20  1  0  0  0
 19 50  1  0  0  0
 20 21  1  0  0  0
 20 22  1  0  0  0
 20 24  1  0  0  0
 22 23  1  0  0  0
 22 51  1  0  0  0
 22 52  1  0  0  0
 24 29  2  0  0  0
 24 25  1  0  0  0
 25 26  2  0  0  0
 25 53  1  0  0  0
 26 27  1  0  0  0
 26 54  1  0  0  0
 27 28  2  0  0  0
 27 55  1  0  0  0
 28 29  1  0  0  0
 28 56  1  0  0  0
 29 57  1  0  0  0
 30 31  1  0  0  0
 30 58  1  0  0  0
 31 32  2  0  0  0
 31 33  1  0  0  0
 33 38  2  0  0  0
 33 34  1  0  0  0
 34 35  2  0  0  0
 34 59  1  0  0  0
 35 36  1  0  0  0
 35 60  1  0  0  0
 36 37  2  0  0  0
 36 61  1  0  0  0
 37 38  1  0  0  0
 37 62  1  0  0  0
 38 63  1  0  0  0
M  END
> <i_i_glide_confnum>
94

> <i_i_glide_lignum>
3191

> <i_i_glide_posenum>
109

> <i_i_glide_rotatable_bonds>
11

> <i_m_Source_File_Index>
896

> <b_m_subgroup_collapsed>
0

> <r_i_docking_score>
-5.92792

> <r_i_glide_ecoul>
-3.85107

> <r_i_glide_eff_state_penalty>
0

> <r_i_glide_einternal>
11.7826

> <r_i_glide_emodel>
-71.8188

> <r_i_glide_energy>
-56.1375

> <r_i_glide_erotb>
0.730713

> <r_i_glide_esite>
0

> <r_i_glide_evdw>
-52.2864

> <r_i_glide_gscore>
-5.92792

> <r_i_glide_hbond>
0

> <r_i_glide_ligand_efficiency>
-0.164664

> <r_i_glide_ligand_efficiency_ln>
-1.29331

> <r_i_glide_ligand_efficiency_sa>
-0.54371

> <r_i_glide_lipo>
-2.43491

> <r_i_glide_metal>
0

> <r_i_glide_rewards>
-1.03174

> <s_i_glide_gridfile>
wee1_glide-grid

> <s_m_Source_File>
wee1_decoys_glide_SP.sdf

> <s_m_Source_Path>
/Users/zhangxujun/Desktop

> <s_m_entry_id>
1171

> <s_m_entry_name>
wee1_decoys_glide_SP.896

> <s_m_subgroup_title>
wee1_decoys_glide_SP

> <s_m_subgroupid>
wee1_decoys_glide_SP


$$$$
