ZINC13623344_3162
                    3D
 Schrodinger Suite 2024-2.
 60 62  0  0  1  0            999 V2000
    1.6607   51.5707   28.8583 C   0  0  0  0  0  0
    2.7405   52.4152   29.5602 C   0  0  0  0  0  0
    2.8767   53.8806   29.0707 C   0  0  2  0  0  0
    3.6963   54.3164   29.6457 H   0  0  0  0  0  0
    1.6421   54.7456   29.4066 C   0  0  0  0  0  0
    3.2633   53.9808   27.5900 C   0  0  0  0  0  0
    2.3307   53.6959   26.5892 C   0  0  0  0  0  0
    2.6857   53.7687   25.2454 C   0  0  0  0  0  0
    3.9853   54.1424   24.8723 C   0  0  0  0  0  0
    4.9171   54.4427   25.8772 C   0  0  0  0  0  0
    4.5606   54.3522   27.2217 C   0  0  0  0  0  0
    6.6961   54.9737   25.4321 Br  0  0  0  0  0  0
    4.4034   54.2351   23.5630 O   0  0  0  0  0  0
    3.5270   53.8349   22.5034 C   0  0  0  0  0  0
    4.3380   53.6977   21.2098 C   0  0  0  0  0  0
    5.5045   54.0942   21.1664 O   0  0  0  0  0  0
    3.7033   53.1150   20.1677 N   0  0  0  0  0  0
    4.3782   52.8977   18.9540 N   0  0  0  0  0  0
    4.6375   53.9204   18.1063 C   0  0  0  0  0  0
    4.1933   55.0610   18.2586 O   0  0  0  0  0  0
    5.5473   53.5771   16.9042 C   0  0  1  0  0  0
    4.9674   52.8625   16.3140 H   0  0  0  0  0  0
    5.9989   54.7792   16.0677 C   0  0  0  0  0  0
    7.5069   54.6542   15.8909 C   0  0  0  0  0  0
    8.1983   55.3768   15.1705 O   0  0  0  0  0  0
    7.8979   53.5980   16.6382 N   0  0  0  0  0  0
    6.8421   52.8986   17.3613 C   0  0  0  0  0  0
    9.2826   53.1104   16.6461 C   0  0  0  0  0  0
    9.5226   51.8635   15.7967 C   0  0  0  0  0  0
   10.3242   50.8372   16.3042 C   0  0  0  0  0  0
   10.5612   49.6967   15.5410 C   0  0  0  0  0  0
    9.9964   49.5827   14.2748 C   0  0  0  0  0  0
    9.1942   50.5982   13.7613 C   0  0  0  0  0  0
    8.9570   51.7405   14.5222 C   0  0  0  0  0  0
    1.5936   50.5752   29.2813 H   0  0  0  0  0  0
    1.8818   51.4137   27.8042 H   0  0  0  0  0  0
    0.6710   52.0216   28.9381 H   0  0  0  0  0  0
    2.5425   52.4148   30.6323 H   0  0  0  0  0  0
    3.7013   51.9120   29.4450 H   0  0  0  0  0  0
    1.7931   55.7822   29.1024 H   0  0  0  0  0  0
    0.7425   54.3876   28.9031 H   0  0  0  0  0  0
    1.4368   54.7462   30.4775 H   0  0  0  0  0  0
    1.3228   53.4090   26.8454 H   0  0  0  0  0  0
    1.9315   53.5393   24.5118 H   0  0  0  0  0  0
    5.2959   54.5826   27.9785 H   0  0  0  0  0  0
    3.0689   52.8671   22.7188 H   0  0  0  0  0  0
    2.7484   54.5879   22.3626 H   0  0  0  0  0  0
    2.7227   52.8755   20.1358 H   0  0  0  0  0  0
    4.7371   51.9524   18.8441 H   0  0  0  0  0  0
    5.5445   54.7388   15.0773 H   0  0  0  0  0  0
    5.7522   55.7558   16.4875 H   0  0  0  0  0  0
    7.0353   53.0133   18.4308 H   0  0  0  0  0  0
    6.8598   51.8378   17.1031 H   0  0  0  0  0  0
    9.9665   53.8856   16.2928 H   0  0  0  0  0  0
    9.5659   52.9023   17.6785 H   0  0  0  0  0  0
   10.7725   50.9207   17.2818 H   0  0  0  0  0  0
   11.1793   48.9025   15.9322 H   0  0  0  0  0  0
   10.1876   48.7000   13.6820 H   0  0  0  0  0  0
    8.7652   50.5026   12.7757 H   0  0  0  0  0  0
    8.3447   52.5292   14.1148 H   0  0  0  0  0  0
  1  2  1  0  0  0
  1 35  1  0  0  0
  1 36  1  0  0  0
  1 37  1  0  0  0
  2  3  1  0  0  0
  2 38  1  0  0  0
  2 39  1  0  0  0
  3  4  1  0  0  0
  3  5  1  0  0  0
  3  6  1  0  0  0
  5 40  1  0  0  0
  5 41  1  0  0  0
  5 42  1  0  0  0
  6 11  2  0  0  0
  6  7  1  0  0  0
  7  8  2  0  0  0
  7 43  1  0  0  0
  8  9  1  0  0  0
  8 44  1  0  0  0
  9 10  2  0  0  0
  9 13  1  0  0  0
 10 11  1  0  0  0
 10 12  1  0  0  0
 11 45  1  0  0  0
 13 14  1  0  0  0
 14 15  1  0  0  0
 14 46  1  0  0  0
 14 47  1  0  0  0
 15 16  2  0  0  0
 15 17  1  0  0  0
 17 18  1  0  0  0
 17 48  1  0  0  0
 18 19  1  0  0  0
 18 49  1  0  0  0
 19 20  2  0  0  0
 19 21  1  0  0  0
 21 22  1  0  0  0
 21 27  1  0  0  0
 21 23  1  0  0  0
 23 24  1  0  0  0
 23 50  1  0  0  0
 23 51  1  0  0  0
 24 25  2  0  0  0
 24 26  1  0  0  0
 26 27  1  0  0  0
 26 28  1  0  0  0
 27 52  1  0  0  0
 27 53  1  0  0  0
 28 29  1  0  0  0
 28 54  1  0  0  0
 28 55  1  0  0  0
 29 34  2  0  0  0
 29 30  1  0  0  0
 30 31  2  0  0  0
 30 56  1  0  0  0
 31 32  1  0  0  0
 31 57  1  0  0  0
 32 33  2  0  0  0
 32 58  1  0  0  0
 33 34  1  0  0  0
 33 59  1  0  0  0
 34 60  1  0  0  0
M  END
> <i_i_glide_confnum>
91

> <i_i_glide_lignum>
3163

> <i_i_glide_posenum>
390

> <i_i_glide_rotatable_bonds>
11

> <i_m_Source_File_Index>
3157

> <b_m_subgroup_collapsed>
0

> <r_i_docking_score>
-5.34317

> <r_i_glide_ecoul>
-5.0005

> <r_i_glide_eff_state_penalty>
0

> <r_i_glide_einternal>
4.73206

> <r_i_glide_emodel>
-61.5934

> <r_i_glide_energy>
-46.4512

> <r_i_glide_erotb>
0.809525

> <r_i_glide_esite>
-0.0994922

> <r_i_glide_evdw>
-41.4507

> <r_i_glide_gscore>
-5.34317

> <r_i_glide_hbond>
-0.16

> <r_i_glide_ligand_efficiency>
-0.166974

> <r_i_glide_ligand_efficiency_ln>
-1.19648

> <r_i_glide_ligand_efficiency_sa>
-0.53011

> <r_i_glide_lipo>
-2.87361

> <r_i_glide_metal>
0

> <r_i_glide_rewards>
-0.196982

> <s_i_glide_gridfile>
wee1_glide-grid

> <s_m_Source_File>
wee1_decoys_glide_SP.sdf

> <s_m_Source_Path>
/Users/zhangxujun/Desktop

> <s_m_entry_id>
3432

> <s_m_entry_name>
wee1_decoys_glide_SP.3157

> <s_m_subgroup_title>
wee1_decoys_glide_SP

> <s_m_subgroupid>
wee1_decoys_glide_SP


$$$$
