ZINC20765725_3170
                    3D
 Schrodinger Suite 2024-2.
 73 75  0  0  1  0            999 V2000
   -1.2780   57.5235   17.2561 C   0  0  0  0  0  0
   -0.6328   56.2287   16.7915 C   0  0  0  0  0  0
    0.7434   56.0637   16.8784 C   0  0  0  0  0  0
    1.3605   54.8827   16.4542 C   0  0  0  0  0  0
    0.5889   53.8398   15.8875 C   0  0  0  0  0  0
   -0.8151   54.0225   15.7906 C   0  0  0  0  0  0
   -1.4031   55.2050   16.2524 C   0  0  0  0  0  0
   -1.7680   52.9868   15.2070 C   0  0  0  0  0  0
    1.4371   52.3706   15.1912 S   0  0  0  0  0  0
    2.6799   52.8277   14.5648 O   0  0  0  0  0  0
    0.4963   51.5770   14.3952 O   0  0  0  0  0  0
    1.8918   51.3972   16.5819 N   0  0  0  0  0  0
    0.8553   50.6023   17.2746 C   0  0  0  0  0  0
    0.9920   50.6492   18.8108 C   0  0  2  0  0  0
    1.0248   52.0937   19.3757 C   0  0  0  0  0  0
    1.0912   52.0816   20.9190 C   0  0  0  0  0  0
    2.2884   51.2599   21.4928 C   0  0  1  0  0  0
    2.2860   49.8434   20.8491 C   0  0  0  0  0  0
    2.2294   49.8670   19.3054 C   0  0  0  0  0  0
    3.6613   51.9652   21.2771 C   0  0  0  0  0  0
    4.6995   51.3045   21.1832 O   0  0  0  0  0  0
    3.6819   53.3070   21.3392 N   0  0  0  0  0  0
    4.8767   54.1492   21.3803 C   0  0  0  0  0  0
    5.8424   53.9304   22.5793 C   0  0  0  0  0  0
    5.3313   54.1581   24.0074 C   0  0  0  0  0  0
    3.9783   54.0981   24.3640 C   0  0  0  0  0  0
    3.5815   54.2587   25.6896 C   0  0  0  0  0  0
    4.5270   54.4876   26.7001 C   0  0  0  0  0  0
    5.8851   54.5441   26.3453 C   0  0  0  0  0  0
    6.2737   54.3936   25.0126 C   0  0  0  0  0  0
    6.8606   54.7804   27.2806 O   0  0  0  0  0  0
    7.1052   53.6956   28.1671 C   0  0  0  0  0  0
    4.1963   54.6721   28.0313 O   0  0  0  0  0  0
    2.8301   54.6386   28.4277 C   0  0  0  0  0  0
    2.8645   54.7787   16.6771 C   0  0  0  0  0  0
   -2.2971   57.6298   16.8800 H   0  0  0  0  0  0
   -1.2866   57.5814   18.3446 H   0  0  0  0  0  0
   -0.7088   58.3764   16.8811 H   0  0  0  0  0  0
    1.3429   56.8654   17.2815 H   0  0  0  0  0  0
   -2.4727   55.3397   16.1755 H   0  0  0  0  0  0
   -2.8152   53.2373   15.3809 H   0  0  0  0  0  0
   -1.6215   52.8933   14.1303 H   0  0  0  0  0  0
   -1.6088   52.0101   15.6608 H   0  0  0  0  0  0
    2.8424   51.0071   16.5834 H   0  0  0  0  0  0
    0.9388   49.5772   16.9130 H   0  0  0  0  0  0
   -0.1267   50.9622   16.9740 H   0  0  0  0  0  0
    0.1175   50.1525   19.2369 H   0  0  0  0  0  0
    0.1459   52.6467   19.0380 H   0  0  0  0  0  0
    1.8718   52.6477   18.9648 H   0  0  0  0  0  0
    0.1742   51.6542   21.3269 H   0  0  0  0  0  0
    1.0404   53.0792   21.3559 H   0  0  0  0  0  0
    2.2253   51.1836   22.5807 H   0  0  0  0  0  0
    3.1045   49.2386   21.2397 H   0  0  0  0  0  0
    1.4361   49.2927   21.2540 H   0  0  0  0  0  0
    2.2142   48.8475   18.9172 H   0  0  0  0  0  0
    3.1304   50.3061   18.8825 H   0  0  0  0  0  0
    2.7962   53.7928   21.3092 H   0  0  0  0  0  0
    4.4779   55.1580   21.4778 H   0  0  0  0  0  0
    5.4137   54.1314   20.4287 H   0  0  0  0  0  0
    6.7033   54.5798   22.4179 H   0  0  0  0  0  0
    6.2476   52.9197   22.5364 H   0  0  0  0  0  0
    3.2032   53.9219   23.6413 H   0  0  0  0  0  0
    2.5283   54.2012   25.9116 H   0  0  0  0  0  0
    7.3239   54.4436   24.7625 H   0  0  0  0  0  0
    7.8629   53.9899   28.8931 H   0  0  0  0  0  0
    6.2200   53.3949   28.7271 H   0  0  0  0  0  0
    7.4846   52.8267   27.6276 H   0  0  0  0  0  0
    2.7661   54.8032   29.5040 H   0  0  0  0  0  0
    2.3757   53.6706   28.2143 H   0  0  0  0  0  0
    2.2526   55.4251   27.9415 H   0  0  0  0  0  0
    3.2016   55.4531   17.4672 H   0  0  0  0  0  0
    3.1479   53.7795   17.0081 H   0  0  0  0  0  0
    3.4102   55.0139   15.7619 H   0  0  0  0  0  0
  1  2  1  0  0  0
  1 36  1  0  0  0
  1 37  1  0  0  0
  1 38  1  0  0  0
  2  7  2  0  0  0
  2  3  1  0  0  0
  3  4  2  0  0  0
  3 39  1  0  0  0
  4  5  1  0  0  0
  4 35  1  0  0  0
  5  6  2  0  0  0
  5  9  1  0  0  0
  6  7  1  0  0  0
  6  8  1  0  0  0
  7 40  1  0  0  0
  8 41  1  0  0  0
  8 42  1  0  0  0
  8 43  1  0  0  0
  9 10  2  0  0  0
  9 11  2  0  0  0
  9 12  1  0  0  0
 12 13  1  0  0  0
 12 44  1  0  0  0
 13 14  1  0  0  0
 13 45  1  0  0  0
 13 46  1  0  0  0
 14 19  1  0  0  0
 14 15  1  0  0  0
 14 47  1  0  0  0
 15 16  1  0  0  0
 15 48  1  0  0  0
 15 49  1  0  0  0
 16 17  1  0  0  0
 16 50  1  0  0  0
 16 51  1  0  0  0
 17 18  1  0  0  0
 17 20  1  0  0  0
 17 52  1  0  0  0
 18 19  1  0  0  0
 18 53  1  0  0  0
 18 54  1  0  0  0
 19 55  1  0  0  0
 19 56  1  0  0  0
 20 21  2  0  0  0
 20 22  1  0  0  0
 22 23  1  0  0  0
 22 57  1  0  0  0
 23 24  1  0  0  0
 23 58  1  0  0  0
 23 59  1  0  0  0
 24 25  1  0  0  0
 24 60  1  0  0  0
 24 61  1  0  0  0
 25 30  2  0  0  0
 25 26  1  0  0  0
 26 27  2  0  0  0
 26 62  1  0  0  0
 27 28  1  0  0  0
 27 63  1  0  0  0
 28 29  2  0  0  0
 28 33  1  0  0  0
 29 30  1  0  0  0
 29 31  1  0  0  0
 30 64  1  0  0  0
 31 32  1  0  0  0
 32 65  1  0  0  0
 32 66  1  0  0  0
 32 67  1  0  0  0
 33 34  1  0  0  0
 34 68  1  0  0  0
 34 69  1  0  0  0
 34 70  1  0  0  0
 35 71  1  0  0  0
 35 72  1  0  0  0
 35 73  1  0  0  0
M  END
> <i_i_glide_confnum>
159

> <i_i_glide_lignum>
3171

> <i_i_glide_posenum>
171

> <i_i_glide_rotatable_bonds>
11

> <i_m_Source_File_Index>
2569

> <b_m_subgroup_collapsed>
0

> <r_i_docking_score>
-5.21793

> <r_i_glide_ecoul>
-4.03946

> <r_i_glide_eff_state_penalty>
0

> <r_i_glide_einternal>
12.1097

> <r_i_glide_emodel>
-54.3635

> <r_i_glide_energy>
-46.0114

> <r_i_glide_erotb>
0.727865

> <r_i_glide_esite>
-0.0861434

> <r_i_glide_evdw>
-41.972

> <r_i_glide_gscore>
-5.21793

> <r_i_glide_hbond>
-0.224449

> <r_i_glide_ligand_efficiency>
-0.149084

> <r_i_glide_ligand_efficiency_ln>
-1.14545

> <r_i_glide_ligand_efficiency_sa>
-0.487663

> <r_i_glide_lipo>
-2.89788

> <r_i_glide_metal>
0

> <r_i_glide_rewards>
-0.0328001

> <s_i_glide_gridfile>
wee1_glide-grid

> <s_m_Source_File>
wee1_decoys_glide_SP.sdf

> <s_m_Source_Path>
/Users/zhangxujun/Desktop

> <s_m_entry_id>
2844

> <s_m_entry_name>
wee1_decoys_glide_SP.2569

> <s_m_subgroup_title>
wee1_decoys_glide_SP

> <s_m_subgroupid>
wee1_decoys_glide_SP


$$$$
