ZINC59310684_3038
                    3D
 Schrodinger Suite 2024-2.
 69 73  0  0  1  0            999 V2000
    1.8157   49.3415   20.6861 C   0  0  0  0  0  0
    1.5325   50.5305   21.6239 C   0  0  0  0  0  0
    2.2154   51.6105   21.6446 N   0  0  0  0  0  0
    3.3352   51.7812   20.8233 N   0  0  0  0  0  0
    4.1796   52.8507   20.9684 C   0  0  0  0  0  0
    4.9785   53.0909   21.9711 N   0  0  0  0  0  0
    5.5045   54.2683   21.6531 C   0  0  0  0  0  0
    5.1053   54.7889   20.5088 N   0  0  0  0  0  0
    4.2361   53.8757   20.0778 N   0  0  0  0  0  0
    6.7044   55.1041   22.6420 S   0  0  0  0  0  0
    6.8468   54.0319   24.1195 C   0  0  0  0  0  0
    6.1469   54.5515   25.3800 C   0  0  0  0  0  0
    5.7156   55.6971   25.4288 O   0  0  0  0  0  0
    6.0299   53.6968   26.4102 N   0  0  0  0  0  0
    5.3386   53.9781   27.6767 C   0  0  0  0  0  0
    3.8330   53.6693   27.7092 C   0  0  0  0  0  0
    3.0737   53.6717   26.5311 C   0  0  0  0  0  0
    1.7266   53.3297   26.5539 C   0  0  0  0  0  0
    1.1055   53.0045   27.7549 C   0  0  0  0  0  0
    1.8295   53.0166   28.9564 C   0  0  0  0  0  0
    3.1948   53.3550   28.9251 C   0  0  0  0  0  0
    3.9042   53.3812   30.1027 O   0  0  0  0  0  0
    4.3041   52.0968   30.5684 C   0  0  0  0  0  0
    1.2761   52.7006   30.1855 O   0  0  0  0  0  0
   -0.0808   52.2678   30.2513 C   0  0  0  0  0  0
    0.3413   50.3440   22.6184 C   0  0  0  0  0  0
   -0.9143   49.7156   21.9215 C   0  0  0  0  0  0
   -2.0646   49.5073   22.9440 C   0  0  1  0  0  0
   -1.5805   48.5529   24.0683 C   0  0  0  0  0  0
   -0.3620   49.1755   24.7953 C   0  0  1  0  0  0
    0.7880   49.3987   23.7786 C   0  0  0  0  0  0
   -0.7714   50.5370   25.4089 C   0  0  0  0  0  0
   -1.2517   51.4947   24.2868 C   0  0  2  0  0  0
   -2.4690   50.8714   23.5604 C   0  0  0  0  0  0
   -0.1063   51.7063   23.2619 C   0  0  0  0  0  0
    1.9790   48.4278   21.2553 H   0  0  0  0  0  0
    0.9853   49.1704   20.0014 H   0  0  0  0  0  0
    2.7002   49.4692   20.0638 H   0  0  0  0  0  0
    3.5575   50.9932   20.2285 H   0  0  0  0  0  0
    6.5122   53.0280   23.8928 H   0  0  0  0  0  0
    7.9043   53.9547   24.3532 H   0  0  0  0  0  0
    6.3066   52.7349   26.2681 H   0  0  0  0  0  0
    5.8285   53.3266   28.4004 H   0  0  0  0  0  0
    5.5124   54.9908   28.0482 H   0  0  0  0  0  0
    3.5160   53.9193   25.5787 H   0  0  0  0  0  0
    1.1575   53.3294   25.6376 H   0  0  0  0  0  0
    0.0566   52.7501   27.7308 H   0  0  0  0  0  0
    4.6790   52.1632   31.5896 H   0  0  0  0  0  0
    3.4865   51.3774   30.5790 H   0  0  0  0  0  0
    5.1008   51.6967   29.9428 H   0  0  0  0  0  0
   -0.3291   52.0234   31.2817 H   0  0  0  0  0  0
   -0.7665   53.0487   29.9231 H   0  0  0  0  0  0
   -0.2515   51.3699   29.6555 H   0  0  0  0  0  0
   -0.6791   48.7464   21.4792 H   0  0  0  0  0  0
   -1.2552   50.3505   21.1010 H   0  0  0  0  0  0
   -2.9265   49.0672   22.4409 H   0  0  0  0  0  0
   -2.3869   48.3704   24.7794 H   0  0  0  0  0  0
   -1.3162   47.5799   23.6531 H   0  0  0  0  0  0
   -0.0238   48.5053   25.5873 H   0  0  0  0  0  0
    1.6594   49.8047   24.2951 H   0  0  0  0  0  0
    1.1026   48.4357   23.3863 H   0  0  0  0  0  0
    0.0736   50.9660   25.9461 H   0  0  0  0  0  0
   -1.5563   50.3950   26.1541 H   0  0  0  0  0  0
   -1.5343   52.4538   24.7223 H   0  0  0  0  0  0
   -3.2979   50.7406   24.2581 H   0  0  0  0  0  0
   -2.8326   51.5449   22.7838 H   0  0  0  0  0  0
   -0.4286   52.4050   22.4878 H   0  0  0  0  0  0
    0.7335   52.1861   23.7649 H   0  0  0  0  0  0
    3.6954   53.9605   19.2294 H   0  0  0  0  0  0
  1  2  1  0  0  0
  1 36  1  0  0  0
  1 37  1  0  0  0
  1 38  1  0  0  0
  2  3  2  0  0  0
  2 26  1  0  0  0
  3  4  1  0  0  0
  4  5  1  0  0  0
  4 39  1  0  0  0
  5  9  1  0  0  0
  5  6  2  0  0  0
  6  7  1  0  0  0
  7  8  2  0  0  0
  7 10  1  0  0  0
  8  9  1  0  0  0
  9 69  1  0  0  0
 10 11  1  0  0  0
 11 12  1  0  0  0
 11 40  1  0  0  0
 11 41  1  0  0  0
 12 13  2  0  0  0
 12 14  1  0  0  0
 14 15  1  0  0  0
 14 42  1  0  0  0
 15 16  1  0  0  0
 15 43  1  0  0  0
 15 44  1  0  0  0
 16 21  2  0  0  0
 16 17  1  0  0  0
 17 18  2  0  0  0
 17 45  1  0  0  0
 18 19  1  0  0  0
 18 46  1  0  0  0
 19 20  2  0  0  0
 19 47  1  0  0  0
 20 21  1  0  0  0
 20 24  1  0  0  0
 21 22  1  0  0  0
 22 23  1  0  0  0
 23 48  1  0  0  0
 23 49  1  0  0  0
 23 50  1  0  0  0
 24 25  1  0  0  0
 25 51  1  0  0  0
 25 52  1  0  0  0
 25 53  1  0  0  0
 26 31  1  0  0  0
 26 35  1  0  0  0
 26 27  1  0  0  0
 27 28  1  0  0  0
 27 54  1  0  0  0
 27 55  1  0  0  0
 28 34  1  0  0  0
 28 29  1  0  0  0
 28 56  1  0  0  0
 29 30  1  0  0  0
 29 57  1  0  0  0
 29 58  1  0  0  0
 30 31  1  0  0  0
 30 32  1  0  0  0
 30 59  1  0  0  0
 31 60  1  0  0  0
 31 61  1  0  0  0
 32 33  1  0  0  0
 32 62  1  0  0  0
 32 63  1  0  0  0
 33 34  1  0  0  0
 33 35  1  0  0  0
 33 64  1  0  0  0
 34 65  1  0  0  0
 34 66  1  0  0  0
 35 67  1  0  0  0
 35 68  1  0  0  0
M  END
> <i_i_glide_confnum>
49

> <i_i_glide_lignum>
3039

> <i_i_glide_posenum>
276

> <i_i_glide_rotatable_bonds>
11

> <i_m_Source_File_Index>
3736

> <b_m_subgroup_collapsed>
0

> <r_i_docking_score>
-5.69736

> <r_i_glide_ecoul>
-5.32628

> <r_i_glide_eff_state_penalty>
0

> <r_i_glide_einternal>
5.88772

> <r_i_glide_emodel>
-68.149

> <r_i_glide_energy>
-52.5963

> <r_i_glide_erotb>
0.656599

> <r_i_glide_esite>
-0.0190572

> <r_i_glide_evdw>
-47.2701

> <r_i_glide_gscore>
-5.69736

> <r_i_glide_hbond>
-0.191121

> <r_i_glide_ligand_efficiency>
-0.162782

> <r_i_glide_ligand_efficiency_ln>
-1.2507

> <r_i_glide_ligand_efficiency_sa>
-0.53247

> <r_i_glide_lipo>
-2.0942

> <r_i_glide_metal>
0

> <r_i_glide_rewards>
-0.887137

> <s_i_glide_gridfile>
wee1_glide-grid

> <s_m_Source_File>
wee1_decoys_glide_SP.sdf

> <s_m_Source_Path>
/Users/zhangxujun/Desktop

> <s_m_entry_id>
4011

> <s_m_entry_name>
wee1_decoys_glide_SP.3736

> <s_m_subgroup_title>
wee1_decoys_glide_SP

> <s_m_subgroupid>
wee1_decoys_glide_SP


$$$$
