ZINC12099555_3654
                    3D
 Schrodinger Suite 2024-2.
 67 70  0  0  1  0            999 V2000
    4.7310   54.0268   26.5723 C   0  0  0  0  0  0
    3.5854   53.5059   27.1725 C   0  0  0  0  0  0
    2.3661   53.4273   26.4756 C   0  0  0  0  0  0
    2.3289   53.9644   25.1801 C   0  0  0  0  0  0
    3.4636   54.4957   24.5842 C   0  0  0  0  0  0
    4.6919   54.4848   25.2521 C   0  0  0  0  0  0
    5.9526   55.0037   24.5909 C   0  0  0  0  0  0
    6.7390   55.6614   25.2799 O   0  0  0  0  0  0
    6.1625   54.7631   23.2617 N   0  0  0  0  0  0
    7.2964   55.3792   22.5499 C   0  0  0  0  0  0
    6.7379   56.0440   21.2753 C   0  0  0  0  0  0
    5.9682   55.0536   20.3890 C   0  0  0  0  0  0
    4.9410   54.2077   21.1823 C   0  0  2  0  0  0
    4.1409   54.8965   21.4574 H   0  0  0  0  0  0
    5.5257   53.6564   22.5177 C   0  0  0  0  0  0
    4.3320   53.0853   20.3127 C   0  0  0  0  0  0
    5.3151   52.0967   20.0818 O   0  0  0  0  0  0
    1.2025   52.9033   27.0577 N   0  0  0  0  0  0
    0.2543   52.1426   26.2092 C   0  0  0  0  0  0
   -1.1574   52.0104   26.8125 C   0  0  0  0  0  0
   -1.0965   51.3145   28.1735 C   0  0  0  0  0  0
   -0.1587   52.1370   29.0665 C   0  0  0  0  0  0
    1.2301   52.3384   28.4257 C   0  0  0  0  0  0
   -3.6130   50.4962   28.2077 C   0  0  0  0  0  0
   -4.9150   50.5928   28.9853 C   0  0  0  0  0  0
   -5.1457   49.7353   30.0687 C   0  0  0  0  0  0
   -6.3587   49.7843   30.7708 C   0  0  0  0  0  0
   -7.3325   50.7138   30.3838 C   0  0  0  0  0  0
   -7.1043   51.5707   29.3080 C   0  0  0  0  0  0
   -5.9043   51.5053   28.6044 C   0  0  0  0  0  0
   -5.7056   52.3303   27.5511 F   0  0  0  0  0  0
   -6.6285   48.8160   31.9232 C   0  0  0  0  0  0
   -6.0958   47.6179   31.6779 F   0  0  0  0  0  0
   -6.0959   49.3053   33.0415 F   0  0  0  0  0  0
   -7.9367   48.6446   32.1237 F   0  0  0  0  0  0
    5.6568   54.0383   27.1312 H   0  0  0  0  0  0
    3.6846   53.1335   28.1795 H   0  0  0  0  0  0
    1.4142   54.0126   24.6124 H   0  0  0  0  0  0
    3.3730   54.9033   23.5892 H   0  0  0  0  0  0
    7.9856   54.5806   22.2759 H   0  0  0  0  0  0
    7.8508   56.0966   23.1560 H   0  0  0  0  0  0
    7.5644   56.4672   20.7033 H   0  0  0  0  0  0
    6.1012   56.8888   21.5312 H   0  0  0  0  0  0
    6.7059   54.3843   19.9465 H   0  0  0  0  0  0
    5.4959   55.5475   19.5383 H   0  0  0  0  0  0
    4.7767   53.1024   23.0782 H   0  0  0  0  0  0
    6.3044   52.9260   22.3095 H   0  0  0  0  0  0
    3.9679   53.4773   19.3619 H   0  0  0  0  0  0
    3.4787   52.6248   20.8120 H   0  0  0  0  0  0
    5.1045   51.5445   19.3047 H   0  0  0  0  0  0
    0.1236   52.5946   25.2291 H   0  0  0  0  0  0
    0.6811   51.1543   26.0272 H   0  0  0  0  0  0
   -1.6275   52.9932   26.8830 H   0  0  0  0  0  0
   -1.8074   51.4582   26.1341 H   0  0  0  0  0  0
   -0.6506   50.3279   28.0793 H   0  0  0  0  0  0
   -0.0760   51.6759   30.0521 H   0  0  0  0  0  0
   -0.5761   53.1206   29.2887 H   0  0  0  0  0  0
    1.7867   51.3994   28.4121 H   0  0  0  0  0  0
    1.7707   53.0233   29.0796 H   0  0  0  0  0  0
   -3.7137   50.8868   27.1951 H   0  0  0  0  0  0
   -3.2956   49.4567   28.1340 H   0  0  0  0  0  0
   -4.3817   49.0227   30.3573 H   0  0  0  0  0  0
   -8.2758   50.7703   30.9089 H   0  0  0  0  0  0
   -7.8645   52.2762   29.0068 H   0  0  0  0  0  0
   -2.4737   51.2967   28.8660 N   0  3  0  0  0  0
   -2.3376   50.9539   29.8100 H   0  0  0  0  0  0
   -2.7830   52.2511   28.9514 H   0  0  0  0  0  0
  1  6  2  0  0  0
  1  2  1  0  0  0
  1 36  1  0  0  0
  2  3  2  0  0  0
  2 37  1  0  0  0
  3  4  1  0  0  0
  3 18  1  0  0  0
  4  5  2  0  0  0
  4 38  1  0  0  0
  5  6  1  0  0  0
  5 39  1  0  0  0
  6  7  1  0  0  0
  7  8  2  0  0  0
  7  9  1  0  0  0
  9 15  1  0  0  0
  9 10  1  0  0  0
 10 11  1  0  0  0
 10 40  1  0  0  0
 10 41  1  0  0  0
 11 12  1  0  0  0
 11 42  1  0  0  0
 11 43  1  0  0  0
 12 13  1  0  0  0
 12 44  1  0  0  0
 12 45  1  0  0  0
 13 14  1  0  0  0
 13 15  1  0  0  0
 13 16  1  0  0  0
 15 46  1  0  0  0
 15 47  1  0  0  0
 16 17  1  0  0  0
 16 48  1  0  0  0
 16 49  1  0  0  0
 17 50  1  0  0  0
 18 23  1  0  0  0
 18 19  1  0  0  0
 19 20  1  0  0  0
 19 51  1  0  0  0
 19 52  1  0  0  0
 20 21  1  0  0  0
 20 53  1  0  0  0
 20 54  1  0  0  0
 21 22  1  0  0  0
 21 55  1  0  0  0
 21 65  1  0  0  0
 22 23  1  0  0  0
 22 56  1  0  0  0
 22 57  1  0  0  0
 23 58  1  0  0  0
 23 59  1  0  0  0
 24 25  1  0  0  0
 24 60  1  0  0  0
 24 61  1  0  0  0
 24 65  1  0  0  0
 25 30  2  0  0  0
 25 26  1  0  0  0
 26 27  2  0  0  0
 26 62  1  0  0  0
 27 28  1  0  0  0
 27 32  1  0  0  0
 28 29  2  0  0  0
 28 63  1  0  0  0
 29 30  1  0  0  0
 29 64  1  0  0  0
 30 31  1  0  0  0
 32 33  1  0  0  0
 32 34  1  0  0  0
 32 35  1  0  0  0
 65 66  1  0  0  0
 65 67  1  0  0  0
M  CHG  1  65   1
M  END
> <i_i_glide_confnum>
150

> <i_i_glide_lignum>
3655

> <i_i_glide_posenum>
342

> <i_i_glide_rotatable_bonds>
9

> <i_m_Source_File_Index>
3764

> <b_m_subgroup_collapsed>
0

> <r_i_docking_score>
-6.45582

> <r_i_glide_ecoul>
-9.38974

> <r_i_glide_eff_state_penalty>
0

> <r_i_glide_einternal>
5.06426

> <r_i_glide_emodel>
-62.8364

> <r_i_glide_energy>
-44.4573

> <r_i_glide_erotb>
0.583276

> <r_i_glide_esite>
-0.0956276

> <r_i_glide_evdw>
-35.0675

> <r_i_glide_gscore>
-6.45582

> <r_i_glide_hbond>
-0.435176

> <r_i_glide_ligand_efficiency>
-0.184452

> <r_i_glide_ligand_efficiency_ln>
-1.4172

> <r_i_glide_ligand_efficiency_sa>
-0.603355

> <r_i_glide_lipo>
-2.16078

> <r_i_glide_metal>
0

> <r_i_glide_rewards>
-1.18568

> <s_i_glide_gridfile>
wee1_glide-grid

> <s_m_Source_File>
wee1_decoys_glide_SP.sdf

> <s_m_Source_Path>
/Users/zhangxujun/Desktop

> <s_m_entry_id>
4039

> <s_m_entry_name>
wee1_decoys_glide_SP.3764

> <s_m_subgroup_title>
wee1_decoys_glide_SP

> <s_m_subgroupid>
wee1_decoys_glide_SP


$$$$
