ZINC02848209_5604
                    3D
 Schrodinger Suite 2024-2.
 51 55  0  0  1  0            999 V2000
    3.9042   52.0970   30.0184 C   0  0  0  0  0  0
    3.8374   53.5854   29.6170 C   0  0  1  0  0  0
    4.3046   54.1594   30.4166 H   0  0  0  0  0  0
    4.6551   53.8701   28.3630 C   0  0  0  0  0  0
    4.2489   54.0561   27.1368 N   0  0  0  0  0  0
    5.3826   54.1734   26.4689 C   0  0  0  0  0  0
    6.4814   54.1073   27.1951 N   0  0  0  0  0  0
    6.0042   53.8757   28.4816 O   0  0  0  0  0  0
    5.4205   54.3227   24.9736 C   0  0  0  0  0  0
    6.6069   54.6856   24.3253 C   0  0  0  0  0  0
    6.6575   54.7789   22.9393 C   0  0  0  0  0  0
    5.5156   54.4967   22.1798 C   0  0  0  0  0  0
    4.3353   54.1070   22.8117 C   0  0  0  0  0  0
    4.2812   54.0550   24.2023 C   0  0  0  0  0  0
    5.5045   54.5911   20.7818 N   0  0  0  0  0  0
    6.1175   55.5367   20.0355 C   0  0  0  0  0  0
    6.7199   56.5077   20.5049 O   0  0  0  0  0  0
    5.9674   55.3790   18.5423 C   0  0  0  0  0  0
    5.9594   56.5277   17.7188 C   0  0  0  0  0  0
    5.8305   56.4254   16.3272 C   0  0  0  0  0  0
    5.7107   55.1524   15.7839 C   0  0  0  0  0  0
    5.7254   54.0330   16.5649 C   0  0  0  0  0  0
    5.8556   54.1020   17.9469 C   0  0  0  0  0  0
    5.6416   52.9316   15.7746 O   0  0  0  0  0  0
    5.3478   53.4099   14.4899 C   0  0  0  0  0  0
    5.6077   54.7892   14.4782 O   0  0  0  0  0  0
    2.5165   54.1533   29.5417 O   0  0  0  0  0  0
    1.4534   53.3672   29.1453 C   0  0  0  0  0  0
    1.1498   53.2347   27.7865 C   0  0  0  0  0  0
    0.0401   52.4971   27.3757 C   0  0  0  0  0  0
   -0.7925   51.9053   28.3225 C   0  0  0  0  0  0
   -0.4955   52.0221   29.6797 C   0  0  0  0  0  0
    0.6202   52.7518   30.0935 C   0  0  0  0  0  0
    0.9315   52.8964   31.7852 Cl  0  0  0  0  0  0
   -2.2223   51.0860   27.8133 Cl  0  0  0  0  0  0
    4.9369   51.7589   30.1005 H   0  0  0  0  0  0
    3.4379   51.9285   30.9877 H   0  0  0  0  0  0
    3.4129   51.4596   29.2822 H   0  0  0  0  0  0
    7.5047   54.8944   24.8864 H   0  0  0  0  0  0
    7.5856   55.0650   22.4665 H   0  0  0  0  0  0
    3.4482   53.8851   22.2353 H   0  0  0  0  0  0
    3.3544   53.7637   24.6749 H   0  0  0  0  0  0
    4.8931   53.9533   20.2952 H   0  0  0  0  0  0
    6.0510   57.5137   18.1542 H   0  0  0  0  0  0
    5.8283   57.3102   15.7077 H   0  0  0  0  0  0
    5.8837   53.1888   18.5254 H   0  0  0  0  0  0
    5.9572   52.8976   13.7448 H   0  0  0  0  0  0
    4.2906   53.2381   14.2800 H   0  0  0  0  0  0
    1.7524   53.7267   27.0410 H   0  0  0  0  0  0
   -0.1931   52.4130   26.3244 H   0  0  0  0  0  0
   -1.1379   51.5545   30.4147 H   0  0  0  0  0  0
  1  2  1  0  0  0
  1 36  1  0  0  0
  1 37  1  0  0  0
  1 38  1  0  0  0
  2  3  1  0  0  0
  2  4  1  0  0  0
  2 27  1  0  0  0
  4  8  1  0  0  0
  4  5  2  0  0  0
  5  6  1  0  0  0
  6  7  2  0  0  0
  6  9  1  0  0  0
  7  8  1  0  0  0
  9 14  2  0  0  0
  9 10  1  0  0  0
 10 11  2  0  0  0
 10 39  1  0  0  0
 11 12  1  0  0  0
 11 40  1  0  0  0
 12 13  2  0  0  0
 12 15  1  0  0  0
 13 14  1  0  0  0
 13 41  1  0  0  0
 14 42  1  0  0  0
 15 16  1  0  0  0
 15 43  1  0  0  0
 16 17  2  0  0  0
 16 18  1  0  0  0
 18 23  2  0  0  0
 18 19  1  0  0  0
 19 20  2  0  0  0
 19 44  1  0  0  0
 20 21  1  0  0  0
 20 45  1  0  0  0
 21 26  1  0  0  0
 21 22  2  0  0  0
 22 23  1  0  0  0
 22 24  1  0  0  0
 23 46  1  0  0  0
 24 25  1  0  0  0
 25 26  1  0  0  0
 25 47  1  0  0  0
 25 48  1  0  0  0
 27 28  1  0  0  0
 28 33  2  0  0  0
 28 29  1  0  0  0
 29 30  2  0  0  0
 29 49  1  0  0  0
 30 31  1  0  0  0
 30 50  1  0  0  0
 31 32  2  0  0  0
 31 35  1  0  0  0
 32 33  1  0  0  0
 32 51  1  0  0  0
 33 34  1  0  0  0
M  END
> <i_i_glide_confnum>
34

> <i_i_glide_lignum>
5605

> <i_i_glide_posenum>
165

> <i_i_glide_rotatable_bonds>
7

> <i_m_Source_File_Index>
4993

> <b_m_subgroup_collapsed>
0

> <r_i_docking_score>
-5.65466

> <r_i_glide_ecoul>
-2.07734

> <r_i_glide_eff_state_penalty>
0

> <r_i_glide_einternal>
9.93264

> <r_i_glide_emodel>
-65.5559

> <r_i_glide_energy>
-53.8761

> <r_i_glide_erotb>
0.575217

> <r_i_glide_esite>
-0.0027642

> <r_i_glide_evdw>
-51.7987

> <r_i_glide_gscore>
-5.65466

> <r_i_glide_hbond>
-0.257283

> <r_i_glide_ligand_efficiency>
-0.166314

> <r_i_glide_ligand_efficiency_ln>
-1.24927

> <r_i_glide_ligand_efficiency_sa>
-0.538791

> <r_i_glide_lipo>
-2.57286

> <r_i_glide_metal>
0

> <r_i_glide_rewards>
-0.495434

> <s_i_glide_gridfile>
wee1_glide-grid

> <s_m_Source_File>
wee1_decoys_glide_SP.sdf

> <s_m_Source_Path>
/Users/zhangxujun/Desktop

> <s_m_entry_id>
5268

> <s_m_entry_name>
wee1_decoys_glide_SP.4993

> <s_m_subgroup_title>
wee1_decoys_glide_SP

> <s_m_subgroupid>
wee1_decoys_glide_SP


$$$$
