ZINC16633604_872
                    3D
 Schrodinger Suite 2024-2.
 55 57  0  0  1  0            999 V2000
    4.6113   52.4081   19.7533 C   0  0  0  0  0  0
    3.8077   53.9204   17.8933 C   0  0  0  0  0  0
    5.0283   53.9956   16.9492 C   0  0  0  0  0  0
    5.2432   55.0454   16.3454 O   0  0  0  0  0  0
    5.7960   52.8965   16.8321 N   0  0  0  0  0  0
    6.9290   52.7937   16.0164 C   0  0  0  0  0  0
    6.8297   51.9886   14.8776 C   0  0  0  0  0  0
    7.9360   51.7976   14.0503 C   0  0  0  0  0  0
    9.1521   52.4035   14.3623 C   0  0  0  0  0  0
    9.2627   53.1945   15.5056 C   0  0  0  0  0  0
    8.1617   53.3900   16.3424 C   0  0  0  0  0  0
    8.4179   54.4184   17.9286 Br  0  0  0  0  0  0
    5.1465   54.9227   19.7996 C   0  0  0  0  0  0
    5.5645   54.8914   21.2812 C   0  0  0  0  0  0
    6.7066   55.2668   21.5368 O   0  0  0  0  0  0
    4.6595   54.4967   22.2069 N   0  0  0  0  0  0
    4.8005   54.4194   23.5986 C   0  0  0  0  0  0
    3.7637   54.0818   24.4996 C   0  0  0  0  0  0
    4.2593   54.0982   25.8464 C   0  0  0  0  0  0
    5.6202   54.4381   25.9292 C   0  0  0  0  0  0
    6.3152   54.7494   24.3956 S   0  0  0  0  0  0
    6.4335   54.5847   27.2045 C   0  0  0  0  0  0
    5.7131   53.8474   28.3424 C   0  0  0  0  0  0
    4.2253   54.2220   28.4022 C   0  0  0  0  0  0
    3.4537   53.8136   27.1262 C   0  0  0  0  0  0
    2.3896   53.7458   24.0500 C   0  0  0  0  0  0
    2.0063   53.8840   22.8831 O   0  0  0  0  0  0
    1.6173   53.2524   25.0395 O   0  0  0  0  0  0
    0.2840   52.8344   24.7827 C   0  0  0  0  0  0
    5.6380   52.2568   19.4194 H   0  0  0  0  0  0
    4.5401   52.2963   20.8334 H   0  0  0  0  0  0
    3.9279   51.6985   19.2808 H   0  0  0  0  0  0
    3.1582   53.0744   17.6627 H   0  0  0  0  0  0
    3.2005   54.8246   17.8131 H   0  0  0  0  0  0
    5.5030   52.0282   17.2773 H   0  0  0  0  0  0
    5.8950   51.5030   14.6328 H   0  0  0  0  0  0
    7.8531   51.1746   13.1720 H   0  0  0  0  0  0
   10.0116   52.2501   13.7256 H   0  0  0  0  0  0
   10.2117   53.6465   15.7547 H   0  0  0  0  0  0
    4.7049   55.8778   19.5220 H   0  0  0  0  0  0
    6.0482   54.7924   19.2083 H   0  0  0  0  0  0
    3.7262   54.2686   21.8916 H   0  0  0  0  0  0
    6.5358   55.6400   27.4617 H   0  0  0  0  0  0
    7.4438   54.1916   27.0860 H   0  0  0  0  0  0
    6.2017   54.0994   29.2817 H   0  0  0  0  0  0
    5.8203   52.7681   28.2177 H   0  0  0  0  0  0
    4.1318   55.2966   28.5560 H   0  0  0  0  0  0
    3.7602   53.7588   29.2738 H   0  0  0  0  0  0
    3.2193   52.7495   27.1760 H   0  0  0  0  0  0
    2.4989   54.3398   27.1207 H   0  0  0  0  0  0
   -0.1833   52.4966   25.7076 H   0  0  0  0  0  0
   -0.3139   53.6522   24.3776 H   0  0  0  0  0  0
    0.2650   52.0071   24.0712 H   0  0  0  0  0  0
    4.1759   53.8456   19.3614 N   0  3  2  0  0  0
    3.2918   54.0211   19.8300 H   0  0  0  0  0  0
  1 30  1  0  0  0
  1 31  1  0  0  0
  1 32  1  0  0  0
  1 54  1  0  0  0
  2  3  1  0  0  0
  2 33  1  0  0  0
  2 34  1  0  0  0
  2 54  1  0  0  0
  3  4  2  0  0  0
  3  5  1  0  0  0
  5  6  1  0  0  0
  5 35  1  0  0  0
  6 11  2  0  0  0
  6  7  1  0  0  0
  7  8  2  0  0  0
  7 36  1  0  0  0
  8  9  1  0  0  0
  8 37  1  0  0  0
  9 10  2  0  0  0
  9 38  1  0  0  0
 10 11  1  0  0  0
 10 39  1  0  0  0
 11 12  1  0  0  0
 13 14  1  0  0  0
 13 40  1  0  0  0
 13 41  1  0  0  0
 13 54  1  0  0  0
 14 15  2  0  0  0
 14 16  1  0  0  0
 16 17  1  0  0  0
 16 42  1  0  0  0
 17 21  1  0  0  0
 17 18  2  0  0  0
 18 19  1  0  0  0
 18 26  1  0  0  0
 19 25  1  0  0  0
 19 20  2  0  0  0
 20 21  1  0  0  0
 20 22  1  0  0  0
 22 23  1  0  0  0
 22 43  1  0  0  0
 22 44  1  0  0  0
 23 24  1  0  0  0
 23 45  1  0  0  0
 23 46  1  0  0  0
 24 25  1  0  0  0
 24 47  1  0  0  0
 24 48  1  0  0  0
 25 49  1  0  0  0
 25 50  1  0  0  0
 26 27  2  0  0  0
 26 28  1  0  0  0
 28 29  1  0  0  0
 29 51  1  0  0  0
 29 52  1  0  0  0
 29 53  1  0  0  0
 54 55  1  0  0  0
M  CHG  1  54   1
M  END
> <i_i_glide_confnum>
208

> <i_i_glide_lignum>
873

> <i_i_glide_posenum>
228

> <i_i_glide_rotatable_bonds>
10

> <i_m_Source_File_Index>
5014

> <b_m_subgroup_collapsed>
0

> <r_i_docking_score>
-5.80462

> <r_i_glide_ecoul>
-5.48842

> <r_i_glide_eff_state_penalty>
0

> <r_i_glide_einternal>
13.5312

> <r_i_glide_emodel>
-59.4188

> <r_i_glide_energy>
-44.2178

> <r_i_glide_erotb>
0.664467

> <r_i_glide_esite>
-0.104401

> <r_i_glide_evdw>
-38.7294

> <r_i_glide_gscore>
-5.80462

> <r_i_glide_hbond>
-0.16

> <r_i_glide_ligand_efficiency>
-0.193487

> <r_i_glide_ligand_efficiency_ln>
-1.31887

> <r_i_glide_ligand_efficiency_sa>
-0.60121

> <r_i_glide_lipo>
-2.67017

> <r_i_glide_metal>
0

> <r_i_glide_rewards>
-0.774778

> <s_i_glide_gridfile>
wee1_glide-grid

> <s_m_Source_File>
wee1_decoys_glide_SP.sdf

> <s_m_Source_Path>
/Users/zhangxujun/Desktop

> <s_m_entry_id>
5289

> <s_m_entry_name>
wee1_decoys_glide_SP.5014

> <s_m_subgroup_title>
wee1_decoys_glide_SP

> <s_m_subgroupid>
wee1_decoys_glide_SP


$$$$
