ZINC14990849_4427
                    3D
 Schrodinger Suite 2024-2.
 52 55  0  0  1  0            999 V2000
    2.8242   53.5705   22.3724 C   0  0  0  0  0  0
    4.1635   54.0965   22.8703 C   0  0  0  0  0  0
    5.2081   54.4924   21.9473 C   0  0  0  0  0  0
    5.3110   54.5459   20.5229 C   0  0  0  0  0  0
    6.4654   54.9441   19.9212 N   0  0  0  0  0  0
    7.4847   55.3375   20.7092 C   0  0  0  0  0  0
    7.5044   55.3499   22.0601 N   0  0  0  0  0  0
    6.3849   54.9126   22.6364 C   0  0  0  0  0  0
    6.2210   54.8443   24.3691 S   0  0  0  0  0  0
    4.5459   54.3088   24.2144 C   0  0  0  0  0  0
    3.7491   54.0966   25.4250 C   0  0  0  0  0  0
    2.6347   53.5804   25.3810 O   0  0  0  0  0  0
    4.3072   54.4969   26.5874 N   0  0  0  0  0  0
    3.7853   54.2467   27.9378 C   0  0  2  0  0  0
    4.1039   52.8262   28.4643 C   0  0  0  0  0  0
    3.5827   52.5497   29.8846 C   0  0  0  0  0  0
    2.0832   52.8629   30.0018 C   0  0  2  0  0  0
    1.8463   54.3534   29.6867 C   0  0  0  0  0  0
    2.3380   54.7306   28.2658 C   0  0  0  0  0  0
    1.6112   52.4974   31.2810 O   0  0  0  0  0  0
    4.2325   54.1913   19.6901 N   0  0  0  0  0  0
    4.2950   54.1924   18.2251 C   0  0  1  0  0  0
    5.3137   53.9634   17.9061 H   0  0  0  0  0  0
    3.4092   53.0682   17.6652 C   0  0  0  0  0  0
    3.9285   55.5421   17.6069 C   0  0  0  0  0  0
    2.7779   55.9387   16.9119 C   0  0  0  0  0  0
    2.7791   57.2690   16.4816 C   0  0  0  0  0  0
    3.9372   57.9342   16.8304 C   0  0  0  0  0  0
    5.0283   56.8983   17.6838 S   0  0  0  0  0  0
    2.1681   54.3885   22.0818 H   0  0  0  0  0  0
    2.9288   52.9013   21.5191 H   0  0  0  0  0  0
    2.2776   52.9794   23.1029 H   0  0  0  0  0  0
    8.3903   55.6569   20.2106 H   0  0  0  0  0  0
    5.2977   54.6810   26.5492 H   0  0  0  0  0  0
    4.4039   54.8924   28.5655 H   0  0  0  0  0  0
    5.1773   52.6337   28.4231 H   0  0  0  0  0  0
    3.6231   52.1053   27.8025 H   0  0  0  0  0  0
    3.7846   51.5153   30.1627 H   0  0  0  0  0  0
    4.1426   53.1640   30.5913 H   0  0  0  0  0  0
    1.5550   52.2628   29.2577 H   0  0  0  0  0  0
    0.7896   54.6010   29.7958 H   0  0  0  0  0  0
    2.3735   54.9709   30.4169 H   0  0  0  0  0  0
    1.6371   54.2670   27.5720 H   0  0  0  0  0  0
    2.2573   55.8088   28.1221 H   0  0  0  0  0  0
    0.6518   52.5779   31.3114 H   0  0  0  0  0  0
    3.3048   54.2380   20.0915 H   0  0  0  0  0  0
    3.4112   53.0593   16.5744 H   0  0  0  0  0  0
    3.7743   52.0956   17.9938 H   0  0  0  0  0  0
    2.3743   53.1619   17.9974 H   0  0  0  0  0  0
    1.9479   55.2738   16.7287 H   0  0  0  0  0  0
    1.9626   57.7304   15.9449 H   0  0  0  0  0  0
    4.1979   58.9678   16.6369 H   0  0  0  0  0  0
  1  2  1  0  0  0
  1 30  1  0  0  0
  1 31  1  0  0  0
  1 32  1  0  0  0
  2 10  2  0  0  0
  2  3  1  0  0  0
  3  8  2  0  0  0
  3  4  1  0  0  0
  4  5  2  0  0  0
  4 21  1  0  0  0
  5  6  1  0  0  0
  6  7  2  0  0  0
  6 33  1  0  0  0
  7  8  1  0  0  0
  8  9  1  0  0  0
  9 10  1  0  0  0
 10 11  1  0  0  0
 11 12  2  0  0  0
 11 13  1  0  0  0
 13 14  1  0  0  0
 13 34  1  0  0  0
 14 19  1  0  0  0
 14 15  1  0  0  0
 14 35  1  0  0  0
 15 16  1  0  0  0
 15 36  1  0  0  0
 15 37  1  0  0  0
 16 17  1  0  0  0
 16 38  1  0  0  0
 16 39  1  0  0  0
 17 18  1  0  0  0
 17 20  1  0  0  0
 17 40  1  0  0  0
 18 19  1  0  0  0
 18 41  1  0  0  0
 18 42  1  0  0  0
 19 43  1  0  0  0
 19 44  1  0  0  0
 20 45  1  0  0  0
 21 22  1  0  0  0
 21 46  1  0  0  0
 22 23  1  0  0  0
 22 24  1  0  0  0
 22 25  1  0  0  0
 24 47  1  0  0  0
 24 48  1  0  0  0
 24 49  1  0  0  0
 25 29  1  0  0  0
 25 26  2  0  0  0
 26 27  1  0  0  0
 26 50  1  0  0  0
 27 28  2  0  0  0
 27 51  1  0  0  0
 28 29  1  0  0  0
 28 52  1  0  0  0
M  END
> <i_i_glide_confnum>
143

> <i_i_glide_lignum>
4428

> <i_i_glide_posenum>
235

> <i_i_glide_rotatable_bonds>
7

> <i_m_Source_File_Index>
2063

> <b_m_subgroup_collapsed>
0

> <r_i_docking_score>
-5.89057

> <r_i_glide_ecoul>
-2.94875

> <r_i_glide_eff_state_penalty>
0

> <r_i_glide_einternal>
10.2118

> <r_i_glide_emodel>
-56.7739

> <r_i_glide_energy>
-44.9631

> <r_i_glide_erotb>
0.683148

> <r_i_glide_esite>
-0.00706266

> <r_i_glide_evdw>
-42.0143

> <r_i_glide_gscore>
-5.89057

> <r_i_glide_hbond>
-0.208071

> <r_i_glide_ligand_efficiency>
-0.210378

> <r_i_glide_ligand_efficiency_ln>
-1.35972

> <r_i_glide_ligand_efficiency_sa>
-0.63883

> <r_i_glide_lipo>
-2.77301

> <r_i_glide_metal>
0

> <r_i_glide_rewards>
-1.04255

> <s_i_glide_gridfile>
wee1_glide-grid

> <s_m_Source_File>
wee1_decoys_glide_SP.sdf

> <s_m_Source_Path>
/Users/zhangxujun/Desktop

> <s_m_entry_id>
2338

> <s_m_entry_name>
wee1_decoys_glide_SP.2063

> <s_m_subgroup_title>
wee1_decoys_glide_SP

> <s_m_subgroupid>
wee1_decoys_glide_SP


$$$$
