ZINC40303825_4794
                    3D
 Schrodinger Suite 2024-2.
 31 32  0  0  1  0            999 V2000
    6.7040   53.6967   28.1942 C   0  0  0  0  0  0
    5.3428   54.1992   27.6816 C   0  0  2  0  0  0
    5.2937   55.2631   27.9293 H   0  0  0  0  0  0
    4.1619   53.5172   28.3616 C   0  0  0  0  0  0
    2.9079   53.0875   27.9373 C   0  0  0  0  0  0
    2.2756   52.4963   29.0320 C   0  0  0  0  0  0
    3.1641   52.5947   30.0861 C   0  0  0  0  0  0
    4.2997   53.2170   29.6814 O   0  0  0  0  0  0
    5.2339   54.0904   26.2249 N   0  0  0  0  0  0
    5.9206   54.8322   25.3385 C   0  0  0  0  0  0
    6.7260   55.6966   25.6824 O   0  0  0  0  0  0
    5.6555   54.5713   23.8756 C   0  0  0  0  0  0
    6.5818   55.0028   22.9157 C   0  0  0  0  0  0
    6.3026   54.8968   21.5553 C   0  0  0  0  0  0
    5.1046   54.3265   21.1283 C   0  0  0  0  0  0
    4.1790   53.8667   22.0733 C   0  0  0  0  0  0
    4.4540   53.9934   23.4352 C   0  0  0  0  0  0
    2.9695   53.2961   21.6817 N   0  0  0  0  0  0
    4.7613   54.2098   19.2550 Br  0  0  0  0  0  0
    6.8378   53.9247   29.2510 H   0  0  0  0  0  0
    6.8064   52.6188   28.0662 H   0  0  0  0  0  0
    7.5336   54.1713   27.6728 H   0  0  0  0  0  0
    2.5035   53.1836   26.9405 H   0  0  0  0  0  0
    1.2906   52.0511   29.0518 H   0  0  0  0  0  0
    3.1301   52.2893   31.1219 H   0  0  0  0  0  0
    4.8188   53.2360   25.8834 H   0  0  0  0  0  0
    7.5043   55.4731   23.2206 H   0  0  0  0  0  0
    7.0171   55.2566   20.8291 H   0  0  0  0  0  0
    3.7097   53.6660   24.1467 H   0  0  0  0  0  0
    2.2835   53.1409   22.4038 H   0  0  0  0  0  0
    2.6421   53.5672   20.7620 H   0  0  0  0  0  0
  1  2  1  0  0  0
  1 20  1  0  0  0
  1 21  1  0  0  0
  1 22  1  0  0  0
  2  3  1  0  0  0
  2  4  1  0  0  0
  2  9  1  0  0  0
  4  8  1  0  0  0
  4  5  2  0  0  0
  5  6  1  0  0  0
  5 23  1  0  0  0
  6  7  2  0  0  0
  6 24  1  0  0  0
  7  8  1  0  0  0
  7 25  1  0  0  0
  9 10  1  0  0  0
  9 26  1  0  0  0
 10 11  2  0  0  0
 10 12  1  0  0  0
 12 17  2  0  0  0
 12 13  1  0  0  0
 13 14  2  0  0  0
 13 27  1  0  0  0
 14 15  1  0  0  0
 14 28  1  0  0  0
 15 16  2  0  0  0
 15 19  1  0  0  0
 16 17  1  0  0  0
 16 18  1  0  0  0
 17 29  1  0  0  0
 18 30  1  0  0  0
 18 31  1  0  0  0
M  END
> <i_i_glide_confnum>
4

> <i_i_glide_lignum>
4795

> <i_i_glide_posenum>
138

> <i_i_glide_rotatable_bonds>
4

> <i_m_Source_File_Index>
1636

> <b_m_subgroup_collapsed>
0

> <r_i_docking_score>
-6.71023

> <r_i_glide_ecoul>
-4.44334

> <r_i_glide_eff_state_penalty>
0

> <r_i_glide_einternal>
3.22637

> <r_i_glide_emodel>
-52.2136

> <r_i_glide_energy>
-38.37

> <r_i_glide_erotb>
0.581051

> <r_i_glide_esite>
0

> <r_i_glide_evdw>
-33.9267

> <r_i_glide_gscore>
-6.71023

> <r_i_glide_hbond>
-0.442455

> <r_i_glide_ligand_efficiency>
-0.372791

> <r_i_glide_ligand_efficiency_ln>
-1.72483

> <r_i_glide_ligand_efficiency_sa>
-0.976988

> <r_i_glide_lipo>
-2.7348

> <r_i_glide_metal>
0

> <r_i_glide_rewards>
-1.75119

> <s_i_glide_gridfile>
wee1_glide-grid

> <s_m_Source_File>
wee1_decoys_glide_SP.sdf

> <s_m_Source_Path>
/Users/zhangxujun/Desktop

> <s_m_entry_id>
1911

> <s_m_entry_name>
wee1_decoys_glide_SP.1636

> <s_m_subgroup_title>
wee1_decoys_glide_SP

> <s_m_subgroupid>
wee1_decoys_glide_SP


$$$$
