ZINC13567356_5798
                    3D
 Schrodinger Suite 2024-2.
 57 60  0  0  1  0            999 V2000
    3.1859   54.0244   24.6963 C   0  0  0  0  0  0
    4.0968   54.1452   25.9118 C   0  0  0  0  0  0
    5.4699   54.3074   25.6992 C   0  0  0  0  0  0
    6.3519   54.3797   26.7759 C   0  0  0  0  0  0
    5.8675   54.2951   28.0773 C   0  0  0  0  0  0
    4.4991   54.1522   28.3028 C   0  0  0  0  0  0
    3.5994   54.0765   27.2308 C   0  0  0  0  0  0
    2.1122   53.9163   27.5457 C   0  0  0  0  0  0
    1.6907   52.1768   27.9481 S   0  0  0  0  0  0
    0.5694   51.6216   26.6323 C   0  0  0  0  0  0
    0.3139   50.3527   26.6371 N   0  0  0  0  0  0
   -0.5156   49.8799   25.6516 C   0  0  0  0  0  0
   -1.0395   50.7131   24.7072 C   0  0  0  0  0  0
   -0.6904   52.1406   24.8038 C   0  0  0  0  0  0
   -1.1759   52.8979   23.9636 O   0  0  0  0  0  0
    0.1304   52.4966   25.7959 N   0  5  0  0  0  0
   -1.8535   50.1104   23.5606 C   0  0  2  0  0  0
   -2.6253   50.8341   23.3023 H   0  0  0  0  0  0
   -2.5487   48.8093   24.0812 C   0  0  0  0  0  0
   -1.6065   47.8700   24.8939 C   0  0  0  0  0  0
   -1.6947   46.6413   24.8670 O   0  0  0  0  0  0
   -0.7301   48.5408   25.6812 N   0  0  0  0  0  0
   -1.0435   49.8842   22.2725 C   0  0  0  0  0  0
    0.2664   49.3991   22.3490 C   0  0  0  0  0  0
    1.0068   49.1635   21.2003 C   0  0  0  0  0  0
    0.4525   49.3742   19.9306 C   0  0  0  0  0  0
   -0.8556   49.8860   19.8417 C   0  0  0  0  0  0
   -1.5971   50.1497   21.0068 C   0  0  0  0  0  0
   -2.8441   50.7278   20.9158 O   0  0  0  0  0  0
   -3.9071   49.8361   20.6095 C   0  0  0  0  0  0
   -1.4241   50.1779   18.6198 O   0  0  0  0  0  0
   -1.7215   49.0543   17.7969 C   0  0  0  0  0  0
    1.1325   49.0984   18.7565 O   0  0  0  0  0  0
    2.4169   48.4854   18.8258 C   0  0  0  0  0  0
    2.4986   54.8684   24.6280 H   0  0  0  0  0  0
    3.7505   53.9623   23.7618 H   0  0  0  0  0  0
    2.5944   53.1106   24.7657 H   0  0  0  0  0  0
    5.8650   54.3598   24.6948 H   0  0  0  0  0  0
    7.4115   54.4823   26.6028 H   0  0  0  0  0  0
    6.5545   54.3469   28.9080 H   0  0  0  0  0  0
    4.1424   54.0935   29.3201 H   0  0  0  0  0  0
    1.8686   54.5230   28.4185 H   0  0  0  0  0  0
    1.5052   54.3521   26.7587 H   0  0  0  0  0  0
   -3.2841   49.0927   24.8344 H   0  0  0  0  0  0
   -3.0726   48.2584   23.2984 H   0  0  0  0  0  0
   -0.2276   47.9783   26.3581 H   0  0  0  0  0  0
    0.7287   49.1996   23.3042 H   0  0  0  0  0  0
    2.0179   48.8055   21.3247 H   0  0  0  0  0  0
   -3.9114   48.9574   21.2559 H   0  0  0  0  0  0
   -4.8582   50.3507   20.7468 H   0  0  0  0  0  0
   -3.8673   49.5029   19.5741 H   0  0  0  0  0  0
   -2.3884   49.3669   16.9919 H   0  0  0  0  0  0
   -0.8307   48.6355   17.3291 H   0  0  0  0  0  0
   -2.2259   48.2569   18.3482 H   0  0  0  0  0  0
    3.1717   49.2026   19.1500 H   0  0  0  0  0  0
    2.4232   47.6312   19.4999 H   0  0  0  0  0  0
    2.7029   48.1017   17.8477 H   0  0  0  0  0  0
  1  2  1  0  0  0
  1 35  1  0  0  0
  1 36  1  0  0  0
  1 37  1  0  0  0
  2  7  2  0  0  0
  2  3  1  0  0  0
  3  4  2  0  0  0
  3 38  1  0  0  0
  4  5  1  0  0  0
  4 39  1  0  0  0
  5  6  2  0  0  0
  5 40  1  0  0  0
  6  7  1  0  0  0
  6 41  1  0  0  0
  7  8  1  0  0  0
  8 42  1  0  0  0
  8 43  1  0  0  0
  8  9  1  0  0  0
  9 10  1  0  0  0
 10 11  2  0  0  0
 10 16  1  0  0  0
 11 12  1  0  0  0
 12 13  2  0  0  0
 12 22  1  0  0  0
 13 14  1  0  0  0
 13 17  1  0  0  0
 14 16  1  0  0  0
 14 15  2  0  0  0
 17 18  1  0  0  0
 17 19  1  0  0  0
 17 23  1  0  0  0
 19 20  1  0  0  0
 19 44  1  0  0  0
 19 45  1  0  0  0
 20 21  2  0  0  0
 20 22  1  0  0  0
 22 46  1  0  0  0
 23 28  2  0  0  0
 23 24  1  0  0  0
 24 25  2  0  0  0
 24 47  1  0  0  0
 25 26  1  0  0  0
 25 48  1  0  0  0
 26 27  2  0  0  0
 26 33  1  0  0  0
 27 28  1  0  0  0
 27 31  1  0  0  0
 28 29  1  0  0  0
 29 30  1  0  0  0
 30 49  1  0  0  0
 30 50  1  0  0  0
 30 51  1  0  0  0
 31 32  1  0  0  0
 32 52  1  0  0  0
 32 53  1  0  0  0
 32 54  1  0  0  0
 33 34  1  0  0  0
 34 55  1  0  0  0
 34 56  1  0  0  0
 34 57  1  0  0  0
M  CHG  1  16  -1
M  END
> <i_i_glide_confnum>
1

> <i_i_glide_lignum>
5799

> <i_i_glide_posenum>
144

> <i_i_glide_rotatable_bonds>
7

> <i_m_Source_File_Index>
5698

> <b_m_subgroup_collapsed>
0

> <r_i_docking_score>
-5.41936

> <r_i_glide_ecoul>
-4.79497

> <r_i_glide_eff_state_penalty>
0

> <r_i_glide_einternal>
1.68419

> <r_i_glide_emodel>
-57.633

> <r_i_glide_energy>
-42.8923

> <r_i_glide_erotb>
0.370786

> <r_i_glide_esite>
-0.168173

> <r_i_glide_evdw>
-38.0973

> <r_i_glide_gscore>
-5.41936

> <r_i_glide_hbond>
-0.321845

> <r_i_glide_ligand_efficiency>
-0.164223

> <r_i_glide_ligand_efficiency_ln>
-1.20524

> <r_i_glide_ligand_efficiency_sa>
-0.526751

> <r_i_glide_lipo>
-2.33367

> <r_i_glide_metal>
0

> <r_i_glide_rewards>
-0.342344

> <s_i_glide_gridfile>
wee1_glide-grid

> <s_m_Source_File>
wee1_decoys_glide_SP.sdf

> <s_m_Source_Path>
/Users/zhangxujun/Desktop

> <s_m_entry_id>
5973

> <s_m_entry_name>
wee1_decoys_glide_SP.5698

> <s_m_subgroup_title>
wee1_decoys_glide_SP

> <s_m_subgroupid>
wee1_decoys_glide_SP


$$$$
