ZINC35548090_981
                    3D
 Schrodinger Suite 2024-2.
 62 65  0  0  1  0            999 V2000
    6.1636   54.6846   20.0534 C   0  0  0  0  0  0
    5.6104   55.0153   21.4493 C   0  0  0  0  0  0
    5.7806   53.8690   22.4822 C   0  0  1  0  0  0
    6.8547   53.6948   22.5263 H   0  0  0  0  0  0
    5.4272   54.2255   23.9489 C   0  0  0  0  0  0
    6.3292   54.5726   24.7205 O   0  0  0  0  0  0
    4.1091   54.1444   24.2981 N   0  0  0  0  0  0
    3.0079   54.1901   23.3180 C   0  0  0  0  0  0
    2.8588   53.1520   22.2084 C   0  0  0  0  0  0
    1.5774   52.8809   21.6983 C   0  0  0  0  0  0
    1.3439   51.9897   20.6444 C   0  0  0  0  0  0
    2.4527   51.2740   20.1773 C   0  0  0  0  0  0
    3.7286   51.5009   20.6800 C   0  0  0  0  0  0
    3.9514   52.4404   21.6817 C   0  0  0  0  0  0
    5.2576   52.6002   22.0817 O   0  0  0  0  0  0
    0.0630   51.9175   20.1425 N   0  5  0  0  0  0
   -0.4325   50.9264   19.0262 S   0  0  0  0  0  0
   -1.8876   50.9727   18.8468 O   0  0  0  0  0  0
    0.1549   49.5840   19.0937 O   0  0  0  0  0  0
    0.2527   51.6937   17.5168 C   0  0  0  0  0  0
    1.4053   51.1160   16.9609 C   0  0  0  0  0  0
    2.0377   51.6820   15.8577 C   0  0  0  0  0  0
    1.5264   52.8384   15.2807 C   0  0  0  0  0  0
    0.3731   53.4192   15.8014 C   0  0  0  0  0  0
   -0.2744   52.8620   16.9120 C   0  0  0  0  0  0
   -1.4999   53.5259   17.3510 C   0  0  0  0  0  0
   -2.4747   54.0590   17.6821 N   0  0  0  0  0  0
    3.7412   54.4649   25.6941 C   0  0  0  0  0  0
    2.9866   53.3319   26.4261 C   0  0  0  0  0  0
    2.2578   53.7404   27.7152 C   0  0  0  0  0  0
    2.6207   54.8962   28.4224 C   0  0  0  0  0  0
    1.9390   55.2746   29.5763 C   0  0  0  0  0  0
    0.8921   54.4919   30.0506 C   0  0  0  0  0  0
    0.5276   53.3332   29.3690 C   0  0  0  0  0  0
    1.2044   52.9425   28.1978 C   0  0  0  0  0  0
    0.8849   51.8058   27.4772 O   0  0  0  0  0  0
   -0.2204   51.0056   27.8758 C   0  0  0  0  0  0
    5.9944   55.5126   19.3661 H   0  0  0  0  0  0
    7.2359   54.4979   20.0808 H   0  0  0  0  0  0
    5.6806   53.8042   19.6285 H   0  0  0  0  0  0
    4.5663   55.2944   21.3423 H   0  0  0  0  0  0
    6.1283   55.9042   21.8109 H   0  0  0  0  0  0
    3.0166   55.1732   22.8519 H   0  0  0  0  0  0
    2.0691   54.1610   23.8734 H   0  0  0  0  0  0
    0.7216   53.4108   22.0992 H   0  0  0  0  0  0
    2.3643   50.5353   19.4034 H   0  0  0  0  0  0
    4.5615   50.9494   20.2708 H   0  0  0  0  0  0
    1.8338   50.2119   17.3674 H   0  0  0  0  0  0
    2.9288   51.2186   15.4587 H   0  0  0  0  0  0
    2.0198   53.2787   14.4264 H   0  0  0  0  0  0
   -0.0106   54.3106   15.3214 H   0  0  0  0  0  0
    4.6121   54.7326   26.2943 H   0  0  0  0  0  0
    3.1044   55.3422   25.6429 H   0  0  0  0  0  0
    2.2449   52.9146   25.7457 H   0  0  0  0  0  0
    3.6775   52.5339   26.6924 H   0  0  0  0  0  0
    3.4385   55.5128   28.0864 H   0  0  0  0  0  0
    2.2251   56.1752   30.1023 H   0  0  0  0  0  0
    0.3640   54.7801   30.9463 H   0  0  0  0  0  0
   -0.2870   52.7474   29.7668 H   0  0  0  0  0  0
   -0.2934   50.1387   27.2194 H   0  0  0  0  0  0
   -0.0967   50.6407   28.8949 H   0  0  0  0  0  0
   -1.1582   51.5584   27.8067 H   0  0  0  0  0  0
  1  2  1  0  0  0
  1 38  1  0  0  0
  1 39  1  0  0  0
  1 40  1  0  0  0
  2  3  1  0  0  0
  2 41  1  0  0  0
  2 42  1  0  0  0
  3  4  1  0  0  0
  3 15  1  0  0  0
  3  5  1  0  0  0
  5  6  2  0  0  0
  5  7  1  0  0  0
  7  8  1  0  0  0
  7 28  1  0  0  0
  8  9  1  0  0  0
  8 43  1  0  0  0
  8 44  1  0  0  0
  9 14  2  0  0  0
  9 10  1  0  0  0
 10 11  2  0  0  0
 10 45  1  0  0  0
 11 12  1  0  0  0
 11 16  1  0  0  0
 12 13  2  0  0  0
 12 46  1  0  0  0
 13 14  1  0  0  0
 13 47  1  0  0  0
 14 15  1  0  0  0
 16 17  1  0  0  0
 17 18  2  0  0  0
 17 19  2  0  0  0
 17 20  1  0  0  0
 20 25  2  0  0  0
 20 21  1  0  0  0
 21 22  2  0  0  0
 21 48  1  0  0  0
 22 23  1  0  0  0
 22 49  1  0  0  0
 23 24  2  0  0  0
 23 50  1  0  0  0
 24 25  1  0  0  0
 24 51  1  0  0  0
 25 26  1  0  0  0
 26 27  3  0  0  0
 28 29  1  0  0  0
 28 52  1  0  0  0
 28 53  1  0  0  0
 29 30  1  0  0  0
 29 54  1  0  0  0
 29 55  1  0  0  0
 30 35  2  0  0  0
 30 31  1  0  0  0
 31 32  2  0  0  0
 31 56  1  0  0  0
 32 33  1  0  0  0
 32 57  1  0  0  0
 33 34  2  0  0  0
 33 58  1  0  0  0
 34 35  1  0  0  0
 34 59  1  0  0  0
 35 36  1  0  0  0
 36 37  1  0  0  0
 37 60  1  0  0  0
 37 61  1  0  0  0
 37 62  1  0  0  0
M  CHG  1  16  -1
M  END
> <i_i_glide_confnum>
90

> <i_i_glide_lignum>
982

> <i_i_glide_posenum>
161

> <i_i_glide_rotatable_bonds>
9

> <i_m_Source_File_Index>
4584

> <b_m_subgroup_collapsed>
0

> <r_i_docking_score>
-5.59182

> <r_i_glide_ecoul>
-6.11353

> <r_i_glide_eff_state_penalty>
0

> <r_i_glide_einternal>
9.74327

> <r_i_glide_emodel>
-57.2338

> <r_i_glide_energy>
-45.7433

> <r_i_glide_erotb>
0.481877

> <r_i_glide_esite>
-0.0280622

> <r_i_glide_evdw>
-39.6298

> <r_i_glide_gscore>
-5.59182

> <r_i_glide_hbond>
0

> <r_i_glide_ligand_efficiency>
-0.155328

> <r_i_glide_ligand_efficiency_ln>
-1.21998

> <r_i_glide_ligand_efficiency_sa>
-0.512883

> <r_i_glide_lipo>
-2.56201

> <r_i_glide_metal>
0

> <r_i_glide_rewards>
-0.585113

> <s_i_glide_gridfile>
wee1_glide-grid

> <s_m_Source_File>
wee1_decoys_glide_SP.sdf

> <s_m_Source_Path>
/Users/zhangxujun/Desktop

> <s_m_entry_id>
4859

> <s_m_entry_name>
wee1_decoys_glide_SP.4584

> <s_m_subgroup_title>
wee1_decoys_glide_SP

> <s_m_subgroupid>
wee1_decoys_glide_SP


$$$$
