ZINC32943129_3426
                    3D
 Schrodinger Suite 2024-2.
 57 60  0  0  1  0            999 V2000
   -3.0291   47.3105   21.2537 C   0  0  0  0  0  0
   -2.4152   47.5367   22.6227 C   0  0  0  0  0  0
   -2.7793   46.7238   23.7008 C   0  0  0  0  0  0
   -2.2198   46.9378   24.9635 C   0  0  0  0  0  0
   -1.2986   47.9701   25.1403 C   0  0  0  0  0  0
   -0.9640   48.8208   24.0832 C   0  0  0  0  0  0
   -1.5134   48.5862   22.8215 C   0  0  0  0  0  0
   -0.0928   49.9008   24.2691 N   0  0  0  0  0  0
   -0.3011   51.1059   25.0164 C   0  0  0  0  0  0
   -1.0772   50.8835   26.1958 N   0  0  0  0  0  0
   -1.0640   51.8309   27.3093 C   0  0  0  0  0  0
    0.0898   51.4868   28.2664 C   0  0  0  0  0  0
    0.2267   52.4749   29.3999 C   0  0  0  0  0  0
   -0.0958   52.2919   30.7273 C   0  0  0  0  0  0
    0.1651   53.4215   31.4546 N   0  0  0  0  0  0
   -0.0362   53.4720   32.4450 H   0  0  0  0  0  0
    0.6791   54.3889   30.6254 C   0  0  0  0  0  0
    0.7612   53.8028   29.3262 C   0  0  0  0  0  0
    1.3128   54.5611   28.2901 C   0  0  0  0  0  0
    1.8226   55.8208   28.5688 C   0  0  0  0  0  0
    1.7011   56.3795   29.8312 C   0  0  0  0  0  0
    1.1045   55.6956   30.8817 C   0  0  0  0  0  0
    0.1866   52.2610   24.7402 N   0  0  0  0  0  0
    0.9797   52.4966   23.6254 C   0  0  0  0  0  0
    0.5916   52.2608   22.4774 O   0  0  0  0  0  0
    2.3051   53.1791   23.9029 C   0  0  0  0  0  0
    2.7971   53.3044   25.2113 C   0  0  0  0  0  0
    3.9992   53.9548   25.4668 C   0  0  0  0  0  0
    4.7559   54.4378   24.4067 C   0  0  0  0  0  0
    4.3080   54.2850   23.0949 C   0  0  0  0  0  0
    3.0783   53.6781   22.8445 C   0  0  0  0  0  0
    6.4161   55.2966   24.7675 Br  0  0  0  0  0  0
   -2.6299   46.0965   26.1579 C   0  0  0  0  0  0
   -4.0329   46.8931   21.3373 H   0  0  0  0  0  0
   -3.1284   48.2513   20.7104 H   0  0  0  0  0  0
   -2.4121   46.6312   20.6653 H   0  0  0  0  0  0
   -3.5057   45.9385   23.5559 H   0  0  0  0  0  0
   -0.8565   48.1192   26.1144 H   0  0  0  0  0  0
   -1.2502   49.2342   21.9971 H   0  0  0  0  0  0
   -1.1764   49.9241   26.5019 H   0  0  0  0  0  0
   -1.0028   52.8662   26.9692 H   0  0  0  0  0  0
   -2.0085   51.7504   27.8482 H   0  0  0  0  0  0
   -0.0956   50.4965   28.6734 H   0  0  0  0  0  0
    1.0337   51.4195   27.7225 H   0  0  0  0  0  0
   -0.5261   51.4372   31.2348 H   0  0  0  0  0  0
    1.3520   54.1733   27.2911 H   0  0  0  0  0  0
    2.3042   56.3815   27.7867 H   0  0  0  0  0  0
    2.1011   57.3587   30.0149 H   0  0  0  0  0  0
    1.1044   56.1288   31.8703 H   0  0  0  0  0  0
    0.6133   49.9751   23.5517 H   0  0  0  0  0  0
    2.2739   52.8591   26.0416 H   0  0  0  0  0  0
    4.3602   54.0460   26.4808 H   0  0  0  0  0  0
    4.9007   54.6582   22.2724 H   0  0  0  0  0  0
    2.7351   53.5926   21.8215 H   0  0  0  0  0  0
   -3.5095   45.4853   25.9571 H   0  0  0  0  0  0
   -1.8057   45.4649   26.4873 H   0  0  0  0  0  0
   -2.8817   46.7495   26.9959 H   0  0  0  0  0  0
  1  2  1  0  0  0
  1 34  1  0  0  0
  1 35  1  0  0  0
  1 36  1  0  0  0
  2  7  2  0  0  0
  2  3  1  0  0  0
  3  4  2  0  0  0
  3 37  1  0  0  0
  4  5  1  0  0  0
  4 33  1  0  0  0
  5  6  2  0  0  0
  5 38  1  0  0  0
  6  7  1  0  0  0
  6  8  1  0  0  0
  7 39  1  0  0  0
  8 50  1  0  0  0
  8  9  1  0  0  0
  9 10  1  0  0  0
  9 23  2  0  0  0
 10 11  1  0  0  0
 10 40  1  0  0  0
 11 12  1  0  0  0
 11 41  1  0  0  0
 11 42  1  0  0  0
 12 13  1  0  0  0
 12 43  1  0  0  0
 12 44  1  0  0  0
 13 18  1  0  0  0
 13 14  2  0  0  0
 14 15  1  0  0  0
 14 45  1  0  0  0
 15 16  1  0  0  0
 15 17  1  0  0  0
 17 22  2  0  0  0
 17 18  1  0  0  0
 18 19  2  0  0  0
 19 20  1  0  0  0
 19 46  1  0  0  0
 20 21  2  0  0  0
 20 47  1  0  0  0
 21 22  1  0  0  0
 21 48  1  0  0  0
 22 49  1  0  0  0
 23 24  1  0  0  0
 24 25  2  0  0  0
 24 26  1  0  0  0
 26 31  2  0  0  0
 26 27  1  0  0  0
 27 28  2  0  0  0
 27 51  1  0  0  0
 28 29  1  0  0  0
 28 52  1  0  0  0
 29 30  2  0  0  0
 29 32  1  0  0  0
 30 31  1  0  0  0
 30 53  1  0  0  0
 31 54  1  0  0  0
 33 55  1  0  0  0
 33 56  1  0  0  0
 33 57  1  0  0  0
M  END
> <i_i_glide_confnum>
21

> <i_i_glide_lignum>
3427

> <i_i_glide_posenum>
78

> <i_i_glide_rotatable_bonds>
8

> <i_m_Source_File_Index>
2387

> <b_m_subgroup_collapsed>
0

> <r_i_docking_score>
-4.48876

> <r_i_glide_ecoul>
-6.06975

> <r_i_glide_eff_state_penalty>
0

> <r_i_glide_einternal>
8.50011

> <r_i_glide_emodel>
-55.321

> <r_i_glide_energy>
-48.2671

> <r_i_glide_erotb>
0.509603

> <r_i_glide_esite>
-0.108959

> <r_i_glide_evdw>
-42.1973

> <r_i_glide_gscore>
-4.48876

> <r_i_glide_hbond>
0

> <r_i_glide_ligand_efficiency>
-0.140274

> <r_i_glide_ligand_efficiency_ln>
-1.00516

> <r_i_glide_ligand_efficiency_sa>
-0.445341

> <r_i_glide_lipo>
-2.92098

> <r_i_glide_metal>
0

> <r_i_glide_rewards>
1.0519

> <s_i_glide_gridfile>
wee1_glide-grid

> <s_m_Source_File>
wee1_decoys_glide_SP.sdf

> <s_m_Source_Path>
/Users/zhangxujun/Desktop

> <s_m_entry_id>
2662

> <s_m_entry_name>
wee1_decoys_glide_SP.2387

> <s_m_subgroup_title>
wee1_decoys_glide_SP

> <s_m_subgroupid>
wee1_decoys_glide_SP


$$$$
