ZINC37928985_4790
                    3D
 Schrodinger Suite 2024-2.
 41 42  0  0  1  0            999 V2000
    1.3439   54.6847   30.0355 C   0  0  0  0  0  0
    1.8897   53.2706   29.7048 C   0  0  2  0  0  0
    2.4157   52.8982   30.5865 H   0  0  0  0  0  0
    2.9345   53.3119   28.5627 C   0  0  0  0  0  0
    2.2891   53.6730   27.2129 C   0  0  0  0  0  0
    1.1633   52.6783   26.8549 C   0  0  0  0  0  0
    0.1166   52.5582   27.9871 C   0  0  2  0  0  0
   -0.4465   53.4877   28.0823 H   0  0  0  0  0  0
    0.7842   52.2284   29.3538 C   0  0  2  0  0  0
    1.2798   51.2585   29.2604 H   0  0  0  0  0  0
   -0.2540   52.0970   30.4820 C   0  0  0  0  0  0
   -0.8105   51.4477   27.6621 N   0  0  0  0  0  0
   -1.9037   51.4946   26.2876 S   0  0  0  0  0  0
   -2.9328   50.4740   26.5003 O   0  0  0  0  0  0
   -2.2836   52.8965   26.0692 O   0  0  0  0  0  0
   -0.9496   50.9466   24.8665 C   0  0  0  0  0  0
   -0.9922   51.7290   23.7040 C   0  0  0  0  0  0
   -0.2841   51.3482   22.5671 C   0  0  0  0  0  0
    0.4811   50.1860   22.5825 C   0  0  0  0  0  0
    0.5219   49.3985   23.7319 C   0  0  0  0  0  0
   -0.1872   49.7629   24.8770 C   0  0  0  0  0  0
   -0.0977   48.9229   25.9883 N   0  0  0  0  0  0
   -0.3476   52.1001   21.4468 F   0  0  0  0  0  0
    0.7068   55.0823   29.2437 H   0  0  0  0  0  0
    0.7491   54.6761   30.9517 H   0  0  0  0  0  0
    2.1538   55.3979   30.1932 H   0  0  0  0  0  0
    3.7162   54.0383   28.7940 H   0  0  0  0  0  0
    3.4345   52.3442   28.4764 H   0  0  0  0  0  0
    1.8871   54.6853   27.2743 H   0  0  0  0  0  0
    3.0450   53.6848   26.4257 H   0  0  0  0  0  0
    0.6895   52.9749   25.9201 H   0  0  0  0  0  0
    1.6035   51.6968   26.6687 H   0  0  0  0  0  0
   -0.8947   52.9742   30.5460 H   0  0  0  0  0  0
    0.2266   51.9733   31.4538 H   0  0  0  0  0  0
   -0.9037   51.2329   30.3418 H   0  0  0  0  0  0
   -0.9258   50.6838   28.3430 H   0  0  0  0  0  0
   -1.5767   52.6343   23.6724 H   0  0  0  0  0  0
    1.0351   49.8951   21.7033 H   0  0  0  0  0  0
    1.1044   48.4933   23.7261 H   0  0  0  0  0  0
    0.4228   48.0565   25.9198 H   0  0  0  0  0  0
   -0.7799   48.9949   26.7434 H   0  0  0  0  0  0
  1  2  1  0  0  0
  1 24  1  0  0  0
  1 25  1  0  0  0
  1 26  1  0  0  0
  2  3  1  0  0  0
  2  9  1  0  0  0
  2  4  1  0  0  0
  4  5  1  0  0  0
  4 27  1  0  0  0
  4 28  1  0  0  0
  5  6  1  0  0  0
  5 29  1  0  0  0
  5 30  1  0  0  0
  6  7  1  0  0  0
  6 31  1  0  0  0
  6 32  1  0  0  0
  7  8  1  0  0  0
  7  9  1  0  0  0
  7 12  1  0  0  0
  9 10  1  0  0  0
  9 11  1  0  0  0
 11 33  1  0  0  0
 11 34  1  0  0  0
 11 35  1  0  0  0
 12 13  1  0  0  0
 12 36  1  0  0  0
 13 14  2  0  0  0
 13 15  2  0  0  0
 13 16  1  0  0  0
 16 21  2  0  0  0
 16 17  1  0  0  0
 17 18  2  0  0  0
 17 37  1  0  0  0
 18 19  1  0  0  0
 18 23  1  0  0  0
 19 20  2  0  0  0
 19 38  1  0  0  0
 20 21  1  0  0  0
 20 39  1  0  0  0
 21 22  1  0  0  0
 22 40  1  0  0  0
 22 41  1  0  0  0
M  END
> <i_i_glide_confnum>
9

> <i_i_glide_lignum>
4791

> <i_i_glide_posenum>
325

> <i_i_glide_rotatable_bonds>
3

> <i_m_Source_File_Index>
1060

> <b_m_subgroup_collapsed>
0

> <r_i_docking_score>
-3.92147

> <r_i_glide_ecoul>
-4.74705

> <r_i_glide_eff_state_penalty>
0

> <r_i_glide_einternal>
4.74777

> <r_i_glide_emodel>
-35.3429

> <r_i_glide_energy>
-31.3139

> <r_i_glide_erotb>
0.611098

> <r_i_glide_esite>
-0.281329

> <r_i_glide_evdw>
-26.5668

> <r_i_glide_gscore>
-3.92147

> <r_i_glide_hbond>
-0.43209

> <r_i_glide_ligand_efficiency>
-0.196074

> <r_i_glide_ligand_efficiency_ln>
-0.981415

> <r_i_glide_ligand_efficiency_sa>
-0.532226

> <r_i_glide_lipo>
-1.15158

> <r_i_glide_metal>
0

> <r_i_glide_rewards>
-0.627175

> <s_i_glide_gridfile>
wee1_glide-grid

> <s_m_Source_File>
wee1_decoys_glide_SP.sdf

> <s_m_Source_Path>
/Users/zhangxujun/Desktop

> <s_m_entry_id>
1335

> <s_m_entry_name>
wee1_decoys_glide_SP.1060

> <s_m_subgroup_title>
wee1_decoys_glide_SP

> <s_m_subgroupid>
wee1_decoys_glide_SP


$$$$
