ZINC46777310_3749
                    3D
 Schrodinger Suite 2024-2.
 63 65  0  0  1  0            999 V2000
    0.5446   53.8836   28.8000 C   0  0  0  0  0  0
    1.4897   52.8090   28.2161 C   0  0  2  0  0  0
    1.6340   52.0462   28.9828 H   0  0  0  0  0  0
    2.8686   53.4342   27.9543 C   0  0  0  0  0  0
    3.7088   53.7213   29.0356 C   0  0  0  0  0  0
    4.9759   54.2620   28.8260 C   0  0  0  0  0  0
    5.4370   54.4964   27.5323 C   0  0  0  0  0  0
    4.6140   54.2135   26.4334 C   0  0  0  0  0  0
    3.3336   53.6967   26.6562 C   0  0  0  0  0  0
    4.9685   54.3930   25.0861 N   0  0  0  0  0  0
    6.1280   54.8022   24.5240 C   0  0  0  0  0  0
    7.1044   55.1968   25.1620 O   0  0  0  0  0  0
    6.1375   54.7952   23.0050 C   0  0  0  0  0  0
    5.1738   54.0839   22.2643 C   0  0  0  0  0  0
    5.1571   54.1425   20.8740 C   0  0  0  0  0  0
    6.1140   54.8983   20.2038 C   0  0  0  0  0  0
    7.0907   55.5925   20.9137 C   0  0  0  0  0  0
    7.1035   55.5370   22.3054 C   0  0  0  0  0  0
    0.9740   52.0786   27.0416 N   0  0  0  0  0  0
   -0.2375   51.5203   26.8573 C   0  0  0  0  0  0
   -1.1844   51.6965   27.6200 O   0  0  0  0  0  0
   -0.3677   50.5889   25.6681 C   0  0  0  0  0  0
    0.4758   50.6692   24.5477 C   0  0  0  0  0  0
    0.3376   49.7685   23.4894 C   0  0  0  0  0  0
   -0.6321   48.7669   23.5366 C   0  0  0  0  0  0
   -1.4664   48.6590   24.6490 C   0  0  0  0  0  0
   -1.3547   49.5920   25.6817 C   0  0  0  0  0  0
   -2.6959   47.3581   24.7546 S   0  0  0  0  0  0
   -2.0948   46.1179   24.2501 O   0  0  0  0  0  0
   -3.9062   47.8966   24.1276 O   0  0  0  0  0  0
   -2.9955   47.1112   26.4816 N   0  0  0  0  0  0
   -4.3111   46.7233   27.0393 C   0  0  0  0  0  0
   -5.3240   47.8815   26.9020 C   0  0  0  0  0  0
   -4.0950   46.4497   28.5388 C   0  0  0  0  0  0
   -4.8266   45.4452   26.3458 C   0  0  0  0  0  0
   -0.7642   47.9188   22.4903 F   0  0  0  0  0  0
    0.9821   54.3623   29.6771 H   0  0  0  0  0  0
    0.3320   54.6716   28.0813 H   0  0  0  0  0  0
   -0.4060   53.4692   29.1288 H   0  0  0  0  0  0
    3.3787   53.5258   30.0453 H   0  0  0  0  0  0
    5.6084   54.5005   29.6669 H   0  0  0  0  0  0
    6.4285   54.9027   27.4191 H   0  0  0  0  0  0
    2.6955   53.4908   25.8082 H   0  0  0  0  0  0
    4.2452   54.1452   24.4310 H   0  0  0  0  0  0
    4.4179   53.4808   22.7444 H   0  0  0  0  0  0
    4.4084   53.6005   20.3135 H   0  0  0  0  0  0
    6.1046   54.9381   19.1239 H   0  0  0  0  0  0
    7.8403   56.1616   20.3840 H   0  0  0  0  0  0
    7.8626   56.0960   22.8356 H   0  0  0  0  0  0
    1.6962   51.7508   26.4223 H   0  0  0  0  0  0
    1.2428   51.4260   24.4810 H   0  0  0  0  0  0
    0.9852   49.8446   22.6292 H   0  0  0  0  0  0
   -2.0308   49.5256   26.5218 H   0  0  0  0  0  0
   -2.4364   47.6964   27.1219 H   0  0  0  0  0  0
   -6.2393   47.6715   27.4565 H   0  0  0  0  0  0
   -5.6228   48.0586   25.8701 H   0  0  0  0  0  0
   -4.9185   48.8166   27.2906 H   0  0  0  0  0  0
   -3.3225   45.6966   28.7010 H   0  0  0  0  0  0
   -3.7650   47.3466   29.0656 H   0  0  0  0  0  0
   -5.0101   46.1046   29.0218 H   0  0  0  0  0  0
   -4.1287   44.6178   26.4820 H   0  0  0  0  0  0
   -5.7869   45.1305   26.7563 H   0  0  0  0  0  0
   -4.9665   45.5905   25.2757 H   0  0  0  0  0  0
  1  2  1  0  0  0
  1 37  1  0  0  0
  1 38  1  0  0  0
  1 39  1  0  0  0
  2  3  1  0  0  0
  2  4  1  0  0  0
  2 19  1  0  0  0
  4  9  2  0  0  0
  4  5  1  0  0  0
  5  6  2  0  0  0
  5 40  1  0  0  0
  6  7  1  0  0  0
  6 41  1  0  0  0
  7  8  2  0  0  0
  7 42  1  0  0  0
  8  9  1  0  0  0
  8 10  1  0  0  0
  9 43  1  0  0  0
 10 11  1  0  0  0
 10 44  1  0  0  0
 11 12  2  0  0  0
 11 13  1  0  0  0
 13 18  2  0  0  0
 13 14  1  0  0  0
 14 15  2  0  0  0
 14 45  1  0  0  0
 15 16  1  0  0  0
 15 46  1  0  0  0
 16 17  2  0  0  0
 16 47  1  0  0  0
 17 18  1  0  0  0
 17 48  1  0  0  0
 18 49  1  0  0  0
 19 20  1  0  0  0
 19 50  1  0  0  0
 20 21  2  0  0  0
 20 22  1  0  0  0
 22 27  2  0  0  0
 22 23  1  0  0  0
 23 24  2  0  0  0
 23 51  1  0  0  0
 24 25  1  0  0  0
 24 52  1  0  0  0
 25 26  2  0  0  0
 25 36  1  0  0  0
 26 27  1  0  0  0
 26 28  1  0  0  0
 27 53  1  0  0  0
 28 29  2  0  0  0
 28 30  2  0  0  0
 28 31  1  0  0  0
 31 32  1  0  0  0
 31 54  1  0  0  0
 32 33  1  0  0  0
 32 34  1  0  0  0
 32 35  1  0  0  0
 33 55  1  0  0  0
 33 56  1  0  0  0
 33 57  1  0  0  0
 34 58  1  0  0  0
 34 59  1  0  0  0
 34 60  1  0  0  0
 35 61  1  0  0  0
 35 62  1  0  0  0
 35 63  1  0  0  0
M  END
> <i_i_glide_confnum>
132

> <i_i_glide_lignum>
3750

> <i_i_glide_posenum>
199

> <i_i_glide_rotatable_bonds>
10

> <i_m_Source_File_Index>
3235

> <b_m_subgroup_collapsed>
0

> <r_i_docking_score>
-4.74515

> <r_i_glide_ecoul>
-7.67006

> <r_i_glide_eff_state_penalty>
0

> <r_i_glide_einternal>
11.0151

> <r_i_glide_emodel>
-61.6744

> <r_i_glide_energy>
-55.8747

> <r_i_glide_erotb>
0.741559

> <r_i_glide_esite>
-0.270086

> <r_i_glide_evdw>
-48.2046

> <r_i_glide_gscore>
-4.74515

> <r_i_glide_hbond>
-0.456

> <r_i_glide_ligand_efficiency>
-0.135576

> <r_i_glide_ligand_efficiency_ln>
-1.04166

> <r_i_glide_ligand_efficiency_sa>
-0.443477

> <r_i_glide_lipo>
-2.7238

> <r_i_glide_metal>
0

> <r_i_glide_rewards>
1.52392

> <s_i_glide_gridfile>
wee1_glide-grid

> <s_m_Source_File>
wee1_decoys_glide_SP.sdf

> <s_m_Source_Path>
/Users/zhangxujun/Desktop

> <s_m_entry_id>
3510

> <s_m_entry_name>
wee1_decoys_glide_SP.3235

> <s_m_subgroup_title>
wee1_decoys_glide_SP

> <s_m_subgroupid>
wee1_decoys_glide_SP


$$$$
