ZINC09076388_3724
                    3D
 Schrodinger Suite 2024-2.
 59 62  0  0  1  0            999 V2000
    2.2268   52.1219   22.5740 C   0  0  0  0  0  0
    2.4463   52.8966   23.8727 C   0  0  0  0  0  0
    3.5083   53.6972   24.2000 C   0  0  0  0  0  0
    3.5864   54.3727   25.6136 C   0  0  1  0  0  0
    3.4490   55.4322   25.4120 H   0  0  0  0  0  0
    2.4056   53.9442   26.5181 C   0  0  0  0  0  0
    1.4500   53.0978   26.0865 C   0  0  0  0  0  0
    1.4757   52.6047   24.8050 N   0  0  0  0  0  0
    0.0725   52.4968   27.0844 S   0  0  0  0  0  0
   -1.1881   51.9834   25.8750 C   0  0  0  0  0  0
   -2.5775   51.7430   26.4745 C   0  0  0  0  0  0
   -3.4027   52.6556   26.4757 O   0  0  0  0  0  0
   -2.8587   50.4951   26.8824 N   0  0  0  0  0  0
   -4.1929   50.0014   27.2347 C   0  0  0  0  0  0
   -4.7854   50.5245   28.5378 C   0  0  0  0  0  0
   -5.9474   51.2992   28.5381 C   0  0  0  0  0  0
   -6.5353   51.6699   29.7463 C   0  0  0  0  0  0
   -5.9631   51.2564   30.9493 C   0  0  0  0  0  0
   -4.7939   50.4990   30.9543 C   0  0  0  0  0  0
   -4.2074   50.1359   29.7462 C   0  0  0  0  0  0
    2.3544   54.4483   27.8594 C   0  0  0  0  0  0
    2.3202   54.8842   28.9321 N   0  0  0  0  0  0
    4.9045   54.2575   26.3723 C   0  0  0  0  0  0
    6.0883   54.9856   26.3530 C   0  0  0  0  0  0
    6.8881   54.4976   27.3784 C   0  0  0  0  0  0
    6.1600   53.5066   27.9974 C   0  0  0  0  0  0
    4.9810   53.3219   27.3562 O   0  0  0  0  0  0
    4.5823   54.0205   23.2547 C   0  0  0  0  0  0
    5.7579   54.0944   23.6069 O   0  0  0  0  0  0
    4.2018   54.2234   21.9735 N   0  0  0  0  0  0
    5.0287   54.4971   20.8712 C   0  0  0  0  0  0
    4.6225   53.9929   19.6321 C   0  0  0  0  0  0
    5.3945   54.2259   18.4974 C   0  0  0  0  0  0
    6.5621   54.9801   18.5979 C   0  0  0  0  0  0
    6.9634   55.5085   19.8239 C   0  0  0  0  0  0
    6.1957   55.2719   20.9605 C   0  0  0  0  0  0
    1.6151   52.7058   21.8844 H   0  0  0  0  0  0
    3.1624   51.8697   22.0752 H   0  0  0  0  0  0
    1.7210   51.1705   22.7484 H   0  0  0  0  0  0
    0.7463   51.9650   24.5299 H   0  0  0  0  0  0
   -1.2869   52.7642   25.1202 H   0  0  0  0  0  0
   -0.8524   51.0806   25.3624 H   0  0  0  0  0  0
   -2.1006   49.8466   27.0709 H   0  0  0  0  0  0
   -4.8867   50.1599   26.4059 H   0  0  0  0  0  0
   -4.1045   48.9185   27.3346 H   0  0  0  0  0  0
   -6.4046   51.5995   27.6079 H   0  0  0  0  0  0
   -7.4431   52.2544   29.7522 H   0  0  0  0  0  0
   -6.4243   51.5206   31.8892 H   0  0  0  0  0  0
   -4.3403   50.1932   31.8890 H   0  0  0  0  0  0
   -3.3064   49.5440   29.7322 H   0  0  0  0  0  0
    6.3210   55.8019   25.6845 H   0  0  0  0  0  0
    7.8587   54.8627   27.6810 H   0  0  0  0  0  0
    6.3215   52.8971   28.8661 H   0  0  0  0  0  0
    3.2312   54.0585   21.7567 H   0  0  0  0  0  0
    3.7188   53.4092   19.5445 H   0  0  0  0  0  0
    5.0914   53.8190   17.5427 H   0  0  0  0  0  0
    7.1624   55.1576   17.7180 H   0  0  0  0  0  0
    7.8685   56.0949   19.8907 H   0  0  0  0  0  0
    6.5162   55.6974   21.9002 H   0  0  0  0  0  0
  1  2  1  0  0  0
  1 37  1  0  0  0
  1 38  1  0  0  0
  1 39  1  0  0  0
  2  8  1  0  0  0
  2  3  2  0  0  0
  3  4  1  0  0  0
  3 28  1  0  0  0
  4  5  1  0  0  0
  4  6  1  0  0  0
  4 23  1  0  0  0
  6  7  2  0  0  0
  6 21  1  0  0  0
  7  8  1  0  0  0
  7  9  1  0  0  0
  8 40  1  0  0  0
  9 10  1  0  0  0
 10 11  1  0  0  0
 10 41  1  0  0  0
 10 42  1  0  0  0
 11 12  2  0  0  0
 11 13  1  0  0  0
 13 14  1  0  0  0
 13 43  1  0  0  0
 14 15  1  0  0  0
 14 44  1  0  0  0
 14 45  1  0  0  0
 15 20  2  0  0  0
 15 16  1  0  0  0
 16 17  2  0  0  0
 16 46  1  0  0  0
 17 18  1  0  0  0
 17 47  1  0  0  0
 18 19  2  0  0  0
 18 48  1  0  0  0
 19 20  1  0  0  0
 19 49  1  0  0  0
 20 50  1  0  0  0
 21 22  3  0  0  0
 23 27  1  0  0  0
 23 24  2  0  0  0
 24 25  1  0  0  0
 24 51  1  0  0  0
 25 26  2  0  0  0
 25 52  1  0  0  0
 26 27  1  0  0  0
 26 53  1  0  0  0
 28 29  2  0  0  0
 28 30  1  0  0  0
 30 31  1  0  0  0
 30 54  1  0  0  0
 31 36  2  0  0  0
 31 32  1  0  0  0
 32 33  2  0  0  0
 32 55  1  0  0  0
 33 34  1  0  0  0
 33 56  1  0  0  0
 34 35  2  0  0  0
 34 57  1  0  0  0
 35 36  1  0  0  0
 35 58  1  0  0  0
 36 59  1  0  0  0
M  END
> <i_i_glide_confnum>
157

> <i_i_glide_lignum>
3725

> <i_i_glide_posenum>
398

> <i_i_glide_rotatable_bonds>
11

> <i_m_Source_File_Index>
960

> <b_m_subgroup_collapsed>
0

> <r_i_docking_score>
-5.88471

> <r_i_glide_ecoul>
-5.95374

> <r_i_glide_eff_state_penalty>
0

> <r_i_glide_einternal>
16.3278

> <r_i_glide_emodel>
-63.5528

> <r_i_glide_energy>
-50.6056

> <r_i_glide_erotb>
0.778421

> <r_i_glide_esite>
-0.120978

> <r_i_glide_evdw>
-44.6519

> <r_i_glide_gscore>
-5.88471

> <r_i_glide_hbond>
-0.119341

> <r_i_glide_ligand_efficiency>
-0.168135

> <r_i_glide_ligand_efficiency_ln>
-1.29183

> <r_i_glide_ligand_efficiency_sa>
-0.54998

> <r_i_glide_lipo>
-2.53563

> <r_i_glide_metal>
0

> <r_i_glide_rewards>
-0.761531

> <s_i_glide_gridfile>
wee1_glide-grid

> <s_m_Source_File>
wee1_decoys_glide_SP.sdf

> <s_m_Source_Path>
/Users/zhangxujun/Desktop

> <s_m_entry_id>
1235

> <s_m_entry_name>
wee1_decoys_glide_SP.960

> <s_m_subgroup_title>
wee1_decoys_glide_SP

> <s_m_subgroupid>
wee1_decoys_glide_SP


$$$$
