ZINC40813879_5611
                    3D
 Schrodinger Suite 2024-2.
 64 68  0  0  1  0            999 V2000
    4.6731   54.1741   17.8038 C   0  0  0  0  0  0
    5.2194   55.5941   17.7151 C   0  0  0  0  0  0
    5.2204   56.4616   16.5910 C   0  0  0  0  0  0
    5.9037   57.6111   16.9595 C   0  0  0  0  0  0
    6.3074   57.5257   18.2437 O   0  0  0  0  0  0
    5.9022   56.3146   18.7112 C   0  0  0  0  0  0
    6.1806   56.0589   20.1220 C   0  0  0  0  0  0
    6.7044   56.8969   20.8591 O   0  0  0  0  0  0
    5.7242   54.8347   20.5168 O   0  0  0  0  0  0
    5.5125   54.5685   21.8533 C   0  0  0  0  0  0
    4.2383   54.1625   22.2388 C   0  0  0  0  0  0
    3.9414   53.9872   23.5864 C   0  0  0  0  0  0
    4.9127   54.1946   24.5804 C   0  0  0  0  0  0
    6.2025   54.5665   24.1683 C   0  0  0  0  0  0
    6.5066   54.7331   22.8236 C   0  0  0  0  0  0
    4.5988   53.9570   26.0300 C   0  0  0  0  0  0
    5.6274   53.6967   26.9472 C   0  0  0  0  0  0
    5.3472   53.2966   28.2456 C   0  0  0  0  0  0
    4.0251   53.1479   28.6592 C   0  0  0  0  0  0
    2.9853   53.4887   27.7957 C   0  0  0  0  0  0
    3.2743   53.8961   26.4955 C   0  0  0  0  0  0
    3.7337   52.5679   29.9615 C   0  0  0  0  0  0
    3.5042   52.0980   30.9939 N   0  0  0  0  0  0
    6.2203   58.8204   16.1074 C   0  0  0  0  0  0
    6.1611   58.3391   14.6418 C   0  0  0  0  0  0
    4.8726   57.5440   14.3018 C   0  0  0  0  0  0
    4.6444   56.3238   15.2366 C   0  0  0  0  0  0
    3.9655   55.2724   15.0074 N   0  0  0  0  0  0
    3.4160   55.1254   13.7838 N   0  0  0  0  0  0
    2.6748   54.0479   13.4423 C   0  0  0  0  0  0
    2.4384   53.7996   12.2610 O   0  0  0  0  0  0
    2.1398   53.1328   14.5252 C   0  0  0  0  0  0
    1.5039   53.6550   15.6599 C   0  0  0  0  0  0
    1.0383   52.8047   16.6579 C   0  0  0  0  0  0
    1.1937   51.4250   16.5422 C   0  0  0  0  0  0
    1.8191   50.8998   15.4009 C   0  0  0  0  0  0
    2.2786   51.7477   14.3959 C   0  0  0  0  0  0
    0.7023   50.6649   17.5858 O   0  0  0  0  0  0
    0.8548   49.2507   17.5427 C   0  0  0  0  0  0
    4.6973   53.6491   16.8499 H   0  0  0  0  0  0
    5.2630   53.5358   18.4604 H   0  0  0  0  0  0
    3.6446   54.1558   18.1651 H   0  0  0  0  0  0
    3.4672   54.0196   21.4945 H   0  0  0  0  0  0
    2.9425   53.6660   23.8354 H   0  0  0  0  0  0
    6.9958   54.7450   24.8757 H   0  0  0  0  0  0
    7.5049   55.0341   22.5398 H   0  0  0  0  0  0
    6.6649   53.7108   26.6553 H   0  0  0  0  0  0
    6.1768   53.0422   28.8846 H   0  0  0  0  0  0
    1.9523   53.3937   28.1018 H   0  0  0  0  0  0
    2.4424   54.1113   25.8438 H   0  0  0  0  0  0
    5.5052   59.6244   16.2858 H   0  0  0  0  0  0
    7.2103   59.2186   16.3315 H   0  0  0  0  0  0
    6.2445   59.2017   13.9788 H   0  0  0  0  0  0
    7.0349   57.7190   14.4291 H   0  0  0  0  0  0
    4.0049   58.2024   14.3657 H   0  0  0  0  0  0
    4.9347   57.2150   13.2642 H   0  0  0  0  0  0
    3.7048   55.7946   13.0868 H   0  0  0  0  0  0
    1.3758   54.7212   15.7822 H   0  0  0  0  0  0
    0.5620   53.2178   17.5347 H   0  0  0  0  0  0
    1.9755   49.8381   15.2866 H   0  0  0  0  0  0
    2.7666   51.3207   13.5308 H   0  0  0  0  0  0
    0.4196   48.8143   18.4415 H   0  0  0  0  0  0
    0.3411   48.8179   16.6831 H   0  0  0  0  0  0
    1.9050   48.9610   17.5133 H   0  0  0  0  0  0
  1  2  1  0  0  0
  1 40  1  0  0  0
  1 41  1  0  0  0
  1 42  1  0  0  0
  2  6  2  0  0  0
  2  3  1  0  0  0
  3 27  1  0  0  0
  3  4  2  0  0  0
  4  5  1  0  0  0
  4 24  1  0  0  0
  5  6  1  0  0  0
  6  7  1  0  0  0
  7  8  2  0  0  0
  7  9  1  0  0  0
  9 10  1  0  0  0
 10 15  2  0  0  0
 10 11  1  0  0  0
 11 12  2  0  0  0
 11 43  1  0  0  0
 12 13  1  0  0  0
 12 44  1  0  0  0
 13 14  2  0  0  0
 13 16  1  0  0  0
 14 15  1  0  0  0
 14 45  1  0  0  0
 15 46  1  0  0  0
 16 21  2  0  0  0
 16 17  1  0  0  0
 17 18  2  0  0  0
 17 47  1  0  0  0
 18 19  1  0  0  0
 18 48  1  0  0  0
 19 20  2  0  0  0
 19 22  1  0  0  0
 20 21  1  0  0  0
 20 49  1  0  0  0
 21 50  1  0  0  0
 22 23  3  0  0  0
 24 25  1  0  0  0
 24 51  1  0  0  0
 24 52  1  0  0  0
 25 26  1  0  0  0
 25 53  1  0  0  0
 25 54  1  0  0  0
 26 27  1  0  0  0
 26 55  1  0  0  0
 26 56  1  0  0  0
 27 28  2  0  0  0
 28 29  1  0  0  0
 29 30  1  0  0  0
 29 57  1  0  0  0
 30 31  2  0  0  0
 30 32  1  0  0  0
 32 37  2  0  0  0
 32 33  1  0  0  0
 33 34  2  0  0  0
 33 58  1  0  0  0
 34 35  1  0  0  0
 34 59  1  0  0  0
 35 36  2  0  0  0
 35 38  1  0  0  0
 36 37  1  0  0  0
 36 60  1  0  0  0
 37 61  1  0  0  0
 38 39  1  0  0  0
 39 62  1  0  0  0
 39 63  1  0  0  0
 39 64  1  0  0  0
M  END
> <i_i_glide_confnum>
114

> <i_i_glide_lignum>
5612

> <i_i_glide_posenum>
273

> <i_i_glide_rotatable_bonds>
9

> <i_m_Source_File_Index>
2350

> <b_m_subgroup_collapsed>
0

> <r_i_docking_score>
-5.53029

> <r_i_glide_ecoul>
-7.06324

> <r_i_glide_eff_state_penalty>
0

> <r_i_glide_einternal>
9.01564

> <r_i_glide_emodel>
-52.7108

> <r_i_glide_energy>
-47.0952

> <r_i_glide_erotb>
0.5328

> <r_i_glide_esite>
0

> <r_i_glide_evdw>
-40.0319

> <r_i_glide_gscore>
-5.53029

> <r_i_glide_hbond>
-0.585002

> <r_i_glide_ligand_efficiency>
-0.141802

> <r_i_glide_ligand_efficiency_ln>
-1.18585

> <r_i_glide_ligand_efficiency_sa>
-0.480882

> <r_i_glide_lipo>
-2.98356

> <r_i_glide_metal>
0

> <r_i_glide_rewards>
0.566551

> <s_i_glide_gridfile>
wee1_glide-grid

> <s_m_Source_File>
wee1_decoys_glide_SP.sdf

> <s_m_Source_Path>
/Users/zhangxujun/Desktop

> <s_m_entry_id>
2625

> <s_m_entry_name>
wee1_decoys_glide_SP.2350

> <s_m_subgroup_title>
wee1_decoys_glide_SP

> <s_m_subgroupid>
wee1_decoys_glide_SP


$$$$
