ZINC51090094_1861
                    3D
 Schrodinger Suite 2024-2.
 28 29  0  0  1  0            999 V2000
    5.5800   53.9929   28.2880 C   0  0  0  0  0  0
    5.8789   54.2290   26.9509 C   0  0  0  0  0  0
    4.8782   54.1031   25.9749 C   0  0  0  0  0  0
    3.5781   53.7471   26.3643 C   0  0  0  0  0  0
    3.2912   53.4998   27.7050 C   0  0  0  0  0  0
    4.2926   53.6137   28.6666 C   0  0  0  0  0  0
    3.9012   53.2233   30.4818 Br  0  0  0  0  0  0
    2.5903   53.6246   25.4453 F   0  0  0  0  0  0
    5.1035   54.2695   24.5994 N   0  0  0  0  0  0
    6.1463   54.8409   23.9567 C   0  0  0  0  0  0
    7.0578   55.4457   24.5268 O   0  0  0  0  0  0
    6.0981   54.7394   22.4448 C   0  0  0  0  0  0
    7.0313   55.4125   21.6448 C   0  0  0  0  0  0
    6.9273   55.2932   20.2580 C   0  0  0  0  0  0
    5.9050   54.4966   19.7352 C   0  0  0  0  0  0
    5.0094   53.8680   20.5459 N   0  0  0  0  0  0
    5.1059   53.9896   21.8766 N   0  0  0  0  0  0
    5.7933   54.3075   18.3522 N   0  0  0  0  0  0
    4.9419   53.2967   17.7399 N   0  0  0  0  0  0
    6.3705   54.0960   29.0123 H   0  0  0  0  0  0
    6.8947   54.4819   26.6996 H   0  0  0  0  0  0
    2.2926   53.2055   27.9924 H   0  0  0  0  0  0
    4.3663   53.9083   24.0110 H   0  0  0  0  0  0
    7.8280   56.0027   22.0820 H   0  0  0  0  0  0
    7.6397   55.7797   19.6095 H   0  0  0  0  0  0
    6.4315   54.7287   17.6889 H   0  0  0  0  0  0
    5.1770   52.3625   18.0834 H   0  0  0  0  0  0
    3.9721   53.5236   17.9157 H   0  0  0  0  0  0
  1  6  2  0  0  0
  1  2  1  0  0  0
  1 20  1  0  0  0
  2  3  2  0  0  0
  2 21  1  0  0  0
  3  4  1  0  0  0
  3  9  1  0  0  0
  4  5  2  0  0  0
  4  8  1  0  0  0
  5  6  1  0  0  0
  5 22  1  0  0  0
  6  7  1  0  0  0
  9 10  1  0  0  0
  9 23  1  0  0  0
 10 11  2  0  0  0
 10 12  1  0  0  0
 12 17  2  0  0  0
 12 13  1  0  0  0
 13 14  2  0  0  0
 13 24  1  0  0  0
 14 15  1  0  0  0
 14 25  1  0  0  0
 15 16  2  0  0  0
 15 18  1  0  0  0
 16 17  1  0  0  0
 18 19  1  0  0  0
 18 26  1  0  0  0
 19 27  1  0  0  0
 19 28  1  0  0  0
M  END
> <i_i_glide_confnum>
3

> <i_i_glide_lignum>
1862

> <i_i_glide_posenum>
391

> <i_i_glide_rotatable_bonds>
4

> <i_m_Source_File_Index>
524

> <b_m_subgroup_collapsed>
0

> <r_i_docking_score>
-5.97649

> <r_i_glide_ecoul>
-3.90343

> <r_i_glide_eff_state_penalty>
0

> <r_i_glide_einternal>
1.27809

> <r_i_glide_emodel>
-49.9439

> <r_i_glide_energy>
-36.5314

> <r_i_glide_erotb>
0.528893

> <r_i_glide_esite>
-0.0132991

> <r_i_glide_evdw>
-32.628

> <r_i_glide_gscore>
-5.97649

> <r_i_glide_hbond>
-0.273923

> <r_i_glide_ligand_efficiency>
-0.314552

> <r_i_glide_ligand_efficiency_ln>
-1.51517

> <r_i_glide_ligand_efficiency_sa>
-0.839351

> <r_i_glide_lipo>
-2.0779

> <r_i_glide_metal>
0

> <r_i_glide_rewards>
-1.92335

> <s_i_glide_gridfile>
wee1_glide-grid

> <s_m_Source_File>
wee1_decoys_glide_SP.sdf

> <s_m_Source_Path>
/Users/zhangxujun/Desktop

> <s_m_entry_id>
799

> <s_m_entry_name>
wee1_decoys_glide_SP.524

> <s_m_subgroup_title>
wee1_decoys_glide_SP

> <s_m_subgroupid>
wee1_decoys_glide_SP


$$$$
