ZINC18195454_5868
                    3D
 Schrodinger Suite 2024-2.
 61 65  0  0  1  0            999 V2000
   -2.6659   47.3282   23.1707 C   0  0  0  0  0  0
   -2.0546   48.2872   24.2080 C   0  0  0  0  0  0
   -1.2948   47.5090   25.2972 C   0  0  0  0  0  0
   -1.2355   49.3875   23.5231 C   0  0  0  0  0  0
   -1.9072   50.5018   23.0142 C   0  0  0  0  0  0
   -1.2078   51.4951   22.3381 C   0  0  0  0  0  0
    0.1737   51.3821   22.1514 C   0  0  0  0  0  0
    0.8520   50.2808   22.6849 C   0  0  0  0  0  0
    0.1540   49.2921   23.3719 C   0  0  0  0  0  0
    0.9350   52.4415   21.3403 C   0  0  1  0  0  0
    0.2764   53.2953   21.3053 H   0  0  0  0  0  0
    2.2381   52.8967   22.0095 C   0  0  0  0  0  0
    3.4090   52.7869   21.3875 C   0  0  0  0  0  0
    4.4178   53.2954   22.1466 N   0  0  0  0  0  0
    5.2126   52.7457   22.4365 H   0  0  0  0  0  0
    3.8108   53.6969   23.3405 N   0  0  0  0  0  0
    2.4599   53.5538   23.2751 C   0  0  0  0  0  0
    1.6099   53.8894   24.1015 O   0  0  0  0  0  0
    4.5965   54.1675   24.4238 C   0  0  0  0  0  0
    5.8882   54.6521   24.1785 C   0  0  0  0  0  0
    6.7057   55.0282   25.2327 C   0  0  0  0  0  0
    6.2624   54.8987   26.5441 C   0  0  0  0  0  0
    4.9731   54.4505   26.8065 C   0  0  0  0  0  0
    4.1387   54.0943   25.7524 C   0  0  0  0  0  0
    3.5616   52.2947   20.1199 N   0  0  0  0  0  0
    2.4691   51.9262   19.3586 C   0  0  0  0  0  0
    1.1989   52.0228   19.8602 C   0  0  0  0  0  0
    0.0240   51.7928   18.9909 C   0  0  0  0  0  0
   -1.1234   52.0949   19.3215 O   0  0  0  0  0  0
    0.3145   51.2654   17.5769 C   0  0  0  0  0  0
    1.6041   51.8618   16.9530 C   0  0  0  0  0  0
    2.7857   51.5471   17.9146 C   0  0  0  0  0  0
    1.8547   51.1241   15.6225 C   0  0  0  0  0  0
    1.4567   53.3953   16.7614 C   0  0  0  0  0  0
   -3.2545   47.8678   22.4269 H   0  0  0  0  0  0
   -3.3271   46.6031   23.6454 H   0  0  0  0  0  0
   -1.8909   46.7755   22.6388 H   0  0  0  0  0  0
   -2.8735   48.7875   24.7289 H   0  0  0  0  0  0
   -0.8412   48.1845   26.0258 H   0  0  0  0  0  0
   -1.9630   46.8507   25.8536 H   0  0  0  0  0  0
   -0.5017   46.8889   24.8816 H   0  0  0  0  0  0
   -2.9787   50.5923   23.1270 H   0  0  0  0  0  0
   -1.7483   52.3386   21.9362 H   0  0  0  0  0  0
    1.9198   50.1783   22.5513 H   0  0  0  0  0  0
    0.7019   48.4464   23.7605 H   0  0  0  0  0  0
    6.2738   54.7443   23.1734 H   0  0  0  0  0  0
    7.6910   55.3995   25.0038 H   0  0  0  0  0  0
    6.9081   55.1739   27.3662 H   0  0  0  0  0  0
    4.6275   54.3657   27.8257 H   0  0  0  0  0  0
    3.1571   53.7126   25.9913 H   0  0  0  0  0  0
    4.4826   52.1956   19.7149 H   0  0  0  0  0  0
    0.4330   50.1874   17.6823 H   0  0  0  0  0  0
   -0.5622   51.4215   16.9483 H   0  0  0  0  0  0
    3.0750   50.4971   17.9508 H   0  0  0  0  0  0
    3.6407   52.1163   17.5430 H   0  0  0  0  0  0
    2.7908   51.4410   15.1614 H   0  0  0  0  0  0
    1.9098   50.0428   15.7616 H   0  0  0  0  0  0
    1.0582   51.3206   14.9030 H   0  0  0  0  0  0
    2.3282   53.8142   16.2553 H   0  0  0  0  0  0
    0.5844   53.6325   16.1510 H   0  0  0  0  0  0
    1.3493   53.9364   17.7031 H   0  0  0  0  0  0
  1  2  1  0  0  0
  1 35  1  0  0  0
  1 36  1  0  0  0
  1 37  1  0  0  0
  2  3  1  0  0  0
  2  4  1  0  0  0
  2 38  1  0  0  0
  3 39  1  0  0  0
  3 40  1  0  0  0
  3 41  1  0  0  0
  4  9  2  0  0  0
  4  5  1  0  0  0
  5  6  2  0  0  0
  5 42  1  0  0  0
  6  7  1  0  0  0
  6 43  1  0  0  0
  7  8  2  0  0  0
  7 10  1  0  0  0
  8  9  1  0  0  0
  8 44  1  0  0  0
  9 45  1  0  0  0
 10 11  1  0  0  0
 10 27  1  0  0  0
 10 12  1  0  0  0
 12 17  1  0  0  0
 12 13  2  0  0  0
 13 14  1  0  0  0
 13 25  1  0  0  0
 14 15  1  0  0  0
 14 16  1  0  0  0
 16 17  1  0  0  0
 16 19  1  0  0  0
 17 18  2  0  0  0
 19 24  2  0  0  0
 19 20  1  0  0  0
 20 21  2  0  0  0
 20 46  1  0  0  0
 21 22  1  0  0  0
 21 47  1  0  0  0
 22 23  2  0  0  0
 22 48  1  0  0  0
 23 24  1  0  0  0
 23 49  1  0  0  0
 24 50  1  0  0  0
 25 26  1  0  0  0
 25 51  1  0  0  0
 26 32  1  0  0  0
 26 27  2  0  0  0
 27 28  1  0  0  0
 28 29  2  0  0  0
 28 30  1  0  0  0
 30 31  1  0  0  0
 30 52  1  0  0  0
 30 53  1  0  0  0
 31 32  1  0  0  0
 31 33  1  0  0  0
 31 34  1  0  0  0
 32 54  1  0  0  0
 32 55  1  0  0  0
 33 56  1  0  0  0
 33 57  1  0  0  0
 33 58  1  0  0  0
 34 59  1  0  0  0
 34 60  1  0  0  0
 34 61  1  0  0  0
M  END
> <i_i_glide_confnum>
2

> <i_i_glide_lignum>
5869

> <i_i_glide_posenum>
352

> <i_i_glide_rotatable_bonds>
3

> <i_m_Source_File_Index>
4494

> <b_m_subgroup_collapsed>
0

> <r_i_docking_score>
-4.95524

> <r_i_glide_ecoul>
-1.9101

> <r_i_glide_eff_state_penalty>
0

> <r_i_glide_einternal>
0.703488

> <r_i_glide_emodel>
-52.851

> <r_i_glide_energy>
-39.7601

> <r_i_glide_erotb>
0.217254

> <r_i_glide_esite>
-0.0378853

> <r_i_glide_evdw>
-37.85

> <r_i_glide_gscore>
-4.95524

> <r_i_glide_hbond>
0

> <r_i_glide_ligand_efficiency>
-0.154851

> <r_i_glide_ligand_efficiency_ln>
-1.10961

> <r_i_glide_ligand_efficiency_sa>
-0.491622

> <r_i_glide_lipo>
-2.07374

> <r_i_glide_metal>
0

> <r_i_glide_rewards>
-0.881853

> <s_i_glide_gridfile>
wee1_glide-grid

> <s_m_Source_File>
wee1_decoys_glide_SP.sdf

> <s_m_Source_Path>
/Users/zhangxujun/Desktop

> <s_m_entry_id>
4769

> <s_m_entry_name>
wee1_decoys_glide_SP.4494

> <s_m_subgroup_title>
wee1_decoys_glide_SP

> <s_m_subgroupid>
wee1_decoys_glide_SP


$$$$
