ZINC22505969_4660
                    3D
 Schrodinger Suite 2024-2.
 73 75  0  0  1  0            999 V2000
    5.4296   56.8963   18.0105 C   0  0  0  0  0  0
    5.8430   55.4383   18.2606 C   0  0  0  0  0  0
    5.5010   55.0194   19.5773 O   0  0  0  0  0  0
    6.2913   55.2968   20.6456 C   0  0  0  0  0  0
    7.3792   55.8769   20.5630 O   0  0  0  0  0  0
    5.7086   54.8184   21.9427 C   0  0  0  0  0  0
    6.4861   54.8966   23.1038 C   0  0  0  0  0  0
    5.9434   54.6127   24.3517 C   0  0  0  0  0  0
    4.5962   54.2486   24.4587 C   0  0  0  0  0  0
    3.8314   54.0968   23.3004 C   0  0  0  0  0  0
    4.3815   54.3717   22.0495 C   0  0  0  0  0  0
    3.9298   54.0250   25.6750 N   0  0  0  0  0  0
    4.2943   54.3258   26.9372 C   0  0  0  0  0  0
    5.3457   54.8911   27.2380 O   0  0  0  0  0  0
    3.2846   54.0047   28.0595 C   0  0  0  0  0  0
    2.4074   52.7098   27.9479 C   0  0  1  0  0  0
    3.0385   51.8264   28.0515 H   0  0  0  0  0  0
    1.4015   52.6347   29.1000 C   0  0  0  0  0  0
    1.7657   52.6513   30.2758 O   0  0  0  0  0  0
    0.0956   52.5433   28.6916 N   0  0  0  0  0  0
   -0.0966   52.4840   27.4426 C   0  0  0  0  0  0
    1.4210   52.5176   26.4494 S   0  0  0  0  0  0
   -1.2437   52.4214   26.8815 N   0  5  0  0  0  0
   -1.2926   52.4572   25.5590 N   0  0  0  0  0  0
   -2.4216   52.3599   24.9527 C   0  0  0  0  0  0
   -2.4582   52.4802   23.4183 C   0  0  0  0  0  0
   -1.1508   52.0694   22.6877 C   0  0  0  0  0  0
   -0.7634   50.5790   22.8487 C   0  0  0  0  0  0
   -1.7142   49.5945   22.1297 C   0  0  0  0  0  0
   -1.5131   48.1089   22.4970 C   0  0  0  0  0  0
   -1.7504   47.6973   23.9714 C   0  0  0  0  0  0
   -3.2243   47.6396   24.4453 C   0  0  0  0  0  0
   -3.8782   48.9723   24.8827 C   0  0  0  0  0  0
   -3.2574   49.6107   26.1402 C   0  0  0  0  0  0
   -3.9263   50.9395   26.5786 C   0  0  0  0  0  0
   -3.8350   52.1330   25.5723 C   0  0  1  0  0  0
   -4.5265   51.8731   24.7733 H   0  0  0  0  0  0
   -4.3803   53.4544   26.1476 C   0  0  0  0  0  0
    5.6633   57.1973   16.9889 H   0  0  0  0  0  0
    5.9501   57.5837   18.6809 H   0  0  0  0  0  0
    4.3573   57.0327   18.1607 H   0  0  0  0  0  0
    5.3143   54.7935   17.5580 H   0  0  0  0  0  0
    6.9088   55.2929   18.0670 H   0  0  0  0  0  0
    7.5046   55.2383   23.0577 H   0  0  0  0  0  0
    6.5816   54.7051   25.2164 H   0  0  0  0  0  0
    2.7948   53.7952   23.3614 H   0  0  0  0  0  0
    3.7413   54.2864   21.1804 H   0  0  0  0  0  0
    3.0101   53.6138   25.5831 H   0  0  0  0  0  0
    3.8473   53.9649   28.9949 H   0  0  0  0  0  0
    2.6408   54.8810   28.1468 H   0  0  0  0  0  0
   -3.2685   51.8837   23.0043 H   0  0  0  0  0  0
   -2.7154   53.5106   23.1644 H   0  0  0  0  0  0
   -1.2504   52.3014   21.6254 H   0  0  0  0  0  0
   -0.3249   52.6921   23.0384 H   0  0  0  0  0  0
    0.2472   50.4320   22.4679 H   0  0  0  0  0  0
   -0.7030   50.3420   23.9108 H   0  0  0  0  0  0
   -2.7536   49.8626   22.2842 H   0  0  0  0  0  0
   -1.5674   49.7055   21.0550 H   0  0  0  0  0  0
   -2.1498   47.4992   21.8532 H   0  0  0  0  0  0
   -0.4957   47.8363   22.2250 H   0  0  0  0  0  0
   -1.3468   46.6888   24.0779 H   0  0  0  0  0  0
   -1.1435   48.2930   24.6510 H   0  0  0  0  0  0
   -3.8320   47.1868   23.6631 H   0  0  0  0  0  0
   -3.2845   46.9519   25.2893 H   0  0  0  0  0  0
   -3.8706   49.6843   24.0639 H   0  0  0  0  0  0
   -4.9325   48.7831   25.0805 H   0  0  0  0  0  0
   -3.3143   48.8995   26.9670 H   0  0  0  0  0  0
   -2.1898   49.7726   25.9984 H   0  0  0  0  0  0
   -3.5007   51.2308   27.5382 H   0  0  0  0  0  0
   -4.9798   50.7433   26.7932 H   0  0  0  0  0  0
   -4.5223   54.2022   25.3651 H   0  0  0  0  0  0
   -5.3474   53.3078   26.6322 H   0  0  0  0  0  0
   -3.7014   53.8857   26.8816 H   0  0  0  0  0  0
  1  2  1  0  0  0
  1 39  1  0  0  0
  1 40  1  0  0  0
  1 41  1  0  0  0
  2  3  1  0  0  0
  2 42  1  0  0  0
  2 43  1  0  0  0
  3  4  1  0  0  0
  4  5  2  0  0  0
  4  6  1  0  0  0
  6 11  2  0  0  0
  6  7  1  0  0  0
  7  8  2  0  0  0
  7 44  1  0  0  0
  8  9  1  0  0  0
  8 45  1  0  0  0
  9 10  2  0  0  0
  9 12  1  0  0  0
 10 11  1  0  0  0
 10 46  1  0  0  0
 11 47  1  0  0  0
 12 13  1  0  0  0
 12 48  1  0  0  0
 13 14  2  0  0  0
 13 15  1  0  0  0
 15 16  1  0  0  0
 15 49  1  0  0  0
 15 50  1  0  0  0
 16 17  1  0  0  0
 16 22  1  0  0  0
 16 18  1  0  0  0
 18 19  2  0  0  0
 18 20  1  0  0  0
 20 21  2  0  0  0
 21 22  1  0  0  0
 21 23  1  0  0  0
 23 24  1  0  0  0
 24 25  2  0  0  0
 25 36  1  0  0  0
 25 26  1  0  0  0
 26 27  1  0  0  0
 26 51  1  0  0  0
 26 52  1  0  0  0
 27 28  1  0  0  0
 27 53  1  0  0  0
 27 54  1  0  0  0
 28 29  1  0  0  0
 28 55  1  0  0  0
 28 56  1  0  0  0
 29 30  1  0  0  0
 29 57  1  0  0  0
 29 58  1  0  0  0
 30 31  1  0  0  0
 30 59  1  0  0  0
 30 60  1  0  0  0
 31 32  1  0  0  0
 31 61  1  0  0  0
 31 62  1  0  0  0
 32 33  1  0  0  0
 32 63  1  0  0  0
 32 64  1  0  0  0
 33 34  1  0  0  0
 33 65  1  0  0  0
 33 66  1  0  0  0
 34 35  1  0  0  0
 34 67  1  0  0  0
 34 68  1  0  0  0
 35 36  1  0  0  0
 35 69  1  0  0  0
 35 70  1  0  0  0
 36 37  1  0  0  0
 36 38  1  0  0  0
 38 71  1  0  0  0
 38 72  1  0  0  0
 38 73  1  0  0  0
M  CHG  1  23  -1
M  END
> <i_i_glide_confnum>
273

> <i_i_glide_lignum>
4661

> <i_i_glide_posenum>
146

> <i_i_glide_rotatable_bonds>
9

> <i_m_Source_File_Index>
826

> <b_m_subgroup_collapsed>
0

> <r_i_docking_score>
-5.3047

> <r_i_glide_ecoul>
-3.96286

> <r_i_glide_eff_state_penalty>
0

> <r_i_glide_einternal>
6.0545

> <r_i_glide_emodel>
-61.2476

> <r_i_glide_energy>
-48.1359

> <r_i_glide_erotb>
0.621773

> <r_i_glide_esite>
-0.0240821

> <r_i_glide_evdw>
-44.1731

> <r_i_glide_gscore>
-5.3047

> <r_i_glide_hbond>
0

> <r_i_glide_ligand_efficiency>
-0.147353

> <r_i_glide_ligand_efficiency_ln>
-1.15734

> <r_i_glide_ligand_efficiency_sa>
-0.486549

> <r_i_glide_lipo>
-2.23021

> <r_i_glide_metal>
0

> <r_i_glide_rewards>
-0.8691

> <s_i_glide_gridfile>
wee1_glide-grid

> <s_m_Source_File>
wee1_decoys_glide_SP.sdf

> <s_m_Source_Path>
/Users/zhangxujun/Desktop

> <s_m_entry_id>
1101

> <s_m_entry_name>
wee1_decoys_glide_SP.826

> <s_m_subgroup_title>
wee1_decoys_glide_SP

> <s_m_subgroupid>
wee1_decoys_glide_SP


$$$$
