ZINC20412438_856
                    3D
 Schrodinger Suite 2024-2.
 42 44  0  0  1  0            999 V2000
   -0.6444   51.1539   27.5075 C   0  0  0  0  0  0
   -1.6107   51.7878   26.6753 O   0  0  0  0  0  0
   -1.4499   51.7578   25.3022 C   0  0  0  0  0  0
   -0.3985   51.0982   24.6463 C   0  0  0  0  0  0
   -0.2873   51.1394   23.2568 C   0  0  0  0  0  0
   -1.2111   51.8583   22.4822 C   0  0  0  0  0  0
   -2.2792   52.4828   23.1382 C   0  0  0  0  0  0
   -2.3980   52.4359   24.5271 C   0  0  0  0  0  0
   -3.8733   53.3196   25.3551 Br  0  0  0  0  0  0
   -1.0569   51.9935   20.9820 C   0  0  0  0  0  0
   -2.0500   52.0962   20.2572 O   0  0  0  0  0  0
    0.2314   52.0961   20.5770 N   0  0  0  0  0  0
    0.8659   52.1117   19.3590 C   0  0  0  0  0  0
    0.1738   51.7515   17.8819 S   0  0  0  0  0  0
    2.1897   52.4839   19.3331 N   0  0  0  0  0  0
    3.0281   52.8336   20.3982 C   0  0  0  0  0  0
    4.1279   53.5053   20.1844 N   0  0  0  0  0  0
    4.7348   53.8569   21.3525 C   0  0  0  0  0  0
    5.9036   54.6205   21.4738 C   0  0  0  0  0  0
    6.3924   54.8969   22.7555 C   0  0  0  0  0  0
    5.7298   54.4570   23.9128 C   0  0  0  0  0  0
    4.5583   53.7026   23.7977 C   0  0  0  0  0  0
    4.0875   53.3968   22.5220 C   0  0  0  0  0  0
    2.7091   52.4350   22.0830 S   0  0  0  0  0  0
    6.2549   54.8272   25.2624 C   0  0  0  0  0  0
    7.1044   55.6968   25.4314 O   0  0  0  0  0  0
    5.7416   54.0849   26.2737 O   0  0  0  0  0  0
    6.1700   54.2848   27.6146 C   0  0  0  0  0  0
   -0.9616   51.2238   28.5472 H   0  0  0  0  0  0
    0.3285   51.6400   27.4217 H   0  0  0  0  0  0
   -0.5323   50.0967   27.2706 H   0  0  0  0  0  0
    0.3448   50.5479   25.2016 H   0  0  0  0  0  0
    0.5335   50.6073   22.7944 H   0  0  0  0  0  0
   -3.0160   53.0348   22.5761 H   0  0  0  0  0  0
    0.8733   52.1013   21.3540 H   0  0  0  0  0  0
    6.4187   54.9778   20.5946 H   0  0  0  0  0  0
    7.3035   55.4768   22.8451 H   0  0  0  0  0  0
    4.0256   53.3462   24.6692 H   0  0  0  0  0  0
    5.6486   53.5941   28.2770 H   0  0  0  0  0  0
    7.2424   54.1054   27.7146 H   0  0  0  0  0  0
    5.9577   55.3017   27.9502 H   0  0  0  0  0  0
    2.5676   52.7030   18.4228 H   0  0  0  0  0  0
  1  2  1  0  0  0
  1 29  1  0  0  0
  1 30  1  0  0  0
  1 31  1  0  0  0
  2  3  1  0  0  0
  3  8  2  0  0  0
  3  4  1  0  0  0
  4  5  2  0  0  0
  4 32  1  0  0  0
  5  6  1  0  0  0
  5 33  1  0  0  0
  6  7  2  0  0  0
  6 10  1  0  0  0
  7  8  1  0  0  0
  7 34  1  0  0  0
  8  9  1  0  0  0
 10 11  2  0  0  0
 10 12  1  0  0  0
 12 13  1  0  0  0
 12 35  1  0  0  0
 13 14  2  0  0  0
 13 15  1  0  0  0
 15 16  1  0  0  0
 15 42  1  0  0  0
 16 24  1  0  0  0
 16 17  2  0  0  0
 17 18  1  0  0  0
 18 23  2  0  0  0
 18 19  1  0  0  0
 19 20  2  0  0  0
 19 36  1  0  0  0
 20 21  1  0  0  0
 20 37  1  0  0  0
 21 22  2  0  0  0
 21 25  1  0  0  0
 22 23  1  0  0  0
 22 38  1  0  0  0
 23 24  1  0  0  0
 25 26  2  0  0  0
 25 27  1  0  0  0
 27 28  1  0  0  0
 28 39  1  0  0  0
 28 40  1  0  0  0
 28 41  1  0  0  0
M  END
> <i_i_glide_confnum>
39

> <i_i_glide_lignum>
857

> <i_i_glide_posenum>
323

> <i_i_glide_rotatable_bonds>
8

> <i_m_Source_File_Index>
5335

> <b_m_subgroup_collapsed>
0

> <r_i_docking_score>
-5.88186

> <r_i_glide_ecoul>
-6.20441

> <r_i_glide_eff_state_penalty>
0

> <r_i_glide_einternal>
9.53722

> <r_i_glide_emodel>
-54.989

> <r_i_glide_energy>
-42.0027

> <r_i_glide_erotb>
0.527299

> <r_i_glide_esite>
-0.0905159

> <r_i_glide_evdw>
-35.7983

> <r_i_glide_gscore>
-5.88186

> <r_i_glide_hbond>
-0.608

> <r_i_glide_ligand_efficiency>
-0.210066

> <r_i_glide_ligand_efficiency_ln>
-1.35771

> <r_i_glide_ligand_efficiency_sa>
-0.637886

> <r_i_glide_lipo>
-1.91684

> <r_i_glide_metal>
0

> <r_i_glide_rewards>
-1.07323

> <s_i_glide_gridfile>
wee1_glide-grid

> <s_m_Source_File>
wee1_decoys_glide_SP.sdf

> <s_m_Source_Path>
/Users/zhangxujun/Desktop

> <s_m_entry_id>
5610

> <s_m_entry_name>
wee1_decoys_glide_SP.5335

> <s_m_subgroup_title>
wee1_decoys_glide_SP

> <s_m_subgroupid>
wee1_decoys_glide_SP


$$$$
