ZINC19352324_3005
                    3D
 Schrodinger Suite 2024-2.
 66 69  0  0  1  0            999 V2000
    8.8805   54.9590   18.8000 C   0  0  0  0  0  0
    8.4910   56.2005   19.6244 C   0  0  0  0  0  0
    8.1483   55.8640   20.9695 O   0  0  0  0  0  0
    6.9252   55.2969   21.2743 C   0  0  0  0  0  0
    6.7252   54.9197   22.6015 C   0  0  0  0  0  0
    5.5413   54.3169   23.0037 C   0  0  0  0  0  0
    4.5121   54.1011   22.0838 C   0  0  0  0  0  0
    4.7025   54.4962   20.7538 C   0  0  0  0  0  0
    5.8964   55.0868   20.3484 C   0  0  0  0  0  0
    3.2408   53.4679   22.5663 C   0  0  0  0  0  0
    2.8379   53.5140   23.8166 N   0  0  0  0  0  0
    1.6961   52.7354   23.9209 N   0  0  0  0  0  0
    1.4098   52.2838   22.7265 C   0  0  0  0  0  0
    2.3521   52.7183   21.8168 N   0  0  0  0  0  0
    2.4020   52.4231   20.4674 N   0  0  0  0  0  0
    0.1398   51.1035   22.3947 S   0  0  0  0  0  0
    0.6919   49.8062   23.5694 C   0  0  0  0  0  0
    0.1045   49.8645   24.9864 C   0  0  0  0  0  0
    0.7016   49.2964   25.8963 O   0  0  0  0  0  0
   -1.0352   50.5542   25.1764 N   0  0  0  0  0  0
   -1.7293   50.7627   26.4582 C   0  0  1  0  0  0
   -1.8461   49.7597   26.8806 H   0  0  0  0  0  0
   -0.9446   51.5960   27.4945 C   0  0  0  0  0  0
   -1.1849   51.4336   28.8595 C   0  0  0  0  0  0
   -0.4737   52.1714   29.8024 C   0  0  0  0  0  0
    0.5048   53.0874   29.4085 C   0  0  0  0  0  0
    0.7739   53.2441   28.0270 C   0  0  0  0  0  0
    0.0482   52.4967   27.1037 C   0  0  0  0  0  0
    1.7521   54.0683   27.5104 O   0  0  0  0  0  0
    2.9780   54.1453   28.2170 C   0  0  0  0  0  0
    2.8997   55.1394   29.3793 C   0  0  0  0  0  0
    1.5355   55.1515   30.0791 C   0  0  0  0  0  0
    1.0973   53.8406   30.4047 O   0  0  0  0  0  0
   -3.1675   51.3048   26.1964 C   0  0  0  0  0  0
   -4.1311   51.0829   27.3797 C   0  0  0  0  0  0
   -3.2032   52.7689   25.7057 C   0  0  0  0  0  0
    9.0994   55.2282   17.7648 H   0  0  0  0  0  0
    9.7817   54.4984   19.2168 H   0  0  0  0  0  0
    8.0865   54.2087   18.7853 H   0  0  0  0  0  0
    7.6969   56.7763   19.1433 H   0  0  0  0  0  0
    9.3546   56.8687   19.6638 H   0  0  0  0  0  0
    7.5044   55.0868   23.3264 H   0  0  0  0  0  0
    5.4253   54.0277   24.0383 H   0  0  0  0  0  0
    3.9206   54.3827   20.0210 H   0  0  0  0  0  0
    5.9980   55.3764   19.3134 H   0  0  0  0  0  0
    2.5316   51.4431   20.2644 H   0  0  0  0  0  0
    1.6741   52.8811   19.9361 H   0  0  0  0  0  0
    1.7820   49.8001   23.6283 H   0  0  0  0  0  0
    0.4075   48.8408   23.1556 H   0  0  0  0  0  0
   -1.4709   50.9637   24.3664 H   0  0  0  0  0  0
   -1.9247   50.7242   29.2058 H   0  0  0  0  0  0
   -0.6886   52.0335   30.8548 H   0  0  0  0  0  0
    0.2707   52.6363   26.0590 H   0  0  0  0  0  0
    3.2919   53.1540   28.5528 H   0  0  0  0  0  0
    3.7509   54.4614   27.5138 H   0  0  0  0  0  0
    3.6931   54.8969   30.0832 H   0  0  0  0  0  0
    3.1057   56.1452   29.0183 H   0  0  0  0  0  0
    1.5839   55.7441   30.9913 H   0  0  0  0  0  0
    0.7843   55.6576   29.4721 H   0  0  0  0  0  0
   -3.5891   50.7063   25.3881 H   0  0  0  0  0  0
   -3.8675   51.6950   28.2397 H   0  0  0  0  0  0
   -5.1567   51.3330   27.1087 H   0  0  0  0  0  0
   -4.1280   50.0406   27.7045 H   0  0  0  0  0  0
   -2.8694   53.4585   26.4808 H   0  0  0  0  0  0
   -2.5609   52.9146   24.8352 H   0  0  0  0  0  0
   -4.2119   53.0648   25.4166 H   0  0  0  0  0  0
  1  2  1  0  0  0
  1 37  1  0  0  0
  1 38  1  0  0  0
  1 39  1  0  0  0
  2  3  1  0  0  0
  2 40  1  0  0  0
  2 41  1  0  0  0
  3  4  1  0  0  0
  4  9  2  0  0  0
  4  5  1  0  0  0
  5  6  2  0  0  0
  5 42  1  0  0  0
  6  7  1  0  0  0
  6 43  1  0  0  0
  7  8  2  0  0  0
  7 10  1  0  0  0
  8  9  1  0  0  0
  8 44  1  0  0  0
  9 45  1  0  0  0
 10 14  1  0  0  0
 10 11  2  0  0  0
 11 12  1  0  0  0
 12 13  2  0  0  0
 13 14  1  0  0  0
 13 16  1  0  0  0
 14 15  1  0  0  0
 15 46  1  0  0  0
 15 47  1  0  0  0
 16 17  1  0  0  0
 17 18  1  0  0  0
 17 48  1  0  0  0
 17 49  1  0  0  0
 18 19  2  0  0  0
 18 20  1  0  0  0
 20 21  1  0  0  0
 20 50  1  0  0  0
 21 22  1  0  0  0
 21 23  1  0  0  0
 21 34  1  0  0  0
 23 28  2  0  0  0
 23 24  1  0  0  0
 24 25  2  0  0  0
 24 51  1  0  0  0
 25 26  1  0  0  0
 25 52  1  0  0  0
 26 33  1  0  0  0
 26 27  2  0  0  0
 27 28  1  0  0  0
 27 29  1  0  0  0
 28 53  1  0  0  0
 29 30  1  0  0  0
 30 31  1  0  0  0
 30 54  1  0  0  0
 30 55  1  0  0  0
 31 32  1  0  0  0
 31 56  1  0  0  0
 31 57  1  0  0  0
 32 33  1  0  0  0
 32 58  1  0  0  0
 32 59  1  0  0  0
 34 35  1  0  0  0
 34 36  1  0  0  0
 34 60  1  0  0  0
 35 61  1  0  0  0
 35 62  1  0  0  0
 35 63  1  0  0  0
 36 64  1  0  0  0
 36 65  1  0  0  0
 36 66  1  0  0  0
M  END
> <i_i_glide_confnum>
346

> <i_i_glide_lignum>
3006

> <i_i_glide_posenum>
296

> <i_i_glide_rotatable_bonds>
10

> <i_m_Source_File_Index>
3767

> <b_m_subgroup_collapsed>
0

> <r_i_docking_score>
-5.15885

> <r_i_glide_ecoul>
-4.31658

> <r_i_glide_eff_state_penalty>
0

> <r_i_glide_einternal>
5.54488

> <r_i_glide_emodel>
-64.5443

> <r_i_glide_energy>
-51.0907

> <r_i_glide_erotb>
0.576708

> <r_i_glide_esite>
-0.0719537

> <r_i_glide_evdw>
-46.7741

> <r_i_glide_gscore>
-5.15885

> <r_i_glide_hbond>
-0.0333903

> <r_i_glide_ligand_efficiency>
-0.147396

> <r_i_glide_ligand_efficiency_ln>
-1.13248

> <r_i_glide_ligand_efficiency_sa>
-0.482141

> <r_i_glide_lipo>
-2.27566

> <r_i_glide_metal>
0

> <r_i_glide_rewards>
-0.368367

> <s_i_glide_gridfile>
wee1_glide-grid

> <s_m_Source_File>
wee1_decoys_glide_SP.sdf

> <s_m_Source_Path>
/Users/zhangxujun/Desktop

> <s_m_entry_id>
4042

> <s_m_entry_name>
wee1_decoys_glide_SP.3767

> <s_m_subgroup_title>
wee1_decoys_glide_SP

> <s_m_subgroupid>
wee1_decoys_glide_SP


$$$$
