ZINC40796919_4404
                    3D
 Schrodinger Suite 2024-2.
 44 48  0  0  1  0            999 V2000
    1.5659   55.8527   30.0830 C   0  0  0  0  0  0
    0.6723   54.8039   30.2417 C   0  0  0  0  0  0
    0.8633   53.5901   29.5447 C   0  0  0  0  0  0
   -0.0955   52.5522   29.5868 C   0  0  0  0  0  0
    0.0927   51.4212   28.8046 C   0  0  0  0  0  0
    1.2708   51.2967   28.0816 C   0  0  0  0  0  0
    2.2478   52.2290   28.0810 N   0  0  0  0  0  0
    2.0402   53.3993   28.7513 C   0  0  0  0  0  0
    2.9679   54.4826   28.6667 C   0  0  0  0  0  0
    2.7045   55.6879   29.3092 C   0  0  0  0  0  0
    4.4932   54.2246   27.7650 S   0  0  0  0  0  0
    4.0306   54.1665   26.0377 C   0  0  0  0  0  0
    5.0103   54.1748   25.0223 C   0  0  0  0  0  0
    4.5530   54.0970   23.6923 C   0  0  0  0  0  0
    3.2198   54.0795   23.3942 N   0  0  0  0  0  0
    2.3610   54.0713   24.4363 C   0  0  0  0  0  0
    2.7052   54.0966   25.7428 N   0  0  0  0  0  0
    5.4686   54.0149   22.6490 O   0  0  0  0  0  0
    5.1036   53.7793   21.3322 C   0  0  0  0  0  0
    4.2371   52.7337   20.9942 C   0  0  0  0  0  0
    3.8509   52.5100   19.6803 C   0  0  0  0  0  0
    4.3432   53.2982   18.6467 C   0  0  0  0  0  0
    5.2866   54.3225   18.9294 C   0  0  0  0  0  0
    5.6777   54.5603   20.2878 C   0  0  0  0  0  0
    6.6140   55.5036   20.6060 N   0  0  0  0  0  0
    7.1908   56.2080   19.6031 C   0  0  0  0  0  0
    6.8500   56.0628   18.2647 C   0  0  0  0  0  0
    5.8858   55.1220   17.9189 C   0  0  0  0  0  0
    3.7604   52.9286   16.8674 Br  0  0  0  0  0  0
    6.3821   54.2433   25.3040 N   0  0  0  0  0  0
    1.3992   56.7880   30.5996 H   0  0  0  0  0  0
   -0.2044   54.9274   30.8609 H   0  0  0  0  0  0
   -0.9839   52.6585   30.1895 H   0  0  0  0  0  0
   -0.6544   50.6416   28.7748 H   0  0  0  0  0  0
    1.4523   50.4181   27.4804 H   0  0  0  0  0  0
    3.4124   56.4942   29.2818 H   0  0  0  0  0  0
    1.3061   54.0368   24.2065 H   0  0  0  0  0  0
    3.8393   52.0927   21.7663 H   0  0  0  0  0  0
    3.1706   51.7028   19.4512 H   0  0  0  0  0  0
    7.9694   56.8976   19.8862 H   0  0  0  0  0  0
    7.3371   56.6568   17.5045 H   0  0  0  0  0  0
    5.6174   54.9807   16.8823 H   0  0  0  0  0  0
    6.6764   54.0923   26.2585 H   0  0  0  0  0  0
    7.0320   54.1469   24.5350 H   0  0  0  0  0  0
  1 10  2  0  0  0
  1  2  1  0  0  0
  1 31  1  0  0  0
  2  3  2  0  0  0
  2 32  1  0  0  0
  3  8  1  0  0  0
  3  4  1  0  0  0
  4  5  2  0  0  0
  4 33  1  0  0  0
  5  6  1  0  0  0
  5 34  1  0  0  0
  6  7  2  0  0  0
  6 35  1  0  0  0
  7  8  1  0  0  0
  8  9  2  0  0  0
  9 10  1  0  0  0
  9 11  1  0  0  0
 10 36  1  0  0  0
 11 12  1  0  0  0
 12 17  2  0  0  0
 12 13  1  0  0  0
 13 14  2  0  0  0
 13 30  1  0  0  0
 14 15  1  0  0  0
 14 18  1  0  0  0
 15 16  2  0  0  0
 16 17  1  0  0  0
 16 37  1  0  0  0
 18 19  1  0  0  0
 19 24  2  0  0  0
 19 20  1  0  0  0
 20 21  2  0  0  0
 20 38  1  0  0  0
 21 22  1  0  0  0
 21 39  1  0  0  0
 22 23  2  0  0  0
 22 29  1  0  0  0
 23 28  1  0  0  0
 23 24  1  0  0  0
 24 25  1  0  0  0
 25 26  2  0  0  0
 26 27  1  0  0  0
 26 40  1  0  0  0
 27 28  2  0  0  0
 27 41  1  0  0  0
 28 42  1  0  0  0
 30 43  1  0  0  0
 30 44  1  0  0  0
M  END
> <i_i_glide_confnum>
11

> <i_i_glide_lignum>
4405

> <i_i_glide_posenum>
85

> <i_i_glide_rotatable_bonds>
4

> <i_m_Source_File_Index>
1206

> <b_m_subgroup_collapsed>
0

> <r_i_docking_score>
-5.29591

> <r_i_glide_ecoul>
0.0232256

> <r_i_glide_eff_state_penalty>
0

> <r_i_glide_einternal>
1.24019

> <r_i_glide_emodel>
-59.3984

> <r_i_glide_energy>
-45.1593

> <r_i_glide_erotb>
0.356956

> <r_i_glide_esite>
0

> <r_i_glide_evdw>
-45.1825

> <r_i_glide_gscore>
-5.29591

> <r_i_glide_hbond>
0

> <r_i_glide_ligand_efficiency>
-0.17653

> <r_i_glide_ligand_efficiency_ln>
-1.20329

> <r_i_glide_ligand_efficiency_sa>
-0.548521

> <r_i_glide_lipo>
-2.896

> <r_i_glide_metal>
0

> <r_i_glide_rewards>
-0.50123

> <s_i_glide_gridfile>
wee1_glide-grid

> <s_m_Source_File>
wee1_decoys_glide_SP.sdf

> <s_m_Source_Path>
/Users/zhangxujun/Desktop

> <s_m_entry_id>
1481

> <s_m_entry_name>
wee1_decoys_glide_SP.1206

> <s_m_subgroup_title>
wee1_decoys_glide_SP

> <s_m_subgroupid>
wee1_decoys_glide_SP


$$$$
