ZINC32961952_5949
                    3D
 Schrodinger Suite 2024-2.
 62 65  0  0  1  0            999 V2000
    7.7528   57.1621   16.9747 C   0  0  0  0  0  0
    7.5046   57.4899   18.4610 C   0  0  0  0  0  0
    6.8675   58.8789   18.6321 C   0  0  0  0  0  0
    6.7043   56.4039   19.1848 C   0  0  0  0  0  0
    5.5093   55.9117   18.6455 C   0  0  0  0  0  0
    4.8095   54.8971   19.2946 C   0  0  0  0  0  0
    5.2965   54.3865   20.4991 C   0  0  0  0  0  0
    6.4644   54.8970   21.0603 C   0  0  0  0  0  0
    7.1726   55.8942   20.4001 C   0  0  0  0  0  0
    4.4419   53.0507   21.3214 S   0  0  0  0  0  0
    3.5728   52.3999   20.3372 O   0  0  0  0  0  0
    5.4418   52.2946   22.0817 O   0  0  0  0  0  0
    3.3564   53.8208   22.4806 N   0  0  0  0  0  0
    3.5894   53.8340   23.8667 C   0  0  0  0  0  0
    4.7909   54.3339   24.3798 C   0  0  0  0  0  0
    5.0384   54.3480   25.7596 C   0  0  0  0  0  0
    4.0309   53.9207   26.6313 C   0  0  0  0  0  0
    2.8166   53.4523   26.1328 C   0  0  0  0  0  0
    2.5953   53.3770   24.7550 C   0  0  0  0  0  0
    1.3960   52.8485   24.3131 N   0  0  0  0  0  0
    1.1355   51.4267   24.1051 C   0  0  0  0  0  0
   -0.2947   50.9867   24.5230 C   0  0  0  0  0  0
   -1.2868   52.0672   24.6791 N   0  0  0  0  0  0
   -1.0660   53.1178   23.6817 C   0  0  0  0  0  0
    0.3696   53.6965   23.7280 C   0  0  0  0  0  0
   -2.5396   51.7865   25.2103 C   0  0  0  0  0  0
   -3.7053   51.9856   24.4554 C   0  0  0  0  0  0
   -4.9634   51.7401   25.0033 C   0  0  0  0  0  0
   -5.0774   51.3076   26.3228 C   0  0  0  0  0  0
   -3.9318   51.1391   27.0985 C   0  0  0  0  0  0
   -2.6723   51.3926   26.5541 C   0  0  0  0  0  0
   -1.5883   51.2934   27.3605 F   0  0  0  0  0  0
    6.3652   54.7823   26.2860 C   0  0  0  0  0  0
    6.9656   55.6969   25.6772 O   0  0  0  0  0  0
    6.8147   54.1902   27.2909 O   0  5  0  0  0  0
    8.1884   56.1690   16.8559 H   0  0  0  0  0  0
    8.4433   57.8760   16.5244 H   0  0  0  0  0  0
    6.8323   57.1946   16.3911 H   0  0  0  0  0  0
    8.4929   57.5333   18.9201 H   0  0  0  0  0  0
    6.7030   59.1221   19.6815 H   0  0  0  0  0  0
    7.5041   59.6592   18.2151 H   0  0  0  0  0  0
    5.9048   58.9401   18.1241 H   0  0  0  0  0  0
    5.1262   56.3034   17.7155 H   0  0  0  0  0  0
    3.8977   54.5098   18.8614 H   0  0  0  0  0  0
    6.8609   54.4968   21.9823 H   0  0  0  0  0  0
    8.0997   56.2478   20.8277 H   0  0  0  0  0  0
    2.3958   53.8809   22.1828 H   0  0  0  0  0  0
    5.5556   54.6885   23.7068 H   0  0  0  0  0  0
    4.1966   53.9250   27.6996 H   0  0  0  0  0  0
    2.0574   53.1086   26.8203 H   0  0  0  0  0  0
    1.2078   51.3330   23.0200 H   0  0  0  0  0  0
    1.9044   50.7602   24.4812 H   0  0  0  0  0  0
   -0.1701   50.5856   25.5286 H   0  0  0  0  0  0
   -0.6439   50.1872   23.8678 H   0  0  0  0  0  0
   -1.8240   53.9014   23.6916 H   0  0  0  0  0  0
   -1.1868   52.6040   22.7262 H   0  0  0  0  0  0
    0.3203   54.5112   24.4390 H   0  0  0  0  0  0
    0.7045   54.0727   22.7642 H   0  0  0  0  0  0
   -3.6390   52.3120   23.4295 H   0  0  0  0  0  0
   -5.8512   51.8823   24.4030 H   0  0  0  0  0  0
   -6.0514   51.1119   26.7463 H   0  0  0  0  0  0
   -4.0142   50.8209   28.1277 H   0  0  0  0  0  0
  1  2  1  0  0  0
  1 36  1  0  0  0
  1 37  1  0  0  0
  1 38  1  0  0  0
  2  3  1  0  0  0
  2  4  1  0  0  0
  2 39  1  0  0  0
  3 40  1  0  0  0
  3 41  1  0  0  0
  3 42  1  0  0  0
  4  9  2  0  0  0
  4  5  1  0  0  0
  5  6  2  0  0  0
  5 43  1  0  0  0
  6  7  1  0  0  0
  6 44  1  0  0  0
  7  8  2  0  0  0
  7 10  1  0  0  0
  8  9  1  0  0  0
  8 45  1  0  0  0
  9 46  1  0  0  0
 10 11  2  0  0  0
 10 12  2  0  0  0
 10 13  1  0  0  0
 13 14  1  0  0  0
 13 47  1  0  0  0
 14 19  2  0  0  0
 14 15  1  0  0  0
 15 16  2  0  0  0
 15 48  1  0  0  0
 16 17  1  0  0  0
 16 33  1  0  0  0
 17 18  2  0  0  0
 17 49  1  0  0  0
 18 19  1  0  0  0
 18 50  1  0  0  0
 19 20  1  0  0  0
 20 25  1  0  0  0
 20 21  1  0  0  0
 21 22  1  0  0  0
 21 51  1  0  0  0
 21 52  1  0  0  0
 22 23  1  0  0  0
 22 53  1  0  0  0
 22 54  1  0  0  0
 23 24  1  0  0  0
 23 26  1  0  0  0
 24 25  1  0  0  0
 24 55  1  0  0  0
 24 56  1  0  0  0
 25 57  1  0  0  0
 25 58  1  0  0  0
 26 31  2  0  0  0
 26 27  1  0  0  0
 27 28  2  0  0  0
 27 59  1  0  0  0
 28 29  1  0  0  0
 28 60  1  0  0  0
 29 30  2  0  0  0
 29 61  1  0  0  0
 30 31  1  0  0  0
 30 62  1  0  0  0
 31 32  1  0  0  0
 33 34  2  0  0  0
 33 35  1  0  0  0
M  CHG  1  35  -1
M  END
> <i_i_glide_confnum>
802

> <i_i_glide_lignum>
5950

> <i_i_glide_posenum>
264

> <i_i_glide_rotatable_bonds>
7

> <i_m_Source_File_Index>
2787

> <b_m_subgroup_collapsed>
0

> <r_i_docking_score>
-5.61664

> <r_i_glide_ecoul>
-4.33601

> <r_i_glide_eff_state_penalty>
0

> <r_i_glide_einternal>
12.8082

> <r_i_glide_emodel>
-54.9971

> <r_i_glide_energy>
-43.3368

> <r_i_glide_erotb>
0.413511

> <r_i_glide_esite>
-0.102769

> <r_i_glide_evdw>
-39.0008

> <r_i_glide_gscore>
-5.61664

> <r_i_glide_hbond>
-0.16

> <r_i_glide_ligand_efficiency>
-0.160476

> <r_i_glide_ligand_efficiency_ln>
-1.23298

> <r_i_glide_ligand_efficiency_sa>
-0.524926

> <r_i_glide_lipo>
-2.22735

> <r_i_glide_metal>
0

> <r_i_glide_rewards>
-0.939593

> <s_i_glide_gridfile>
wee1_glide-grid

> <s_m_Source_File>
wee1_decoys_glide_SP.sdf

> <s_m_Source_Path>
/Users/zhangxujun/Desktop

> <s_m_entry_id>
3062

> <s_m_entry_name>
wee1_decoys_glide_SP.2787

> <s_m_subgroup_title>
wee1_decoys_glide_SP

> <s_m_subgroupid>
wee1_decoys_glide_SP


$$$$
