ZINC20321023_3871
                    3D
 Schrodinger Suite 2024-2.
 28 30  0  0  1  0            999 V2000
    0.8999   52.9014   24.3646 C   0  0  0  0  0  0
    2.2901   53.4268   24.6553 C   0  0  0  0  0  0
    2.8923   53.7515   25.8814 C   0  0  0  0  0  0
    4.2667   54.1552   25.7092 C   0  0  0  0  0  0
    5.3195   54.4964   26.6066 C   0  0  0  0  0  0
    6.5312   54.9054   26.1617 N   0  0  0  0  0  0
    6.7054   54.9439   24.8236 C   0  0  0  0  0  0
    5.8239   54.5871   23.8644 N   0  0  0  0  0  0
    4.6335   54.2095   24.3329 C   0  0  0  0  0  0
    3.3426   53.7149   23.2817 S   0  0  0  0  0  0
    5.2093   54.4166   27.9939 N   0  0  0  0  0  0
    2.1890   53.6787   27.1989 C   0  0  0  0  0  0
    2.2115   54.7687   28.0783 C   0  0  0  0  0  0
    1.6291   54.6660   29.3367 C   0  0  0  0  0  0
    1.0284   53.4700   29.7150 C   0  0  0  0  0  0
    0.9678   52.3892   28.8394 C   0  0  0  0  0  0
    1.5453   52.4966   27.5793 C   0  0  0  0  0  0
    0.3046   53.2997   31.4571 Br  0  0  0  0  0  0
    0.1281   53.4630   24.8815 H   0  0  0  0  0  0
    0.6462   52.9636   23.3041 H   0  0  0  0  0  0
    0.7962   51.8551   24.6518 H   0  0  0  0  0  0
    7.6561   55.3080   24.4822 H   0  0  0  0  0  0
    4.3524   54.0781   28.4077 H   0  0  0  0  0  0
    6.0059   54.6723   28.5617 H   0  0  0  0  0  0
    2.6873   55.6962   27.7907 H   0  0  0  0  0  0
    1.6537   55.5030   30.0183 H   0  0  0  0  0  0
    0.4881   51.4689   29.1427 H   0  0  0  0  0  0
    1.5158   51.6513   26.9120 H   0  0  0  0  0  0
  1  2  1  0  0  0
  1 19  1  0  0  0
  1 20  1  0  0  0
  1 21  1  0  0  0
  2 10  1  0  0  0
  2  3  2  0  0  0
  3  4  1  0  0  0
  3 12  1  0  0  0
  4  9  2  0  0  0
  4  5  1  0  0  0
  5  6  2  0  0  0
  5 11  1  0  0  0
  6  7  1  0  0  0
  7  8  2  0  0  0
  7 22  1  0  0  0
  8  9  1  0  0  0
  9 10  1  0  0  0
 11 23  1  0  0  0
 11 24  1  0  0  0
 12 17  2  0  0  0
 12 13  1  0  0  0
 13 14  2  0  0  0
 13 25  1  0  0  0
 14 15  1  0  0  0
 14 26  1  0  0  0
 15 16  2  0  0  0
 15 18  1  0  0  0
 16 17  1  0  0  0
 16 27  1  0  0  0
 17 28  1  0  0  0
M  END
> <i_i_glide_confnum>
1

> <i_i_glide_lignum>
3872

> <i_i_glide_posenum>
97

> <i_i_glide_rotatable_bonds>
1

> <i_m_Source_File_Index>
3105

> <b_m_subgroup_collapsed>
0

> <r_i_docking_score>
-6.41041

> <r_i_glide_ecoul>
-1.41324

> <r_i_glide_eff_state_penalty>
0

> <r_i_glide_einternal>
0.186268

> <r_i_glide_emodel>
-51.9116

> <r_i_glide_energy>
-37.697

> <r_i_glide_erotb>
0.182082

> <r_i_glide_esite>
0

> <r_i_glide_evdw>
-36.2837

> <r_i_glide_gscore>
-6.41041

> <r_i_glide_hbond>
-0.130716

> <r_i_glide_ligand_efficiency>
-0.356134

> <r_i_glide_ligand_efficiency_ln>
-1.64776

> <r_i_glide_ligand_efficiency_sa>
-0.933335

> <r_i_glide_lipo>
-2.80249

> <r_i_glide_metal>
0

> <r_i_glide_rewards>
-1.63312

> <s_i_glide_gridfile>
wee1_glide-grid

> <s_m_Source_File>
wee1_decoys_glide_SP.sdf

> <s_m_Source_Path>
/Users/zhangxujun/Desktop

> <s_m_entry_id>
3380

> <s_m_entry_name>
wee1_decoys_glide_SP.3105

> <s_m_subgroup_title>
wee1_decoys_glide_SP

> <s_m_subgroupid>
wee1_decoys_glide_SP


$$$$
