ZINC59418524_1004
                    3D
 Schrodinger Suite 2024-2.
 59 62  0  0  1  0            999 V2000
    1.8282   52.7933   30.2291 C   0  0  0  0  0  0
    1.1406   53.7477   29.2422 C   0  0  0  0  0  0
    0.9794   53.1433   27.9589 O   0  0  0  0  0  0
   -0.0380   52.2811   27.7024 C   0  0  0  0  0  0
   -0.8868   51.9967   28.5499 O   0  0  0  0  0  0
   -0.0471   51.6844   26.3411 C   0  0  0  0  0  0
    0.7954   52.0198   25.3147 C   0  0  0  0  0  0
    0.7684   51.3878   24.1044 N   0  0  0  0  0  0
   -0.0041   50.3860   23.8963 C   0  0  0  0  0  0
   -0.9388   49.9560   24.7824 N   0  0  0  0  0  0
   -1.6571   48.8549   24.4374 C   0  0  0  0  0  0
   -2.5221   48.3381   25.1504 O   0  0  0  0  0  0
   -1.2853   48.3858   23.1160 C   0  0  0  0  0  0
   -1.8958   47.2938   22.5933 C   0  0  0  0  0  0
   -1.7009   46.6623   21.2629 C   0  0  0  0  0  0
   -1.4187   47.4403   20.1328 C   0  0  0  0  0  0
   -1.2425   46.8640   18.8675 C   0  0  0  0  0  0
   -1.3417   45.4730   18.7441 C   0  0  0  0  0  0
   -1.6298   44.6854   19.8537 C   0  0  0  0  0  0
   -1.8193   45.2683   21.1042 C   0  0  0  0  0  0
   -2.0961   44.4976   22.0812 O   0  5  0  0  0  0
   -0.9733   47.7107   17.6817 N   0  3  0  0  0  0
   -0.8271   47.1635   16.5927 O   0  0  0  0  0  0
   -0.9180   48.9279   17.8308 O   0  5  0  0  0  0
   -0.0069   49.4065   22.4319 S   0  0  0  0  0  0
   -1.1928   50.6642   26.0797 C   0  0  2  0  0  0
   -1.2099   49.9214   26.8808 H   0  0  0  0  0  0
   -2.5835   51.3198   26.0703 C   0  0  0  0  0  0
   -3.5435   50.9241   27.0017 C   0  0  0  0  0  0
   -4.7934   51.5375   27.0169 C   0  0  0  0  0  0
   -5.1183   52.5502   26.0950 C   0  0  0  0  0  0
   -4.1336   52.9391   25.1709 C   0  0  0  0  0  0
   -2.8814   52.3331   25.1576 C   0  0  0  0  0  0
   -6.3990   53.1781   26.1011 N   0  0  0  0  0  0
   -6.9075   53.7301   24.8434 C   0  0  0  0  0  0
   -7.4219   52.7298   27.0464 C   0  0  0  0  0  0
    1.9008   53.0741   25.3177 C   0  0  0  0  0  0
    1.9050   53.2493   31.2166 H   0  0  0  0  0  0
    1.2655   51.8654   30.3407 H   0  0  0  0  0  0
    2.8333   52.5374   29.8951 H   0  0  0  0  0  0
    1.7456   54.6449   29.1243 H   0  0  0  0  0  0
    0.1797   54.0784   29.6351 H   0  0  0  0  0  0
   -2.6507   46.7966   23.1885 H   0  0  0  0  0  0
   -1.3693   48.5145   20.2277 H   0  0  0  0  0  0
   -1.2148   44.9941   17.7839 H   0  0  0  0  0  0
   -1.7205   43.6164   19.7348 H   0  0  0  0  0  0
   -3.3192   50.1432   27.7198 H   0  0  0  0  0  0
   -5.5037   51.1937   27.7510 H   0  0  0  0  0  0
   -4.3088   53.7243   24.4532 H   0  0  0  0  0  0
   -2.1377   52.6564   24.4426 H   0  0  0  0  0  0
   -6.9946   52.9380   24.0968 H   0  0  0  0  0  0
   -7.8960   54.1787   24.9700 H   0  0  0  0  0  0
   -6.2521   54.4972   24.4315 H   0  0  0  0  0  0
   -7.7500   51.7182   26.8020 H   0  0  0  0  0  0
   -7.0382   52.7187   28.0673 H   0  0  0  0  0  0
   -8.2960   53.3825   27.0316 H   0  0  0  0  0  0
    2.7070   52.7749   25.9866 H   0  0  0  0  0  0
    2.3378   53.2435   24.3313 H   0  0  0  0  0  0
    1.5045   54.0319   25.6510 H   0  0  0  0  0  0
  1  2  1  0  0  0
  1 38  1  0  0  0
  1 39  1  0  0  0
  1 40  1  0  0  0
  2  3  1  0  0  0
  2 41  1  0  0  0
  2 42  1  0  0  0
  3  4  1  0  0  0
  4  5  2  0  0  0
  4  6  1  0  0  0
  6 26  1  0  0  0
  6  7  2  0  0  0
  7  8  1  0  0  0
  7 37  1  0  0  0
  8  9  2  0  0  0
  9 25  1  0  0  0
  9 10  1  0  0  0
 10 11  1  0  0  0
 10 26  1  0  0  0
 11 12  2  0  0  0
 11 13  1  0  0  0
 13 14  2  0  0  0
 13 25  1  0  0  0
 14 15  1  0  0  0
 14 43  1  0  0  0
 15 20  2  0  0  0
 15 16  1  0  0  0
 16 17  2  0  0  0
 16 44  1  0  0  0
 17 18  1  0  0  0
 17 22  1  0  0  0
 18 19  2  0  0  0
 18 45  1  0  0  0
 19 20  1  0  0  0
 19 46  1  0  0  0
 20 21  1  0  0  0
 22 23  2  0  0  0
 22 24  1  0  0  0
 26 27  1  0  0  0
 26 28  1  0  0  0
 28 33  2  0  0  0
 28 29  1  0  0  0
 29 30  2  0  0  0
 29 47  1  0  0  0
 30 31  1  0  0  0
 30 48  1  0  0  0
 31 32  2  0  0  0
 31 34  1  0  0  0
 32 33  1  0  0  0
 32 49  1  0  0  0
 33 50  1  0  0  0
 34 35  1  0  0  0
 34 36  1  0  0  0
 35 51  1  0  0  0
 35 52  1  0  0  0
 35 53  1  0  0  0
 36 54  1  0  0  0
 36 55  1  0  0  0
 36 56  1  0  0  0
 37 57  1  0  0  0
 37 58  1  0  0  0
 37 59  1  0  0  0
M  CHG  3  21  -1  22   1  24  -1
M  END
> <i_i_glide_confnum>
27

> <i_i_glide_lignum>
1005

> <i_i_glide_posenum>
329

> <i_i_glide_rotatable_bonds>
7

> <i_m_Source_File_Index>
468

> <b_m_subgroup_collapsed>
0

> <r_i_docking_score>
-2.50726

> <r_i_glide_ecoul>
-1.3112

> <r_i_glide_eff_state_penalty>
0

> <r_i_glide_einternal>
1.96332

> <r_i_glide_emodel>
-40.2722

> <r_i_glide_energy>
-34.0341

> <r_i_glide_erotb>
0.317821

> <r_i_glide_esite>
-0.024904

> <r_i_glide_evdw>
-32.7229

> <r_i_glide_gscore>
-2.50726

> <r_i_glide_hbond>
-0.2

> <r_i_glide_ligand_efficiency>
-0.0696462

> <r_i_glide_ligand_efficiency_ln>
-0.547017

> <r_i_glide_ligand_efficiency_sa>
-0.229967

> <r_i_glide_lipo>
-0.745066

> <r_i_glide_metal>
0

> <r_i_glide_rewards>
-0.0222911

> <s_i_glide_gridfile>
wee1_glide-grid

> <s_m_Source_File>
wee1_decoys_glide_SP.sdf

> <s_m_Source_Path>
/Users/zhangxujun/Desktop

> <s_m_entry_id>
743

> <s_m_entry_name>
wee1_decoys_glide_SP.468

> <s_m_subgroup_title>
wee1_decoys_glide_SP

> <s_m_subgroupid>
wee1_decoys_glide_SP


$$$$
