ZINC39659958_220
                    3D
 Schrodinger Suite 2024-2.
 69 72  0  0  1  0            999 V2000
   -6.7325   50.5771   28.8295 C   0  0  0  0  0  0
   -7.2539   50.6188   27.3744 C   0  0  0  0  0  0
   -6.8513   51.8564   26.5385 C   0  0  0  0  0  0
   -5.6873   51.6447   25.5402 C   0  0  0  0  0  0
   -4.2725   51.4128   26.1308 C   0  0  0  0  0  0
   -4.1418   50.0685   26.9064 C   0  0  0  0  0  0
   -4.1608   50.1747   28.4461 C   0  0  0  0  0  0
   -5.2784   51.0250   29.0835 C   0  0  0  0  0  0
   -3.2843   51.5025   25.0477 N   0  0  0  0  0  0
   -1.9777   51.7714   25.2219 C   0  0  0  0  0  0
   -1.5128   52.0360   26.3326 O   0  0  0  0  0  0
   -1.1098   51.8727   23.9405 C   0  0  1  0  0  0
   -1.7755   51.9907   23.0842 H   0  0  0  0  0  0
   -0.2563   53.1488   24.0818 C   0  0  0  0  0  0
    0.9959   52.8497   23.3868 N   0  0  0  0  0  0
    0.9942   51.5017   22.8199 C   0  0  0  0  0  0
   -0.0694   50.7437   23.6549 C   0  0  0  0  0  0
   -0.5956   49.5234   22.8552 C   0  0  0  0  0  0
   -1.4989   48.5965   23.6916 C   0  0  0  0  0  0
   -0.6807   48.0680   24.8872 N   0  3  0  0  0  0
   -0.0734   49.1738   25.7661 C   0  0  0  0  0  0
    0.7043   50.1670   24.8815 C   0  0  0  0  0  0
    2.0501   53.6971   23.4966 C   0  0  0  0  0  0
    1.9292   54.7719   24.0816 O   0  0  0  0  0  0
    3.4289   53.3769   22.8672 C   0  0  0  0  0  0
    3.5092   54.0966   21.5178 C   0  0  0  0  0  0
    4.9221   54.0004   20.9106 C   0  0  0  0  0  0
    5.8989   54.4815   21.8335 O   0  0  0  0  0  0
    5.9341   53.7742   23.0710 C   0  0  0  0  0  0
    4.5760   53.8783   23.7913 C   0  0  0  0  0  0
   -6.8715   49.5700   29.2264 H   0  0  0  0  0  0
   -7.3800   51.2128   29.4354 H   0  0  0  0  0  0
   -6.9992   49.7004   26.8480 H   0  0  0  0  0  0
   -8.3432   50.5862   27.4278 H   0  0  0  0  0  0
   -7.7216   52.1531   25.9506 H   0  0  0  0  0  0
   -6.6535   52.7148   27.1811 H   0  0  0  0  0  0
   -5.9387   50.8331   24.8557 H   0  0  0  0  0  0
   -5.6505   52.5388   24.9140 H   0  0  0  0  0  0
   -4.0784   52.2468   26.8099 H   0  0  0  0  0  0
   -3.2029   49.5755   26.6536 H   0  0  0  0  0  0
   -4.8889   49.3541   26.5678 H   0  0  0  0  0  0
   -4.1892   49.1688   28.8680 H   0  0  0  0  0  0
   -3.2010   50.5833   28.7677 H   0  0  0  0  0  0
   -5.1135   51.0166   30.1626 H   0  0  0  0  0  0
   -5.1622   52.0691   28.7995 H   0  0  0  0  0  0
   -3.6390   51.3876   24.1112 H   0  0  0  0  0  0
   -0.7605   54.0290   23.6820 H   0  0  0  0  0  0
    0.0487   53.2964   25.1200 H   0  0  0  0  0  0
    1.9387   50.9596   22.7796 H   0  0  0  0  0  0
    0.6064   51.5743   21.8023 H   0  0  0  0  0  0
   -1.1188   49.8559   21.9576 H   0  0  0  0  0  0
    0.2468   48.9374   22.4812 H   0  0  0  0  0  0
   -2.3752   49.0962   24.1042 H   0  0  0  0  0  0
   -1.8237   47.7181   23.1314 H   0  0  0  0  0  0
   -1.2480   47.4799   25.4855 H   0  0  0  0  0  0
   -0.8936   49.6015   26.3384 H   0  0  0  0  0  0
    0.5761   48.6639   26.4801 H   0  0  0  0  0  0
    1.5808   49.6284   24.5156 H   0  0  0  0  0  0
    1.1042   50.9768   25.4942 H   0  0  0  0  0  0
    3.5040   52.3066   22.7104 H   0  0  0  0  0  0
    2.8158   53.6698   20.7924 H   0  0  0  0  0  0
    3.3346   55.1619   21.6756 H   0  0  0  0  0  0
    5.1399   52.9628   20.6485 H   0  0  0  0  0  0
    4.9845   54.5812   19.9898 H   0  0  0  0  0  0
    6.1720   52.7262   22.8817 H   0  0  0  0  0  0
    6.7369   54.1766   23.6904 H   0  0  0  0  0  0
    4.4730   54.9388   24.0216 H   0  0  0  0  0  0
    4.6433   53.2967   24.7103 H   0  0  0  0  0  0
    0.0815   47.4935   24.5578 H   0  0  0  0  0  0
  1  8  1  0  0  0
  1  2  1  0  0  0
  1 31  1  0  0  0
  1 32  1  0  0  0
  2  3  1  0  0  0
  2 33  1  0  0  0
  2 34  1  0  0  0
  3  4  1  0  0  0
  3 35  1  0  0  0
  3 36  1  0  0  0
  4  5  1  0  0  0
  4 37  1  0  0  0
  4 38  1  0  0  0
  5  6  1  0  0  0
  5  9  1  0  0  0
  5 39  1  0  0  0
  6  7  1  0  0  0
  6 40  1  0  0  0
  6 41  1  0  0  0
  7  8  1  0  0  0
  7 42  1  0  0  0
  7 43  1  0  0  0
  8 44  1  0  0  0
  8 45  1  0  0  0
  9 10  1  0  0  0
  9 46  1  0  0  0
 10 11  2  0  0  0
 10 12  1  0  0  0
 12 13  1  0  0  0
 12 17  1  0  0  0
 12 14  1  0  0  0
 14 15  1  0  0  0
 14 47  1  0  0  0
 14 48  1  0  0  0
 15 16  1  0  0  0
 15 23  1  0  0  0
 16 17  1  0  0  0
 16 49  1  0  0  0
 16 50  1  0  0  0
 17 22  1  0  0  0
 17 18  1  0  0  0
 18 19  1  0  0  0
 18 51  1  0  0  0
 18 52  1  0  0  0
 19 20  1  0  0  0
 19 53  1  0  0  0
 19 54  1  0  0  0
 20 21  1  0  0  0
 20 55  1  0  0  0
 20 69  1  0  0  0
 21 22  1  0  0  0
 21 56  1  0  0  0
 21 57  1  0  0  0
 22 58  1  0  0  0
 22 59  1  0  0  0
 23 24  2  0  0  0
 23 25  1  0  0  0
 25 30  1  0  0  0
 25 26  1  0  0  0
 25 60  1  0  0  0
 26 27  1  0  0  0
 26 61  1  0  0  0
 26 62  1  0  0  0
 27 28  1  0  0  0
 27 63  1  0  0  0
 27 64  1  0  0  0
 28 29  1  0  0  0
 29 30  1  0  0  0
 29 65  1  0  0  0
 29 66  1  0  0  0
 30 67  1  0  0  0
 30 68  1  0  0  0
M  CHG  1  20   1
M  END
> <i_i_glide_confnum>
102

> <i_i_glide_lignum>
221

> <i_i_glide_posenum>
269

> <i_i_glide_rotatable_bonds>
5

> <i_m_Source_File_Index>
5512

> <b_m_subgroup_collapsed>
0

> <r_i_docking_score>
-3.51516

> <r_i_glide_ecoul>
-2.69883

> <r_i_glide_eff_state_penalty>
0

> <r_i_glide_einternal>
0.143661

> <r_i_glide_emodel>
-41.0779

> <r_i_glide_energy>
-30.7472

> <r_i_glide_erotb>
0.594755

> <r_i_glide_esite>
-0.083027

> <r_i_glide_evdw>
-28.0484

> <r_i_glide_gscore>
-3.51516

> <r_i_glide_hbond>
0

> <r_i_glide_ligand_efficiency>
-0.121213

> <r_i_glide_ligand_efficiency_ln>
-0.804883

> <r_i_glide_ligand_efficiency_sa>
-0.372403

> <r_i_glide_lipo>
-1.03968

> <r_i_glide_metal>
0

> <r_i_glide_rewards>
-1.17997

> <s_i_glide_gridfile>
wee1_glide-grid

> <s_m_Source_File>
wee1_decoys_glide_SP.sdf

> <s_m_Source_Path>
/Users/zhangxujun/Desktop

> <s_m_entry_id>
5787

> <s_m_entry_name>
wee1_decoys_glide_SP.5512

> <s_m_subgroup_title>
wee1_decoys_glide_SP

> <s_m_subgroupid>
wee1_decoys_glide_SP


$$$$
