ZINC19820964_875
                    3D
 Schrodinger Suite 2024-2.
 72 75  0  0  1  0            999 V2000
    9.5044   50.3873   12.5239 C   0  0  0  0  0  0
    9.6049   50.9356   13.9329 C   0  0  0  0  0  0
    9.7901   50.0595   15.0038 C   0  0  0  0  0  0
    9.9053   50.5526   16.3023 C   0  0  0  0  0  0
    9.8252   51.9259   16.5282 C   0  0  0  0  0  0
    9.6235   52.8220   15.4655 C   0  0  0  0  0  0
    9.5333   52.3141   14.1647 C   0  0  0  0  0  0
    9.5271   54.2198   15.6333 N   0  0  0  0  0  0
    9.1341   54.8888   16.7393 C   0  0  0  0  0  0
    8.7524   54.3293   17.7624 O   0  0  0  0  0  0
    9.1351   56.4299   16.6434 C   0  0  0  0  0  0
    8.8054   57.2320   17.9539 C   0  0  1  0  0  0
    9.6077   57.0269   18.6671 H   0  0  0  0  0  0
    8.9438   58.7598   17.6903 C   0  0  0  0  0  0
    9.8999   59.4444   18.0473 O   0  0  0  0  0  0
    7.8660   59.2932   17.0746 N   0  0  0  0  0  0
    6.5875   58.5685   16.9796 C   0  0  0  0  0  0
    6.3198   57.8027   18.3021 C   0  0  0  0  0  0
    7.4968   56.9545   18.6299 N   0  0  0  0  0  0
    7.4615   56.1791   19.7502 C   0  0  0  0  0  0
    8.4774   55.6958   20.2534 O   0  0  0  0  0  0
    6.0988   55.9080   20.4228 C   0  0  0  0  0  0
    6.2089   54.9306   21.6275 N   0  3  0  0  0  0
    6.8573   55.5838   22.8730 C   0  0  0  0  0  0
    6.8514   54.6095   24.0612 C   0  0  0  0  0  0
    5.5064   54.1088   24.3818 N   0  0  0  0  0  0
    4.8761   53.4782   23.2079 C   0  0  0  0  0  0
    4.8065   54.3776   21.9622 C   0  0  0  0  0  0
    4.9549   54.0974   25.6656 C   0  0  0  0  0  0
    3.5647   54.1053   25.8426 C   0  0  0  0  0  0
    3.0008   54.0935   27.1158 C   0  0  0  0  0  0
    3.8181   54.0811   28.2539 C   0  0  0  0  0  0
    5.2021   54.0947   28.0859 C   0  0  0  0  0  0
    5.7650   54.0957   26.8106 C   0  0  0  0  0  0
    3.3399   54.0532   29.5523 O   0  0  0  0  0  0
    1.9357   53.9233   29.7655 C   0  0  0  0  0  0
   10.0968   49.6081   17.4712 C   0  0  0  0  0  0
   10.1041   50.9854   11.8365 H   0  0  0  0  0  0
    8.4719   50.3970   12.1764 H   0  0  0  0  0  0
    9.8964   49.3695   12.4816 H   0  0  0  0  0  0
    9.8453   48.9950   14.8246 H   0  0  0  0  0  0
    9.9318   52.2756   17.5438 H   0  0  0  0  0  0
    9.3939   52.9832   13.3273 H   0  0  0  0  0  0
    9.7106   54.7653   14.8061 H   0  0  0  0  0  0
   10.1180   56.7295   16.2733 H   0  0  0  0  0  0
    8.4181   56.6753   15.8608 H   0  0  0  0  0  0
    7.8227   60.3031   17.0087 H   0  0  0  0  0  0
    5.7936   59.2900   16.7835 H   0  0  0  0  0  0
    6.6090   57.9022   16.1170 H   0  0  0  0  0  0
    6.1824   58.5549   19.0819 H   0  0  0  0  0  0
    5.4264   57.1972   18.1370 H   0  0  0  0  0  0
    5.6358   56.8168   20.8086 H   0  0  0  0  0  0
    5.4294   55.4281   19.7063 H   0  0  0  0  0  0
    7.8845   55.8295   22.6075 H   0  0  0  0  0  0
    6.3253   56.4964   23.1139 H   0  0  0  0  0  0
    7.4629   53.7329   23.8414 H   0  0  0  0  0  0
    7.3159   55.1000   24.9145 H   0  0  0  0  0  0
    3.8895   53.0735   23.4284 H   0  0  0  0  0  0
    5.5042   52.6139   22.9837 H   0  0  0  0  0  0
    4.1168   55.2147   22.0818 H   0  0  0  0  0  0
    4.5138   53.7805   21.0960 H   0  0  0  0  0  0
    2.8999   54.1343   24.9919 H   0  0  0  0  0  0
    1.9251   54.0981   27.1974 H   0  0  0  0  0  0
    5.8485   54.0903   28.9510 H   0  0  0  0  0  0
    6.8404   54.0721   26.7311 H   0  0  0  0  0  0
    1.7269   53.8263   30.8309 H   0  0  0  0  0  0
    1.3952   54.8002   29.4031 H   0  0  0  0  0  0
    1.5362   53.0314   29.2803 H   0  0  0  0  0  0
   11.1097   49.6955   17.8661 H   0  0  0  0  0  0
    9.4039   49.8532   18.2770 H   0  0  0  0  0  0
    9.9043   48.5757   17.1927 H   0  0  0  0  0  0
    6.7976   54.1495   21.3693 H   0  0  0  0  0  0
  1  2  1  0  0  0
  1 38  1  0  0  0
  1 39  1  0  0  0
  1 40  1  0  0  0
  2  7  2  0  0  0
  2  3  1  0  0  0
  3  4  2  0  0  0
  3 41  1  0  0  0
  4  5  1  0  0  0
  4 37  1  0  0  0
  5  6  2  0  0  0
  5 42  1  0  0  0
  6  7  1  0  0  0
  6  8  1  0  0  0
  7 43  1  0  0  0
  8  9  1  0  0  0
  8 44  1  0  0  0
  9 10  2  0  0  0
  9 11  1  0  0  0
 11 12  1  0  0  0
 11 45  1  0  0  0
 11 46  1  0  0  0
 12 13  1  0  0  0
 12 19  1  0  0  0
 12 14  1  0  0  0
 14 15  2  0  0  0
 14 16  1  0  0  0
 16 17  1  0  0  0
 16 47  1  0  0  0
 17 18  1  0  0  0
 17 48  1  0  0  0
 17 49  1  0  0  0
 18 19  1  0  0  0
 18 50  1  0  0  0
 18 51  1  0  0  0
 19 20  1  0  0  0
 20 21  2  0  0  0
 20 22  1  0  0  0
 22 23  1  0  0  0
 22 52  1  0  0  0
 22 53  1  0  0  0
 23 28  1  0  0  0
 23 24  1  0  0  0
 23 72  1  0  0  0
 24 25  1  0  0  0
 24 54  1  0  0  0
 24 55  1  0  0  0
 25 26  1  0  0  0
 25 56  1  0  0  0
 25 57  1  0  0  0
 26 27  1  0  0  0
 26 29  1  0  0  0
 27 28  1  0  0  0
 27 58  1  0  0  0
 27 59  1  0  0  0
 28 60  1  0  0  0
 28 61  1  0  0  0
 29 34  2  0  0  0
 29 30  1  0  0  0
 30 31  2  0  0  0
 30 62  1  0  0  0
 31 32  1  0  0  0
 31 63  1  0  0  0
 32 33  2  0  0  0
 32 35  1  0  0  0
 33 34  1  0  0  0
 33 64  1  0  0  0
 34 65  1  0  0  0
 35 36  1  0  0  0
 36 66  1  0  0  0
 36 67  1  0  0  0
 36 68  1  0  0  0
 37 69  1  0  0  0
 37 70  1  0  0  0
 37 71  1  0  0  0
M  CHG  1  23   1
M  END
> <i_i_glide_confnum>
418

> <i_i_glide_lignum>
876

> <i_i_glide_posenum>
381

> <i_i_glide_rotatable_bonds>
9

> <i_m_Source_File_Index>
4593

> <b_m_subgroup_collapsed>
0

> <r_i_docking_score>
-5.07609

> <r_i_glide_ecoul>
-2.6484

> <r_i_glide_eff_state_penalty>
0

> <r_i_glide_einternal>
8.26078

> <r_i_glide_emodel>
-56.606

> <r_i_glide_energy>
-44.4444

> <r_i_glide_erotb>
0.66645

> <r_i_glide_esite>
-0.103229

> <r_i_glide_evdw>
-41.796

> <r_i_glide_gscore>
-5.07609

> <r_i_glide_hbond>
-0.134134

> <r_i_glide_ligand_efficiency>
-0.141003

> <r_i_glide_ligand_efficiency_ln>
-1.10747

> <r_i_glide_ligand_efficiency_sa>
-0.46558

> <r_i_glide_lipo>
-2.57459

> <r_i_glide_metal>
0

> <r_i_glide_rewards>
-0.44353

> <s_i_glide_gridfile>
wee1_glide-grid

> <s_m_Source_File>
wee1_decoys_glide_SP.sdf

> <s_m_Source_Path>
/Users/zhangxujun/Desktop

> <s_m_entry_id>
4868

> <s_m_entry_name>
wee1_decoys_glide_SP.4593

> <s_m_subgroup_title>
wee1_decoys_glide_SP

> <s_m_subgroupid>
wee1_decoys_glide_SP


$$$$
