ZINC34210886_439
                    3D
 Schrodinger Suite 2024-2.
 70 75  0  0  1  0            999 V2000
   -4.6911   47.1945   21.8643 C   0  0  0  0  0  0
   -4.6950   47.8327   23.2694 C   0  0  2  0  0  0
   -5.6973   47.6596   23.6714 H   0  0  0  0  0  0
   -4.5332   49.3618   23.2311 C   0  0  0  0  0  0
   -3.2602   49.6474   24.0325 C   0  0  1  0  0  0
   -2.4607   49.4371   23.3241 H   0  0  0  0  0  0
   -2.9938   51.0694   24.5954 C   0  0  2  0  0  0
   -3.6492   51.2496   25.4467 H   0  0  0  0  0  0
   -3.3358   52.1845   23.6059 C   0  0  0  0  0  0
   -2.1415   52.8959   23.0031 C   0  0  0  0  0  0
   -0.9900   51.9504   22.7402 C   0  0  0  0  0  0
   -0.5082   51.7389   21.4954 C   0  0  0  0  0  0
    0.6783   50.9422   21.2779 C   0  0  0  0  0  0
    1.1389   50.1181   22.2852 C   0  0  0  0  0  0
    2.3048   49.5585   21.7665 C   0  0  0  0  0  0
    2.5421   49.9435   20.5363 N   0  0  0  0  0  0
    1.5421   50.7863   20.2134 N   0  0  0  0  0  0
    1.4787   51.3674   18.9244 C   0  0  0  0  0  0
    1.9033   50.6610   17.7926 C   0  0  0  0  0  0
    1.8480   51.2685   16.5369 C   0  0  0  0  0  0
    1.3541   52.5682   16.4341 C   0  0  0  0  0  0
    0.9256   53.2642   17.5167 N   0  0  0  0  0  0
    1.0011   52.6657   18.7335 C   0  0  0  0  0  0
    1.3034   53.1572   15.2175 F   0  0  0  0  0  0
    0.3784   49.9754   23.5931 C   0  0  0  0  0  0
   -0.3647   51.3090   24.0021 C   0  0  2  0  0  0
   -1.5109   51.1258   25.1071 C   0  0  2  0  0  0
   -1.5206   52.0609   25.6705 H   0  0  0  0  0  0
   -1.3461   50.0406   26.2094 C   0  0  1  0  0  0
   -2.0509   50.3092   26.9986 H   0  0  0  0  0  0
   -1.7565   48.6073   25.7133 C   0  0  0  0  0  0
   -3.2129   48.5624   25.1372 C   0  0  2  0  0  0
   -3.5987   47.2943   24.2689 C   0  0  1  0  0  0
   -4.1331   46.0968   25.1044 C   0  0  0  0  0  0
   -5.2046   45.5488   24.8171 O   0  0  0  0  0  0
   -3.2659   45.5999   26.2734 C   0  0  0  0  0  0
   -3.8984   44.4968   26.8817 O   0  0  0  0  0  0
   -2.4709   46.7354   23.5990 O   0  0  0  0  0  0
   -4.2689   48.8277   26.2784 C   0  0  0  0  0  0
   -0.0965   50.0954   26.8668 O   0  0  0  0  0  0
    0.7061   52.3062   24.5312 C   0  0  0  0  0  0
   -4.8071   46.1143   21.9246 H   0  0  0  0  0  0
   -5.5120   47.5768   21.2565 H   0  0  0  0  0  0
   -3.7648   47.4000   21.3293 H   0  0  0  0  0  0
   -4.5546   49.7984   22.2319 H   0  0  0  0  0  0
   -5.3689   49.8108   23.7689 H   0  0  0  0  0  0
   -4.0801   51.8656   22.8817 H   0  0  0  0  0  0
   -3.8754   52.9577   24.1573 H   0  0  0  0  0  0
   -2.4941   53.2965   22.0799 H   0  0  0  0  0  0
   -1.8093   53.7201   23.6349 H   0  0  0  0  0  0
   -0.9873   52.2215   20.6587 H   0  0  0  0  0  0
    2.9535   48.8613   22.2770 H   0  0  0  0  0  0
    2.3046   49.6572   17.8737 H   0  0  0  0  0  0
    2.2060   50.7374   15.6640 H   0  0  0  0  0  0
    0.7027   53.2896   19.5644 H   0  0  0  0  0  0
   -0.3371   49.2007   23.3560 H   0  0  0  0  0  0
    1.0187   49.6017   24.3975 H   0  0  0  0  0  0
   -1.0380   48.2693   24.9833 H   0  0  0  0  0  0
   -1.6390   47.8528   26.4816 H   0  0  0  0  0  0
   -2.2837   45.3024   25.9088 H   0  0  0  0  0  0
   -3.1223   46.3648   27.0335 H   0  0  0  0  0  0
   -3.2984   44.1087   27.5654 H   0  0  0  0  0  0
   -1.9243   47.4619   23.2709 H   0  0  0  0  0  0
   -5.2917   48.8087   25.9001 H   0  0  0  0  0  0
   -4.2221   48.0870   27.0737 H   0  0  0  0  0  0
   -4.1510   49.7734   26.7984 H   0  0  0  0  0  0
   -0.1938   49.4749   27.6048 H   0  0  0  0  0  0
    0.2744   53.2712   24.8026 H   0  0  0  0  0  0
    1.2067   51.9230   25.4231 H   0  0  0  0  0  0
    1.4817   52.5008   23.7926 H   0  0  0  0  0  0
  1  2  1  0  0  0
  1 42  1  0  0  0
  1 43  1  0  0  0
  1 44  1  0  0  0
  2  3  1  0  0  0
  2 33  1  0  0  0
  2  4  1  0  0  0
  4  5  1  0  0  0
  4 45  1  0  0  0
  4 46  1  0  0  0
  5  6  1  0  0  0
  5 32  1  0  0  0
  5  7  1  0  0  0
  7  8  1  0  0  0
  7 27  1  0  0  0
  7  9  1  0  0  0
  9 10  1  0  0  0
  9 47  1  0  0  0
  9 48  1  0  0  0
 10 11  1  0  0  0
 10 49  1  0  0  0
 10 50  1  0  0  0
 11 26  1  0  0  0
 11 12  2  0  0  0
 12 13  1  0  0  0
 12 51  1  0  0  0
 13 17  1  0  0  0
 13 14  2  0  0  0
 14 15  1  0  0  0
 14 25  1  0  0  0
 15 16  2  0  0  0
 15 52  1  0  0  0
 16 17  1  0  0  0
 17 18  1  0  0  0
 18 23  2  0  0  0
 18 19  1  0  0  0
 19 20  2  0  0  0
 19 53  1  0  0  0
 20 21  1  0  0  0
 20 54  1  0  0  0
 21 22  2  0  0  0
 21 24  1  0  0  0
 22 23  1  0  0  0
 23 55  1  0  0  0
 25 26  1  0  0  0
 25 56  1  0  0  0
 25 57  1  0  0  0
 26 27  1  0  0  0
 26 41  1  0  0  0
 27 28  1  0  0  0
 27 29  1  0  0  0
 29 30  1  0  0  0
 29 31  1  0  0  0
 29 40  1  0  0  0
 31 32  1  0  0  0
 31 58  1  0  0  0
 31 59  1  0  0  0
 32 33  1  0  0  0
 32 39  1  0  0  0
 33 34  1  0  0  0
 33 38  1  0  0  0
 34 35  2  0  0  0
 34 36  1  0  0  0
 36 37  1  0  0  0
 36 60  1  0  0  0
 36 61  1  0  0  0
 37 62  1  0  0  0
 38 63  1  0  0  0
 39 64  1  0  0  0
 39 65  1  0  0  0
 39 66  1  0  0  0
 40 67  1  0  0  0
 41 68  1  0  0  0
 41 69  1  0  0  0
 41 70  1  0  0  0
M  END
> <i_i_glide_confnum>
15

> <i_i_glide_lignum>
440

> <i_i_glide_posenum>
61

> <i_i_glide_rotatable_bonds>
6

> <i_m_Source_File_Index>
475

> <b_m_subgroup_collapsed>
0

> <r_i_docking_score>
-3.2853

> <r_i_glide_ecoul>
-13.4854

> <r_i_glide_eff_state_penalty>
0

> <r_i_glide_einternal>
5.11251

> <r_i_glide_emodel>
-32.9264

> <r_i_glide_energy>
-27.6594

> <r_i_glide_erotb>
0.249014

> <r_i_glide_esite>
-0.0708176

> <r_i_glide_evdw>
-14.174

> <r_i_glide_gscore>
-3.2853

> <r_i_glide_hbond>
-0.130476

> <r_i_glide_ligand_efficiency>
-0.0912582

> <r_i_glide_ligand_efficiency_ln>
-0.716763

> <r_i_glide_ligand_efficiency_sa>
-0.301328

> <r_i_glide_lipo>
-0.57141

> <r_i_glide_metal>
0

> <r_i_glide_rewards>
-0.0300978

> <s_i_glide_gridfile>
wee1_glide-grid

> <s_m_Source_File>
wee1_decoys_glide_SP.sdf

> <s_m_Source_Path>
/Users/zhangxujun/Desktop

> <s_m_entry_id>
750

> <s_m_entry_name>
wee1_decoys_glide_SP.475

> <s_m_subgroup_title>
wee1_decoys_glide_SP

> <s_m_subgroupid>
wee1_decoys_glide_SP


$$$$
