ZINC00729083_562
                    3D
 Schrodinger Suite 2024-2.
 56 59  0  0  1  0            999 V2000
    5.3046   55.2735   29.8144 C   0  0  0  0  0  0
    4.6472   54.9223   28.4863 C   0  0  2  0  0  0
    3.9320   55.6967   28.2299 H   0  0  0  0  0  0
    3.7807   53.6518   28.5788 C   0  0  0  0  0  0
    3.0872   53.4137   27.2373 C   0  0  0  0  0  0
    4.1645   53.2665   26.1620 C   0  0  0  0  0  0
    5.7206   54.8011   27.3841 C   0  0  0  0  0  0
    6.0869   54.4072   24.9157 C   0  0  0  0  0  0
    5.4610   54.4967   23.5155 C   0  0  0  0  0  0
    4.2339   54.4958   23.3803 O   0  0  0  0  0  0
    6.3224   54.6338   22.4866 N   0  0  0  0  0  0
    5.9052   54.7618   21.1673 C   0  0  0  0  0  0
    4.9969   53.9873   20.4007 C   0  0  0  0  0  0
    4.8463   54.5627   19.1180 C   0  0  0  0  0  0
    5.6233   55.6836   18.9176 C   0  0  0  0  0  0
    6.5874   56.0966   20.2858 S   0  0  0  0  0  0
    5.4786   56.2618   17.5374 C   0  0  0  0  0  0
    4.7697   55.1102   16.8071 C   0  0  0  0  0  0
    4.0394   54.2744   17.8716 C   0  0  0  0  0  0
    4.4097   52.7284   20.8231 C   0  0  0  0  0  0
    4.9862   52.0231   21.6533 O   0  0  0  0  0  0
    3.2084   52.4585   20.2668 N   0  0  0  0  0  0
    2.3161   51.4033   20.5266 C   0  0  0  0  0  0
    2.5283   50.3990   21.4842 C   0  0  0  0  0  0
    1.5755   49.4060   21.6794 C   0  0  0  0  0  0
    0.4069   49.4105   20.9216 C   0  0  0  0  0  0
    0.1852   50.4030   19.9691 C   0  0  0  0  0  0
    1.1383   51.3998   19.7738 C   0  0  0  0  0  0
   -0.8965   48.0509   21.1919 Br  0  0  0  0  0  0
    6.3045   54.8966   29.8801 H   0  0  0  0  0  0
    4.7046   54.7892   30.5772 H   0  0  0  0  0  0
    5.5032   56.3140   30.0817 H   0  0  0  0  0  0
    4.3878   52.7929   28.8740 H   0  0  0  0  0  0
    3.0341   53.7518   29.3685 H   0  0  0  0  0  0
    2.4850   52.5050   27.2790 H   0  0  0  0  0  0
    2.4029   54.2275   26.9922 H   0  0  0  0  0  0
    4.8726   52.4975   26.4748 H   0  0  0  0  0  0
    3.7045   53.0256   25.2050 H   0  0  0  0  0  0
    6.3046   55.7136   27.2974 H   0  0  0  0  0  0
    6.4102   53.9727   27.5665 H   0  0  0  0  0  0
    6.8007   55.2204   25.0577 H   0  0  0  0  0  0
    6.6016   53.4583   25.0740 H   0  0  0  0  0  0
    7.2768   54.8926   22.6953 H   0  0  0  0  0  0
    4.8815   57.1748   17.5350 H   0  0  0  0  0  0
    6.4339   56.4884   17.0622 H   0  0  0  0  0  0
    4.0966   55.4687   16.0273 H   0  0  0  0  0  0
    5.5153   54.4835   16.3130 H   0  0  0  0  0  0
    4.0117   53.2173   17.5995 H   0  0  0  0  0  0
    3.0093   54.6195   17.9744 H   0  0  0  0  0  0
    2.8712   53.1393   19.6019 H   0  0  0  0  0  0
    3.4171   50.3591   22.0897 H   0  0  0  0  0  0
    1.7483   48.6414   22.4226 H   0  0  0  0  0  0
   -0.7224   50.4001   19.3838 H   0  0  0  0  0  0
    0.9556   52.1669   19.0344 H   0  0  0  0  0  0
    5.0134   54.5521   26.0349 N   0  3  1  0  0  0
    4.4041   55.3245   25.7990 H   0  0  0  0  0  0
  1  2  1  0  0  0
  1 30  1  0  0  0
  1 31  1  0  0  0
  1 32  1  0  0  0
  2  3  1  0  0  0
  2  7  1  0  0  0
  2  4  1  0  0  0
  4  5  1  0  0  0
  4 33  1  0  0  0
  4 34  1  0  0  0
  5  6  1  0  0  0
  5 35  1  0  0  0
  5 36  1  0  0  0
  6 37  1  0  0  0
  6 38  1  0  0  0
  6 55  1  0  0  0
  7 39  1  0  0  0
  7 40  1  0  0  0
  7 55  1  0  0  0
  8  9  1  0  0  0
  8 41  1  0  0  0
  8 42  1  0  0  0
  8 55  1  0  0  0
  9 10  2  0  0  0
  9 11  1  0  0  0
 11 12  1  0  0  0
 11 43  1  0  0  0
 12 16  1  0  0  0
 12 13  2  0  0  0
 13 14  1  0  0  0
 13 20  1  0  0  0
 14 19  1  0  0  0
 14 15  2  0  0  0
 15 16  1  0  0  0
 15 17  1  0  0  0
 17 18  1  0  0  0
 17 44  1  0  0  0
 17 45  1  0  0  0
 18 19  1  0  0  0
 18 46  1  0  0  0
 18 47  1  0  0  0
 19 48  1  0  0  0
 19 49  1  0  0  0
 20 21  2  0  0  0
 20 22  1  0  0  0
 22 23  1  0  0  0
 22 50  1  0  0  0
 23 28  2  0  0  0
 23 24  1  0  0  0
 24 25  2  0  0  0
 24 51  1  0  0  0
 25 26  1  0  0  0
 25 52  1  0  0  0
 26 27  2  0  0  0
 26 29  1  0  0  0
 27 28  1  0  0  0
 27 53  1  0  0  0
 28 54  1  0  0  0
 55 56  1  0  0  0
M  CHG  1  55   1
M  END
> <i_i_glide_confnum>
36

> <i_i_glide_lignum>
563

> <i_i_glide_posenum>
399

> <i_i_glide_rotatable_bonds>
7

> <i_m_Source_File_Index>
1998

> <b_m_subgroup_collapsed>
0

> <r_i_docking_score>
-3.66301

> <r_i_glide_ecoul>
-2.78886

> <r_i_glide_eff_state_penalty>
0

> <r_i_glide_einternal>
8.09593

> <r_i_glide_emodel>
-35.3881

> <r_i_glide_energy>
-28.6428

> <r_i_glide_erotb>
0.622072

> <r_i_glide_esite>
-0.0135475

> <r_i_glide_evdw>
-25.8539

> <r_i_glide_gscore>
-3.66301

> <r_i_glide_hbond>
0

> <r_i_glide_ligand_efficiency>
-0.126311

> <r_i_glide_ligand_efficiency_ln>
-0.838736

> <r_i_glide_ligand_efficiency_sa>
-0.388066

> <r_i_glide_lipo>
-2.02547

> <r_i_glide_metal>
0

> <r_i_glide_rewards>
-0.535038

> <s_i_glide_gridfile>
wee1_glide-grid

> <s_m_Source_File>
wee1_decoys_glide_SP.sdf

> <s_m_Source_Path>
/Users/zhangxujun/Desktop

> <s_m_entry_id>
2273

> <s_m_entry_name>
wee1_decoys_glide_SP.1998

> <s_m_subgroup_title>
wee1_decoys_glide_SP

> <s_m_subgroupid>
wee1_decoys_glide_SP


$$$$
