ZINC02501765_2386
                    3D
 Schrodinger Suite 2024-2.
 51 54  0  0  1  0            999 V2000
    9.0911   53.9191   17.3464 C   0  0  0  0  0  0
    9.2925   55.3450   17.8643 C   0  0  0  0  0  0
    8.3776   55.7342   19.3823 S   0  0  0  0  0  0
    6.8800   56.3333   18.6690 C   0  0  0  0  0  0
    6.7600   57.6543   18.2193 C   0  0  0  0  0  0
    5.5238   57.9306   17.6710 C   0  0  0  0  0  0
    4.4849   56.5538   17.7333 S   0  0  0  0  0  0
    5.7107   55.5690   18.5087 C   0  0  0  0  0  0
    5.4409   54.0917   18.8269 C   0  0  2  0  0  0
    6.4022   53.5979   18.9801 H   0  0  0  0  0  0
    4.8034   53.4024   17.6140 C   0  0  0  0  0  0
    3.6518   52.7050   17.6932 C   0  0  0  0  0  0
    2.9960   52.4994   18.9143 N   0  0  0  0  0  0
    3.5048   53.0240   20.1180 C   0  0  0  0  0  0
    4.6244   53.8148   20.1257 C   0  0  0  0  0  0
    5.1582   54.3728   21.4012 C   0  0  0  0  0  0
    6.2609   54.9014   21.4887 O   0  0  0  0  0  0
    4.3803   54.1027   22.6954 C   0  0  0  0  0  0
    2.8900   53.9018   22.4374 C   0  0  0  0  0  0
    2.6818   52.7820   21.4080 C   0  0  0  0  0  0
    1.8335   51.6906   18.9511 C   0  0  0  0  0  0
    1.9300   50.3249   19.2301 C   0  0  0  0  0  0
    0.7795   49.5405   19.2869 C   0  0  0  0  0  0
   -0.4726   50.1173   19.0643 C   0  0  0  0  0  0
   -0.5898   51.4843   18.7661 C   0  0  0  0  0  0
    0.5793   52.2572   18.7052 C   0  0  0  0  0  0
   -1.9171   52.1019   18.5313 N   0  3  0  0  0  0
   -2.9232   51.4617   18.8217 O   0  0  0  0  0  0
   -1.9650   53.2432   18.0809 O   0  5  0  0  0  0
    3.1020   52.0966   16.5816 N   0  0  0  0  0  0
    5.4431   53.5687   16.3443 C   0  0  0  0  0  0
    5.9280   53.7067   15.3031 N   0  0  0  0  0  0
    9.6656   53.7504   16.4346 H   0  0  0  0  0  0
    9.4113   53.1781   18.0807 H   0  0  0  0  0  0
    8.0419   53.7274   17.1160 H   0  0  0  0  0  0
    9.0347   56.0648   17.0863 H   0  0  0  0  0  0
   10.3524   55.4980   18.0803 H   0  0  0  0  0  0
    7.5570   58.3816   18.2794 H   0  0  0  0  0  0
    5.1772   58.8659   17.2494 H   0  0  0  0  0  0
    4.7879   53.1795   23.1055 H   0  0  0  0  0  0
    4.5840   54.8906   23.4202 H   0  0  0  0  0  0
    2.3728   53.6605   23.3681 H   0  0  0  0  0  0
    2.4532   54.8355   22.0818 H   0  0  0  0  0  0
    2.8365   51.7790   21.8069 H   0  0  0  0  0  0
    1.6154   52.8641   21.1970 H   0  0  0  0  0  0
    2.8990   49.8750   19.3954 H   0  0  0  0  0  0
    0.8611   48.4850   19.5004 H   0  0  0  0  0  0
   -1.3538   49.4916   19.1172 H   0  0  0  0  0  0
    0.5251   53.3126   18.4789 H   0  0  0  0  0  0
    3.5394   52.2590   15.6868 H   0  0  0  0  0  0
    2.7204   51.1673   16.6936 H   0  0  0  0  0  0
  1  2  1  0  0  0
  1 33  1  0  0  0
  1 34  1  0  0  0
  1 35  1  0  0  0
  2  3  1  0  0  0
  2 36  1  0  0  0
  2 37  1  0  0  0
  3  4  1  0  0  0
  4  8  2  0  0  0
  4  5  1  0  0  0
  5  6  2  0  0  0
  5 38  1  0  0  0
  6  7  1  0  0  0
  6 39  1  0  0  0
  7  8  1  0  0  0
  8  9  1  0  0  0
  9 10  1  0  0  0
  9 15  1  0  0  0
  9 11  1  0  0  0
 11 12  2  0  0  0
 11 31  1  0  0  0
 12 13  1  0  0  0
 12 30  1  0  0  0
 13 14  1  0  0  0
 13 21  1  0  0  0
 14 20  1  0  0  0
 14 15  2  0  0  0
 15 16  1  0  0  0
 16 17  2  0  0  0
 16 18  1  0  0  0
 18 19  1  0  0  0
 18 40  1  0  0  0
 18 41  1  0  0  0
 19 20  1  0  0  0
 19 42  1  0  0  0
 19 43  1  0  0  0
 20 44  1  0  0  0
 20 45  1  0  0  0
 21 26  2  0  0  0
 21 22  1  0  0  0
 22 23  2  0  0  0
 22 46  1  0  0  0
 23 24  1  0  0  0
 23 47  1  0  0  0
 24 25  2  0  0  0
 24 48  1  0  0  0
 25 26  1  0  0  0
 25 27  1  0  0  0
 26 49  1  0  0  0
 27 28  2  0  0  0
 27 29  1  0  0  0
 30 50  1  0  0  0
 30 51  1  0  0  0
 31 32  3  0  0  0
M  CHG  2  27   1  29  -1
M  END
> <i_i_glide_confnum>
9

> <i_i_glide_lignum>
2387

> <i_i_glide_posenum>
381

> <i_i_glide_rotatable_bonds>
6

> <i_m_Source_File_Index>
2392

> <b_m_subgroup_collapsed>
0

> <r_i_docking_score>
-3.40942

> <r_i_glide_ecoul>
-3.93364

> <r_i_glide_eff_state_penalty>
0

> <r_i_glide_einternal>
2.39784

> <r_i_glide_emodel>
-42.5026

> <r_i_glide_energy>
-35.9138

> <r_i_glide_erotb>
0.293932

> <r_i_glide_esite>
-0.225978

> <r_i_glide_evdw>
-31.9801

> <r_i_glide_gscore>
-3.40942

> <r_i_glide_hbond>
0

> <r_i_glide_ligand_efficiency>
-0.109981

> <r_i_glide_ligand_efficiency_ln>
-0.768928

> <r_i_glide_ligand_efficiency_sa>
-0.345493

> <r_i_glide_lipo>
-0.792676

> <r_i_glide_metal>
0

> <r_i_glide_rewards>
-0.495643

> <s_i_glide_gridfile>
wee1_glide-grid

> <s_m_Source_File>
wee1_decoys_glide_SP.sdf

> <s_m_Source_Path>
/Users/zhangxujun/Desktop

> <s_m_entry_id>
2667

> <s_m_entry_name>
wee1_decoys_glide_SP.2392

> <s_m_subgroup_title>
wee1_decoys_glide_SP

> <s_m_subgroupid>
wee1_decoys_glide_SP


$$$$
