ZINC58984914_4602
                    3D
 Schrodinger Suite 2024-2.
 44 47  0  0  1  0            999 V2000
    0.5160   52.4966   20.5557 C   0  0  0  0  0  0
    1.0087   51.0867   20.9406 C   0  0  2  0  0  0
    0.3858   50.4031   20.3613 H   0  0  0  0  0  0
    0.7406   50.7347   22.4202 C   0  0  0  0  0  0
    0.3190   49.6113   22.6969 O   0  0  0  0  0  0
    1.0074   51.6997   23.3260 N   0  0  0  0  0  0
    0.7361   51.7087   24.6833 C   0  0  0  0  0  0
    1.2491   52.6488   25.4213 N   0  0  0  0  0  0
    0.8596   52.5390   26.7177 C   0  0  0  0  0  0
    1.2688   53.3994   27.7483 C   0  0  0  0  0  0
    0.7554   53.1921   29.0297 C   0  0  0  0  0  0
   -0.1466   52.1609   29.2858 C   0  0  0  0  0  0
   -0.5678   51.2968   28.2742 C   0  0  0  0  0  0
   -0.0443   51.4817   26.9893 C   0  0  0  0  0  0
   -0.3198   50.5677   25.5105 S   0  0  0  0  0  0
    2.7046   50.6781   20.4012 S   0  0  0  0  0  0
    3.6068   52.1350   20.8425 C   0  0  0  0  0  0
    3.7737   52.5234   22.0817 N   0  0  0  0  0  0
    4.5893   53.5671   22.0607 C   0  0  0  0  0  0
    4.8835   53.9037   20.7465 C   0  0  0  0  0  0
    4.2520   52.9769   19.9646 N   0  0  0  0  0  0
    4.3123   52.8967   18.5954 N   0  0  0  0  0  0
    5.0850   54.1986   23.3216 C   0  0  0  0  0  0
    4.3426   54.0967   24.5033 C   0  0  0  0  0  0
    4.8240   54.6289   25.6936 C   0  0  0  0  0  0
    6.0429   55.2967   25.6979 C   0  0  0  0  0  0
    6.7664   55.4489   24.5196 C   0  0  0  0  0  0
    6.3033   54.8870   23.3348 C   0  0  0  0  0  0
   -0.5407   52.6112   20.7980 H   0  0  0  0  0  0
    1.0646   53.2828   21.0764 H   0  0  0  0  0  0
    0.6288   52.6742   19.4857 H   0  0  0  0  0  0
    1.5256   52.4975   22.9923 H   0  0  0  0  0  0
    1.9555   54.2083   27.5531 H   0  0  0  0  0  0
    1.0553   53.8434   29.8382 H   0  0  0  0  0  0
   -0.5280   52.0239   30.2895 H   0  0  0  0  0  0
   -1.2681   50.4983   28.4797 H   0  0  0  0  0  0
    5.4937   54.6768   20.3048 H   0  0  0  0  0  0
    4.7036   51.9868   18.3315 H   0  0  0  0  0  0
    3.3856   52.9827   18.2082 H   0  0  0  0  0  0
    3.4024   53.5728   24.5046 H   0  0  0  0  0  0
    4.2595   54.5173   26.6072 H   0  0  0  0  0  0
    6.4232   55.6967   26.6258 H   0  0  0  0  0  0
    7.6994   55.9917   24.5175 H   0  0  0  0  0  0
    6.8922   54.9839   22.4345 H   0  0  0  0  0  0
  1  2  1  0  0  0
  1 29  1  0  0  0
  1 30  1  0  0  0
  1 31  1  0  0  0
  2  3  1  0  0  0
  2  4  1  0  0  0
  2 16  1  0  0  0
  4  5  2  0  0  0
  4  6  1  0  0  0
  6  7  1  0  0  0
  6 32  1  0  0  0
  7 15  1  0  0  0
  7  8  2  0  0  0
  8  9  1  0  0  0
  9 14  2  0  0  0
  9 10  1  0  0  0
 10 11  2  0  0  0
 10 33  1  0  0  0
 11 12  1  0  0  0
 11 34  1  0  0  0
 12 13  2  0  0  0
 12 35  1  0  0  0
 13 14  1  0  0  0
 13 36  1  0  0  0
 14 15  1  0  0  0
 16 17  1  0  0  0
 17 21  1  0  0  0
 17 18  2  0  0  0
 18 19  1  0  0  0
 19 20  2  0  0  0
 19 23  1  0  0  0
 20 21  1  0  0  0
 20 37  1  0  0  0
 21 22  1  0  0  0
 22 38  1  0  0  0
 22 39  1  0  0  0
 23 28  2  0  0  0
 23 24  1  0  0  0
 24 25  2  0  0  0
 24 40  1  0  0  0
 25 26  1  0  0  0
 25 41  1  0  0  0
 26 27  2  0  0  0
 26 42  1  0  0  0
 27 28  1  0  0  0
 27 43  1  0  0  0
 28 44  1  0  0  0
M  END
> <i_i_glide_confnum>
67

> <i_i_glide_lignum>
4603

> <i_i_glide_posenum>
388

> <i_i_glide_rotatable_bonds>
6

> <i_m_Source_File_Index>
3749

> <b_m_subgroup_collapsed>
0

> <r_i_docking_score>
-5.26894

> <r_i_glide_ecoul>
-4.62062

> <r_i_glide_eff_state_penalty>
0

> <r_i_glide_einternal>
6.57622

> <r_i_glide_emodel>
-54.2977

> <r_i_glide_energy>
-42.6436

> <r_i_glide_erotb>
0.625086

> <r_i_glide_esite>
-0.124105

> <r_i_glide_evdw>
-38.023

> <r_i_glide_gscore>
-5.26894

> <r_i_glide_hbond>
-0.16

> <r_i_glide_ligand_efficiency>
-0.195146

> <r_i_glide_ligand_efficiency_ln>
-1.22652

> <r_i_glide_ligand_efficiency_sa>
-0.585437

> <r_i_glide_lipo>
-2.2442

> <r_i_glide_metal>
0

> <r_i_glide_rewards>
-0.771474

> <s_i_glide_gridfile>
wee1_glide-grid

> <s_m_Source_File>
wee1_decoys_glide_SP.sdf

> <s_m_Source_Path>
/Users/zhangxujun/Desktop

> <s_m_entry_id>
4024

> <s_m_entry_name>
wee1_decoys_glide_SP.3749

> <s_m_subgroup_title>
wee1_decoys_glide_SP

> <s_m_subgroupid>
wee1_decoys_glide_SP


$$$$
