ZINC09909492_3287
                    3D
 Schrodinger Suite 2024-2.
 61 65  0  0  1  0            999 V2000
    5.9957   55.7637   17.9963 C   0  0  0  0  0  0
    6.3451   55.7188   19.3461 C   0  0  0  0  0  0
    5.6618   54.8768   20.2373 C   0  0  0  0  0  0
    4.6453   54.0489   19.7297 C   0  0  0  0  0  0
    4.2720   54.1127   18.3867 C   0  0  0  0  0  0
    4.9553   54.9704   17.5159 C   0  0  0  0  0  0
    3.2110   53.2949   17.9778 N   0  0  0  0  0  0
    2.1809   53.6631   17.1885 C   0  0  0  0  0  0
    2.0841   54.7547   16.6292 O   0  0  0  0  0  0
    1.0433   52.6454   17.0444 C   0  0  0  0  0  0
   -0.0845   52.8449   18.1032 C   0  0  1  0  0  0
    0.3045   53.2781   19.0263 H   0  0  0  0  0  0
   -1.2524   53.7081   17.6057 C   0  0  0  0  0  0
   -1.1121   54.8779   17.2590 O   0  0  0  0  0  0
   -2.4616   53.0595   17.6307 N   0  0  0  0  0  0
   -2.4189   51.8693   18.0617 C   0  0  0  0  0  0
   -0.8154   51.2718   18.5900 S   0  0  0  0  0  0
   -3.5404   51.0345   18.1085 N   0  0  0  0  0  0
   -3.5330   49.6566   18.6339 C   0  0  0  0  0  0
   -4.5942   49.5278   19.7483 C   0  0  0  0  0  0
   -5.9947   49.9474   19.2664 C   0  0  0  0  0  0
   -5.9565   51.3077   18.5473 C   0  0  0  0  0  0
   -4.8344   51.3833   17.4891 C   0  0  0  0  0  0
    6.0059   54.8967   21.7098 C   0  0  0  0  0  0
    7.1042   55.3111   22.0820 O   0  0  0  0  0  0
    5.0127   54.4961   22.5342 N   0  0  0  0  0  0
    4.9985   54.4501   23.9221 C   0  0  0  0  0  0
    3.9067   54.0966   24.5501 N   0  0  0  0  0  0
    4.0568   54.0967   25.8606 C   0  0  0  0  0  0
    5.3159   54.4924   26.3292 C   0  0  0  0  0  0
    6.3356   54.8597   24.9679 S   0  0  0  0  0  0
    5.7545   54.4835   27.7852 C   0  0  0  0  0  0
    4.5036   54.3393   28.6856 C   0  0  0  0  0  0
    3.5055   53.2861   28.1632 C   0  0  0  0  0  0
    2.9212   53.6741   26.7850 C   0  0  0  0  0  0
    6.5242   56.4225   17.3229 H   0  0  0  0  0  0
    7.1452   56.3574   19.6937 H   0  0  0  0  0  0
    4.1082   53.3707   20.3779 H   0  0  0  0  0  0
    4.6866   55.0214   16.4708 H   0  0  0  0  0  0
    3.1666   52.3857   18.4153 H   0  0  0  0  0  0
    1.4751   51.6469   17.1406 H   0  0  0  0  0  0
    0.6551   52.6661   16.0245 H   0  0  0  0  0  0
   -2.5579   49.2911   18.9539 H   0  0  0  0  0  0
   -3.8334   49.0237   17.7971 H   0  0  0  0  0  0
   -4.3005   50.1534   20.5930 H   0  0  0  0  0  0
   -4.6119   48.5072   20.1322 H   0  0  0  0  0  0
   -6.3802   49.1901   18.5818 H   0  0  0  0  0  0
   -6.6911   49.9813   20.1054 H   0  0  0  0  0  0
   -6.9211   51.5230   18.0860 H   0  0  0  0  0  0
   -5.8021   52.0969   19.2816 H   0  0  0  0  0  0
   -4.8276   52.3397   16.9639 H   0  0  0  0  0  0
   -5.0128   50.6158   16.7344 H   0  0  0  0  0  0
    6.4212   53.6384   27.9616 H   0  0  0  0  0  0
    6.3040   55.3874   28.0456 H   0  0  0  0  0  0
    4.8095   54.0923   29.7005 H   0  0  0  0  0  0
    3.9910   55.2968   28.7597 H   0  0  0  0  0  0
    4.0058   52.3196   28.0941 H   0  0  0  0  0  0
    2.6936   53.1526   28.8789 H   0  0  0  0  0  0
    2.2168   54.4965   26.9087 H   0  0  0  0  0  0
    2.3545   52.8389   26.3709 H   0  0  0  0  0  0
    4.1430   54.2456   22.0896 H   0  0  0  0  0  0
  1  6  2  0  0  0
  1  2  1  0  0  0
  1 36  1  0  0  0
  2  3  2  0  0  0
  2 37  1  0  0  0
  3  4  1  0  0  0
  3 24  1  0  0  0
  4  5  2  0  0  0
  4 38  1  0  0  0
  5  6  1  0  0  0
  5  7  1  0  0  0
  6 39  1  0  0  0
  7  8  1  0  0  0
  7 40  1  0  0  0
  8  9  2  0  0  0
  8 10  1  0  0  0
 10 11  1  0  0  0
 10 41  1  0  0  0
 10 42  1  0  0  0
 11 12  1  0  0  0
 11 17  1  0  0  0
 11 13  1  0  0  0
 13 14  2  0  0  0
 13 15  1  0  0  0
 15 16  2  0  0  0
 16 17  1  0  0  0
 16 18  1  0  0  0
 18 23  1  0  0  0
 18 19  1  0  0  0
 19 20  1  0  0  0
 19 43  1  0  0  0
 19 44  1  0  0  0
 20 21  1  0  0  0
 20 45  1  0  0  0
 20 46  1  0  0  0
 21 22  1  0  0  0
 21 47  1  0  0  0
 21 48  1  0  0  0
 22 23  1  0  0  0
 22 49  1  0  0  0
 22 50  1  0  0  0
 23 51  1  0  0  0
 23 52  1  0  0  0
 24 25  2  0  0  0
 24 26  1  0  0  0
 26 27  1  0  0  0
 26 61  1  0  0  0
 27 31  1  0  0  0
 27 28  2  0  0  0
 28 29  1  0  0  0
 29 35  1  0  0  0
 29 30  2  0  0  0
 30 31  1  0  0  0
 30 32  1  0  0  0
 32 33  1  0  0  0
 32 53  1  0  0  0
 32 54  1  0  0  0
 33 34  1  0  0  0
 33 55  1  0  0  0
 33 56  1  0  0  0
 34 35  1  0  0  0
 34 57  1  0  0  0
 34 58  1  0  0  0
 35 59  1  0  0  0
 35 60  1  0  0  0
M  END
> <i_i_glide_confnum>
202

> <i_i_glide_lignum>
3288

> <i_i_glide_posenum>
254

> <i_i_glide_rotatable_bonds>
8

> <i_m_Source_File_Index>
3463

> <b_m_subgroup_collapsed>
0

> <r_i_docking_score>
-4.19999

> <r_i_glide_ecoul>
-2.15292

> <r_i_glide_eff_state_penalty>
0

> <r_i_glide_einternal>
10.837

> <r_i_glide_emodel>
-47.6938

> <r_i_glide_energy>
-42.9173

> <r_i_glide_erotb>
0.659036

> <r_i_glide_esite>
-0.0657318

> <r_i_glide_evdw>
-40.7644

> <r_i_glide_gscore>
-4.19999

> <r_i_glide_hbond>
0

> <r_i_glide_ligand_efficiency>
-0.123529

> <r_i_glide_ligand_efficiency_ln>
-0.927895

> <r_i_glide_ligand_efficiency_sa>
-0.400186

> <r_i_glide_lipo>
-2.26001

> <r_i_glide_metal>
0

> <r_i_glide_rewards>
-0.172128

> <s_i_glide_gridfile>
wee1_glide-grid

> <s_m_Source_File>
wee1_decoys_glide_SP.sdf

> <s_m_Source_Path>
/Users/zhangxujun/Desktop

> <s_m_entry_id>
3738

> <s_m_entry_name>
wee1_decoys_glide_SP.3463

> <s_m_subgroup_title>
wee1_decoys_glide_SP

> <s_m_subgroupid>
wee1_decoys_glide_SP


$$$$
