ZINC39488172_3544
                    3D
 Schrodinger Suite 2024-2.
 72 76  0  0  1  0            999 V2000
   -2.4601   51.4368   24.0701 C   0  0  0  0  0  0
   -1.6556   50.1148   23.9423 C   0  0  1  0  0  0
   -1.5068   49.8111   22.4599 C   0  0  0  0  0  0
   -0.0774   49.6802   22.2359 N   0  0  0  0  0  0
    0.6501   50.0545   23.3243 C   0  0  0  0  0  0
    1.8798   50.0828   23.4055 O   0  0  0  0  0  0
   -0.2487   50.3577   24.3030 N   0  0  0  0  0  0
    0.2119   50.4584   25.7131 C   0  0  0  0  0  0
    0.6155   51.8739   26.3077 C   0  0  0  0  0  0
   -0.6188   52.7526   26.7033 C   0  0  0  0  0  0
   -1.5959   52.0038   27.6294 C   0  0  0  0  0  0
   -0.8934   51.8713   28.9088 N   0  0  0  0  0  0
    0.2966   51.0512   28.7323 C   0  0  0  0  0  0
    1.2670   51.6597   27.7114 C   0  0  0  0  0  0
   -1.6967   51.2966   29.8287 O   0  0  0  0  0  0
    1.6103   52.6611   25.3554 C   0  0  0  0  0  0
    0.9411   53.3931   24.1537 C   0  0  0  0  0  0
    1.9875   53.8550   23.1255 C   0  0  0  0  0  0
    3.0235   54.7828   23.7816 C   0  0  0  0  0  0
    3.6668   54.1501   25.0213 C   0  0  0  0  0  0
    2.5982   53.6722   26.0195 C   0  0  0  0  0  0
    0.4982   49.3053   20.9940 C   0  0  0  0  0  0
    1.5426   50.0724   20.4388 C   0  0  0  0  0  0
    2.1511   49.6948   19.2483 C   0  0  0  0  0  0
    1.7072   48.5637   18.5653 C   0  0  0  0  0  0
    0.6649   47.7955   19.0913 C   0  0  0  0  0  0
    0.0648   48.1533   20.3030 C   0  0  0  0  0  0
   -0.8938   47.3132   20.8157 O   0  0  0  0  0  0
   -2.3231   48.9181   24.7028 C   0  0  0  0  0  0
   -3.6318   49.0390   25.2130 C   0  0  0  0  0  0
   -4.2248   48.0147   25.9478 C   0  0  0  0  0  0
   -3.5347   46.8386   26.2001 C   0  0  0  0  0  0
   -2.2494   46.6835   25.6951 C   0  0  0  0  0  0
   -1.6514   47.6964   24.9458 C   0  0  0  0  0  0
   -0.3907   47.4438   24.4808 O   0  0  0  0  0  0
   -3.4156   51.3786   23.5484 H   0  0  0  0  0  0
   -2.6898   51.6718   25.1079 H   0  0  0  0  0  0
   -1.9315   52.2954   23.6576 H   0  0  0  0  0  0
   -2.0674   48.9181   22.1908 H   0  0  0  0  0  0
   -1.8721   50.6317   21.8364 H   0  0  0  0  0  0
   -0.5041   49.9288   26.3375 H   0  0  0  0  0  0
    1.0992   49.8231   25.8008 H   0  0  0  0  0  0
   -0.2905   53.6400   27.2821 H   0  0  0  0  0  0
   -1.1689   53.0761   25.8240 H   0  0  0  0  0  0
   -2.5652   52.4979   27.6815 H   0  0  0  0  0  0
   -1.8511   51.0139   27.2616 H   0  0  0  0  0  0
    0.8182   50.9544   29.6781 H   0  0  0  0  0  0
   -0.0882   50.0989   28.3827 H   0  0  0  0  0  0
    2.1559   51.0293   27.6722 H   0  0  0  0  0  0
    1.6085   52.5954   28.1524 H   0  0  0  0  0  0
   -1.3395   51.6240   30.6636 H   0  0  0  0  0  0
    2.2506   51.8939   24.9138 H   0  0  0  0  0  0
    0.2629   52.7336   23.6266 H   0  0  0  0  0  0
    0.3037   54.2172   24.4788 H   0  0  0  0  0  0
    2.4897   52.9878   22.6904 H   0  0  0  0  0  0
    1.5081   54.3762   22.2987 H   0  0  0  0  0  0
    3.7842   55.0374   23.0415 H   0  0  0  0  0  0
    2.4980   55.6970   24.0810 H   0  0  0  0  0  0
    4.2600   53.2926   24.7037 H   0  0  0  0  0  0
    4.3614   54.8330   25.4969 H   0  0  0  0  0  0
    2.0588   54.4933   26.4900 H   0  0  0  0  0  0
    3.1631   53.2015   26.8263 H   0  0  0  0  0  0
    1.8942   50.9609   20.9456 H   0  0  0  0  0  0
    2.9671   50.2791   18.8405 H   0  0  0  0  0  0
    2.1849   48.2747   17.6340 H   0  0  0  0  0  0
    0.3444   46.9049   18.5707 H   0  0  0  0  0  0
   -0.9707   47.4065   21.7664 H   0  0  0  0  0  0
   -4.2187   49.9298   25.0697 H   0  0  0  0  0  0
   -5.2212   48.1451   26.3436 H   0  0  0  0  0  0
   -3.9891   46.0604   26.7949 H   0  0  0  0  0  0
   -1.7030   45.7812   25.9181 H   0  0  0  0  0  0
    0.1838   47.2158   25.2174 H   0  0  0  0  0  0
  1  2  1  0  0  0
  1 36  1  0  0  0
  1 37  1  0  0  0
  1 38  1  0  0  0
  2  7  1  0  0  0
  2  3  1  0  0  0
  2 29  1  0  0  0
  3  4  1  0  0  0
  3 39  1  0  0  0
  3 40  1  0  0  0
  4  5  1  0  0  0
  4 22  1  0  0  0
  5  6  2  0  0  0
  5  7  1  0  0  0
  7  8  1  0  0  0
  8  9  1  0  0  0
  8 41  1  0  0  0
  8 42  1  0  0  0
  9 14  1  0  0  0
  9 10  1  0  0  0
  9 16  1  0  0  0
 10 11  1  0  0  0
 10 43  1  0  0  0
 10 44  1  0  0  0
 11 12  1  0  0  0
 11 45  1  0  0  0
 11 46  1  0  0  0
 12 13  1  0  0  0
 12 15  1  0  0  0
 13 14  1  0  0  0
 13 47  1  0  0  0
 13 48  1  0  0  0
 14 49  1  0  0  0
 14 50  1  0  0  0
 15 51  1  0  0  0
 16 21  1  0  0  0
 16 17  1  0  0  0
 16 52  1  0  0  0
 17 18  1  0  0  0
 17 53  1  0  0  0
 17 54  1  0  0  0
 18 19  1  0  0  0
 18 55  1  0  0  0
 18 56  1  0  0  0
 19 20  1  0  0  0
 19 57  1  0  0  0
 19 58  1  0  0  0
 20 21  1  0  0  0
 20 59  1  0  0  0
 20 60  1  0  0  0
 21 61  1  0  0  0
 21 62  1  0  0  0
 22 27  2  0  0  0
 22 23  1  0  0  0
 23 24  2  0  0  0
 23 63  1  0  0  0
 24 25  1  0  0  0
 24 64  1  0  0  0
 25 26  2  0  0  0
 25 65  1  0  0  0
 26 27  1  0  0  0
 26 66  1  0  0  0
 27 28  1  0  0  0
 28 67  1  0  0  0
 29 34  2  0  0  0
 29 30  1  0  0  0
 30 31  2  0  0  0
 30 68  1  0  0  0
 31 32  1  0  0  0
 31 69  1  0  0  0
 32 33  2  0  0  0
 32 70  1  0  0  0
 33 34  1  0  0  0
 33 71  1  0  0  0
 34 35  1  0  0  0
 35 72  1  0  0  0
M  END
> <i_i_glide_confnum>
243

> <i_i_glide_lignum>
3545

> <i_i_glide_posenum>
369

> <i_i_glide_rotatable_bonds>
8

> <i_m_Source_File_Index>
5595

> <b_m_subgroup_collapsed>
0

> <r_i_docking_score>
-3.20225

> <r_i_glide_ecoul>
-3.52378

> <r_i_glide_eff_state_penalty>
0

> <r_i_glide_einternal>
6.57356

> <r_i_glide_emodel>
-22.3614

> <r_i_glide_energy>
-23.3583

> <r_i_glide_erotb>
0.440667

> <r_i_glide_esite>
-0.157612

> <r_i_glide_evdw>
-19.8345

> <r_i_glide_gscore>
-3.20225

> <r_i_glide_hbond>
-0.364933

> <r_i_glide_ligand_efficiency>
-0.0914929

> <r_i_glide_ligand_efficiency_ln>
-0.702965

> <r_i_glide_ligand_efficiency_sa>
-0.299279

> <r_i_glide_lipo>
-1.3683

> <r_i_glide_metal>
0

> <r_i_glide_rewards>
-0.231782

> <s_i_glide_gridfile>
wee1_glide-grid

> <s_m_Source_File>
wee1_decoys_glide_SP.sdf

> <s_m_Source_Path>
/Users/zhangxujun/Desktop

> <s_m_entry_id>
5870

> <s_m_entry_name>
wee1_decoys_glide_SP.5595

> <s_m_subgroup_title>
wee1_decoys_glide_SP

> <s_m_subgroupid>
wee1_decoys_glide_SP


$$$$
