ZINC51021888_1705
                    3D
 Schrodinger Suite 2024-2.
 31 34  0  0  1  0            999 V2000
    3.7105   53.4372   28.3889 C   0  0  0  0  0  0
    3.8551   53.6558   27.0197 C   0  0  0  0  0  0
    2.7345   53.5487   26.1867 C   0  0  0  0  0  0
    1.5054   53.2473   26.6693 N   0  0  0  0  0  0
    1.3465   53.0224   27.9994 C   0  0  0  0  0  0
    2.4386   53.1058   28.9119 C   0  0  0  0  0  0
    2.2139   52.8507   30.2863 C   0  0  0  0  0  0
    0.9315   52.5404   30.7321 C   0  0  0  0  0  0
   -0.1298   52.4461   29.8386 C   0  0  0  0  0  0
    0.0614   52.6821   28.4811 C   0  0  0  0  0  0
    0.7044   52.3116   32.0824 N   0  0  0  0  0  0
    2.7454   53.7127   24.4112 S   0  0  0  0  0  0
    4.3634   54.1070   23.7784 C   0  0  0  0  0  0
    4.4322   54.0780   22.3822 C   0  0  0  0  0  0
    5.6323   54.4976   21.7501 C   0  0  0  0  0  0
    5.5178   54.4407   20.3858 N   0  0  0  0  0  0
    2.6439   53.4137   21.3530 H   0  0  0  0  0  0
    4.3085   53.9791   20.1822 C   0  0  0  0  0  0
    3.5994   53.7410   21.3370 N   0  0  0  0  0  0
    6.7034   54.8986   22.4503 N   0  0  0  0  0  0
    6.5463   54.8781   23.8027 C   0  0  0  0  0  0
    5.4346   54.5229   24.5001 N   0  0  0  0  0  0
    4.5640   53.5012   29.0481 H   0  0  0  0  0  0
    4.8450   53.8615   26.6639 H   0  0  0  0  0  0
    3.0438   52.8961   30.9754 H   0  0  0  0  0  0
   -1.1107   52.1711   30.1981 H   0  0  0  0  0  0
   -0.7644   52.5990   27.7888 H   0  0  0  0  0  0
    1.4596   52.3588   32.7508 H   0  0  0  0  0  0
   -0.2502   52.0964   32.4179 H   0  0  0  0  0  0
    3.8489   53.7967   19.2212 H   0  0  0  0  0  0
    7.3991   55.1929   24.3847 H   0  0  0  0  0  0
  1  6  2  0  0  0
  1  2  1  0  0  0
  1 23  1  0  0  0
  2  3  2  0  0  0
  2 24  1  0  0  0
  3  4  1  0  0  0
  3 12  1  0  0  0
  4  5  2  0  0  0
  5 10  1  0  0  0
  5  6  1  0  0  0
  6  7  1  0  0  0
  7  8  2  0  0  0
  7 25  1  0  0  0
  8  9  1  0  0  0
  8 11  1  0  0  0
  9 10  2  0  0  0
  9 26  1  0  0  0
 10 27  1  0  0  0
 11 28  1  0  0  0
 11 29  1  0  0  0
 12 13  1  0  0  0
 13 22  2  0  0  0
 13 14  1  0  0  0
 14 15  2  0  0  0
 14 19  1  0  0  0
 15 16  1  0  0  0
 15 20  1  0  0  0
 16 18  2  0  0  0
 17 19  1  0  0  0
 18 30  1  0  0  0
 18 19  1  0  0  0
 20 21  2  0  0  0
 21 31  1  0  0  0
 21 22  1  0  0  0
M  END
> <i_i_glide_confnum>
5

> <i_i_glide_lignum>
1706

> <i_i_glide_posenum>
100

> <i_i_glide_rotatable_bonds>
2

> <i_m_Source_File_Index>
321

> <b_m_subgroup_collapsed>
0

> <r_i_docking_score>
-6.77601

> <r_i_glide_ecoul>
-8.23142

> <r_i_glide_eff_state_penalty>
0

> <r_i_glide_einternal>
0.577908

> <r_i_glide_emodel>
-60.1534

> <r_i_glide_energy>
-42.8488

> <r_i_glide_erotb>
0.42217

> <r_i_glide_esite>
-0.106668

> <r_i_glide_evdw>
-34.6174

> <r_i_glide_gscore>
-6.77601

> <r_i_glide_hbond>
-0.348486

> <r_i_glide_ligand_efficiency>
-0.322667

> <r_i_glide_ligand_efficiency_ln>
-1.67535

> <r_i_glide_ligand_efficiency_sa>
-0.890214

> <r_i_glide_lipo>
-1.65222

> <r_i_glide_metal>
0

> <r_i_glide_rewards>
-2.12522

> <s_i_glide_gridfile>
wee1_glide-grid

> <s_m_Source_File>
wee1_decoys_glide_SP.sdf

> <s_m_Source_Path>
/Users/zhangxujun/Desktop

> <s_m_entry_id>
596

> <s_m_entry_name>
wee1_decoys_glide_SP.321

> <s_m_subgroup_title>
wee1_decoys_glide_SP

> <s_m_subgroupid>
wee1_decoys_glide_SP


$$$$
