ZINC42175794_1845
                    3D
 Schrodinger Suite 2024-2.
 48 50  0  0  1  0            999 V2000
   -1.2162   51.4840   28.1999 C   0  0  0  0  0  0
   -0.5633   52.1753   26.9886 C   0  0  1  0  0  0
    0.6207   51.3625   26.4188 C   0  0  0  0  0  0
    0.1564   50.0826   25.6840 C   0  0  0  0  0  0
   -0.8442   50.3768   24.5047 C   0  0  2  0  0  0
   -2.0299   51.2068   25.1052 C   0  0  0  0  0  0
   -1.5754   52.4823   25.8555 C   0  0  0  0  0  0
   -1.4613   49.0254   23.9565 C   0  0  0  0  0  0
   -1.5722   48.8697   22.6898 N   0  0  0  0  0  0
   -2.1285   47.6332   22.2955 O   0  0  0  0  0  0
   -1.8544   48.1303   24.9399 N   0  0  0  0  0  0
   -0.1795   51.2091   23.4590 N   0  0  0  0  0  0
    0.8921   50.8952   22.7028 C   0  0  0  0  0  0
    1.4155   49.7817   22.7454 O   0  0  0  0  0  0
    1.4636   52.0040   21.7753 C   0  0  2  0  0  0
    0.8435   52.8956   21.8662 H   0  0  0  0  0  0
    1.6133   51.5610   20.2924 C   0  0  0  0  0  0
    3.1317   51.7177   20.0233 C   0  0  1  0  0  0
    3.4905   51.1532   19.1607 H   0  0  0  0  0  0
    3.5462   53.2015   19.9979 C   0  0  0  0  0  0
    3.4325   53.6187   21.4882 C   0  0  0  0  0  0
    2.9373   52.3203   22.1512 C   0  0  2  0  0  0
    3.1041   52.3319   23.2281 H   0  0  0  0  0  0
    3.7356   51.2899   21.3464 C   0  0  0  0  0  0
   -1.6608   50.5239   27.9354 H   0  0  0  0  0  0
   -0.4891   51.2989   28.9914 H   0  0  0  0  0  0
   -2.0081   52.0896   28.6326 H   0  0  0  0  0  0
   -0.1559   53.1313   27.3226 H   0  0  0  0  0  0
    1.2020   51.9841   25.7350 H   0  0  0  0  0  0
    1.3030   51.0922   27.2278 H   0  0  0  0  0  0
   -0.2793   49.4255   26.4406 H   0  0  0  0  0  0
    1.0264   49.5338   25.3199 H   0  0  0  0  0  0
   -2.7268   51.4911   24.3120 H   0  0  0  0  0  0
   -2.6173   50.5984   25.7953 H   0  0  0  0  0  0
   -1.1292   53.1770   25.1416 H   0  0  0  0  0  0
   -2.4458   52.9947   26.2662 H   0  0  0  0  0  0
   -2.0907   47.7040   21.3353 H   0  0  0  0  0  0
   -2.2542   47.2497   24.6621 H   0  0  0  0  0  0
   -1.6952   48.3124   25.9247 H   0  0  0  0  0  0
   -0.5095   52.1607   23.4045 H   0  0  0  0  0  0
    1.0254   52.1862   19.6174 H   0  0  0  0  0  0
    1.3196   50.5234   20.1239 H   0  0  0  0  0  0
    2.9112   53.7704   19.3235 H   0  0  0  0  0  0
    4.5722   53.3110   19.6433 H   0  0  0  0  0  0
    4.4074   53.9121   21.8823 H   0  0  0  0  0  0
    2.7508   54.4466   21.6815 H   0  0  0  0  0  0
    3.5061   50.2523   21.5906 H   0  0  0  0  0  0
    4.8216   51.4192   21.4015 H   0  0  0  0  0  0
  1  2  1  0  0  0
  1 25  1  0  0  0
  1 26  1  0  0  0
  1 27  1  0  0  0
  2  7  1  0  0  0
  2  3  1  0  0  0
  2 28  1  0  0  0
  3  4  1  0  0  0
  3 29  1  0  0  0
  3 30  1  0  0  0
  4  5  1  0  0  0
  4 31  1  0  0  0
  4 32  1  0  0  0
  5  6  1  0  0  0
  5  8  1  0  0  0
  5 12  1  0  0  0
  6  7  1  0  0  0
  6 33  1  0  0  0
  6 34  1  0  0  0
  7 35  1  0  0  0
  7 36  1  0  0  0
  8  9  2  0  0  0
  8 11  1  0  0  0
  9 10  1  0  0  0
 10 37  1  0  0  0
 11 38  1  0  0  0
 11 39  1  0  0  0
 12 13  1  0  0  0
 12 40  1  0  0  0
 13 14  2  0  0  0
 13 15  1  0  0  0
 15 16  1  0  0  0
 15 22  1  0  0  0
 15 17  1  0  0  0
 17 18  1  0  0  0
 17 41  1  0  0  0
 17 42  1  0  0  0
 18 19  1  0  0  0
 18 24  1  0  0  0
 18 20  1  0  0  0
 20 21  1  0  0  0
 20 43  1  0  0  0
 20 44  1  0  0  0
 21 22  1  0  0  0
 21 45  1  0  0  0
 21 46  1  0  0  0
 22 23  1  0  0  0
 22 24  1  0  0  0
 24 47  1  0  0  0
 24 48  1  0  0  0
M  END
> <i_i_glide_confnum>
117

> <i_i_glide_lignum>
1846

> <i_i_glide_posenum>
215

> <i_i_glide_rotatable_bonds>
5

> <i_m_Source_File_Index>
1496

> <b_m_subgroup_collapsed>
0

> <r_i_docking_score>
-1.84422

> <r_i_glide_ecoul>
-0.999354

> <r_i_glide_eff_state_penalty>
0

> <r_i_glide_einternal>
2.44189

> <r_i_glide_emodel>
-25.966

> <r_i_glide_energy>
-22.2947

> <r_i_glide_erotb>
1.06128

> <r_i_glide_esite>
-0.0754873

> <r_i_glide_evdw>
-21.2954

> <r_i_glide_gscore>
-1.84422

> <r_i_glide_hbond>
0

> <r_i_glide_ligand_efficiency>
-0.0878199

> <r_i_glide_ligand_efficiency_ln>
-0.455979

> <r_i_glide_ligand_efficiency_sa>
-0.242289

> <r_i_glide_lipo>
-0.125968

> <r_i_glide_metal>
0

> <r_i_glide_rewards>
-1.48937

> <s_i_glide_gridfile>
wee1_glide-grid

> <s_m_Source_File>
wee1_decoys_glide_SP.sdf

> <s_m_Source_Path>
/Users/zhangxujun/Desktop

> <s_m_entry_id>
1771

> <s_m_entry_name>
wee1_decoys_glide_SP.1496

> <s_m_subgroup_title>
wee1_decoys_glide_SP

> <s_m_subgroupid>
wee1_decoys_glide_SP


$$$$
