ZINC33306568_5901
                    3D
 Schrodinger Suite 2024-2.
 46 48  0  0  1  0            999 V2000
    2.2551   50.0378   22.0865 C   0  0  0  0  0  0
    2.6750   50.8648   20.8564 C   0  0  0  0  0  0
    3.2751   52.2315   21.2137 C   0  0  0  0  0  0
    2.7118   52.9448   22.0460 O   0  0  0  0  0  0
    4.3936   52.5696   20.5413 N   0  0  0  0  0  0
    5.1062   53.7536   20.6890 C   0  0  0  0  0  0
    5.6482   54.4980   19.6336 C   0  0  0  0  0  0
    6.3462   55.5251   20.0632 N   0  0  0  0  0  0
    6.3052   55.4697   21.4529 O   0  0  0  0  0  0
    5.5519   54.4085   21.8402 C   0  0  0  0  0  0
    5.3766   54.1865   23.2599 C   0  0  0  0  0  0
    6.0830   54.6900   24.2918 C   0  0  0  0  0  0
    5.7280   54.4502   25.6771 C   0  0  0  0  0  0
    6.5486   54.1677   26.7666 C   0  0  0  0  0  0
    5.8275   53.8746   27.9343 C   0  0  0  0  0  0
    4.4519   53.9584   27.7517 C   0  0  0  0  0  0
    4.0654   54.4964   26.1541 S   0  0  0  0  0  0
    3.1777   53.5773   28.9878 S   0  0  0  0  0  0
    3.3739   52.1464   29.2536 O   0  0  0  0  0  0
    3.5031   54.4962   30.0817 O   0  0  0  0  0  0
    1.8147   53.9311   28.2969 N   0  5  0  0  0  0
    1.0351   52.9409   27.7577 C   0  0  0  0  0  0
    1.1030   52.6734   26.3828 C   0  0  0  0  0  0
    0.2681   51.7391   25.7754 C   0  0  0  0  0  0
   -0.6722   51.0563   26.5356 C   0  0  0  0  0  0
   -0.7603   51.2983   27.9042 C   0  0  0  0  0  0
    0.0851   52.2281   28.5166 C   0  0  0  0  0  0
   -0.0952   52.4971   30.2193 Cl  0  0  0  0  0  0
   -1.5076   50.1778   25.9381 F   0  0  0  0  0  0
    5.5404   54.2554   18.1454 C   0  0  0  0  0  0
    1.8487   49.0763   21.7721 H   0  0  0  0  0  0
    1.4720   50.5326   22.6624 H   0  0  0  0  0  0
    3.0986   49.8201   22.7434 H   0  0  0  0  0  0
    3.3740   50.2847   20.2507 H   0  0  0  0  0  0
    1.8055   51.0414   20.2226 H   0  0  0  0  0  0
    4.6726   51.9656   19.7773 H   0  0  0  0  0  0
    4.5584   53.5238   23.4878 H   0  0  0  0  0  0
    6.9529   55.3103   24.1252 H   0  0  0  0  0  0
    7.6231   54.1206   26.7197 H   0  0  0  0  0  0
    6.2870   53.5908   28.8700 H   0  0  0  0  0  0
    1.7867   53.2120   25.7510 H   0  0  0  0  0  0
    0.3361   51.5599   24.7131 H   0  0  0  0  0  0
   -1.4955   50.7646   28.4887 H   0  0  0  0  0  0
    4.8722   53.4264   17.9107 H   0  0  0  0  0  0
    5.1559   55.1303   17.6205 H   0  0  0  0  0  0
    6.5087   54.0131   17.7072 H   0  0  0  0  0  0
  1  2  1  0  0  0
  1 31  1  0  0  0
  1 32  1  0  0  0
  1 33  1  0  0  0
  2  3  1  0  0  0
  2 34  1  0  0  0
  2 35  1  0  0  0
  3  4  2  0  0  0
  3  5  1  0  0  0
  5  6  1  0  0  0
  5 36  1  0  0  0
  6 10  2  0  0  0
  6  7  1  0  0  0
  7  8  2  0  0  0
  7 30  1  0  0  0
  8  9  1  0  0  0
  9 10  1  0  0  0
 10 11  1  0  0  0
 11 12  2  0  0  0
 11 37  1  0  0  0
 12 13  1  0  0  0
 12 38  1  0  0  0
 13 17  1  0  0  0
 13 14  2  0  0  0
 14 15  1  0  0  0
 14 39  1  0  0  0
 15 16  2  0  0  0
 15 40  1  0  0  0
 16 17  1  0  0  0
 16 18  1  0  0  0
 18 19  2  0  0  0
 18 20  2  0  0  0
 18 21  1  0  0  0
 21 22  1  0  0  0
 22 27  2  0  0  0
 22 23  1  0  0  0
 23 24  2  0  0  0
 23 41  1  0  0  0
 24 25  1  0  0  0
 24 42  1  0  0  0
 25 26  2  0  0  0
 25 29  1  0  0  0
 26 27  1  0  0  0
 26 43  1  0  0  0
 27 28  1  0  0  0
 30 44  1  0  0  0
 30 45  1  0  0  0
 30 46  1  0  0  0
M  CHG  1  21  -1
M  END
> <i_i_glide_confnum>
59

> <i_i_glide_lignum>
5902

> <i_i_glide_posenum>
400

> <i_i_glide_rotatable_bonds>
8

> <i_m_Source_File_Index>
4071

> <b_m_subgroup_collapsed>
0

> <r_i_docking_score>
-4.04889

> <r_i_glide_ecoul>
-6.70701

> <r_i_glide_eff_state_penalty>
0

> <r_i_glide_einternal>
10.3279

> <r_i_glide_emodel>
-59.3244

> <r_i_glide_energy>
-56.4521

> <r_i_glide_erotb>
0.642829

> <r_i_glide_esite>
-0.166074

> <r_i_glide_evdw>
-49.7451

> <r_i_glide_gscore>
-4.04889

> <r_i_glide_hbond>
-0.01639

> <r_i_glide_ligand_efficiency>
-0.134963

> <r_i_glide_ligand_efficiency_ln>
-0.919953

> <r_i_glide_ligand_efficiency_sa>
-0.419362

> <r_i_glide_lipo>
-2.86994

> <r_i_glide_metal>
0

> <r_i_glide_rewards>
1.85398

> <s_i_glide_gridfile>
wee1_glide-grid

> <s_m_Source_File>
wee1_decoys_glide_SP.sdf

> <s_m_Source_Path>
/Users/zhangxujun/Desktop

> <s_m_entry_id>
4346

> <s_m_entry_name>
wee1_decoys_glide_SP.4071

> <s_m_subgroup_title>
wee1_decoys_glide_SP

> <s_m_subgroupid>
wee1_decoys_glide_SP


$$$$
