ZINC02154884_211
                    3D
 Schrodinger Suite 2024-2.
 60 63  0  0  1  0            999 V2000
    6.9423   53.9828   27.7922 C   0  0  0  0  0  0
    5.6648   54.5546   27.5252 O   0  0  0  0  0  0
    5.1035   54.3904   26.2755 C   0  0  0  0  0  0
    5.7950   53.9469   25.1454 C   0  0  0  0  0  0
    5.1118   53.6970   23.9546 C   0  0  0  0  0  0
    3.7362   53.9560   23.8256 C   0  0  0  0  0  0
    3.0892   54.4782   24.9440 C   0  0  0  0  0  0
    3.7486   54.6687   26.1551 C   0  0  0  0  0  0
    2.9253   53.8429   22.4979 C   0  0  2  0  0  0
    2.5784   54.8657   22.3411 H   0  0  0  0  0  0
    1.6260   52.9418   22.3894 C   0  0  2  0  0  0
    1.1203   53.3375   21.5079 H   0  0  0  0  0  0
    0.5571   53.0868   23.5140 C   0  0  0  0  0  0
   -0.7773   52.3744   23.1795 C   0  0  0  0  0  0
   -0.5873   50.9132   22.7386 C   0  0  0  0  0  0
    0.4697   50.7931   21.6183 C   0  0  0  0  0  0
    1.8305   51.4377   21.9871 C   0  0  1  0  0  0
    2.8964   51.2863   20.8692 C   0  0  0  0  0  0
    4.1700   52.1437   21.0146 C   0  0  0  0  0  0
    4.9335   54.6275   21.0009 C   0  0  0  0  0  0
    5.2529   54.9035   19.5243 C   0  0  0  0  0  0
    6.3856   55.2925   19.2443 O   0  0  0  0  0  0
    4.3017   54.7138   18.5919 N   0  0  0  0  0  0
    4.5019   54.9091   17.1567 C   0  0  0  0  0  0
    4.3127   56.3579   16.7751 C   0  0  0  0  0  0
    5.1692   57.3536   16.3318 C   0  0  0  0  0  0
    4.3944   58.4977   16.1440 C   0  0  0  0  0  0
    3.0993   58.1477   16.4721 C   0  0  0  0  0  0
    3.0491   56.8496   16.8651 O   0  0  0  0  0  0
    2.3022   50.8182   23.1596 O   0  0  0  0  0  0
    7.1588   54.0621   28.8571 H   0  0  0  0  0  0
    6.9732   52.9216   27.5353 H   0  0  0  0  0  0
    7.7326   54.5051   27.2549 H   0  0  0  0  0  0
    6.8490   53.7205   25.1907 H   0  0  0  0  0  0
    5.6951   53.2537   23.1737 H   0  0  0  0  0  0
    2.0431   54.7081   24.8814 H   0  0  0  0  0  0
    3.1981   55.0270   27.0119 H   0  0  0  0  0  0
    0.9572   52.7373   24.4671 H   0  0  0  0  0  0
    0.3284   54.1419   23.6686 H   0  0  0  0  0  0
   -1.4418   52.4171   24.0441 H   0  0  0  0  0  0
   -1.2966   52.8962   22.3781 H   0  0  0  0  0  0
   -0.2877   50.3105   23.5988 H   0  0  0  0  0  0
   -1.5397   50.4986   22.4018 H   0  0  0  0  0  0
    0.0933   51.2465   20.7003 H   0  0  0  0  0  0
    0.6150   49.7465   21.3469 H   0  0  0  0  0  0
    2.4324   51.5473   19.9171 H   0  0  0  0  0  0
    3.1507   50.2343   20.7331 H   0  0  0  0  0  0
    4.7402   52.0825   20.0857 H   0  0  0  0  0  0
    4.7978   51.8338   21.8482 H   0  0  0  0  0  0
    5.8299   54.1943   21.4297 H   0  0  0  0  0  0
    4.7083   55.5496   21.5498 H   0  0  0  0  0  0
    3.3615   54.4812   18.8717 H   0  0  0  0  0  0
    3.7946   54.2813   16.6159 H   0  0  0  0  0  0
    5.4888   54.5468   16.8601 H   0  0  0  0  0  0
    6.2325   57.2631   16.1715 H   0  0  0  0  0  0
    4.7299   59.4719   15.8130 H   0  0  0  0  0  0
    2.1666   58.6907   16.4783 H   0  0  0  0  0  0
    2.3074   49.8638   23.0368 H   0  0  0  0  0  0
    3.7523   53.6222   21.2001 N   0  3  2  0  0  0
    3.0877   53.8030   20.4606 H   0  0  0  0  0  0
  1  2  1  0  0  0
  1 31  1  0  0  0
  1 32  1  0  0  0
  1 33  1  0  0  0
  2  3  1  0  0  0
  3  8  2  0  0  0
  3  4  1  0  0  0
  4  5  2  0  0  0
  4 34  1  0  0  0
  5  6  1  0  0  0
  5 35  1  0  0  0
  6  7  2  0  0  0
  6  9  1  0  0  0
  7  8  1  0  0  0
  7 36  1  0  0  0
  8 37  1  0  0  0
  9 10  1  0  0  0
  9 11  1  0  0  0
  9 59  1  0  0  0
 11 12  1  0  0  0
 11 17  1  0  0  0
 11 13  1  0  0  0
 13 14  1  0  0  0
 13 38  1  0  0  0
 13 39  1  0  0  0
 14 15  1  0  0  0
 14 40  1  0  0  0
 14 41  1  0  0  0
 15 16  1  0  0  0
 15 42  1  0  0  0
 15 43  1  0  0  0
 16 17  1  0  0  0
 16 44  1  0  0  0
 16 45  1  0  0  0
 17 18  1  0  0  0
 17 30  1  0  0  0
 18 19  1  0  0  0
 18 46  1  0  0  0
 18 47  1  0  0  0
 19 48  1  0  0  0
 19 49  1  0  0  0
 19 59  1  0  0  0
 20 21  1  0  0  0
 20 50  1  0  0  0
 20 51  1  0  0  0
 20 59  1  0  0  0
 21 22  2  0  0  0
 21 23  1  0  0  0
 23 24  1  0  0  0
 23 52  1  0  0  0
 24 25  1  0  0  0
 24 53  1  0  0  0
 24 54  1  0  0  0
 25 29  1  0  0  0
 25 26  2  0  0  0
 26 27  1  0  0  0
 26 55  1  0  0  0
 27 28  2  0  0  0
 27 56  1  0  0  0
 28 29  1  0  0  0
 28 57  1  0  0  0
 30 58  1  0  0  0
 59 60  1  0  0  0
M  CHG  1  59   1
M  END
> <i_i_glide_confnum>
8

> <i_i_glide_lignum>
212

> <i_i_glide_posenum>
49

> <i_i_glide_rotatable_bonds>
8

> <i_m_Source_File_Index>
710

> <b_m_subgroup_collapsed>
0

> <r_i_docking_score>
-4.48401

> <r_i_glide_ecoul>
-3.87322

> <r_i_glide_eff_state_penalty>
0

> <r_i_glide_einternal>
17.5879

> <r_i_glide_emodel>
-30.7406

> <r_i_glide_energy>
-31.5408

> <r_i_glide_erotb>
0.613872

> <r_i_glide_esite>
-0.0027973

> <r_i_glide_evdw>
-27.6675

> <r_i_glide_gscore>
-4.48401

> <r_i_glide_hbond>
-0.00848344

> <r_i_glide_ligand_efficiency>
-0.154621

> <r_i_glide_ligand_efficiency_ln>
-1.02672

> <r_i_glide_ligand_efficiency_sa>
-0.475045

> <r_i_glide_lipo>
-2.31488

> <r_i_glide_metal>
0

> <r_i_glide_rewards>
-0.807357

> <s_i_glide_gridfile>
wee1_glide-grid

> <s_m_Source_File>
wee1_decoys_glide_SP.sdf

> <s_m_Source_Path>
/Users/zhangxujun/Desktop

> <s_m_entry_id>
985

> <s_m_entry_name>
wee1_decoys_glide_SP.710

> <s_m_subgroup_title>
wee1_decoys_glide_SP

> <s_m_subgroupid>
wee1_decoys_glide_SP


$$$$
