ZINC44441715_3235
                    3D
 Schrodinger Suite 2024-2.
 54 59  0  0  1  0            999 V2000
    4.0551   53.8672   28.0355 C   0  0  0  0  0  0
    3.6390   53.6003   29.3351 C   0  0  0  0  0  0
    2.3322   53.1177   29.5828 C   0  0  0  0  0  0
    1.4408   52.8940   28.4845 C   0  0  0  0  0  0
    0.1197   52.4708   28.8099 C   0  0  0  0  0  0
   -0.2364   52.2650   30.1376 C   0  0  0  0  0  0
    0.7023   52.4968   31.1330 C   0  0  0  0  0  0
    1.9698   52.8963   30.8796 N   0  0  0  0  0  0
    1.9186   53.1249   27.1492 C   0  0  0  0  0  0
    3.2030   53.6402   26.9600 C   0  0  0  0  0  0
    1.1552   52.8968   25.9903 N   0  0  0  0  0  0
    0.5620   51.7298   25.6608 C   0  0  0  0  0  0
    0.6375   50.7180   26.3585 O   0  0  0  0  0  0
   -0.2226   51.7070   24.3271 C   0  0  2  0  0  0
   -0.6139   52.7216   24.2252 H   0  0  0  0  0  0
   -1.4308   50.7166   24.3838 C   0  0  0  0  0  0
   -1.0643   49.2532   24.0512 C   0  0  0  0  0  0
   -0.4761   49.1040   22.6342 C   0  0  0  0  0  0
    0.6095   50.1518   22.4453 C   0  0  0  0  0  0
    0.7082   51.3531   23.1583 C   0  0  0  0  0  0
    1.6856   52.1561   22.7739 N   0  0  0  0  0  0
    2.3696   51.6627   21.7683 C   0  0  0  0  0  0
    1.8539   50.1019   21.2279 S   0  0  0  0  0  0
    3.4053   52.2689   21.0721 N   0  0  0  0  0  0
    4.0408   53.4159   21.4115 C   0  0  0  0  0  0
    3.8246   54.0423   22.4544 O   0  0  0  0  0  0
    5.1009   53.9049   20.4392 C   0  0  0  0  0  0
    5.2942   53.2966   19.1730 C   0  0  0  0  0  0
    6.2690   53.7540   18.2775 C   0  0  0  0  0  0
    7.0369   54.8389   18.6673 C   0  0  0  0  0  0
    6.8597   55.4446   19.8761 C   0  0  0  0  0  0
    5.9045   55.0111   20.7843 C   0  0  0  0  0  0
    7.7132   56.4965   19.9804 O   0  0  0  0  0  0
    8.5855   56.3841   18.8849 C   0  0  0  0  0  0
    8.0139   55.4803   17.9773 O   0  0  0  0  0  0
    5.0523   54.2428   27.8588 H   0  0  0  0  0  0
    4.3049   53.7746   30.1659 H   0  0  0  0  0  0
   -0.6073   52.2952   28.0339 H   0  0  0  0  0  0
   -1.2267   51.9150   30.3916 H   0  0  0  0  0  0
    0.4386   52.3361   32.1711 H   0  0  0  0  0  0
    3.5664   53.8336   25.9596 H   0  0  0  0  0  0
    1.2139   53.6045   25.2729 H   0  0  0  0  0  0
   -2.1890   51.0507   23.6732 H   0  0  0  0  0  0
   -1.9282   50.7597   25.3540 H   0  0  0  0  0  0
   -1.9472   48.6171   24.1511 H   0  0  0  0  0  0
   -0.3502   48.8753   24.7829 H   0  0  0  0  0  0
   -1.2603   49.2556   21.8899 H   0  0  0  0  0  0
   -0.0989   48.0971   22.4756 H   0  0  0  0  0  0
    3.7426   51.7793   20.2568 H   0  0  0  0  0  0
    4.6940   52.4584   18.8505 H   0  0  0  0  0  0
    6.4045   53.2733   17.3182 H   0  0  0  0  0  0
    5.7858   55.5174   21.7299 H   0  0  0  0  0  0
    8.7356   57.3589   18.4140 H   0  0  0  0  0  0
    9.5437   55.9896   19.2323 H   0  0  0  0  0  0
  1 10  2  0  0  0
  1  2  1  0  0  0
  1 36  1  0  0  0
  2  3  2  0  0  0
  2 37  1  0  0  0
  3  8  1  0  0  0
  3  4  1  0  0  0
  4  5  1  0  0  0
  4  9  2  0  0  0
  5  6  2  0  0  0
  5 38  1  0  0  0
  6  7  1  0  0  0
  6 39  1  0  0  0
  7  8  2  0  0  0
  7 40  1  0  0  0
  9 10  1  0  0  0
  9 11  1  0  0  0
 10 41  1  0  0  0
 11 12  1  0  0  0
 11 42  1  0  0  0
 12 13  2  0  0  0
 12 14  1  0  0  0
 14 15  1  0  0  0
 14 20  1  0  0  0
 14 16  1  0  0  0
 16 17  1  0  0  0
 16 43  1  0  0  0
 16 44  1  0  0  0
 17 18  1  0  0  0
 17 45  1  0  0  0
 17 46  1  0  0  0
 18 19  1  0  0  0
 18 47  1  0  0  0
 18 48  1  0  0  0
 19 23  1  0  0  0
 19 20  2  0  0  0
 20 21  1  0  0  0
 21 22  2  0  0  0
 22 23  1  0  0  0
 22 24  1  0  0  0
 24 25  1  0  0  0
 24 49  1  0  0  0
 25 26  2  0  0  0
 25 27  1  0  0  0
 27 32  2  0  0  0
 27 28  1  0  0  0
 28 29  2  0  0  0
 28 50  1  0  0  0
 29 30  1  0  0  0
 29 51  1  0  0  0
 30 35  1  0  0  0
 30 31  2  0  0  0
 31 32  1  0  0  0
 31 33  1  0  0  0
 32 52  1  0  0  0
 33 34  1  0  0  0
 34 35  1  0  0  0
 34 53  1  0  0  0
 34 54  1  0  0  0
M  END
> <i_i_glide_confnum>
110

> <i_i_glide_lignum>
3236

> <i_i_glide_posenum>
323

> <i_i_glide_rotatable_bonds>
6

> <i_m_Source_File_Index>
55

> <b_m_subgroup_collapsed>
0

> <r_i_docking_score>
-4.91534

> <r_i_glide_ecoul>
-4.5027

> <r_i_glide_eff_state_penalty>
0

> <r_i_glide_einternal>
8.99805

> <r_i_glide_emodel>
-62.56

> <r_i_glide_energy>
-50.0358

> <r_i_glide_erotb>
0.54339

> <r_i_glide_esite>
-0.00534904

> <r_i_glide_evdw>
-45.5331

> <r_i_glide_gscore>
-4.91534

> <r_i_glide_hbond>
-0.315321

> <r_i_glide_ligand_efficiency>
-0.144569

> <r_i_glide_ligand_efficiency_ln>
-1.08594

> <r_i_glide_ligand_efficiency_sa>
-0.468347

> <r_i_glide_lipo>
-1.78774

> <r_i_glide_metal>
0

> <r_i_glide_rewards>
-0.398254

> <s_i_glide_gridfile>
wee1_glide-grid

> <s_m_Source_File>
wee1_decoys_glide_SP.sdf

> <s_m_Source_Path>
/Users/zhangxujun/Desktop

> <s_m_entry_id>
330

> <s_m_entry_name>
wee1_decoys_glide_SP.55

> <s_m_subgroup_title>
wee1_decoys_glide_SP

> <s_m_subgroupid>
wee1_decoys_glide_SP


$$$$
