ZINC41331920_1962
                    3D
 Schrodinger Suite 2024-2.
 39 42  0  0  1  0            999 V2000
   -4.4983   45.4187   23.5873 C   0  0  0  0  0  0
   -4.2140   46.2239   24.6953 C   0  0  0  0  0  0
   -3.0926   47.0679   24.6473 C   0  0  0  0  0  0
   -2.5015   48.0411   25.5049 C   0  0  0  0  0  0
   -1.3893   48.5532   24.8326 C   0  0  0  0  0  0
   -1.2470   47.9447   23.6143 O   0  0  0  0  0  0
   -2.2741   47.0513   23.4969 C   0  0  0  0  0  0
   -2.5374   46.2267   22.3954 C   0  0  0  0  0  0
   -3.6729   45.4178   22.4613 C   0  0  0  0  0  0
   -1.7421   46.2169   21.3025 F   0  0  0  0  0  0
   -0.5204   49.6698   25.1329 C   0  0  0  0  0  0
    0.1526   50.1882   24.2409 O   0  0  0  0  0  0
   -0.5679   50.0827   26.4219 N   0  0  0  0  0  0
    0.0193   51.2109   27.0169 C   0  0  0  0  0  0
   -0.0894   51.2969   28.4046 C   0  0  0  0  0  0
    0.4978   52.3459   29.0996 C   0  0  0  0  0  0
    1.1670   53.3500   28.3993 C   0  0  0  0  0  0
    1.2246   53.2968   27.0069 C   0  0  0  0  0  0
    0.6685   52.2320   26.3132 C   0  0  0  0  0  0
    1.9448   54.6868   29.3184 S   0  0  0  0  0  0
    1.8974   55.8834   28.4796 O   0  0  0  0  0  0
    1.1682   54.7484   30.5589 O   0  0  0  0  0  0
    3.3863   54.0964   29.5163 N   0  5  0  0  0  0
    4.3918   54.0593   28.6091 C   0  0  0  0  0  0
    5.6029   53.6516   28.8815 N   0  0  0  0  0  0
    6.4349   53.6976   27.8594 C   0  0  0  0  0  0
    5.9036   54.1362   26.6584 C   0  0  0  0  0  0
    4.2276   54.4969   26.9220 S   0  0  0  0  0  0
   -5.3761   44.7867   23.5998 H   0  0  0  0  0  0
   -4.8624   46.2244   25.5595 H   0  0  0  0  0  0
   -2.8441   48.3563   26.4805 H   0  0  0  0  0  0
   -3.9213   44.7869   21.6200 H   0  0  0  0  0  0
   -1.0613   49.4722   27.0740 H   0  0  0  0  0  0
   -0.6126   50.5337   28.9591 H   0  0  0  0  0  0
    0.4277   52.3751   30.1784 H   0  0  0  0  0  0
    1.6768   54.0960   26.4440 H   0  0  0  0  0  0
    0.7418   52.2394   25.2386 H   0  0  0  0  0  0
    7.4587   53.3847   28.0092 H   0  0  0  0  0  0
    6.3719   54.2395   25.6914 H   0  0  0  0  0  0
  1  9  2  0  0  0
  1  2  1  0  0  0
  1 29  1  0  0  0
  2  3  2  0  0  0
  2 30  1  0  0  0
  3  7  1  0  0  0
  3  4  1  0  0  0
  4  5  2  0  0  0
  4 31  1  0  0  0
  5  6  1  0  0  0
  5 11  1  0  0  0
  6  7  1  0  0  0
  7  8  2  0  0  0
  8  9  1  0  0  0
  8 10  1  0  0  0
  9 32  1  0  0  0
 11 12  2  0  0  0
 11 13  1  0  0  0
 13 14  1  0  0  0
 13 33  1  0  0  0
 14 19  2  0  0  0
 14 15  1  0  0  0
 15 16  2  0  0  0
 15 34  1  0  0  0
 16 17  1  0  0  0
 16 35  1  0  0  0
 17 18  2  0  0  0
 17 20  1  0  0  0
 18 19  1  0  0  0
 18 36  1  0  0  0
 19 37  1  0  0  0
 20 21  2  0  0  0
 20 22  2  0  0  0
 20 23  1  0  0  0
 23 24  1  0  0  0
 24 28  1  0  0  0
 24 25  2  0  0  0
 25 26  1  0  0  0
 26 27  2  0  0  0
 26 38  1  0  0  0
 27 28  1  0  0  0
 27 39  1  0  0  0
M  CHG  1  23  -1
M  END
> <i_i_glide_confnum>
113

> <i_i_glide_lignum>
1963

> <i_i_glide_posenum>
308

> <i_i_glide_rotatable_bonds>
6

> <i_m_Source_File_Index>
4543

> <b_m_subgroup_collapsed>
0

> <r_i_docking_score>
-4.96177

> <r_i_glide_ecoul>
-6.78422

> <r_i_glide_eff_state_penalty>
0

> <r_i_glide_einternal>
2.48272

> <r_i_glide_emodel>
-56.967

> <r_i_glide_energy>
-41.3178

> <r_i_glide_erotb>
0.683546

> <r_i_glide_esite>
-0.140275

> <r_i_glide_evdw>
-34.5335

> <r_i_glide_gscore>
-4.96177

> <r_i_glide_hbond>
-0.194348

> <r_i_glide_ligand_efficiency>
-0.177206

> <r_i_glide_ligand_efficiency_ln>
-1.14532

> <r_i_glide_ligand_efficiency_sa>
-0.538102

> <r_i_glide_lipo>
-1.67535

> <r_i_glide_metal>
0

> <r_i_glide_rewards>
-0.891029

> <s_i_glide_gridfile>
wee1_glide-grid

> <s_m_Source_File>
wee1_decoys_glide_SP.sdf

> <s_m_Source_Path>
/Users/zhangxujun/Desktop

> <s_m_entry_id>
4818

> <s_m_entry_name>
wee1_decoys_glide_SP.4543

> <s_m_subgroup_title>
wee1_decoys_glide_SP

> <s_m_subgroupid>
wee1_decoys_glide_SP


$$$$
