ZINC64103707_1974
                    3D
 Schrodinger Suite 2024-2.
 47 50  0  0  1  0            999 V2000
    5.3201   54.4013   21.0839 C   0  0  0  0  0  0
    4.1748   54.3328   22.1082 C   0  0  2  0  0  0
    3.6763   55.2970   22.0763 H   0  0  0  0  0  0
    4.6368   54.1797   23.5539 C   0  0  0  0  0  0
    5.8865   54.1354   24.1685 C   0  0  0  0  0  0
    5.6468   54.1148   25.5776 C   0  0  0  0  0  0
    6.4309   54.0978   26.7414 C   0  0  0  0  0  0
    5.7912   54.0922   27.9840 C   0  0  0  0  0  0
    4.3984   54.0941   28.0860 C   0  0  0  0  0  0
    3.5886   54.1056   26.9482 C   0  0  0  0  0  0
    4.2406   54.1223   25.7094 C   0  0  0  0  0  0
    3.6372   54.1674   24.4875 O   0  0  0  0  0  0
    3.1118   53.4017   21.7377 N   0  0  0  0  0  0
    3.1846   52.0654   21.6048 C   0  0  0  0  0  0
    4.2482   51.4469   21.6610 O   0  0  0  0  0  0
    1.8819   51.4195   21.4350 C   0  0  0  0  0  0
    1.7046   50.1545   21.3708 N   0  0  0  0  0  0
    0.3723   49.9426   21.2723 C   0  0  0  0  0  0
   -0.3441   51.0697   21.2653 C   0  0  0  0  0  0
    0.5906   52.2231   21.3503 C   0  0  0  0  0  0
   -2.1318   51.2776   21.1897 S   0  0  0  0  0  0
   -2.3586   52.0951   19.9917 O   0  0  0  0  0  0
   -2.6879   49.9204   21.1862 O   0  0  0  0  0  0
   -2.4800   52.0968   22.4799 N   0  5  0  0  0  0
   -2.4729   51.6310   23.7750 C   0  0  0  0  0  0
   -1.9613   50.3816   24.1708 C   0  0  0  0  0  0
   -1.9591   49.9852   25.5080 C   0  0  0  0  0  0
   -2.4836   50.8260   26.4837 C   0  0  0  0  0  0
   -3.0151   52.0588   26.1206 C   0  0  0  0  0  0
   -3.0134   52.4559   24.7828 C   0  0  0  0  0  0
   -3.5659   53.6581   24.4777 F   0  0  0  0  0  0
    5.9949   55.2312   21.2949 H   0  0  0  0  0  0
    5.9036   53.4839   21.0904 H   0  0  0  0  0  0
    4.9358   54.5372   20.0723 H   0  0  0  0  0  0
    6.8389   54.1483   23.6590 H   0  0  0  0  0  0
    7.5050   54.0873   26.6839 H   0  0  0  0  0  0
    6.3896   54.0890   28.8838 H   0  0  0  0  0  0
    3.9413   54.0861   29.0649 H   0  0  0  0  0  0
    2.5108   54.1082   27.0156 H   0  0  0  0  0  0
    2.2025   53.8250   21.6221 H   0  0  0  0  0  0
    0.0091   48.9260   21.2212 H   0  0  0  0  0  0
    0.4195   52.8234   22.2450 H   0  0  0  0  0  0
    0.5592   52.8568   20.4622 H   0  0  0  0  0  0
   -1.5438   49.6990   23.4481 H   0  0  0  0  0  0
   -1.5504   49.0258   25.7934 H   0  0  0  0  0  0
   -2.4813   50.5128   27.5189 H   0  0  0  0  0  0
   -3.4337   52.7071   26.8758 H   0  0  0  0  0  0
  1  2  1  0  0  0
  1 32  1  0  0  0
  1 33  1  0  0  0
  1 34  1  0  0  0
  2  3  1  0  0  0
  2  4  1  0  0  0
  2 13  1  0  0  0
  4 12  1  0  0  0
  4  5  2  0  0  0
  5  6  1  0  0  0
  5 35  1  0  0  0
  6 11  2  0  0  0
  6  7  1  0  0  0
  7  8  2  0  0  0
  7 36  1  0  0  0
  8  9  1  0  0  0
  8 37  1  0  0  0
  9 10  2  0  0  0
  9 38  1  0  0  0
 10 11  1  0  0  0
 10 39  1  0  0  0
 11 12  1  0  0  0
 13 14  1  0  0  0
 13 40  1  0  0  0
 14 15  2  0  0  0
 14 16  1  0  0  0
 16 20  1  0  0  0
 16 17  2  0  0  0
 17 18  1  0  0  0
 18 19  2  0  0  0
 18 41  1  0  0  0
 19 20  1  0  0  0
 19 21  1  0  0  0
 20 42  1  0  0  0
 20 43  1  0  0  0
 21 22  2  0  0  0
 21 23  2  0  0  0
 21 24  1  0  0  0
 24 25  1  0  0  0
 25 30  2  0  0  0
 25 26  1  0  0  0
 26 27  2  0  0  0
 26 44  1  0  0  0
 27 28  1  0  0  0
 27 45  1  0  0  0
 28 29  2  0  0  0
 28 46  1  0  0  0
 29 30  1  0  0  0
 29 47  1  0  0  0
 30 31  1  0  0  0
M  CHG  1  24  -1
M  END
> <i_i_glide_confnum>
123

> <i_i_glide_lignum>
1975

> <i_i_glide_posenum>
171

> <i_i_glide_rotatable_bonds>
7

> <i_m_Source_File_Index>
10

> <b_m_subgroup_collapsed>
0

> <r_i_docking_score>
-5.69996

> <r_i_glide_ecoul>
-6.18057

> <r_i_glide_eff_state_penalty>
0

> <r_i_glide_einternal>
2.26736

> <r_i_glide_emodel>
-59.7261

> <r_i_glide_energy>
-44.2547

> <r_i_glide_erotb>
0.654798

> <r_i_glide_esite>
-0.0697997

> <r_i_glide_evdw>
-38.0741

> <r_i_glide_gscore>
-5.69996

> <r_i_glide_hbond>
-0.115919

> <r_i_glide_ligand_efficiency>
-0.189999

> <r_i_glide_ligand_efficiency_ln>
-1.29509

> <r_i_glide_ligand_efficiency_sa>
-0.59037

> <r_i_glide_lipo>
-2.45015

> <r_i_glide_metal>
0

> <r_i_glide_rewards>
-0.88809

> <s_i_glide_gridfile>
wee1_glide-grid

> <s_m_Source_File>
wee1_decoys_glide_SP.sdf

> <s_m_Source_Path>
/Users/zhangxujun/Desktop

> <s_m_entry_id>
285

> <s_m_entry_name>
wee1_decoys_glide_SP.10

> <s_m_subgroup_title>
wee1_decoys_glide_SP

> <s_m_subgroupid>
wee1_decoys_glide_SP


$$$$
