ZINC19015508_3529
                    3D
 Schrodinger Suite 2024-2.
 60 65  0  0  1  0            999 V2000
   -2.0694   45.3650   19.8222 C   0  0  0  0  0  0
   -2.1324   46.3599   20.7903 C   0  0  0  0  0  0
   -1.1866   47.3817   20.8179 C   0  0  0  0  0  0
   -0.1284   47.4295   19.8611 C   0  0  0  0  0  0
   -0.0844   46.4041   18.8605 C   0  0  0  0  0  0
   -1.0642   45.3788   18.8625 C   0  0  0  0  0  0
    0.9356   46.4273   17.8811 C   0  0  0  0  0  0
    1.9040   47.4217   17.9012 C   0  0  0  0  0  0
    1.8877   48.4087   18.8761 C   0  0  0  0  0  0
    0.8786   48.4537   19.8499 C   0  0  0  0  0  0
    0.8769   49.4340   20.8672 N   0  0  0  0  0  0
    1.3120   50.7054   20.7755 C   0  0  0  0  0  0
    1.7248   51.2354   19.7444 O   0  0  0  0  0  0
    1.1795   51.3634   21.9377 N   0  0  0  0  0  0
    1.2191   52.8198   22.0764 C   0  0  0  0  0  0
    2.4733   53.2893   22.8104 C   0  0  0  0  0  0
    3.5225   53.6609   22.1229 N   0  0  0  0  0  0
    4.4379   54.0401   23.0532 C   0  0  0  0  0  0
    5.7470   54.4977   22.8446 C   0  0  0  0  0  0
    6.5018   54.8573   23.9610 C   0  0  0  0  0  0
    5.9903   54.7415   25.2494 C   0  0  0  0  0  0
    4.7004   54.2573   25.4888 C   0  0  0  0  0  0
    3.9201   53.9134   24.3673 C   0  0  0  0  0  0
    2.6392   53.3755   24.1985 N   0  0  0  0  0  0
    1.6586   52.9596   25.1641 C   0  0  0  0  0  0
    0.7022   52.2431   24.8637 O   0  0  0  0  0  0
    1.9037   53.4423   26.3984 N   0  0  0  0  0  0
    1.2219   53.1648   27.6020 C   0  0  0  0  0  0
    0.5638   51.9453   27.8153 C   0  0  0  0  0  0
   -0.0937   51.6893   29.0085 C   0  0  0  0  0  0
   -0.1017   52.6211   30.0347 C   0  0  0  0  0  0
    0.5377   53.8689   29.8659 C   0  0  0  0  0  0
    1.2383   54.1435   28.6489 C   0  0  0  0  0  0
    1.9030   55.3983   28.5369 C   0  0  0  0  0  0
    1.8224   56.3462   29.5488 C   0  0  0  0  0  0
    1.1133   56.0807   30.7074 C   0  0  0  0  0  0
    0.4895   54.8508   30.8825 C   0  0  0  0  0  0
   -2.8137   44.5811   19.8091 H   0  0  0  0  0  0
   -2.9262   46.3432   21.5224 H   0  0  0  0  0  0
   -1.2649   48.1463   21.5796 H   0  0  0  0  0  0
   -1.0255   44.6085   18.1043 H   0  0  0  0  0  0
    0.9674   45.6615   17.1184 H   0  0  0  0  0  0
    2.6923   47.4291   17.1609 H   0  0  0  0  0  0
    2.6829   49.1431   18.8549 H   0  0  0  0  0  0
    0.4864   49.1432   21.7502 H   0  0  0  0  0  0
    1.0121   50.8443   22.7862 H   0  0  0  0  0  0
    1.1365   53.2928   21.0984 H   0  0  0  0  0  0
    0.3237   53.1368   22.6072 H   0  0  0  0  0  0
    6.1487   54.5889   21.8465 H   0  0  0  0  0  0
    7.5036   55.2335   23.8196 H   0  0  0  0  0  0
    6.6109   55.0180   26.0930 H   0  0  0  0  0  0
    4.3635   54.1404   26.5069 H   0  0  0  0  0  0
    2.6399   54.1260   26.4701 H   0  0  0  0  0  0
    0.5547   51.1726   27.0612 H   0  0  0  0  0  0
   -0.5966   50.7476   29.1433 H   0  0  0  0  0  0
   -0.6079   52.3959   30.9654 H   0  0  0  0  0  0
    2.4735   55.6370   27.6557 H   0  0  0  0  0  0
    2.3201   57.2962   29.4412 H   0  0  0  0  0  0
    1.1043   56.8222   31.4944 H   0  0  0  0  0  0
   -0.0425   54.6332   31.8007 H   0  0  0  0  0  0
  1  6  2  0  0  0
  1  2  1  0  0  0
  1 38  1  0  0  0
  2  3  2  0  0  0
  2 39  1  0  0  0
  3  4  1  0  0  0
  3 40  1  0  0  0
  4 10  2  0  0  0
  4  5  1  0  0  0
  5  6  1  0  0  0
  5  7  2  0  0  0
  6 41  1  0  0  0
  7  8  1  0  0  0
  7 42  1  0  0  0
  8  9  2  0  0  0
  8 43  1  0  0  0
  9 10  1  0  0  0
  9 44  1  0  0  0
 10 11  1  0  0  0
 11 12  1  0  0  0
 11 45  1  0  0  0
 12 13  2  0  0  0
 12 14  1  0  0  0
 14 15  1  0  0  0
 14 46  1  0  0  0
 15 16  1  0  0  0
 15 47  1  0  0  0
 15 48  1  0  0  0
 16 24  1  0  0  0
 16 17  2  0  0  0
 17 18  1  0  0  0
 18 23  2  0  0  0
 18 19  1  0  0  0
 19 20  2  0  0  0
 19 49  1  0  0  0
 20 21  1  0  0  0
 20 50  1  0  0  0
 21 22  2  0  0  0
 21 51  1  0  0  0
 22 23  1  0  0  0
 22 52  1  0  0  0
 23 24  1  0  0  0
 24 25  1  0  0  0
 25 26  2  0  0  0
 25 27  1  0  0  0
 27 28  1  0  0  0
 27 53  1  0  0  0
 28 33  2  0  0  0
 28 29  1  0  0  0
 29 30  2  0  0  0
 29 54  1  0  0  0
 30 31  1  0  0  0
 30 55  1  0  0  0
 31 32  2  0  0  0
 31 56  1  0  0  0
 32 37  1  0  0  0
 32 33  1  0  0  0
 33 34  1  0  0  0
 34 35  2  0  0  0
 34 57  1  0  0  0
 35 36  1  0  0  0
 35 58  1  0  0  0
 36 37  2  0  0  0
 36 59  1  0  0  0
 37 60  1  0  0  0
M  END
> <i_i_glide_confnum>
6

> <i_i_glide_lignum>
3530

> <i_i_glide_posenum>
174

> <i_i_glide_rotatable_bonds>
8

> <i_m_Source_File_Index>
4736

> <b_m_subgroup_collapsed>
0

> <r_i_docking_score>
-6.42739

> <r_i_glide_ecoul>
-1.52564

> <r_i_glide_eff_state_penalty>
0

> <r_i_glide_einternal>
3.82797

> <r_i_glide_emodel>
-70.9525

> <r_i_glide_energy>
-50.7297

> <r_i_glide_erotb>
0.603239

> <r_i_glide_esite>
-0.00230102

> <r_i_glide_evdw>
-49.2041

> <r_i_glide_gscore>
-6.42739

> <r_i_glide_hbond>
0

> <r_i_glide_ligand_efficiency>
-0.173713

> <r_i_glide_ligand_efficiency_ln>
-1.39395

> <r_i_glide_ligand_efficiency_sa>
-0.578851

> <r_i_glide_lipo>
-3.41603

> <r_i_glide_metal>
0

> <r_i_glide_rewards>
-0.923243

> <s_i_glide_gridfile>
wee1_glide-grid

> <s_m_Source_File>
wee1_decoys_glide_SP.sdf

> <s_m_Source_Path>
/Users/zhangxujun/Desktop

> <s_m_entry_id>
5011

> <s_m_entry_name>
wee1_decoys_glide_SP.4736

> <s_m_subgroup_title>
wee1_decoys_glide_SP

> <s_m_subgroupid>
wee1_decoys_glide_SP


$$$$
