ZINC04592494_3596
                    3D
 Schrodinger Suite 2024-2.
 41 44  0  0  1  0            999 V2000
    2.9968   54.0804   29.6250 C   0  0  0  0  0  0
    3.1680   53.9930   28.1196 C   0  0  0  0  0  0
    4.4282   54.1678   27.5514 C   0  0  0  0  0  0
    4.5799   54.0972   26.1694 C   0  0  0  0  0  0
    3.4806   53.8485   25.3277 C   0  0  0  0  0  0
    2.2254   53.6969   25.9184 C   0  0  0  0  0  0
    2.0636   53.7630   27.3004 C   0  0  0  0  0  0
    3.6726   53.6966   23.8336 C   0  0  0  0  0  0
    2.7895   53.2193   22.8033 C   0  0  0  0  0  0
    3.6442   53.1094   21.7183 C   0  0  0  0  0  0
    4.8582   53.5932   22.0637 N   0  0  0  0  0  0
    5.6551   53.6694   21.4500 H   0  0  0  0  0  0
    4.8758   53.9697   23.3368 N   0  0  0  0  0  0
    3.4015   52.6144   20.4667 O   0  0  0  0  0  0
    2.1107   52.2448   20.2651 C   0  0  0  0  0  0
    1.1020   52.3137   21.1723 C   0  0  0  0  0  0
    1.3089   52.7834   22.6327 C   0  0  1  0  0  0
    0.7044   53.6809   22.7609 H   0  0  0  0  0  0
    0.7438   51.7480   23.6156 C   0  0  0  0  0  0
   -0.3802   52.0648   24.3956 C   0  0  0  0  0  0
   -0.9254   51.1301   25.2750 C   0  0  0  0  0  0
   -0.3787   49.8521   25.3584 C   0  0  0  0  0  0
    0.7037   49.5099   24.5510 C   0  0  0  0  0  0
    1.2657   50.4480   23.6817 C   0  0  0  0  0  0
    2.3049   50.0856   22.8960 F   0  0  0  0  0  0
   -0.2225   51.9479   20.7812 C   0  0  0  0  0  0
   -1.3115   51.6965   20.4784 N   0  0  0  0  0  0
    2.0280   51.7875   18.9777 N   0  0  0  0  0  0
    3.7027   54.7941   30.0535 H   0  0  0  0  0  0
    1.9964   54.4293   29.8865 H   0  0  0  0  0  0
    3.1652   53.1050   30.0836 H   0  0  0  0  0  0
    5.2913   54.3516   28.1753 H   0  0  0  0  0  0
    5.5734   54.2136   25.7628 H   0  0  0  0  0  0
    1.3560   53.5732   25.3075 H   0  0  0  0  0  0
    1.0783   53.6447   27.7278 H   0  0  0  0  0  0
   -0.8298   53.0455   24.3362 H   0  0  0  0  0  0
   -1.7752   51.3911   25.8889 H   0  0  0  0  0  0
   -0.7989   49.1247   26.0408 H   0  0  0  0  0  0
    1.1017   48.5089   24.6042 H   0  0  0  0  0  0
    1.1428   51.5060   18.5848 H   0  0  0  0  0  0
    2.8637   51.4579   18.5109 H   0  0  0  0  0  0
  1  2  1  0  0  0
  1 29  1  0  0  0
  1 30  1  0  0  0
  1 31  1  0  0  0
  2  7  2  0  0  0
  2  3  1  0  0  0
  3  4  2  0  0  0
  3 32  1  0  0  0
  4  5  1  0  0  0
  4 33  1  0  0  0
  5  6  2  0  0  0
  5  8  1  0  0  0
  6  7  1  0  0  0
  6 34  1  0  0  0
  7 35  1  0  0  0
  8 13  2  0  0  0
  8  9  1  0  0  0
  9 17  1  0  0  0
  9 10  2  0  0  0
 10 11  1  0  0  0
 10 14  1  0  0  0
 11 12  1  0  0  0
 11 13  1  0  0  0
 14 15  1  0  0  0
 15 16  2  0  0  0
 15 28  1  0  0  0
 16 17  1  0  0  0
 16 26  1  0  0  0
 17 18  1  0  0  0
 17 19  1  0  0  0
 19 24  2  0  0  0
 19 20  1  0  0  0
 20 21  2  0  0  0
 20 36  1  0  0  0
 21 22  1  0  0  0
 21 37  1  0  0  0
 22 23  2  0  0  0
 22 38  1  0  0  0
 23 24  1  0  0  0
 23 39  1  0  0  0
 24 25  1  0  0  0
 26 27  3  0  0  0
 28 40  1  0  0  0
 28 41  1  0  0  0
M  END
> <i_i_glide_confnum>
1

> <i_i_glide_lignum>
3597

> <i_i_glide_posenum>
363

> <i_i_glide_rotatable_bonds>
3

> <i_m_Source_File_Index>
5654

> <b_m_subgroup_collapsed>
0

> <r_i_docking_score>
-4.63404

> <r_i_glide_ecoul>
-1.99683

> <r_i_glide_eff_state_penalty>
0

> <r_i_glide_einternal>
1.9846

> <r_i_glide_emodel>
-42.0918

> <r_i_glide_energy>
-33.8114

> <r_i_glide_erotb>
0.316948

> <r_i_glide_esite>
-0.0468064

> <r_i_glide_evdw>
-31.8145

> <r_i_glide_gscore>
-4.63404

> <r_i_glide_hbond>
0

> <r_i_glide_ligand_efficiency>
-0.178232

> <r_i_glide_ligand_efficiency_ln>
-1.08829

> <r_i_glide_ligand_efficiency_sa>
-0.528012

> <r_i_glide_lipo>
-1.96637

> <r_i_glide_metal>
0

> <r_i_glide_rewards>
-1.04756

> <s_i_glide_gridfile>
wee1_glide-grid

> <s_m_Source_File>
wee1_decoys_glide_SP.sdf

> <s_m_Source_Path>
/Users/zhangxujun/Desktop

> <s_m_entry_id>
5929

> <s_m_entry_name>
wee1_decoys_glide_SP.5654

> <s_m_subgroup_title>
wee1_decoys_glide_SP

> <s_m_subgroupid>
wee1_decoys_glide_SP


$$$$
