ZINC65266040_1314
                    3D
 Schrodinger Suite 2024-2.
 61 64  0  0  1  0            999 V2000
    5.3070   54.0965   29.0303 C   0  0  0  0  0  0
    4.9961   54.1785   27.5486 C   0  0  0  0  0  0
    6.0308   54.5067   26.6664 C   0  0  0  0  0  0
    5.7860   54.6127   25.2989 C   0  0  0  0  0  0
    4.4989   54.4079   24.8118 C   0  0  0  0  0  0
    3.4604   54.0970   25.6867 C   0  0  0  0  0  0
    3.6978   53.9421   27.0598 C   0  0  0  0  0  0
    2.3801   53.4155   28.1925 S   0  0  0  0  0  0
    2.1032   54.5631   29.0644 O   0  0  0  0  0  0
    2.8128   52.1477   28.7925 O   0  0  0  0  0  0
    0.9002   53.0790   27.2807 N   0  0  0  0  0  0
   -0.3313   52.7954   28.0444 C   0  0  0  0  0  0
   -0.5324   51.3144   27.7714 C   0  0  0  0  0  0
   -0.1957   51.1571   26.2835 C   0  0  2  0  0  0
    0.9441   52.1908   26.0871 C   0  0  0  0  0  0
   -1.3619   51.5199   25.3515 C   0  0  0  0  0  0
   -1.1675   51.5402   24.0236 N   0  0  0  0  0  0
   -0.0227   51.2151   23.2534 C   0  0  0  0  0  0
    0.2828   52.0094   22.1438 C   0  0  0  0  0  0
    1.3739   51.7014   21.3355 C   0  0  0  0  0  0
    2.1459   50.5784   21.6159 C   0  0  0  0  0  0
    1.8308   49.7742   22.7111 C   0  0  0  0  0  0
    0.7575   50.0866   23.5582 C   0  0  0  0  0  0
    0.3759   49.2039   24.7465 C   0  0  0  0  0  0
    0.2600   49.7830   26.0815 N   0  0  0  0  0  0
   -2.5705   51.8515   25.8315 N   0  3  0  0  0  0
   -3.8104   52.2868   25.1535 C   0  0  0  0  0  0
   -4.6426   53.0795   26.1806 C   0  0  0  0  0  0
   -4.6044   51.0403   24.7144 C   0  0  0  0  0  0
   -3.5614   53.2027   23.9264 C   0  0  0  0  0  0
    4.2554   54.4959   23.4860 F   0  0  0  0  0  0
    6.3429   54.3475   29.2602 H   0  0  0  0  0  0
    4.6745   54.7832   29.5918 H   0  0  0  0  0  0
    5.1046   53.0865   29.3876 H   0  0  0  0  0  0
    7.0291   54.6746   27.0432 H   0  0  0  0  0  0
    6.5865   54.8565   24.6144 H   0  0  0  0  0  0
    2.4801   53.9789   25.2618 H   0  0  0  0  0  0
   -1.1461   53.3717   27.6119 H   0  0  0  0  0  0
   -0.2821   53.1276   29.0829 H   0  0  0  0  0  0
   -1.5192   50.9422   28.0475 H   0  0  0  0  0  0
    0.1709   50.7666   28.4036 H   0  0  0  0  0  0
    1.9007   51.6970   25.9863 H   0  0  0  0  0  0
    0.6703   52.7634   25.2056 H   0  0  0  0  0  0
   -0.3099   52.8802   21.9059 H   0  0  0  0  0  0
    1.6155   52.3272   20.4871 H   0  0  0  0  0  0
    2.9813   50.3235   20.9788 H   0  0  0  0  0  0
    2.4357   48.8968   22.8819 H   0  0  0  0  0  0
   -0.5641   48.7124   24.4939 H   0  0  0  0  0  0
    1.1039   48.3983   24.8309 H   0  0  0  0  0  0
   -0.2878   49.1518   26.6677 H   0  0  0  0  0  0
   -2.6454   51.7848   26.8352 H   0  0  0  0  0  0
   -4.1315   53.9945   26.4860 H   0  0  0  0  0  0
   -5.6095   53.3742   25.7711 H   0  0  0  0  0  0
   -4.8451   52.4957   27.0809 H   0  0  0  0  0  0
   -4.0415   50.4348   24.0022 H   0  0  0  0  0  0
   -4.8465   50.3950   25.5621 H   0  0  0  0  0  0
   -5.5447   51.3139   24.2344 H   0  0  0  0  0  0
   -3.2962   52.6430   23.0305 H   0  0  0  0  0  0
   -4.4625   53.7657   23.6816 H   0  0  0  0  0  0
   -2.7771   53.9399   24.0855 H   0  0  0  0  0  0
   -1.9116   51.9548   23.4832 H   0  0  0  0  0  0
  1  2  1  0  0  0
  1 32  1  0  0  0
  1 33  1  0  0  0
  1 34  1  0  0  0
  2  7  2  0  0  0
  2  3  1  0  0  0
  3  4  2  0  0  0
  3 35  1  0  0  0
  4  5  1  0  0  0
  4 36  1  0  0  0
  5  6  2  0  0  0
  5 31  1  0  0  0
  6  7  1  0  0  0
  6 37  1  0  0  0
  7  8  1  0  0  0
  8  9  2  0  0  0
  8 10  2  0  0  0
  8 11  1  0  0  0
 11 15  1  0  0  0
 11 12  1  0  0  0
 12 13  1  0  0  0
 12 38  1  0  0  0
 12 39  1  0  0  0
 13 14  1  0  0  0
 13 40  1  0  0  0
 13 41  1  0  0  0
 14 25  1  0  0  0
 14 15  1  0  0  0
 14 16  1  0  0  0
 15 42  1  0  0  0
 15 43  1  0  0  0
 16 17  1  0  0  0
 16 26  2  0  0  0
 17 18  1  0  0  0
 17 61  1  0  0  0
 18 23  2  0  0  0
 18 19  1  0  0  0
 19 20  2  0  0  0
 19 44  1  0  0  0
 20 21  1  0  0  0
 20 45  1  0  0  0
 21 22  2  0  0  0
 21 46  1  0  0  0
 22 23  1  0  0  0
 22 47  1  0  0  0
 23 24  1  0  0  0
 24 25  1  0  0  0
 24 48  1  0  0  0
 24 49  1  0  0  0
 25 50  1  0  0  0
 26 27  1  0  0  0
 26 51  1  0  0  0
 27 28  1  0  0  0
 27 29  1  0  0  0
 27 30  1  0  0  0
 28 52  1  0  0  0
 28 53  1  0  0  0
 28 54  1  0  0  0
 29 55  1  0  0  0
 29 56  1  0  0  0
 29 57  1  0  0  0
 30 58  1  0  0  0
 30 59  1  0  0  0
 30 60  1  0  0  0
M  CHG  1  26   1
M  END
> <i_i_glide_confnum>
155

> <i_i_glide_lignum>
1315

> <i_i_glide_posenum>
43

> <i_i_glide_rotatable_bonds>
3

> <i_m_Source_File_Index>
5862

> <b_m_subgroup_collapsed>
0

> <r_i_docking_score>
-1.65415

> <r_i_glide_ecoul>
-3.66367

> <r_i_glide_eff_state_penalty>
0

> <r_i_glide_einternal>
8.18371

> <r_i_glide_emodel>
-29.2596

> <r_i_glide_energy>
-40.5244

> <r_i_glide_erotb>
0.302352

> <r_i_glide_esite>
-0.0293445

> <r_i_glide_evdw>
-36.8607

> <r_i_glide_gscore>
-1.65415

> <r_i_glide_hbond>
-0.0867658

> <r_i_glide_ligand_efficiency>
-0.0533598

> <r_i_glide_ligand_efficiency_ln>
-0.373062

> <r_i_glide_ligand_efficiency_sa>
-0.167623

> <r_i_glide_lipo>
-2.44333

> <r_i_glide_metal>
0

> <r_i_glide_rewards>
2.99552

> <s_i_glide_gridfile>
wee1_glide-grid

> <s_m_Source_File>
wee1_decoys_glide_SP.sdf

> <s_m_Source_Path>
/Users/zhangxujun/Desktop

> <s_m_entry_id>
6137

> <s_m_entry_name>
wee1_decoys_glide_SP.5862

> <s_m_subgroup_title>
wee1_decoys_glide_SP

> <s_m_subgroupid>
wee1_decoys_glide_SP


$$$$
