ZINC12412585_470
                    3D
 Schrodinger Suite 2024-2.
 55 59  0  0  1  0            999 V2000
    6.7319   55.1143   24.8642 C   0  0  0  0  0  0
    5.4104   54.5257   24.3648 C   0  0  0  0  0  0
    5.5027   53.8383   22.6795 S   0  0  0  0  0  0
    3.8169   53.3692   22.4806 C   0  0  0  0  0  0
    2.7845   53.9764   23.0216 N   0  0  0  0  0  0
    1.5797   53.3407   22.7605 N   0  0  0  0  0  0
    1.7382   52.2483   22.0495 C   0  0  0  0  0  0
    3.3818   51.9637   21.5542 S   0  0  0  0  0  0
    0.7305   51.3581   21.7001 N   0  0  0  0  0  0
    0.3698   50.3463   22.6133 C   0  0  0  0  0  0
   -0.5580   49.3917   22.2806 C   0  0  0  0  0  0
   -0.9688   48.3515   23.2834 C   0  0  0  0  0  0
   -1.5643   47.3225   22.9662 O   0  0  0  0  0  0
   -0.4561   48.4960   24.7246 C   0  0  0  0  0  0
   -0.0734   49.9401   25.1100 C   0  0  0  0  0  0
    0.9524   50.4168   24.0500 C   0  0  0  0  0  0
    0.6259   49.8903   26.4823 C   0  0  0  0  0  0
   -1.3261   50.8587   25.1384 C   0  0  0  0  0  0
   -1.1905   49.3328   20.8442 C   0  0  1  0  0  0
   -0.9505   48.0427   20.1014 C   0  0  0  0  0  0
    0.2309   47.4261   19.6780 C   0  0  0  0  0  0
    0.1612   46.2245   18.9676 C   0  0  0  0  0  0
   -1.0798   45.6437   18.6874 C   0  0  0  0  0  0
   -2.2583   46.2637   19.1101 C   0  0  0  0  0  0
   -2.1734   47.4645   19.8113 C   0  0  0  0  0  0
   -3.1922   48.2654   20.3088 N   0  0  0  0  0  0
   -2.7418   49.3713   20.9297 C   0  0  0  0  0  0
   -3.4239   50.2519   21.4566 O   0  0  0  0  0  0
   -0.7470   50.5374   19.9902 C   0  0  0  0  0  0
    0.1535   51.4417   20.4258 C   0  0  0  0  0  0
    0.5507   52.4966   19.6248 N   0  0  0  0  0  0
   -1.2902   50.6788   18.6683 C   0  0  0  0  0  0
   -1.7451   50.8225   17.6146 N   0  0  0  0  0  0
    6.6283   55.5170   25.8733 H   0  0  0  0  0  0
    7.0775   55.9210   24.2153 H   0  0  0  0  0  0
    7.5057   54.3468   24.8844 H   0  0  0  0  0  0
    5.0874   53.7314   25.0410 H   0  0  0  0  0  0
    4.6404   55.2956   24.4060 H   0  0  0  0  0  0
    0.4420   47.8797   24.7757 H   0  0  0  0  0  0
   -1.1744   48.0589   25.4187 H   0  0  0  0  0  0
    1.8863   49.8524   24.0712 H   0  0  0  0  0  0
    1.1532   51.4373   24.3692 H   0  0  0  0  0  0
   -0.0954   49.6968   27.2781 H   0  0  0  0  0  0
    1.3872   49.1098   26.5301 H   0  0  0  0  0  0
    1.1036   50.8401   26.7267 H   0  0  0  0  0  0
   -2.0538   50.4990   25.8678 H   0  0  0  0  0  0
   -1.0588   51.8751   25.4315 H   0  0  0  0  0  0
   -1.8393   50.9259   24.1781 H   0  0  0  0  0  0
    1.1912   47.8748   19.8848 H   0  0  0  0  0  0
    1.0709   45.7475   18.6295 H   0  0  0  0  0  0
   -1.1261   44.7182   18.1313 H   0  0  0  0  0  0
   -3.2135   45.8154   18.8827 H   0  0  0  0  0  0
   -4.1752   48.0566   20.2260 H   0  0  0  0  0  0
    0.2457   52.5645   18.6652 H   0  0  0  0  0  0
    1.1488   53.2348   19.9769 H   0  0  0  0  0  0
  1  2  1  0  0  0
  1 34  1  0  0  0
  1 35  1  0  0  0
  1 36  1  0  0  0
  2  3  1  0  0  0
  2 37  1  0  0  0
  2 38  1  0  0  0
  3  4  1  0  0  0
  4  8  1  0  0  0
  4  5  2  0  0  0
  5  6  1  0  0  0
  6  7  2  0  0  0
  7  8  1  0  0  0
  7  9  1  0  0  0
  9 30  1  0  0  0
  9 10  1  0  0  0
 10 16  1  0  0  0
 10 11  2  0  0  0
 11 12  1  0  0  0
 11 19  1  0  0  0
 12 13  2  0  0  0
 12 14  1  0  0  0
 14 15  1  0  0  0
 14 39  1  0  0  0
 14 40  1  0  0  0
 15 16  1  0  0  0
 15 17  1  0  0  0
 15 18  1  0  0  0
 16 41  1  0  0  0
 16 42  1  0  0  0
 17 43  1  0  0  0
 17 44  1  0  0  0
 17 45  1  0  0  0
 18 46  1  0  0  0
 18 47  1  0  0  0
 18 48  1  0  0  0
 19 27  1  0  0  0
 19 20  1  0  0  0
 19 29  1  0  0  0
 20 25  2  0  0  0
 20 21  1  0  0  0
 21 22  2  0  0  0
 21 49  1  0  0  0
 22 23  1  0  0  0
 22 50  1  0  0  0
 23 24  2  0  0  0
 23 51  1  0  0  0
 24 25  1  0  0  0
 24 52  1  0  0  0
 25 26  1  0  0  0
 26 27  1  0  0  0
 26 53  1  0  0  0
 27 28  2  0  0  0
 29 30  2  0  0  0
 29 32  1  0  0  0
 30 31  1  0  0  0
 31 54  1  0  0  0
 31 55  1  0  0  0
 32 33  3  0  0  0
M  END
> <i_i_glide_confnum>
12

> <i_i_glide_lignum>
471

> <i_i_glide_posenum>
273

> <i_i_glide_rotatable_bonds>
4

> <i_m_Source_File_Index>
3891

> <b_m_subgroup_collapsed>
0

> <r_i_docking_score>
-3.74122

> <r_i_glide_ecoul>
-4.02523

> <r_i_glide_eff_state_penalty>
0

> <r_i_glide_einternal>
4.49431

> <r_i_glide_emodel>
-44.6877

> <r_i_glide_energy>
-38.0406

> <r_i_glide_erotb>
0.176953

> <r_i_glide_esite>
-0.0412557

> <r_i_glide_evdw>
-34.0154

> <r_i_glide_gscore>
-3.74122

> <r_i_glide_hbond>
-0.2777

> <r_i_glide_ligand_efficiency>
-0.11337

> <r_i_glide_ligand_efficiency_ln>
-0.832027

> <r_i_glide_ligand_efficiency_sa>
-0.363639

> <r_i_glide_lipo>
-1.06847

> <r_i_glide_metal>
0

> <r_i_glide_rewards>
-0.226188

> <s_i_glide_gridfile>
wee1_glide-grid

> <s_m_Source_File>
wee1_decoys_glide_SP.sdf

> <s_m_Source_Path>
/Users/zhangxujun/Desktop

> <s_m_entry_id>
4166

> <s_m_entry_name>
wee1_decoys_glide_SP.3891

> <s_m_subgroup_title>
wee1_decoys_glide_SP

> <s_m_subgroupid>
wee1_decoys_glide_SP


$$$$
