ZINC40401149_5816
                    3D
 Schrodinger Suite 2024-2.
 60 63  0  0  1  0            999 V2000
    1.0959   51.3744   18.7774 C   0  0  0  0  0  0
    1.3320   51.8879   20.1974 C   0  0  0  0  0  0
    0.4179   51.9818   21.2154 C   0  0  0  0  0  0
    0.8852   52.4535   22.6372 C   0  0  2  0  0  0
    0.3069   53.3431   22.8821 H   0  0  0  0  0  0
    2.3049   52.9209   22.5937 N   0  0  0  0  0  0
    2.9798   53.5909   23.6086 C   0  0  0  0  0  0
    4.2576   53.8539   23.2821 C   0  0  0  0  0  0
    4.7068   53.2868   21.6819 S   0  0  0  0  0  0
    3.0514   52.7082   21.4377 C   0  0  0  0  0  0
    2.6526   52.1954   20.3436 N   0  0  0  0  0  0
    2.4117   53.8996   24.9103 C   0  0  0  0  0  0
    3.0382   53.8883   26.1027 C   0  0  0  0  0  0
    4.2700   53.6967   26.4165 O   0  5  0  0  0  0
    2.2999   54.0968   27.2388 N   0  0  0  0  0  0
    2.1515   53.1091   28.3025 C   0  0  0  0  0  0
    1.0828   53.4983   29.3382 C   0  0  1  0  0  0
    0.1237   53.5742   28.8205 H   0  0  0  0  0  0
    0.9994   52.5817   30.5568 C   0  0  0  0  0  0
    0.5206   53.4814   31.6787 C   0  0  0  0  0  0
    0.6485   54.8947   31.1139 C   0  0  0  0  0  0
    1.4028   54.7604   29.9158 O   0  0  0  0  0  0
    0.6015   51.4485   23.7702 C   0  0  0  0  0  0
   -0.1190   51.8667   24.9000 C   0  0  0  0  0  0
   -0.4930   50.9568   25.8870 C   0  0  0  0  0  0
   -0.1858   49.6088   25.7345 C   0  0  0  0  0  0
    0.5078   49.1774   24.6090 C   0  0  0  0  0  0
    0.9276   50.0901   23.6410 C   0  0  0  0  0  0
    1.6039   49.6391   22.5593 F   0  0  0  0  0  0
   -1.0274   51.6943   21.0161 C   0  0  0  0  0  0
   -1.5736   51.6210   19.9124 O   0  0  0  0  0  0
   -1.7147   51.5529   22.1734 O   0  0  0  0  0  0
   -3.0239   50.9969   22.2290 C   0  0  0  0  0  0
   -2.9328   49.4608   22.2649 C   0  0  0  0  0  0
   -3.6969   51.5591   23.4883 C   0  0  0  0  0  0
    0.7930   52.2007   18.1327 H   0  0  0  0  0  0
    1.9932   50.9228   18.3431 H   0  0  0  0  0  0
    0.3301   50.6005   18.7416 H   0  0  0  0  0  0
    4.9868   54.3368   23.9155 H   0  0  0  0  0  0
    1.3629   54.1460   24.9115 H   0  0  0  0  0  0
    1.4001   54.5049   27.0441 H   0  0  0  0  0  0
    3.1186   52.9181   28.7697 H   0  0  0  0  0  0
    1.8437   52.1704   27.8378 H   0  0  0  0  0  0
    1.9878   52.1857   30.7944 H   0  0  0  0  0  0
    0.3718   51.7086   30.3723 H   0  0  0  0  0  0
    1.1039   53.3197   32.5845 H   0  0  0  0  0  0
   -0.5181   53.2939   31.9360 H   0  0  0  0  0  0
    1.1037   55.6206   31.7862 H   0  0  0  0  0  0
   -0.3306   55.2967   30.8683 H   0  0  0  0  0  0
   -0.4200   52.8971   25.0084 H   0  0  0  0  0  0
   -1.0464   51.2860   26.7547 H   0  0  0  0  0  0
   -0.4950   48.8923   26.4819 H   0  0  0  0  0  0
    0.7048   48.1235   24.4901 H   0  0  0  0  0  0
   -3.6049   51.2966   21.3562 H   0  0  0  0  0  0
   -3.9233   49.0101   22.3314 H   0  0  0  0  0  0
   -2.4561   49.0728   21.3642 H   0  0  0  0  0  0
   -2.3505   49.1185   23.1217 H   0  0  0  0  0  0
   -4.7311   51.2215   23.5655 H   0  0  0  0  0  0
   -3.1747   51.2439   24.3936 H   0  0  0  0  0  0
   -3.7035   52.6497   23.4765 H   0  0  0  0  0  0
  1  2  1  0  0  0
  1 36  1  0  0  0
  1 37  1  0  0  0
  1 38  1  0  0  0
  2 11  1  0  0  0
  2  3  2  0  0  0
  3  4  1  0  0  0
  3 30  1  0  0  0
  4  5  1  0  0  0
  4  6  1  0  0  0
  4 23  1  0  0  0
  6 10  1  0  0  0
  6  7  1  0  0  0
  7  8  2  0  0  0
  7 12  1  0  0  0
  8  9  1  0  0  0
  8 39  1  0  0  0
  9 10  1  0  0  0
 10 11  2  0  0  0
 12 13  2  0  0  0
 12 40  1  0  0  0
 13 14  1  0  0  0
 13 15  1  0  0  0
 15 16  1  0  0  0
 15 41  1  0  0  0
 16 17  1  0  0  0
 16 42  1  0  0  0
 16 43  1  0  0  0
 17 18  1  0  0  0
 17 22  1  0  0  0
 17 19  1  0  0  0
 19 20  1  0  0  0
 19 44  1  0  0  0
 19 45  1  0  0  0
 20 21  1  0  0  0
 20 46  1  0  0  0
 20 47  1  0  0  0
 21 22  1  0  0  0
 21 48  1  0  0  0
 21 49  1  0  0  0
 23 28  2  0  0  0
 23 24  1  0  0  0
 24 25  2  0  0  0
 24 50  1  0  0  0
 25 26  1  0  0  0
 25 51  1  0  0  0
 26 27  2  0  0  0
 26 52  1  0  0  0
 27 28  1  0  0  0
 27 53  1  0  0  0
 28 29  1  0  0  0
 30 31  2  0  0  0
 30 32  1  0  0  0
 32 33  1  0  0  0
 33 34  1  0  0  0
 33 35  1  0  0  0
 33 54  1  0  0  0
 34 55  1  0  0  0
 34 56  1  0  0  0
 34 57  1  0  0  0
 35 58  1  0  0  0
 35 59  1  0  0  0
 35 60  1  0  0  0
M  CHG  1  14  -1
M  END
> <i_i_glide_confnum>
70

> <i_i_glide_lignum>
5817

> <i_i_glide_posenum>
81

> <i_i_glide_rotatable_bonds>
8

> <i_m_Source_File_Index>
3531

> <b_m_subgroup_collapsed>
0

> <r_i_docking_score>
-4.10653

> <r_i_glide_ecoul>
-1.57683

> <r_i_glide_eff_state_penalty>
0

> <r_i_glide_einternal>
9.81681

> <r_i_glide_emodel>
-45.5312

> <r_i_glide_energy>
-40.4728

> <r_i_glide_erotb>
0.543314

> <r_i_glide_esite>
-0.0160571

> <r_i_glide_evdw>
-38.896

> <r_i_glide_gscore>
-4.10653

> <r_i_glide_hbond>
0

> <r_i_glide_ligand_efficiency>
-0.12444

> <r_i_glide_ligand_efficiency_ln>
-0.913272

> <r_i_glide_ligand_efficiency_sa>
-0.399147

> <r_i_glide_lipo>
-1.97842

> <r_i_glide_metal>
0

> <r_i_glide_rewards>
-0.474049

> <s_i_glide_gridfile>
wee1_glide-grid

> <s_m_Source_File>
wee1_decoys_glide_SP.sdf

> <s_m_Source_Path>
/Users/zhangxujun/Desktop

> <s_m_entry_id>
3806

> <s_m_entry_name>
wee1_decoys_glide_SP.3531

> <s_m_subgroup_title>
wee1_decoys_glide_SP

> <s_m_subgroupid>
wee1_decoys_glide_SP


$$$$
