ZINC13117771_2805
                    3D
 Schrodinger Suite 2024-2.
 49 53  0  0  1  0            999 V2000
    1.5845   52.1276   12.4064 C   0  0  0  0  0  0
    1.9319   53.1358   13.3127 C   0  0  0  0  0  0
    2.4567   52.6485   14.5144 C   0  0  0  0  0  0
    2.5478   50.9001   14.4797 S   0  0  0  0  0  0
    1.8560   50.8564   12.8896 C   0  0  0  0  0  0
    2.9207   53.4443   15.6300 C   0  0  0  0  0  0
    2.9606   54.6719   15.5351 O   0  0  0  0  0  0
    3.2546   52.7537   16.7419 N   0  0  0  0  0  0
    3.7508   53.2570   17.9575 C   0  0  0  0  0  0
    3.5043   52.4972   19.1004 C   0  0  0  0  0  0
    4.0103   52.8980   20.3344 C   0  0  0  0  0  0
    4.7855   54.0642   20.4422 C   0  0  0  0  0  0
    5.0363   54.8172   19.2858 C   0  0  0  0  0  0
    4.5272   54.4215   18.0526 C   0  0  0  0  0  0
    5.3847   54.4965   21.7601 C   0  0  0  0  0  0
    6.3896   55.2146   21.7685 O   0  0  0  0  0  0
    4.7111   54.1089   22.8685 N   0  0  0  0  0  0
    5.0593   54.3299   24.1998 C   0  0  0  0  0  0
    4.2367   54.0161   25.1688 N   0  0  0  0  0  0
    4.7716   54.1581   26.3729 C   0  0  0  0  0  0
    6.0583   54.7048   26.3718 C   0  0  0  0  0  0
    6.5962   54.9540   24.7415 S   0  0  0  0  0  0
    4.0280   53.6885   27.5831 C   0  0  0  0  0  0
    4.7546   53.1047   28.6292 C   0  0  0  0  0  0
    4.1082   52.5774   29.7478 C   0  0  0  0  0  0
    2.7245   52.6631   29.8446 C   0  0  0  0  0  0
    1.9803   53.2356   28.8006 C   0  0  0  0  0  0
    2.6299   53.7514   27.6769 C   0  0  0  0  0  0
    0.6055   53.3551   28.8678 O   0  0  0  0  0  0
   -0.0047   52.4679   29.8139 C   0  0  0  0  0  0
    0.7690   52.4974   31.1555 C   0  0  0  0  0  0
    2.1311   52.1009   30.9565 O   0  0  0  0  0  0
    1.1568   52.3183   11.4315 H   0  0  0  0  0  0
    1.8033   54.1878   13.1001 H   0  0  0  0  0  0
    1.6937   49.9099   12.3952 H   0  0  0  0  0  0
    3.1271   51.7515   16.7126 H   0  0  0  0  0  0
    2.9358   51.5797   19.0347 H   0  0  0  0  0  0
    3.8184   52.2711   21.1935 H   0  0  0  0  0  0
    5.6426   55.7126   19.3287 H   0  0  0  0  0  0
    4.7638   55.0055   17.1777 H   0  0  0  0  0  0
    3.8128   53.6803   22.7156 H   0  0  0  0  0  0
    6.6947   54.9253   27.2172 H   0  0  0  0  0  0
    5.8287   53.0157   28.5622 H   0  0  0  0  0  0
    4.6795   52.0969   30.5290 H   0  0  0  0  0  0
    2.0447   54.1863   26.8804 H   0  0  0  0  0  0
    0.0031   51.4496   29.4171 H   0  0  0  0  0  0
   -1.0424   52.7526   29.9708 H   0  0  0  0  0  0
    0.3047   51.8344   31.8857 H   0  0  0  0  0  0
    0.7372   53.5120   31.5636 H   0  0  0  0  0  0
  1  5  2  0  0  0
  1  2  1  0  0  0
  1 33  1  0  0  0
  2  3  2  0  0  0
  2 34  1  0  0  0
  3  4  1  0  0  0
  3  6  1  0  0  0
  4  5  1  0  0  0
  5 35  1  0  0  0
  6  7  2  0  0  0
  6  8  1  0  0  0
  8  9  1  0  0  0
  8 36  1  0  0  0
  9 14  2  0  0  0
  9 10  1  0  0  0
 10 11  2  0  0  0
 10 37  1  0  0  0
 11 12  1  0  0  0
 11 38  1  0  0  0
 12 13  2  0  0  0
 12 15  1  0  0  0
 13 14  1  0  0  0
 13 39  1  0  0  0
 14 40  1  0  0  0
 15 16  2  0  0  0
 15 17  1  0  0  0
 17 18  1  0  0  0
 17 41  1  0  0  0
 18 22  1  0  0  0
 18 19  2  0  0  0
 19 20  1  0  0  0
 20 21  2  0  0  0
 20 23  1  0  0  0
 21 22  1  0  0  0
 21 42  1  0  0  0
 23 28  2  0  0  0
 23 24  1  0  0  0
 24 25  2  0  0  0
 24 43  1  0  0  0
 25 26  1  0  0  0
 25 44  1  0  0  0
 26 32  1  0  0  0
 26 27  2  0  0  0
 27 28  1  0  0  0
 27 29  1  0  0  0
 28 45  1  0  0  0
 29 30  1  0  0  0
 30 31  1  0  0  0
 30 46  1  0  0  0
 30 47  1  0  0  0
 31 32  1  0  0  0
 31 48  1  0  0  0
 31 49  1  0  0  0
M  END
> <i_i_glide_confnum>
98

> <i_i_glide_lignum>
2806

> <i_i_glide_posenum>
345

> <i_i_glide_rotatable_bonds>
7

> <i_m_Source_File_Index>
2215

> <b_m_subgroup_collapsed>
0

> <r_i_docking_score>
-5.34329

> <r_i_glide_ecoul>
-3.07483

> <r_i_glide_eff_state_penalty>
0

> <r_i_glide_einternal>
8.42607

> <r_i_glide_emodel>
-62.2814

> <r_i_glide_energy>
-48.7575

> <r_i_glide_erotb>
0.65655

> <r_i_glide_esite>
-0.0538279

> <r_i_glide_evdw>
-45.6827

> <r_i_glide_gscore>
-5.34329

> <r_i_glide_hbond>
-0.283104

> <r_i_glide_ligand_efficiency>
-0.166978

> <r_i_glide_ligand_efficiency_ln>
-1.19651

> <r_i_glide_ligand_efficiency_sa>
-0.530122

> <r_i_glide_lipo>
-2.35563

> <r_i_glide_metal>
0

> <r_i_glide_rewards>
-0.561924

> <s_i_glide_gridfile>
wee1_glide-grid

> <s_m_Source_File>
wee1_decoys_glide_SP.sdf

> <s_m_Source_Path>
/Users/zhangxujun/Desktop

> <s_m_entry_id>
2490

> <s_m_entry_name>
wee1_decoys_glide_SP.2215

> <s_m_subgroup_title>
wee1_decoys_glide_SP

> <s_m_subgroupid>
wee1_decoys_glide_SP


$$$$
