ZINC16567619_5586
                    3D
 Schrodinger Suite 2024-2.
 54 57  0  0  1  0            999 V2000
    4.9001   56.4103   18.1938 C   0  0  0  0  0  0
    5.1539   55.0121   18.7931 C   0  0  2  0  0  0
    4.1855   54.5119   18.8802 H   0  0  0  0  0  0
    5.7922   55.1140   20.1774 C   0  0  0  0  0  0
    6.7703   55.9326   20.4854 N   0  0  0  0  0  0
    7.1005   55.6993   21.8112 N   0  0  0  0  0  0
    6.3044   54.7654   22.2643 C   0  0  0  0  0  0
    5.4595   54.3172   21.2596 N   0  0  0  0  0  0
    4.4509   53.3299   21.3186 C   0  0  0  0  0  0
    3.3617   53.4761   22.1779 C   0  0  0  0  0  0
    2.3864   52.4858   22.2397 C   0  0  0  0  0  0
    2.4758   51.3449   21.4300 C   0  0  0  0  0  0
    3.5461   51.2356   20.5321 C   0  0  0  0  0  0
    4.5338   52.2140   20.4829 C   0  0  0  0  0  0
    1.4512   50.2749   21.5178 N   0  3  0  0  0  0
    0.4791   50.4544   22.2480 O   0  0  0  0  0  0
    1.6125   49.2474   20.8648 O   0  5  0  0  0  0
    6.4728   54.0968   23.8873 S   0  0  0  0  0  0
    5.3440   55.1910   24.7771 C   0  0  0  0  0  0
    4.9829   54.6563   26.1506 C   0  0  0  0  0  0
    3.7210   54.0967   26.3752 C   0  0  0  0  0  0
    3.3634   53.6802   27.6557 C   0  0  0  0  0  0
    4.2642   53.8272   28.7077 C   0  0  0  0  0  0
    5.5275   54.3681   28.4810 C   0  0  0  0  0  0
    5.8923   54.7763   27.2029 C   0  0  0  0  0  0
    3.9049   53.4523   29.9568 F   0  0  0  0  0  0
    6.0204   54.1859   17.9468 N   0  0  0  0  0  0
    5.7326   53.7416   16.7073 C   0  0  0  0  0  0
    4.6747   54.0164   16.1380 O   0  0  0  0  0  0
    6.7862   52.8932   16.0199 C   0  0  0  0  0  0
    7.9703   52.5057   16.6717 C   0  0  0  0  0  0
    8.9092   51.7070   16.0253 C   0  0  0  0  0  0
    8.6810   51.2952   14.7161 C   0  0  0  0  0  0
    7.5201   51.6764   14.0492 C   0  0  0  0  0  0
    6.5773   52.4679   14.6992 C   0  0  0  0  0  0
    9.8319   50.2845   13.9218 Cl  0  0  0  0  0  0
    4.3044   57.0099   18.8778 H   0  0  0  0  0  0
    5.8314   56.9469   18.0085 H   0  0  0  0  0  0
    4.3552   56.3567   17.2515 H   0  0  0  0  0  0
    3.2436   54.3584   22.7807 H   0  0  0  0  0  0
    1.5592   52.6113   22.9233 H   0  0  0  0  0  0
    3.6249   50.3892   19.8628 H   0  0  0  0  0  0
    5.3488   52.0968   19.7815 H   0  0  0  0  0  0
    5.7962   56.1789   24.8737 H   0  0  0  0  0  0
    4.4356   55.2968   24.1975 H   0  0  0  0  0  0
    3.0118   53.9923   25.5673 H   0  0  0  0  0  0
    2.3881   53.2550   27.8360 H   0  0  0  0  0  0
    6.2272   54.4947   29.2905 H   0  0  0  0  0  0
    6.8679   55.2119   27.0443 H   0  0  0  0  0  0
    6.8201   53.7814   18.4050 H   0  0  0  0  0  0
    8.1870   52.8091   17.6822 H   0  0  0  0  0  0
    9.8089   51.4067   16.5428 H   0  0  0  0  0  0
    7.3436   51.3501   13.0347 H   0  0  0  0  0  0
    5.6760   52.7427   14.1672 H   0  0  0  0  0  0
  1  2  1  0  0  0
  1 37  1  0  0  0
  1 38  1  0  0  0
  1 39  1  0  0  0
  2  3  1  0  0  0
  2  4  1  0  0  0
  2 27  1  0  0  0
  4  8  1  0  0  0
  4  5  2  0  0  0
  5  6  1  0  0  0
  6  7  2  0  0  0
  7  8  1  0  0  0
  7 18  1  0  0  0
  8  9  1  0  0  0
  9 14  2  0  0  0
  9 10  1  0  0  0
 10 11  2  0  0  0
 10 40  1  0  0  0
 11 12  1  0  0  0
 11 41  1  0  0  0
 12 13  2  0  0  0
 12 15  1  0  0  0
 13 14  1  0  0  0
 13 42  1  0  0  0
 14 43  1  0  0  0
 15 16  2  0  0  0
 15 17  1  0  0  0
 18 19  1  0  0  0
 19 20  1  0  0  0
 19 44  1  0  0  0
 19 45  1  0  0  0
 20 25  2  0  0  0
 20 21  1  0  0  0
 21 22  2  0  0  0
 21 46  1  0  0  0
 22 23  1  0  0  0
 22 47  1  0  0  0
 23 24  2  0  0  0
 23 26  1  0  0  0
 24 25  1  0  0  0
 24 48  1  0  0  0
 25 49  1  0  0  0
 27 28  1  0  0  0
 27 50  1  0  0  0
 28 29  2  0  0  0
 28 30  1  0  0  0
 30 35  2  0  0  0
 30 31  1  0  0  0
 31 32  2  0  0  0
 31 51  1  0  0  0
 32 33  1  0  0  0
 32 52  1  0  0  0
 33 34  2  0  0  0
 33 36  1  0  0  0
 34 35  1  0  0  0
 34 53  1  0  0  0
 35 54  1  0  0  0
M  CHG  2  15   1  17  -1
M  END
> <i_i_glide_confnum>
17

> <i_i_glide_lignum>
5587

> <i_i_glide_posenum>
148

> <i_i_glide_rotatable_bonds>
9

> <i_m_Source_File_Index>
861

> <b_m_subgroup_collapsed>
0

> <r_i_docking_score>
-5.75803

> <r_i_glide_ecoul>
-1.19371

> <r_i_glide_eff_state_penalty>
0

> <r_i_glide_einternal>
5.28813

> <r_i_glide_emodel>
-65.3746

> <r_i_glide_energy>
-49.8055

> <r_i_glide_erotb>
0.547407

> <r_i_glide_esite>
-0.0377872

> <r_i_glide_evdw>
-48.6118

> <r_i_glide_gscore>
-5.75803

> <r_i_glide_hbond>
0

> <r_i_glide_ligand_efficiency>
-0.164515

> <r_i_glide_ligand_efficiency_ln>
-1.26402

> <r_i_glide_ligand_efficiency_sa>
-0.53814

> <r_i_glide_lipo>
-2.73543

> <r_i_glide_metal>
0

> <r_i_glide_rewards>
-0.922578

> <s_i_glide_gridfile>
wee1_glide-grid

> <s_m_Source_File>
wee1_decoys_glide_SP.sdf

> <s_m_Source_Path>
/Users/zhangxujun/Desktop

> <s_m_entry_id>
1136

> <s_m_entry_name>
wee1_decoys_glide_SP.861

> <s_m_subgroup_title>
wee1_decoys_glide_SP

> <s_m_subgroupid>
wee1_decoys_glide_SP


$$$$
