ZINC01423957_1451
                    3D
 Schrodinger Suite 2024-2.
 46 49  0  0  1  0            999 V2000
    6.4148   54.6188   27.6040 C   0  0  0  0  0  0
    6.4356   53.9773   26.3394 O   0  0  0  0  0  0
    6.3743   54.6987   25.2068 C   0  0  0  0  0  0
    6.3050   55.9265   25.1378 O   0  0  0  0  0  0
    6.4611   53.8028   23.9702 C   0  0  0  0  0  0
    6.3020   54.4844   22.6282 C   0  0  0  0  0  0
    5.4904   54.1925   21.5358 C   0  0  0  0  0  0
    5.8703   55.1438   20.5753 C   0  0  0  0  0  0
    6.8364   55.9404   20.9610 N   0  0  0  0  0  0
    7.1037   55.5155   22.2002 N   0  0  0  0  0  0
    7.8429   55.9181   22.7600 H   0  0  0  0  0  0
    5.3344   55.2616   19.3171 O   0  0  0  0  0  0
    4.3855   54.3356   19.0064 C   0  0  0  0  0  0
    3.9030   53.3606   19.8164 C   0  0  0  0  0  0
    4.3893   53.1530   21.2638 C   0  0  2  0  0  0
    4.8517   52.1639   21.3055 H   0  0  0  0  0  0
    3.2506   53.0774   22.2960 C   0  0  0  0  0  0
    2.4671   51.9187   22.4193 C   0  0  0  0  0  0
    1.4510   51.8312   23.3844 C   0  0  0  0  0  0
    1.2462   52.9587   24.1901 C   0  0  0  0  0  0
    1.9706   54.0983   24.0837 N   0  0  0  0  0  0
    2.9514   54.1396   23.1507 C   0  0  0  0  0  0
    0.6318   50.5972   23.5654 C   0  0  0  0  0  0
    0.1688   49.8834   22.4532 C   0  0  0  0  0  0
   -0.5926   48.7308   22.6201 C   0  0  0  0  0  0
   -0.8820   48.2699   23.9007 C   0  0  0  0  0  0
   -0.4330   48.9664   25.0191 C   0  0  0  0  0  0
    0.3146   50.1272   24.8474 C   0  0  0  0  0  0
   -1.5984   47.1341   24.0582 F   0  0  0  0  0  0
    2.8752   52.4939   19.3310 C   0  0  0  0  0  0
    2.0116   51.8135   18.9704 N   0  0  0  0  0  0
    3.9750   54.5928   17.7284 N   0  0  0  0  0  0
    6.5069   53.8784   28.3995 H   0  0  0  0  0  0
    7.2536   55.3097   27.6811 H   0  0  0  0  0  0
    5.4895   55.1747   27.7541 H   0  0  0  0  0  0
    5.7021   53.0286   24.0774 H   0  0  0  0  0  0
    7.4257   53.2971   24.0126 H   0  0  0  0  0  0
    2.6703   51.0711   21.7816 H   0  0  0  0  0  0
    0.4759   52.9665   24.9461 H   0  0  0  0  0  0
    3.5038   55.0640   23.1022 H   0  0  0  0  0  0
    0.3910   50.2291   21.4537 H   0  0  0  0  0  0
   -0.9463   48.1850   21.7582 H   0  0  0  0  0  0
   -0.6605   48.6016   26.0109 H   0  0  0  0  0  0
    0.6655   50.6530   25.7250 H   0  0  0  0  0  0
    3.2841   54.0016   17.2855 H   0  0  0  0  0  0
    4.1850   55.4801   17.2923 H   0  0  0  0  0  0
  1  2  1  0  0  0
  1 33  1  0  0  0
  1 34  1  0  0  0
  1 35  1  0  0  0
  2  3  1  0  0  0
  3  4  2  0  0  0
  3  5  1  0  0  0
  5  6  1  0  0  0
  5 36  1  0  0  0
  5 37  1  0  0  0
  6 10  1  0  0  0
  6  7  2  0  0  0
  7 15  1  0  0  0
  7  8  1  0  0  0
  8  9  2  0  0  0
  8 12  1  0  0  0
  9 10  1  0  0  0
 10 11  1  0  0  0
 12 13  1  0  0  0
 13 14  2  0  0  0
 13 32  1  0  0  0
 14 15  1  0  0  0
 14 30  1  0  0  0
 15 16  1  0  0  0
 15 17  1  0  0  0
 17 22  2  0  0  0
 17 18  1  0  0  0
 18 19  2  0  0  0
 18 38  1  0  0  0
 19 20  1  0  0  0
 19 23  1  0  0  0
 20 21  2  0  0  0
 20 39  1  0  0  0
 21 22  1  0  0  0
 22 40  1  0  0  0
 23 28  2  0  0  0
 23 24  1  0  0  0
 24 25  2  0  0  0
 24 41  1  0  0  0
 25 26  1  0  0  0
 25 42  1  0  0  0
 26 27  2  0  0  0
 26 29  1  0  0  0
 27 28  1  0  0  0
 27 43  1  0  0  0
 28 44  1  0  0  0
 30 31  3  0  0  0
 32 45  1  0  0  0
 32 46  1  0  0  0
M  END
> <i_i_glide_confnum>
41

> <i_i_glide_lignum>
1452

> <i_i_glide_posenum>
155

> <i_i_glide_rotatable_bonds>
6

> <i_m_Source_File_Index>
225

> <b_m_subgroup_collapsed>
0

> <r_i_docking_score>
-5.37066

> <r_i_glide_ecoul>
-3.14561

> <r_i_glide_eff_state_penalty>
0

> <r_i_glide_einternal>
2.06204

> <r_i_glide_emodel>
-58.4829

> <r_i_glide_energy>
-45.2429

> <r_i_glide_erotb>
0.478346

> <r_i_glide_esite>
-0.0757101

> <r_i_glide_evdw>
-42.0973

> <r_i_glide_gscore>
-5.37066

> <r_i_glide_hbond>
-0.142153

> <r_i_glide_ligand_efficiency>
-0.179022

> <r_i_glide_ligand_efficiency_ln>
-1.22027

> <r_i_glide_ligand_efficiency_sa>
-0.556263

> <r_i_glide_lipo>
-1.95931

> <r_i_glide_metal>
0

> <r_i_glide_rewards>
-1.09512

> <s_i_glide_gridfile>
wee1_glide-grid

> <s_m_Source_File>
wee1_decoys_glide_SP.sdf

> <s_m_Source_Path>
/Users/zhangxujun/Desktop

> <s_m_entry_id>
500

> <s_m_entry_name>
wee1_decoys_glide_SP.225

> <s_m_subgroup_title>
wee1_decoys_glide_SP

> <s_m_subgroupid>
wee1_decoys_glide_SP


$$$$
