ZINC19353847_3119
                    3D
 Schrodinger Suite 2024-2.
 64 67  0  0  1  0            999 V2000
    4.1635   54.7579   17.4249 C   0  0  0  0  0  0
    4.4092   55.1637   18.8977 C   0  0  0  0  0  0
    5.5460   56.2056   18.9491 C   0  0  0  0  0  0
    4.6068   53.9308   19.8414 C   0  0  1  0  0  0
    5.5056   53.4197   19.4844 H   0  0  0  0  0  0
    4.8845   54.2830   21.3212 C   0  0  0  0  0  0
    6.1722   54.6766   21.7083 C   0  0  0  0  0  0
    6.5128   54.8026   23.0529 C   0  0  0  0  0  0
    5.5665   54.5431   24.0339 C   0  0  0  0  0  0
    4.2496   54.2265   23.6656 C   0  0  0  0  0  0
    3.9112   54.0961   22.3207 C   0  0  0  0  0  0
    3.2658   54.0077   24.6055 O   0  0  0  0  0  0
    3.5597   54.6184   25.8632 C   0  0  0  0  0  0
    5.0017   54.2656   26.3051 C   0  0  0  0  0  0
    5.9512   54.7351   25.3437 O   0  0  0  0  0  0
    3.5317   52.9382   19.6522 N   0  0  0  0  0  0
    3.5040   51.6968   20.1680 C   0  0  0  0  0  0
    4.4006   51.2590   20.8881 O   0  0  0  0  0  0
    2.2902   50.8321   19.8132 C   0  0  0  0  0  0
    1.7564   49.6705   21.1198 S   0  0  0  0  0  0
    1.0389   50.7793   22.3011 C   0  0  0  0  0  0
    0.5607   51.9745   22.0391 N   0  0  0  0  0  0
    0.0483   52.4975   23.2244 N   0  0  0  0  0  0
    0.2022   51.5830   24.1457 C   0  0  0  0  0  0
    0.8153   50.4702   23.6244 N   0  0  0  0  0  0
    1.1001   49.2973   24.2873 N   0  0  0  0  0  0
   -0.2220   51.7135   25.5955 C   0  0  0  0  0  0
    0.9454   51.9154   26.3849 O   0  0  0  0  0  0
    0.8246   52.0799   27.7476 C   0  0  0  0  0  0
   -0.3526   51.8756   28.4816 C   0  0  0  0  0  0
   -0.3709   52.0966   29.8580 C   0  0  0  0  0  0
    0.7728   52.5588   30.5064 C   0  0  0  0  0  0
    1.9496   52.7829   29.7922 C   0  0  0  0  0  0
    1.9722   52.4925   28.4221 C   0  0  0  0  0  0
    3.0282   53.2952   30.4827 O   0  0  0  0  0  0
    4.0720   53.9224   29.7479 C   0  0  0  0  0  0
    5.0076   54.1928   17.0259 H   0  0  0  0  0  0
    3.2718   54.1402   17.3080 H   0  0  0  0  0  0
    4.0216   55.6320   16.7867 H   0  0  0  0  0  0
    3.5041   55.6713   19.2195 H   0  0  0  0  0  0
    6.5060   55.7636   18.6797 H   0  0  0  0  0  0
    5.3580   57.0295   18.2581 H   0  0  0  0  0  0
    5.6423   56.6539   19.9374 H   0  0  0  0  0  0
    6.9386   54.8475   20.9662 H   0  0  0  0  0  0
    7.5042   55.1048   23.3382 H   0  0  0  0  0  0
    2.9013   53.8137   22.0631 H   0  0  0  0  0  0
    3.5045   55.6968   25.7537 H   0  0  0  0  0  0
    2.8096   54.3387   26.5963 H   0  0  0  0  0  0
    5.2349   54.7202   27.2675 H   0  0  0  0  0  0
    5.0930   53.1835   26.4155 H   0  0  0  0  0  0
    2.7948   53.2100   19.0185 H   0  0  0  0  0  0
    1.4460   51.4455   19.5016 H   0  0  0  0  0  0
    2.5811   50.2369   18.9445 H   0  0  0  0  0  0
    0.5570   48.5153   23.9455 H   0  0  0  0  0  0
    2.0936   49.0959   24.3558 H   0  0  0  0  0  0
   -0.9091   52.5537   25.7177 H   0  0  0  0  0  0
   -0.7335   50.8017   25.9040 H   0  0  0  0  0  0
   -1.2558   51.5236   28.0048 H   0  0  0  0  0  0
   -1.2695   51.8999   30.4254 H   0  0  0  0  0  0
    0.7368   52.7461   31.5699 H   0  0  0  0  0  0
    2.8827   52.5939   27.8573 H   0  0  0  0  0  0
    4.7040   54.4928   30.4272 H   0  0  0  0  0  0
    4.7000   53.1897   29.2393 H   0  0  0  0  0  0
    3.6815   54.6336   29.0187 H   0  0  0  0  0  0
  1  2  1  0  0  0
  1 37  1  0  0  0
  1 38  1  0  0  0
  1 39  1  0  0  0
  2  3  1  0  0  0
  2  4  1  0  0  0
  2 40  1  0  0  0
  3 41  1  0  0  0
  3 42  1  0  0  0
  3 43  1  0  0  0
  4  5  1  0  0  0
  4  6  1  0  0  0
  4 16  1  0  0  0
  6 11  2  0  0  0
  6  7  1  0  0  0
  7  8  2  0  0  0
  7 44  1  0  0  0
  8  9  1  0  0  0
  8 45  1  0  0  0
  9 15  1  0  0  0
  9 10  2  0  0  0
 10 11  1  0  0  0
 10 12  1  0  0  0
 11 46  1  0  0  0
 12 13  1  0  0  0
 13 14  1  0  0  0
 13 47  1  0  0  0
 13 48  1  0  0  0
 14 15  1  0  0  0
 14 49  1  0  0  0
 14 50  1  0  0  0
 16 17  1  0  0  0
 16 51  1  0  0  0
 17 18  2  0  0  0
 17 19  1  0  0  0
 19 20  1  0  0  0
 19 52  1  0  0  0
 19 53  1  0  0  0
 20 21  1  0  0  0
 21 25  1  0  0  0
 21 22  2  0  0  0
 22 23  1  0  0  0
 23 24  2  0  0  0
 24 25  1  0  0  0
 24 27  1  0  0  0
 25 26  1  0  0  0
 26 54  1  0  0  0
 26 55  1  0  0  0
 27 28  1  0  0  0
 27 56  1  0  0  0
 27 57  1  0  0  0
 28 29  1  0  0  0
 29 34  2  0  0  0
 29 30  1  0  0  0
 30 31  2  0  0  0
 30 58  1  0  0  0
 31 32  1  0  0  0
 31 59  1  0  0  0
 32 33  2  0  0  0
 32 60  1  0  0  0
 33 34  1  0  0  0
 33 35  1  0  0  0
 34 61  1  0  0  0
 35 36  1  0  0  0
 36 62  1  0  0  0
 36 63  1  0  0  0
 36 64  1  0  0  0
M  END
> <i_i_glide_confnum>
39

> <i_i_glide_lignum>
3120

> <i_i_glide_posenum>
30

> <i_i_glide_rotatable_bonds>
11

> <i_m_Source_File_Index>
2713

> <b_m_subgroup_collapsed>
0

> <r_i_docking_score>
-6.51905

> <r_i_glide_ecoul>
-11.3706

> <r_i_glide_eff_state_penalty>
0

> <r_i_glide_einternal>
4.15671

> <r_i_glide_emodel>
-77.6112

> <r_i_glide_energy>
-55.9024

> <r_i_glide_erotb>
0.654332

> <r_i_glide_esite>
-0.0833871

> <r_i_glide_evdw>
-44.5318

> <r_i_glide_gscore>
-6.51905

> <r_i_glide_hbond>
-0.496632

> <r_i_glide_ligand_efficiency>
-0.186258

> <r_i_glide_ligand_efficiency_ln>
-1.43108

> <r_i_glide_ligand_efficiency_sa>
-0.609264

> <r_i_glide_lipo>
-2.36436

> <r_i_glide_metal>
0

> <r_i_glide_rewards>
-0.296823

> <s_i_glide_gridfile>
wee1_glide-grid

> <s_m_Source_File>
wee1_decoys_glide_SP.sdf

> <s_m_Source_Path>
/Users/zhangxujun/Desktop

> <s_m_entry_id>
2988

> <s_m_entry_name>
wee1_decoys_glide_SP.2713

> <s_m_subgroup_title>
wee1_decoys_glide_SP

> <s_m_subgroupid>
wee1_decoys_glide_SP


$$$$
