ZINC51993352_1865
                    3D
 Schrodinger Suite 2024-2.
 39 40  0  0  1  0            999 V2000
    7.0985   54.7958   22.5206 C   0  0  0  0  0  0
    5.6343   54.3506   22.5745 C   0  0  0  0  0  0
    4.9328   54.0220   21.3934 C   0  0  0  0  0  0
    3.6071   53.5997   21.4578 C   0  0  0  0  0  0
    2.9504   53.5234   22.6780 C   0  0  0  0  0  0
    3.6221   53.8625   23.8454 C   0  0  0  0  0  0
    4.9622   54.2692   23.8155 C   0  0  0  0  0  0
    5.7558   54.7417   25.3718 S   0  0  0  0  0  0
    6.6985   53.6968   25.7665 O   0  0  0  0  0  0
    6.2644   56.0968   25.1947 O   0  0  0  0  0  0
    4.4982   54.8399   26.6025 N   0  0  0  0  0  0
    4.0140   53.6376   27.3265 C   0  0  2  0  0  0
    4.2420   52.7179   26.7880 H   0  0  0  0  0  0
    2.5055   53.8675   27.5972 C   0  0  0  0  0  0
    1.9066   52.7609   28.4843 C   0  0  0  0  0  0
    2.6582   52.6656   29.8250 C   0  0  0  0  0  0
    4.1743   52.4920   29.6083 C   0  0  0  0  0  0
    4.7779   53.5746   28.6781 C   0  0  1  0  0  0
    4.6935   54.5455   29.1723 H   0  0  0  0  0  0
    6.1486   53.2974   28.4815 O   0  0  0  0  0  0
    5.5044   54.1095   20.1225 N   0  0  0  0  0  0
    7.7113   54.0947   23.0882 H   0  0  0  0  0  0
    7.2248   55.7815   22.9638 H   0  0  0  0  0  0
    7.5103   54.8666   21.5156 H   0  0  0  0  0  0
    3.0683   53.3478   20.5550 H   0  0  0  0  0  0
    1.9174   53.2098   22.7154 H   0  0  0  0  0  0
    3.0783   53.7979   24.7706 H   0  0  0  0  0  0
    4.4211   55.7383   27.0854 H   0  0  0  0  0  0
    2.3509   54.8298   28.0912 H   0  0  0  0  0  0
    1.9481   53.9231   26.6625 H   0  0  0  0  0  0
    1.9571   51.8030   27.9633 H   0  0  0  0  0  0
    0.8481   52.9549   28.6641 H   0  0  0  0  0  0
    2.2623   51.8371   30.4146 H   0  0  0  0  0  0
    2.4721   53.5677   30.4093 H   0  0  0  0  0  0
    4.3288   51.5124   29.1585 H   0  0  0  0  0  0
    4.6953   52.4590   30.5635 H   0  0  0  0  0  0
    6.4011   53.5760   27.5911 H   0  0  0  0  0  0
    4.9662   53.8233   19.3153 H   0  0  0  0  0  0
    6.4300   54.4950   20.0116 H   0  0  0  0  0  0
  1  2  1  0  0  0
  1 22  1  0  0  0
  1 23  1  0  0  0
  1 24  1  0  0  0
  2  7  2  0  0  0
  2  3  1  0  0  0
  3  4  2  0  0  0
  3 21  1  0  0  0
  4  5  1  0  0  0
  4 25  1  0  0  0
  5  6  2  0  0  0
  5 26  1  0  0  0
  6  7  1  0  0  0
  6 27  1  0  0  0
  7  8  1  0  0  0
  8  9  2  0  0  0
  8 10  2  0  0  0
  8 11  1  0  0  0
 11 12  1  0  0  0
 11 28  1  0  0  0
 12 13  1  0  0  0
 12 18  1  0  0  0
 12 14  1  0  0  0
 14 15  1  0  0  0
 14 29  1  0  0  0
 14 30  1  0  0  0
 15 16  1  0  0  0
 15 31  1  0  0  0
 15 32  1  0  0  0
 16 17  1  0  0  0
 16 33  1  0  0  0
 16 34  1  0  0  0
 17 18  1  0  0  0
 17 35  1  0  0  0
 17 36  1  0  0  0
 18 19  1  0  0  0
 18 20  1  0  0  0
 20 37  1  0  0  0
 21 38  1  0  0  0
 21 39  1  0  0  0
M  END
> <i_i_glide_confnum>
3

> <i_i_glide_lignum>
1866

> <i_i_glide_posenum>
180

> <i_i_glide_rotatable_bonds>
4

> <i_m_Source_File_Index>
263

> <b_m_subgroup_collapsed>
0

> <r_i_docking_score>
-3.16613

> <r_i_glide_ecoul>
-1.79632

> <r_i_glide_eff_state_penalty>
0

> <r_i_glide_einternal>
4.40213

> <r_i_glide_emodel>
-30.4162

> <r_i_glide_energy>
-32.08

> <r_i_glide_erotb>
0.672418

> <r_i_glide_esite>
-0.00410167

> <r_i_glide_evdw>
-30.2836

> <r_i_glide_gscore>
-3.16613

> <r_i_glide_hbond>
0

> <r_i_glide_ligand_efficiency>
-0.166639

> <r_i_glide_ligand_efficiency_ln>
-0.802683

> <r_i_glide_ligand_efficiency_sa>
-0.444659

> <r_i_glide_lipo>
-2.0659

> <r_i_glide_metal>
0

> <r_i_glide_rewards>
0.015077

> <s_i_glide_gridfile>
wee1_glide-grid

> <s_m_Source_File>
wee1_decoys_glide_SP.sdf

> <s_m_Source_Path>
/Users/zhangxujun/Desktop

> <s_m_entry_id>
538

> <s_m_entry_name>
wee1_decoys_glide_SP.263

> <s_m_subgroup_title>
wee1_decoys_glide_SP

> <s_m_subgroupid>
wee1_decoys_glide_SP


$$$$
