ZINC10536333_2293
                    3D
 Schrodinger Suite 2024-2.
 58 62  0  0  1  0            999 V2000
    0.1953   52.0529   27.7277 C   0  0  0  0  0  0
    1.4871   52.4671   27.3877 C   0  0  0  0  0  0
    2.2694   52.8309   28.4917 C   0  0  0  0  0  0
    1.4009   52.4974   29.9747 S   0  0  0  0  0  0
   -0.0168   52.0368   29.0958 C   0  0  0  0  0  0
    3.6725   53.2163   28.5688 C   0  0  0  0  0  0
    4.3041   52.8871   29.5778 O   0  0  0  0  0  0
    4.2489   53.9317   27.5531 N   0  0  0  0  0  0
    3.5022   54.6322   26.4842 C   0  0  0  0  0  0
    4.1170   54.2717   25.1238 C   0  0  0  0  0  0
    5.5830   54.7429   25.1078 C   0  0  0  0  0  0
    6.3315   54.0164   26.2484 C   0  0  0  0  0  0
    5.6900   54.2889   27.6347 C   0  0  0  0  0  0
    6.2253   54.4416   23.7401 C   0  0  0  0  0  0
    6.2812   53.2992   23.2816 O   0  0  0  0  0  0
    6.7098   55.5459   23.1421 O   0  0  0  0  0  0
    7.4950   55.4554   21.9508 C   0  0  0  0  0  0
    6.6837   55.7351   20.6976 C   0  0  0  0  0  0
    6.9713   56.8968   20.0761 N   0  0  0  0  0  0
    6.2877   57.1905   18.9457 C   0  0  0  0  0  0
    5.3080   56.3047   18.4197 C   0  0  0  0  0  0
    4.4297   56.3499   17.2784 C   0  0  0  0  0  0
    3.5952   55.2338   17.2157 C   0  0  0  0  0  0
    3.9053   54.0834   18.5015 S   0  0  0  0  0  0
    5.1274   55.1131   19.1830 C   0  0  0  0  0  0
    5.7835   54.8012   20.3064 N   0  0  0  0  0  0
    2.5013   55.0104   16.1936 C   0  0  0  0  0  0
    1.4071   56.0957   16.2451 C   0  0  0  0  0  0
    1.8040   57.4497   15.6166 C   0  0  0  0  0  0
    2.9858   58.2087   16.2599 C   0  0  0  0  0  0
    4.3426   57.4754   16.2561 C   0  0  0  0  0  0
    6.5991   58.4267   18.3783 N   0  0  0  0  0  0
   -0.5480   51.7453   27.0043 H   0  0  0  0  0  0
    1.8347   52.4896   26.3656 H   0  0  0  0  0  0
   -0.9033   51.7219   29.6256 H   0  0  0  0  0  0
    2.4257   54.4962   26.5006 H   0  0  0  0  0  0
    3.6458   55.6967   26.6382 H   0  0  0  0  0  0
    4.0074   53.2036   24.9399 H   0  0  0  0  0  0
    3.5486   54.7927   24.3510 H   0  0  0  0  0  0
    5.6256   55.8217   25.2712 H   0  0  0  0  0  0
    7.3689   54.3483   26.2948 H   0  0  0  0  0  0
    6.3522   52.9377   26.0842 H   0  0  0  0  0  0
    5.7839   55.3445   27.8903 H   0  0  0  0  0  0
    6.2289   53.6882   28.3702 H   0  0  0  0  0  0
    8.2972   56.1886   22.0334 H   0  0  0  0  0  0
    7.9988   54.4971   21.8612 H   0  0  0  0  0  0
    2.9282   55.0044   15.1901 H   0  0  0  0  0  0
    2.0495   54.0270   16.3277 H   0  0  0  0  0  0
    0.5303   55.7267   15.7113 H   0  0  0  0  0  0
    1.0789   56.2440   17.2747 H   0  0  0  0  0  0
    2.0142   57.2977   14.5571 H   0  0  0  0  0  0
    0.9317   58.1046   15.6409 H   0  0  0  0  0  0
    3.1066   59.1534   15.7255 H   0  0  0  0  0  0
    2.7251   58.4971   17.2782 H   0  0  0  0  0  0
    5.1295   58.2145   16.3692 H   0  0  0  0  0  0
    4.5172   57.0730   15.2571 H   0  0  0  0  0  0
    6.0753   58.7703   17.5837 H   0  0  0  0  0  0
    7.2821   59.0245   18.8167 H   0  0  0  0  0  0
  1  5  2  0  0  0
  1  2  1  0  0  0
  1 33  1  0  0  0
  2  3  2  0  0  0
  2 34  1  0  0  0
  3  4  1  0  0  0
  3  6  1  0  0  0
  4  5  1  0  0  0
  5 35  1  0  0  0
  6  7  2  0  0  0
  6  8  1  0  0  0
  8 13  1  0  0  0
  8  9  1  0  0  0
  9 10  1  0  0  0
  9 36  1  0  0  0
  9 37  1  0  0  0
 10 11  1  0  0  0
 10 38  1  0  0  0
 10 39  1  0  0  0
 11 12  1  0  0  0
 11 14  1  0  0  0
 11 40  1  0  0  0
 12 13  1  0  0  0
 12 41  1  0  0  0
 12 42  1  0  0  0
 13 43  1  0  0  0
 13 44  1  0  0  0
 14 15  2  0  0  0
 14 16  1  0  0  0
 16 17  1  0  0  0
 17 18  1  0  0  0
 17 45  1  0  0  0
 17 46  1  0  0  0
 18 26  2  0  0  0
 18 19  1  0  0  0
 19 20  2  0  0  0
 20 21  1  0  0  0
 20 32  1  0  0  0
 21 25  2  0  0  0
 21 22  1  0  0  0
 22 31  1  0  0  0
 22 23  2  0  0  0
 23 24  1  0  0  0
 23 27  1  0  0  0
 24 25  1  0  0  0
 25 26  1  0  0  0
 27 28  1  0  0  0
 27 47  1  0  0  0
 27 48  1  0  0  0
 28 29  1  0  0  0
 28 49  1  0  0  0
 28 50  1  0  0  0
 29 30  1  0  0  0
 29 51  1  0  0  0
 29 52  1  0  0  0
 30 31  1  0  0  0
 30 53  1  0  0  0
 30 54  1  0  0  0
 31 55  1  0  0  0
 31 56  1  0  0  0
 32 57  1  0  0  0
 32 58  1  0  0  0
M  END
> <i_i_glide_confnum>
184

> <i_i_glide_lignum>
2294

> <i_i_glide_posenum>
182

> <i_i_glide_rotatable_bonds>
6

> <i_m_Source_File_Index>
5713

> <b_m_subgroup_collapsed>
0

> <r_i_docking_score>
-6.81446

> <r_i_glide_ecoul>
-4.87458

> <r_i_glide_eff_state_penalty>
0

> <r_i_glide_einternal>
4.65404

> <r_i_glide_emodel>
-75.2398

> <r_i_glide_energy>
-53.6859

> <r_i_glide_erotb>
0.547416

> <r_i_glide_esite>
-0.075614

> <r_i_glide_evdw>
-48.8113

> <r_i_glide_gscore>
-6.81446

> <r_i_glide_hbond>
-0.319922

> <r_i_glide_ligand_efficiency>
-0.212952

> <r_i_glide_ligand_efficiency_ln>
-1.52594

> <r_i_glide_ligand_efficiency_sa>
-0.67608

> <r_i_glide_lipo>
-2.18542

> <r_i_glide_metal>
0

> <r_i_glide_rewards>
-1.60917

> <s_i_glide_gridfile>
wee1_glide-grid

> <s_m_Source_File>
wee1_decoys_glide_SP.sdf

> <s_m_Source_Path>
/Users/zhangxujun/Desktop

> <s_m_entry_id>
5988

> <s_m_entry_name>
wee1_decoys_glide_SP.5713

> <s_m_subgroup_title>
wee1_decoys_glide_SP

> <s_m_subgroupid>
wee1_decoys_glide_SP


$$$$
