ZINC00705889_1055
                    3D
 Schrodinger Suite 2024-2.
 57 59  0  0  1  0            999 V2000
   -7.0243   52.9234   26.3590 C   0  0  0  0  0  0
   -6.2693   52.9030   25.0236 C   0  0  0  0  0  0
   -5.2058   51.9554   25.0463 O   0  0  0  0  0  0
   -3.9941   52.2323   25.5952 C   0  0  0  0  0  0
   -3.7341   53.3348   26.0788 O   0  0  0  0  0  0
   -3.0305   51.0983   25.5098 C   0  0  0  0  0  0
   -1.7005   51.2267   25.8030 C   0  0  0  0  0  0
   -0.8093   50.2193   25.5932 O   0  0  0  0  0  0
   -1.1979   49.0378   25.0679 C   0  0  0  0  0  0
   -2.4739   48.7221   24.7856 C   0  0  0  0  0  0
   -3.6010   49.7254   25.0414 C   0  0  1  0  0  0
   -4.0553   49.9065   24.0691 H   0  0  0  0  0  0
   -4.7232   49.1511   25.9259 C   0  0  0  0  0  0
   -4.4681   48.9923   27.2950 C   0  0  0  0  0  0
   -5.4449   48.4942   28.1558 C   0  0  0  0  0  0
   -6.7002   48.1549   27.6568 C   0  0  0  0  0  0
   -6.9719   48.3101   26.2973 C   0  0  0  0  0  0
   -5.9953   48.8026   25.4291 C   0  0  0  0  0  0
   -6.4625   48.9826   23.5871 Br  0  0  0  0  0  0
   -2.7924   47.4258   24.2784 C   0  0  0  0  0  0
   -3.0103   46.3603   23.8816 N   0  0  0  0  0  0
   -0.0917   48.2611   24.8821 N   0  0  0  0  0  0
   -0.9095   52.4347   26.3037 C   0  0  0  0  0  0
    0.3903   52.1077   27.5536 S   0  0  0  0  0  0
    1.9088   52.8968   27.0295 C   0  0  0  0  0  0
    3.0120   53.0792   27.8918 C   0  0  0  0  0  0
    4.1720   53.7107   27.3752 C   0  0  0  0  0  0
    4.1962   54.1062   26.0186 C   0  0  0  0  0  0
    3.0509   53.8756   25.2416 C   0  0  0  0  0  0
    1.9363   53.2978   25.7383 N   0  0  0  0  0  0
    2.9497   54.2517   23.7718 C   0  0  0  0  0  0
    5.4496   54.7224   25.3937 C   0  0  0  0  0  0
    5.3951   53.9849   28.2653 C   0  0  0  0  0  0
    2.9752   52.6021   29.2774 C   0  0  0  0  0  0
    2.9536   52.2258   30.3725 N   0  0  0  0  0  0
   -7.8723   53.6072   26.3157 H   0  0  0  0  0  0
   -7.4076   51.9336   26.6059 H   0  0  0  0  0  0
   -6.3810   53.2464   27.1764 H   0  0  0  0  0  0
   -5.9046   53.8983   24.7666 H   0  0  0  0  0  0
   -6.9539   52.6115   24.2277 H   0  0  0  0  0  0
   -3.4963   49.2520   27.6947 H   0  0  0  0  0  0
   -5.2231   48.3748   29.2080 H   0  0  0  0  0  0
   -7.4610   47.7713   28.3203 H   0  0  0  0  0  0
   -7.9473   48.0480   25.9146 H   0  0  0  0  0  0
   -0.2187   47.2972   24.6125 H   0  0  0  0  0  0
    0.7345   48.4544   25.4329 H   0  0  0  0  0  0
   -1.5338   53.1909   26.7632 H   0  0  0  0  0  0
   -0.4852   52.8968   25.4159 H   0  0  0  0  0  0
    3.2209   55.2951   23.6250 H   0  0  0  0  0  0
    3.6178   53.6313   23.1756 H   0  0  0  0  0  0
    1.9397   54.1218   23.3784 H   0  0  0  0  0  0
    5.4710   54.6407   24.3075 H   0  0  0  0  0  0
    5.5377   55.7753   25.6663 H   0  0  0  0  0  0
    6.3462   54.2045   25.7368 H   0  0  0  0  0  0
    5.9522   54.8663   27.9478 H   0  0  0  0  0  0
    5.1091   54.2092   29.2926 H   0  0  0  0  0  0
    6.0650   53.1248   28.2688 H   0  0  0  0  0  0
  1  2  1  0  0  0
  1 36  1  0  0  0
  1 37  1  0  0  0
  1 38  1  0  0  0
  2  3  1  0  0  0
  2 39  1  0  0  0
  2 40  1  0  0  0
  3  4  1  0  0  0
  4  5  2  0  0  0
  4  6  1  0  0  0
  6 11  1  0  0  0
  6  7  2  0  0  0
  7  8  1  0  0  0
  7 23  1  0  0  0
  8  9  1  0  0  0
  9 10  2  0  0  0
  9 22  1  0  0  0
 10 11  1  0  0  0
 10 20  1  0  0  0
 11 12  1  0  0  0
 11 13  1  0  0  0
 13 18  2  0  0  0
 13 14  1  0  0  0
 14 15  2  0  0  0
 14 41  1  0  0  0
 15 16  1  0  0  0
 15 42  1  0  0  0
 16 17  2  0  0  0
 16 43  1  0  0  0
 17 18  1  0  0  0
 17 44  1  0  0  0
 18 19  1  0  0  0
 20 21  3  0  0  0
 22 45  1  0  0  0
 22 46  1  0  0  0
 23 24  1  0  0  0
 23 47  1  0  0  0
 23 48  1  0  0  0
 24 25  1  0  0  0
 25 30  2  0  0  0
 25 26  1  0  0  0
 26 27  2  0  0  0
 26 34  1  0  0  0
 27 28  1  0  0  0
 27 33  1  0  0  0
 28 29  2  0  0  0
 28 32  1  0  0  0
 29 30  1  0  0  0
 29 31  1  0  0  0
 31 49  1  0  0  0
 31 50  1  0  0  0
 31 51  1  0  0  0
 32 52  1  0  0  0
 32 53  1  0  0  0
 32 54  1  0  0  0
 33 55  1  0  0  0
 33 56  1  0  0  0
 33 57  1  0  0  0
 34 35  3  0  0  0
M  END
> <i_i_glide_confnum>
33

> <i_i_glide_lignum>
1056

> <i_i_glide_posenum>
399

> <i_i_glide_rotatable_bonds>
9

> <i_m_Source_File_Index>
3487

> <b_m_subgroup_collapsed>
0

> <r_i_docking_score>
-5.10765

> <r_i_glide_ecoul>
-6.32393

> <r_i_glide_eff_state_penalty>
0

> <r_i_glide_einternal>
4.30064

> <r_i_glide_emodel>
-58.0809

> <r_i_glide_energy>
-44.9487

> <r_i_glide_erotb>
0.426154

> <r_i_glide_esite>
-0.0949095

> <r_i_glide_evdw>
-38.6247

> <r_i_glide_gscore>
-5.10765

> <r_i_glide_hbond>
-0.255184

> <r_i_glide_ligand_efficiency>
-0.150225

> <r_i_glide_ligand_efficiency_ln>
-1.12842

> <r_i_glide_ligand_efficiency_sa>
-0.486671

> <r_i_glide_lipo>
-1.9615

> <r_i_glide_metal>
0

> <r_i_glide_rewards>
-0.342384

> <s_i_glide_gridfile>
wee1_glide-grid

> <s_m_Source_File>
wee1_decoys_glide_SP.sdf

> <s_m_Source_Path>
/Users/zhangxujun/Desktop

> <s_m_entry_id>
3762

> <s_m_entry_name>
wee1_decoys_glide_SP.3487

> <s_m_subgroup_title>
wee1_decoys_glide_SP

> <s_m_subgroupid>
wee1_decoys_glide_SP


$$$$
