ZINC63478293_659
                    3D
 Schrodinger Suite 2024-2.
 60 65  0  0  1  0            999 V2000
    1.4387   48.1471   17.7727 C   0  0  0  0  0  0
    0.9854   49.3611   18.6063 C   0  0  0  0  0  0
    1.7888   49.5961   19.9170 C   0  0  2  0  0  0
    2.7698   49.9519   19.5884 H   0  0  0  0  0  0
    2.0665   48.3046   20.7006 C   0  0  0  0  0  0
    1.1816   50.6232   20.7977 N   0  0  0  0  0  0
    1.8659   51.7424   21.1366 C   0  0  0  0  0  0
    2.9996   52.0722   20.7894 O   0  0  0  0  0  0
    0.9625   52.5877   22.0129 C   0  0  2  0  0  0
    0.7048   53.5003   21.4833 H   0  0  0  0  0  0
    1.5500   52.8624   23.4072 C   0  0  2  0  0  0
    2.2840   52.0903   23.6592 H   0  0  0  0  0  0
    0.4338   52.6767   24.3154 N   0  0  0  0  0  0
   -0.4335   51.6180   23.8031 C   0  0  2  0  0  0
   -0.2772   51.7650   22.2399 C   0  0  2  0  0  0
   -1.1358   52.2917   21.8210 H   0  0  0  0  0  0
   -0.0429   50.5141   21.3886 C   0  0  0  0  0  0
   -0.8624   49.6033   21.2679 O   0  0  0  0  0  0
   -1.8293   51.7281   24.3508 C   0  0  0  0  0  0
   -2.8076   52.7134   24.1840 C   0  0  0  0  0  0
   -4.0074   52.6216   24.8940 C   0  0  0  0  0  0
   -4.2317   51.5459   25.7588 C   0  0  0  0  0  0
   -3.2536   50.5611   25.9258 C   0  0  0  0  0  0
   -2.0595   50.6723   25.2155 C   0  0  0  0  0  0
   -0.9533   49.8423   25.2420 N   0  0  0  0  0  0
    0.0325   50.2623   24.4284 C   0  0  0  0  0  0
    1.1050   49.6972   24.2267 O   0  0  0  0  0  0
   -4.9433   53.5866   24.7590 F   0  0  0  0  0  0
    2.2136   54.2472   23.5631 C   0  0  0  0  0  0
    3.7091   54.2107   23.7885 C   0  0  0  0  0  0
    4.4154   54.3164   24.9268 C   0  0  0  0  0  0
    3.9807   54.4040   26.3300 C   0  0  0  0  0  0
    4.8859   54.4967   27.3261 C   0  0  0  0  0  0
    6.2973   54.5331   26.9671 C   0  0  0  0  0  0
    6.7052   54.4762   25.6715 C   0  0  0  0  0  0
    5.7795   54.3567   24.6350 C   0  0  0  0  0  0
    5.9850   54.2741   23.3430 N   0  3  0  0  0  0
    4.6986   54.1248   22.6432 C   0  0  0  0  0  0
    1.0130   48.1783   16.7699 H   0  0  0  0  0  0
    2.5224   48.0991   17.6721 H   0  0  0  0  0  0
    1.1187   47.2123   18.2324 H   0  0  0  0  0  0
   -0.0766   49.2379   18.8171 H   0  0  0  0  0  0
    1.0614   50.2580   17.9901 H   0  0  0  0  0  0
    2.7003   47.6343   20.1270 H   0  0  0  0  0  0
    2.5598   48.4968   21.6552 H   0  0  0  0  0  0
    1.1324   47.7806   20.8817 H   0  0  0  0  0  0
    0.7254   52.4964   25.2663 H   0  0  0  0  0  0
   -2.6383   53.5622   23.5379 H   0  0  0  0  0  0
   -5.1584   51.4859   26.3081 H   0  0  0  0  0  0
   -3.4201   49.7376   26.6075 H   0  0  0  0  0  0
   -0.8795   49.0167   25.8223 H   0  0  0  0  0  0
    2.0107   54.8920   22.7062 H   0  0  0  0  0  0
    1.7748   54.7770   24.4081 H   0  0  0  0  0  0
    2.9336   54.3808   26.5985 H   0  0  0  0  0  0
    4.5761   54.5555   28.3595 H   0  0  0  0  0  0
    7.0347   54.6154   27.7545 H   0  0  0  0  0  0
    7.7576   54.5006   25.4423 H   0  0  0  0  0  0
    4.7070   53.1571   22.1411 H   0  0  0  0  0  0
    4.6037   54.9218   21.9053 H   0  0  0  0  0  0
    6.8935   54.2882   22.8849 H   0  0  0  0  0  0
  1  2  1  0  0  0
  1 39  1  0  0  0
  1 40  1  0  0  0
  1 41  1  0  0  0
  2  3  1  0  0  0
  2 42  1  0  0  0
  2 43  1  0  0  0
  3  4  1  0  0  0
  3  5  1  0  0  0
  3  6  1  0  0  0
  5 44  1  0  0  0
  5 45  1  0  0  0
  5 46  1  0  0  0
  6 17  1  0  0  0
  6  7  1  0  0  0
  7  8  2  0  0  0
  7  9  1  0  0  0
  9 10  1  0  0  0
  9 15  1  0  0  0
  9 11  1  0  0  0
 11 12  1  0  0  0
 11 13  1  0  0  0
 11 29  1  0  0  0
 13 14  1  0  0  0
 13 47  1  0  0  0
 14 26  1  0  0  0
 14 15  1  0  0  0
 14 19  1  0  0  0
 15 16  1  0  0  0
 15 17  1  0  0  0
 17 18  2  0  0  0
 19 24  2  0  0  0
 19 20  1  0  0  0
 20 21  2  0  0  0
 20 48  1  0  0  0
 21 22  1  0  0  0
 21 28  1  0  0  0
 22 23  2  0  0  0
 22 49  1  0  0  0
 23 24  1  0  0  0
 23 50  1  0  0  0
 24 25  1  0  0  0
 25 26  1  0  0  0
 25 51  1  0  0  0
 26 27  2  0  0  0
 29 30  1  0  0  0
 29 52  1  0  0  0
 29 53  1  0  0  0
 30 38  1  0  0  0
 30 31  2  0  0  0
 31 36  1  0  0  0
 31 32  1  0  0  0
 32 33  2  0  0  0
 32 54  1  0  0  0
 33 34  1  0  0  0
 33 55  1  0  0  0
 34 35  2  0  0  0
 34 56  1  0  0  0
 35 36  1  0  0  0
 35 57  1  0  0  0
 36 37  2  0  0  0
 37 38  1  0  0  0
 37 60  1  0  0  0
 38 58  1  0  0  0
 38 59  1  0  0  0
M  CHG  1  37   1
M  END
> <i_i_glide_confnum>
11

> <i_i_glide_lignum>
660

> <i_i_glide_posenum>
178

> <i_i_glide_rotatable_bonds>
4

> <i_m_Source_File_Index>
5074

> <b_m_subgroup_collapsed>
0

> <r_i_docking_score>
-4.9246

> <r_i_glide_ecoul>
-0.526656

> <r_i_glide_eff_state_penalty>
0

> <r_i_glide_einternal>
5.47918

> <r_i_glide_emodel>
-48.3746

> <r_i_glide_energy>
-39.3147

> <r_i_glide_erotb>
0.28363

> <r_i_glide_esite>
-0.0491269

> <r_i_glide_evdw>
-38.7881

> <r_i_glide_gscore>
-4.9246

> <r_i_glide_hbond>
0

> <r_i_glide_ligand_efficiency>
-0.144841

> <r_i_glide_ligand_efficiency_ln>
-1.08798

> <r_i_glide_ligand_efficiency_sa>
-0.469229

> <r_i_glide_lipo>
-2.64293

> <r_i_glide_metal>
0

> <r_i_glide_rewards>
-0.497767

> <s_i_glide_gridfile>
wee1_glide-grid

> <s_m_Source_File>
wee1_decoys_glide_SP.sdf

> <s_m_Source_Path>
/Users/zhangxujun/Desktop

> <s_m_entry_id>
5349

> <s_m_entry_name>
wee1_decoys_glide_SP.5074

> <s_m_subgroup_title>
wee1_decoys_glide_SP

> <s_m_subgroupid>
wee1_decoys_glide_SP


$$$$
