ZINC13346430_3306
                    3D
 Schrodinger Suite 2024-2.
 41 42  0  0  1  0            999 V2000
    6.9290   54.4916   22.9866 C   0  0  0  0  0  0
    5.5811   54.2811   23.6431 C   0  0  0  0  0  0
    5.3938   54.5446   25.0025 C   0  0  0  0  0  0
    4.1101   54.3299   25.5120 C   0  0  0  0  0  0
    3.0822   53.8925   24.7364 N   0  0  0  0  0  0
    3.3707   53.6357   23.4329 C   0  0  0  0  0  0
    4.5836   53.8158   22.8447 N   0  0  0  0  0  0
    2.0687   52.9041   22.4819 S   0  0  0  0  0  0
    2.7531   52.1713   20.9488 C   0  0  0  0  0  0
    2.4734   50.6663   20.8039 C   0  0  0  0  0  0
    2.2514   49.9745   21.8004 O   0  0  0  0  0  0
    2.5161   50.1649   19.5532 N   0  0  0  0  0  0
    2.3047   48.8185   19.2856 N   0  0  0  0  0  0
    0.6054   48.3663   19.1324 S   0  0  0  0  0  0
    0.0444   48.2292   20.4808 O   0  0  0  0  0  0
   -0.0161   49.2672   18.1547 O   0  0  0  0  0  0
    0.6303   46.7379   18.3880 C   0  0  0  0  0  0
    1.1372   46.5756   17.1000 C   0  0  0  0  0  0
    1.1412   45.3132   16.5115 C   0  0  0  0  0  0
    0.6635   44.1982   17.2058 C   0  0  0  0  0  0
    0.1826   44.3419   18.5264 C   0  0  0  0  0  0
    0.1465   45.6287   19.0858 C   0  0  0  0  0  0
   -0.3092   43.1860   19.3435 C   0  0  0  0  0  0
    0.3049   42.0967   19.2831 O   0  0  0  0  0  0
    0.6873   42.5281   16.2747 Br  0  0  0  0  0  0
    3.8044   54.5224   26.9845 C   0  0  0  0  0  0
    7.3596   55.4439   23.2972 H   0  0  0  0  0  0
    6.8531   54.5030   21.8992 H   0  0  0  0  0  0
    7.6140   53.6951   23.2781 H   0  0  0  0  0  0
    6.2033   54.8875   25.6291 H   0  0  0  0  0  0
    2.3139   52.7084   20.1073 H   0  0  0  0  0  0
    3.8297   52.3207   20.8934 H   0  0  0  0  0  0
    2.8752   50.6955   18.7699 H   0  0  0  0  0  0
    2.8238   48.2576   19.9675 H   0  0  0  0  0  0
    1.5199   47.4272   16.5537 H   0  0  0  0  0  0
    1.5192   45.1988   15.5063 H   0  0  0  0  0  0
   -0.2474   45.7662   20.0837 H   0  0  0  0  0  0
    4.5161   55.2054   27.4489 H   0  0  0  0  0  0
    2.8034   54.9275   27.1353 H   0  0  0  0  0  0
    3.8641   53.5642   27.5012 H   0  0  0  0  0  0
   -1.2956   43.3651   20.0927 O   0  5  0  0  0  0
  1  2  1  0  0  0
  1 27  1  0  0  0
  1 28  1  0  0  0
  1 29  1  0  0  0
  2  7  2  0  0  0
  2  3  1  0  0  0
  3  4  2  0  0  0
  3 30  1  0  0  0
  4  5  1  0  0  0
  4 26  1  0  0  0
  5  6  2  0  0  0
  6  7  1  0  0  0
  6  8  1  0  0  0
  8  9  1  0  0  0
  9 10  1  0  0  0
  9 31  1  0  0  0
  9 32  1  0  0  0
 10 11  2  0  0  0
 10 12  1  0  0  0
 12 13  1  0  0  0
 12 33  1  0  0  0
 13 14  1  0  0  0
 13 34  1  0  0  0
 14 15  2  0  0  0
 14 16  2  0  0  0
 14 17  1  0  0  0
 17 22  2  0  0  0
 17 18  1  0  0  0
 18 19  2  0  0  0
 18 35  1  0  0  0
 19 20  1  0  0  0
 19 36  1  0  0  0
 20 21  2  0  0  0
 20 25  1  0  0  0
 21 22  1  0  0  0
 21 23  1  0  0  0
 22 37  1  0  0  0
 23 24  2  0  0  0
 23 41  1  0  0  0
 26 38  1  0  0  0
 26 39  1  0  0  0
 26 40  1  0  0  0
M  CHG  1  41  -1
M  END
> <i_i_glide_confnum>
37

> <i_i_glide_lignum>
3307

> <i_i_glide_posenum>
228

> <i_i_glide_rotatable_bonds>
8

> <i_m_Source_File_Index>
4949

> <b_m_subgroup_collapsed>
0

> <r_i_docking_score>
-3.69026

> <r_i_glide_ecoul>
-6.35987

> <r_i_glide_eff_state_penalty>
0

> <r_i_glide_einternal>
5.41111

> <r_i_glide_emodel>
-48.5512

> <r_i_glide_energy>
-39.104

> <r_i_glide_erotb>
0.629535

> <r_i_glide_esite>
-0.234893

> <r_i_glide_evdw>
-32.7442

> <r_i_glide_gscore>
-3.69026

> <r_i_glide_hbond>
-0.382843

> <r_i_glide_ligand_efficiency>
-0.136676

> <r_i_glide_ligand_efficiency_ln>
-0.859032

> <r_i_glide_ligand_efficiency_sa>
-0.410029

> <r_i_glide_lipo>
-1.22429

> <r_i_glide_metal>
0

> <r_i_glide_rewards>
0.113422

> <s_i_glide_gridfile>
wee1_glide-grid

> <s_m_Source_File>
wee1_decoys_glide_SP.sdf

> <s_m_Source_Path>
/Users/zhangxujun/Desktop

> <s_m_entry_id>
5224

> <s_m_entry_name>
wee1_decoys_glide_SP.4949

> <s_m_subgroup_title>
wee1_decoys_glide_SP

> <s_m_subgroupid>
wee1_decoys_glide_SP


$$$$
