ZINC11910771_868
                    3D
 Schrodinger Suite 2024-2.
 70 74  0  0  1  0            999 V2000
   -4.4953   54.0966   25.2965 C   0  0  0  0  0  0
   -4.4305   52.7353   24.5966 C   0  0  0  0  0  0
   -3.0773   52.3965   24.3132 O   0  0  0  0  0  0
   -2.7891   51.3526   23.5041 C   0  0  0  0  0  0
   -3.6119   50.6730   22.8879 O   0  0  0  0  0  0
   -1.2945   50.9893   23.5307 C   0  0  1  0  0  0
   -0.8817   51.5122   24.3893 H   0  0  0  0  0  0
   -1.0836   49.4709   23.7063 C   0  0  0  0  0  0
    0.4191   49.1693   23.6878 C   0  0  0  0  0  0
    1.0884   49.7059   22.4000 C   0  0  0  0  0  0
    0.8647   51.1637   22.2354 N   0  0  0  0  0  0
   -0.5879   51.4974   22.2404 C   0  0  0  0  0  0
    1.7897   52.0305   22.9047 C   0  0  0  0  0  0
    2.9967   52.5078   22.3381 C   0  0  0  0  0  0
    3.8143   53.3149   23.1548 C   0  0  0  0  0  0
    3.4189   53.6921   24.4446 C   0  0  0  0  0  0
    2.2469   53.1523   24.9748 C   0  0  0  0  0  0
    1.7896   53.2824   26.3934 C   0  0  0  0  0  0
    2.1323   54.2220   27.3483 C   0  0  0  0  0  0
    1.4431   54.0630   28.5821 C   0  0  0  0  0  0
    1.4451   54.8801   29.7260 C   0  0  0  0  0  0
    0.7045   54.4939   30.8440 C   0  0  0  0  0  0
    0.0129   53.2892   30.8624 C   0  0  0  0  0  0
   -0.0426   52.4693   29.7418 C   0  0  0  0  0  0
    0.6580   52.8760   28.6003 C   0  0  0  0  0  0
    0.7019   52.0630   27.0552 S   0  0  0  0  0  0
    3.4405   52.1297   20.9262 C   0  0  0  0  0  0
    3.3628   50.9510   20.5802 O   0  0  0  0  0  0
    3.8625   53.1069   20.0749 N   0  0  0  0  0  0
    4.1873   52.8968   18.6525 C   0  0  0  0  0  0
    5.6770   53.2964   18.4105 C   0  0  0  0  0  0
    6.0349   54.7060   18.9609 C   0  0  0  0  0  0
    5.5040   54.8894   20.4011 C   0  0  0  0  0  0
    4.0168   54.4974   20.4505 C   0  0  0  0  0  0
    7.5426   55.0512   18.8839 C   0  0  0  0  0  0
    8.0386   55.8745   19.6509 O   0  0  0  0  0  0
    8.3001   54.4567   17.9620 N   0  0  0  0  0  0
   -5.5259   54.3535   25.5418 H   0  0  0  0  0  0
   -3.9229   54.0915   26.2249 H   0  0  0  0  0  0
   -4.0956   54.8849   24.6590 H   0  0  0  0  0  0
   -5.0221   52.7684   23.6814 H   0  0  0  0  0  0
   -4.8709   51.9665   25.2344 H   0  0  0  0  0  0
   -1.5680   48.9084   22.9049 H   0  0  0  0  0  0
   -1.5025   49.1267   24.6548 H   0  0  0  0  0  0
    0.5795   48.0959   23.7627 H   0  0  0  0  0  0
    0.9049   49.5921   24.5682 H   0  0  0  0  0  0
    0.6814   49.2075   21.5188 H   0  0  0  0  0  0
    2.1617   49.5058   22.4171 H   0  0  0  0  0  0
   -0.6902   52.5761   22.1204 H   0  0  0  0  0  0
   -1.0224   51.0301   21.3542 H   0  0  0  0  0  0
    4.7767   53.6589   22.8118 H   0  0  0  0  0  0
    4.0672   54.3019   25.0560 H   0  0  0  0  0  0
    2.8094   55.0410   27.1658 H   0  0  0  0  0  0
    2.0060   55.8037   29.7395 H   0  0  0  0  0  0
    0.7041   55.1158   31.7283 H   0  0  0  0  0  0
   -0.4961   52.9817   31.7628 H   0  0  0  0  0  0
   -0.6129   51.5489   29.7581 H   0  0  0  0  0  0
    3.5468   53.5701   18.0803 H   0  0  0  0  0  0
    3.9050   51.8992   18.3070 H   0  0  0  0  0  0
    5.8334   53.2316   17.3335 H   0  0  0  0  0  0
    6.2522   52.5203   18.9202 H   0  0  0  0  0  0
    5.5631   55.4538   18.3210 H   0  0  0  0  0  0
    6.0341   54.2547   21.1112 H   0  0  0  0  0  0
    5.5551   55.9354   20.7078 H   0  0  0  0  0  0
    3.5045   55.0638   19.6741 H   0  0  0  0  0  0
    3.4540   54.8369   21.3189 H   0  0  0  0  0  0
    7.9117   53.7746   17.3276 H   0  0  0  0  0  0
    9.2814   54.6852   17.9183 H   0  0  0  0  0  0
    1.5004   52.3704   24.1759 N   0  3  0  0  0  0
    0.6701   51.9697   24.5833 H   0  0  0  0  0  0
  1  2  1  0  0  0
  1 38  1  0  0  0
  1 39  1  0  0  0
  1 40  1  0  0  0
  2  3  1  0  0  0
  2 41  1  0  0  0
  2 42  1  0  0  0
  3  4  1  0  0  0
  4  5  2  0  0  0
  4  6  1  0  0  0
  6  7  1  0  0  0
  6 12  1  0  0  0
  6  8  1  0  0  0
  8  9  1  0  0  0
  8 43  1  0  0  0
  8 44  1  0  0  0
  9 10  1  0  0  0
  9 45  1  0  0  0
  9 46  1  0  0  0
 10 11  1  0  0  0
 10 47  1  0  0  0
 10 48  1  0  0  0
 11 12  1  0  0  0
 11 13  1  0  0  0
 12 49  1  0  0  0
 12 50  1  0  0  0
 13 14  2  0  0  0
 13 69  1  0  0  0
 14 15  1  0  0  0
 14 27  1  0  0  0
 15 16  2  0  0  0
 15 51  1  0  0  0
 16 17  1  0  0  0
 16 52  1  0  0  0
 17 18  1  0  0  0
 17 69  2  0  0  0
 18 26  1  0  0  0
 18 19  2  0  0  0
 19 20  1  0  0  0
 19 53  1  0  0  0
 20 25  2  0  0  0
 20 21  1  0  0  0
 21 22  2  0  0  0
 21 54  1  0  0  0
 22 23  1  0  0  0
 22 55  1  0  0  0
 23 24  2  0  0  0
 23 56  1  0  0  0
 24 25  1  0  0  0
 24 57  1  0  0  0
 25 26  1  0  0  0
 27 28  2  0  0  0
 27 29  1  0  0  0
 29 34  1  0  0  0
 29 30  1  0  0  0
 30 31  1  0  0  0
 30 58  1  0  0  0
 30 59  1  0  0  0
 31 32  1  0  0  0
 31 60  1  0  0  0
 31 61  1  0  0  0
 32 33  1  0  0  0
 32 35  1  0  0  0
 32 62  1  0  0  0
 33 34  1  0  0  0
 33 63  1  0  0  0
 33 64  1  0  0  0
 34 65  1  0  0  0
 34 66  1  0  0  0
 35 36  2  0  0  0
 35 37  1  0  0  0
 37 67  1  0  0  0
 37 68  1  0  0  0
 69 70  1  0  0  0
M  CHG  1  69   1
M  END
> <i_i_glide_confnum>
5

> <i_i_glide_lignum>
869

> <i_i_glide_posenum>
373

> <i_i_glide_rotatable_bonds>
8

> <i_m_Source_File_Index>
5647

> <b_m_subgroup_collapsed>
0

> <r_i_docking_score>
-4.84773

> <r_i_glide_ecoul>
-3.1599

> <r_i_glide_eff_state_penalty>
0

> <r_i_glide_einternal>
5.41965

> <r_i_glide_emodel>
-59.3409

> <r_i_glide_energy>
-45.5821

> <r_i_glide_erotb>
0.453304

> <r_i_glide_esite>
-0.0195783

> <r_i_glide_evdw>
-42.4222

> <r_i_glide_gscore>
-4.84773

> <r_i_glide_hbond>
0

> <r_i_glide_ligand_efficiency>
-0.13102

> <r_i_glide_ligand_efficiency_ln>
-1.05136

> <r_i_glide_ligand_efficiency_sa>
-0.436587

> <r_i_glide_lipo>
-2.45572

> <r_i_glide_metal>
0

> <r_i_glide_rewards>
-0.230641

> <s_i_glide_gridfile>
wee1_glide-grid

> <s_m_Source_File>
wee1_decoys_glide_SP.sdf

> <s_m_Source_Path>
/Users/zhangxujun/Desktop

> <s_m_entry_id>
5922

> <s_m_entry_name>
wee1_decoys_glide_SP.5647

> <s_m_subgroup_title>
wee1_decoys_glide_SP

> <s_m_subgroupid>
wee1_decoys_glide_SP


$$$$
