ZINC66344426_2580
                    3D
 Schrodinger Suite 2024-2.
 50 52  0  0  1  0            999 V2000
   -0.0139   50.7066   25.7532 C   0  0  0  0  0  0
   -0.1708   50.7729   24.3704 C   0  0  0  0  0  0
   -1.1144   51.6407   23.8221 C   0  0  0  0  0  0
   -1.8895   52.4544   24.6445 C   0  0  0  0  0  0
   -1.7316   52.3883   26.0256 C   0  0  0  0  0  0
   -0.7978   51.5106   26.5872 C   0  0  0  0  0  0
   -0.6473   51.4161   28.1061 C   0  0  1  0  0  0
   -0.1125   50.4967   28.3440 H   0  0  0  0  0  0
    0.1373   52.5890   28.7310 C   0  0  0  0  0  0
    1.5540   52.5916   28.3543 N   0  0  0  0  0  0
    2.3193   53.6853   28.2334 C   0  0  0  0  0  0
    1.8838   54.8370   28.2245 O   0  0  0  0  0  0
    3.6182   53.3693   28.1127 N   0  0  0  0  0  0
    4.6594   54.2611   27.5979 C   0  0  0  0  0  0
    5.0921   53.9039   26.1627 C   0  0  2  0  0  0
    5.5075   52.8967   26.1841 H   0  0  0  0  0  0
    6.0995   54.8469   25.5306 C   0  0  0  0  0  0
    5.9696   54.5152   24.0462 C   0  0  0  0  0  0
    4.5859   54.0966   23.8010 N   0  0  0  0  0  0
    3.9669   53.9151   25.1190 C   0  0  0  0  0  0
    4.0811   53.5884   22.5901 C   0  0  0  0  0  0
    4.8598   53.6085   21.4245 C   0  0  0  0  0  0
    4.3797   53.0564   20.2379 C   0  0  0  0  0  0
    3.1060   52.4976   20.2036 C   0  0  0  0  0  0
    2.3073   52.4967   21.3415 C   0  0  0  0  0  0
    2.7859   53.0536   22.5241 C   0  0  0  0  0  0
    2.6326   51.9647   19.0558 F   0  0  0  0  0  0
   -1.8898   51.2967   28.7684 O   0  0  0  0  0  0
   -1.3446   51.6964   22.1127 Cl  0  0  0  0  0  0
    0.7034   50.0161   26.1732 H   0  0  0  0  0  0
    0.4268   50.1415   23.7293 H   0  0  0  0  0  0
   -2.6194   53.1252   24.2161 H   0  0  0  0  0  0
   -2.3421   53.0105   26.6635 H   0  0  0  0  0  0
   -0.3532   53.5331   28.4822 H   0  0  0  0  0  0
    0.0996   52.5114   29.8196 H   0  0  0  0  0  0
    1.9841   51.6880   28.2300 H   0  0  0  0  0  0
    3.9179   52.4447   28.3813 H   0  0  0  0  0  0
    4.3326   55.2967   27.6358 H   0  0  0  0  0  0
    5.5199   54.2027   28.2662 H   0  0  0  0  0  0
    5.8285   55.8931   25.6809 H   0  0  0  0  0  0
    7.1059   54.7216   25.9303 H   0  0  0  0  0  0
    6.2094   55.3811   23.4288 H   0  0  0  0  0  0
    6.6605   53.7118   23.7839 H   0  0  0  0  0  0
    3.4602   52.9531   25.2093 H   0  0  0  0  0  0
    3.2752   54.7264   25.3519 H   0  0  0  0  0  0
    5.8512   54.0346   21.4330 H   0  0  0  0  0  0
    4.9891   53.0534   19.3457 H   0  0  0  0  0  0
    1.3177   52.0718   21.2970 H   0  0  0  0  0  0
    2.1437   53.0454   23.3917 H   0  0  0  0  0  0
   -2.0956   50.3507   28.8126 H   0  0  0  0  0  0
  1  6  2  0  0  0
  1  2  1  0  0  0
  1 30  1  0  0  0
  2  3  2  0  0  0
  2 31  1  0  0  0
  3  4  1  0  0  0
  3 29  1  0  0  0
  4  5  2  0  0  0
  4 32  1  0  0  0
  5  6  1  0  0  0
  5 33  1  0  0  0
  6  7  1  0  0  0
  7  8  1  0  0  0
  7  9  1  0  0  0
  7 28  1  0  0  0
  9 10  1  0  0  0
  9 34  1  0  0  0
  9 35  1  0  0  0
 10 11  1  0  0  0
 10 36  1  0  0  0
 11 12  2  0  0  0
 11 13  1  0  0  0
 13 14  1  0  0  0
 13 37  1  0  0  0
 14 15  1  0  0  0
 14 38  1  0  0  0
 14 39  1  0  0  0
 15 16  1  0  0  0
 15 20  1  0  0  0
 15 17  1  0  0  0
 17 18  1  0  0  0
 17 40  1  0  0  0
 17 41  1  0  0  0
 18 19  1  0  0  0
 18 42  1  0  0  0
 18 43  1  0  0  0
 19 20  1  0  0  0
 19 21  1  0  0  0
 20 44  1  0  0  0
 20 45  1  0  0  0
 21 26  2  0  0  0
 21 22  1  0  0  0
 22 23  2  0  0  0
 22 46  1  0  0  0
 23 24  1  0  0  0
 23 47  1  0  0  0
 24 25  2  0  0  0
 24 27  1  0  0  0
 25 26  1  0  0  0
 25 48  1  0  0  0
 26 49  1  0  0  0
 28 50  1  0  0  0
M  END
> <i_i_glide_confnum>
47

> <i_i_glide_lignum>
2581

> <i_i_glide_posenum>
80

> <i_i_glide_rotatable_bonds>
9

> <i_m_Source_File_Index>
5585

> <b_m_subgroup_collapsed>
0

> <r_i_docking_score>
-4.70596

> <r_i_glide_ecoul>
-2.45037

> <r_i_glide_eff_state_penalty>
0

> <r_i_glide_einternal>
8.46297

> <r_i_glide_emodel>
-48.5805

> <r_i_glide_energy>
-39.7236

> <r_i_glide_erotb>
0.889772

> <r_i_glide_esite>
-0.0468056

> <r_i_glide_evdw>
-37.2733

> <r_i_glide_gscore>
-4.70596

> <r_i_glide_hbond>
-0.129

> <r_i_glide_ligand_efficiency>
-0.174295

> <r_i_glide_ligand_efficiency_ln>
-1.09547

> <r_i_glide_ligand_efficiency_sa>
-0.522884

> <r_i_glide_lipo>
-1.93295

> <r_i_glide_metal>
0

> <r_i_glide_rewards>
-1.25576

> <s_i_glide_gridfile>
wee1_glide-grid

> <s_m_Source_File>
wee1_decoys_glide_SP.sdf

> <s_m_Source_Path>
/Users/zhangxujun/Desktop

> <s_m_entry_id>
5860

> <s_m_entry_name>
wee1_decoys_glide_SP.5585

> <s_m_subgroup_title>
wee1_decoys_glide_SP

> <s_m_subgroupid>
wee1_decoys_glide_SP


$$$$
