ZINC37602346_4040
                    3D
 Schrodinger Suite 2024-2.
 69 73  0  0  1  0            999 V2000
   12.9234   60.1127   19.4812 C   0  0  0  0  0  0
   12.6430   59.0565   18.3949 C   0  0  0  0  0  0
   13.7201   57.9615   18.3825 C   0  0  0  0  0  0
   11.3122   58.4544   18.4853 N   0  0  0  0  0  0
   10.1319   59.0888   18.3335 C   0  0  0  0  0  0
   10.0410   60.3090   18.1678 O   0  0  0  0  0  0
    8.9417   58.2532   18.3655 C   0  0  0  0  0  0
    7.6456   58.7121   18.1059 C   0  0  0  0  0  0
    6.5093   57.4272   18.3301 S   0  0  0  0  0  0
    7.8319   56.3806   18.7376 C   0  0  0  0  0  0
    9.0053   56.9664   18.6930 N   0  0  0  0  0  0
    7.6734   54.9096   19.0573 C   0  0  0  0  0  0
    6.3158   54.6106   19.3914 O   0  0  0  0  0  0
    5.9042   54.5928   20.7089 C   0  0  0  0  0  0
    6.6687   55.0223   21.8002 C   0  0  0  0  0  0
    6.1719   54.8885   23.0920 C   0  0  0  0  0  0
    4.9075   54.3263   23.3243 C   0  0  0  0  0  0
    4.1193   53.8891   22.2415 C   0  0  0  0  0  0
    4.6368   54.0741   20.9497 C   0  0  0  0  0  0
    2.6736   53.3574   22.4488 C   0  0  2  0  0  0
    2.0731   54.1974   22.0976 H   0  0  0  0  0  0
    2.2568   53.2790   23.8929 N   0  0  0  0  0  0
    2.8152   54.3525   24.7417 C   0  0  0  0  0  0
    4.3490   54.2253   24.7316 C   0  0  0  0  0  0
    1.5045   52.2636   24.4285 C   0  0  0  0  0  0
    1.3403   51.1899   23.8478 O   0  0  0  0  0  0
    0.6579   52.4686   25.7216 C   0  0  0  0  0  0
   -0.8589   52.3223   25.4454 C   0  0  0  0  0  0
   -1.4559   51.6114   26.6734 C   0  0  0  0  0  0
   -0.3096   51.4236   27.6713 C   0  0  0  0  0  0
    0.9594   51.4260   26.8167 C   0  0  0  0  0  0
    2.2455   52.2582   21.4454 C   0  0  0  0  0  0
    3.1578   51.3207   20.9445 C   0  0  0  0  0  0
    2.7493   50.3806   20.0034 C   0  0  0  0  0  0
    1.4261   50.3484   19.5789 C   0  0  0  0  0  0
    0.4991   51.2517   20.0899 C   0  0  0  0  0  0
    0.9119   52.2026   21.0190 C   0  0  0  0  0  0
   13.9468   60.4799   19.4047 H   0  0  0  0  0  0
   12.8088   59.7014   20.4816 H   0  0  0  0  0  0
   12.2765   60.9829   19.3807 H   0  0  0  0  0  0
   12.7002   59.5595   17.4259 H   0  0  0  0  0  0
   14.7188   58.3963   18.3457 H   0  0  0  0  0  0
   13.6805   57.3438   19.2807 H   0  0  0  0  0  0
   13.6265   57.3138   17.5098 H   0  0  0  0  0  0
   11.2901   57.4596   18.6681 H   0  0  0  0  0  0
    7.3076   59.6966   17.8095 H   0  0  0  0  0  0
    7.9113   54.3190   18.1723 H   0  0  0  0  0  0
    8.3775   54.5729   19.8194 H   0  0  0  0  0  0
    7.6501   55.4473   21.6672 H   0  0  0  0  0  0
    6.7777   55.2282   23.9199 H   0  0  0  0  0  0
    4.0423   53.7860   20.0933 H   0  0  0  0  0  0
    2.5109   54.3109   25.7824 H   0  0  0  0  0  0
    2.5059   55.3293   24.3788 H   0  0  0  0  0  0
    4.6582   53.2970   25.2074 H   0  0  0  0  0  0
    4.7720   55.0177   25.3504 H   0  0  0  0  0  0
    0.8275   53.4527   26.1353 H   0  0  0  0  0  0
   -1.3260   53.2944   25.2817 H   0  0  0  0  0  0
   -1.0755   51.7173   24.5617 H   0  0  0  0  0  0
   -2.2815   52.1738   27.1139 H   0  0  0  0  0  0
   -1.8565   50.6362   26.3871 H   0  0  0  0  0  0
   -0.2893   52.2501   28.3823 H   0  0  0  0  0  0
   -0.4174   50.5014   28.2434 H   0  0  0  0  0  0
    1.1032   50.4262   26.3994 H   0  0  0  0  0  0
    1.8435   51.6790   27.4017 H   0  0  0  0  0  0
    4.1882   51.3323   21.2625 H   0  0  0  0  0  0
    3.4675   49.6915   19.5846 H   0  0  0  0  0  0
    1.1214   49.6210   18.8401 H   0  0  0  0  0  0
   -0.5280   51.2210   19.7620 H   0  0  0  0  0  0
    0.1868   52.8967   21.4143 H   0  0  0  0  0  0
  1  2  1  0  0  0
  1 38  1  0  0  0
  1 39  1  0  0  0
  1 40  1  0  0  0
  2  3  1  0  0  0
  2  4  1  0  0  0
  2 41  1  0  0  0
  3 42  1  0  0  0
  3 43  1  0  0  0
  3 44  1  0  0  0
  4  5  1  0  0  0
  4 45  1  0  0  0
  5  6  2  0  0  0
  5  7  1  0  0  0
  7 11  1  0  0  0
  7  8  2  0  0  0
  8  9  1  0  0  0
  8 46  1  0  0  0
  9 10  1  0  0  0
 10 11  2  0  0  0
 10 12  1  0  0  0
 12 13  1  0  0  0
 12 47  1  0  0  0
 12 48  1  0  0  0
 13 14  1  0  0  0
 14 19  2  0  0  0
 14 15  1  0  0  0
 15 16  2  0  0  0
 15 49  1  0  0  0
 16 17  1  0  0  0
 16 50  1  0  0  0
 17 24  1  0  0  0
 17 18  2  0  0  0
 18 19  1  0  0  0
 18 20  1  0  0  0
 19 51  1  0  0  0
 20 21  1  0  0  0
 20 22  1  0  0  0
 20 32  1  0  0  0
 22 23  1  0  0  0
 22 25  1  0  0  0
 23 24  1  0  0  0
 23 52  1  0  0  0
 23 53  1  0  0  0
 24 54  1  0  0  0
 24 55  1  0  0  0
 25 26  2  0  0  0
 25 27  1  0  0  0
 27 31  1  0  0  0
 27 28  1  0  0  0
 27 56  1  0  0  0
 28 29  1  0  0  0
 28 57  1  0  0  0
 28 58  1  0  0  0
 29 30  1  0  0  0
 29 59  1  0  0  0
 29 60  1  0  0  0
 30 31  1  0  0  0
 30 61  1  0  0  0
 30 62  1  0  0  0
 31 63  1  0  0  0
 31 64  1  0  0  0
 32 37  2  0  0  0
 32 33  1  0  0  0
 33 34  2  0  0  0
 33 65  1  0  0  0
 34 35  1  0  0  0
 34 66  1  0  0  0
 35 36  2  0  0  0
 35 67  1  0  0  0
 36 37  1  0  0  0
 36 68  1  0  0  0
 37 69  1  0  0  0
M  END
> <i_i_glide_confnum>
1015

> <i_i_glide_lignum>
4041

> <i_i_glide_posenum>
374

> <i_i_glide_rotatable_bonds>
9

> <i_m_Source_File_Index>
1070

> <b_m_subgroup_collapsed>
0

> <r_i_docking_score>
-4.34689

> <r_i_glide_ecoul>
-4.35024

> <r_i_glide_eff_state_penalty>
0

> <r_i_glide_einternal>
8.79771

> <r_i_glide_emodel>
-49.8834

> <r_i_glide_energy>
-41.56

> <r_i_glide_erotb>
0.644661

> <r_i_glide_esite>
-0.0513862

> <r_i_glide_evdw>
-37.2097

> <r_i_glide_gscore>
-4.34689

> <r_i_glide_hbond>
-0.186853

> <r_i_glide_ligand_efficiency>
-0.120747

> <r_i_glide_ligand_efficiency_ln>
-0.948374

> <r_i_glide_ligand_efficiency_sa>
-0.398698

> <r_i_glide_lipo>
-1.74929

> <r_i_glide_metal>
0

> <r_i_glide_rewards>
-0.491003

> <s_i_glide_gridfile>
wee1_glide-grid

> <s_m_Source_File>
wee1_decoys_glide_SP.sdf

> <s_m_Source_Path>
/Users/zhangxujun/Desktop

> <s_m_entry_id>
1345

> <s_m_entry_name>
wee1_decoys_glide_SP.1070

> <s_m_subgroup_title>
wee1_decoys_glide_SP

> <s_m_subgroupid>
wee1_decoys_glide_SP


$$$$
