ZINC09518361_4166
                    3D
 Schrodinger Suite 2024-2.
 50 54  0  0  1  0            999 V2000
    7.5516   55.9836   20.0203 C   0  0  0  0  0  0
    7.2669   55.4281   18.7744 C   0  0  0  0  0  0
    6.2373   54.5055   18.6174 C   0  0  0  0  0  0
    5.5215   54.1567   19.7647 C   0  0  0  0  0  0
    5.7822   54.6898   21.0549 C   0  0  0  0  0  0
    6.8141   55.6486   21.1615 C   0  0  0  0  0  0
    4.8318   54.0136   21.9247 C   0  0  0  0  0  0
    4.0980   53.1583   21.0873 C   0  0  0  0  0  0
    4.5180   53.2456   19.7926 O   0  0  0  0  0  0
    3.0451   52.2103   21.3816 C   0  0  0  0  0  0
    2.4955   52.2066   22.4838 O   0  0  0  0  0  0
    2.7893   51.3500   20.3714 N   0  0  0  0  0  0
    1.9030   50.2605   20.3178 C   0  0  0  0  0  0
    2.0549   49.4022   19.2285 C   0  0  0  0  0  0
    1.2285   48.2914   19.0850 C   0  0  0  0  0  0
    0.2261   48.0306   20.0304 C   0  0  0  0  0  0
    0.0676   48.8989   21.1104 C   0  0  0  0  0  0
    0.8986   50.0064   21.2619 C   0  0  0  0  0  0
   -0.6391   46.9528   19.9859 O   0  0  0  0  0  0
   -0.5694   46.0137   18.9161 C   0  0  0  0  0  0
   -1.5028   45.0874   19.1339 F   0  0  0  0  0  0
    0.6090   45.3910   18.8799 F   0  0  0  0  0  0
   -0.8339   46.5865   17.7427 F   0  0  0  0  0  0
    4.6505   54.0967   23.3091 N   0  0  0  0  0  0
    5.5297   54.4962   24.2531 C   0  0  0  0  0  0
    6.7046   54.7754   24.0256 O   0  0  0  0  0  0
    5.0245   54.4942   25.6818 C   0  0  0  0  0  0
    5.9536   54.4939   26.7487 C   0  0  0  0  0  0
    5.5386   54.4889   28.0863 C   0  0  0  0  0  0
    4.1735   54.4967   28.3365 C   0  0  0  0  0  0
    3.2616   54.4966   27.3211 C   0  0  0  0  0  0
    3.6450   54.4893   25.9836 C   0  0  0  0  0  0
    2.0089   54.4954   27.8443 O   0  0  0  0  0  0
    2.1690   54.7013   29.2243 C   0  0  0  0  0  0
    3.5230   54.4881   29.5303 O   0  0  0  0  0  0
    8.3793   56.6736   20.0820 H   0  0  0  0  0  0
    7.8616   55.7154   17.9176 H   0  0  0  0  0  0
    6.0132   54.0625   17.6578 H   0  0  0  0  0  0
    7.0681   56.0973   22.1077 H   0  0  0  0  0  0
    3.3609   51.4714   19.5446 H   0  0  0  0  0  0
    2.8205   49.5819   18.4822 H   0  0  0  0  0  0
    1.3894   47.6510   18.2324 H   0  0  0  0  0  0
   -0.7024   48.7055   21.8432 H   0  0  0  0  0  0
    0.7344   50.6496   22.1122 H   0  0  0  0  0  0
    3.7802   53.7098   23.6447 H   0  0  0  0  0  0
    7.0162   54.4899   26.5529 H   0  0  0  0  0  0
    6.2655   54.4873   28.8867 H   0  0  0  0  0  0
    2.8900   54.4941   25.2109 H   0  0  0  0  0  0
    1.5370   54.0024   29.7828 H   0  0  0  0  0  0
    1.8980   55.7329   29.4730 H   0  0  0  0  0  0
  1  6  2  0  0  0
  1  2  1  0  0  0
  1 36  1  0  0  0
  2  3  2  0  0  0
  2 37  1  0  0  0
  3  4  1  0  0  0
  3 38  1  0  0  0
  4  9  1  0  0  0
  4  5  2  0  0  0
  5  6  1  0  0  0
  5  7  1  0  0  0
  6 39  1  0  0  0
  7  8  2  0  0  0
  7 24  1  0  0  0
  8  9  1  0  0  0
  8 10  1  0  0  0
 10 11  2  0  0  0
 10 12  1  0  0  0
 12 13  1  0  0  0
 12 40  1  0  0  0
 13 18  2  0  0  0
 13 14  1  0  0  0
 14 15  2  0  0  0
 14 41  1  0  0  0
 15 16  1  0  0  0
 15 42  1  0  0  0
 16 17  2  0  0  0
 16 19  1  0  0  0
 17 18  1  0  0  0
 17 43  1  0  0  0
 18 44  1  0  0  0
 19 20  1  0  0  0
 20 21  1  0  0  0
 20 22  1  0  0  0
 20 23  1  0  0  0
 24 25  1  0  0  0
 24 45  1  0  0  0
 25 26  2  0  0  0
 25 27  1  0  0  0
 27 32  2  0  0  0
 27 28  1  0  0  0
 28 29  2  0  0  0
 28 46  1  0  0  0
 29 30  1  0  0  0
 29 47  1  0  0  0
 30 35  1  0  0  0
 30 31  2  0  0  0
 31 32  1  0  0  0
 31 33  1  0  0  0
 32 48  1  0  0  0
 33 34  1  0  0  0
 34 35  1  0  0  0
 34 49  1  0  0  0
 34 50  1  0  0  0
M  END
> <i_i_glide_confnum>
32

> <i_i_glide_lignum>
4167

> <i_i_glide_posenum>
347

> <i_i_glide_rotatable_bonds>
8

> <i_m_Source_File_Index>
4500

> <b_m_subgroup_collapsed>
0

> <r_i_docking_score>
-5.72761

> <r_i_glide_ecoul>
-2.8692

> <r_i_glide_eff_state_penalty>
0

> <r_i_glide_einternal>
2.08899

> <r_i_glide_emodel>
-67.3569

> <r_i_glide_energy>
-50.492

> <r_i_glide_erotb>
0.605872

> <r_i_glide_esite>
-0.0369683

> <r_i_glide_evdw>
-47.6228

> <r_i_glide_gscore>
-5.72761

> <r_i_glide_hbond>
-0.086625

> <r_i_glide_ligand_efficiency>
-0.163646

> <r_i_glide_ligand_efficiency_ln>
-1.25734

> <r_i_glide_ligand_efficiency_sa>
-0.535297

> <r_i_glide_lipo>
-2.45418

> <r_i_glide_metal>
0

> <r_i_glide_rewards>
-0.944187

> <s_i_glide_gridfile>
wee1_glide-grid

> <s_m_Source_File>
wee1_decoys_glide_SP.sdf

> <s_m_Source_Path>
/Users/zhangxujun/Desktop

> <s_m_entry_id>
4775

> <s_m_entry_name>
wee1_decoys_glide_SP.4500

> <s_m_subgroup_title>
wee1_decoys_glide_SP

> <s_m_subgroupid>
wee1_decoys_glide_SP


$$$$
