ZINC15620658_4176
                    3D
 Schrodinger Suite 2024-2.
 66 69  0  0  1  0            999 V2000
    6.1527   56.5321   19.0495 C   0  0  0  0  0  0
    5.3919   55.2427   19.3015 C   0  0  0  0  0  0
    4.5507   54.7168   18.3229 C   0  0  0  0  0  0
    3.8197   53.5493   18.5607 C   0  0  0  0  0  0
    3.9195   52.9062   19.8093 C   0  0  0  0  0  0
    4.8146   53.4051   20.7816 C   0  0  0  0  0  0
    5.5195   54.5839   20.5239 C   0  0  0  0  0  0
    5.1067   52.6665   22.0814 C   0  0  0  0  0  0
    3.1232   51.7656   20.0294 N   0  0  0  0  0  0
    2.2189   51.6307   21.0226 C   0  0  0  0  0  0
    2.0239   52.4946   21.8855 O   0  0  0  0  0  0
    1.3778   50.3349   20.9912 C   0  0  0  0  0  0
    0.8064   50.0556   22.3117 N   0  0  0  0  0  0
   -0.3316   50.5867   22.8012 C   0  0  0  0  0  0
   -1.1380   51.1834   22.0849 O   0  0  0  0  0  0
   -0.6009   50.4349   24.3253 C   0  0  0  0  0  0
    0.7046   50.0871   25.1050 C   0  0  0  0  0  0
    0.5294   50.1333   26.6287 C   0  0  0  0  0  0
   -0.0664   51.4159   27.0375 N   0  0  0  0  0  0
   -1.3730   51.7524   26.4280 C   0  0  0  0  0  0
   -1.3095   51.7162   24.8797 C   0  0  0  0  0  0
    0.7931   52.5064   28.1499 S   0  0  0  0  0  0
   -0.0818   53.6374   28.4802 O   0  0  0  0  0  0
    1.4047   51.6969   29.2113 O   0  0  0  0  0  0
    2.1616   53.1870   27.2067 C   0  0  0  0  0  0
    1.9884   53.5717   25.8781 C   0  0  0  0  0  0
    3.0511   54.0792   25.1354 C   0  0  0  0  0  0
    4.3294   54.2251   25.7248 C   0  0  0  0  0  0
    5.4388   54.7173   24.9921 C   0  0  0  0  0  0
    6.6870   54.8400   25.5961 C   0  0  0  0  0  0
    6.8517   54.4934   26.9345 C   0  0  0  0  0  0
    5.7855   54.0075   27.6850 C   0  0  0  0  0  0
    4.5079   53.8563   27.0933 C   0  0  0  0  0  0
    3.4065   53.3382   27.8187 C   0  0  0  0  0  0
    2.9157   53.0142   17.4563 C   0  0  0  0  0  0
    5.6899   57.1244   18.2595 H   0  0  0  0  0  0
    7.1866   56.3202   18.7802 H   0  0  0  0  0  0
    6.1535   57.1523   19.9457 H   0  0  0  0  0  0
    4.4588   55.2212   17.3718 H   0  0  0  0  0  0
    6.1941   54.9780   21.2699 H   0  0  0  0  0  0
    5.1164   51.5892   21.9163 H   0  0  0  0  0  0
    6.0852   52.9252   22.4817 H   0  0  0  0  0  0
    4.3585   52.8972   22.8356 H   0  0  0  0  0  0
    3.1891   51.0501   19.3180 H   0  0  0  0  0  0
    0.5884   50.4310   20.2448 H   0  0  0  0  0  0
    2.0079   49.4894   20.7081 H   0  0  0  0  0  0
    1.4114   49.5624   22.9508 H   0  0  0  0  0  0
   -1.3235   49.6235   24.4208 H   0  0  0  0  0  0
    1.0584   49.0799   24.8758 H   0  0  0  0  0  0
    1.4721   50.8318   24.8818 H   0  0  0  0  0  0
   -0.0960   49.3146   26.9745 H   0  0  0  0  0  0
    1.4870   50.0175   27.1364 H   0  0  0  0  0  0
   -2.1086   51.0416   26.8099 H   0  0  0  0  0  0
   -1.6882   52.7373   26.7747 H   0  0  0  0  0  0
   -0.7533   52.6092   24.5986 H   0  0  0  0  0  0
   -2.3352   51.7873   24.5135 H   0  0  0  0  0  0
    1.0284   53.4716   25.4033 H   0  0  0  0  0  0
    2.9014   54.3601   24.1011 H   0  0  0  0  0  0
    5.3099   54.9888   23.9542 H   0  0  0  0  0  0
    7.5148   55.2052   25.0077 H   0  0  0  0  0  0
    7.8182   54.5891   27.4048 H   0  0  0  0  0  0
    5.9322   53.7343   28.7199 H   0  0  0  0  0  0
    3.5456   53.0486   28.8501 H   0  0  0  0  0  0
    3.2129   51.9980   17.1904 H   0  0  0  0  0  0
    1.8826   52.9778   17.8028 H   0  0  0  0  0  0
    2.9503   53.6243   16.5526 H   0  0  0  0  0  0
  1  2  1  0  0  0
  1 36  1  0  0  0
  1 37  1  0  0  0
  1 38  1  0  0  0
  2  7  2  0  0  0
  2  3  1  0  0  0
  3  4  2  0  0  0
  3 39  1  0  0  0
  4  5  1  0  0  0
  4 35  1  0  0  0
  5  6  2  0  0  0
  5  9  1  0  0  0
  6  7  1  0  0  0
  6  8  1  0  0  0
  7 40  1  0  0  0
  8 41  1  0  0  0
  8 42  1  0  0  0
  8 43  1  0  0  0
  9 10  1  0  0  0
  9 44  1  0  0  0
 10 11  2  0  0  0
 10 12  1  0  0  0
 12 13  1  0  0  0
 12 45  1  0  0  0
 12 46  1  0  0  0
 13 14  1  0  0  0
 13 47  1  0  0  0
 14 15  2  0  0  0
 14 16  1  0  0  0
 16 21  1  0  0  0
 16 17  1  0  0  0
 16 48  1  0  0  0
 17 18  1  0  0  0
 17 49  1  0  0  0
 17 50  1  0  0  0
 18 19  1  0  0  0
 18 51  1  0  0  0
 18 52  1  0  0  0
 19 20  1  0  0  0
 19 22  1  0  0  0
 20 21  1  0  0  0
 20 53  1  0  0  0
 20 54  1  0  0  0
 21 55  1  0  0  0
 21 56  1  0  0  0
 22 23  2  0  0  0
 22 24  2  0  0  0
 22 25  1  0  0  0
 25 34  2  0  0  0
 25 26  1  0  0  0
 26 27  2  0  0  0
 26 57  1  0  0  0
 27 28  1  0  0  0
 27 58  1  0  0  0
 28 33  2  0  0  0
 28 29  1  0  0  0
 29 30  2  0  0  0
 29 59  1  0  0  0
 30 31  1  0  0  0
 30 60  1  0  0  0
 31 32  2  0  0  0
 31 61  1  0  0  0
 32 33  1  0  0  0
 32 62  1  0  0  0
 33 34  1  0  0  0
 34 63  1  0  0  0
 35 64  1  0  0  0
 35 65  1  0  0  0
 35 66  1  0  0  0
M  END
> <i_i_glide_confnum>
93

> <i_i_glide_lignum>
4177

> <i_i_glide_posenum>
38

> <i_i_glide_rotatable_bonds>
8

> <i_m_Source_File_Index>
3125

> <b_m_subgroup_collapsed>
0

> <r_i_docking_score>
-4.84852

> <r_i_glide_ecoul>
-3.25256

> <r_i_glide_eff_state_penalty>
0

> <r_i_glide_einternal>
7.28447

> <r_i_glide_emodel>
-61.6977

> <r_i_glide_energy>
-51.0671

> <r_i_glide_erotb>
0.668893

> <r_i_glide_esite>
-0.0788112

> <r_i_glide_evdw>
-47.8145

> <r_i_glide_gscore>
-4.84852

> <r_i_glide_hbond>
0

> <r_i_glide_ligand_efficiency>
-0.138529

> <r_i_glide_ligand_efficiency_ln>
-1.06436

> <r_i_glide_ligand_efficiency_sa>
-0.453138

> <r_i_glide_lipo>
-2.74513

> <r_i_glide_metal>
0

> <r_i_glide_rewards>
0.185143

> <s_i_glide_gridfile>
wee1_glide-grid

> <s_m_Source_File>
wee1_decoys_glide_SP.sdf

> <s_m_Source_Path>
/Users/zhangxujun/Desktop

> <s_m_entry_id>
3400

> <s_m_entry_name>
wee1_decoys_glide_SP.3125

> <s_m_subgroup_title>
wee1_decoys_glide_SP

> <s_m_subgroupid>
wee1_decoys_glide_SP


$$$$
