ZINC39684186_5552
                    3D
 Schrodinger Suite 2024-2.
 67 71  0  0  1  0            999 V2000
    2.9205   53.9448   28.2881 C   0  0  0  0  0  0
    4.1433   54.1083   27.3999 C   0  0  0  0  0  0
    5.4017   54.2501   27.9932 C   0  0  0  0  0  0
    6.5661   54.4076   27.2494 C   0  0  0  0  0  0
    6.5332   54.4448   25.8569 C   0  0  0  0  0  0
    5.2998   54.3016   25.2057 C   0  0  0  0  0  0
    4.9123   54.2852   23.8203 C   0  0  0  0  0  0
    3.5385   54.0968   23.8247 C   0  0  0  0  0  0
    3.0759   54.0114   25.1111 N   0  0  0  0  0  0
    4.1231   54.1334   25.9975 C   0  0  0  0  0  0
    5.8584   54.4507   22.6441 C   0  0  0  0  0  0
    5.1361   54.5081   21.2856 C   0  0  0  0  0  0
    6.0243   54.6823   20.1388 N   0  0  0  0  0  0
    6.7221   55.7885   19.8111 C   0  0  0  0  0  0
    6.7040   56.8149   20.4927 O   0  0  0  0  0  0
    7.6176   55.7770   18.5413 C   0  0  1  0  0  0
    8.6302   56.0160   18.8744 H   0  0  0  0  0  0
    7.7055   54.3561   17.9338 C   0  0  0  0  0  0
    7.9559   54.5930   16.5168 N   0  0  0  0  0  0
    7.8540   56.0141   16.1658 C   0  0  0  0  0  0
    7.1338   56.6811   17.3685 C   0  0  0  0  0  0
    7.4918   58.1747   17.5707 C   0  0  0  0  0  0
    7.1536   59.0220   16.3241 C   0  0  0  0  0  0
    5.6406   58.8989   16.0494 N   0  3  0  0  0  0
    5.1158   57.4514   15.9432 C   0  0  0  0  0  0
    5.5808   56.6674   17.1882 C   0  0  0  0  0  0
    8.2788   53.5645   15.6881 C   0  0  0  0  0  0
    8.3896   52.3992   16.0723 O   0  0  0  0  0  0
    8.4769   53.8714   14.2979 C   0  0  0  0  0  0
    7.4683   54.3293   13.4502 C   0  0  0  0  0  0
    8.0270   54.6161   11.8381 S   0  0  0  0  0  0
    9.6237   54.1128   12.2830 C   0  0  0  0  0  0
    9.7040   53.7182   13.6170 C   0  0  0  0  0  0
   10.8608   53.2712   14.2044 O   0  0  0  0  0  0
   11.1289   51.9041   13.9140 C   0  0  0  0  0  0
   10.8815   54.1466   11.1103 Cl  0  0  0  0  0  0
    3.1752   53.9706   29.3475 H   0  0  0  0  0  0
    2.2089   54.7475   28.0948 H   0  0  0  0  0  0
    2.4321   52.9929   28.0825 H   0  0  0  0  0  0
    5.4890   54.2446   29.0706 H   0  0  0  0  0  0
    7.5053   54.4957   27.7637 H   0  0  0  0  0  0
    7.4398   54.5626   25.2793 H   0  0  0  0  0  0
    2.8384   54.0213   23.0057 H   0  0  0  0  0  0
    2.0995   53.8675   25.3352 H   0  0  0  0  0  0
    6.5807   53.6361   22.6397 H   0  0  0  0  0  0
    6.4377   55.3642   22.7785 H   0  0  0  0  0  0
    4.3864   55.2923   21.2930 H   0  0  0  0  0  0
    4.5838   53.5796   21.1315 H   0  0  0  0  0  0
    6.0997   53.8835   19.5285 H   0  0  0  0  0  0
    6.7437   53.8389   17.9530 H   0  0  0  0  0  0
    8.4911   53.7644   18.4093 H   0  0  0  0  0  0
    8.8773   56.3970   16.1359 H   0  0  0  0  0  0
    7.4149   56.2498   15.2010 H   0  0  0  0  0  0
    7.0201   58.5878   18.4658 H   0  0  0  0  0  0
    8.5657   58.2667   17.7489 H   0  0  0  0  0  0
    7.3421   60.0894   16.4807 H   0  0  0  0  0  0
    7.6730   58.6978   15.4205 H   0  0  0  0  0  0
    5.1614   59.3851   16.8026 H   0  0  0  0  0  0
    4.0285   57.5244   15.8861 H   0  0  0  0  0  0
    5.4839   57.0466   14.9997 H   0  0  0  0  0  0
    5.2352   55.6384   17.0781 H   0  0  0  0  0  0
    5.0668   57.0457   18.0747 H   0  0  0  0  0  0
    6.4327   54.5109   13.7017 H   0  0  0  0  0  0
   12.0441   51.5983   14.4220 H   0  0  0  0  0  0
   10.3252   51.2537   14.2650 H   0  0  0  0  0  0
   11.2730   51.7325   12.8456 H   0  0  0  0  0  0
    5.3927   59.4333   15.2242 H   0  0  0  0  0  0
  1 37  1  0  0  0
  1 38  1  0  0  0
  1 39  1  0  0  0
  1  2  1  0  0  0
  2 10  2  0  0  0
  2  3  1  0  0  0
  3 40  1  0  0  0
  3  4  2  0  0  0
  4 41  1  0  0  0
  4  5  1  0  0  0
  5 42  1  0  0  0
  5  6  2  0  0  0
  6 10  1  0  0  0
  6  7  1  0  0  0
  7 11  1  0  0  0
  7  8  2  0  0  0
  8  9  1  0  0  0
  8 43  1  0  0  0
  9 44  1  0  0  0
  9 10  1  0  0  0
 11 12  1  0  0  0
 11 45  1  0  0  0
 11 46  1  0  0  0
 12 13  1  0  0  0
 12 47  1  0  0  0
 12 48  1  0  0  0
 13 14  1  0  0  0
 13 49  1  0  0  0
 14 15  2  0  0  0
 14 16  1  0  0  0
 16 17  1  0  0  0
 16 21  1  0  0  0
 16 18  1  0  0  0
 18 19  1  0  0  0
 18 50  1  0  0  0
 18 51  1  0  0  0
 19 20  1  0  0  0
 19 27  1  0  0  0
 20 21  1  0  0  0
 20 52  1  0  0  0
 20 53  1  0  0  0
 21 26  1  0  0  0
 21 22  1  0  0  0
 22 23  1  0  0  0
 22 54  1  0  0  0
 22 55  1  0  0  0
 23 24  1  0  0  0
 23 56  1  0  0  0
 23 57  1  0  0  0
 24 25  1  0  0  0
 24 58  1  0  0  0
 24 67  1  0  0  0
 25 26  1  0  0  0
 25 59  1  0  0  0
 25 60  1  0  0  0
 26 61  1  0  0  0
 26 62  1  0  0  0
 27 28  2  0  0  0
 27 29  1  0  0  0
 29 33  1  0  0  0
 29 30  2  0  0  0
 30 31  1  0  0  0
 30 63  1  0  0  0
 31 32  1  0  0  0
 32 33  2  0  0  0
 32 36  1  0  0  0
 33 34  1  0  0  0
 34 35  1  0  0  0
 35 64  1  0  0  0
 35 65  1  0  0  0
 35 66  1  0  0  0
M  CHG  1  24   1
M  END
> <i_i_glide_confnum>
47

> <i_i_glide_lignum>
5553

> <i_i_glide_posenum>
216

> <i_i_glide_rotatable_bonds>
8

> <i_m_Source_File_Index>
4548

> <b_m_subgroup_collapsed>
0

> <r_i_docking_score>
-5.60087

> <r_i_glide_ecoul>
-6.35707

> <r_i_glide_eff_state_penalty>
0

> <r_i_glide_einternal>
3.10671

> <r_i_glide_emodel>
-58.1129

> <r_i_glide_energy>
-41.1288

> <r_i_glide_erotb>
0.539407

> <r_i_glide_esite>
-0.0862447

> <r_i_glide_evdw>
-34.7718

> <r_i_glide_gscore>
-5.60087

> <r_i_glide_hbond>
-0.327723

> <r_i_glide_ligand_efficiency>
-0.160025

> <r_i_glide_ligand_efficiency_ln>
-1.22952

> <r_i_glide_ligand_efficiency_sa>
-0.523452

> <r_i_glide_lipo>
-2.80044

> <r_i_glide_metal>
0

> <r_i_glide_rewards>
-0.233725

> <s_i_glide_gridfile>
wee1_glide-grid

> <s_m_Source_File>
wee1_decoys_glide_SP.sdf

> <s_m_Source_Path>
/Users/zhangxujun/Desktop

> <s_m_entry_id>
4823

> <s_m_entry_name>
wee1_decoys_glide_SP.4548

> <s_m_subgroup_title>
wee1_decoys_glide_SP

> <s_m_subgroupid>
wee1_decoys_glide_SP


$$$$
