ZINC39657691_334
                    3D
 Schrodinger Suite 2024-2.
 76 79  0  0  1  0            999 V2000
    0.1407   47.6016   19.6732 C   0  0  0  0  0  0
   -1.2803   47.0089   19.6907 C   0  0  0  0  0  0
   -2.3490   47.8258   18.9195 C   0  0  0  0  0  0
   -3.0263   48.9986   19.6830 C   0  0  2  0  0  0
   -3.4870   48.5795   20.5752 H   0  0  0  0  0  0
   -4.1911   49.5834   18.8506 C   0  0  0  0  0  0
   -2.0168   50.1082   20.0713 C   0  0  0  0  0  0
   -1.5663   50.8270   19.1768 O   0  0  0  0  0  0
   -1.6279   50.2509   21.3630 N   0  0  0  0  0  0
   -0.6276   51.2376   21.7609 C   0  0  0  0  0  0
   -0.8892   51.4190   23.2687 C   0  0  1  0  0  0
   -1.6470   52.1950   23.3938 H   0  0  0  0  0  0
   -1.4142   50.0298   23.7472 C   0  0  0  0  0  0
   -2.2065   49.5479   22.5090 C   0  0  0  0  0  0
   -0.2647   49.0268   24.1097 C   0  0  0  0  0  0
   -0.7811   47.6324   24.5103 C   0  0  0  0  0  0
   -1.7776   47.7912   25.6816 N   0  3  0  0  0  0
   -2.9183   48.7954   25.4156 C   0  0  0  0  0  0
   -2.2828   50.1417   25.0256 C   0  0  0  0  0  0
    0.4214   51.8878   23.9500 C   0  0  0  0  0  0
    1.5268   51.7121   23.4371 O   0  0  0  0  0  0
    0.2626   52.4883   25.1354 N   0  0  0  0  0  0
    1.3556   52.9471   25.9898 C   0  0  0  0  0  0
    1.1359   52.7562   27.4911 C   0  0  0  0  0  0
    0.2564   51.7673   27.9554 C   0  0  0  0  0  0
   -0.0959   51.6959   29.3007 C   0  0  0  0  0  0
    0.4725   52.5653   30.2230 C   0  0  0  0  0  0
    1.3807   53.5231   29.7851 C   0  0  0  0  0  0
    1.7142   53.6278   28.4328 C   0  0  0  0  0  0
    2.7053   55.0201   27.9904 S   0  0  0  0  0  0
    4.0453   54.5078   26.9068 C   0  0  0  0  0  0
    3.9767   54.8245   25.5445 C   0  0  0  0  0  0
    5.0545   54.5958   24.6917 C   0  0  0  0  0  0
    6.2474   54.0976   25.1979 C   0  0  0  0  0  0
    6.3443   53.7956   26.5528 C   0  0  0  0  0  0
    5.2566   54.0022   27.4108 C   0  0  0  0  0  0
    5.4516   53.7306   28.8818 C   0  0  0  0  0  0
    5.3546   54.8968   29.6710 O   0  0  0  0  0  0
    0.8632   46.8962   20.0811 H   0  0  0  0  0  0
    0.2235   48.5100   20.2663 H   0  0  0  0  0  0
    0.4600   47.8391   18.6580 H   0  0  0  0  0  0
   -1.2241   46.0186   19.2385 H   0  0  0  0  0  0
   -1.6016   46.8402   20.7183 H   0  0  0  0  0  0
   -1.9264   48.1837   17.9783 H   0  0  0  0  0  0
   -3.1335   47.1259   18.6256 H   0  0  0  0  0  0
   -4.7018   50.3878   19.3838 H   0  0  0  0  0  0
   -3.8431   49.9924   17.8995 H   0  0  0  0  0  0
   -4.9410   48.8235   18.6249 H   0  0  0  0  0  0
    0.3348   50.7540   21.5829 H   0  0  0  0  0  0
   -0.7005   52.1867   21.2274 H   0  0  0  0  0  0
   -3.2246   49.9296   22.6030 H   0  0  0  0  0  0
   -2.2804   48.4655   22.4230 H   0  0  0  0  0  0
    0.4047   48.9097   23.2555 H   0  0  0  0  0  0
    0.3708   49.4035   24.9134 H   0  0  0  0  0  0
   -1.3030   47.1051   23.7126 H   0  0  0  0  0  0
    0.0234   46.9973   24.8816 H   0  0  0  0  0  0
   -2.1685   46.8953   25.9342 H   0  0  0  0  0  0
   -3.5538   48.3664   24.6404 H   0  0  0  0  0  0
   -3.4795   48.8577   26.3505 H   0  0  0  0  0  0
   -1.7208   50.5590   25.8577 H   0  0  0  0  0  0
   -3.0947   50.8488   24.8492 H   0  0  0  0  0  0
   -0.6691   52.7320   25.4343 H   0  0  0  0  0  0
    2.3136   52.4993   25.7182 H   0  0  0  0  0  0
    1.4373   54.0089   25.7728 H   0  0  0  0  0  0
   -0.1873   51.0607   27.2746 H   0  0  0  0  0  0
   -0.7997   50.9445   29.6338 H   0  0  0  0  0  0
    0.1977   52.5016   31.2671 H   0  0  0  0  0  0
    1.7932   54.2249   30.4925 H   0  0  0  0  0  0
    3.1037   55.2921   25.1268 H   0  0  0  0  0  0
    4.9737   54.8389   23.6425 H   0  0  0  0  0  0
    7.0913   53.9385   24.5411 H   0  0  0  0  0  0
    7.2774   53.4074   26.9341 H   0  0  0  0  0  0
    4.7126   53.0024   29.2172 H   0  0  0  0  0  0
    6.4351   53.2968   29.0537 H   0  0  0  0  0  0
    6.1303   55.4498   29.5039 H   0  0  0  0  0  0
   -1.2975   48.0921   26.5360 H   0  0  0  0  0  0
  1  2  1  0  0  0
  1 39  1  0  0  0
  1 40  1  0  0  0
  1 41  1  0  0  0
  2  3  1  0  0  0
  2 42  1  0  0  0
  2 43  1  0  0  0
  3  4  1  0  0  0
  3 44  1  0  0  0
  3 45  1  0  0  0
  4  5  1  0  0  0
  4  6  1  0  0  0
  4  7  1  0  0  0
  6 46  1  0  0  0
  6 47  1  0  0  0
  6 48  1  0  0  0
  7  8  2  0  0  0
  7  9  1  0  0  0
  9 14  1  0  0  0
  9 10  1  0  0  0
 10 11  1  0  0  0
 10 49  1  0  0  0
 10 50  1  0  0  0
 11 12  1  0  0  0
 11 13  1  0  0  0
 11 20  1  0  0  0
 13 19  1  0  0  0
 13 14  1  0  0  0
 13 15  1  0  0  0
 14 51  1  0  0  0
 14 52  1  0  0  0
 15 16  1  0  0  0
 15 53  1  0  0  0
 15 54  1  0  0  0
 16 17  1  0  0  0
 16 55  1  0  0  0
 16 56  1  0  0  0
 17 18  1  0  0  0
 17 57  1  0  0  0
 17 76  1  0  0  0
 18 19  1  0  0  0
 18 58  1  0  0  0
 18 59  1  0  0  0
 19 60  1  0  0  0
 19 61  1  0  0  0
 20 21  2  0  0  0
 20 22  1  0  0  0
 22 23  1  0  0  0
 22 62  1  0  0  0
 23 24  1  0  0  0
 23 63  1  0  0  0
 23 64  1  0  0  0
 24 29  2  0  0  0
 24 25  1  0  0  0
 25 26  2  0  0  0
 25 65  1  0  0  0
 26 27  1  0  0  0
 26 66  1  0  0  0
 27 28  2  0  0  0
 27 67  1  0  0  0
 28 29  1  0  0  0
 28 68  1  0  0  0
 29 30  1  0  0  0
 30 31  1  0  0  0
 31 36  2  0  0  0
 31 32  1  0  0  0
 32 33  2  0  0  0
 32 69  1  0  0  0
 33 34  1  0  0  0
 33 70  1  0  0  0
 34 35  2  0  0  0
 34 71  1  0  0  0
 35 36  1  0  0  0
 35 72  1  0  0  0
 36 37  1  0  0  0
 37 38  1  0  0  0
 37 73  1  0  0  0
 37 74  1  0  0  0
 38 75  1  0  0  0
M  CHG  1  17   1
M  END
> <i_i_glide_confnum>
492

> <i_i_glide_lignum>
335

> <i_i_glide_posenum>
54

> <i_i_glide_rotatable_bonds>
12

> <i_m_Source_File_Index>
575

> <b_m_subgroup_collapsed>
0

> <r_i_docking_score>
-5.64158

> <r_i_glide_ecoul>
-7.53022

> <r_i_glide_eff_state_penalty>
0

> <r_i_glide_einternal>
8.65096

> <r_i_glide_emodel>
-55.2388

> <r_i_glide_energy>
-42.1124

> <r_i_glide_erotb>
0.785513

> <r_i_glide_esite>
-0.100515

> <r_i_glide_evdw>
-34.5822

> <r_i_glide_gscore>
-5.64158

> <r_i_glide_hbond>
-0.499943

> <r_i_glide_ligand_efficiency>
-0.156711

> <r_i_glide_ligand_efficiency_ln>
-1.23084

> <r_i_glide_ligand_efficiency_sa>
-0.517447

> <r_i_glide_lipo>
-2.76923

> <r_i_glide_metal>
0

> <r_i_glide_rewards>
-0.198762

> <s_i_glide_gridfile>
wee1_glide-grid

> <s_m_Source_File>
wee1_decoys_glide_SP.sdf

> <s_m_Source_Path>
/Users/zhangxujun/Desktop

> <s_m_entry_id>
850

> <s_m_entry_name>
wee1_decoys_glide_SP.575

> <s_m_subgroup_title>
wee1_decoys_glide_SP

> <s_m_subgroupid>
wee1_decoys_glide_SP


$$$$
