ZINC03338576_1015
                    3D
 Schrodinger Suite 2024-2.
 50 52  0  0  1  0            999 V2000
    7.8113   55.6957   21.1643 C   0  0  0  0  0  0
    7.8018   55.5780   19.7800 C   0  0  0  0  0  0
    6.6885   55.0421   19.1422 C   0  0  0  0  0  0
    5.5679   54.6154   19.8717 C   0  0  0  0  0  0
    5.5567   54.7773   21.2783 C   0  0  0  0  0  0
    6.7021   55.2964   21.9046 C   0  0  0  0  0  0
    4.3654   54.4090   22.0895 C   0  0  0  0  0  0
    4.3138   54.2053   23.4230 C   0  0  0  0  0  0
    3.1170   53.8356   24.1111 C   0  0  0  0  0  0
    3.1022   53.7438   25.3769 N   0  0  0  0  0  0
    1.9195   53.2963   25.8513 N   0  0  0  0  0  0
    1.6765   53.1262   27.1688 C   0  0  0  0  0  0
    2.4743   53.4503   28.0543 O   0  0  0  0  0  0
    0.3461   52.4948   27.5378 C   0  0  0  0  0  0
   -0.5889   52.0997   26.5655 C   0  0  0  0  0  0
   -1.8021   51.5209   26.9326 C   0  0  0  0  0  0
   -2.1026   51.2967   28.2801 C   0  0  0  0  0  0
   -1.1751   51.6961   29.2494 C   0  0  0  0  0  0
    0.0325   52.2821   28.8865 C   0  0  0  0  0  0
   -3.2956   50.7093   28.7355 N   0  0  0  0  0  0
   -4.6923   50.2201   27.7523 S   0  0  0  0  0  0
   -4.2211   49.7442   26.4460 O   0  0  0  0  0  0
   -5.5050   49.3597   28.6193 O   0  0  0  0  0  0
   -5.6289   51.7249   27.4948 C   0  0  0  0  0  0
   -6.5721   52.1205   28.4462 C   0  0  0  0  0  0
   -7.2943   53.2969   28.2577 C   0  0  0  0  0  0
   -7.0686   54.0770   27.1251 C   0  0  0  0  0  0
   -6.1284   53.6844   26.1749 C   0  0  0  0  0  0
   -5.4035   52.5066   26.3596 C   0  0  0  0  0  0
   -8.0581   55.6901   26.8809 Br  0  0  0  0  0  0
    4.4428   53.9982   19.1257 N   0  3  0  0  0  0
    4.1470   54.4800   18.0348 O   0  0  0  0  0  0
    3.8848   53.0163   19.6034 O   0  5  0  0  0  0
    8.6809   56.0963   21.6669 H   0  0  0  0  0  0
    8.6603   55.8858   19.2018 H   0  0  0  0  0  0
    6.7045   54.9362   18.0668 H   0  0  0  0  0  0
    6.7429   55.4262   22.9761 H   0  0  0  0  0  0
    3.4369   54.3200   21.5384 H   0  0  0  0  0  0
    5.1955   54.2957   24.0486 H   0  0  0  0  0  0
    2.2679   53.6389   23.4552 H   0  0  0  0  0  0
    1.2322   53.0517   25.1542 H   0  0  0  0  0  0
   -0.4077   52.2323   25.5091 H   0  0  0  0  0  0
   -2.4809   51.2430   26.1442 H   0  0  0  0  0  0
   -1.3682   51.5164   30.3010 H   0  0  0  0  0  0
    0.7262   52.5614   29.6666 H   0  0  0  0  0  0
   -3.3137   50.4071   29.6991 H   0  0  0  0  0  0
   -6.7463   51.5192   29.3249 H   0  0  0  0  0  0
   -8.0286   53.5985   28.9896 H   0  0  0  0  0  0
   -5.9607   54.2830   25.2904 H   0  0  0  0  0  0
   -4.6772   52.2035   25.6207 H   0  0  0  0  0  0
  1  6  2  0  0  0
  1  2  1  0  0  0
  1 34  1  0  0  0
  2  3  2  0  0  0
  2 35  1  0  0  0
  3  4  1  0  0  0
  3 36  1  0  0  0
  4  5  2  0  0  0
  4 31  1  0  0  0
  5  6  1  0  0  0
  5  7  1  0  0  0
  6 37  1  0  0  0
  7  8  2  0  0  0
  7 38  1  0  0  0
  8  9  1  0  0  0
  8 39  1  0  0  0
  9 10  2  0  0  0
  9 40  1  0  0  0
 10 11  1  0  0  0
 11 12  1  0  0  0
 11 41  1  0  0  0
 12 13  2  0  0  0
 12 14  1  0  0  0
 14 19  2  0  0  0
 14 15  1  0  0  0
 15 16  2  0  0  0
 15 42  1  0  0  0
 16 17  1  0  0  0
 16 43  1  0  0  0
 17 18  2  0  0  0
 17 20  1  0  0  0
 18 19  1  0  0  0
 18 44  1  0  0  0
 19 45  1  0  0  0
 20 21  1  0  0  0
 20 46  1  0  0  0
 21 22  2  0  0  0
 21 23  2  0  0  0
 21 24  1  0  0  0
 24 29  2  0  0  0
 24 25  1  0  0  0
 25 26  2  0  0  0
 25 47  1  0  0  0
 26 27  1  0  0  0
 26 48  1  0  0  0
 27 28  2  0  0  0
 27 30  1  0  0  0
 28 29  1  0  0  0
 28 49  1  0  0  0
 29 50  1  0  0  0
 31 32  2  0  0  0
 31 33  1  0  0  0
M  CHG  2  31   1  33  -1
M  END
> <i_i_glide_confnum>
243

> <i_i_glide_lignum>
1016

> <i_i_glide_posenum>
239

> <i_i_glide_rotatable_bonds>
9

> <i_m_Source_File_Index>
2734

> <b_m_subgroup_collapsed>
0

> <r_i_docking_score>
-3.79211

> <r_i_glide_ecoul>
-0.147618

> <r_i_glide_eff_state_penalty>
0

> <r_i_glide_einternal>
1.37252

> <r_i_glide_emodel>
-51.4145

> <r_i_glide_energy>
-40.1352

> <r_i_glide_erotb>
0.588301

> <r_i_glide_esite>
-0.245412

> <r_i_glide_evdw>
-39.9875

> <r_i_glide_gscore>
-3.79211

> <r_i_glide_hbond>
0

> <r_i_glide_ligand_efficiency>
-0.114913

> <r_i_glide_ligand_efficiency_ln>
-0.843346

> <r_i_glide_ligand_efficiency_sa>
-0.368586

> <r_i_glide_lipo>
-1.51292

> <r_i_glide_metal>
0

> <r_i_glide_rewards>
-0.600564

> <s_i_glide_gridfile>
wee1_glide-grid

> <s_m_Source_File>
wee1_decoys_glide_SP.sdf

> <s_m_Source_Path>
/Users/zhangxujun/Desktop

> <s_m_entry_id>
3009

> <s_m_entry_name>
wee1_decoys_glide_SP.2734

> <s_m_subgroup_title>
wee1_decoys_glide_SP

> <s_m_subgroupid>
wee1_decoys_glide_SP


$$$$
