ZINC59367532_2992
                    3D
 Schrodinger Suite 2024-2.
 50 51  0  0  1  0            999 V2000
    8.0057   55.4758   20.9179 C   0  0  0  0  0  0
    6.7624   56.2181   21.4346 C   0  0  0  0  0  0
    5.5401   55.4959   21.2802 O   0  0  0  0  0  0
    5.4127   54.2697   21.9400 C   0  0  2  0  0  0
    6.3043   53.6952   21.7295 H   0  0  0  0  0  0
    4.1982   53.4778   21.3770 C   0  0  2  0  0  0
    4.4264   52.4140   21.4989 H   0  0  0  0  0  0
    3.9038   53.7550   19.9962 N   0  0  0  0  0  0
    4.7569   53.6164   18.9652 C   0  0  0  0  0  0
    5.9040   53.1829   19.0896 O   0  0  0  0  0  0
    4.2293   54.0248   17.6154 C   0  0  0  0  0  0
    3.3887   55.1380   17.4774 C   0  0  0  0  0  0
    2.9163   55.5056   16.2199 C   0  0  0  0  0  0
    3.2844   54.7633   15.1001 C   0  0  0  0  0  0
    4.1262   53.6617   15.2253 C   0  0  0  0  0  0
    4.6033   53.2949   16.4809 C   0  0  0  0  0  0
    2.6286   55.2560   13.3836 Br  0  0  0  0  0  0
    3.0613   53.8007   22.1337 O   0  0  0  0  0  0
    1.9485   52.9186   22.0386 C   0  0  0  0  0  0
    1.0264   53.1915   23.2330 C   0  0  0  0  0  0
    5.2621   54.4965   23.3450 N   0  0  0  0  0  0
    6.1052   54.1102   24.3102 C   0  0  0  0  0  0
    7.2393   53.6967   24.0818 O   0  0  0  0  0  0
    5.5564   54.1643   25.7155 C   0  0  0  0  0  0
    4.1702   54.1886   25.9524 C   0  0  0  0  0  0
    3.6795   54.1684   27.2506 C   0  0  0  0  0  0
    4.5676   54.1262   28.3169 C   0  0  0  0  0  0
    5.9413   54.1104   28.1041 C   0  0  0  0  0  0
    6.4354   54.1274   26.8055 C   0  0  0  0  0  0
    3.8789   54.0917   30.0817 Br  0  0  0  0  0  0
    8.8625   56.1395   20.8127 H   0  0  0  0  0  0
    8.3040   54.7035   21.6241 H   0  0  0  0  0  0
    7.8226   55.0140   19.9483 H   0  0  0  0  0  0
    6.6472   57.1490   20.8803 H   0  0  0  0  0  0
    6.9051   56.4945   22.4769 H   0  0  0  0  0  0
    2.9929   54.1595   19.8121 H   0  0  0  0  0  0
    3.1037   55.7254   18.3369 H   0  0  0  0  0  0
    2.2724   56.3658   16.1122 H   0  0  0  0  0  0
    4.4072   53.0870   14.3542 H   0  0  0  0  0  0
    5.2501   52.4304   16.5716 H   0  0  0  0  0  0
    1.4131   53.0772   21.1028 H   0  0  0  0  0  0
    2.2655   51.8754   22.0608 H   0  0  0  0  0  0
    0.1211   52.5890   23.1730 H   0  0  0  0  0  0
    1.5256   52.9478   24.1707 H   0  0  0  0  0  0
    0.7337   54.2403   23.2825 H   0  0  0  0  0  0
    4.3749   54.8891   23.6150 H   0  0  0  0  0  0
    3.4542   54.1911   25.1433 H   0  0  0  0  0  0
    2.6140   54.1729   27.4271 H   0  0  0  0  0  0
    6.6262   54.0846   28.9395 H   0  0  0  0  0  0
    7.5041   54.0957   26.6556 H   0  0  0  0  0  0
  1  2  1  0  0  0
  1 31  1  0  0  0
  1 32  1  0  0  0
  1 33  1  0  0  0
  2  3  1  0  0  0
  2 34  1  0  0  0
  2 35  1  0  0  0
  3  4  1  0  0  0
  4  5  1  0  0  0
  4  6  1  0  0  0
  4 21  1  0  0  0
  6  7  1  0  0  0
  6  8  1  0  0  0
  6 18  1  0  0  0
  8  9  1  0  0  0
  8 36  1  0  0  0
  9 10  2  0  0  0
  9 11  1  0  0  0
 11 16  2  0  0  0
 11 12  1  0  0  0
 12 13  2  0  0  0
 12 37  1  0  0  0
 13 14  1  0  0  0
 13 38  1  0  0  0
 14 15  2  0  0  0
 14 17  1  0  0  0
 15 16  1  0  0  0
 15 39  1  0  0  0
 16 40  1  0  0  0
 18 19  1  0  0  0
 19 20  1  0  0  0
 19 41  1  0  0  0
 19 42  1  0  0  0
 20 43  1  0  0  0
 20 44  1  0  0  0
 20 45  1  0  0  0
 21 22  1  0  0  0
 21 46  1  0  0  0
 22 23  2  0  0  0
 22 24  1  0  0  0
 24 29  2  0  0  0
 24 25  1  0  0  0
 25 26  2  0  0  0
 25 47  1  0  0  0
 26 27  1  0  0  0
 26 48  1  0  0  0
 27 28  2  0  0  0
 27 30  1  0  0  0
 28 29  1  0  0  0
 28 49  1  0  0  0
 29 50  1  0  0  0
M  END
> <i_i_glide_confnum>
124

> <i_i_glide_lignum>
2993

> <i_i_glide_posenum>
103

> <i_i_glide_rotatable_bonds>
11

> <i_m_Source_File_Index>
493

> <b_m_subgroup_collapsed>
0

> <r_i_docking_score>
-5.07228

> <r_i_glide_ecoul>
-2.29976

> <r_i_glide_eff_state_penalty>
0

> <r_i_glide_einternal>
18.722

> <r_i_glide_emodel>
-41.7282

> <r_i_glide_energy>
-38.6177

> <r_i_glide_erotb>
0.543013

> <r_i_glide_esite>
-0.0559551

> <r_i_glide_evdw>
-36.318

> <r_i_glide_gscore>
-5.07228

> <r_i_glide_hbond>
-0.32

> <r_i_glide_ligand_efficiency>
-0.181153

> <r_i_glide_ligand_efficiency_ln>
-1.17083

> <r_i_glide_ligand_efficiency_sa>
-0.550087

> <r_i_glide_lipo>
-2.16081

> <r_i_glide_metal>
0

> <r_i_glide_rewards>
-0.917671

> <s_i_glide_gridfile>
wee1_glide-grid

> <s_m_Source_File>
wee1_decoys_glide_SP.sdf

> <s_m_Source_Path>
/Users/zhangxujun/Desktop

> <s_m_entry_id>
768

> <s_m_entry_name>
wee1_decoys_glide_SP.493

> <s_m_subgroup_title>
wee1_decoys_glide_SP

> <s_m_subgroupid>
wee1_decoys_glide_SP


$$$$
