ZINC18270741_5845
                    3D
 Schrodinger Suite 2024-2.
 44 47  0  0  1  0            999 V2000
   -0.1453   53.3132   23.6820 C   0  0  0  0  0  0
   -0.0989   52.4963   24.9646 C   0  0  0  0  0  0
   -1.2550   51.7804   25.3629 C   0  0  0  0  0  0
   -1.2942   51.2538   26.6702 C   0  0  0  0  0  0
   -0.2933   51.4476   27.5629 N   0  0  0  0  0  0
    0.7992   52.1242   27.1436 C   0  0  0  0  0  0
    0.9914   52.5917   25.8557 C   0  0  0  0  0  0
    2.3698   53.1478   25.8234 C   0  0  0  0  0  0
    3.1679   53.5050   24.7885 C   0  0  0  0  0  0
    3.1045   53.2970   23.3546 C   0  0  0  0  0  0
    2.5453   52.3050   22.5585 C   0  0  0  0  0  0
    3.0486   52.4644   21.2686 C   0  0  0  0  0  0
    3.9840   53.4849   21.3303 C   0  0  0  0  0  0
    3.9746   54.0085   22.5876 O   0  0  0  0  0  0
    4.9827   54.0162   20.3573 C   0  0  0  0  0  0
    5.0424   53.4840   19.0643 C   0  0  0  0  0  0
    6.0074   53.9317   18.1672 C   0  0  0  0  0  0
    6.9202   54.9057   18.5624 C   0  0  0  0  0  0
    6.8727   55.4402   19.8468 C   0  0  0  0  0  0
    5.9038   54.9963   20.7442 C   0  0  0  0  0  0
    7.8672   55.3317   17.6965 F   0  0  0  0  0  0
    2.8126   53.1871   27.2193 C   0  0  0  0  0  0
    1.9126   52.5375   27.9789 C   0  0  0  0  0  0
    2.0435   52.2930   29.3773 C   0  0  0  0  0  0
    2.2175   52.1179   30.5081 N   0  0  0  0  0  0
    4.1368   53.7501   27.7136 C   0  0  0  0  0  0
   -2.3668   50.4968   27.1445 N   0  0  0  0  0  0
   -2.3909   51.6080   24.4486 C   0  0  0  0  0  0
   -3.2846   51.4754   23.7261 N   0  0  0  0  0  0
    0.6388   54.0673   23.6326 H   0  0  0  0  0  0
   -1.0738   53.8848   23.6818 H   0  0  0  0  0  0
   -0.1457   52.6878   22.7898 H   0  0  0  0  0  0
    4.1090   53.9700   25.0434 H   0  0  0  0  0  0
    1.8843   51.5173   22.8875 H   0  0  0  0  0  0
    2.8299   51.8450   20.4099 H   0  0  0  0  0  0
    4.3590   52.7072   18.7503 H   0  0  0  0  0  0
    6.0582   53.5101   17.1738 H   0  0  0  0  0  0
    7.5988   56.1785   20.1476 H   0  0  0  0  0  0
    5.8898   55.4018   21.7455 H   0  0  0  0  0  0
    4.1557   54.8343   27.5853 H   0  0  0  0  0  0
    4.3039   53.5349   28.7709 H   0  0  0  0  0  0
    4.9699   53.3178   27.1550 H   0  0  0  0  0  0
   -3.0656   50.2224   26.4723 H   0  0  0  0  0  0
   -2.0961   49.8125   27.8595 H   0  0  0  0  0  0
  1  2  1  0  0  0
  1 30  1  0  0  0
  1 31  1  0  0  0
  1 32  1  0  0  0
  2  7  2  0  0  0
  2  3  1  0  0  0
  3  4  2  0  0  0
  3 28  1  0  0  0
  4  5  1  0  0  0
  4 27  1  0  0  0
  5  6  2  0  0  0
  6 23  1  0  0  0
  6  7  1  0  0  0
  7  8  1  0  0  0
  8  9  2  3  0  0
  8 22  1  0  0  0
  9 10  1  0  0  0
  9 33  1  0  0  0
 10 14  1  0  0  0
 10 11  2  0  0  0
 11 12  1  0  0  0
 11 34  1  0  0  0
 12 13  2  0  0  0
 12 35  1  0  0  0
 13 14  1  0  0  0
 13 15  1  0  0  0
 15 20  2  0  0  0
 15 16  1  0  0  0
 16 17  2  0  0  0
 16 36  1  0  0  0
 17 18  1  0  0  0
 17 37  1  0  0  0
 18 19  2  0  0  0
 18 21  1  0  0  0
 19 20  1  0  0  0
 19 38  1  0  0  0
 20 39  1  0  0  0
 22 23  2  0  0  0
 22 26  1  0  0  0
 23 24  1  0  0  0
 24 25  3  0  0  0
 26 40  1  0  0  0
 26 41  1  0  0  0
 26 42  1  0  0  0
 27 43  1  0  0  0
 27 44  1  0  0  0
 28 29  3  0  0  0
M  END
> <i_i_glide_confnum>
2

> <i_i_glide_lignum>
5846

> <i_i_glide_posenum>
192

> <i_i_glide_rotatable_bonds>
4

> <i_m_Source_File_Index>
5288

> <b_m_subgroup_collapsed>
0

> <r_i_docking_score>
-5.67176

> <r_i_glide_ecoul>
-6.90614

> <r_i_glide_eff_state_penalty>
0

> <r_i_glide_einternal>
4.47548

> <r_i_glide_emodel>
-49.2982

> <r_i_glide_energy>
-37.024

> <r_i_glide_erotb>
0.265639

> <r_i_glide_esite>
-0.10415

> <r_i_glide_evdw>
-30.1179

> <r_i_glide_gscore>
-5.67176

> <r_i_glide_hbond>
-0.43493

> <r_i_glide_ligand_efficiency>
-0.195578

> <r_i_glide_ligand_efficiency_ln>
-1.29869

> <r_i_glide_ligand_efficiency_sa>
-0.600877

> <r_i_glide_lipo>
-1.82498

> <r_i_glide_metal>
0

> <r_i_glide_rewards>
-1.03152

> <s_i_glide_gridfile>
wee1_glide-grid

> <s_m_Source_File>
wee1_decoys_glide_SP.sdf

> <s_m_Source_Path>
/Users/zhangxujun/Desktop

> <s_m_entry_id>
5563

> <s_m_entry_name>
wee1_decoys_glide_SP.5288

> <s_m_subgroup_title>
wee1_decoys_glide_SP

> <s_m_subgroupid>
wee1_decoys_glide_SP


$$$$
