ZINC61564084_1768
                    3D
 Schrodinger Suite 2024-2.
 27 29  0  0  1  0            999 V2000
    4.7319   53.7171   27.5542 C   0  0  0  0  0  0
    3.5320   53.6937   26.8213 C   0  0  0  0  0  0
    3.5711   54.0921   25.4667 C   0  0  0  0  0  0
    4.7743   54.4966   24.8857 C   0  0  0  0  0  0
    5.9494   54.5127   25.6318 C   0  0  0  0  0  0
    5.9312   54.1150   26.9644 C   0  0  0  0  0  0
    7.0764   54.0989   27.6841 F   0  0  0  0  0  0
    7.1033   54.9225   25.0604 F   0  0  0  0  0  0
    2.4366   54.0956   24.6529 N   0  0  0  0  0  0
    2.2940   53.1977   27.5273 C   0  0  0  0  0  0
    2.1007   53.3941   28.8294 N   0  0  0  0  0  0
    0.9766   52.7643   29.0720 C   0  0  0  0  0  0
    0.5198   52.2110   27.9131 N   0  0  0  0  0  0
   -0.3135   51.6503   27.8020 H   0  0  0  0  0  0
    1.3561   52.4964   26.9157 N   0  0  0  0  0  0
    0.2816   52.6338   30.4138 C   0  0  0  0  0  0
    1.1045   52.4936   31.6727 C   0  0  0  0  0  0
    0.3319   53.7685   31.4090 C   0  0  0  0  0  0
    4.7502   53.4020   28.5871 H   0  0  0  0  0  0
    4.8118   54.7939   23.8492 H   0  0  0  0  0  0
    1.5891   53.6926   25.0284 H   0  0  0  0  0  0
    2.5316   54.2775   23.6651 H   0  0  0  0  0  0
   -0.6459   52.0606   30.3828 H   0  0  0  0  0  0
    2.1919   52.4963   31.5939 H   0  0  0  0  0  0
    0.7449   51.8187   32.4513 H   0  0  0  0  0  0
   -0.4994   53.9685   32.0760 H   0  0  0  0  0  0
    0.8643   54.6803   31.1379 H   0  0  0  0  0  0
  1  6  2  0  0  0
  1  2  1  0  0  0
  1 19  1  0  0  0
  2  3  2  0  0  0
  2 10  1  0  0  0
  3  4  1  0  0  0
  3  9  1  0  0  0
  4  5  2  0  0  0
  4 20  1  0  0  0
  5  6  1  0  0  0
  5  8  1  0  0  0
  6  7  1  0  0  0
  9 21  1  0  0  0
  9 22  1  0  0  0
 10 15  2  0  0  0
 10 11  1  0  0  0
 11 12  2  0  0  0
 12 13  1  0  0  0
 12 16  1  0  0  0
 13 14  1  0  0  0
 13 15  1  0  0  0
 16 18  1  0  0  0
 16 17  1  0  0  0
 16 23  1  0  0  0
 17 18  1  0  0  0
 17 24  1  0  0  0
 17 25  1  0  0  0
 18 26  1  0  0  0
 18 27  1  0  0  0
M  END
> <i_i_glide_confnum>
5

> <i_i_glide_lignum>
1769

> <i_i_glide_posenum>
376

> <i_i_glide_rotatable_bonds>
2

> <i_m_Source_File_Index>
1734

> <b_m_subgroup_collapsed>
0

> <r_i_docking_score>
-5.17966

> <r_i_glide_ecoul>
-1.18815

> <r_i_glide_eff_state_penalty>
0

> <r_i_glide_einternal>
0.0912799

> <r_i_glide_emodel>
-42.5937

> <r_i_glide_energy>
-32.2023

> <r_i_glide_erotb>
0.616955

> <r_i_glide_esite>
0

> <r_i_glide_evdw>
-31.0142

> <r_i_glide_gscore>
-5.17966

> <r_i_glide_hbond>
0

> <r_i_glide_ligand_efficiency>
-0.304686

> <r_i_glide_ligand_efficiency_ln>
-1.35126

> <r_i_glide_ligand_efficiency_sa>
-0.783434

> <r_i_glide_lipo>
-1.53958

> <r_i_glide_metal>
0

> <r_i_glide_rewards>
-2.52811

> <s_i_glide_gridfile>
wee1_glide-grid

> <s_m_Source_File>
wee1_decoys_glide_SP.sdf

> <s_m_Source_Path>
/Users/zhangxujun/Desktop

> <s_m_entry_id>
2009

> <s_m_entry_name>
wee1_decoys_glide_SP.1734

> <s_m_subgroup_title>
wee1_decoys_glide_SP

> <s_m_subgroupid>
wee1_decoys_glide_SP


$$$$
