ZINC01880744_3344
                    3D
 Schrodinger Suite 2024-2.
 50 53  0  0  1  0            999 V2000
    5.8963   54.8814   27.1507 C   0  0  0  0  0  0
    5.5608   54.5874   25.6994 C   0  0  0  0  0  0
    4.2305   54.4964   25.2864 C   0  0  0  0  0  0
    3.9326   54.2341   23.9512 C   0  0  0  0  0  0
    4.9623   54.0505   23.0153 C   0  0  0  0  0  0
    6.2952   54.1334   23.4457 C   0  0  0  0  0  0
    6.5894   54.4171   24.7754 C   0  0  0  0  0  0
    4.6695   53.8150   21.6371 N   0  0  0  0  0  0
    5.2959   54.5838   20.6611 C   0  0  0  0  0  0
    5.1111   54.3716   19.3456 C   0  0  0  0  0  0
    4.1812   53.3178   18.9452 C   0  0  0  0  0  0
    3.6072   52.6102   19.9144 N   0  5  0  0  0  0
    3.8072   52.7973   21.2222 C   0  0  0  0  0  0
    3.2634   52.1013   22.0816 O   0  0  0  0  0  0
    3.9813   53.1938   17.7415 O   0  0  0  0  0  0
    5.9273   55.3727   18.5491 C   0  0  2  0  0  0
    6.4600   56.2579   19.6957 C   0  0  0  0  0  0
    7.1040   57.2994   19.6124 O   0  0  0  0  0  0
    6.1020   55.6570   20.8397 N   0  0  0  0  0  0
    5.0574   56.2160   17.5441 C   0  0  0  0  0  0
    4.7232   55.5287   16.4533 F   0  0  0  0  0  0
    3.9044   56.6061   18.0815 F   0  0  0  0  0  0
    5.6538   57.3312   17.1237 F   0  0  0  0  0  0
    7.1122   54.6950   17.9233 N   0  0  0  0  0  0
    8.0805   55.2868   16.5572 S   0  0  0  0  0  0
    7.1987   55.6216   15.4344 O   0  0  0  0  0  0
    9.1648   54.3167   16.3733 O   0  0  0  0  0  0
    8.8693   56.8043   17.0951 C   0  0  0  0  0  0
    8.4932   58.0351   16.5479 C   0  0  0  0  0  0
    9.1129   59.2054   16.9775 C   0  0  0  0  0  0
   10.1235   59.1446   17.9396 C   0  0  0  0  0  0
   10.5005   57.9151   18.4812 C   0  0  0  0  0  0
    9.8753   56.7453   18.0597 C   0  0  0  0  0  0
   10.8191   60.4093   18.4051 C   0  0  0  0  0  0
    5.0425   55.2962   27.6875 H   0  0  0  0  0  0
    6.2291   53.9751   27.6573 H   0  0  0  0  0  0
    6.7012   55.6144   27.2171 H   0  0  0  0  0  0
    3.4256   54.6276   25.9954 H   0  0  0  0  0  0
    2.8985   54.1797   23.6420 H   0  0  0  0  0  0
    7.1129   53.9912   22.7555 H   0  0  0  0  0  0
    7.6192   54.4964   25.0841 H   0  0  0  0  0  0
    6.3411   56.0113   21.7522 H   0  0  0  0  0  0
    7.5892   54.0217   18.5277 H   0  0  0  0  0  0
    7.7169   58.0925   15.7982 H   0  0  0  0  0  0
    8.8036   60.1517   16.5583 H   0  0  0  0  0  0
   11.2743   57.8587   19.2317 H   0  0  0  0  0  0
   10.1749   55.7970   18.4811 H   0  0  0  0  0  0
   10.7844   60.4747   19.4931 H   0  0  0  0  0  0
   10.3610   61.3054   17.9858 H   0  0  0  0  0  0
   11.8693   60.3843   18.1112 H   0  0  0  0  0  0
  1  2  1  0  0  0
  1 35  1  0  0  0
  1 36  1  0  0  0
  1 37  1  0  0  0
  2  7  2  0  0  0
  2  3  1  0  0  0
  3  4  2  0  0  0
  3 38  1  0  0  0
  4  5  1  0  0  0
  4 39  1  0  0  0
  5  6  2  0  0  0
  5  8  1  0  0  0
  6  7  1  0  0  0
  6 40  1  0  0  0
  7 41  1  0  0  0
  8  9  1  0  0  0
  8 13  1  0  0  0
  9 19  1  0  0  0
  9 10  2  0  0  0
 10 11  1  0  0  0
 10 16  1  0  0  0
 11 12  1  0  0  0
 11 15  2  0  0  0
 12 13  1  0  0  0
 13 14  2  0  0  0
 16 17  1  0  0  0
 16 20  1  0  0  0
 16 24  1  0  0  0
 17 18  2  0  0  0
 17 19  1  0  0  0
 19 42  1  0  0  0
 20 21  1  0  0  0
 20 22  1  0  0  0
 20 23  1  0  0  0
 24 25  1  0  0  0
 24 43  1  0  0  0
 25 26  2  0  0  0
 25 27  2  0  0  0
 25 28  1  0  0  0
 28 33  2  0  0  0
 28 29  1  0  0  0
 29 30  2  0  0  0
 29 44  1  0  0  0
 30 31  1  0  0  0
 30 45  1  0  0  0
 31 32  2  0  0  0
 31 34  1  0  0  0
 32 33  1  0  0  0
 32 46  1  0  0  0
 33 47  1  0  0  0
 34 48  1  0  0  0
 34 49  1  0  0  0
 34 50  1  0  0  0
M  CHG  1  12  -1
M  END
> <i_i_glide_confnum>
45

> <i_i_glide_lignum>
3345

> <i_i_glide_posenum>
114

> <i_i_glide_rotatable_bonds>
5

> <i_m_Source_File_Index>
1315

> <b_m_subgroup_collapsed>
0

> <r_i_docking_score>
-4.23154

> <r_i_glide_ecoul>
-0.912062

> <r_i_glide_eff_state_penalty>
0

> <r_i_glide_einternal>
1.05

> <r_i_glide_emodel>
-46.3623

> <r_i_glide_energy>
-37.8463

> <r_i_glide_erotb>
0.334673

> <r_i_glide_esite>
-0.0128814

> <r_i_glide_evdw>
-36.9343

> <r_i_glide_gscore>
-4.23154

> <r_i_glide_hbond>
-0.270574

> <r_i_glide_ligand_efficiency>
-0.124457

> <r_i_glide_ligand_efficiency_ln>
-0.934865

> <r_i_glide_ligand_efficiency_sa>
-0.403192

> <r_i_glide_lipo>
-2.16918

> <r_i_glide_metal>
0

> <r_i_glide_rewards>
-0.130052

> <s_i_glide_gridfile>
wee1_glide-grid

> <s_m_Source_File>
wee1_decoys_glide_SP.sdf

> <s_m_Source_Path>
/Users/zhangxujun/Desktop

> <s_m_entry_id>
1590

> <s_m_entry_name>
wee1_decoys_glide_SP.1315

> <s_m_subgroup_title>
wee1_decoys_glide_SP

> <s_m_subgroupid>
wee1_decoys_glide_SP


$$$$
