ZINC08185779_104
                    3D
 Schrodinger Suite 2024-2.
 56 58  0  0  1  0            999 V2000
    0.3258   48.7023   24.6446 C   0  0  0  0  0  0
   -0.9000   47.7682   24.5779 C   0  0  2  0  0  0
   -0.5768   46.7679   24.8693 H   0  0  0  0  0  0
   -1.5890   47.7439   23.2238 C   0  0  0  0  0  0
   -1.4615   48.6142   22.1369 C   0  0  0  0  0  0
   -2.2548   48.2878   21.0351 C   0  0  0  0  0  0
   -3.0176   47.1568   21.2528 C   0  0  0  0  0  0
   -2.7399   46.4949   22.8264 S   0  0  0  0  0  0
   -2.8321   49.3198   25.5778 C   0  0  1  0  0  0
   -3.2137   49.3334   24.5549 H   0  0  0  0  0  0
   -4.0206   49.2240   26.5541 C   0  0  0  0  0  0
   -1.9779   50.5839   25.8163 C   0  0  0  0  0  0
   -2.0903   51.5124   25.0156 O   0  0  0  0  0  0
   -1.1473   50.5627   26.8817 N   0  0  0  0  0  0
   -0.1294   51.4705   27.2229 C   0  0  0  0  0  0
    0.3055   51.4610   28.5488 C   0  0  0  0  0  0
    1.3212   52.3150   28.9672 C   0  0  0  0  0  0
    1.8970   53.2038   28.0590 C   0  0  0  0  0  0
    1.4653   53.2185   26.7316 C   0  0  0  0  0  0
    0.4731   52.3409   26.3067 C   0  0  0  0  0  0
    3.0427   54.4514   28.6478 S   0  0  0  0  0  0
    2.3065   55.7064   28.4806 O   0  0  0  0  0  0
    3.4916   54.0375   29.9846 O   0  0  0  0  0  0
    4.4616   54.4714   27.5569 N   0  0  0  0  0  0
    4.2333   54.8283   26.1280 C   0  0  0  0  0  0
    5.5418   55.2045   25.3999 C   0  0  0  0  0  0
    6.6672   54.1830   25.6456 C   0  0  0  0  0  0
    6.8042   53.7806   27.1322 C   0  0  0  0  0  0
    5.4486   53.3824   27.7506 C   0  0  0  0  0  0
    1.0847   48.4019   23.9243 H   0  0  0  0  0  0
    0.0918   49.7345   24.3936 H   0  0  0  0  0  0
    0.7905   48.6898   25.6320 H   0  0  0  0  0  0
   -0.8042   49.4709   22.1422 H   0  0  0  0  0  0
   -2.2698   48.8585   20.1173 H   0  0  0  0  0  0
   -3.7166   46.6878   20.5753 H   0  0  0  0  0  0
   -4.6725   50.0955   26.4732 H   0  0  0  0  0  0
   -4.6374   48.3494   26.3439 H   0  0  0  0  0  0
   -3.6956   49.1501   27.5944 H   0  0  0  0  0  0
   -1.2941   49.8068   27.5517 H   0  0  0  0  0  0
   -0.1604   50.8131   29.2755 H   0  0  0  0  0  0
    1.6151   52.3179   30.0069 H   0  0  0  0  0  0
    1.8370   53.9402   26.0246 H   0  0  0  0  0  0
    0.1683   52.3724   25.2718 H   0  0  0  0  0  0
    3.9025   53.9280   25.6094 H   0  0  0  0  0  0
    3.5050   55.6350   26.0520 H   0  0  0  0  0  0
    5.3485   55.2762   24.3290 H   0  0  0  0  0  0
    5.8744   56.1994   25.6819 H   0  0  0  0  0  0
    7.6039   54.5783   25.2596 H   0  0  0  0  0  0
    6.4571   53.2970   25.0516 H   0  0  0  0  0  0
    7.2330   54.6051   27.7032 H   0  0  0  0  0  0
    7.5043   52.9515   27.2358 H   0  0  0  0  0  0
    5.5630   53.1588   28.8115 H   0  0  0  0  0  0
    5.1042   52.5082   27.1991 H   0  0  0  0  0  0
   -1.9382   48.0961   25.6817 N   0  3  0  0  0  0
   -2.5860   47.3228   25.6967 H   0  0  0  0  0  0
   -1.5175   48.0937   26.6150 H   0  0  0  0  0  0
  1  2  1  0  0  0
  1 30  1  0  0  0
  1 31  1  0  0  0
  1 32  1  0  0  0
  2  3  1  0  0  0
  2  4  1  0  0  0
  2 54  1  0  0  0
  4  8  1  0  0  0
  4  5  2  0  0  0
  5  6  1  0  0  0
  5 33  1  0  0  0
  6  7  2  0  0  0
  6 34  1  0  0  0
  7  8  1  0  0  0
  7 35  1  0  0  0
  9 10  1  0  0  0
  9 11  1  0  0  0
  9 12  1  0  0  0
  9 54  1  0  0  0
 11 36  1  0  0  0
 11 37  1  0  0  0
 11 38  1  0  0  0
 12 13  2  0  0  0
 12 14  1  0  0  0
 14 15  1  0  0  0
 14 39  1  0  0  0
 15 20  2  0  0  0
 15 16  1  0  0  0
 16 17  2  0  0  0
 16 40  1  0  0  0
 17 18  1  0  0  0
 17 41  1  0  0  0
 18 19  2  0  0  0
 18 21  1  0  0  0
 19 20  1  0  0  0
 19 42  1  0  0  0
 20 43  1  0  0  0
 21 22  2  0  0  0
 21 23  2  0  0  0
 21 24  1  0  0  0
 24 29  1  0  0  0
 24 25  1  0  0  0
 25 26  1  0  0  0
 25 44  1  0  0  0
 25 45  1  0  0  0
 26 27  1  0  0  0
 26 46  1  0  0  0
 26 47  1  0  0  0
 27 28  1  0  0  0
 27 48  1  0  0  0
 27 49  1  0  0  0
 28 29  1  0  0  0
 28 50  1  0  0  0
 28 51  1  0  0  0
 29 52  1  0  0  0
 29 53  1  0  0  0
 54 55  1  0  0  0
 54 56  1  0  0  0
M  CHG  1  54   1
M  END
> <i_i_glide_confnum>
161

> <i_i_glide_lignum>
105

> <i_i_glide_posenum>
64

> <i_i_glide_rotatable_bonds>
8

> <i_m_Source_File_Index>
676

> <b_m_subgroup_collapsed>
0

> <r_i_docking_score>
-5.66456

> <r_i_glide_ecoul>
-11.0799

> <r_i_glide_eff_state_penalty>
0

> <r_i_glide_einternal>
10.7938

> <r_i_glide_emodel>
-58.9294

> <r_i_glide_energy>
-45.9937

> <r_i_glide_erotb>
0.776587

> <r_i_glide_esite>
-0.304713

> <r_i_glide_evdw>
-34.9138

> <r_i_glide_gscore>
-5.66456

> <r_i_glide_hbond>
-0.36

> <r_i_glide_ligand_efficiency>
-0.202306

> <r_i_glide_ligand_efficiency_ln>
-1.30755

> <r_i_glide_ligand_efficiency_sa>
-0.61432

> <r_i_glide_lipo>
-1.90626

> <r_i_glide_metal>
0

> <r_i_glide_rewards>
-0.462503

> <s_i_glide_gridfile>
wee1_glide-grid

> <s_m_Source_File>
wee1_decoys_glide_SP.sdf

> <s_m_Source_Path>
/Users/zhangxujun/Desktop

> <s_m_entry_id>
951

> <s_m_entry_name>
wee1_decoys_glide_SP.676

> <s_m_subgroup_title>
wee1_decoys_glide_SP

> <s_m_subgroupid>
wee1_decoys_glide_SP


$$$$
