ZINC28822935_4336
                    3D
 Schrodinger Suite 2024-2.
 50 53  0  0  1  0            999 V2000
    4.7565   54.0013   28.1434 C   0  0  0  0  0  0
    6.1233   53.9978   27.6567 C   0  0  0  0  0  0
    6.2922   54.0971   26.3240 C   0  0  0  0  0  0
    5.2654   54.2358   25.3920 N   0  0  0  0  0  0
    3.9438   54.2733   25.8179 C   0  0  0  0  0  0
    2.9704   54.4801   25.0960 O   0  0  0  0  0  0
    3.7397   54.1003   27.2569 C   0  0  0  0  0  0
    5.6020   54.4940   24.0253 C   0  0  0  0  0  0
    6.7045   55.2967   23.7165 C   0  0  0  0  0  0
    7.0642   55.5659   22.4010 C   0  0  0  0  0  0
    6.2991   55.0841   21.3384 C   0  0  0  0  0  0
    5.1841   54.2763   21.6261 C   0  0  0  0  0  0
    4.8585   53.9710   22.9490 C   0  0  0  0  0  0
    4.4015   53.7774   20.6394 F   0  0  0  0  0  0
    6.6598   55.5064   19.9400 C   0  0  0  0  0  0
    7.0798   56.6460   19.7228 O   0  0  0  0  0  0
    6.5322   54.5686   18.9867 N   0  0  0  0  0  0
    6.8031   54.7531   17.5540 C   0  0  1  0  0  0
    6.3068   55.6719   17.2314 H   0  0  0  0  0  0
    8.3161   54.8169   17.2777 C   0  0  0  0  0  0
    8.7786   53.3604   17.1076 C   0  0  0  0  0  0
    7.5068   52.5336   16.8400 C   0  0  0  0  0  0
    6.3505   53.5395   16.7001 C   0  0  1  0  0  0
    6.3432   53.8523   15.6524 H   0  0  0  0  0  0
    5.0438   52.9798   17.0825 N   0  0  0  0  0  0
    3.8792   53.6472   16.9501 C   0  0  0  0  0  0
    3.8018   54.7551   16.4175 O   0  0  0  0  0  0
    2.7202   53.0010   17.5195 C   0  0  0  0  0  0
    2.6488   51.8769   18.3451 C   0  0  0  0  0  0
    1.3466   51.5738   18.7536 C   0  0  0  0  0  0
    0.4092   52.4685   18.2638 C   0  0  0  0  0  0
    1.1397   53.6952   17.2812 S   0  0  0  0  0  0
   -1.2867   52.4697   18.5347 Cl  0  0  0  0  0  0
    4.5576   53.8915   29.1990 H   0  0  0  0  0  0
    6.9612   53.8893   28.3341 H   0  0  0  0  0  0
    7.2769   54.0506   25.8830 H   0  0  0  0  0  0
    2.7179   54.0793   27.6068 H   0  0  0  0  0  0
    7.3114   55.7384   24.4926 H   0  0  0  0  0  0
    7.9354   56.1805   22.2192 H   0  0  0  0  0  0
    4.0004   53.3357   23.1240 H   0  0  0  0  0  0
    6.0198   53.7294   19.2205 H   0  0  0  0  0  0
    8.4779   55.3572   16.3427 H   0  0  0  0  0  0
    8.8804   55.3671   18.0336 H   0  0  0  0  0  0
    9.4918   53.2705   16.2872 H   0  0  0  0  0  0
    9.2829   53.0135   18.0118 H   0  0  0  0  0  0
    7.3246   51.8640   17.6819 H   0  0  0  0  0  0
    7.5832   51.8837   15.9658 H   0  0  0  0  0  0
    5.0366   52.0091   17.3924 H   0  0  0  0  0  0
    3.5045   51.2946   18.6463 H   0  0  0  0  0  0
    1.1032   50.7348   19.3884 H   0  0  0  0  0  0
  1  7  2  0  0  0
  1  2  1  0  0  0
  1 34  1  0  0  0
  2  3  2  0  0  0
  2 35  1  0  0  0
  3  4  1  0  0  0
  3 36  1  0  0  0
  4  5  1  0  0  0
  4  8  1  0  0  0
  5  6  2  0  0  0
  5  7  1  0  0  0
  7 37  1  0  0  0
  8 13  2  0  0  0
  8  9  1  0  0  0
  9 10  2  0  0  0
  9 38  1  0  0  0
 10 11  1  0  0  0
 10 39  1  0  0  0
 11 12  2  0  0  0
 11 15  1  0  0  0
 12 13  1  0  0  0
 12 14  1  0  0  0
 13 40  1  0  0  0
 15 16  2  0  0  0
 15 17  1  0  0  0
 17 18  1  0  0  0
 17 41  1  0  0  0
 18 19  1  0  0  0
 18 23  1  0  0  0
 18 20  1  0  0  0
 20 21  1  0  0  0
 20 42  1  0  0  0
 20 43  1  0  0  0
 21 22  1  0  0  0
 21 44  1  0  0  0
 21 45  1  0  0  0
 22 23  1  0  0  0
 22 46  1  0  0  0
 22 47  1  0  0  0
 23 24  1  0  0  0
 23 25  1  0  0  0
 25 26  1  0  0  0
 25 48  1  0  0  0
 26 27  2  0  0  0
 26 28  1  0  0  0
 28 32  1  0  0  0
 28 29  2  0  0  0
 29 30  1  0  0  0
 29 49  1  0  0  0
 30 31  2  0  0  0
 30 50  1  0  0  0
 31 32  1  0  0  0
 31 33  1  0  0  0
M  END
> <i_i_glide_confnum>
307

> <i_i_glide_lignum>
4337

> <i_i_glide_posenum>
212

> <i_i_glide_rotatable_bonds>
7

> <i_m_Source_File_Index>
1482

> <b_m_subgroup_collapsed>
0

> <r_i_docking_score>
-6.04503

> <r_i_glide_ecoul>
-4.32379

> <r_i_glide_eff_state_penalty>
0

> <r_i_glide_einternal>
2.32761

> <r_i_glide_emodel>
-64.1155

> <r_i_glide_energy>
-44.9886

> <r_i_glide_erotb>
0.665967

> <r_i_glide_esite>
-0.105222

> <r_i_glide_evdw>
-40.6648

> <r_i_glide_gscore>
-6.04503

> <r_i_glide_hbond>
-0.278858

> <r_i_glide_ligand_efficiency>
-0.195001

> <r_i_glide_ligand_efficiency_ln>
-1.36334

> <r_i_glide_ligand_efficiency_sa>
-0.612572

> <r_i_glide_lipo>
-2.67269

> <r_i_glide_metal>
0

> <r_i_glide_rewards>
-0.972416

> <s_i_glide_gridfile>
wee1_glide-grid

> <s_m_Source_File>
wee1_decoys_glide_SP.sdf

> <s_m_Source_Path>
/Users/zhangxujun/Desktop

> <s_m_entry_id>
1757

> <s_m_entry_name>
wee1_decoys_glide_SP.1482

> <s_m_subgroup_title>
wee1_decoys_glide_SP

> <s_m_subgroupid>
wee1_decoys_glide_SP


$$$$
