ZINC11719848_2136
                    3D
 Schrodinger Suite 2024-2.
 50 52  0  0  1  0            999 V2000
    7.0978   56.0916   24.6762 C   0  0  0  0  0  0
    6.6538   54.6456   24.4966 C   0  0  2  0  0  0
    7.5053   53.9766   24.6006 H   0  0  0  0  0  0
    6.1560   54.4172   23.0326 C   0  0  0  0  0  0
    6.8056   54.9287   22.1213 O   0  0  0  0  0  0
    5.0496   53.6656   22.8200 N   0  0  0  0  0  0
    4.4103   53.3122   21.6119 C   0  0  0  0  0  0
    3.2703   52.5060   21.7300 C   0  0  0  0  0  0
    2.5658   52.0955   20.5977 C   0  0  0  0  0  0
    2.9861   52.4939   19.3305 C   0  0  0  0  0  0
    4.1153   53.3014   19.1958 C   0  0  0  0  0  0
    4.8262   53.7067   20.3265 C   0  0  0  0  0  0
    4.5230   53.7018   17.9696 F   0  0  0  0  0  0
    2.2884   52.1064   18.2386 F   0  0  0  0  0  0
    4.4375   55.0006   25.7343 C   0  0  0  0  0  0
    3.5089   54.3208   26.7282 C   0  0  0  0  0  0
    4.1675   54.2195   28.1063 C   0  0  2  0  0  0
    5.4024   53.3128   27.9665 C   0  0  0  0  0  0
    6.4041   53.9017   26.9519 C   0  0  0  0  0  0
    3.2362   53.5610   29.0602 N   0  0  0  0  0  0
    1.5399   54.0327   29.2766 S   0  0  0  0  0  0
    1.1750   53.7047   30.6565 O   0  0  0  0  0  0
    1.3299   55.3773   28.7299 O   0  0  0  0  0  0
    0.6422   52.8530   28.2241 C   0  0  0  0  0  0
    0.6518   52.7512   26.8340 C   0  0  0  0  0  0
   -0.1108   51.6850   26.3516 C   0  0  0  0  0  0
   -0.7450   50.9910   27.3666 C   0  0  0  0  0  0
   -0.4415   51.6964   28.9233 S   0  0  0  0  0  0
    7.9044   56.3205   23.9855 H   0  0  0  0  0  0
    6.2696   56.7705   24.4811 H   0  0  0  0  0  0
    7.4536   56.2780   25.6817 H   0  0  0  0  0  0
    4.5886   53.3014   23.6355 H   0  0  0  0  0  0
    2.9149   52.1896   22.6982 H   0  0  0  0  0  0
    1.6888   51.4737   20.6971 H   0  0  0  0  0  0
    5.6898   54.3300   20.1615 H   0  0  0  0  0  0
    4.7569   55.9829   26.0776 H   0  0  0  0  0  0
    3.9454   55.0777   24.7641 H   0  0  0  0  0  0
    2.5967   54.8963   26.7768 H   0  0  0  0  0  0
    3.2681   53.3246   26.3588 H   0  0  0  0  0  0
    4.4709   55.1996   28.4779 H   0  0  0  0  0  0
    5.1051   52.3165   27.6504 H   0  0  0  0  0  0
    5.8958   53.1847   28.9283 H   0  0  0  0  0  0
    7.2206   53.1982   26.7897 H   0  0  0  0  0  0
    6.8004   54.8617   27.2849 H   0  0  0  0  0  0
    3.6595   53.0592   29.8427 H   0  0  0  0  0  0
    1.1629   53.4142   26.1611 H   0  0  0  0  0  0
   -0.1984   51.4275   25.3055 H   0  0  0  0  0  0
   -1.3655   50.1048   27.2813 H   0  0  0  0  0  0
    5.6847   54.0964   25.5833 N   0  3  2  0  0  0
    5.3846   53.1742   25.2965 H   0  0  0  0  0  0
  1  2  1  0  0  0
  1 29  1  0  0  0
  1 30  1  0  0  0
  1 31  1  0  0  0
  2  3  1  0  0  0
  2  4  1  0  0  0
  2 49  1  0  0  0
  4  5  2  0  0  0
  4  6  1  0  0  0
  6  7  1  0  0  0
  6 32  1  0  0  0
  7 12  2  0  0  0
  7  8  1  0  0  0
  8  9  2  0  0  0
  8 33  1  0  0  0
  9 10  1  0  0  0
  9 34  1  0  0  0
 10 11  2  0  0  0
 10 14  1  0  0  0
 11 12  1  0  0  0
 11 13  1  0  0  0
 12 35  1  0  0  0
 15 16  1  0  0  0
 15 36  1  0  0  0
 15 37  1  0  0  0
 15 49  1  0  0  0
 16 17  1  0  0  0
 16 38  1  0  0  0
 16 39  1  0  0  0
 17 18  1  0  0  0
 17 20  1  0  0  0
 17 40  1  0  0  0
 18 19  1  0  0  0
 18 41  1  0  0  0
 18 42  1  0  0  0
 19 43  1  0  0  0
 19 44  1  0  0  0
 19 49  1  0  0  0
 20 21  1  0  0  0
 20 45  1  0  0  0
 21 22  2  0  0  0
 21 23  2  0  0  0
 21 24  1  0  0  0
 24 28  1  0  0  0
 24 25  2  0  0  0
 25 26  1  0  0  0
 25 46  1  0  0  0
 26 27  2  0  0  0
 26 47  1  0  0  0
 27 28  1  0  0  0
 27 48  1  0  0  0
 49 50  1  0  0  0
M  CHG  1  49   1
M  END
> <i_i_glide_confnum>
109

> <i_i_glide_lignum>
2137

> <i_i_glide_posenum>
152

> <i_i_glide_rotatable_bonds>
7

> <i_m_Source_File_Index>
1720

> <b_m_subgroup_collapsed>
0

> <r_i_docking_score>
-4.31499

> <r_i_glide_ecoul>
-0.851752

> <r_i_glide_eff_state_penalty>
0

> <r_i_glide_einternal>
9.47326

> <r_i_glide_emodel>
-44.5537

> <r_i_glide_energy>
-38.6341

> <r_i_glide_erotb>
0.643624

> <r_i_glide_esite>
-0.0811496

> <r_i_glide_evdw>
-37.7823

> <r_i_glide_gscore>
-4.31499

> <r_i_glide_hbond>
0

> <r_i_glide_ligand_efficiency>
-0.154107

> <r_i_glide_ligand_efficiency_ln>
-0.996027

> <r_i_glide_ligand_efficiency_sa>
-0.467959

> <r_i_glide_lipo>
-2.07625

> <r_i_glide_metal>
0

> <r_i_glide_rewards>
-0.784336

> <s_i_glide_gridfile>
wee1_glide-grid

> <s_m_Source_File>
wee1_decoys_glide_SP.sdf

> <s_m_Source_Path>
/Users/zhangxujun/Desktop

> <s_m_entry_id>
1995

> <s_m_entry_name>
wee1_decoys_glide_SP.1720

> <s_m_subgroup_title>
wee1_decoys_glide_SP

> <s_m_subgroupid>
wee1_decoys_glide_SP


$$$$
