ZINC09382626_5227
                    3D
 Schrodinger Suite 2024-2.
 58 61  0  0  1  0            999 V2000
    2.2192   51.2512   17.5409 C   0  0  0  0  0  0
    3.0641   52.1353   18.4777 C   0  0  2  0  0  0
    4.0734   52.0975   18.0788 H   0  0  0  0  0  0
    3.1479   51.6512   19.9626 C   0  0  2  0  0  0
    3.9048   50.8648   19.9583 H   0  0  0  0  0  0
    1.8903   51.0135   20.5574 C   0  0  0  0  0  0
    1.8053   49.8470   21.3230 C   0  0  0  0  0  0
    0.5141   49.5136   21.7411 C   0  0  0  0  0  0
   -0.4321   50.4142   21.2879 C   0  0  0  0  0  0
    0.2817   51.6717   20.3389 S   0  0  0  0  0  0
    2.7996   53.2947   22.0045 C   0  0  0  0  0  0
    3.4644   54.4733   22.7192 C   0  0  0  0  0  0
    4.7321   54.0968   23.3564 N   0  0  0  0  0  0
    5.6763   53.5086   22.3906 C   0  0  0  0  0  0
    5.0936   52.3705   21.5065 C   0  0  0  0  0  0
    4.9788   54.2333   24.7234 C   0  0  0  0  0  0
    6.2709   54.4960   25.2021 C   0  0  0  0  0  0
    6.5123   54.5963   26.5715 C   0  0  0  0  0  0
    5.4636   54.4491   27.4736 C   0  0  0  0  0  0
    4.1744   54.1992   27.0175 C   0  0  0  0  0  0
    3.9348   54.0965   25.6511 C   0  0  0  0  0  0
    2.6730   53.5486   18.3332 N   0  0  0  0  0  0
    3.3493   54.5850   17.0882 S   0  0  0  0  0  0
    2.4882   55.7698   17.0002 O   0  0  0  0  0  0
    3.6221   53.7605   15.9068 O   0  0  0  0  0  0
    4.9301   55.1134   17.7359 C   0  0  0  0  0  0
    5.9758   54.1910   17.8414 C   0  0  0  0  0  0
    7.2114   54.6034   18.3318 C   0  0  0  0  0  0
    7.4004   55.9334   18.6976 C   0  0  0  0  0  0
    6.3612   56.8563   18.5883 C   0  0  0  0  0  0
    5.1213   56.4464   18.1059 C   0  0  0  0  0  0
    9.1046   56.4966   19.3199 Br  0  0  0  0  0  0
    2.3520   50.1908   17.7496 H   0  0  0  0  0  0
    1.1541   51.4674   17.6175 H   0  0  0  0  0  0
    2.5043   51.4085   16.4994 H   0  0  0  0  0  0
    2.6701   49.2508   21.5818 H   0  0  0  0  0  0
    0.2837   48.6501   22.3481 H   0  0  0  0  0  0
   -1.4984   50.3960   21.4613 H   0  0  0  0  0  0
    1.8966   53.6456   21.5140 H   0  0  0  0  0  0
    2.5649   52.4672   22.6781 H   0  0  0  0  0  0
    3.6869   55.2785   22.0198 H   0  0  0  0  0  0
    2.7644   54.8998   23.4367 H   0  0  0  0  0  0
    6.5875   53.1621   22.8823 H   0  0  0  0  0  0
    5.9630   54.3500   21.7548 H   0  0  0  0  0  0
    4.9301   51.4472   22.0630 H   0  0  0  0  0  0
    5.7353   52.1799   20.6458 H   0  0  0  0  0  0
    7.0961   54.6201   24.5143 H   0  0  0  0  0  0
    7.5054   54.7827   26.9488 H   0  0  0  0  0  0
    5.6575   54.5270   28.5346 H   0  0  0  0  0  0
    3.3627   54.0777   27.7190 H   0  0  0  0  0  0
    2.9315   53.8700   25.3252 H   0  0  0  0  0  0
    1.9050   53.9217   18.9033 H   0  0  0  0  0  0
    5.8457   53.1662   17.5287 H   0  0  0  0  0  0
    8.0274   53.8978   18.4046 H   0  0  0  0  0  0
    6.5173   57.8926   18.8555 H   0  0  0  0  0  0
    4.3247   57.1704   18.0141 H   0  0  0  0  0  0
    3.7361   52.7745   20.8882 N   0  3  0  0  0  0
    3.9078   53.5639   20.2790 H   0  0  0  0  0  0
  1  2  1  0  0  0
  1 33  1  0  0  0
  1 34  1  0  0  0
  1 35  1  0  0  0
  2  3  1  0  0  0
  2  4  1  0  0  0
  2 22  1  0  0  0
  4  5  1  0  0  0
  4  6  1  0  0  0
  4 57  1  0  0  0
  6 10  1  0  0  0
  6  7  2  0  0  0
  7  8  1  0  0  0
  7 36  1  0  0  0
  8  9  2  0  0  0
  8 37  1  0  0  0
  9 10  1  0  0  0
  9 38  1  0  0  0
 11 12  1  0  0  0
 11 39  1  0  0  0
 11 40  1  0  0  0
 11 57  1  0  0  0
 12 13  1  0  0  0
 12 41  1  0  0  0
 12 42  1  0  0  0
 13 14  1  0  0  0
 13 16  1  0  0  0
 14 15  1  0  0  0
 14 43  1  0  0  0
 14 44  1  0  0  0
 15 45  1  0  0  0
 15 46  1  0  0  0
 15 57  1  0  0  0
 16 21  2  0  0  0
 16 17  1  0  0  0
 17 18  2  0  0  0
 17 47  1  0  0  0
 18 19  1  0  0  0
 18 48  1  0  0  0
 19 20  2  0  0  0
 19 49  1  0  0  0
 20 21  1  0  0  0
 20 50  1  0  0  0
 21 51  1  0  0  0
 22 23  1  0  0  0
 22 52  1  0  0  0
 23 24  2  0  0  0
 23 25  2  0  0  0
 23 26  1  0  0  0
 26 31  2  0  0  0
 26 27  1  0  0  0
 27 28  2  0  0  0
 27 53  1  0  0  0
 28 29  1  0  0  0
 28 54  1  0  0  0
 29 30  2  0  0  0
 29 32  1  0  0  0
 30 31  1  0  0  0
 30 55  1  0  0  0
 31 56  1  0  0  0
 57 58  1  0  0  0
M  CHG  1  57   1
M  END
> <i_i_glide_confnum>
30

> <i_i_glide_lignum>
5228

> <i_i_glide_posenum>
245

> <i_i_glide_rotatable_bonds>
7

> <i_m_Source_File_Index>
3390

> <b_m_subgroup_collapsed>
0

> <r_i_docking_score>
-4.30404

> <r_i_glide_ecoul>
-0.856001

> <r_i_glide_eff_state_penalty>
0

> <r_i_glide_einternal>
12.4261

> <r_i_glide_emodel>
-43.7229

> <r_i_glide_energy>
-38.9378

> <r_i_glide_erotb>
0.453522

> <r_i_glide_esite>
-0.0199066

> <r_i_glide_evdw>
-38.0818

> <r_i_glide_gscore>
-4.30404

> <r_i_glide_hbond>
-0.293631

> <r_i_glide_ligand_efficiency>
-0.13884

> <r_i_glide_ligand_efficiency_ln>
-0.970692

> <r_i_glide_ligand_efficiency_sa>
-0.436149

> <r_i_glide_lipo>
-2.39168

> <r_i_glide_metal>
0

> <r_i_glide_rewards>
-0.0198486

> <s_i_glide_gridfile>
wee1_glide-grid

> <s_m_Source_File>
wee1_decoys_glide_SP.sdf

> <s_m_Source_Path>
/Users/zhangxujun/Desktop

> <s_m_entry_id>
3665

> <s_m_entry_name>
wee1_decoys_glide_SP.3390

> <s_m_subgroup_title>
wee1_decoys_glide_SP

> <s_m_subgroupid>
wee1_decoys_glide_SP


$$$$
