ZINC38651475_5211
                    3D
 Schrodinger Suite 2024-2.
 51 54  0  0  1  0            999 V2000
    4.3496   55.2810   13.0236 C   0  0  0  0  0  0
    4.2975   55.0010   14.5139 C   0  0  0  0  0  0
    4.0224   56.0399   15.4036 C   0  0  0  0  0  0
    3.9907   55.7880   16.7726 C   0  0  0  0  0  0
    4.2387   54.5009   17.2597 C   0  0  0  0  0  0
    4.5185   53.4624   16.3610 C   0  0  0  0  0  0
    4.5489   53.7140   14.9920 C   0  0  0  0  0  0
    4.2078   54.2856   18.7182 C   0  0  0  0  0  0
    4.7861   53.2620   19.3874 C   0  0  0  0  0  0
    4.7040   53.0890   20.8349 C   0  0  0  0  0  0
    5.0865   52.0533   21.3786 O   0  0  0  0  0  0
    4.1822   54.1662   21.4845 O   0  0  0  0  0  0
    3.8753   54.0961   22.8185 C   0  0  0  0  0  0
    2.5337   54.0988   23.1878 C   0  0  0  0  0  0
    2.1748   54.0963   24.5327 C   0  0  0  0  0  0
    3.1436   54.0561   25.5499 C   0  0  0  0  0  0
    4.4980   54.0971   25.1517 C   0  0  0  0  0  0
    4.8630   54.1050   23.8061 C   0  0  0  0  0  0
    5.5364   54.0990   26.0575 O   0  0  0  0  0  0
    5.2773   53.7368   27.3353 C   0  0  0  0  0  0
    4.0456   53.5800   27.8628 C   0  0  0  0  0  0
    2.7876   53.9437   27.0537 C   0  0  2  0  0  0
    2.5128   54.9557   27.3585 H   0  0  0  0  0  0
    1.5556   53.0844   27.4040 C   0  0  0  0  0  0
    0.8702   53.3009   28.6091 C   0  0  0  0  0  0
   -0.2169   52.5024   28.9635 C   0  0  0  0  0  0
   -0.6649   51.5061   28.0981 C   0  0  0  0  0  0
   -0.0073   51.2920   26.8883 C   0  0  0  0  0  0
    1.0967   52.0680   26.5547 C   0  0  0  0  0  0
   -0.5858   49.9383   25.6816 Br  0  0  0  0  0  0
    3.9094   53.1248   29.2118 C   0  0  0  0  0  0
    3.7728   52.7441   30.2990 N   0  0  0  0  0  0
    6.4749   53.5277   27.9654 N   0  0  0  0  0  0
    4.6843   56.3005   12.8300 H   0  0  0  0  0  0
    5.0611   54.6206   12.5262 H   0  0  0  0  0  0
    3.3671   55.1436   12.5727 H   0  0  0  0  0  0
    3.8330   57.0392   15.0403 H   0  0  0  0  0  0
    3.7775   56.6040   17.4510 H   0  0  0  0  0  0
    4.7039   52.4563   16.7124 H   0  0  0  0  0  0
    4.7646   52.9056   14.3108 H   0  0  0  0  0  0
    3.6422   55.0295   19.2682 H   0  0  0  0  0  0
    5.3448   52.4971   18.8657 H   0  0  0  0  0  0
    1.7661   54.1166   22.4278 H   0  0  0  0  0  0
    1.1251   54.1041   24.7824 H   0  0  0  0  0  0
    5.9060   54.1236   23.5248 H   0  0  0  0  0  0
    1.2023   54.0703   29.2926 H   0  0  0  0  0  0
   -0.7185   52.6582   29.9075 H   0  0  0  0  0  0
   -1.5079   50.8865   28.3689 H   0  0  0  0  0  0
    1.5936   51.8498   25.6227 H   0  0  0  0  0  0
    6.5235   53.4398   28.9675 H   0  0  0  0  0  0
    7.3020   53.3074   27.4292 H   0  0  0  0  0  0
  1  2  1  0  0  0
  1 34  1  0  0  0
  1 35  1  0  0  0
  1 36  1  0  0  0
  2  7  2  0  0  0
  2  3  1  0  0  0
  3  4  2  0  0  0
  3 37  1  0  0  0
  4  5  1  0  0  0
  4 38  1  0  0  0
  5  6  2  0  0  0
  5  8  1  0  0  0
  6  7  1  0  0  0
  6 39  1  0  0  0
  7 40  1  0  0  0
  8  9  2  0  0  0
  8 41  1  0  0  0
  9 10  1  0  0  0
  9 42  1  0  0  0
 10 11  2  0  0  0
 10 12  1  0  0  0
 12 13  1  0  0  0
 13 18  2  0  0  0
 13 14  1  0  0  0
 14 15  2  0  0  0
 14 43  1  0  0  0
 15 16  1  0  0  0
 15 44  1  0  0  0
 16 22  1  0  0  0
 16 17  2  0  0  0
 17 18  1  0  0  0
 17 19  1  0  0  0
 18 45  1  0  0  0
 19 20  1  0  0  0
 20 21  2  0  0  0
 20 33  1  0  0  0
 21 22  1  0  0  0
 21 31  1  0  0  0
 22 23  1  0  0  0
 22 24  1  0  0  0
 24 29  2  0  0  0
 24 25  1  0  0  0
 25 26  2  0  0  0
 25 46  1  0  0  0
 26 27  1  0  0  0
 26 47  1  0  0  0
 27 28  2  0  0  0
 27 48  1  0  0  0
 28 29  1  0  0  0
 28 30  1  0  0  0
 29 49  1  0  0  0
 31 32  3  0  0  0
 33 50  1  0  0  0
 33 51  1  0  0  0
M  END
> <i_i_glide_confnum>
61

> <i_i_glide_lignum>
5212

> <i_i_glide_posenum>
293

> <i_i_glide_rotatable_bonds>
6

> <i_m_Source_File_Index>
3178

> <b_m_subgroup_collapsed>
0

> <r_i_docking_score>
-3.64003

> <r_i_glide_ecoul>
-4.53062

> <r_i_glide_eff_state_penalty>
0

> <r_i_glide_einternal>
5.05384

> <r_i_glide_emodel>
-49.5594

> <r_i_glide_energy>
-46.7622

> <r_i_glide_erotb>
0.427964

> <r_i_glide_esite>
0

> <r_i_glide_evdw>
-42.2316

> <r_i_glide_gscore>
-3.64003

> <r_i_glide_hbond>
-0.0273669

> <r_i_glide_ligand_efficiency>
-0.113751

> <r_i_glide_ligand_efficiency_ln>
-0.815102

> <r_i_glide_ligand_efficiency_sa>
-0.361137

> <r_i_glide_lipo>
-2.47482

> <r_i_glide_metal>
0

> <r_i_glide_rewards>
1.22537

> <s_i_glide_gridfile>
wee1_glide-grid

> <s_m_Source_File>
wee1_decoys_glide_SP.sdf

> <s_m_Source_Path>
/Users/zhangxujun/Desktop

> <s_m_entry_id>
3453

> <s_m_entry_name>
wee1_decoys_glide_SP.3178

> <s_m_subgroup_title>
wee1_decoys_glide_SP

> <s_m_subgroupid>
wee1_decoys_glide_SP


$$$$
