ZINC32876268_2115
                    3D
 Schrodinger Suite 2024-2.
 59 61  0  0  1  0            999 V2000
    5.0100   54.5005   27.4944 C   0  0  0  0  0  0
    4.7321   54.3308   26.0020 C   0  0  0  0  0  0
    5.7594   54.6479   25.1281 C   0  0  0  0  0  0
    5.6121   54.4997   23.7571 C   0  0  0  0  0  0
    4.4029   54.0058   23.2247 C   0  0  0  0  0  0
    3.3221   53.6862   24.0961 C   0  0  0  0  0  0
    3.5023   53.8633   25.4982 C   0  0  0  0  0  0
    2.3990   53.5123   26.4994 C   0  0  0  0  0  0
    1.6786   53.1120   23.4614 S   0  0  0  0  0  0
    1.6939   52.9845   22.0036 O   0  0  0  0  0  0
    0.6843   53.9910   24.0815 O   0  0  0  0  0  0
    1.4100   51.4605   24.0819 N   0  0  0  0  0  0
    2.0048   50.2933   23.3753 C   0  0  0  0  0  0
    0.9298   49.3991   22.7203 C   0  0  0  0  0  0
   -0.1822   49.0447   23.7493 C   0  0  0  0  0  0
   -0.8092   50.3047   24.4037 C   0  0  0  0  0  0
    0.3037   51.1668   25.0380 C   0  0  0  0  0  0
   -1.2830   48.1155   23.1720 C   0  0  0  0  0  0
   -1.2958   47.8673   21.9645 O   0  0  0  0  0  0
   -2.1379   47.5649   24.0717 N   0  0  0  0  0  0
   -3.1768   46.6700   23.8845 C   0  0  0  0  0  0
   -3.3907   45.9525   22.7401 C   0  0  0  0  0  0
   -4.5024   45.0066   22.6296 C   0  0  0  0  0  0
   -5.2919   44.9331   23.7257 C   0  0  0  0  0  0
   -5.0977   45.6483   24.8758 N   0  0  0  0  0  0
   -5.7098   45.5699   25.6747 H   0  0  0  0  0  0
   -4.0743   46.5243   25.0446 C   0  0  0  0  0  0
   -3.9624   47.1206   26.1110 O   0  0  0  0  0  0
   -4.7162   44.1697   21.3735 C   0  0  0  0  0  0
   -5.7737   43.3662   21.4974 F   0  0  0  0  0  0
   -3.6358   43.4201   21.1531 F   0  0  0  0  0  0
   -4.9081   44.9727   20.3269 F   0  0  0  0  0  0
    4.3035   53.8078   21.7106 C   0  0  0  0  0  0
    6.7837   54.9542   22.8898 C   0  0  0  0  0  0
    4.2973   55.1941   27.9430 H   0  0  0  0  0  0
    4.9148   53.5428   28.0057 H   0  0  0  0  0  0
    6.0105   54.8859   27.7001 H   0  0  0  0  0  0
    6.6935   55.0187   25.5235 H   0  0  0  0  0  0
    2.6530   53.6757   27.5421 H   0  0  0  0  0  0
    1.5041   54.0975   26.3226 H   0  0  0  0  0  0
    2.1469   52.4611   26.4232 H   0  0  0  0  0  0
    2.6060   49.7210   24.0817 H   0  0  0  0  0  0
    2.6959   50.6590   22.6149 H   0  0  0  0  0  0
    1.4511   48.5066   22.3692 H   0  0  0  0  0  0
    0.5238   49.9682   21.8815 H   0  0  0  0  0  0
    0.2333   48.4559   24.5710 H   0  0  0  0  0  0
   -1.2929   50.9395   23.6575 H   0  0  0  0  0  0
   -1.4976   50.0544   25.2135 H   0  0  0  0  0  0
    0.7260   50.6777   25.9153 H   0  0  0  0  0  0
   -0.1183   52.1061   25.3955 H   0  0  0  0  0  0
   -2.0329   47.8766   25.0317 H   0  0  0  0  0  0
   -2.7366   46.0427   21.8862 H   0  0  0  0  0  0
   -6.1556   44.2854   23.8083 H   0  0  0  0  0  0
    5.2275   53.9738   21.1638 H   0  0  0  0  0  0
    4.0304   52.7788   21.4847 H   0  0  0  0  0  0
    3.5485   54.4702   21.2849 H   0  0  0  0  0  0
    7.5041   55.5630   23.4411 H   0  0  0  0  0  0
    7.3137   54.0968   22.4819 H   0  0  0  0  0  0
    6.4424   55.5782   22.0648 H   0  0  0  0  0  0
  1  2  1  0  0  0
  1 35  1  0  0  0
  1 36  1  0  0  0
  1 37  1  0  0  0
  2  7  2  0  0  0
  2  3  1  0  0  0
  3  4  2  0  0  0
  3 38  1  0  0  0
  4  5  1  0  0  0
  4 34  1  0  0  0
  5  6  2  0  0  0
  5 33  1  0  0  0
  6  7  1  0  0  0
  6  9  1  0  0  0
  7  8  1  0  0  0
  8 39  1  0  0  0
  8 40  1  0  0  0
  8 41  1  0  0  0
  9 10  2  0  0  0
  9 11  2  0  0  0
  9 12  1  0  0  0
 12 17  1  0  0  0
 12 13  1  0  0  0
 13 14  1  0  0  0
 13 42  1  0  0  0
 13 43  1  0  0  0
 14 15  1  0  0  0
 14 44  1  0  0  0
 14 45  1  0  0  0
 15 16  1  0  0  0
 15 18  1  0  0  0
 15 46  1  0  0  0
 16 17  1  0  0  0
 16 47  1  0  0  0
 16 48  1  0  0  0
 17 49  1  0  0  0
 17 50  1  0  0  0
 18 19  2  0  0  0
 18 20  1  0  0  0
 20 21  1  0  0  0
 20 51  1  0  0  0
 21 27  1  0  0  0
 21 22  2  0  0  0
 22 23  1  0  0  0
 22 52  1  0  0  0
 23 24  2  0  0  0
 23 29  1  0  0  0
 24 25  1  0  0  0
 24 53  1  0  0  0
 25 26  1  0  0  0
 25 27  1  0  0  0
 27 28  2  0  0  0
 29 30  1  0  0  0
 29 31  1  0  0  0
 29 32  1  0  0  0
 33 54  1  0  0  0
 33 55  1  0  0  0
 33 56  1  0  0  0
 34 57  1  0  0  0
 34 58  1  0  0  0
 34 59  1  0  0  0
M  END
> <i_i_glide_confnum>
32

> <i_i_glide_lignum>
2116

> <i_i_glide_posenum>
67

> <i_i_glide_rotatable_bonds>
6

> <i_m_Source_File_Index>
2157

> <b_m_subgroup_collapsed>
0

> <r_i_docking_score>
-4.25534

> <r_i_glide_ecoul>
0.0889385

> <r_i_glide_eff_state_penalty>
0

> <r_i_glide_einternal>
3.79943

> <r_i_glide_emodel>
-45.8088

> <r_i_glide_energy>
-34.0993

> <r_i_glide_erotb>
0.430909

> <r_i_glide_esite>
-0.0912029

> <r_i_glide_evdw>
-34.1883

> <r_i_glide_gscore>
-4.25534

> <r_i_glide_hbond>
0

> <r_i_glide_ligand_efficiency>
-0.12895

> <r_i_glide_ligand_efficiency_ln>
-0.946367

> <r_i_glide_ligand_efficiency_sa>
-0.413611

> <r_i_glide_lipo>
-2.34749

> <r_i_glide_metal>
0

> <r_i_glide_rewards>
-0.551493

> <s_i_glide_gridfile>
wee1_glide-grid

> <s_m_Source_File>
wee1_decoys_glide_SP.sdf

> <s_m_Source_Path>
/Users/zhangxujun/Desktop

> <s_m_entry_id>
2432

> <s_m_entry_name>
wee1_decoys_glide_SP.2157

> <s_m_subgroup_title>
wee1_decoys_glide_SP

> <s_m_subgroupid>
wee1_decoys_glide_SP


$$$$
