ZINC14986166_5333
                    3D
 Schrodinger Suite 2024-2.
 60 64  0  0  1  0            999 V2000
    6.7046   54.4802   26.8606 C   0  0  0  0  0  0
    6.5425   54.4949   25.4758 C   0  0  0  0  0  0
    5.2638   54.4650   24.9091 C   0  0  0  0  0  0
    4.1505   54.4515   25.7616 C   0  0  0  0  0  0
    4.3053   54.3836   27.1540 C   0  0  0  0  0  0
    5.5938   54.4130   27.6960 C   0  0  0  0  0  0
    3.1010   54.2346   28.0843 C   0  0  0  0  0  0
    1.9527   54.1020   27.4170 F   0  0  0  0  0  0
    3.0016   55.2987   28.8800 F   0  0  0  0  0  0
    3.2605   53.1502   28.8454 F   0  0  0  0  0  0
    5.1457   54.3795   23.3817 C   0  0  0  0  0  0
    3.8027   54.4967   22.8844 O   0  0  0  0  0  0
    3.1191   53.3142   22.6963 C   0  0  0  0  0  0
    3.3889   52.4304   21.6382 C   0  0  0  0  0  0
    2.7039   51.2123   21.6045 C   0  0  0  0  0  0
    1.7697   50.9012   22.6229 C   0  0  0  0  0  0
    1.1161   49.6498   22.7090 C   0  0  0  0  0  0
    0.2482   49.3877   23.7686 C   0  0  0  0  0  0
   -0.0125   50.3634   24.7320 C   0  0  0  0  0  0
    0.6033   51.6106   24.6627 C   0  0  0  0  0  0
    1.5109   51.8908   23.6164 C   0  0  0  0  0  0
    2.1567   53.0846   23.6208 N   0  0  0  0  0  0
   -0.9089   49.8175   25.8188 C   0  0  0  0  0  0
   -1.3651   48.4574   25.2850 C   0  0  0  0  0  0
   -0.4313   48.0864   24.1313 C   0  0  0  0  0  0
    4.3975   52.7448   20.5432 C   0  0  0  0  0  0
    5.2157   54.5199   18.8271 C   0  0  1  0  0  0
    5.2250   53.6956   18.1073 H   0  0  0  0  0  0
    4.7269   55.8328   18.1587 C   0  0  0  0  0  0
    5.9327   56.6628   17.6963 C   0  0  0  0  0  0
    7.1335   56.4733   19.1084 S   0  0  0  0  0  0
    8.5155   56.5241   18.6259 O   0  0  0  0  0  0
    6.7042   57.2979   20.2432 O   0  0  0  0  0  0
    6.6285   54.7078   19.4378 C   0  0  0  0  0  0
    7.6919   54.4915   27.2965 H   0  0  0  0  0  0
    7.4175   54.5057   24.8412 H   0  0  0  0  0  0
    3.1549   54.4622   25.3520 H   0  0  0  0  0  0
    5.7398   54.3732   28.7668 H   0  0  0  0  0  0
    5.7416   55.1814   22.9433 H   0  0  0  0  0  0
    5.6184   53.4479   23.0641 H   0  0  0  0  0  0
    2.8980   50.4853   20.8281 H   0  0  0  0  0  0
    1.3380   48.8957   21.9693 H   0  0  0  0  0  0
    0.4343   52.3580   25.4244 H   0  0  0  0  0  0
   -0.3500   49.6838   26.7463 H   0  0  0  0  0  0
   -1.7645   50.4563   26.0383 H   0  0  0  0  0  0
   -1.3748   47.6969   26.0684 H   0  0  0  0  0  0
   -2.3895   48.5382   24.9159 H   0  0  0  0  0  0
   -0.9815   47.6402   23.3032 H   0  0  0  0  0  0
    0.3050   47.3607   24.4812 H   0  0  0  0  0  0
    5.4203   52.6978   20.9138 H   0  0  0  0  0  0
    4.3129   52.0582   19.6961 H   0  0  0  0  0  0
    4.0247   55.6402   17.3456 H   0  0  0  0  0  0
    4.2004   56.4565   18.8807 H   0  0  0  0  0  0
    6.3810   56.1912   16.8220 H   0  0  0  0  0  0
    5.7667   57.7178   17.4739 H   0  0  0  0  0  0
    6.7875   54.4973   20.4920 H   0  0  0  0  0  0
    7.3207   54.0854   18.8690 H   0  0  0  0  0  0
    4.1980   54.1352   19.9176 N   0  3  0  0  0  0
    3.2615   54.1833   19.5366 H   0  0  0  0  0  0
    4.2158   54.8310   20.6510 H   0  0  0  0  0  0
  1  6  2  0  0  0
  1  2  1  0  0  0
  1 35  1  0  0  0
  2  3  2  0  0  0
  2 36  1  0  0  0
  3  4  1  0  0  0
  3 11  1  0  0  0
  4  5  2  0  0  0
  4 37  1  0  0  0
  5  6  1  0  0  0
  5  7  1  0  0  0
  6 38  1  0  0  0
  7  8  1  0  0  0
  7  9  1  0  0  0
  7 10  1  0  0  0
 11 12  1  0  0  0
 11 39  1  0  0  0
 11 40  1  0  0  0
 12 13  1  0  0  0
 13 22  2  0  0  0
 13 14  1  0  0  0
 14 15  2  0  0  0
 14 26  1  0  0  0
 15 16  1  0  0  0
 15 41  1  0  0  0
 16 21  2  0  0  0
 16 17  1  0  0  0
 17 18  2  0  0  0
 17 42  1  0  0  0
 18 25  1  0  0  0
 18 19  1  0  0  0
 19 20  2  0  0  0
 19 23  1  0  0  0
 20 21  1  0  0  0
 20 43  1  0  0  0
 21 22  1  0  0  0
 23 24  1  0  0  0
 23 44  1  0  0  0
 23 45  1  0  0  0
 24 25  1  0  0  0
 24 46  1  0  0  0
 24 47  1  0  0  0
 25 48  1  0  0  0
 25 49  1  0  0  0
 26 50  1  0  0  0
 26 51  1  0  0  0
 26 58  1  0  0  0
 27 28  1  0  0  0
 27 34  1  0  0  0
 27 29  1  0  0  0
 27 58  1  0  0  0
 29 30  1  0  0  0
 29 52  1  0  0  0
 29 53  1  0  0  0
 30 31  1  0  0  0
 30 54  1  0  0  0
 30 55  1  0  0  0
 31 32  2  0  0  0
 31 33  2  0  0  0
 31 34  1  0  0  0
 34 56  1  0  0  0
 34 57  1  0  0  0
 58 59  1  0  0  0
 58 60  1  0  0  0
M  CHG  1  58   1
M  END
> <i_i_glide_confnum>
73

> <i_i_glide_lignum>
5334

> <i_i_glide_posenum>
285

> <i_i_glide_rotatable_bonds>
7

> <i_m_Source_File_Index>
2398

> <b_m_subgroup_collapsed>
0

> <r_i_docking_score>
-6.48312

> <r_i_glide_ecoul>
-5.32029

> <r_i_glide_eff_state_penalty>
0

> <r_i_glide_einternal>
10.6037

> <r_i_glide_emodel>
-65.0238

> <r_i_glide_energy>
-49.0926

> <r_i_glide_erotb>
0.505549

> <r_i_glide_esite>
-0.0739928

> <r_i_glide_evdw>
-43.7723

> <r_i_glide_gscore>
-6.48312

> <r_i_glide_hbond>
0

> <r_i_glide_ligand_efficiency>
-0.19068

> <r_i_glide_ligand_efficiency_ln>
-1.4323

> <r_i_glide_ligand_efficiency_sa>
-0.617729

> <r_i_glide_lipo>
-2.89271

> <r_i_glide_metal>
0

> <r_i_glide_rewards>
-1.0353

> <s_i_glide_gridfile>
wee1_glide-grid

> <s_m_Source_File>
wee1_decoys_glide_SP.sdf

> <s_m_Source_Path>
/Users/zhangxujun/Desktop

> <s_m_entry_id>
2673

> <s_m_entry_name>
wee1_decoys_glide_SP.2398

> <s_m_subgroup_title>
wee1_decoys_glide_SP

> <s_m_subgroupid>
wee1_decoys_glide_SP


$$$$
