ZINC15958228_2427
                    3D
 Schrodinger Suite 2024-2.
 58 63  0  0  1  0            999 V2000
    3.4884   52.0644   31.3262 C   0  0  0  0  0  0
    2.2648   52.4967   30.5169 C   0  0  0  0  0  0
    1.1708   52.4972   31.0759 O   0  0  0  0  0  0
    2.4560   52.7914   29.0662 C   0  0  0  0  0  0
    3.7268   53.0474   28.5411 C   0  0  0  0  0  0
    3.8816   53.2967   27.1831 C   0  0  0  0  0  0
    2.7754   53.3030   26.3154 C   0  0  0  0  0  0
    1.5036   53.0744   26.8573 C   0  0  0  0  0  0
    1.3437   52.8250   28.2171 C   0  0  0  0  0  0
    2.9532   53.5242   24.9129 N   0  0  0  0  0  0
    2.3043   52.8334   23.9313 C   0  0  0  0  0  0
    1.4387   51.9716   24.0818 O   0  0  0  0  0  0
    2.7820   53.3154   22.5627 C   0  0  2  0  0  0
    1.9049   53.7081   22.0451 H   0  0  0  0  0  0
    3.5395   52.3040   21.6674 C   0  0  1  0  0  0
    3.4036   52.6521   20.6449 H   0  0  0  0  0  0
    4.9587   52.5096   21.9250 N   0  0  0  0  0  0
    5.1263   53.9532   22.1025 C   0  0  2  0  0  0
    3.8068   54.3668   22.8677 C   0  0  2  0  0  0
    3.4278   55.2988   22.4812 H   0  0  0  0  0  0
    3.8357   54.4261   24.4079 C   0  0  0  0  0  0
    4.5415   55.2025   25.0586 O   0  0  0  0  0  0
    5.4096   54.7229   20.8248 C   0  0  0  0  0  0
    4.7012   54.8514   19.6230 C   0  0  0  0  0  0
    5.1992   55.6600   18.5985 C   0  0  0  0  0  0
    6.4117   56.3330   18.7612 C   0  0  0  0  0  0
    7.1270   56.2006   19.9514 C   0  0  0  0  0  0
    6.6030   55.4077   20.9704 C   0  0  0  0  0  0
    7.1564   55.1102   22.1963 N   0  0  0  0  0  0
    6.4514   54.2070   22.8896 C   0  0  0  0  0  0
    6.8094   53.6969   23.9500 O   0  0  0  0  0  0
    3.0951   50.8222   21.6178 C   0  0  0  0  0  0
    1.8904   50.5816   20.7169 C   0  0  0  0  0  0
    2.0714   50.5065   19.3322 C   0  0  0  0  0  0
    0.9810   50.2834   18.4981 C   0  0  0  0  0  0
   -0.2912   50.1395   19.0492 C   0  0  0  0  0  0
   -0.4787   50.2059   20.4290 C   0  0  0  0  0  0
    0.6141   50.4238   21.2650 C   0  0  0  0  0  0
    4.1620   52.9030   31.4934 H   0  0  0  0  0  0
    4.0456   51.2990   30.7878 H   0  0  0  0  0  0
    3.1858   51.6534   32.2901 H   0  0  0  0  0  0
    4.6128   53.0421   29.1603 H   0  0  0  0  0  0
    4.8826   53.4480   26.8038 H   0  0  0  0  0  0
    0.6262   53.0778   26.2278 H   0  0  0  0  0  0
    0.3485   52.6361   28.5995 H   0  0  0  0  0  0
    5.4825   52.2033   21.1177 H   0  0  0  0  0  0
    3.7533   54.3585   19.4676 H   0  0  0  0  0  0
    4.6441   55.7621   17.6777 H   0  0  0  0  0  0
    6.8017   56.9468   17.9619 H   0  0  0  0  0  0
    8.0833   56.6901   20.0529 H   0  0  0  0  0  0
    8.0652   55.4193   22.5173 H   0  0  0  0  0  0
    3.9045   50.2253   21.2004 H   0  0  0  0  0  0
    2.9288   50.3997   22.6092 H   0  0  0  0  0  0
    3.0534   50.6136   18.8932 H   0  0  0  0  0  0
    1.1274   50.2180   17.4286 H   0  0  0  0  0  0
   -1.1374   49.9656   18.4014 H   0  0  0  0  0  0
   -1.4665   50.0834   20.8490 H   0  0  0  0  0  0
    0.4644   50.4645   22.3331 H   0  0  0  0  0  0
  1  2  1  0  0  0
  1 39  1  0  0  0
  1 40  1  0  0  0
  1 41  1  0  0  0
  2  3  2  0  0  0
  2  4  1  0  0  0
  4  9  2  0  0  0
  4  5  1  0  0  0
  5  6  2  0  0  0
  5 42  1  0  0  0
  6  7  1  0  0  0
  6 43  1  0  0  0
  7  8  2  0  0  0
  7 10  1  0  0  0
  8  9  1  0  0  0
  8 44  1  0  0  0
  9 45  1  0  0  0
 10 21  1  0  0  0
 10 11  1  0  0  0
 11 12  2  0  0  0
 11 13  1  0  0  0
 13 14  1  0  0  0
 13 19  1  0  0  0
 13 15  1  0  0  0
 15 16  1  0  0  0
 15 17  1  0  0  0
 15 32  1  0  0  0
 17 18  1  0  0  0
 17 46  1  0  0  0
 18 30  1  0  0  0
 18 19  1  0  0  0
 18 23  1  0  0  0
 19 20  1  0  0  0
 19 21  1  0  0  0
 21 22  2  0  0  0
 23 28  2  0  0  0
 23 24  1  0  0  0
 24 25  2  0  0  0
 24 47  1  0  0  0
 25 26  1  0  0  0
 25 48  1  0  0  0
 26 27  2  0  0  0
 26 49  1  0  0  0
 27 28  1  0  0  0
 27 50  1  0  0  0
 28 29  1  0  0  0
 29 30  1  0  0  0
 29 51  1  0  0  0
 30 31  2  0  0  0
 32 33  1  0  0  0
 32 52  1  0  0  0
 32 53  1  0  0  0
 33 38  2  0  0  0
 33 34  1  0  0  0
 34 35  2  0  0  0
 34 54  1  0  0  0
 35 36  1  0  0  0
 35 55  1  0  0  0
 36 37  2  0  0  0
 36 56  1  0  0  0
 37 38  1  0  0  0
 37 57  1  0  0  0
 38 58  1  0  0  0
M  END
> <i_i_glide_confnum>
36

> <i_i_glide_lignum>
2428

> <i_i_glide_posenum>
237

> <i_i_glide_rotatable_bonds>
4

> <i_m_Source_File_Index>
1686

> <b_m_subgroup_collapsed>
0

> <r_i_docking_score>
-6.11384

> <r_i_glide_ecoul>
-2.40913

> <r_i_glide_eff_state_penalty>
0

> <r_i_glide_einternal>
4.37857

> <r_i_glide_emodel>
-56.8585

> <r_i_glide_energy>
-44.0675

> <r_i_glide_erotb>
0.279213

> <r_i_glide_esite>
-0.0246628

> <r_i_glide_evdw>
-41.6584

> <r_i_glide_gscore>
-6.11384

> <r_i_glide_hbond>
-0.32

> <r_i_glide_ligand_efficiency>
-0.174681

> <r_i_glide_ligand_efficiency_ln>
-1.34212

> <r_i_glide_ligand_efficiency_sa>
-0.571394

> <r_i_glide_lipo>
-2.14047

> <r_i_glide_metal>
0

> <r_i_glide_rewards>
-1.46363

> <s_i_glide_gridfile>
wee1_glide-grid

> <s_m_Source_File>
wee1_decoys_glide_SP.sdf

> <s_m_Source_Path>
/Users/zhangxujun/Desktop

> <s_m_entry_id>
1961

> <s_m_entry_name>
wee1_decoys_glide_SP.1686

> <s_m_subgroup_title>
wee1_decoys_glide_SP

> <s_m_subgroupid>
wee1_decoys_glide_SP


$$$$
