ZINC67573237_1514
                    3D
 Schrodinger Suite 2024-2.
 49 51  0  0  1  0            999 V2000
    6.8681   53.0011   14.7734 C   0  0  0  0  0  0
    6.9310   52.7432   16.2900 C   0  0  1  0  0  0
    6.0774   52.1023   16.4964 H   0  0  0  0  0  0
    8.1698   51.9046   16.7094 C   0  0  0  0  0  0
    9.4822   52.6994   16.8245 C   0  0  0  0  0  0
    9.2814   53.9844   17.6376 C   0  0  0  0  0  0
    8.1159   54.8259   17.0858 C   0  0  0  0  0  0
    6.8984   53.9811   17.1182 N   0  0  0  0  0  0
    5.8011   54.4339   17.7966 C   0  0  0  0  0  0
    5.7571   55.5518   18.3253 O   0  0  0  0  0  0
    4.5333   53.5407   17.9365 C   0  0  2  0  0  0
    4.8127   52.4967   17.9422 H   0  0  0  0  0  0
    3.5318   53.8080   16.8014 C   0  0  0  0  0  0
    3.8288   53.7020   19.2160 N   0  0  0  0  0  0
    4.3642   53.5018   20.4280 C   0  0  0  0  0  0
    5.5043   53.0693   20.5982 O   0  0  0  0  0  0
    3.5055   53.8421   21.4084 N   0  0  0  0  0  0
    3.7651   53.9256   22.7887 C   0  0  0  0  0  0
    2.6641   53.8726   23.6431 C   0  0  0  0  0  0
    2.8444   53.9566   25.0216 C   0  0  0  0  0  0
    4.1253   54.1147   25.5683 C   0  0  0  0  0  0
    5.2236   54.1899   24.7024 C   0  0  0  0  0  0
    5.0496   54.0963   23.3260 C   0  0  0  0  0  0
    4.3271   54.2190   27.0563 C   0  0  0  0  0  0
    5.5137   54.4628   27.5866 N   0  0  0  0  0  0
    5.2472   54.5035   28.8600 C   0  0  0  0  0  0
    3.9425   54.2991   29.1561 O   0  0  0  0  0  0
    3.3347   54.0971   27.9183 N   0  0  0  0  0  0
    6.8775   52.0590   14.2251 H   0  0  0  0  0  0
    7.7292   53.5701   14.4218 H   0  0  0  0  0  0
    5.9593   53.5328   14.4941 H   0  0  0  0  0  0
    7.9560   51.4604   17.6816 H   0  0  0  0  0  0
    8.3044   51.0546   16.0392 H   0  0  0  0  0  0
   10.2574   52.0821   17.2814 H   0  0  0  0  0  0
    9.8401   52.9533   15.8254 H   0  0  0  0  0  0
    9.1035   53.7506   18.6873 H   0  0  0  0  0  0
   10.1975   54.5757   17.6214 H   0  0  0  0  0  0
    8.0195   55.7636   17.6366 H   0  0  0  0  0  0
    8.3120   55.0961   16.0476 H   0  0  0  0  0  0
    3.9820   53.6297   15.8256 H   0  0  0  0  0  0
    2.6656   53.1507   16.8810 H   0  0  0  0  0  0
    3.1749   54.8392   16.8178 H   0  0  0  0  0  0
    2.9177   54.1332   19.1609 H   0  0  0  0  0  0
    2.5577   54.0515   21.1257 H   0  0  0  0  0  0
    1.6666   53.7555   23.2459 H   0  0  0  0  0  0
    1.9766   53.9005   25.6631 H   0  0  0  0  0  0
    6.2253   54.3135   25.0876 H   0  0  0  0  0  0
    5.9220   54.1741   22.6954 H   0  0  0  0  0  0
    5.9040   54.7490   29.6812 H   0  0  0  0  0  0
  1  2  1  0  0  0
  1 29  1  0  0  0
  1 30  1  0  0  0
  1 31  1  0  0  0
  2  3  1  0  0  0
  2  8  1  0  0  0
  2  4  1  0  0  0
  4  5  1  0  0  0
  4 32  1  0  0  0
  4 33  1  0  0  0
  5  6  1  0  0  0
  5 34  1  0  0  0
  5 35  1  0  0  0
  6  7  1  0  0  0
  6 36  1  0  0  0
  6 37  1  0  0  0
  7  8  1  0  0  0
  7 38  1  0  0  0
  7 39  1  0  0  0
  8  9  1  0  0  0
  9 10  2  0  0  0
  9 11  1  0  0  0
 11 12  1  0  0  0
 11 13  1  0  0  0
 11 14  1  0  0  0
 13 40  1  0  0  0
 13 41  1  0  0  0
 13 42  1  0  0  0
 14 15  1  0  0  0
 14 43  1  0  0  0
 15 16  2  0  0  0
 15 17  1  0  0  0
 17 18  1  0  0  0
 17 44  1  0  0  0
 18 23  2  0  0  0
 18 19  1  0  0  0
 19 20  2  0  0  0
 19 45  1  0  0  0
 20 21  1  0  0  0
 20 46  1  0  0  0
 21 22  2  0  0  0
 21 24  1  0  0  0
 22 23  1  0  0  0
 22 47  1  0  0  0
 23 48  1  0  0  0
 24 28  2  0  0  0
 24 25  1  0  0  0
 25 26  2  0  0  0
 26 27  1  0  0  0
 26 49  1  0  0  0
 27 28  1  0  0  0
M  END
> <i_i_glide_confnum>
91

> <i_i_glide_lignum>
1515

> <i_i_glide_posenum>
209

> <i_i_glide_rotatable_bonds>
7

> <i_m_Source_File_Index>
5758

> <b_m_subgroup_collapsed>
0

> <r_i_docking_score>
-5.30409

> <r_i_glide_ecoul>
-7.32584

> <r_i_glide_eff_state_penalty>
0

> <r_i_glide_einternal>
5.4942

> <r_i_glide_emodel>
-49.1516

> <r_i_glide_energy>
-38.1923

> <r_i_glide_erotb>
1.04906

> <r_i_glide_esite>
-0.0480207

> <r_i_glide_evdw>
-30.8665

> <r_i_glide_gscore>
-5.30409

> <r_i_glide_hbond>
-0.541624

> <r_i_glide_ligand_efficiency>
-0.204003

> <r_i_glide_ligand_efficiency_ln>
-1.24565

> <r_i_glide_ligand_efficiency_sa>
-0.604359

> <r_i_glide_lipo>
-1.7602

> <r_i_glide_metal>
0

> <r_i_glide_rewards>
-1.3611

> <s_i_glide_gridfile>
wee1_glide-grid

> <s_m_Source_File>
wee1_decoys_glide_SP.sdf

> <s_m_Source_Path>
/Users/zhangxujun/Desktop

> <s_m_entry_id>
6033

> <s_m_entry_name>
wee1_decoys_glide_SP.5758

> <s_m_subgroup_title>
wee1_decoys_glide_SP

> <s_m_subgroupid>
wee1_decoys_glide_SP


$$$$
