ZINC44938923_5760
                    3D
 Schrodinger Suite 2024-2.
 73 76  0  0  1  0            999 V2000
   -2.4734   51.2978   24.4958 C   0  0  0  0  0  0
   -2.1367   50.4272   25.7301 C   0  0  0  0  0  0
   -3.4654   50.1218   26.4745 C   0  0  0  0  0  0
   -1.5607   49.0710   25.2484 C   0  0  0  0  0  0
   -1.1048   51.1804   26.6102 C   0  0  0  0  0  0
   -1.4230   51.6964   27.8732 C   0  0  0  0  0  0
   -0.4948   52.4383   28.5986 C   0  0  0  0  0  0
    0.7929   52.6809   28.0957 C   0  0  0  0  0  0
    1.1322   52.0806   26.8763 C   0  0  0  0  0  0
    0.1962   51.3690   26.1343 C   0  0  0  0  0  0
    1.7703   53.5119   28.9056 C   0  0  0  0  0  0
    1.4764   53.8214   30.0646 O   0  0  0  0  0  0
    3.1327   53.9072   28.3895 C   0  0  0  0  0  0
    4.1865   54.0900   29.3000 C   0  0  0  0  0  0
    5.4624   54.4376   28.8623 C   0  0  0  0  0  0
    5.7238   54.5770   27.5052 C   0  0  0  0  0  0
    4.6838   54.4396   26.5771 C   0  0  0  0  0  0
    3.3908   54.1686   27.0345 C   0  0  0  0  0  0
    4.8381   54.5220   25.1855 N   0  0  0  0  0  0
    5.9602   54.5878   24.4387 C   0  0  0  0  0  0
    7.1003   54.7293   24.8861 O   0  0  0  0  0  0
    5.7207   54.4958   22.9482 C   0  0  0  0  0  0
    4.5649   53.8895   22.4187 C   0  0  0  0  0  0
    4.3623   53.8184   21.0431 C   0  0  0  0  0  0
    5.3201   54.3259   20.1706 C   0  0  0  0  0  0
    6.4869   54.9061   20.6707 C   0  0  0  0  0  0
    6.6688   55.0172   22.0540 C   0  0  0  0  0  0
    7.5597   55.4098   19.7129 C   0  0  0  0  0  0
    7.4093   56.8220   19.3400 N   0  0  0  0  0  0
    8.6518   57.2460   18.6525 C   0  0  0  0  0  0
    8.5496   58.7231   18.2151 C   0  0  0  0  0  0
    7.3650   58.8979   17.3560 N   0  0  0  0  0  0
    6.1166   58.5014   18.0323 C   0  0  0  0  0  0
    6.2123   57.0301   18.4889 C   0  0  0  0  0  0
    7.4996   58.7560   15.5969 S   0  0  0  0  0  0
    8.8663   59.1388   15.2155 O   0  0  0  0  0  0
    6.9712   57.4400   15.2155 O   0  0  0  0  0  0
    6.3157   60.0646   14.9494 C   0  0  0  0  0  0
   -3.2182   50.8185   23.8594 H   0  0  0  0  0  0
   -1.5941   51.4830   23.8756 H   0  0  0  0  0  0
   -2.8734   52.2709   24.7896 H   0  0  0  0  0  0
   -3.2990   49.5192   27.3696 H   0  0  0  0  0  0
   -3.9837   51.0325   26.7759 H   0  0  0  0  0  0
   -4.1579   49.5612   25.8437 H   0  0  0  0  0  0
   -1.2520   48.4429   26.0818 H   0  0  0  0  0  0
   -2.2940   48.5018   24.6734 H   0  0  0  0  0  0
   -0.6949   49.1907   24.6005 H   0  0  0  0  0  0
   -2.3967   51.5441   28.3135 H   0  0  0  0  0  0
   -0.7943   52.8281   29.5644 H   0  0  0  0  0  0
    2.1259   52.1254   26.4694 H   0  0  0  0  0  0
    0.4949   50.9617   25.1805 H   0  0  0  0  0  0
    4.0369   53.9463   30.3599 H   0  0  0  0  0  0
    6.2659   54.5662   29.5709 H   0  0  0  0  0  0
    6.7357   54.8096   27.2149 H   0  0  0  0  0  0
    2.5875   54.1374   26.3117 H   0  0  0  0  0  0
    3.9803   54.4500   24.6643 H   0  0  0  0  0  0
    3.8077   53.4662   23.0590 H   0  0  0  0  0  0
    3.4695   53.3579   20.6485 H   0  0  0  0  0  0
    5.1644   54.2369   19.1046 H   0  0  0  0  0  0
    7.5683   55.4889   22.4283 H   0  0  0  0  0  0
    8.5258   55.2720   20.2039 H   0  0  0  0  0  0
    7.5704   54.7870   18.8163 H   0  0  0  0  0  0
    9.5310   57.0996   19.2840 H   0  0  0  0  0  0
    8.7318   56.6238   17.7581 H   0  0  0  0  0  0
    9.4350   59.0387   17.6634 H   0  0  0  0  0  0
    8.4629   59.3855   19.0768 H   0  0  0  0  0  0
    5.2860   58.6575   17.3444 H   0  0  0  0  0  0
    5.9418   59.1704   18.8792 H   0  0  0  0  0  0
    6.3622   56.4027   17.6067 H   0  0  0  0  0  0
    5.2910   56.7525   19.0036 H   0  0  0  0  0  0
    6.3687   60.0800   13.8630 H   0  0  0  0  0  0
    5.3032   59.8223   15.2753 H   0  0  0  0  0  0
    6.6060   61.0313   15.3605 H   0  0  0  0  0  0
  1  2  1  0  0  0
  1 39  1  0  0  0
  1 40  1  0  0  0
  1 41  1  0  0  0
  2  3  1  0  0  0
  2  4  1  0  0  0
  2  5  1  0  0  0
  3 42  1  0  0  0
  3 43  1  0  0  0
  3 44  1  0  0  0
  4 45  1  0  0  0
  4 46  1  0  0  0
  4 47  1  0  0  0
  5 10  2  0  0  0
  5  6  1  0  0  0
  6  7  2  0  0  0
  6 48  1  0  0  0
  7  8  1  0  0  0
  7 49  1  0  0  0
  8  9  2  0  0  0
  8 11  1  0  0  0
  9 10  1  0  0  0
  9 50  1  0  0  0
 10 51  1  0  0  0
 11 12  2  0  0  0
 11 13  1  0  0  0
 13 18  2  0  0  0
 13 14  1  0  0  0
 14 15  2  0  0  0
 14 52  1  0  0  0
 15 16  1  0  0  0
 15 53  1  0  0  0
 16 17  2  0  0  0
 16 54  1  0  0  0
 17 18  1  0  0  0
 17 19  1  0  0  0
 18 55  1  0  0  0
 19 20  1  0  0  0
 19 56  1  0  0  0
 20 21  2  0  0  0
 20 22  1  0  0  0
 22 27  2  0  0  0
 22 23  1  0  0  0
 23 24  2  0  0  0
 23 57  1  0  0  0
 24 25  1  0  0  0
 24 58  1  0  0  0
 25 26  2  0  0  0
 25 59  1  0  0  0
 26 27  1  0  0  0
 26 28  1  0  0  0
 27 60  1  0  0  0
 28 29  1  0  0  0
 28 61  1  0  0  0
 28 62  1  0  0  0
 29 34  1  0  0  0
 29 30  1  0  0  0
 30 31  1  0  0  0
 30 63  1  0  0  0
 30 64  1  0  0  0
 31 32  1  0  0  0
 31 65  1  0  0  0
 31 66  1  0  0  0
 32 33  1  0  0  0
 32 35  1  0  0  0
 33 34  1  0  0  0
 33 67  1  0  0  0
 33 68  1  0  0  0
 34 69  1  0  0  0
 34 70  1  0  0  0
 35 36  2  0  0  0
 35 37  2  0  0  0
 35 38  1  0  0  0
 38 71  1  0  0  0
 38 72  1  0  0  0
 38 73  1  0  0  0
M  END
> <i_i_glide_confnum>
157

> <i_i_glide_lignum>
5761

> <i_i_glide_posenum>
320

> <i_i_glide_rotatable_bonds>
9

> <i_m_Source_File_Index>
5265

> <b_m_subgroup_collapsed>
0

> <r_i_docking_score>
-6.3515

> <r_i_glide_ecoul>
-6.57006

> <r_i_glide_eff_state_penalty>
0

> <r_i_glide_einternal>
2.05474

> <r_i_glide_emodel>
-76.4289

> <r_i_glide_energy>
-53.6232

> <r_i_glide_erotb>
0.507118

> <r_i_glide_esite>
-0.098092

> <r_i_glide_evdw>
-47.0532

> <r_i_glide_gscore>
-6.3515

> <r_i_glide_hbond>
-0.233205

> <r_i_glide_ligand_efficiency>
-0.167145

> <r_i_glide_ligand_efficiency_ln>
-1.36957

> <r_i_glide_ligand_efficiency_sa>
-0.561937

> <r_i_glide_lipo>
-2.46858

> <r_i_glide_metal>
0

> <r_i_glide_rewards>
-0.720582

> <s_i_glide_gridfile>
wee1_glide-grid

> <s_m_Source_File>
wee1_decoys_glide_SP.sdf

> <s_m_Source_Path>
/Users/zhangxujun/Desktop

> <s_m_entry_id>
5540

> <s_m_entry_name>
wee1_decoys_glide_SP.5265

> <s_m_subgroup_title>
wee1_decoys_glide_SP

> <s_m_subgroupid>
wee1_decoys_glide_SP


$$$$
