ZINC10768220_2343
                    3D
 Schrodinger Suite 2024-2.
 55 58  0  0  1  0            999 V2000
    8.0470   56.0951   19.2575 C   0  0  0  0  0  0
    6.7217   56.0015   18.8493 C   0  0  0  0  0  0
    5.7631   55.5217   19.7368 C   0  0  0  0  0  0
    6.1123   55.1426   21.0428 C   0  0  0  0  0  0
    7.4448   55.2967   21.4503 C   0  0  0  0  0  0
    8.4098   55.7379   20.5516 C   0  0  0  0  0  0
    5.0452   54.5554   21.9602 C   0  0  1  0  0  0
    4.1859   55.2268   21.9759 H   0  0  0  0  0  0
    4.5362   53.1960   21.3945 C   0  0  0  0  0  0
    5.1064   52.1383   21.6820 O   0  0  0  0  0  0
    3.5036   53.2965   20.5315 N   0  0  0  0  0  0
    2.8655   52.2585   19.8466 C   0  0  0  0  0  0
    2.4120   52.5188   18.5523 C   0  0  0  0  0  0
    1.7459   51.5317   17.8297 C   0  0  0  0  0  0
    1.5053   50.2871   18.4080 C   0  0  0  0  0  0
    1.9257   50.0210   19.7169 C   0  0  0  0  0  0
    2.6175   51.0095   20.4283 C   0  0  0  0  0  0
    1.6163   48.6741   20.3536 C   0  0  0  0  0  0
    0.3174   48.6184   20.6469 F   0  0  0  0  0  0
    2.3041   48.4978   21.4793 F   0  0  0  0  0  0
    1.9057   47.6804   19.5147 F   0  0  0  0  0  0
    5.4394   54.3784   23.3575 N   0  0  0  0  0  0
    4.6596   54.1521   24.5066 C   0  0  0  0  0  0
    3.2760   53.9540   24.4437 C   0  0  0  0  0  0
    2.5524   53.6966   25.6061 C   0  0  0  0  0  0
    3.1942   53.6699   26.8479 C   0  0  0  0  0  0
    4.5787   53.8847   26.9125 C   0  0  0  0  0  0
    5.3038   54.1192   25.7461 C   0  0  0  0  0  0
    2.3891   53.3534   27.9624 N   0  0  0  0  0  0
    2.6319   53.5358   29.2784 C   0  0  0  0  0  0
    3.6245   54.1013   29.7376 O   0  0  0  0  0  0
    1.5883   53.0086   30.2847 C   0  0  0  0  0  0
    0.3881   53.8935   30.5220 C   0  0  0  0  0  0
    0.2222   52.5705   29.7853 C   0  0  0  0  0  0
    8.8004   56.4511   18.5691 H   0  0  0  0  0  0
    6.4405   56.2796   17.8435 H   0  0  0  0  0  0
    4.7440   55.4319   19.3901 H   0  0  0  0  0  0
    7.7678   55.0318   22.4468 H   0  0  0  0  0  0
    9.4401   55.8264   20.8629 H   0  0  0  0  0  0
    3.1643   54.2223   20.3071 H   0  0  0  0  0  0
    2.5822   53.4842   18.0945 H   0  0  0  0  0  0
    1.4161   51.7308   16.8218 H   0  0  0  0  0  0
    0.9908   49.5274   17.8372 H   0  0  0  0  0  0
    2.9435   50.8156   21.4419 H   0  0  0  0  0  0
    6.4106   54.5768   23.5454 H   0  0  0  0  0  0
    2.7559   53.9783   23.4969 H   0  0  0  0  0  0
    1.4882   53.5248   25.5323 H   0  0  0  0  0  0
    5.1169   53.8389   27.8483 H   0  0  0  0  0  0
    6.3723   54.2650   25.8113 H   0  0  0  0  0  0
    1.4964   52.9437   27.7374 H   0  0  0  0  0  0
    2.0209   52.4853   31.1370 H   0  0  0  0  0  0
    0.0110   53.9791   31.5418 H   0  0  0  0  0  0
    0.3038   54.8330   29.9727 H   0  0  0  0  0  0
   -0.0310   52.5873   28.7255 H   0  0  0  0  0  0
   -0.2677   51.7385   30.2981 H   0  0  0  0  0  0
  1  6  2  0  0  0
  1  2  1  0  0  0
  1 35  1  0  0  0
  2  3  2  0  0  0
  2 36  1  0  0  0
  3  4  1  0  0  0
  3 37  1  0  0  0
  4  5  2  0  0  0
  4  7  1  0  0  0
  5  6  1  0  0  0
  5 38  1  0  0  0
  6 39  1  0  0  0
  7  8  1  0  0  0
  7  9  1  0  0  0
  7 22  1  0  0  0
  9 10  2  0  0  0
  9 11  1  0  0  0
 11 12  1  0  0  0
 11 40  1  0  0  0
 12 17  2  0  0  0
 12 13  1  0  0  0
 13 14  2  0  0  0
 13 41  1  0  0  0
 14 15  1  0  0  0
 14 42  1  0  0  0
 15 16  2  0  0  0
 15 43  1  0  0  0
 16 17  1  0  0  0
 16 18  1  0  0  0
 17 44  1  0  0  0
 18 19  1  0  0  0
 18 20  1  0  0  0
 18 21  1  0  0  0
 22 23  1  0  0  0
 22 45  1  0  0  0
 23 28  2  0  0  0
 23 24  1  0  0  0
 24 25  2  0  0  0
 24 46  1  0  0  0
 25 26  1  0  0  0
 25 47  1  0  0  0
 26 27  2  0  0  0
 26 29  1  0  0  0
 27 28  1  0  0  0
 27 48  1  0  0  0
 28 49  1  0  0  0
 29 30  1  0  0  0
 29 50  1  0  0  0
 30 31  2  0  0  0
 30 32  1  0  0  0
 32 34  1  0  0  0
 32 33  1  0  0  0
 32 51  1  0  0  0
 33 34  1  0  0  0
 33 52  1  0  0  0
 33 53  1  0  0  0
 34 54  1  0  0  0
 34 55  1  0  0  0
M  END
> <i_i_glide_confnum>
314

> <i_i_glide_lignum>
2344

> <i_i_glide_posenum>
229

> <i_i_glide_rotatable_bonds>
10

> <i_m_Source_File_Index>
596

> <b_m_subgroup_collapsed>
0

> <r_i_docking_score>
-5.85484

> <r_i_glide_ecoul>
-7.11251

> <r_i_glide_eff_state_penalty>
0

> <r_i_glide_einternal>
10.911

> <r_i_glide_emodel>
-63.3474

> <r_i_glide_energy>
-50.3638

> <r_i_glide_erotb>
0.878597

> <r_i_glide_esite>
-0.0488024

> <r_i_glide_evdw>
-43.2513

> <r_i_glide_gscore>
-5.85484

> <r_i_glide_hbond>
-0.453463

> <r_i_glide_ligand_efficiency>
-0.177419

> <r_i_glide_ligand_efficiency_ln>
-1.30209

> <r_i_glide_ligand_efficiency_sa>
-0.569079

> <r_i_glide_lipo>
-2.453

> <r_i_glide_metal>
0

> <r_i_glide_rewards>
-0.54873

> <s_i_glide_gridfile>
wee1_glide-grid

> <s_m_Source_File>
wee1_decoys_glide_SP.sdf

> <s_m_Source_Path>
/Users/zhangxujun/Desktop

> <s_m_entry_id>
871

> <s_m_entry_name>
wee1_decoys_glide_SP.596

> <s_m_subgroup_title>
wee1_decoys_glide_SP

> <s_m_subgroupid>
wee1_decoys_glide_SP


$$$$
