ZINC19095501_1471
                    3D
 Schrodinger Suite 2024-2.
 44 47  0  0  1  0            999 V2000
    0.4782   54.4917   31.1357 C   0  0  0  0  0  0
    0.8964   53.5371   30.1196 N   0  0  0  0  0  0
    1.1815   53.8688   28.8482 C   0  0  0  0  0  0
    1.1100   55.0273   28.4360 O   0  0  0  0  0  0
    1.6408   52.7061   27.9264 C   0  0  1  0  0  0
    0.8921   51.9331   28.1096 H   0  0  0  0  0  0
    1.6804   53.0477   26.4105 C   0  0  0  0  0  0
    2.8462   53.8621   26.0218 N   0  0  0  0  0  0
    3.9838   53.8319   26.8315 C   0  0  0  0  0  0
    5.1273   54.5895   26.5416 C   0  0  0  0  0  0
    6.2569   54.5191   27.3531 C   0  0  0  0  0  0
    6.2494   53.7076   28.4817 C   0  0  0  0  0  0
    5.1046   52.9813   28.8153 C   0  0  0  0  0  0
    3.9794   53.0465   28.0039 C   0  0  0  0  0  0
    2.9121   52.2608   28.4054 O   0  0  0  0  0  0
    2.6899   54.4868   24.6946 C   0  0  0  0  0  0
    3.5758   53.8920   23.5814 C   0  0  0  0  0  0
    4.7790   53.6968   23.7536 O   0  0  0  0  0  0
    2.9439   53.6739   22.4168 N   0  0  0  0  0  0
    3.5044   53.3737   21.1662 C   0  0  0  0  0  0
    2.7662   52.5017   20.3547 C   0  0  0  0  0  0
    3.1101   52.2689   19.0238 C   0  0  0  0  0  0
    4.2112   52.8969   18.4386 C   0  0  0  0  0  0
    4.9841   53.7448   19.2376 C   0  0  0  0  0  0
    4.6416   53.9946   20.5864 C   0  0  0  0  0  0
    5.4521   54.8947   21.1986 N   0  0  0  0  0  0
    6.6030   55.3090   20.0670 S   0  0  0  0  0  0
    6.0781   54.3943   18.7764 N   0  0  0  0  0  0
    0.4076   54.0034   32.1135 H   0  0  0  0  0  0
    1.1719   55.3323   31.2025 H   0  0  0  0  0  0
   -0.4960   54.8971   30.8795 H   0  0  0  0  0  0
    0.9501   52.5660   30.3935 H   0  0  0  0  0  0
    0.7395   53.3999   25.9946 H   0  0  0  0  0  0
    1.8634   52.0869   25.9356 H   0  0  0  0  0  0
    5.1597   55.2365   25.6784 H   0  0  0  0  0  0
    7.1328   55.1023   27.1167 H   0  0  0  0  0  0
    7.1256   53.6661   29.1094 H   0  0  0  0  0  0
    5.0959   52.3511   29.6890 H   0  0  0  0  0  0
    2.9767   55.5262   24.7824 H   0  0  0  0  0  0
    1.6490   54.4974   24.3694 H   0  0  0  0  0  0
    1.9354   53.6653   22.4376 H   0  0  0  0  0  0
    1.8865   52.0125   20.7471 H   0  0  0  0  0  0
    2.5222   51.5847   18.4316 H   0  0  0  0  0  0
    4.4803   52.6866   17.4138 H   0  0  0  0  0  0
  1  2  1  0  0  0
  1 29  1  0  0  0
  1 30  1  0  0  0
  1 31  1  0  0  0
  2  3  1  0  0  0
  2 32  1  0  0  0
  3  4  2  0  0  0
  3  5  1  0  0  0
  5  6  1  0  0  0
  5 15  1  0  0  0
  5  7  1  0  0  0
  7  8  1  0  0  0
  7 33  1  0  0  0
  7 34  1  0  0  0
  8  9  1  0  0  0
  8 16  1  0  0  0
  9 14  2  0  0  0
  9 10  1  0  0  0
 10 11  2  0  0  0
 10 35  1  0  0  0
 11 12  1  0  0  0
 11 36  1  0  0  0
 12 13  2  0  0  0
 12 37  1  0  0  0
 13 14  1  0  0  0
 13 38  1  0  0  0
 14 15  1  0  0  0
 16 17  1  0  0  0
 16 39  1  0  0  0
 16 40  1  0  0  0
 17 18  2  0  0  0
 17 19  1  0  0  0
 19 20  1  0  0  0
 19 41  1  0  0  0
 20 25  1  0  0  0
 20 21  2  0  0  0
 21 22  1  0  0  0
 21 42  1  0  0  0
 22 23  2  0  0  0
 22 43  1  0  0  0
 23 24  1  0  0  0
 23 44  1  0  0  0
 24 28  2  0  0  0
 24 25  1  0  0  0
 25 26  2  0  0  0
 26 27  1  0  0  0
 27 28  1  0  0  0
M  END
> <i_i_glide_confnum>
20

> <i_i_glide_lignum>
1472

> <i_i_glide_posenum>
61

> <i_i_glide_rotatable_bonds>
6

> <i_m_Source_File_Index>
2071

> <b_m_subgroup_collapsed>
0

> <r_i_docking_score>
-5.74189

> <r_i_glide_ecoul>
-0.832357

> <r_i_glide_eff_state_penalty>
0

> <r_i_glide_einternal>
9.40158

> <r_i_glide_emodel>
-50.9797

> <r_i_glide_energy>
-39.6947

> <r_i_glide_erotb>
0.528708

> <r_i_glide_esite>
0

> <r_i_glide_evdw>
-38.8624

> <r_i_glide_gscore>
-5.74189

> <r_i_glide_hbond>
0

> <r_i_glide_ligand_efficiency>
-0.212663

> <r_i_glide_ligand_efficiency_ln>
-1.33662

> <r_i_glide_ligand_efficiency_sa>
-0.637988

> <r_i_glide_lipo>
-2.45677

> <r_i_glide_metal>
0

> <r_i_glide_rewards>
-1.74585

> <s_i_glide_gridfile>
wee1_glide-grid

> <s_m_Source_File>
wee1_decoys_glide_SP.sdf

> <s_m_Source_Path>
/Users/zhangxujun/Desktop

> <s_m_entry_id>
2346

> <s_m_entry_name>
wee1_decoys_glide_SP.2071

> <s_m_subgroup_title>
wee1_decoys_glide_SP

> <s_m_subgroupid>
wee1_decoys_glide_SP


$$$$
