ZINC34912078_1132
                    3D
 Schrodinger Suite 2024-2.
 59 62  0  0  1  0            999 V2000
    0.6479   58.3207   14.0458 C   0  0  0  0  0  0
   -0.1595   59.2723   13.4264 C   0  0  0  0  0  0
    0.2663   60.5952   13.3448 C   0  0  0  0  0  0
    1.4992   60.9748   13.8676 C   0  0  0  0  0  0
    2.3116   60.0256   14.4813 C   0  0  0  0  0  0
    1.8865   58.6981   14.5901 C   0  0  0  0  0  0
    2.7685   57.8136   15.2407 N   0  0  0  0  0  0
    2.5072   56.6163   15.8150 C   0  0  0  0  0  0
    1.3917   56.0927   15.8280 O   0  0  0  0  0  0
    3.6999   55.9091   16.5209 C   0  0  1  0  0  0
    4.4713   56.9135   17.4198 C   0  0  0  0  0  0
    5.4918   56.2532   18.3631 C   0  0  0  0  0  0
    4.7783   55.1479   19.1831 N   0  3  1  0  0  0
    4.3132   54.0416   18.2019 C   0  0  0  0  0  0
    3.2300   54.6357   17.2844 C   0  0  0  0  0  0
    5.6360   54.5373   20.3353 C   0  0  0  0  0  0
    6.4993   55.6056   21.0688 C   0  0  0  0  0  0
    7.1017   55.1714   22.4303 C   0  0  0  0  0  0
    6.0321   54.5620   23.2532 N   0  0  0  0  0  0
    5.3787   53.3934   22.6387 C   0  0  0  0  0  0
    4.6801   53.8629   21.3474 C   0  0  0  0  0  0
    5.9157   54.8988   24.5760 C   0  0  0  0  0  0
    6.7082   55.6721   25.1221 O   0  0  0  0  0  0
    4.7820   54.3598   25.4312 C   0  0  0  0  0  0
    3.4790   54.1939   24.9349 C   0  0  0  0  0  0
    2.4614   53.6966   25.7489 C   0  0  0  0  0  0
    2.7100   53.4072   27.0895 C   0  0  0  0  0  0
    3.9907   53.6114   27.6162 C   0  0  0  0  0  0
    5.0124   54.0856   26.7897 C   0  0  0  0  0  0
    4.3387   53.2765   29.2776 Cl  0  0  0  0  0  0
    1.4159   52.8078   28.0684 Cl  0  0  0  0  0  0
   -0.5232   61.5172   12.7489 F   0  0  0  0  0  0
    0.2976   57.3015   14.0813 H   0  0  0  0  0  0
   -1.1135   58.9868   13.0085 H   0  0  0  0  0  0
    1.8254   62.0020   13.7987 H   0  0  0  0  0  0
    3.2662   60.3406   14.8817 H   0  0  0  0  0  0
    3.6954   58.1858   15.3812 H   0  0  0  0  0  0
    4.3662   55.5873   15.7188 H   0  0  0  0  0  0
    5.0289   57.6378   16.8231 H   0  0  0  0  0  0
    3.7743   57.4240   18.0817 H   0  0  0  0  0  0
    6.3417   55.8014   17.8471 H   0  0  0  0  0  0
    5.8420   57.0271   19.0448 H   0  0  0  0  0  0
    5.1854   53.6648   17.6632 H   0  0  0  0  0  0
    3.8736   53.2232   18.7715 H   0  0  0  0  0  0
    2.4072   54.8776   17.9607 H   0  0  0  0  0  0
    2.9324   53.8496   16.5879 H   0  0  0  0  0  0
    6.3044   53.7735   19.9349 H   0  0  0  0  0  0
    7.2843   55.9876   20.4157 H   0  0  0  0  0  0
    5.8781   56.4755   21.2810 H   0  0  0  0  0  0
    7.8942   54.4399   22.2779 H   0  0  0  0  0  0
    7.5368   56.0547   22.9026 H   0  0  0  0  0  0
    6.1496   52.6580   22.4093 H   0  0  0  0  0  0
    4.6665   52.8969   23.2865 H   0  0  0  0  0  0
    3.8944   54.5681   21.6257 H   0  0  0  0  0  0
    4.1371   53.0348   20.8944 H   0  0  0  0  0  0
    3.2350   54.4539   23.9153 H   0  0  0  0  0  0
    1.4697   53.5585   25.3432 H   0  0  0  0  0  0
    5.9959   54.2320   27.2160 H   0  0  0  0  0  0
    3.9611   55.5364   19.6340 H   0  0  0  0  0  0
  1  6  2  0  0  0
  1  2  1  0  0  0
  1 33  1  0  0  0
  2  3  2  0  0  0
  2 34  1  0  0  0
  3  4  1  0  0  0
  3 32  1  0  0  0
  4  5  2  0  0  0
  4 35  1  0  0  0
  5  6  1  0  0  0
  5 36  1  0  0  0
  6  7  1  0  0  0
  7  8  1  0  0  0
  7 37  1  0  0  0
  8  9  2  0  0  0
  8 10  1  0  0  0
 10 15  1  0  0  0
 10 11  1  0  0  0
 10 38  1  0  0  0
 11 12  1  0  0  0
 11 39  1  0  0  0
 11 40  1  0  0  0
 12 13  1  0  0  0
 12 41  1  0  0  0
 12 42  1  0  0  0
 13 14  1  0  0  0
 13 16  1  0  0  0
 13 59  1  0  0  0
 14 15  1  0  0  0
 14 43  1  0  0  0
 14 44  1  0  0  0
 15 45  1  0  0  0
 15 46  1  0  0  0
 16 21  1  0  0  0
 16 17  1  0  0  0
 16 47  1  0  0  0
 17 18  1  0  0  0
 17 48  1  0  0  0
 17 49  1  0  0  0
 18 19  1  0  0  0
 18 50  1  0  0  0
 18 51  1  0  0  0
 19 20  1  0  0  0
 19 22  1  0  0  0
 20 21  1  0  0  0
 20 52  1  0  0  0
 20 53  1  0  0  0
 21 54  1  0  0  0
 21 55  1  0  0  0
 22 23  2  0  0  0
 22 24  1  0  0  0
 24 29  2  0  0  0
 24 25  1  0  0  0
 25 26  2  0  0  0
 25 56  1  0  0  0
 26 27  1  0  0  0
 26 57  1  0  0  0
 27 28  2  0  0  0
 27 31  1  0  0  0
 28 29  1  0  0  0
 28 30  1  0  0  0
 29 58  1  0  0  0
M  CHG  1  13   1
M  END
> <i_i_glide_confnum>
196

> <i_i_glide_lignum>
1133

> <i_i_glide_posenum>
53

> <i_i_glide_rotatable_bonds>
6

> <i_m_Source_File_Index>
3557

> <b_m_subgroup_collapsed>
0

> <r_i_docking_score>
-5.73907

> <r_i_glide_ecoul>
-4.19894

> <r_i_glide_eff_state_penalty>
0

> <r_i_glide_einternal>
7.27829

> <r_i_glide_emodel>
-56.1292

> <r_i_glide_energy>
-42.3752

> <r_i_glide_erotb>
0.529238

> <r_i_glide_esite>
-0.011244

> <r_i_glide_evdw>
-38.1763

> <r_i_glide_gscore>
-5.73907

> <r_i_glide_hbond>
-0.200763

> <r_i_glide_ligand_efficiency>
-0.179346

> <r_i_glide_ligand_efficiency_ln>
-1.28513

> <r_i_glide_ligand_efficiency_sa>
-0.569388

> <r_i_glide_lipo>
-2.59378

> <r_i_glide_metal>
0

> <r_i_glide_rewards>
-0.923867

> <s_i_glide_gridfile>
wee1_glide-grid

> <s_m_Source_File>
wee1_decoys_glide_SP.sdf

> <s_m_Source_Path>
/Users/zhangxujun/Desktop

> <s_m_entry_id>
3832

> <s_m_entry_name>
wee1_decoys_glide_SP.3557

> <s_m_subgroup_title>
wee1_decoys_glide_SP

> <s_m_subgroupid>
wee1_decoys_glide_SP


$$$$
