ZINC11916732_5576
                    3D
 Schrodinger Suite 2024-2.
 56 59  0  0  1  0            999 V2000
    0.5223   54.0992   30.6939 C   0  0  0  0  0  0
    1.1045   54.9796   29.7839 C   0  0  0  0  0  0
    1.3721   54.5555   28.4833 C   0  0  0  0  0  0
    1.0901   53.2379   28.1051 C   0  0  0  0  0  0
    0.4881   52.3706   29.0228 C   0  0  0  0  0  0
    0.2137   52.7934   30.3203 C   0  0  0  0  0  0
    1.3478   52.7013   26.6921 C   0  0  0  0  0  0
    2.3918   53.3192   25.8439 N   0  0  0  0  0  0
    3.6707   53.6965   26.3511 C   0  0  0  0  0  0
    4.1468   53.2412   27.5922 C   0  0  0  0  0  0
    5.4001   53.6143   28.0713 C   0  0  0  0  0  0
    6.2068   54.4524   27.3117 C   0  0  0  0  0  0
    5.7605   54.9243   26.0844 C   0  0  0  0  0  0
    4.4990   54.5621   25.6197 C   0  0  0  0  0  0
    2.0029   53.3673   24.0696 S   0  0  0  0  0  0
    3.2555   53.2943   23.3080 O   0  0  0  0  0  0
    1.1006   54.4967   23.8676 O   0  0  0  0  0  0
    1.0546   51.8971   23.6546 C   0  0  0  0  0  0
    1.6918   50.7942   23.0944 C   0  0  0  0  0  0
    0.9629   49.6629   22.7620 C   0  0  0  0  0  0
   -0.4156   49.6264   22.9719 C   0  0  0  0  0  0
   -1.0664   50.7402   23.5219 C   0  0  0  0  0  0
   -0.3293   51.8751   23.8545 C   0  0  0  0  0  0
   -1.0413   48.4342   22.5854 N   0  0  0  0  0  0
   -2.3466   48.0948   22.5289 C   0  0  0  0  0  0
   -3.2809   48.8125   22.8855 O   0  0  0  0  0  0
   -2.6060   46.7031   21.9926 C   0  0  0  0  0  0
   -3.7700   46.0122   22.3544 C   0  0  0  0  0  0
   -4.0029   44.7197   21.8844 C   0  0  0  0  0  0
   -3.0706   44.0949   21.0557 C   0  0  0  0  0  0
   -1.9034   44.7677   20.6660 C   0  0  0  0  0  0
   -1.6984   46.0750   21.1234 C   0  0  0  0  0  0
   -0.8943   44.1184   19.7956 N   0  3  0  0  0  0
   -0.9162   42.8973   19.6862 O   0  0  0  0  0  0
   -0.0562   44.8217   19.2393 O   0  5  0  0  0  0
    0.3081   54.4304   31.6997 H   0  0  0  0  0  0
    1.3352   55.9929   30.0789 H   0  0  0  0  0  0
    1.8083   55.2472   27.7775 H   0  0  0  0  0  0
    0.2332   51.3592   28.7391 H   0  0  0  0  0  0
   -0.2404   52.1068   31.0258 H   0  0  0  0  0  0
    0.3894   52.7747   26.1836 H   0  0  0  0  0  0
    1.5525   51.6344   26.7600 H   0  0  0  0  0  0
    3.5670   52.5568   28.1909 H   0  0  0  0  0  0
    5.7535   53.2338   29.0170 H   0  0  0  0  0  0
    7.1796   54.7410   27.6820 H   0  0  0  0  0  0
    6.3815   55.5855   25.4974 H   0  0  0  0  0  0
    4.1785   54.9866   24.6818 H   0  0  0  0  0  0
    2.7489   50.8094   22.8883 H   0  0  0  0  0  0
    1.4879   48.8247   22.3292 H   0  0  0  0  0  0
   -2.1299   50.7496   23.6997 H   0  0  0  0  0  0
   -0.8385   52.7356   24.2644 H   0  0  0  0  0  0
   -0.4013   47.7235   22.2753 H   0  0  0  0  0  0
   -4.5011   46.4743   23.0045 H   0  0  0  0  0  0
   -4.9082   44.2013   22.1668 H   0  0  0  0  0  0
   -3.2713   43.0912   20.7067 H   0  0  0  0  0  0
   -0.8090   46.5962   20.7985 H   0  0  0  0  0  0
  1  6  2  0  0  0
  1  2  1  0  0  0
  1 36  1  0  0  0
  2  3  2  0  0  0
  2 37  1  0  0  0
  3  4  1  0  0  0
  3 38  1  0  0  0
  4  5  2  0  0  0
  4  7  1  0  0  0
  5  6  1  0  0  0
  5 39  1  0  0  0
  6 40  1  0  0  0
  7  8  1  0  0  0
  7 41  1  0  0  0
  7 42  1  0  0  0
  8  9  1  0  0  0
  8 15  1  0  0  0
  9 14  2  0  0  0
  9 10  1  0  0  0
 10 11  2  0  0  0
 10 43  1  0  0  0
 11 12  1  0  0  0
 11 44  1  0  0  0
 12 13  2  0  0  0
 12 45  1  0  0  0
 13 14  1  0  0  0
 13 46  1  0  0  0
 14 47  1  0  0  0
 15 16  2  0  0  0
 15 17  2  0  0  0
 15 18  1  0  0  0
 18 23  2  0  0  0
 18 19  1  0  0  0
 19 20  2  0  0  0
 19 48  1  0  0  0
 20 21  1  0  0  0
 20 49  1  0  0  0
 21 22  2  0  0  0
 21 24  1  0  0  0
 22 23  1  0  0  0
 22 50  1  0  0  0
 23 51  1  0  0  0
 24 25  1  0  0  0
 24 52  1  0  0  0
 25 26  2  0  0  0
 25 27  1  0  0  0
 27 32  2  0  0  0
 27 28  1  0  0  0
 28 29  2  0  0  0
 28 53  1  0  0  0
 29 30  1  0  0  0
 29 54  1  0  0  0
 30 31  2  0  0  0
 30 55  1  0  0  0
 31 32  1  0  0  0
 31 33  1  0  0  0
 32 56  1  0  0  0
 33 34  2  0  0  0
 33 35  1  0  0  0
M  CHG  2  33   1  35  -1
M  END
> <i_i_glide_confnum>
108

> <i_i_glide_lignum>
5577

> <i_i_glide_posenum>
240

> <i_i_glide_rotatable_bonds>
9

> <i_m_Source_File_Index>
923

> <b_m_subgroup_collapsed>
0

> <r_i_docking_score>
-4.61879

> <r_i_glide_ecoul>
-1.8216

> <r_i_glide_eff_state_penalty>
0

> <r_i_glide_einternal>
7.49195

> <r_i_glide_emodel>
-51.6484

> <r_i_glide_energy>
-46.6167

> <r_i_glide_erotb>
0.684271

> <r_i_glide_esite>
-0.134666

> <r_i_glide_evdw>
-44.7951

> <r_i_glide_gscore>
-4.61879

> <r_i_glide_hbond>
0

> <r_i_glide_ligand_efficiency>
-0.131965

> <r_i_glide_ligand_efficiency_ln>
-1.01393

> <r_i_glide_ligand_efficiency_sa>
-0.431668

> <r_i_glide_lipo>
-3.13694

> <r_i_glide_metal>
0

> <r_i_glide_rewards>
0.481539

> <s_i_glide_gridfile>
wee1_glide-grid

> <s_m_Source_File>
wee1_decoys_glide_SP.sdf

> <s_m_Source_Path>
/Users/zhangxujun/Desktop

> <s_m_entry_id>
1198

> <s_m_entry_name>
wee1_decoys_glide_SP.923

> <s_m_subgroup_title>
wee1_decoys_glide_SP

> <s_m_subgroupid>
wee1_decoys_glide_SP


$$$$
