ZINC36065820_1085
                    3D
 Schrodinger Suite 2024-2.
 71 75  0  0  1  0            999 V2000
    0.5552   53.4438   23.7789 C   0  0  0  0  0  0
    0.2052   52.0705   24.1746 N   0  0  0  0  0  0
   -0.6297   52.0282   25.3970 C   0  0  0  0  0  0
    0.0755   52.0918   26.7555 C   0  0  0  0  0  0
   -0.6527   51.6919   27.8795 C   0  0  0  0  0  0
   -0.0664   51.6969   29.1403 C   0  0  0  0  0  0
    1.2527   52.1172   29.2822 C   0  0  0  0  0  0
    1.9922   52.5153   28.1717 C   0  0  0  0  0  0
    1.4072   52.4967   26.9083 C   0  0  0  0  0  0
    0.7044   50.9004   23.6655 C   0  0  0  0  0  0
    0.4618   49.8127   24.1949 O   0  0  0  0  0  0
    1.5481   50.8888   22.4782 C   0  0  0  0  0  0
    2.3045   49.7870   22.0831 C   0  0  0  0  0  0
    2.9634   50.0967   20.9447 O   0  0  0  0  0  0
    2.5259   51.3408   20.6613 C   0  0  0  0  0  0
    1.6516   51.8080   21.5269 N   0  0  0  0  0  0
    3.0903   52.0182   19.4225 C   0  0  0  0  0  0
    4.2891   52.9264   19.7985 N   0  3  2  0  0  0
    3.9123   54.0924   20.7431 C   0  0  0  0  0  0
    4.8691   54.3082   21.8998 C   0  0  0  0  0  0
    6.0998   54.9586   21.6913 C   0  0  0  0  0  0
    6.9400   55.2616   22.7706 C   0  0  0  0  0  0
    6.5157   54.8940   24.0463 C   0  0  0  0  0  0
    5.3223   54.2646   24.2516 C   0  0  0  0  0  0
    4.4712   53.9512   23.1996 C   0  0  0  0  0  0
    5.1243   54.0969   25.5862 O   0  0  0  0  0  0
    6.3548   54.4017   26.1839 C   0  0  0  0  0  0
    7.1040   55.1312   25.2504 O   0  0  0  0  0  0
    5.0881   53.4041   18.5498 C   0  0  0  0  0  0
    4.3155   54.2755   17.5566 C   0  0  0  0  0  0
    3.5660   53.6578   16.5513 C   0  0  0  0  0  0
    2.8223   54.4211   15.6568 C   0  0  0  0  0  0
    2.8235   55.8104   15.7557 C   0  0  0  0  0  0
    3.5913   56.4567   16.7384 C   0  0  0  0  0  0
    4.3675   55.6788   17.6173 C   0  0  0  0  0  0
    5.1557   56.2798   18.5741 O   0  0  0  0  0  0
    6.3151   56.9315   18.0709 C   0  0  0  0  0  0
    3.6227   57.8288   16.9037 O   0  0  0  0  0  0
    2.8037   58.6639   16.0939 C   0  0  0  0  0  0
    0.7053   53.5820   22.7129 H   0  0  0  0  0  0
   -0.2535   54.1246   24.0438 H   0  0  0  0  0  0
    1.4475   53.7925   24.2963 H   0  0  0  0  0  0
   -1.2219   51.1094   25.3916 H   0  0  0  0  0  0
   -1.3648   52.8337   25.3623 H   0  0  0  0  0  0
   -1.6721   51.3455   27.7780 H   0  0  0  0  0  0
   -0.6313   51.3575   29.9987 H   0  0  0  0  0  0
    1.7069   52.1210   30.2614 H   0  0  0  0  0  0
    3.0192   52.8250   28.2857 H   0  0  0  0  0  0
    2.0080   52.7812   26.0601 H   0  0  0  0  0  0
    2.4890   48.8102   22.5066 H   0  0  0  0  0  0
    3.4940   51.2972   18.7072 H   0  0  0  0  0  0
    2.3693   52.6598   18.9127 H   0  0  0  0  0  0
    3.8271   54.9652   20.1111 H   0  0  0  0  0  0
    2.9135   53.9189   21.1284 H   0  0  0  0  0  0
    6.3950   55.2648   20.6987 H   0  0  0  0  0  0
    7.8785   55.7748   22.6093 H   0  0  0  0  0  0
    3.5224   53.4709   23.3815 H   0  0  0  0  0  0
    6.8754   53.4704   26.4251 H   0  0  0  0  0  0
    6.2121   54.9709   27.1040 H   0  0  0  0  0  0
    5.9740   53.9094   18.9326 H   0  0  0  0  0  0
    5.4297   52.4968   18.0577 H   0  0  0  0  0  0
    3.5447   52.5807   16.4683 H   0  0  0  0  0  0
    2.2364   53.9328   14.8917 H   0  0  0  0  0  0
    2.2277   56.3749   15.0551 H   0  0  0  0  0  0
    6.9498   57.2267   18.9072 H   0  0  0  0  0  0
    6.9023   56.2751   17.4258 H   0  0  0  0  0  0
    6.0690   57.8366   17.5148 H   0  0  0  0  0  0
    2.9172   59.6957   16.4211 H   0  0  0  0  0  0
    3.0961   58.6163   15.0445 H   0  0  0  0  0  0
    1.7470   58.4095   16.1885 H   0  0  0  0  0  0
    4.9163   52.3271   20.3183 H   0  0  0  0  0  0
  1  2  1  0  0  0
  1 40  1  0  0  0
  1 41  1  0  0  0
  1 42  1  0  0  0
  2  3  1  0  0  0
  2 10  1  0  0  0
  3  4  1  0  0  0
  3 43  1  0  0  0
  3 44  1  0  0  0
  4  9  2  0  0  0
  4  5  1  0  0  0
  5  6  2  0  0  0
  5 45  1  0  0  0
  6  7  1  0  0  0
  6 46  1  0  0  0
  7  8  2  0  0  0
  7 47  1  0  0  0
  8  9  1  0  0  0
  8 48  1  0  0  0
  9 49  1  0  0  0
 10 11  2  0  0  0
 10 12  1  0  0  0
 12 16  1  0  0  0
 12 13  2  0  0  0
 13 14  1  0  0  0
 13 50  1  0  0  0
 14 15  1  0  0  0
 15 16  2  0  0  0
 15 17  1  0  0  0
 17 18  1  0  0  0
 17 51  1  0  0  0
 17 52  1  0  0  0
 18 19  1  0  0  0
 18 29  1  0  0  0
 18 71  1  0  0  0
 19 20  1  0  0  0
 19 53  1  0  0  0
 19 54  1  0  0  0
 20 25  2  0  0  0
 20 21  1  0  0  0
 21 22  2  0  0  0
 21 55  1  0  0  0
 22 23  1  0  0  0
 22 56  1  0  0  0
 23 28  1  0  0  0
 23 24  2  0  0  0
 24 25  1  0  0  0
 24 26  1  0  0  0
 25 57  1  0  0  0
 26 27  1  0  0  0
 27 28  1  0  0  0
 27 58  1  0  0  0
 27 59  1  0  0  0
 29 30  1  0  0  0
 29 60  1  0  0  0
 29 61  1  0  0  0
 30 35  2  0  0  0
 30 31  1  0  0  0
 31 32  2  0  0  0
 31 62  1  0  0  0
 32 33  1  0  0  0
 32 63  1  0  0  0
 33 34  2  0  0  0
 33 64  1  0  0  0
 34 35  1  0  0  0
 34 38  1  0  0  0
 35 36  1  0  0  0
 36 37  1  0  0  0
 37 65  1  0  0  0
 37 66  1  0  0  0
 37 67  1  0  0  0
 38 39  1  0  0  0
 39 68  1  0  0  0
 39 69  1  0  0  0
 39 70  1  0  0  0
M  CHG  1  18   1
M  END
> <i_i_glide_confnum>
138

> <i_i_glide_lignum>
1086

> <i_i_glide_posenum>
232

> <i_i_glide_rotatable_bonds>
12

> <i_m_Source_File_Index>
5025

> <b_m_subgroup_collapsed>
0

> <r_i_docking_score>
-6.34435

> <r_i_glide_ecoul>
-5.22893

> <r_i_glide_eff_state_penalty>
0

> <r_i_glide_einternal>
6.9397

> <r_i_glide_emodel>
-73.4976

> <r_i_glide_energy>
-50.5601

> <r_i_glide_erotb>
0.585798

> <r_i_glide_esite>
-0.0370829

> <r_i_glide_evdw>
-45.3311

> <r_i_glide_gscore>
-6.34435

> <r_i_glide_hbond>
-0.32

> <r_i_glide_ligand_efficiency>
-0.162676

> <r_i_glide_ligand_efficiency_ln>
-1.36041

> <r_i_glide_ligand_efficiency_sa>
-0.551668

> <r_i_glide_lipo>
-2.41604

> <r_i_glide_metal>
0

> <r_i_glide_rewards>
-1.10613

> <s_i_glide_gridfile>
wee1_glide-grid

> <s_m_Source_File>
wee1_decoys_glide_SP.sdf

> <s_m_Source_Path>
/Users/zhangxujun/Desktop

> <s_m_entry_id>
5300

> <s_m_entry_name>
wee1_decoys_glide_SP.5025

> <s_m_subgroup_title>
wee1_decoys_glide_SP

> <s_m_subgroupid>
wee1_decoys_glide_SP


$$$$
