ZINC36212483_5505
                    3D
 Schrodinger Suite 2024-2.
 63 66  0  0  1  0            999 V2000
   -1.0709   51.3566   19.1882 C   0  0  0  0  0  0
   -0.6246   50.6840   20.3216 C   0  0  0  0  0  0
    0.6922   50.8421   20.7456 C   0  0  0  0  0  0
    1.5681   51.6798   20.0414 C   0  0  0  0  0  0
    1.1062   52.3441   18.8940 C   0  0  0  0  0  0
   -0.2111   52.1841   18.4714 C   0  0  0  0  0  0
    2.9914   51.8398   20.5215 C   0  0  0  0  0  0
    3.5503   50.9398   21.1526 O   0  0  0  0  0  0
    3.5701   53.0274   20.2662 N   0  0  0  0  0  0
    4.9369   53.4250   20.6432 C   0  0  2  0  0  0
    5.5015   52.5087   20.8305 H   0  0  0  0  0  0
    5.0044   54.2759   21.9647 C   0  0  0  0  0  0
    3.9173   53.9492   23.0019 C   0  0  0  0  0  0
    4.0870   54.4152   24.4671 C   0  0  0  0  0  0
    5.4900   54.6509   24.9021 N   0  0  0  0  0  0
    6.4817   55.1115   23.9012 C   0  0  0  0  0  0
    6.3728   54.2109   22.6644 C   0  0  0  0  0  0
    5.9090   54.4797   26.2013 C   0  0  0  0  0  0
    7.0966   54.6238   26.5264 O   0  0  0  0  0  0
    4.9217   54.0702   27.2943 C   0  0  0  0  0  0
    5.3387   53.1999   28.3094 C   0  0  0  0  0  0
    4.4439   52.7440   29.2800 C   0  0  0  0  0  0
    3.1143   53.1721   29.2667 C   0  0  0  0  0  0
    2.7104   54.1103   28.3192 C   0  0  0  0  0  0
    3.6074   54.5574   27.3567 C   0  0  0  0  0  0
    2.0984   52.6346   30.2701 C   0  0  0  0  0  0
    1.3707   51.6968   29.6692 F   0  0  0  0  0  0
    2.6927   52.0967   31.3375 F   0  0  0  0  0  0
    1.2818   53.6019   30.6894 F   0  0  0  0  0  0
    5.6193   54.0811   19.4196 C   0  0  0  0  0  0
    5.9672   55.2632   19.4595 O   0  0  0  0  0  0
    5.7776   53.2969   18.3387 N   0  0  0  0  0  0
    6.3761   53.7292   17.0791 C   0  0  0  0  0  0
    7.8296   53.3196   16.9988 C   0  0  0  0  0  0
    9.0305   54.0156   17.0088 C   0  0  0  0  0  0
   10.0499   53.0716   16.8810 C   0  0  0  0  0  0
    9.4260   51.8379   16.8016 C   0  0  0  0  0  0
    8.0794   51.9891   16.8718 O   0  0  0  0  0  0
   -2.0905   51.2275   18.8540 H   0  0  0  0  0  0
   -1.2964   50.0383   20.8677 H   0  0  0  0  0  0
    1.0271   50.3103   21.6252 H   0  0  0  0  0  0
    1.7577   52.9833   18.3157 H   0  0  0  0  0  0
   -0.5592   52.6950   17.5861 H   0  0  0  0  0  0
    3.0216   53.7391   19.8046 H   0  0  0  0  0  0
    4.8258   55.3109   21.6868 H   0  0  0  0  0  0
    2.9106   54.1236   22.6199 H   0  0  0  0  0  0
    3.9272   52.8707   23.0625 H   0  0  0  0  0  0
    3.4751   55.2967   24.6219 H   0  0  0  0  0  0
    3.6707   53.5819   25.0362 H   0  0  0  0  0  0
    6.3046   56.1524   23.6401 H   0  0  0  0  0  0
    7.5045   55.0057   24.2527 H   0  0  0  0  0  0
    6.6318   53.1789   22.9074 H   0  0  0  0  0  0
    7.1463   54.4987   21.9526 H   0  0  0  0  0  0
    6.3559   52.8341   28.3250 H   0  0  0  0  0  0
    4.7865   52.0342   30.0187 H   0  0  0  0  0  0
    1.6946   54.4812   28.3113 H   0  0  0  0  0  0
    3.2519   55.2976   26.6645 H   0  0  0  0  0  0
    5.5043   52.3170   18.3881 H   0  0  0  0  0  0
    5.8196   53.2645   16.2639 H   0  0  0  0  0  0
    6.2589   54.8050   16.9343 H   0  0  0  0  0  0
    9.1520   55.0852   17.0986 H   0  0  0  0  0  0
   11.1130   53.2612   16.8564 H   0  0  0  0  0  0
    9.7882   50.8238   16.7059 H   0  0  0  0  0  0
  1  6  2  0  0  0
  1  2  1  0  0  0
  1 39  1  0  0  0
  2  3  2  0  0  0
  2 40  1  0  0  0
  3  4  1  0  0  0
  3 41  1  0  0  0
  4  5  2  0  0  0
  4  7  1  0  0  0
  5  6  1  0  0  0
  5 42  1  0  0  0
  6 43  1  0  0  0
  7  8  2  0  0  0
  7  9  1  0  0  0
  9 10  1  0  0  0
  9 44  1  0  0  0
 10 11  1  0  0  0
 10 12  1  0  0  0
 10 30  1  0  0  0
 12 17  1  0  0  0
 12 13  1  0  0  0
 12 45  1  0  0  0
 13 14  1  0  0  0
 13 46  1  0  0  0
 13 47  1  0  0  0
 14 15  1  0  0  0
 14 48  1  0  0  0
 14 49  1  0  0  0
 15 16  1  0  0  0
 15 18  1  0  0  0
 16 17  1  0  0  0
 16 50  1  0  0  0
 16 51  1  0  0  0
 17 52  1  0  0  0
 17 53  1  0  0  0
 18 19  2  0  0  0
 18 20  1  0  0  0
 20 25  2  0  0  0
 20 21  1  0  0  0
 21 22  2  0  0  0
 21 54  1  0  0  0
 22 23  1  0  0  0
 22 55  1  0  0  0
 23 24  2  0  0  0
 23 26  1  0  0  0
 24 25  1  0  0  0
 24 56  1  0  0  0
 25 57  1  0  0  0
 26 27  1  0  0  0
 26 28  1  0  0  0
 26 29  1  0  0  0
 30 31  2  0  0  0
 30 32  1  0  0  0
 32 33  1  0  0  0
 32 58  1  0  0  0
 33 34  1  0  0  0
 33 59  1  0  0  0
 33 60  1  0  0  0
 34 38  1  0  0  0
 34 35  2  0  0  0
 35 36  1  0  0  0
 35 61  1  0  0  0
 36 37  2  0  0  0
 36 62  1  0  0  0
 37 38  1  0  0  0
 37 63  1  0  0  0
M  END
> <i_i_glide_confnum>
328

> <i_i_glide_lignum>
5506

> <i_i_glide_posenum>
56

> <i_i_glide_rotatable_bonds>
11

> <i_m_Source_File_Index>
4493

> <b_m_subgroup_collapsed>
0

> <r_i_docking_score>
-7.21108

> <r_i_glide_ecoul>
-7.27379

> <r_i_glide_eff_state_penalty>
0

> <r_i_glide_einternal>
3.50011

> <r_i_glide_emodel>
-74.3647

> <r_i_glide_energy>
-54.9429

> <r_i_glide_erotb>
0.62214

> <r_i_glide_esite>
-0.169945

> <r_i_glide_evdw>
-47.6691

> <r_i_glide_gscore>
-7.21108

> <r_i_glide_hbond>
-0.558569

> <r_i_glide_ligand_efficiency>
-0.194894

> <r_i_glide_ligand_efficiency_ln>
-1.56392

> <r_i_glide_ligand_efficiency_sa>
-0.649431

> <r_i_glide_lipo>
-2.65252

> <r_i_glide_metal>
0

> <r_i_glide_rewards>
-0.977666

> <s_i_glide_gridfile>
wee1_glide-grid

> <s_m_Source_File>
wee1_decoys_glide_SP.sdf

> <s_m_Source_Path>
/Users/zhangxujun/Desktop

> <s_m_entry_id>
4768

> <s_m_entry_name>
wee1_decoys_glide_SP.4493

> <s_m_subgroup_title>
wee1_decoys_glide_SP

> <s_m_subgroupid>
wee1_decoys_glide_SP


$$$$
