ZINC04709686_1516
                    3D
 Schrodinger Suite 2024-2.
 43 46  0  0  1  0            999 V2000
    5.9879   53.5320   27.7413 C   0  0  0  0  0  0
    4.6804   53.1040   27.5172 C   0  0  0  0  0  0
    3.8355   53.7722   26.6130 C   0  0  0  0  0  0
    4.3937   54.8954   25.9794 C   0  0  0  0  0  0
    5.6826   55.2966   26.1313 N   0  0  0  0  0  0
    6.4525   54.6243   27.0202 C   0  0  0  0  0  0
    2.4988   53.3209   26.3432 N   0  0  0  0  0  0
    1.6458   52.9862   27.4246 C   0  0  0  0  0  0
    0.4385   52.3628   27.2133 C   0  0  0  0  0  0
   -0.0674   51.9940   25.7916 C   0  0  1  0  0  0
   -1.0057   52.5327   25.6420 H   0  0  0  0  0  0
    0.8688   52.5498   24.7229 C   0  0  0  0  0  0
    2.0584   53.1203   25.0128 C   0  0  0  0  0  0
    2.9019   53.4906   23.9865 N   0  0  0  0  0  0
    0.4823   52.3184   23.3624 C   0  0  0  0  0  0
    0.1568   52.0974   22.2743 N   0  0  0  0  0  0
   -0.3776   50.5139   25.5385 C   0  0  0  0  0  0
    0.4535   49.4937   25.0723 C   0  0  0  0  0  0
   -0.1737   48.2626   24.8817 C   0  0  0  0  0  0
   -1.5269   48.2873   25.1805 C   0  0  0  0  0  0
   -2.0029   49.8819   25.6817 S   0  0  0  0  0  0
   -2.4540   47.2012   25.1157 N   0  3  0  0  0  0
   -2.0204   46.0973   24.7916 O   0  0  0  0  0  0
   -3.6348   47.4260   25.3597 O   0  5  0  0  0  0
   -0.5050   52.0975   28.3303 C   0  0  0  0  0  0
   -1.6521   51.6966   28.1537 O   0  0  0  0  0  0
   -0.0366   52.4365   29.7462 C   0  0  0  0  0  0
    0.7986   53.7176   29.7333 C   0  0  0  0  0  0
    2.0241   53.5135   28.8350 C   0  0  0  0  0  0
    6.6302   53.0117   28.4362 H   0  0  0  0  0  0
    4.3406   52.2171   28.0288 H   0  0  0  0  0  0
    3.8023   55.4910   25.3028 H   0  0  0  0  0  0
    7.4613   54.9770   27.1686 H   0  0  0  0  0  0
    2.6297   53.3719   23.0201 H   0  0  0  0  0  0
    3.8510   53.7785   24.1721 H   0  0  0  0  0  0
    1.5034   49.6365   24.8703 H   0  0  0  0  0  0
    0.3497   47.3779   24.5507 H   0  0  0  0  0  0
    0.5750   51.6015   30.0818 H   0  0  0  0  0  0
   -0.8932   52.4898   30.4193 H   0  0  0  0  0  0
    1.1067   53.9795   30.7467 H   0  0  0  0  0  0
    0.1981   54.5521   29.3711 H   0  0  0  0  0  0
    2.7664   52.8897   29.3282 H   0  0  0  0  0  0
    2.4563   54.5120   28.7495 H   0  0  0  0  0  0
  1  6  2  0  0  0
  1  2  1  0  0  0
  1 30  1  0  0  0
  2  3  2  0  0  0
  2 31  1  0  0  0
  3  4  1  0  0  0
  3  7  1  0  0  0
  4  5  2  0  0  0
  4 32  1  0  0  0
  5  6  1  0  0  0
  6 33  1  0  0  0
  7 13  1  0  0  0
  7  8  1  0  0  0
  8 29  1  0  0  0
  8  9  2  0  0  0
  9 10  1  0  0  0
  9 25  1  0  0  0
 10 11  1  0  0  0
 10 12  1  0  0  0
 10 17  1  0  0  0
 12 13  2  0  0  0
 12 15  1  0  0  0
 13 14  1  0  0  0
 14 34  1  0  0  0
 14 35  1  0  0  0
 15 16  3  0  0  0
 17 21  1  0  0  0
 17 18  2  0  0  0
 18 19  1  0  0  0
 18 36  1  0  0  0
 19 20  2  0  0  0
 19 37  1  0  0  0
 20 21  1  0  0  0
 20 22  1  0  0  0
 22 23  2  0  0  0
 22 24  1  0  0  0
 25 26  2  0  0  0
 25 27  1  0  0  0
 27 28  1  0  0  0
 27 38  1  0  0  0
 27 39  1  0  0  0
 28 29  1  0  0  0
 28 40  1  0  0  0
 28 41  1  0  0  0
 29 42  1  0  0  0
 29 43  1  0  0  0
M  CHG  2  22   1  24  -1
M  END
> <i_i_glide_confnum>
6

> <i_i_glide_lignum>
1517

> <i_i_glide_posenum>
259

> <i_i_glide_rotatable_bonds>
4

> <i_m_Source_File_Index>
4390

> <b_m_subgroup_collapsed>
0

> <r_i_docking_score>
-5.16391

> <r_i_glide_ecoul>
0.128512

> <r_i_glide_eff_state_penalty>
0

> <r_i_glide_einternal>
7.97505

> <r_i_glide_emodel>
-45.8524

> <r_i_glide_energy>
-37.9131

> <r_i_glide_erotb>
0.252419

> <r_i_glide_esite>
-0.245447

> <r_i_glide_evdw>
-38.0416

> <r_i_glide_gscore>
-5.16391

> <r_i_glide_hbond>
0

> <r_i_glide_ligand_efficiency>
-0.184425

> <r_i_glide_ligand_efficiency_ln>
-1.19198

> <r_i_glide_ligand_efficiency_sa>
-0.560024

> <r_i_glide_lipo>
-2.20161

> <r_i_glide_metal>
0

> <r_i_glide_rewards>
-1.08647

> <s_i_glide_gridfile>
wee1_glide-grid

> <s_m_Source_File>
wee1_decoys_glide_SP.sdf

> <s_m_Source_Path>
/Users/zhangxujun/Desktop

> <s_m_entry_id>
4665

> <s_m_entry_name>
wee1_decoys_glide_SP.4390

> <s_m_subgroup_title>
wee1_decoys_glide_SP

> <s_m_subgroupid>
wee1_decoys_glide_SP


$$$$
