ZINC16385782_2599
                    3D
 Schrodinger Suite 2024-2.
 34 35  0  0  1  0            999 V2000
    2.7044   50.1984   19.9568 C   0  0  0  0  0  0
    3.4471   51.3429   20.2342 C   0  0  0  0  0  0
    3.0260   52.2695   21.1949 C   0  0  0  0  0  0
    1.7764   52.0654   21.8161 C   0  0  0  0  0  0
    1.0461   50.9047   21.5474 C   0  0  0  0  0  0
    1.5045   49.9475   20.6310 C   0  0  0  0  0  0
    0.7345   48.7078   20.3715 N   0  3  0  0  0  0
   -0.3823   48.5974   20.8701 O   0  0  0  0  0  0
    1.2462   47.8298   19.6817 O   0  5  0  0  0  0
    1.0505   53.2191   22.8816 Cl  0  0  0  0  0  0
    3.9017   53.4745   21.4402 C   0  0  0  0  0  0
    4.2964   54.1384   20.4783 O   0  0  0  0  0  0
    4.2489   53.6969   22.7353 N   0  0  0  0  0  0
    5.3210   54.3748   23.2718 C   0  0  0  0  0  0
    6.7024   54.8972   22.4818 S   0  0  0  0  0  0
    5.3135   54.6366   24.6099 N   0  0  0  0  0  0
    4.4797   54.2461   25.6808 C   0  0  0  0  0  0
    3.0995   54.0961   25.5107 C   0  0  0  0  0  0
    2.2959   53.6405   26.5529 C   0  0  0  0  0  0
    2.8598   53.3494   27.7904 C   0  0  0  0  0  0
    4.2223   53.5477   27.9928 C   0  0  0  0  0  0
    5.0502   54.0237   26.9621 C   0  0  0  0  0  0
    6.4999   54.2864   27.2652 C   0  0  0  0  0  0
    7.1042   55.0996   26.5286 O   0  0  0  0  0  0
    1.8726   52.7672   29.0809 Cl  0  0  0  0  0  0
    3.0816   49.5104   19.2096 H   0  0  0  0  0  0
    4.3633   51.5026   19.6818 H   0  0  0  0  0  0
    0.1035   50.7554   22.0551 H   0  0  0  0  0  0
    3.7485   53.1260   23.3992 H   0  0  0  0  0  0
    6.1638   55.0734   24.9549 H   0  0  0  0  0  0
    2.6330   54.3615   24.5791 H   0  0  0  0  0  0
    1.2341   53.5158   26.3996 H   0  0  0  0  0  0
    4.6351   53.3427   28.9712 H   0  0  0  0  0  0
    7.0142   53.6966   28.2403 O   0  5  0  0  0  0
  1  6  2  0  0  0
  1  2  1  0  0  0
  1 26  1  0  0  0
  2  3  2  0  0  0
  2 27  1  0  0  0
  3  4  1  0  0  0
  3 11  1  0  0  0
  4  5  2  0  0  0
  4 10  1  0  0  0
  5  6  1  0  0  0
  5 28  1  0  0  0
  6  7  1  0  0  0
  7  8  2  0  0  0
  7  9  1  0  0  0
 11 12  2  0  0  0
 11 13  1  0  0  0
 13 14  1  0  0  0
 13 29  1  0  0  0
 14 15  2  0  0  0
 14 16  1  0  0  0
 16 17  1  0  0  0
 16 30  1  0  0  0
 17 22  2  0  0  0
 17 18  1  0  0  0
 18 19  2  0  0  0
 18 31  1  0  0  0
 19 20  1  0  0  0
 19 32  1  0  0  0
 20 21  2  0  0  0
 20 25  1  0  0  0
 21 22  1  0  0  0
 21 33  1  0  0  0
 22 23  1  0  0  0
 23 24  2  0  0  0
 23 34  1  0  0  0
M  CHG  3   7   1   9  -1  34  -1
M  END
> <i_i_glide_confnum>
22

> <i_i_glide_lignum>
2600

> <i_i_glide_posenum>
201

> <i_i_glide_rotatable_bonds>
7

> <i_m_Source_File_Index>
4724

> <b_m_subgroup_collapsed>
0

> <r_i_docking_score>
-5.39423

> <r_i_glide_ecoul>
-4.64944

> <r_i_glide_eff_state_penalty>
0

> <r_i_glide_einternal>
7.66461

> <r_i_glide_emodel>
-51.7594

> <r_i_glide_energy>
-40.3252

> <r_i_glide_erotb>
0.577651

> <r_i_glide_esite>
-0.0305854

> <r_i_glide_evdw>
-35.6758

> <r_i_glide_gscore>
-5.39423

> <r_i_glide_hbond>
-0.164545

> <r_i_glide_ligand_efficiency>
-0.20747

> <r_i_glide_ligand_efficiency_ln>
-1.26682

> <r_i_glide_ligand_efficiency_sa>
-0.61463

> <r_i_glide_lipo>
-1.67388

> <r_i_glide_metal>
0

> <r_i_glide_rewards>
-1.62167

> <s_i_glide_gridfile>
wee1_glide-grid

> <s_m_Source_File>
wee1_decoys_glide_SP.sdf

> <s_m_Source_Path>
/Users/zhangxujun/Desktop

> <s_m_entry_id>
4999

> <s_m_entry_name>
wee1_decoys_glide_SP.4724

> <s_m_subgroup_title>
wee1_decoys_glide_SP

> <s_m_subgroupid>
wee1_decoys_glide_SP


$$$$
