ZINC55173674_3790
                    3D
 Schrodinger Suite 2024-2.
 44 47  0  0  1  0            999 V2000
   -0.7325   51.9411   29.0886 C   0  0  0  0  0  0
    0.7577   52.2169   29.0992 C   0  0  0  0  0  0
    1.6312   52.4551   28.0241 C   0  0  0  0  0  0
    3.1960   52.8944   28.6657 S   0  0  0  0  0  0
    2.6106   52.4615   30.2296 C   0  0  0  0  0  0
    1.3305   52.2114   30.2911 N   0  0  0  0  0  0
    3.4747   52.3423   31.2789 N   0  0  0  0  0  0
    1.4175   52.4945   26.5931 C   0  0  0  0  0  0
    1.9650   53.4010   25.9666 O   0  0  0  0  0  0
    0.7046   51.4758   26.0005 N   0  0  0  0  0  0
    0.4612   50.1957   26.6984 C   0  0  0  0  0  0
    0.5321   51.3489   24.5160 C   0  0  1  0  0  0
   -0.5603   50.3028   24.0304 C   0  0  1  0  0  0
   -2.0001   50.7935   24.3501 C   0  0  0  0  0  0
   -2.2664   52.1210   23.6017 C   0  0  2  0  0  0
   -2.1183   51.8865   22.0742 C   0  0  0  0  0  0
   -0.6971   51.3598   21.7406 C   0  0  2  0  0  0
   -0.4406   50.0440   22.5062 C   0  0  0  0  0  0
    0.3593   52.3881   22.1948 C   0  0  0  0  0  0
    0.2010   52.6659   23.7166 C   0  0  1  0  0  0
   -1.2259   53.1600   24.0808 C   0  0  0  0  0  0
   -0.9509   50.8961   29.3096 H   0  0  0  0  0  0
   -1.2676   52.5332   29.8290 H   0  0  0  0  0  0
   -1.1854   52.1620   28.1218 H   0  0  0  0  0  0
    3.1439   52.0980   32.2042 H   0  0  0  0  0  0
    4.4685   52.4920   31.1725 H   0  0  0  0  0  0
    0.9038   50.1201   27.6816 H   0  0  0  0  0  0
   -0.6050   49.9884   26.7944 H   0  0  0  0  0  0
    0.9190   49.3730   26.1490 H   0  0  0  0  0  0
    1.5186   51.0263   24.1777 H   0  0  0  0  0  0
   -0.4131   49.3321   24.5015 H   0  0  0  0  0  0
   -2.7332   50.0406   24.0550 H   0  0  0  0  0  0
   -2.1318   50.9345   25.4233 H   0  0  0  0  0  0
   -3.2735   52.4750   23.8272 H   0  0  0  0  0  0
   -2.8738   51.1804   21.7261 H   0  0  0  0  0  0
   -2.2965   52.8135   21.5383 H   0  0  0  0  0  0
   -0.6061   51.1865   20.6676 H   0  0  0  0  0  0
    0.5483   49.6487   22.2665 H   0  0  0  0  0  0
   -1.1532   49.2803   22.1915 H   0  0  0  0  0  0
    0.3044   53.2964   21.6012 H   0  0  0  0  0  0
    1.3608   52.0031   21.9940 H   0  0  0  0  0  0
    0.9039   53.4656   23.9240 H   0  0  0  0  0  0
   -1.3073   53.2848   25.1610 H   0  0  0  0  0  0
   -1.4274   54.1510   23.6810 H   0  0  0  0  0  0
  1  2  1  0  0  0
  1 22  1  0  0  0
  1 23  1  0  0  0
  1 24  1  0  0  0
  2  6  1  0  0  0
  2  3  2  0  0  0
  3  4  1  0  0  0
  3  8  1  0  0  0
  4  5  1  0  0  0
  5  6  2  0  0  0
  5  7  1  0  0  0
  7 25  1  0  0  0
  7 26  1  0  0  0
  8  9  2  0  0  0
  8 10  1  0  0  0
 10 11  1  0  0  0
 10 12  1  0  0  0
 11 27  1  0  0  0
 11 28  1  0  0  0
 11 29  1  0  0  0
 12 20  1  0  0  0
 12 13  1  0  0  0
 12 30  1  0  0  0
 13 18  1  0  0  0
 13 14  1  0  0  0
 13 31  1  0  0  0
 14 15  1  0  0  0
 14 32  1  0  0  0
 14 33  1  0  0  0
 15 21  1  0  0  0
 15 16  1  0  0  0
 15 34  1  0  0  0
 16 17  1  0  0  0
 16 35  1  0  0  0
 16 36  1  0  0  0
 17 18  1  0  0  0
 17 19  1  0  0  0
 17 37  1  0  0  0
 18 38  1  0  0  0
 18 39  1  0  0  0
 19 20  1  0  0  0
 19 40  1  0  0  0
 19 41  1  0  0  0
 20 21  1  0  0  0
 20 42  1  0  0  0
 21 43  1  0  0  0
 21 44  1  0  0  0
M  END
> <i_i_glide_confnum>
1

> <i_i_glide_lignum>
3791

> <i_i_glide_posenum>
301

> <i_i_glide_rotatable_bonds>
3

> <i_m_Source_File_Index>
242

> <b_m_subgroup_collapsed>
0

> <r_i_docking_score>
-3.38565

> <r_i_glide_ecoul>
-3.19914

> <r_i_glide_eff_state_penalty>
0

> <r_i_glide_einternal>
4.93386

> <r_i_glide_emodel>
-29.5237

> <r_i_glide_energy>
-26.4744

> <r_i_glide_erotb>
0.593522

> <r_i_glide_esite>
0

> <r_i_glide_evdw>
-23.2753

> <r_i_glide_gscore>
-3.38565

> <r_i_glide_hbond>
0

> <r_i_glide_ligand_efficiency>
-0.161221

> <r_i_glide_ligand_efficiency_ln>
-0.837094

> <r_i_glide_ligand_efficiency_sa>
-0.444797

> <r_i_glide_lipo>
-0.875956

> <r_i_glide_metal>
0

> <r_i_glide_rewards>
-1.45958

> <s_i_glide_gridfile>
wee1_glide-grid

> <s_m_Source_File>
wee1_decoys_glide_SP.sdf

> <s_m_Source_Path>
/Users/zhangxujun/Desktop

> <s_m_entry_id>
517

> <s_m_entry_name>
wee1_decoys_glide_SP.242

> <s_m_subgroup_title>
wee1_decoys_glide_SP

> <s_m_subgroupid>
wee1_decoys_glide_SP


$$$$
