ZINC38709046_5857
                    3D
 Schrodinger Suite 2024-2.
 49 52  0  0  1  0            999 V2000
    3.3178   53.1247   16.1760 C   0  0  0  0  0  0
    3.8559   54.2708   16.7560 C   0  0  0  0  0  0
    3.9409   54.3862   18.1437 C   0  0  0  0  0  0
    3.5058   53.3281   18.9700 C   0  0  0  0  0  0
    2.9346   52.1946   18.3760 C   0  0  0  0  0  0
    2.8468   52.0957   16.9876 C   0  0  0  0  0  0
    2.4493   51.1853   19.1404 F   0  0  0  0  0  0
    3.5045   53.3797   20.3788 N   0  0  0  0  0  0
    4.4488   53.8906   21.1873 C   0  0  0  0  0  0
    5.5246   54.3378   20.7953 O   0  0  0  0  0  0
    4.0459   53.8462   22.4740 N   0  0  0  0  0  0
    4.7791   54.1223   23.6451 C   0  0  0  0  0  0
    6.1638   54.3560   23.6687 C   0  0  0  0  0  0
    6.8325   54.4802   24.8796 C   0  0  0  0  0  0
    6.1377   54.3796   26.0769 C   0  0  0  0  0  0
    4.7513   54.2452   26.0776 C   0  0  0  0  0  0
    4.0736   54.0962   24.8568 C   0  0  0  0  0  0
    4.3004   54.0973   27.4091 N   0  0  0  0  0  0
    5.4387   54.2694   28.3211 C   0  0  0  0  0  0
    6.6824   54.1932   27.4558 C   0  0  0  0  0  0
    3.0130   54.1383   27.8522 C   0  0  0  0  0  0
    2.0529   54.0775   27.0817 O   0  0  0  0  0  0
    2.7195   54.2264   29.3805 C   0  0  0  0  0  0
    1.4672   55.0883   29.6825 C   0  0  0  0  0  0
    0.3324   54.0906   29.9212 C   0  0  0  0  0  0
    1.0167   52.9183   30.6185 C   0  0  0  0  0  0
    2.3987   52.8174   29.9552 C   0  0  0  0  0  0
    4.4075   55.5496   18.6533 F   0  0  0  0  0  0
    3.2589   53.0357   15.1013 H   0  0  0  0  0  0
    4.1992   55.0815   16.1300 H   0  0  0  0  0  0
    2.4366   51.2002   16.5432 H   0  0  0  0  0  0
    2.7773   52.8334   20.8148 H   0  0  0  0  0  0
    3.0876   53.5777   22.6328 H   0  0  0  0  0  0
    6.7645   54.3813   22.7742 H   0  0  0  0  0  0
    7.9041   54.5721   24.8763 H   0  0  0  0  0  0
    3.0118   53.9031   24.8390 H   0  0  0  0  0  0
    5.3785   55.2971   28.6845 H   0  0  0  0  0  0
    5.4583   53.6352   29.2081 H   0  0  0  0  0  0
    7.4561   54.8975   27.7540 H   0  0  0  0  0  0
    7.1186   53.1968   27.5454 H   0  0  0  0  0  0
    3.5575   54.6790   29.9078 H   0  0  0  0  0  0
    1.2165   55.8051   28.8972 H   0  0  0  0  0  0
    1.6317   55.6811   30.5841 H   0  0  0  0  0  0
   -0.0927   53.7679   28.9686 H   0  0  0  0  0  0
   -0.4768   54.5125   30.5173 H   0  0  0  0  0  0
    0.4394   51.9971   30.5255 H   0  0  0  0  0  0
    1.1167   53.1266   31.6854 H   0  0  0  0  0  0
    3.1508   52.4976   30.6779 H   0  0  0  0  0  0
    2.3507   52.0452   29.1824 H   0  0  0  0  0  0
  1  6  2  0  0  0
  1  2  1  0  0  0
  1 29  1  0  0  0
  2  3  2  0  0  0
  2 30  1  0  0  0
  3  4  1  0  0  0
  3 28  1  0  0  0
  4  5  2  0  0  0
  4  8  1  0  0  0
  5  6  1  0  0  0
  5  7  1  0  0  0
  6 31  1  0  0  0
  8  9  1  0  0  0
  8 32  1  0  0  0
  9 10  2  0  0  0
  9 11  1  0  0  0
 11 12  1  0  0  0
 11 33  1  0  0  0
 12 17  2  0  0  0
 12 13  1  0  0  0
 13 14  2  0  0  0
 13 34  1  0  0  0
 14 15  1  0  0  0
 14 35  1  0  0  0
 15 20  1  0  0  0
 15 16  2  0  0  0
 16 17  1  0  0  0
 16 18  1  0  0  0
 17 36  1  0  0  0
 18 19  1  0  0  0
 18 21  1  0  0  0
 19 20  1  0  0  0
 19 37  1  0  0  0
 19 38  1  0  0  0
 20 39  1  0  0  0
 20 40  1  0  0  0
 21 22  2  0  0  0
 21 23  1  0  0  0
 23 27  1  0  0  0
 23 24  1  0  0  0
 23 41  1  0  0  0
 24 25  1  0  0  0
 24 42  1  0  0  0
 24 43  1  0  0  0
 25 26  1  0  0  0
 25 44  1  0  0  0
 25 45  1  0  0  0
 26 27  1  0  0  0
 26 46  1  0  0  0
 26 47  1  0  0  0
 27 48  1  0  0  0
 27 49  1  0  0  0
M  END
> <i_i_glide_confnum>
125

> <i_i_glide_lignum>
5858

> <i_i_glide_posenum>
123

> <i_i_glide_rotatable_bonds>
6

> <i_m_Source_File_Index>
4179

> <b_m_subgroup_collapsed>
0

> <r_i_docking_score>
-6.43899

> <r_i_glide_ecoul>
-1.1875

> <r_i_glide_eff_state_penalty>
0

> <r_i_glide_einternal>
3.31433

> <r_i_glide_emodel>
-62.4801

> <r_i_glide_energy>
-45.4177

> <r_i_glide_erotb>
0.654802

> <r_i_glide_esite>
-0.0753258

> <r_i_glide_evdw>
-44.2302

> <r_i_glide_gscore>
-6.43899

> <r_i_glide_hbond>
0

> <r_i_glide_ligand_efficiency>
-0.229964

> <r_i_glide_ligand_efficiency_ln>
-1.48631

> <r_i_glide_ligand_efficiency_sa>
-0.698306

> <r_i_glide_lipo>
-2.91106

> <r_i_glide_metal>
0

> <r_i_glide_rewards>
-1.71777

> <s_i_glide_gridfile>
wee1_glide-grid

> <s_m_Source_File>
wee1_decoys_glide_SP.sdf

> <s_m_Source_Path>
/Users/zhangxujun/Desktop

> <s_m_entry_id>
4454

> <s_m_entry_name>
wee1_decoys_glide_SP.4179

> <s_m_subgroup_title>
wee1_decoys_glide_SP

> <s_m_subgroupid>
wee1_decoys_glide_SP


$$$$
