ZINC12877626_765
                    3D
 Schrodinger Suite 2024-2.
 54 57  0  0  1  0            999 V2000
    1.9657   53.1389   27.4550 C   0  0  0  0  0  0
    0.8172   53.0021   28.2295 C   0  0  0  0  0  0
    0.6331   53.8222   29.3383 C   0  0  0  0  0  0
    1.5892   54.7747   29.6828 C   0  0  0  0  0  0
    2.7493   54.8977   28.9205 C   0  0  0  0  0  0
    2.9425   54.0830   27.7988 C   0  0  0  0  0  0
    4.1792   54.2262   26.9721 C   0  0  0  0  0  0
    5.4639   54.4969   27.4486 C   0  0  0  0  0  0
    6.5852   54.5583   26.1247 S   0  0  0  0  0  0
    5.2625   54.2227   25.0462 C   0  0  0  0  0  0
    4.1082   54.0912   25.6573 N   0  0  0  0  0  0
    5.4530   54.0998   23.6894 N   0  0  0  0  0  0
    6.7461   54.2562   23.0019 C   0  0  0  0  0  0
    6.6492   54.9871   21.6435 C   0  0  0  0  0  0
    4.2361   54.2904   21.4915 C   0  0  0  0  0  0
    4.4346   53.5143   22.7991 C   0  0  0  0  0  0
    5.5396   55.1175   19.3849 C   0  0  0  0  0  0
    4.8656   54.3818   18.2088 C   0  0  0  0  0  0
    5.0386   54.8488   17.0831 O   0  0  0  0  0  0
    4.1246   53.2747   18.4492 N   0  0  0  0  0  0
    3.4213   52.6229   17.4238 N   0  0  0  0  0  0
    2.2920   53.1691   16.9085 C   0  0  0  0  0  0
    1.8121   54.2433   17.2816 O   0  0  0  0  0  0
    1.6179   52.3841   15.8070 C   0  0  0  0  0  0
    1.7347   50.9885   15.7318 C   0  0  0  0  0  0
    1.1106   50.2820   14.7084 C   0  0  0  0  0  0
    0.3543   50.9634   13.7589 C   0  0  0  0  0  0
    0.2173   52.3477   13.8271 C   0  0  0  0  0  0
    0.8462   53.0556   14.8481 C   0  0  0  0  0  0
   -0.5029   49.9962   12.3621 Br  0  0  0  0  0  0
   -0.4886   53.6967   30.0813 F   0  0  0  0  0  0
    2.1001   52.4995   26.5946 H   0  0  0  0  0  0
    0.0685   52.2659   27.9729 H   0  0  0  0  0  0
    1.4268   55.4131   30.5389 H   0  0  0  0  0  0
    3.4860   55.6394   29.1932 H   0  0  0  0  0  0
    5.7982   54.6509   28.4654 H   0  0  0  0  0  0
    7.1116   53.2369   22.8816 H   0  0  0  0  0  0
    7.5009   54.7474   23.6210 H   0  0  0  0  0  0
    7.6023   54.8969   21.1180 H   0  0  0  0  0  0
    6.3854   56.0405   21.7604 H   0  0  0  0  0  0
    3.8917   55.2967   21.6819 H   0  0  0  0  0  0
    3.4987   53.7806   20.8742 H   0  0  0  0  0  0
    3.4730   53.4172   23.3061 H   0  0  0  0  0  0
    4.7592   52.4966   22.5882 H   0  0  0  0  0  0
    6.5820   55.2842   19.1062 H   0  0  0  0  0  0
    5.1035   56.0975   19.5730 H   0  0  0  0  0  0
    3.9114   52.9072   19.3631 H   0  0  0  0  0  0
    3.9927   51.9432   16.9391 H   0  0  0  0  0  0
    2.3044   50.4363   16.4646 H   0  0  0  0  0  0
    1.2142   49.2083   14.6549 H   0  0  0  0  0  0
   -0.3735   52.8722   13.0904 H   0  0  0  0  0  0
    0.7340   54.1304   14.8845 H   0  0  0  0  0  0
    5.5811   54.3312   20.7303 N   0  3  0  0  0  0
    5.8677   53.3794   20.5439 H   0  0  0  0  0  0
  1  6  2  0  0  0
  1  2  1  0  0  0
  1 32  1  0  0  0
  2  3  2  0  0  0
  2 33  1  0  0  0
  3  4  1  0  0  0
  3 31  1  0  0  0
  4  5  2  0  0  0
  4 34  1  0  0  0
  5  6  1  0  0  0
  5 35  1  0  0  0
  6  7  1  0  0  0
  7 11  1  0  0  0
  7  8  2  0  0  0
  8  9  1  0  0  0
  8 36  1  0  0  0
  9 10  1  0  0  0
 10 11  2  0  0  0
 10 12  1  0  0  0
 12 16  1  0  0  0
 12 13  1  0  0  0
 13 14  1  0  0  0
 13 37  1  0  0  0
 13 38  1  0  0  0
 14 39  1  0  0  0
 14 40  1  0  0  0
 14 53  1  0  0  0
 15 16  1  0  0  0
 15 41  1  0  0  0
 15 42  1  0  0  0
 15 53  1  0  0  0
 16 43  1  0  0  0
 16 44  1  0  0  0
 17 18  1  0  0  0
 17 45  1  0  0  0
 17 46  1  0  0  0
 17 53  1  0  0  0
 18 19  2  0  0  0
 18 20  1  0  0  0
 20 21  1  0  0  0
 20 47  1  0  0  0
 21 22  1  0  0  0
 21 48  1  0  0  0
 22 23  2  0  0  0
 22 24  1  0  0  0
 24 29  2  0  0  0
 24 25  1  0  0  0
 25 26  2  0  0  0
 25 49  1  0  0  0
 26 27  1  0  0  0
 26 50  1  0  0  0
 27 28  2  0  0  0
 27 30  1  0  0  0
 28 29  1  0  0  0
 28 51  1  0  0  0
 29 52  1  0  0  0
 53 54  1  0  0  0
M  CHG  1  53   1
M  END
> <i_i_glide_confnum>
67

> <i_i_glide_lignum>
766

> <i_i_glide_posenum>
275

> <i_i_glide_rotatable_bonds>
8

> <i_m_Source_File_Index>
4091

> <b_m_subgroup_collapsed>
0

> <r_i_docking_score>
-5.56179

> <r_i_glide_ecoul>
-2.31417

> <r_i_glide_eff_state_penalty>
0

> <r_i_glide_einternal>
6.30213

> <r_i_glide_emodel>
-58.1297

> <r_i_glide_energy>
-41.2663

> <r_i_glide_erotb>
0.533058

> <r_i_glide_esite>
-0.171059

> <r_i_glide_evdw>
-38.9522

> <r_i_glide_gscore>
-5.56179

> <r_i_glide_hbond>
-0.00453902

> <r_i_glide_ligand_efficiency>
-0.173806

> <r_i_glide_ligand_efficiency_ln>
-1.24544

> <r_i_glide_ligand_efficiency_sa>
-0.551799

> <r_i_glide_lipo>
-3.17669

> <r_i_glide_metal>
0

> <r_i_glide_rewards>
-0.447823

> <s_i_glide_gridfile>
wee1_glide-grid

> <s_m_Source_File>
wee1_decoys_glide_SP.sdf

> <s_m_Source_Path>
/Users/zhangxujun/Desktop

> <s_m_entry_id>
4366

> <s_m_entry_name>
wee1_decoys_glide_SP.4091

> <s_m_subgroup_title>
wee1_decoys_glide_SP

> <s_m_subgroupid>
wee1_decoys_glide_SP


$$$$
