ZINC64220377_5120
                    3D
 Schrodinger Suite 2024-2.
 52 55  0  0  1  0            999 V2000
    1.8868   53.6264   28.0636 C   0  0  0  0  0  0
    1.4168   52.6297   29.0110 C   0  0  0  0  0  0
    0.6327   51.5921   28.6236 C   0  0  0  0  0  0
    0.2536   51.4347   27.2896 C   0  0  0  0  0  0
   -0.4856   50.5008   26.7425 N   0  3  0  0  0  0
   -0.6657   50.7941   25.3103 C   0  0  0  0  0  0
    0.1137   52.0906   25.1445 C   0  0  0  0  0  0
    0.6537   52.3796   26.3434 C   0  0  0  0  0  0
    1.5043   53.4986   26.7796 C   0  0  0  0  0  0
    0.1006   52.8867   23.8369 C   0  0  0  0  0  0
    1.3594   52.7036   22.9440 C   0  0  2  0  0  0
    1.2034   53.3683   22.0893 H   0  0  0  0  0  0
    1.5139   51.2663   22.3992 C   0  0  0  0  0  0
    1.6899   50.3377   23.1918 O   0  0  0  0  0  0
    1.3697   51.1150   21.0677 N   0  0  0  0  0  0
    1.2381   49.8805   20.4238 C   0  0  0  0  0  0
    2.1338   49.5409   19.4110 C   0  0  0  0  0  0
    1.9933   48.3225   18.7523 C   0  0  0  0  0  0
    0.9515   47.4522   19.0725 C   0  0  0  0  0  0
    0.0441   47.8111   20.0807 C   0  0  0  0  0  0
    0.1880   49.0185   20.7557 C   0  0  0  0  0  0
    0.9005   46.2661   18.3637 O   0  0  0  0  0  0
   -0.2785   45.4635   18.3791 C   0  0  0  0  0  0
   -1.3504   46.1526   17.9803 F   0  0  0  0  0  0
   -0.4938   44.9162   19.5780 F   0  0  0  0  0  0
   -0.0936   44.4678   17.5141 F   0  0  0  0  0  0
    2.5833   53.1524   23.6113 N   0  0  0  0  0  0
    3.6463   53.6967   22.9945 C   0  0  0  0  0  0
    3.7025   53.8955   21.7811 O   0  0  0  0  0  0
    4.7339   54.0441   23.8760 C   0  0  0  0  0  0
    4.7682   54.0982   25.2748 C   0  0  0  0  0  0
    5.9903   54.5331   25.7849 C   0  0  0  0  0  0
    6.8960   54.8126   24.7804 C   0  0  0  0  0  0
    6.2731   54.4992   23.2009 S   0  0  0  0  0  0
    2.5005   54.4555   28.3872 H   0  0  0  0  0  0
    1.6713   52.7319   30.0557 H   0  0  0  0  0  0
    0.2737   50.8965   29.3592 H   0  0  0  0  0  0
   -1.7358   50.8876   25.1217 H   0  0  0  0  0  0
   -0.2615   49.9528   24.7457 H   0  0  0  0  0  0
    1.8193   54.2557   26.0790 H   0  0  0  0  0  0
    0.0024   53.9444   24.0830 H   0  0  0  0  0  0
   -0.8054   52.6337   23.2816 H   0  0  0  0  0  0
    1.3605   51.9380   20.4847 H   0  0  0  0  0  0
    2.9432   50.2021   19.1322 H   0  0  0  0  0  0
    2.7023   48.0619   17.9768 H   0  0  0  0  0  0
   -0.7738   47.1667   20.3586 H   0  0  0  0  0  0
   -0.5161   49.2862   21.5310 H   0  0  0  0  0  0
    2.6702   52.8950   24.5811 H   0  0  0  0  0  0
    3.9526   53.8305   25.9209 H   0  0  0  0  0  0
    6.1999   54.6393   26.8399 H   0  0  0  0  0  0
    7.9041   55.1687   24.8816 H   0  0  0  0  0  0
   -0.8960   49.7008   27.2361 H   0  0  0  0  0  0
  1  9  2  0  0  0
  1  2  1  0  0  0
  1 35  1  0  0  0
  2  3  2  0  0  0
  2 36  1  0  0  0
  3  4  1  0  0  0
  3 37  1  0  0  0
  4  8  1  0  0  0
  4  5  2  0  0  0
  5  6  1  0  0  0
  5 52  1  0  0  0
  6  7  1  0  0  0
  6 38  1  0  0  0
  6 39  1  0  0  0
  7  8  2  0  0  0
  7 10  1  0  0  0
  8  9  1  0  0  0
  9 40  1  0  0  0
 10 11  1  0  0  0
 10 41  1  0  0  0
 10 42  1  0  0  0
 11 12  1  0  0  0
 11 13  1  0  0  0
 11 27  1  0  0  0
 13 14  2  0  0  0
 13 15  1  0  0  0
 15 16  1  0  0  0
 15 43  1  0  0  0
 16 21  2  0  0  0
 16 17  1  0  0  0
 17 18  2  0  0  0
 17 44  1  0  0  0
 18 19  1  0  0  0
 18 45  1  0  0  0
 19 20  2  0  0  0
 19 22  1  0  0  0
 20 21  1  0  0  0
 20 46  1  0  0  0
 21 47  1  0  0  0
 22 23  1  0  0  0
 23 24  1  0  0  0
 23 25  1  0  0  0
 23 26  1  0  0  0
 27 28  1  0  0  0
 27 48  1  0  0  0
 28 29  2  0  0  0
 28 30  1  0  0  0
 30 34  1  0  0  0
 30 31  2  0  0  0
 31 32  1  0  0  0
 31 49  1  0  0  0
 32 33  2  0  0  0
 32 50  1  0  0  0
 33 34  1  0  0  0
 33 51  1  0  0  0
M  CHG  1   5   1
M  END
> <i_i_glide_confnum>
132

> <i_i_glide_lignum>
5121

> <i_i_glide_posenum>
306

> <i_i_glide_rotatable_bonds>
10

> <i_m_Source_File_Index>
6086

> <b_m_subgroup_collapsed>
0

> <r_i_docking_score>
-3.58362

> <r_i_glide_ecoul>
0.601354

> <r_i_glide_eff_state_penalty>
0

> <r_i_glide_einternal>
13.0319

> <r_i_glide_emodel>
-41.6658

> <r_i_glide_energy>
-39.36

> <r_i_glide_erotb>
0.629183

> <r_i_glide_esite>
-0.102631

> <r_i_glide_evdw>
-39.9613

> <r_i_glide_gscore>
-3.58362

> <r_i_glide_hbond>
-0.2

> <r_i_glide_ligand_efficiency>
-0.108595

> <r_i_glide_ligand_efficiency_ln>
-0.796978

> <r_i_glide_ligand_efficiency_sa>
-0.348321

> <r_i_glide_lipo>
-2.21994

> <r_i_glide_metal>
0

> <r_i_glide_rewards>
0.217634

> <s_i_glide_gridfile>
wee1_glide-grid

> <s_m_Source_File>
wee1_decoys_glide_SP.sdf

> <s_m_Source_Path>
/Users/zhangxujun/Desktop

> <s_m_entry_id>
6361

> <s_m_entry_name>
wee1_decoys_glide_SP.6086

> <s_m_subgroup_title>
wee1_decoys_glide_SP

> <s_m_subgroupid>
wee1_decoys_glide_SP


$$$$
