ZINC02667940_6036
                    3D
 Schrodinger Suite 2024-2.
 71 75  0  0  1  0            999 V2000
    2.0856   45.6308   15.1412 C   0  0  0  0  0  0
    1.5938   46.9108   15.7981 C   0  0  0  0  0  0
    1.1781   47.9825   15.0084 C   0  0  0  0  0  0
    0.7706   49.1721   15.6093 C   0  0  0  0  0  0
    0.7783   49.2990   17.0020 C   0  0  0  0  0  0
    1.1980   48.2174   17.7863 C   0  0  0  0  0  0
    1.5920   47.0243   17.1866 C   0  0  0  0  0  0
    0.3872   50.6428   17.6337 C   0  0  1  0  0  0
    0.7837   51.3892   16.9470 H   0  0  0  0  0  0
   -1.1327   50.8909   17.7522 C   0  0  0  0  0  0
   -2.1113   49.9643   18.2145 C   0  0  0  0  0  0
   -3.4200   50.4681   18.1731 C   0  0  0  0  0  0
   -3.4490   52.0945   17.5929 S   0  0  0  0  0  0
   -1.7234   52.1188   17.4272 C   0  0  0  0  0  0
   -1.0366   53.2552   17.0029 N   0  0  0  0  0  0
   -1.4027   54.5464   17.1631 C   0  0  0  0  0  0
   -2.4494   54.9389   17.6817 O   0  0  0  0  0  0
   -0.4188   55.4766   16.6797 C   0  0  0  0  0  0
    0.9575   55.3621   16.4772 C   0  0  0  0  0  0
    1.4187   56.6239   16.0994 C   0  0  0  0  0  0
    0.3192   57.4638   16.1319 C   0  0  0  0  0  0
   -0.7871   56.7771   16.5150 O   0  0  0  0  0  0
   -4.7176   49.8028   18.5784 C   0  0  0  0  0  0
   -1.8047   48.5984   18.7908 C   0  0  0  0  0  0
    0.4989   52.0522   19.8468 C   0  0  0  0  0  0
    1.3537   52.2498   21.1033 C   0  0  0  0  0  0
    2.7762   52.7056   20.7307 C   0  0  2  0  0  0
    3.4250   51.5753   19.9149 C   0  0  0  0  0  0
    2.6484   51.3413   18.6091 C   0  0  0  0  0  0
    3.5635   53.0427   22.0113 C   0  0  0  0  0  0
    4.8258   53.8925   21.8868 C   0  0  0  0  0  0
    5.5710   54.0966   23.0497 C   0  0  0  0  0  0
    6.7045   54.8980   23.0214 C   0  0  0  0  0  0
    7.1041   55.4916   21.8272 C   0  0  0  0  0  0
    6.3717   55.2973   20.6594 C   0  0  0  0  0  0
    5.2318   54.4960   20.6874 C   0  0  0  0  0  0
    2.7202   45.0537   15.8167 H   0  0  0  0  0  0
    1.2450   45.0149   14.8160 H   0  0  0  0  0  0
    2.6940   45.8701   14.2685 H   0  0  0  0  0  0
    1.1832   47.9034   13.9315 H   0  0  0  0  0  0
    0.4634   50.0003   14.9859 H   0  0  0  0  0  0
    1.2360   48.2909   18.8625 H   0  0  0  0  0  0
    1.9062   46.1978   17.8026 H   0  0  0  0  0  0
   -0.1153   53.1009   16.6265 H   0  0  0  0  0  0
    1.5628   54.4755   16.5884 H   0  0  0  0  0  0
    2.4344   56.9029   15.8589 H   0  0  0  0  0  0
    0.1887   58.5244   15.9566 H   0  0  0  0  0  0
   -4.7274   48.7409   18.3246 H   0  0  0  0  0  0
   -4.8888   49.8778   19.6547 H   0  0  0  0  0  0
   -5.5894   50.2449   18.0855 H   0  0  0  0  0  0
   -0.9366   48.6320   19.4458 H   0  0  0  0  0  0
   -2.6114   48.2091   19.4134 H   0  0  0  0  0  0
   -1.5919   47.8634   18.0149 H   0  0  0  0  0  0
    0.3921   52.9697   19.2691 H   0  0  0  0  0  0
   -0.4791   51.6697   20.1410 H   0  0  0  0  0  0
    0.8818   53.0043   21.7337 H   0  0  0  0  0  0
    1.3776   51.3509   21.7235 H   0  0  0  0  0  0
    2.7043   53.5941   20.1066 H   0  0  0  0  0  0
    3.5004   50.6571   20.4994 H   0  0  0  0  0  0
    4.4595   51.8314   19.6859 H   0  0  0  0  0  0
    3.0866   50.4958   18.0817 H   0  0  0  0  0  0
    2.6553   52.2128   17.9550 H   0  0  0  0  0  0
    2.9179   53.5748   22.7136 H   0  0  0  0  0  0
    3.8292   52.0996   22.4815 H   0  0  0  0  0  0
    5.2657   53.6431   23.9833 H   0  0  0  0  0  0
    7.2838   55.0537   23.9211 H   0  0  0  0  0  0
    8.0009   56.0967   21.8114 H   0  0  0  0  0  0
    6.6902   55.7535   19.7346 H   0  0  0  0  0  0
    4.6789   54.3593   19.7709 H   0  0  0  0  0  0
    1.1697   50.9828   18.9432 N   0  3  2  0  0  0
    1.2064   50.1323   19.4857 H   0  0  0  0  0  0
  1  2  1  0  0  0
  1 37  1  0  0  0
  1 38  1  0  0  0
  1 39  1  0  0  0
  2  7  2  0  0  0
  2  3  1  0  0  0
  3  4  2  0  0  0
  3 40  1  0  0  0
  4  5  1  0  0  0
  4 41  1  0  0  0
  5  6  2  0  0  0
  5  8  1  0  0  0
  6  7  1  0  0  0
  6 42  1  0  0  0
  7 43  1  0  0  0
  8  9  1  0  0  0
  8 10  1  0  0  0
  8 70  1  0  0  0
 10 14  2  0  0  0
 10 11  1  0  0  0
 11 12  2  0  0  0
 11 24  1  0  0  0
 12 13  1  0  0  0
 12 23  1  0  0  0
 13 14  1  0  0  0
 14 15  1  0  0  0
 15 16  1  0  0  0
 15 44  1  0  0  0
 16 17  2  0  0  0
 16 18  1  0  0  0
 18 22  1  0  0  0
 18 19  2  0  0  0
 19 20  1  0  0  0
 19 45  1  0  0  0
 20 21  2  0  0  0
 20 46  1  0  0  0
 21 22  1  0  0  0
 21 47  1  0  0  0
 23 48  1  0  0  0
 23 49  1  0  0  0
 23 50  1  0  0  0
 24 51  1  0  0  0
 24 52  1  0  0  0
 24 53  1  0  0  0
 25 26  1  0  0  0
 25 54  1  0  0  0
 25 55  1  0  0  0
 25 70  1  0  0  0
 26 27  1  0  0  0
 26 56  1  0  0  0
 26 57  1  0  0  0
 27 28  1  0  0  0
 27 30  1  0  0  0
 27 58  1  0  0  0
 28 29  1  0  0  0
 28 59  1  0  0  0
 28 60  1  0  0  0
 29 61  1  0  0  0
 29 62  1  0  0  0
 29 70  1  0  0  0
 30 31  1  0  0  0
 30 63  1  0  0  0
 30 64  1  0  0  0
 31 36  2  0  0  0
 31 32  1  0  0  0
 32 33  2  0  0  0
 32 65  1  0  0  0
 33 34  1  0  0  0
 33 66  1  0  0  0
 34 35  2  0  0  0
 34 67  1  0  0  0
 35 36  1  0  0  0
 35 68  1  0  0  0
 36 69  1  0  0  0
 70 71  1  0  0  0
M  CHG  1  70   1
M  END
> <i_i_glide_confnum>
271

> <i_i_glide_lignum>
6037

> <i_i_glide_posenum>
165

> <i_i_glide_rotatable_bonds>
8

> <i_m_Source_File_Index>
798

> <b_m_subgroup_collapsed>
0

> <r_i_docking_score>
-3.25997

> <r_i_glide_ecoul>
-5.24528

> <r_i_glide_eff_state_penalty>
0

> <r_i_glide_einternal>
9.27114

> <r_i_glide_emodel>
-39.7893

> <r_i_glide_energy>
-36.6409

> <r_i_glide_erotb>
0.654082

> <r_i_glide_esite>
-0.045421

> <r_i_glide_evdw>
-31.3956

> <r_i_glide_gscore>
-3.25997

> <r_i_glide_hbond>
-0.276997

> <r_i_glide_ligand_efficiency>
-0.0905546

> <r_i_glide_ligand_efficiency_ln>
-0.711237

> <r_i_glide_ligand_efficiency_sa>
-0.299005

> <r_i_glide_lipo>
-1.23295

> <r_i_glide_metal>
0

> <r_i_glide_rewards>
-0.00210436

> <s_i_glide_gridfile>
wee1_glide-grid

> <s_m_Source_File>
wee1_decoys_glide_SP.sdf

> <s_m_Source_Path>
/Users/zhangxujun/Desktop

> <s_m_entry_id>
1073

> <s_m_entry_name>
wee1_decoys_glide_SP.798

> <s_m_subgroup_title>
wee1_decoys_glide_SP

> <s_m_subgroupid>
wee1_decoys_glide_SP


$$$$
