ZINC39938595_804
                    3D
 Schrodinger Suite 2024-2.
 58 63  0  0  1  0            999 V2000
   -6.1080   42.1475   27.5936 C   0  0  0  0  0  0
   -7.5595   42.0718   27.6818 C   0  0  0  0  0  0
   -8.3456   43.1603   27.4679 C   0  0  0  0  0  0
   -7.7735   44.3964   27.1364 C   0  0  0  0  0  0
   -8.3636   45.5461   26.8877 N   0  3  0  0  0  0
   -7.3629   46.5843   26.5764 C   0  0  0  0  0  0
   -6.0765   45.7969   26.7188 C   0  0  0  0  0  0
   -6.3799   44.5194   27.0380 C   0  0  0  0  0  0
   -5.5478   43.3285   27.2818 C   0  0  0  0  0  0
   -4.7647   46.3626   26.5268 C   0  0  0  0  0  0
   -3.6605   45.8555   26.9063 N   0  0  0  0  0  0
   -2.6775   46.7465   26.4816 N   0  0  0  0  0  0
   -3.3406   47.8173   25.8158 C   0  0  2  0  0  0
   -3.0916   48.7364   26.3433 H   0  0  0  0  0  0
   -4.6896   47.5852   25.9216 O   0  0  0  0  0  0
   -2.8134   48.0087   24.0809 S   0  0  0  0  0  0
   -3.0336   49.8106   23.8648 C   0  0  0  0  0  0
   -1.9646   50.6121   24.6121 C   0  0  0  0  0  0
   -0.8484   50.7379   24.1087 O   0  0  0  0  0  0
   -2.3287   51.0756   25.8256 N   0  0  0  0  0  0
   -1.4934   51.5198   26.8593 C   0  0  0  0  0  0
   -1.9652   51.2967   28.1674 C   0  0  0  0  0  0
   -1.1698   51.5867   29.2822 C   0  0  0  0  0  0
    0.0903   52.1152   29.0466 C   0  0  0  0  0  0
    0.5399   52.3783   27.7861 C   0  0  0  0  0  0
   -0.2223   52.0967   26.6584 C   0  0  0  0  0  0
    1.8020   52.8708   27.8591 O   0  0  0  0  0  0
    2.0670   53.0685   29.2285 C   0  0  0  0  0  0
    1.0730   52.3868   29.9433 O   0  0  0  0  0  0
    1.9819   54.5631   29.5643 C   0  0  0  0  0  0
    3.1065   55.3519   28.8678 C   0  0  0  0  0  0
    4.5094   54.7308   29.0598 C   0  0  0  0  0  0
    4.5335   53.2190   28.7678 C   0  0  0  0  0  0
    3.4402   52.4827   29.5667 C   0  0  0  0  0  0
   -5.4854   41.2962   27.8018 H   0  0  0  0  0  0
   -8.0190   41.1277   27.9458 H   0  0  0  0  0  0
   -9.4150   43.0468   27.5590 H   0  0  0  0  0  0
   -7.4671   47.3958   27.2996 H   0  0  0  0  0  0
   -7.5467   46.9499   25.5642 H   0  0  0  0  0  0
   -4.4680   43.3658   27.2603 H   0  0  0  0  0  0
   -2.0978   47.0086   27.2867 H   0  0  0  0  0  0
   -4.0408   50.0970   24.1723 H   0  0  0  0  0  0
   -2.9521   50.0422   22.8020 H   0  0  0  0  0  0
   -3.2824   50.9060   26.1049 H   0  0  0  0  0  0
   -2.9227   50.8224   28.3325 H   0  0  0  0  0  0
   -1.5043   51.3447   30.2806 H   0  0  0  0  0  0
    0.1728   52.2913   25.6720 H   0  0  0  0  0  0
    2.0597   54.6854   30.6399 H   0  0  0  0  0  0
    1.0060   54.9470   29.2630 H   0  0  0  0  0  0
    3.1041   56.3697   29.2628 H   0  0  0  0  0  0
    2.8829   55.4171   27.8015 H   0  0  0  0  0  0
    4.8452   54.8961   30.0826 H   0  0  0  0  0  0
    5.2345   55.2409   28.4219 H   0  0  0  0  0  0
    5.5123   52.8073   29.0093 H   0  0  0  0  0  0
    4.3965   53.0445   27.7002 H   0  0  0  0  0  0
    3.4406   51.4147   29.3421 H   0  0  0  0  0  0
    3.6262   52.6059   30.6352 H   0  0  0  0  0  0
   -9.3676   45.7067   26.9023 H   0  0  0  0  0  0
  1  9  2  0  0  0
  1  2  1  0  0  0
  1 35  1  0  0  0
  2  3  2  0  0  0
  2 36  1  0  0  0
  3  4  1  0  0  0
  3 37  1  0  0  0
  4  8  1  0  0  0
  4  5  2  0  0  0
  5  6  1  0  0  0
  5 58  1  0  0  0
  6  7  1  0  0  0
  6 38  1  0  0  0
  6 39  1  0  0  0
  7  8  2  0  0  0
  7 10  1  0  0  0
  8  9  1  0  0  0
  9 40  1  0  0  0
 10 15  1  0  0  0
 10 11  2  0  0  0
 11 12  1  0  0  0
 12 13  1  0  0  0
 12 41  1  0  0  0
 13 14  1  0  0  0
 13 15  1  0  0  0
 13 16  1  0  0  0
 16 17  1  0  0  0
 17 18  1  0  0  0
 17 42  1  0  0  0
 17 43  1  0  0  0
 18 19  2  0  0  0
 18 20  1  0  0  0
 20 21  1  0  0  0
 20 44  1  0  0  0
 21 26  2  0  0  0
 21 22  1  0  0  0
 22 23  2  0  0  0
 22 45  1  0  0  0
 23 24  1  0  0  0
 23 46  1  0  0  0
 24 29  1  0  0  0
 24 25  2  0  0  0
 25 26  1  0  0  0
 25 27  1  0  0  0
 26 47  1  0  0  0
 27 28  1  0  0  0
 28 34  1  0  0  0
 28 29  1  0  0  0
 28 30  1  0  0  0
 30 31  1  0  0  0
 30 48  1  0  0  0
 30 49  1  0  0  0
 31 32  1  0  0  0
 31 50  1  0  0  0
 31 51  1  0  0  0
 32 33  1  0  0  0
 32 52  1  0  0  0
 32 53  1  0  0  0
 33 34  1  0  0  0
 33 54  1  0  0  0
 33 55  1  0  0  0
 34 56  1  0  0  0
 34 57  1  0  0  0
M  CHG  1   5   1
M  END
> <i_i_glide_confnum>
22

> <i_i_glide_lignum>
805

> <i_i_glide_posenum>
359

> <i_i_glide_rotatable_bonds>
6

> <i_m_Source_File_Index>
3798

> <b_m_subgroup_collapsed>
0

> <r_i_docking_score>
-4.78612

> <r_i_glide_ecoul>
-8.12022

> <r_i_glide_eff_state_penalty>
0

> <r_i_glide_einternal>
8.09833

> <r_i_glide_emodel>
-53.8359

> <r_i_glide_energy>
-42.0619

> <r_i_glide_erotb>
0.465271

> <r_i_glide_esite>
-0.251533

> <r_i_glide_evdw>
-33.9417

> <r_i_glide_gscore>
-4.78612

> <r_i_glide_hbond>
-0.158235

> <r_i_glide_ligand_efficiency>
-0.145034

> <r_i_glide_ligand_efficiency_ln>
-1.06441

> <r_i_glide_ligand_efficiency_sa>
-0.465201

> <r_i_glide_lipo>
-1.53983

> <r_i_glide_metal>
0

> <r_i_glide_rewards>
-0.386674

> <s_i_glide_gridfile>
wee1_glide-grid

> <s_m_Source_File>
wee1_decoys_glide_SP.sdf

> <s_m_Source_Path>
/Users/zhangxujun/Desktop

> <s_m_entry_id>
4073

> <s_m_entry_name>
wee1_decoys_glide_SP.3798

> <s_m_subgroup_title>
wee1_decoys_glide_SP

> <s_m_subgroupid>
wee1_decoys_glide_SP


$$$$
