ZINC62733096_3239
                    3D
 Schrodinger Suite 2024-2.
 71 75  0  0  1  0            999 V2000
    5.0996   58.5305   16.0788 C   0  0  0  0  0  0
    6.1827   58.7824   15.0025 C   0  0  1  0  0  0
    6.1205   57.9572   14.2891 H   0  0  0  0  0  0
    5.8200   60.0680   14.2081 C   0  0  0  0  0  0
    6.7582   60.3296   13.0127 C   0  0  0  0  0  0
    8.2354   60.3599   13.4450 C   0  0  0  0  0  0
    8.5969   59.0818   14.2256 C   0  0  0  0  0  0
    7.6789   58.8812   15.4693 C   0  0  2  0  0  0
    8.0892   57.5879   16.1650 C   0  0  0  0  0  0
    8.0050   56.4493   15.6976 O   0  0  0  0  0  0
    8.5301   57.9558   17.3915 N   0  0  0  0  0  0
    8.5150   59.2968   17.6106 C   0  0  0  0  0  0
    9.1086   59.9353   18.4821 O   0  0  0  0  0  0
    7.9045   59.8100   16.5421 N   0  0  0  0  0  0
    8.7366   56.9753   18.4814 C   0  0  0  0  0  0
    7.4195   56.6055   19.2016 C   0  0  0  0  0  0
    6.3482   57.1448   18.9153 O   0  0  0  0  0  0
    7.5604   55.7059   20.1899 N   0  0  0  0  0  0
    6.5538   55.2297   21.0408 C   0  0  0  0  0  0
    5.2657   54.8933   20.6112 C   0  0  0  0  0  0
    4.3377   54.3948   21.5280 C   0  0  0  0  0  0
    4.6747   54.2239   22.8822 C   0  0  0  0  0  0
    5.9952   54.4964   23.2673 C   0  0  0  0  0  0
    6.9119   55.0113   22.3632 C   0  0  0  0  0  0
    3.7426   53.7996   23.8330 N   0  0  0  0  0  0
    3.7896   54.3435   25.2033 C   0  0  0  0  0  0
    3.0911   53.4555   26.2373 C   0  0  0  0  0  0
    1.6721   53.3426   25.9070 N   0  0  0  0  0  0
    1.5311   52.7176   24.5880 C   0  0  0  0  0  0
    2.3551   53.4302   23.4792 C   0  0  0  0  0  0
    0.9228   52.5752   26.9121 C   0  0  0  0  0  0
    0.8626   53.1864   28.3176 C   0  0  0  0  0  0
    0.4094   52.3786   29.3649 C   0  0  0  0  0  0
    0.3040   52.8966   30.6519 C   0  0  0  0  0  0
    0.6522   54.2230   30.8900 C   0  0  0  0  0  0
    1.0974   55.0431   29.8584 C   0  0  0  0  0  0
    1.1571   54.5351   28.5658 C   0  0  0  0  0  0
    5.1235   59.2926   16.8595 H   0  0  0  0  0  0
    4.0969   58.5373   15.6496 H   0  0  0  0  0  0
    5.2314   57.5601   16.5568 H   0  0  0  0  0  0
    5.8080   60.9283   14.8798 H   0  0  0  0  0  0
    4.7950   59.9955   13.8394 H   0  0  0  0  0  0
    6.4912   61.2704   12.5305 H   0  0  0  0  0  0
    6.6150   59.5521   12.2607 H   0  0  0  0  0  0
    8.4168   61.2391   14.0658 H   0  0  0  0  0  0
    8.8803   60.4612   12.5709 H   0  0  0  0  0  0
    8.6138   58.1959   13.5862 H   0  0  0  0  0  0
    9.6337   59.1919   14.5530 H   0  0  0  0  0  0
    7.3819   60.6794   16.6032 H   0  0  0  0  0  0
    9.1794   56.0635   18.0759 H   0  0  0  0  0  0
    9.4511   57.3656   19.2083 H   0  0  0  0  0  0
    8.5014   55.4224   20.4198 H   0  0  0  0  0  0
    4.9762   55.0183   19.5774 H   0  0  0  0  0  0
    3.3425   54.1766   21.1707 H   0  0  0  0  0  0
    6.3409   54.3261   24.2742 H   0  0  0  0  0  0
    7.9044   55.2463   22.7001 H   0  0  0  0  0  0
    4.8025   54.5147   25.5565 H   0  0  0  0  0  0
    3.2955   55.3118   25.2008 H   0  0  0  0  0  0
    3.5868   52.4967   26.2989 H   0  0  0  0  0  0
    3.2173   53.9397   27.2033 H   0  0  0  0  0  0
    0.4826   52.6850   24.2895 H   0  0  0  0  0  0
    1.9042   51.6958   24.6498 H   0  0  0  0  0  0
    1.8381   54.3687   23.2723 H   0  0  0  0  0  0
    2.3285   52.8200   22.5755 H   0  0  0  0  0  0
   -0.1103   52.5015   26.5663 H   0  0  0  0  0  0
    1.2998   51.5533   26.9797 H   0  0  0  0  0  0
    0.1332   51.3489   29.1837 H   0  0  0  0  0  0
   -0.0585   52.2750   31.4601 H   0  0  0  0  0  0
    0.5650   54.6218   31.8900 H   0  0  0  0  0  0
    1.3489   56.0763   30.0501 H   0  0  0  0  0  0
    1.4516   55.1920   27.7610 H   0  0  0  0  0  0
  1  2  1  0  0  0
  1 38  1  0  0  0
  1 39  1  0  0  0
  1 40  1  0  0  0
  2  3  1  0  0  0
  2  8  1  0  0  0
  2  4  1  0  0  0
  4  5  1  0  0  0
  4 41  1  0  0  0
  4 42  1  0  0  0
  5  6  1  0  0  0
  5 43  1  0  0  0
  5 44  1  0  0  0
  6  7  1  0  0  0
  6 45  1  0  0  0
  6 46  1  0  0  0
  7  8  1  0  0  0
  7 47  1  0  0  0
  7 48  1  0  0  0
  8 14  1  0  0  0
  8  9  1  0  0  0
  9 10  2  0  0  0
  9 11  1  0  0  0
 11 12  1  0  0  0
 11 15  1  0  0  0
 12 13  2  0  0  0
 12 14  1  0  0  0
 14 49  1  0  0  0
 15 16  1  0  0  0
 15 50  1  0  0  0
 15 51  1  0  0  0
 16 17  2  0  0  0
 16 18  1  0  0  0
 18 19  1  0  0  0
 18 52  1  0  0  0
 19 24  2  0  0  0
 19 20  1  0  0  0
 20 21  2  0  0  0
 20 53  1  0  0  0
 21 22  1  0  0  0
 21 54  1  0  0  0
 22 23  2  0  0  0
 22 25  1  0  0  0
 23 24  1  0  0  0
 23 55  1  0  0  0
 24 56  1  0  0  0
 25 30  1  0  0  0
 25 26  1  0  0  0
 26 27  1  0  0  0
 26 57  1  0  0  0
 26 58  1  0  0  0
 27 28  1  0  0  0
 27 59  1  0  0  0
 27 60  1  0  0  0
 28 29  1  0  0  0
 28 31  1  0  0  0
 29 30  1  0  0  0
 29 61  1  0  0  0
 29 62  1  0  0  0
 30 63  1  0  0  0
 30 64  1  0  0  0
 31 32  1  0  0  0
 31 65  1  0  0  0
 31 66  1  0  0  0
 32 37  2  0  0  0
 32 33  1  0  0  0
 33 34  2  0  0  0
 33 67  1  0  0  0
 34 35  1  0  0  0
 34 68  1  0  0  0
 35 36  2  0  0  0
 35 69  1  0  0  0
 36 37  1  0  0  0
 36 70  1  0  0  0
 37 71  1  0  0  0
M  END
> <i_i_glide_confnum>
65

> <i_i_glide_lignum>
3240

> <i_i_glide_posenum>
301

> <i_i_glide_rotatable_bonds>
7

> <i_m_Source_File_Index>
895

> <b_m_subgroup_collapsed>
0

> <r_i_docking_score>
-6.04982

> <r_i_glide_ecoul>
-9.13046

> <r_i_glide_eff_state_penalty>
0

> <r_i_glide_einternal>
3.30844

> <r_i_glide_emodel>
-61.2827

> <r_i_glide_energy>
-45.5515

> <r_i_glide_erotb>
0.594087

> <r_i_glide_esite>
-0.150152

> <r_i_glide_evdw>
-36.4211

> <r_i_glide_gscore>
-6.04982

> <r_i_glide_hbond>
-0.272933

> <r_i_glide_ligand_efficiency>
-0.168051

> <r_i_glide_ligand_efficiency_ln>
-1.31991

> <r_i_glide_ligand_efficiency_sa>
-0.554891

> <r_i_glide_lipo>
-2.77568

> <r_i_glide_metal>
0

> <r_i_glide_rewards>
-0.254518

> <s_i_glide_gridfile>
wee1_glide-grid

> <s_m_Source_File>
wee1_decoys_glide_SP.sdf

> <s_m_Source_Path>
/Users/zhangxujun/Desktop

> <s_m_entry_id>
1170

> <s_m_entry_name>
wee1_decoys_glide_SP.895

> <s_m_subgroup_title>
wee1_decoys_glide_SP

> <s_m_subgroupid>
wee1_decoys_glide_SP


$$$$
