ZINC08868517_5127
                    3D
 Schrodinger Suite 2024-2.
 65 69  0  0  1  0            999 V2000
   -0.6857   48.3176   20.1045 C   0  0  0  0  0  0
   -1.5113   49.0045   21.2065 C   0  0  0  0  0  0
   -0.6675   49.7974   22.2523 C   0  0  2  0  0  0
   -0.0478   49.0240   22.7094 H   0  0  0  0  0  0
   -1.4924   50.3759   23.4731 C   0  0  0  0  0  0
   -2.7773   51.1612   23.0409 C   0  0  0  0  0  0
   -3.5697   51.6739   24.2710 C   0  0  1  0  0  0
   -3.9949   50.4707   25.1512 C   0  0  0  0  0  0
   -2.7347   49.7095   25.6324 C   0  0  1  0  0  0
   -1.9434   49.1980   24.4032 C   0  0  0  0  0  0
   -1.8396   50.6654   26.4608 C   0  0  0  0  0  0
   -1.4115   51.8630   25.5782 C   0  0  2  0  0  0
   -2.6710   52.6274   25.0942 C   0  0  0  0  0  0
   -0.6221   51.3409   24.3517 C   0  0  0  0  0  0
    0.2930   50.7486   21.6198 N   0  0  0  0  0  0
    1.6313   50.6430   21.8091 C   0  0  0  0  0  0
    2.2482   49.7657   22.4157 O   0  0  0  0  0  0
    2.2479   51.8804   21.1696 C   0  0  2  0  0  0
    1.0643   52.4967   20.6504 N   0  0  0  0  0  0
   -0.0669   51.8170   20.8575 C   0  0  0  0  0  0
   -1.1404   52.0342   20.2965 O   0  0  0  0  0  0
    3.2144   51.4395   20.0125 C   0  0  0  0  0  0
    2.7036   50.4634   19.2576 F   0  0  0  0  0  0
    3.4662   52.4498   19.1745 F   0  0  0  0  0  0
    4.3866   51.0186   20.4852 F   0  0  0  0  0  0
    2.8869   52.6457   22.2614 N   0  0  0  0  0  0
    3.7747   53.6610   22.2116 C   0  0  0  0  0  0
    4.2068   54.1573   21.1738 O   0  0  0  0  0  0
    4.3155   54.0962   23.5498 C   0  0  0  0  0  0
    3.5071   54.0789   24.6941 C   0  0  0  0  0  0
    4.0506   54.3544   25.9423 C   0  0  0  0  0  0
    5.4104   54.6770   26.0671 C   0  0  0  0  0  0
    6.1964   54.7757   24.9195 C   0  0  0  0  0  0
    5.6544   54.4929   23.6696 C   0  0  0  0  0  0
    6.0371   54.8969   27.2778 O   0  0  0  0  0  0
    5.3023   54.6617   28.4791 C   0  0  0  0  0  0
   -1.3308   47.7298   19.4489 H   0  0  0  0  0  0
   -0.1645   49.0425   19.4782 H   0  0  0  0  0  0
    0.0603   47.6440   20.5270 H   0  0  0  0  0  0
   -2.0989   48.2366   21.7090 H   0  0  0  0  0  0
   -2.2326   49.6650   20.7246 H   0  0  0  0  0  0
   -3.4308   50.5306   22.4390 H   0  0  0  0  0  0
   -2.5156   52.0113   22.4121 H   0  0  0  0  0  0
   -4.4587   52.2106   23.9365 H   0  0  0  0  0  0
   -4.6493   49.8032   24.5898 H   0  0  0  0  0  0
   -4.5770   50.8152   26.0068 H   0  0  0  0  0  0
   -3.0295   48.8642   26.2569 H   0  0  0  0  0  0
   -1.0736   48.6318   24.7428 H   0  0  0  0  0  0
   -2.5664   48.4875   23.8601 H   0  0  0  0  0  0
   -0.9637   50.1315   26.8325 H   0  0  0  0  0  0
   -2.3758   51.0129   27.3447 H   0  0  0  0  0  0
   -0.7796   52.5332   26.1638 H   0  0  0  0  0  0
   -3.2212   53.0252   25.9476 H   0  0  0  0  0  0
   -2.3858   53.4855   24.4825 H   0  0  0  0  0  0
   -0.2847   52.1993   23.7693 H   0  0  0  0  0  0
    0.2810   50.8295   24.6865 H   0  0  0  0  0  0
    1.0963   53.4727   20.3702 H   0  0  0  0  0  0
    2.5570   52.4110   23.1856 H   0  0  0  0  0  0
    2.4623   53.8150   24.6376 H   0  0  0  0  0  0
    3.4017   54.2903   26.7995 H   0  0  0  0  0  0
    7.2399   55.0385   24.9955 H   0  0  0  0  0  0
    6.2974   54.5365   22.7996 H   0  0  0  0  0  0
    5.9085   54.8890   29.3556 H   0  0  0  0  0  0
    4.4157   55.2939   28.5428 H   0  0  0  0  0  0
    4.9966   53.6138   28.5541 H   0  0  0  0  0  0
  1  2  1  0  0  0
  1 37  1  0  0  0
  1 38  1  0  0  0
  1 39  1  0  0  0
  2  3  1  0  0  0
  2 40  1  0  0  0
  2 41  1  0  0  0
  3  4  1  0  0  0
  3  5  1  0  0  0
  3 15  1  0  0  0
  5 10  1  0  0  0
  5 14  1  0  0  0
  5  6  1  0  0  0
  6  7  1  0  0  0
  6 42  1  0  0  0
  6 43  1  0  0  0
  7 13  1  0  0  0
  7  8  1  0  0  0
  7 44  1  0  0  0
  8  9  1  0  0  0
  8 45  1  0  0  0
  8 46  1  0  0  0
  9 10  1  0  0  0
  9 11  1  0  0  0
  9 47  1  0  0  0
 10 48  1  0  0  0
 10 49  1  0  0  0
 11 12  1  0  0  0
 11 50  1  0  0  0
 11 51  1  0  0  0
 12 13  1  0  0  0
 12 14  1  0  0  0
 12 52  1  0  0  0
 13 53  1  0  0  0
 13 54  1  0  0  0
 14 55  1  0  0  0
 14 56  1  0  0  0
 15 20  1  0  0  0
 15 16  1  0  0  0
 16 17  2  0  0  0
 16 18  1  0  0  0
 18 19  1  0  0  0
 18 22  1  0  0  0
 18 26  1  0  0  0
 19 20  1  0  0  0
 19 57  1  0  0  0
 20 21  2  0  0  0
 22 23  1  0  0  0
 22 24  1  0  0  0
 22 25  1  0  0  0
 26 27  1  0  0  0
 26 58  1  0  0  0
 27 28  2  0  0  0
 27 29  1  0  0  0
 29 34  2  0  0  0
 29 30  1  0  0  0
 30 31  2  0  0  0
 30 59  1  0  0  0
 31 32  1  0  0  0
 31 60  1  0  0  0
 32 33  2  0  0  0
 32 35  1  0  0  0
 33 34  1  0  0  0
 33 61  1  0  0  0
 34 62  1  0  0  0
 35 36  1  0  0  0
 36 63  1  0  0  0
 36 64  1  0  0  0
 36 65  1  0  0  0
M  END
> <i_i_glide_confnum>
6

> <i_i_glide_lignum>
5128

> <i_i_glide_posenum>
261

> <i_i_glide_rotatable_bonds>
8

> <i_m_Source_File_Index>
2850

> <b_m_subgroup_collapsed>
0

> <r_i_docking_score>
-4.9205

> <r_i_glide_ecoul>
-3.74127

> <r_i_glide_eff_state_penalty>
0

> <r_i_glide_einternal>
9.74511

> <r_i_glide_emodel>
-48.4646

> <r_i_glide_energy>
-40.7944

> <r_i_glide_erotb>
0.418214

> <r_i_glide_esite>
-0.299608

> <r_i_glide_evdw>
-37.0532

> <r_i_glide_gscore>
-4.9205

> <r_i_glide_hbond>
-0.32

> <r_i_glide_ligand_efficiency>
-0.140586

> <r_i_glide_ligand_efficiency_ln>
-1.08016

> <r_i_glide_ligand_efficiency_sa>
-0.459865

> <r_i_glide_lipo>
-1.81156

> <r_i_glide_metal>
0

> <r_i_glide_rewards>
-0.4937

> <s_i_glide_gridfile>
wee1_glide-grid

> <s_m_Source_File>
wee1_decoys_glide_SP.sdf

> <s_m_Source_Path>
/Users/zhangxujun/Desktop

> <s_m_entry_id>
3125

> <s_m_entry_name>
wee1_decoys_glide_SP.2850

> <s_m_subgroup_title>
wee1_decoys_glide_SP

> <s_m_subgroupid>
wee1_decoys_glide_SP


$$$$
