ZINC39972170_404
                    3D
 Schrodinger Suite 2024-2.
 67 69  0  0  1  0            999 V2000
   -0.9690   51.3348   29.3945 C   0  0  0  0  0  0
    0.0565   51.9808   28.4780 C   0  0  0  0  0  0
   -0.1246   52.1159   27.0614 C   0  0  0  0  0  0
    1.0574   52.5826   26.4529 C   0  0  0  0  0  0
    2.3185   52.9490   27.5843 S   0  0  0  0  0  0
    1.3173   52.4607   28.9141 C   0  0  0  0  0  0
    1.9195   52.4962   30.2388 C   0  0  0  0  0  0
    3.1354   52.5544   30.4155 O   0  0  0  0  0  0
    1.0897   52.5000   31.2818 N   0  0  0  0  0  0
    1.1994   52.7378   25.0788 N   0  0  0  0  0  0
    2.2075   53.2214   24.3321 C   0  0  0  0  0  0
    3.2437   53.7150   24.7818 O   0  0  0  0  0  0
    1.9191   53.1268   22.8113 C   0  0  0  0  0  0
    3.1223   52.9134   21.9796 N   0  0  0  0  0  0
    3.8136   54.2014   21.7579 C   0  0  0  0  0  0
    5.0403   54.0477   20.8394 C   0  0  0  0  0  0
    4.5746   53.4737   19.4824 N   0  3  0  0  0  0
    3.8692   52.1213   19.7142 C   0  0  0  0  0  0
    2.6864   52.3650   20.6757 C   0  0  0  0  0  0
    5.7386   53.3190   18.4742 C   0  0  0  0  0  0
    6.4414   54.6351   18.1670 C   0  0  0  0  0  0
    7.7140   54.8972   18.6817 C   0  0  0  0  0  0
    8.3284   56.1223   18.4288 C   0  0  0  0  0  0
    7.6760   57.0831   17.6584 C   0  0  0  0  0  0
    6.4144   56.8136   17.1233 C   0  0  0  0  0  0
    5.8000   55.5914   17.3753 C   0  0  0  0  0  0
    8.4737   58.6402   17.3887 S   0  0  0  0  0  0
    7.5099   59.5984   16.1788 C   0  0  0  0  0  0
   -1.3559   51.8188   26.2788 C   0  0  0  0  0  0
   -1.3735   51.7483   25.0458 O   0  0  0  0  0  0
   -2.4617   51.6941   27.0583 O   0  0  0  0  0  0
   -3.7639   51.3375   26.5765 C   0  0  0  0  0  0
   -4.3921   52.4362   25.6955 C   0  0  0  0  0  0
   -3.7927   49.9340   25.9367 C   0  0  0  0  0  0
   -0.5776   50.8974   30.2995 H   0  0  0  0  0  0
   -1.6954   52.0781   29.6822 H   0  0  0  0  0  0
   -1.4938   50.4971   28.9293 H   0  0  0  0  0  0
    0.0891   52.4092   31.1647 H   0  0  0  0  0  0
    1.4665   52.5172   32.2184 H   0  0  0  0  0  0
    0.3758   52.4349   24.5727 H   0  0  0  0  0  0
    1.2108   52.3079   22.6503 H   0  0  0  0  0  0
    1.3605   54.0045   22.4830 H   0  0  0  0  0  0
    3.1149   54.8952   21.2899 H   0  0  0  0  0  0
    4.1429   54.6363   22.7001 H   0  0  0  0  0  0
    5.7939   53.3814   21.2592 H   0  0  0  0  0  0
    5.4669   55.0315   20.6421 H   0  0  0  0  0  0
    4.6039   51.4116   20.1018 H   0  0  0  0  0  0
    3.5047   51.7790   18.7450 H   0  0  0  0  0  0
    2.1656   51.4161   20.8187 H   0  0  0  0  0  0
    1.9951   53.0702   20.2090 H   0  0  0  0  0  0
    6.4112   52.5636   18.8816 H   0  0  0  0  0  0
    5.2865   52.9030   17.5725 H   0  0  0  0  0  0
    8.2286   54.1625   19.2823 H   0  0  0  0  0  0
    9.3082   56.3213   18.8391 H   0  0  0  0  0  0
    5.8906   57.5423   16.5220 H   0  0  0  0  0  0
    4.8187   55.3964   16.9669 H   0  0  0  0  0  0
    7.9185   60.6062   16.0938 H   0  0  0  0  0  0
    7.5474   59.1301   15.1951 H   0  0  0  0  0  0
    6.4681   59.6964   16.4827 H   0  0  0  0  0  0
   -4.3748   51.2729   27.4769 H   0  0  0  0  0  0
   -5.4160   52.1770   25.4188 H   0  0  0  0  0  0
   -3.8354   52.5877   24.7726 H   0  0  0  0  0  0
   -4.4247   53.3883   26.2283 H   0  0  0  0  0  0
   -4.8143   49.6275   25.7047 H   0  0  0  0  0  0
   -3.2226   49.8945   25.0109 H   0  0  0  0  0  0
   -3.3717   49.1916   26.6172 H   0  0  0  0  0  0
    3.8974   54.1121   19.0848 H   0  0  0  0  0  0
  1  2  1  0  0  0
  1 35  1  0  0  0
  1 36  1  0  0  0
  1 37  1  0  0  0
  2  6  2  0  0  0
  2  3  1  0  0  0
  3  4  2  0  0  0
  3 29  1  0  0  0
  4  5  1  0  0  0
  4 10  1  0  0  0
  5  6  1  0  0  0
  6  7  1  0  0  0
  7  8  2  0  0  0
  7  9  1  0  0  0
  9 38  1  0  0  0
  9 39  1  0  0  0
 10 11  1  0  0  0
 10 40  1  0  0  0
 11 12  2  0  0  0
 11 13  1  0  0  0
 13 14  1  0  0  0
 13 41  1  0  0  0
 13 42  1  0  0  0
 14 19  1  0  0  0
 14 15  1  0  0  0
 15 16  1  0  0  0
 15 43  1  0  0  0
 15 44  1  0  0  0
 16 17  1  0  0  0
 16 45  1  0  0  0
 16 46  1  0  0  0
 17 18  1  0  0  0
 17 20  1  0  0  0
 17 67  1  0  0  0
 18 19  1  0  0  0
 18 47  1  0  0  0
 18 48  1  0  0  0
 19 49  1  0  0  0
 19 50  1  0  0  0
 20 21  1  0  0  0
 20 51  1  0  0  0
 20 52  1  0  0  0
 21 26  2  0  0  0
 21 22  1  0  0  0
 22 23  2  0  0  0
 22 53  1  0  0  0
 23 24  1  0  0  0
 23 54  1  0  0  0
 24 25  2  0  0  0
 24 27  1  0  0  0
 25 26  1  0  0  0
 25 55  1  0  0  0
 26 56  1  0  0  0
 27 28  1  0  0  0
 28 57  1  0  0  0
 28 58  1  0  0  0
 28 59  1  0  0  0
 29 30  2  0  0  0
 29 31  1  0  0  0
 31 32  1  0  0  0
 32 33  1  0  0  0
 32 34  1  0  0  0
 32 60  1  0  0  0
 33 61  1  0  0  0
 33 62  1  0  0  0
 33 63  1  0  0  0
 34 64  1  0  0  0
 34 65  1  0  0  0
 34 66  1  0  0  0
M  CHG  1  17   1
M  END
> <i_i_glide_confnum>
131

> <i_i_glide_lignum>
405

> <i_i_glide_posenum>
383

> <i_i_glide_rotatable_bonds>
11

> <i_m_Source_File_Index>
4663

> <b_m_subgroup_collapsed>
0

> <r_i_docking_score>
-3.90345

> <r_i_glide_ecoul>
-7.50312

> <r_i_glide_eff_state_penalty>
0

> <r_i_glide_einternal>
4.34747

> <r_i_glide_emodel>
-59.3194

> <r_i_glide_energy>
-47.1946

> <r_i_glide_erotb>
0.639948

> <r_i_glide_esite>
-0.131904

> <r_i_glide_evdw>
-39.6915

> <r_i_glide_gscore>
-3.90345

> <r_i_glide_hbond>
-0.0518823

> <r_i_glide_ligand_efficiency>
-0.114807

> <r_i_glide_ligand_efficiency_ln>
-0.862382

> <r_i_glide_ligand_efficiency_sa>
-0.371931

> <r_i_glide_lipo>
-0.947904

> <r_i_glide_metal>
0

> <r_i_glide_rewards>
-0.301667

> <s_i_glide_gridfile>
wee1_glide-grid

> <s_m_Source_File>
wee1_decoys_glide_SP.sdf

> <s_m_Source_Path>
/Users/zhangxujun/Desktop

> <s_m_entry_id>
4938

> <s_m_entry_name>
wee1_decoys_glide_SP.4663

> <s_m_subgroup_title>
wee1_decoys_glide_SP

> <s_m_subgroupid>
wee1_decoys_glide_SP


$$$$
