ZINC39894534_999
                    3D
 Schrodinger Suite 2024-2.
 43 44  0  0  1  0            999 V2000
    0.3344   48.6961   25.1173 C   0  0  0  0  0  0
   -0.8817   49.5434   24.7467 C   0  0  0  0  0  0
   -2.0848   48.9507   24.5086 C   0  0  0  0  0  0
   -3.2978   49.6992   24.2066 C   0  0  0  0  0  0
   -4.3531   49.0971   23.9836 O   0  0  0  0  0  0
   -3.1788   51.0701   24.1880 N   0  0  0  0  0  0
   -1.9232   51.6537   24.3369 C   0  0  0  0  0  0
   -1.9733   52.9135   24.0652 O   0  5  0  0  0  0
   -0.7582   51.0105   24.6520 C   0  0  0  0  0  0
    0.5430   51.6484   24.7972 C   0  0  0  0  0  0
    0.7240   52.8303   25.2364 N   0  0  0  0  0  0
    2.0334   53.3145   25.3586 C   0  0  0  0  0  0
    2.7586   53.7757   24.2388 C   0  0  0  0  0  0
    4.0494   54.2839   24.3853 C   0  0  0  0  0  0
    4.6621   54.3592   25.6410 C   0  0  0  0  0  0
    3.9444   53.9073   26.7537 C   0  0  0  0  0  0
    2.6518   53.3970   26.6188 C   0  0  0  0  0  0
    1.7542   52.8124   28.2019 Br  0  0  0  0  0  0
    6.0390   54.8951   25.7849 N   0  3  0  0  0  0
    6.5903   55.3680   24.7946 O   0  0  0  0  0  0
    6.5809   54.8508   26.8840 O   0  5  0  0  0  0
    2.0178   53.7140   22.4820 Br  0  0  0  0  0  0
   -4.4663   51.8020   23.9783 C   0  0  0  0  0  0
   -5.3616   51.9396   25.2371 C   0  0  0  0  0  0
   -4.6357   52.6200   26.4142 C   0  0  0  0  0  0
   -6.6573   52.6904   24.8847 C   0  0  0  0  0  0
   -2.2043   47.5249   24.5482 C   0  0  0  0  0  0
   -2.2874   46.3691   24.5274 N   0  0  0  0  0  0
    0.1182   47.6476   25.2815 H   0  0  0  0  0  0
    1.1038   48.7867   24.3483 H   0  0  0  0  0  0
    0.7738   49.0716   26.0426 H   0  0  0  0  0  0
    1.3705   51.0175   24.4832 H   0  0  0  0  0  0
    4.5756   54.6218   23.5036 H   0  0  0  0  0  0
    4.3886   53.9464   27.7407 H   0  0  0  0  0  0
   -5.0419   51.3146   23.1874 H   0  0  0  0  0  0
   -4.2791   52.8019   23.5888 H   0  0  0  0  0  0
   -5.6534   50.9386   25.5572 H   0  0  0  0  0  0
   -4.3000   53.6236   26.1501 H   0  0  0  0  0  0
   -3.7563   52.0527   26.7212 H   0  0  0  0  0  0
   -5.2860   52.6965   27.2839 H   0  0  0  0  0  0
   -6.4536   53.7096   24.5534 H   0  0  0  0  0  0
   -7.1993   52.1877   24.0842 H   0  0  0  0  0  0
   -7.3281   52.7482   25.7425 H   0  0  0  0  0  0
  1  2  1  0  0  0
  1 29  1  0  0  0
  1 30  1  0  0  0
  1 31  1  0  0  0
  2  9  1  0  0  0
  2  3  2  0  0  0
  3  4  1  0  0  0
  3 27  1  0  0  0
  4  5  2  0  0  0
  4  6  1  0  0  0
  6  7  1  0  0  0
  6 23  1  0  0  0
  7  8  1  0  0  0
  7  9  2  0  0  0
  9 10  1  0  0  0
 10 11  2  0  0  0
 10 32  1  0  0  0
 11 12  1  0  0  0
 12 17  2  0  0  0
 12 13  1  0  0  0
 13 14  2  0  0  0
 13 22  1  0  0  0
 14 15  1  0  0  0
 14 33  1  0  0  0
 15 16  2  0  0  0
 15 19  1  0  0  0
 16 17  1  0  0  0
 16 34  1  0  0  0
 17 18  1  0  0  0
 19 20  2  0  0  0
 19 21  1  0  0  0
 23 24  1  0  0  0
 23 35  1  0  0  0
 23 36  1  0  0  0
 24 25  1  0  0  0
 24 26  1  0  0  0
 24 37  1  0  0  0
 25 38  1  0  0  0
 25 39  1  0  0  0
 25 40  1  0  0  0
 26 41  1  0  0  0
 26 42  1  0  0  0
 26 43  1  0  0  0
 27 28  3  0  0  0
M  CHG  3   8  -1  19   1  21  -1
M  END
> <i_i_glide_confnum>
1

> <i_i_glide_lignum>
1000

> <i_i_glide_posenum>
232

> <i_i_glide_rotatable_bonds>
6

> <i_m_Source_File_Index>
2559

> <b_m_subgroup_collapsed>
0

> <r_i_docking_score>
-4.0565

> <r_i_glide_ecoul>
-2.83206

> <r_i_glide_eff_state_penalty>
0

> <r_i_glide_einternal>
2.03195

> <r_i_glide_emodel>
-47.312

> <r_i_glide_energy>
-37.5364

> <r_i_glide_erotb>
0.235288

> <r_i_glide_esite>
-0.0484788

> <r_i_glide_evdw>
-34.7043

> <r_i_glide_gscore>
-4.0565

> <r_i_glide_hbond>
0

> <r_i_glide_ligand_efficiency>
-0.144875

> <r_i_glide_ligand_efficiency_ln>
-0.93636

> <r_i_glide_ligand_efficiency_sa>
-0.439926

> <r_i_glide_lipo>
-1.54044

> <r_i_glide_metal>
0

> <r_i_glide_rewards>
-0.542844

> <s_i_glide_gridfile>
wee1_glide-grid

> <s_m_Source_File>
wee1_decoys_glide_SP.sdf

> <s_m_Source_Path>
/Users/zhangxujun/Desktop

> <s_m_entry_id>
2834

> <s_m_entry_name>
wee1_decoys_glide_SP.2559

> <s_m_subgroup_title>
wee1_decoys_glide_SP

> <s_m_subgroupid>
wee1_decoys_glide_SP


$$$$
