ZINC20696775_2550
                    3D
 Schrodinger Suite 2024-2.
 55 58  0  0  1  0            999 V2000
    2.5134   51.2968   28.8817 C   0  0  0  0  0  0
    3.3925   52.5479   28.8719 C   0  0  0  0  0  0
    2.7060   53.7506   28.3997 N   0  0  0  0  0  0
    3.2570   54.9798   28.9729 C   0  0  0  0  0  0
    2.2247   56.1068   29.0593 C   0  0  0  0  0  0
    2.4726   53.6951   27.0015 C   0  0  0  0  0  0
    3.3257   54.2846   26.0594 C   0  0  0  0  0  0
    3.0863   54.1299   24.6929 C   0  0  0  0  0  0
    2.0206   53.3470   24.2269 C   0  0  0  0  0  0
    1.1579   52.7844   25.1804 C   0  0  0  0  0  0
    1.3720   52.9722   26.5404 C   0  0  0  0  0  0
    1.7681   53.1437   22.7101 C   0  0  1  0  0  0
    1.4509   54.1269   22.3610 H   0  0  0  0  0  0
    3.0156   52.7200   21.8655 C   0  0  2  0  0  0
    3.3644   51.7738   22.2864 H   0  0  0  0  0  0
    4.2495   53.6212   21.7458 C   0  0  0  0  0  0
    4.8340   53.1910   20.4112 C   0  0  0  0  0  0
    3.9418   52.4858   19.6937 C   0  0  0  0  0  0
    2.6147   52.4837   20.4108 C   0  0  1  0  0  0
    2.0286   53.2967   20.0002 H   0  0  0  0  0  0
    1.6601   51.3095   20.3686 C   0  0  0  0  0  0
    1.6610   50.3277   19.3697 C   0  0  0  0  0  0
    0.7033   49.3089   19.3798 C   0  0  0  0  0  0
   -0.2457   49.2531   20.4024 C   0  0  0  0  0  0
   -0.2585   50.2275   21.3965 C   0  0  0  0  0  0
    0.6668   51.2696   21.3665 C   0  0  0  0  0  0
    0.6424   52.2215   22.4132 N   0  0  0  0  0  0
    0.6519   48.0967   18.0690 S   0  0  0  0  0  0
   -0.0178   46.9083   18.6088 O   0  0  0  0  0  0
    0.1452   48.7782   16.8749 O   0  0  0  0  0  0
    2.3044   47.6551   17.7639 N   0  0  0  0  0  0
    3.1044   50.4967   29.2817 H   0  0  0  0  0  0
    2.2094   50.9648   27.8923 H   0  0  0  0  0  0
    1.6249   51.4214   29.5017 H   0  0  0  0  0  0
    3.7552   52.6921   29.8910 H   0  0  0  0  0  0
    4.2808   52.3684   28.2621 H   0  0  0  0  0  0
    3.5986   54.7921   29.9915 H   0  0  0  0  0  0
    4.1452   55.2967   28.4294 H   0  0  0  0  0  0
    2.6425   56.9574   29.5915 H   0  0  0  0  0  0
    1.9044   56.4495   28.0817 H   0  0  0  0  0  0
    1.3379   55.7875   29.6080 H   0  0  0  0  0  0
    4.1862   54.8557   26.3684 H   0  0  0  0  0  0
    3.7488   54.6353   24.0126 H   0  0  0  0  0  0
    0.3049   52.1898   24.8934 H   0  0  0  0  0  0
    0.6820   52.5306   27.2442 H   0  0  0  0  0  0
    3.9952   54.6821   21.7519 H   0  0  0  0  0  0
    4.9545   53.4308   22.5559 H   0  0  0  0  0  0
    5.8413   53.4363   20.1082 H   0  0  0  0  0  0
    4.0837   52.0967   18.6957 H   0  0  0  0  0  0
    2.3954   50.3688   18.5759 H   0  0  0  0  0  0
   -0.9850   48.4652   20.4220 H   0  0  0  0  0  0
   -0.9967   50.1743   22.1831 H   0  0  0  0  0  0
   -0.1356   52.2723   23.0521 H   0  0  0  0  0  0
    2.8843   48.3694   17.2817 H   0  0  0  0  0  0
    2.7906   47.2589   18.5686 H   0  0  0  0  0  0
  1  2  1  0  0  0
  1 32  1  0  0  0
  1 33  1  0  0  0
  1 34  1  0  0  0
  2  3  1  0  0  0
  2 35  1  0  0  0
  2 36  1  0  0  0
  3  4  1  0  0  0
  3  6  1  0  0  0
  4  5  1  0  0  0
  4 37  1  0  0  0
  4 38  1  0  0  0
  5 39  1  0  0  0
  5 40  1  0  0  0
  5 41  1  0  0  0
  6 11  2  0  0  0
  6  7  1  0  0  0
  7  8  2  0  0  0
  7 42  1  0  0  0
  8  9  1  0  0  0
  8 43  1  0  0  0
  9 10  2  0  0  0
  9 12  1  0  0  0
 10 11  1  0  0  0
 10 44  1  0  0  0
 11 45  1  0  0  0
 12 13  1  0  0  0
 12 27  1  0  0  0
 12 14  1  0  0  0
 14 15  1  0  0  0
 14 19  1  0  0  0
 14 16  1  0  0  0
 16 17  1  0  0  0
 16 46  1  0  0  0
 16 47  1  0  0  0
 17 18  2  0  0  0
 17 48  1  0  0  0
 18 19  1  0  0  0
 18 49  1  0  0  0
 19 20  1  0  0  0
 19 21  1  0  0  0
 21 26  2  0  0  0
 21 22  1  0  0  0
 22 23  2  0  0  0
 22 50  1  0  0  0
 23 24  1  0  0  0
 23 28  1  0  0  0
 24 25  2  0  0  0
 24 51  1  0  0  0
 25 26  1  0  0  0
 25 52  1  0  0  0
 26 27  1  0  0  0
 27 53  1  0  0  0
 28 29  2  0  0  0
 28 30  2  0  0  0
 28 31  1  0  0  0
 31 54  1  0  0  0
 31 55  1  0  0  0
M  END
> <i_i_glide_confnum>
7

> <i_i_glide_lignum>
2551

> <i_i_glide_posenum>
392

> <i_i_glide_rotatable_bonds>
5

> <i_m_Source_File_Index>
1844

> <b_m_subgroup_collapsed>
0

> <r_i_docking_score>
-3.97316

> <r_i_glide_ecoul>
-4.87266

> <r_i_glide_eff_state_penalty>
0

> <r_i_glide_einternal>
6.51194

> <r_i_glide_emodel>
-35.4271

> <r_i_glide_energy>
-33.7344

> <r_i_glide_erotb>
0.247741

> <r_i_glide_esite>
-0.150084

> <r_i_glide_evdw>
-28.8617

> <r_i_glide_gscore>
-3.97316

> <r_i_glide_hbond>
-0.16

> <r_i_glide_ligand_efficiency>
-0.141899

> <r_i_glide_ligand_efficiency_ln>
-0.917122

> <r_i_glide_ligand_efficiency_sa>
-0.430888

> <r_i_glide_lipo>
-2.37648

> <r_i_glide_metal>
0

> <r_i_glide_rewards>
0.639653

> <s_i_glide_gridfile>
wee1_glide-grid

> <s_m_Source_File>
wee1_decoys_glide_SP.sdf

> <s_m_Source_Path>
/Users/zhangxujun/Desktop

> <s_m_entry_id>
2119

> <s_m_entry_name>
wee1_decoys_glide_SP.1844

> <s_m_subgroup_title>
wee1_decoys_glide_SP

> <s_m_subgroupid>
wee1_decoys_glide_SP


$$$$
