ZINC63503229_5722
                    3D
 Schrodinger Suite 2024-2.
 71 75  0  0  1  0            999 V2000
    9.1358   52.5301   15.3939 C   0  0  0  0  0  0
    7.7958   52.8596   16.0256 C   0  0  0  0  0  0
    6.6046   52.5301   15.3681 C   0  0  0  0  0  0
    5.3743   52.8063   15.9669 C   0  0  0  0  0  0
    5.3349   53.3900   17.2323 C   0  0  0  0  0  0
    6.5170   53.7332   17.8811 C   0  0  0  0  0  0
    7.7488   53.4701   17.2828 C   0  0  0  0  0  0
    6.2222   54.4966   19.4349 S   0  0  0  0  0  0
    4.4269   54.2600   19.2818 C   0  0  1  0  0  0
    3.9771   55.2543   19.2882 H   0  0  0  0  0  0
    4.1914   53.6872   17.9656 N   0  0  0  0  0  0
    3.8169   53.4599   20.4430 C   0  0  0  0  0  0
    3.2581   52.1818   20.2965 C   0  0  0  0  0  0
    2.5395   51.6020   21.3463 C   0  0  0  0  0  0
    2.3688   52.2958   22.5488 C   0  0  0  0  0  0
    3.0137   53.5277   22.7257 C   0  0  0  0  0  0
    3.7331   54.0956   21.6835 C   0  0  0  0  0  0
    1.5974   51.6937   23.5676 N   0  0  0  0  0  0
    0.8747   52.3399   24.5141 C   0  0  0  0  0  0
    0.7040   53.5587   24.5396 O   0  0  0  0  0  0
    0.3147   51.4796   25.6833 C   0  0  1  0  0  0
    0.3941   50.4316   25.3785 H   0  0  0  0  0  0
    1.2112   51.5764   26.9673 C   0  0  0  0  0  0
    0.5827   52.2178   28.2036 C   0  0  0  0  0  0
    0.8294   53.3937   28.8109 C   0  0  0  0  0  0
    1.6829   54.5243   28.4112 C   0  0  0  0  0  0
    1.8093   55.6069   29.2057 C   0  0  0  0  0  0
    1.1046   55.6046   30.4818 C   0  0  0  0  0  0
    0.3443   54.5501   30.8821 C   0  0  0  0  0  0
    0.1883   53.4344   30.0538 C   0  0  0  0  0  0
   -0.4903   52.3302   30.2665 N   0  3  0  0  0  0
   -0.4178   51.4777   29.0700 C   0  0  0  0  0  0
   -1.1026   51.7468   25.9741 N   0  0  0  0  0  0
   -2.1360   51.1615   25.2671 C   0  0  0  0  0  0
   -2.0407   50.4614   24.2593 O   0  0  0  0  0  0
   -3.2844   51.5617   25.8341 O   0  0  0  0  0  0
   -4.4494   51.8151   25.0578 C   0  0  0  0  0  0
   -4.5205   53.3040   24.6334 C   0  0  0  0  0  0
   -4.5745   54.2514   25.8489 C   0  0  0  0  0  0
   -3.3770   53.7016   23.6827 C   0  0  0  0  0  0
    9.0675   51.6255   14.7864 H   0  0  0  0  0  0
    9.4752   53.3529   14.7635 H   0  0  0  0  0  0
    9.8908   52.3364   16.1582 H   0  0  0  0  0  0
    6.6294   52.0535   14.3990 H   0  0  0  0  0  0
    4.4618   52.5349   15.4582 H   0  0  0  0  0  0
    8.6659   53.7236   17.7950 H   0  0  0  0  0  0
    3.2399   53.5227   17.6716 H   0  0  0  0  0  0
    3.3427   51.6461   19.3589 H   0  0  0  0  0  0
    2.0860   50.6318   21.2027 H   0  0  0  0  0  0
    2.9512   54.0656   23.6606 H   0  0  0  0  0  0
    4.1824   55.0660   21.8190 H   0  0  0  0  0  0
    1.5746   50.6856   23.5694 H   0  0  0  0  0  0
    2.1480   52.0972   26.7637 H   0  0  0  0  0  0
    1.5029   50.5727   27.2814 H   0  0  0  0  0  0
    2.2056   54.5269   27.4640 H   0  0  0  0  0  0
    2.4234   56.4478   28.9151 H   0  0  0  0  0  0
    1.2179   56.4561   31.1424 H   0  0  0  0  0  0
   -0.1249   54.5848   31.8543 H   0  0  0  0  0  0
   -0.0831   50.4968   29.3674 H   0  0  0  0  0  0
   -1.4201   51.3955   28.6456 H   0  0  0  0  0  0
   -1.3321   52.4118   26.6945 H   0  0  0  0  0  0
   -4.5093   51.1592   24.1855 H   0  0  0  0  0  0
   -5.3194   51.5757   25.6704 H   0  0  0  0  0  0
   -5.4547   53.4294   24.0825 H   0  0  0  0  0  0
   -3.6923   54.1419   26.4801 H   0  0  0  0  0  0
   -4.6108   55.2961   25.5409 H   0  0  0  0  0  0
   -5.4521   54.0579   26.4683 H   0  0  0  0  0  0
   -2.4101   53.6964   24.1799 H   0  0  0  0  0  0
   -3.2952   53.0121   22.8436 H   0  0  0  0  0  0
   -3.5435   54.7035   23.2916 H   0  0  0  0  0  0
   -1.0073   52.0956   31.1192 H   0  0  0  0  0  0
  1  2  1  0  0  0
  1 41  1  0  0  0
  1 42  1  0  0  0
  1 43  1  0  0  0
  2  7  2  0  0  0
  2  3  1  0  0  0
  3  4  2  0  0  0
  3 44  1  0  0  0
  4  5  1  0  0  0
  4 45  1  0  0  0
  5 11  1  0  0  0
  5  6  2  0  0  0
  6  7  1  0  0  0
  6  8  1  0  0  0
  7 46  1  0  0  0
  8  9  1  0  0  0
  9 10  1  0  0  0
  9 11  1  0  0  0
  9 12  1  0  0  0
 11 47  1  0  0  0
 12 17  2  0  0  0
 12 13  1  0  0  0
 13 14  2  0  0  0
 13 48  1  0  0  0
 14 15  1  0  0  0
 14 49  1  0  0  0
 15 16  2  0  0  0
 15 18  1  0  0  0
 16 17  1  0  0  0
 16 50  1  0  0  0
 17 51  1  0  0  0
 18 19  1  0  0  0
 18 52  1  0  0  0
 19 20  2  0  0  0
 19 21  1  0  0  0
 21 22  1  0  0  0
 21 23  1  0  0  0
 21 33  1  0  0  0
 23 24  1  0  0  0
 23 53  1  0  0  0
 23 54  1  0  0  0
 24 32  1  0  0  0
 24 25  2  0  0  0
 25 30  1  0  0  0
 25 26  1  0  0  0
 26 27  2  0  0  0
 26 55  1  0  0  0
 27 28  1  0  0  0
 27 56  1  0  0  0
 28 29  2  0  0  0
 28 57  1  0  0  0
 29 30  1  0  0  0
 29 58  1  0  0  0
 30 31  2  0  0  0
 31 32  1  0  0  0
 31 71  1  0  0  0
 32 59  1  0  0  0
 32 60  1  0  0  0
 33 34  1  0  0  0
 33 61  1  0  0  0
 34 35  2  0  0  0
 34 36  1  0  0  0
 36 37  1  0  0  0
 37 38  1  0  0  0
 37 62  1  0  0  0
 37 63  1  0  0  0
 38 39  1  0  0  0
 38 40  1  0  0  0
 38 64  1  0  0  0
 39 65  1  0  0  0
 39 66  1  0  0  0
 39 67  1  0  0  0
 40 68  1  0  0  0
 40 69  1  0  0  0
 40 70  1  0  0  0
M  CHG  1  31   1
M  END
> <i_i_glide_confnum>
288

> <i_i_glide_lignum>
5723

> <i_i_glide_posenum>
264

> <i_i_glide_rotatable_bonds>
11

> <i_m_Source_File_Index>
2812

> <b_m_subgroup_collapsed>
0

> <r_i_docking_score>
-4.46703

> <r_i_glide_ecoul>
-2.69852

> <r_i_glide_eff_state_penalty>
0

> <r_i_glide_einternal>
12.2475

> <r_i_glide_emodel>
-54.4218

> <r_i_glide_energy>
-46.9245

> <r_i_glide_erotb>
0.661126

> <r_i_glide_esite>
-0.145916

> <r_i_glide_evdw>
-44.226

> <r_i_glide_gscore>
-4.46703

> <r_i_glide_hbond>
-0.164415

> <r_i_glide_ligand_efficiency>
-0.117553

> <r_i_glide_ligand_efficiency_ln>
-0.963223

> <r_i_glide_ligand_efficiency_sa>
-0.395212

> <r_i_glide_lipo>
-2.35056

> <r_i_glide_metal>
0

> <r_i_glide_rewards>
0.148815

> <s_i_glide_gridfile>
wee1_glide-grid

> <s_m_Source_File>
wee1_decoys_glide_SP.sdf

> <s_m_Source_Path>
/Users/zhangxujun/Desktop

> <s_m_entry_id>
3087

> <s_m_entry_name>
wee1_decoys_glide_SP.2812

> <s_m_subgroup_title>
wee1_decoys_glide_SP

> <s_m_subgroupid>
wee1_decoys_glide_SP


$$$$
