ZINC08880886_1078
                    3D
 Schrodinger Suite 2024-2.
 69 72  0  0  1  0            999 V2000
    6.1767   52.5808   14.6054 C   0  0  0  0  0  0
    4.6535   52.6360   14.8036 C   0  0  0  0  0  0
    4.2896   52.4967   16.3013 N   0  3  2  0  0  0
    2.7790   52.2149   16.4620 C   0  0  0  0  0  0
    2.4966   51.7520   17.9124 C   0  0  0  0  0  0
    3.3198   52.5244   18.9536 C   0  0  0  0  0  0
    4.3136   53.4241   18.5434 C   0  0  0  0  0  0
    5.1086   54.1746   19.8635 S   0  0  0  0  0  0
    4.1436   53.2675   20.9906 C   0  0  0  0  0  0
    3.2022   52.4111   20.3705 C   0  0  0  0  0  0
    2.2368   51.5103   21.0535 C   0  0  0  0  0  0
    1.4589   50.7612   20.4584 O   0  0  0  0  0  0
    2.3039   51.5950   22.4083 O   0  0  0  0  0  0
    1.4838   50.7765   23.2327 C   0  0  0  0  0  0
    4.2699   53.4654   22.3573 N   0  0  0  0  0  0
    5.2307   54.0972   23.0631 C   0  0  0  0  0  0
    6.3030   54.4986   22.6088 O   0  0  0  0  0  0
    4.9086   54.2387   24.5300 C   0  0  0  0  0  0
    3.5744   54.3460   24.9527 C   0  0  0  0  0  0
    3.2731   54.4709   26.2978 C   0  0  0  0  0  0
    4.2935   54.4968   27.2370 C   0  0  0  0  0  0
    5.6291   54.4033   26.8384 C   0  0  0  0  0  0
    5.9354   54.2807   25.4843 C   0  0  0  0  0  0
    3.8527   54.7002   28.9529 S   0  0  0  0  0  0
    5.1045   54.8967   29.6817 O   0  0  0  0  0  0
    2.7769   55.6967   29.0221 O   0  0  0  0  0  0
    3.1874   53.1586   29.4702 N   0  0  0  0  0  0
    4.1408   52.0350   29.5576 C   0  0  0  0  0  0
    1.7636   52.8985   29.1247 C   0  0  0  0  0  0
    1.6071   51.9292   27.9338 C   0  0  0  0  0  0
    0.1226   51.9488   27.5212 C   0  0  0  0  0  0
   -0.7870   51.5603   28.7153 C   0  0  0  0  0  0
   -0.4560   52.2679   30.0584 C   0  0  0  0  0  0
    1.0612   52.2987   30.3457 C   0  0  0  0  0  0
    4.6664   53.7567   17.1078 C   0  0  0  0  0  0
    6.4229   52.5317   13.5437 H   0  0  0  0  0  0
    6.6093   51.6977   15.0776 H   0  0  0  0  0  0
    6.6825   53.4587   15.0044 H   0  0  0  0  0  0
    4.1984   53.5591   14.4394 H   0  0  0  0  0  0
    4.1884   51.7825   14.3069 H   0  0  0  0  0  0
    2.2499   53.1290   16.1881 H   0  0  0  0  0  0
    2.5122   51.4128   15.7711 H   0  0  0  0  0  0
    1.4266   51.8294   18.1074 H   0  0  0  0  0  0
    2.7489   50.6936   17.9987 H   0  0  0  0  0  0
    1.6300   51.0362   24.2809 H   0  0  0  0  0  0
    0.4266   50.9124   22.9975 H   0  0  0  0  0  0
    1.7342   49.7218   23.1061 H   0  0  0  0  0  0
    3.5812   52.9619   22.8989 H   0  0  0  0  0  0
    2.7520   54.3361   24.2509 H   0  0  0  0  0  0
    2.2405   54.4969   26.6114 H   0  0  0  0  0  0
    6.4256   54.4341   27.5691 H   0  0  0  0  0  0
    6.9710   54.2059   25.1803 H   0  0  0  0  0  0
    3.7253   51.2339   30.1562 H   0  0  0  0  0  0
    4.3695   51.6968   28.5516 H   0  0  0  0  0  0
    5.0754   52.3632   30.0062 H   0  0  0  0  0  0
    1.2440   53.8332   28.9049 H   0  0  0  0  0  0
    2.2429   52.1938   27.0926 H   0  0  0  0  0  0
    1.8890   50.9117   28.2132 H   0  0  0  0  0  0
   -0.1534   52.9391   27.1598 H   0  0  0  0  0  0
   -0.0458   51.2612   26.6910 H   0  0  0  0  0  0
   -1.8380   51.6976   28.4590 H   0  0  0  0  0  0
   -0.6660   50.4967   28.8689 H   0  0  0  0  0  0
   -0.8425   53.2874   30.0411 H   0  0  0  0  0  0
   -0.9730   51.7625   30.8761 H   0  0  0  0  0  0
    1.4539   51.2990   30.5307 H   0  0  0  0  0  0
    1.2559   52.8857   31.2448 H   0  0  0  0  0  0
    5.7368   53.9094   16.9766 H   0  0  0  0  0  0
    4.1202   54.6123   16.7083 H   0  0  0  0  0  0
    4.7775   51.6826   16.6714 H   0  0  0  0  0  0
  1  2  1  0  0  0
  1 36  1  0  0  0
  1 37  1  0  0  0
  1 38  1  0  0  0
  2  3  1  0  0  0
  2 39  1  0  0  0
  2 40  1  0  0  0
  3 35  1  0  0  0
  3  4  1  0  0  0
  3 69  1  0  0  0
  4  5  1  0  0  0
  4 41  1  0  0  0
  4 42  1  0  0  0
  5  6  1  0  0  0
  5 43  1  0  0  0
  5 44  1  0  0  0
  6 10  1  0  0  0
  6  7  2  0  0  0
  7  8  1  0  0  0
  7 35  1  0  0  0
  8  9  1  0  0  0
  9 10  2  0  0  0
  9 15  1  0  0  0
 10 11  1  0  0  0
 11 12  2  0  0  0
 11 13  1  0  0  0
 13 14  1  0  0  0
 14 45  1  0  0  0
 14 46  1  0  0  0
 14 47  1  0  0  0
 15 16  1  0  0  0
 15 48  1  0  0  0
 16 17  2  0  0  0
 16 18  1  0  0  0
 18 23  2  0  0  0
 18 19  1  0  0  0
 19 20  2  0  0  0
 19 49  1  0  0  0
 20 21  1  0  0  0
 20 50  1  0  0  0
 21 22  2  0  0  0
 21 24  1  0  0  0
 22 23  1  0  0  0
 22 51  1  0  0  0
 23 52  1  0  0  0
 24 25  2  0  0  0
 24 26  2  0  0  0
 24 27  1  0  0  0
 27 28  1  0  0  0
 27 29  1  0  0  0
 28 53  1  0  0  0
 28 54  1  0  0  0
 28 55  1  0  0  0
 29 34  1  0  0  0
 29 30  1  0  0  0
 29 56  1  0  0  0
 30 31  1  0  0  0
 30 57  1  0  0  0
 30 58  1  0  0  0
 31 32  1  0  0  0
 31 59  1  0  0  0
 31 60  1  0  0  0
 32 33  1  0  0  0
 32 61  1  0  0  0
 32 62  1  0  0  0
 33 34  1  0  0  0
 33 63  1  0  0  0
 33 64  1  0  0  0
 34 65  1  0  0  0
 34 66  1  0  0  0
 35 67  1  0  0  0
 35 68  1  0  0  0
M  CHG  1   3   1
M  END
> <i_i_glide_confnum>
223

> <i_i_glide_lignum>
1079

> <i_i_glide_posenum>
317

> <i_i_glide_rotatable_bonds>
9

> <i_m_Source_File_Index>
5269

> <b_m_subgroup_collapsed>
0

> <r_i_docking_score>
-5.18463

> <r_i_glide_ecoul>
-0.856395

> <r_i_glide_eff_state_penalty>
0

> <r_i_glide_einternal>
2.61903

> <r_i_glide_emodel>
-60.3254

> <r_i_glide_energy>
-45.7018

> <r_i_glide_erotb>
0.530659

> <r_i_glide_esite>
-0.0786267

> <r_i_glide_evdw>
-44.8454

> <r_i_glide_gscore>
-5.18463

> <r_i_glide_hbond>
-0.199628

> <r_i_glide_ligand_efficiency>
-0.148132

> <r_i_glide_ligand_efficiency_ln>
-1.13814

> <r_i_glide_ligand_efficiency_sa>
-0.484551

> <r_i_glide_lipo>
-2.1906

> <r_i_glide_metal>
0

> <r_i_glide_rewards>
-0.875713

> <s_i_glide_gridfile>
wee1_glide-grid

> <s_m_Source_File>
wee1_decoys_glide_SP.sdf

> <s_m_Source_Path>
/Users/zhangxujun/Desktop

> <s_m_entry_id>
5544

> <s_m_entry_name>
wee1_decoys_glide_SP.5269

> <s_m_subgroup_title>
wee1_decoys_glide_SP

> <s_m_subgroupid>
wee1_decoys_glide_SP


$$$$
