ZINC65058694_5875
                    3D
 Schrodinger Suite 2024-2.
 57 59  0  0  1  0            999 V2000
    1.1212   50.1846   23.1845 C   0  0  0  0  0  0
    0.0125   49.1573   23.3766 C   0  0  0  0  0  0
   -0.7024   48.7083   22.2611 C   0  0  0  0  0  0
   -1.7073   47.7510   22.4033 C   0  0  0  0  0  0
   -2.0077   47.2363   23.6631 C   0  0  0  0  0  0
   -1.3045   47.6810   24.7802 C   0  0  0  0  0  0
   -0.3086   48.6553   24.6505 C   0  0  0  0  0  0
    0.4229   49.1180   25.9004 C   0  0  0  0  0  0
   -0.1051   50.3894   26.3679 N   0  0  0  0  0  0
    0.4765   51.1800   27.2815 C   0  0  0  0  0  0
    1.5809   50.9012   27.7321 O   0  0  0  0  0  0
   -0.3107   52.4293   27.8090 C   0  0  1  0  0  0
   -0.6963   52.1275   29.2941 C   0  0  0  0  0  0
    0.4815   52.1446   30.2877 C   0  0  0  0  0  0
    1.3011   53.4463   30.2048 C   0  0  0  0  0  0
    1.7196   53.5792   28.8005 N   0  0  0  0  0  0
    0.6171   53.6896   27.8064 C   0  0  0  0  0  0
    3.0104   53.8763   28.5007 C   0  0  0  0  0  0
    3.8251   54.2498   29.3484 O   0  0  0  0  0  0
    3.2895   53.7120   27.1903 N   0  0  0  0  0  0
    4.4294   54.0369   26.4514 C   0  0  0  0  0  0
    5.6936   54.1672   27.0399 C   0  0  0  0  0  0
    6.8002   54.4530   26.2520 C   0  0  0  0  0  0
    6.6560   54.6327   24.8778 C   0  0  0  0  0  0
    5.4059   54.4967   24.2844 C   0  0  0  0  0  0
    4.2843   54.1908   25.0578 C   0  0  0  0  0  0
    2.9457   54.0095   24.3447 C   0  0  0  0  0  0
   -1.5523   52.6792   26.8781 C   0  0  0  0  0  0
    0.9380   51.0614   23.8060 H   0  0  0  0  0  0
    2.0815   49.7619   23.4842 H   0  0  0  0  0  0
    1.2019   50.5201   22.1490 H   0  0  0  0  0  0
   -0.4736   49.0911   21.2775 H   0  0  0  0  0  0
   -2.2489   47.4063   21.5355 H   0  0  0  0  0  0
   -2.7863   46.4971   23.7764 H   0  0  0  0  0  0
   -1.5453   47.2888   25.7603 H   0  0  0  0  0  0
    0.2472   48.4318   26.7225 H   0  0  0  0  0  0
    1.5041   49.1152   25.7453 H   0  0  0  0  0  0
   -1.0871   50.5341   26.2004 H   0  0  0  0  0  0
   -1.2956   52.9426   29.6680 H   0  0  0  0  0  0
   -1.3019   51.2240   29.3940 H   0  0  0  0  0  0
    0.1041   52.0186   31.3036 H   0  0  0  0  0  0
    1.1401   51.2976   30.1058 H   0  0  0  0  0  0
    0.6916   54.3065   30.4872 H   0  0  0  0  0  0
    2.1489   53.3520   30.8816 H   0  0  0  0  0  0
    0.9592   53.9034   26.7977 H   0  0  0  0  0  0
    0.0232   54.5504   28.1090 H   0  0  0  0  0  0
    2.5237   53.3782   26.6289 H   0  0  0  0  0  0
    5.8493   54.0138   28.0968 H   0  0  0  0  0  0
    7.7679   54.4974   26.7240 H   0  0  0  0  0  0
    7.5045   54.8574   24.2556 H   0  0  0  0  0  0
    5.3147   54.6169   23.2149 H   0  0  0  0  0  0
    3.0786   53.8408   23.2750 H   0  0  0  0  0  0
    2.4139   53.1360   24.7264 H   0  0  0  0  0  0
    2.3106   54.8854   24.4827 H   0  0  0  0  0  0
   -1.9384   53.6966   26.8817 H   0  0  0  0  0  0
   -1.3201   52.5276   25.8235 H   0  0  0  0  0  0
   -2.3799   52.0122   27.1280 H   0  0  0  0  0  0
  1  2  1  0  0  0
  1 29  1  0  0  0
  1 30  1  0  0  0
  1 31  1  0  0  0
  2  7  2  0  0  0
  2  3  1  0  0  0
  3  4  2  0  0  0
  3 32  1  0  0  0
  4  5  1  0  0  0
  4 33  1  0  0  0
  5  6  2  0  0  0
  5 34  1  0  0  0
  6  7  1  0  0  0
  6 35  1  0  0  0
  7  8  1  0  0  0
  8  9  1  0  0  0
  8 36  1  0  0  0
  8 37  1  0  0  0
  9 10  1  0  0  0
  9 38  1  0  0  0
 10 11  2  0  0  0
 10 12  1  0  0  0
 12 17  1  0  0  0
 12 13  1  0  0  0
 12 28  1  0  0  0
 13 14  1  0  0  0
 13 39  1  0  0  0
 13 40  1  0  0  0
 14 15  1  0  0  0
 14 41  1  0  0  0
 14 42  1  0  0  0
 15 16  1  0  0  0
 15 43  1  0  0  0
 15 44  1  0  0  0
 16 17  1  0  0  0
 16 18  1  0  0  0
 17 45  1  0  0  0
 17 46  1  0  0  0
 18 19  2  0  0  0
 18 20  1  0  0  0
 20 21  1  0  0  0
 20 47  1  0  0  0
 21 26  2  0  0  0
 21 22  1  0  0  0
 22 23  2  0  0  0
 22 48  1  0  0  0
 23 24  1  0  0  0
 23 49  1  0  0  0
 24 25  2  0  0  0
 24 50  1  0  0  0
 25 26  1  0  0  0
 25 51  1  0  0  0
 26 27  1  0  0  0
 27 52  1  0  0  0
 27 53  1  0  0  0
 27 54  1  0  0  0
 28 55  1  0  0  0
 28 56  1  0  0  0
 28 57  1  0  0  0
M  END
> <i_i_glide_confnum>
183

> <i_i_glide_lignum>
5876

> <i_i_glide_posenum>
248

> <i_i_glide_rotatable_bonds>
7

> <i_m_Source_File_Index>
4469

> <b_m_subgroup_collapsed>
0

> <r_i_docking_score>
-5.00721

> <r_i_glide_ecoul>
-3.03554

> <r_i_glide_eff_state_penalty>
0

> <r_i_glide_einternal>
11.3787

> <r_i_glide_emodel>
-45.1725

> <r_i_glide_energy>
-39.4473

> <r_i_glide_erotb>
0.942483

> <r_i_glide_esite>
-0.0959198

> <r_i_glide_evdw>
-36.4118

> <r_i_glide_gscore>
-5.00721

> <r_i_glide_hbond>
0

> <r_i_glide_ligand_efficiency>
-0.178829

> <r_i_glide_ligand_efficiency_ln>
-1.15581

> <r_i_glide_ligand_efficiency_sa>
-0.54303

> <r_i_glide_lipo>
-2.18117

> <r_i_glide_metal>
0

> <r_i_glide_rewards>
-1.39668

> <s_i_glide_gridfile>
wee1_glide-grid

> <s_m_Source_File>
wee1_decoys_glide_SP.sdf

> <s_m_Source_Path>
/Users/zhangxujun/Desktop

> <s_m_entry_id>
4744

> <s_m_entry_name>
wee1_decoys_glide_SP.4469

> <s_m_subgroup_title>
wee1_decoys_glide_SP

> <s_m_subgroupid>
wee1_decoys_glide_SP


$$$$
