ZINC03299182_6083
                    3D
 Schrodinger Suite 2024-2.
 46 49  0  0  1  0            999 V2000
    6.3048   54.9396   22.0717 C   0  0  0  0  0  0
    7.1024   55.2967   20.9860 C   0  0  0  0  0  0
    6.6553   55.1062   19.6769 C   0  0  0  0  0  0
    5.3850   54.5439   19.4510 C   0  0  0  0  0  0
    4.5783   54.2448   20.5501 C   0  0  0  0  0  0
    5.0146   54.4234   21.8680 C   0  0  0  0  0  0
    4.0703   54.0965   23.0081 C   0  0  0  0  0  0
    2.9213   53.7268   22.7614 O   0  0  0  0  0  0
    4.5758   54.2269   24.2546 N   0  0  0  0  0  0
    3.9319   54.0375   25.4781 C   0  0  0  0  0  0
    4.5558   54.0853   26.7362 C   0  0  0  0  0  0
    3.6396   53.8695   27.7755 C   0  0  0  0  0  0
    2.3569   53.6383   27.3415 C   0  0  0  0  0  0
    2.2140   53.6942   25.6254 S   0  0  0  0  0  0
    1.3944   53.3730   28.4657 C   0  0  0  0  0  0
    2.3654   53.1419   29.6361 C   0  0  0  0  0  0
    3.6838   53.8550   29.2824 C   0  0  0  0  0  0
    5.9755   54.3159   26.9509 C   0  0  0  0  0  0
    7.1042   54.4965   27.1129 N   0  0  0  0  0  0
    4.6723   54.2619   17.8145 S   0  0  0  0  0  0
    3.6244   55.2736   17.6468 O   0  0  0  0  0  0
    5.7630   54.1407   16.8428 O   0  0  0  0  0  0
    3.9043   52.6524   17.8410 N   0  0  0  0  0  0
    2.6821   52.3837   18.4697 C   0  0  0  0  0  0
    2.7059   51.5754   19.6107 C   0  0  0  0  0  0
    1.5294   51.2665   20.2894 C   0  0  0  0  0  0
    0.3080   51.7327   19.8063 C   0  0  0  0  0  0
    0.2673   52.4955   18.6389 C   0  0  0  0  0  0
    1.4449   52.8150   17.9595 C   0  0  0  0  0  0
    1.3135   53.6889   16.4716 Cl  0  0  0  0  0  0
    1.5901   50.3097   21.7248 Cl  0  0  0  0  0  0
    7.7128   55.6095   18.4051 Cl  0  0  0  0  0  0
    6.7068   55.1069   23.0605 H   0  0  0  0  0  0
    8.0861   55.7080   21.1636 H   0  0  0  0  0  0
    3.5716   53.9011   20.3744 H   0  0  0  0  0  0
    5.5592   54.4343   24.3189 H   0  0  0  0  0  0
    0.7722   52.4919   28.3011 H   0  0  0  0  0  0
    0.7315   54.2203   28.6462 H   0  0  0  0  0  0
    2.5546   52.0713   29.7363 H   0  0  0  0  0  0
    1.9465   53.4737   30.5867 H   0  0  0  0  0  0
    3.6894   54.8698   29.6819 H   0  0  0  0  0  0
    4.5532   53.3328   29.6827 H   0  0  0  0  0  0
    4.5503   51.8660   17.7752 H   0  0  0  0  0  0
    3.6475   51.2061   19.9902 H   0  0  0  0  0  0
   -0.6063   51.4909   20.3272 H   0  0  0  0  0  0
   -0.6822   52.8308   18.2496 H   0  0  0  0  0  0
  1  6  2  0  0  0
  1  2  1  0  0  0
  1 33  1  0  0  0
  2  3  2  0  0  0
  2 34  1  0  0  0
  3  4  1  0  0  0
  3 32  1  0  0  0
  4  5  2  0  0  0
  4 20  1  0  0  0
  5  6  1  0  0  0
  5 35  1  0  0  0
  6  7  1  0  0  0
  7  8  2  0  0  0
  7  9  1  0  0  0
  9 10  1  0  0  0
  9 36  1  0  0  0
 10 14  1  0  0  0
 10 11  2  0  0  0
 11 12  1  0  0  0
 11 18  1  0  0  0
 12 17  1  0  0  0
 12 13  2  0  0  0
 13 14  1  0  0  0
 13 15  1  0  0  0
 15 16  1  0  0  0
 15 37  1  0  0  0
 15 38  1  0  0  0
 16 17  1  0  0  0
 16 39  1  0  0  0
 16 40  1  0  0  0
 17 41  1  0  0  0
 17 42  1  0  0  0
 18 19  3  0  0  0
 20 21  2  0  0  0
 20 22  2  0  0  0
 20 23  1  0  0  0
 23 24  1  0  0  0
 23 43  1  0  0  0
 24 29  2  0  0  0
 24 25  1  0  0  0
 25 26  2  0  0  0
 25 44  1  0  0  0
 26 27  1  0  0  0
 26 31  1  0  0  0
 27 28  2  0  0  0
 27 45  1  0  0  0
 28 29  1  0  0  0
 28 46  1  0  0  0
 29 30  1  0  0  0
M  END
> <i_i_glide_confnum>
53

> <i_i_glide_lignum>
6084

> <i_i_glide_posenum>
315

> <i_i_glide_rotatable_bonds>
7

> <i_m_Source_File_Index>
674

> <b_m_subgroup_collapsed>
0

> <r_i_docking_score>
-4.93008

> <r_i_glide_ecoul>
-1.65264

> <r_i_glide_eff_state_penalty>
0

> <r_i_glide_einternal>
6.57498

> <r_i_glide_emodel>
-56.6067

> <r_i_glide_energy>
-46.5897

> <r_i_glide_erotb>
0.445118

> <r_i_glide_esite>
-0.100172

> <r_i_glide_evdw>
-44.9371

> <r_i_glide_gscore>
-4.93008

> <r_i_glide_hbond>
-0.29431

> <r_i_glide_ligand_efficiency>
-0.154065

> <r_i_glide_ligand_efficiency_ln>
-1.10398

> <r_i_glide_ligand_efficiency_sa>
-0.489126

> <r_i_glide_lipo>
-2.37193

> <r_i_glide_metal>
0

> <r_i_glide_rewards>
-0.114029

> <s_i_glide_gridfile>
wee1_glide-grid

> <s_m_Source_File>
wee1_decoys_glide_SP.sdf

> <s_m_Source_Path>
/Users/zhangxujun/Desktop

> <s_m_entry_id>
949

> <s_m_entry_name>
wee1_decoys_glide_SP.674

> <s_m_subgroup_title>
wee1_decoys_glide_SP

> <s_m_subgroupid>
wee1_decoys_glide_SP


$$$$
