ZINC03433559_2234
                    3D
 Schrodinger Suite 2024-2.
 51 53  0  0  1  0            999 V2000
   -2.8638   51.2119   27.2017 C   0  0  0  0  0  0
   -1.4532   51.6177   27.5842 C   0  0  0  0  0  0
   -1.1012   51.6964   28.9320 C   0  0  0  0  0  0
    0.1936   52.0457   29.2955 C   0  0  0  0  0  0
    1.1450   52.2994   28.3055 C   0  0  0  0  0  0
    0.7877   52.2417   26.9570 C   0  0  0  0  0  0
   -0.5125   51.9038   26.5950 C   0  0  0  0  0  0
    2.4683   52.6139   28.6365 N   0  0  0  0  0  0
    3.1684   51.6968   29.5262 C   0  0  0  0  0  0
    2.9756   54.3062   28.7302 S   0  0  0  0  0  0
    3.5062   54.4969   30.0815 O   0  0  0  0  0  0
    1.8922   55.1422   28.2013 O   0  0  0  0  0  0
    4.3421   54.4058   27.5956 C   0  0  0  0  0  0
    5.6569   54.4255   28.0584 C   0  0  0  0  0  0
    6.7055   54.4684   27.1459 C   0  0  0  0  0  0
    6.4499   54.4757   25.7746 C   0  0  0  0  0  0
    5.1290   54.4298   25.2947 C   0  0  0  0  0  0
    4.0821   54.4020   26.2261 C   0  0  0  0  0  0
    4.8042   54.4249   23.8178 C   0  0  0  0  0  0
    3.6280   54.4965   23.4448 O   0  0  0  0  0  0
    5.8543   54.3422   22.9730 N   0  0  0  0  0  0
    5.5969   54.3982   21.6039 N   0  0  0  0  0  0
    6.2975   55.2980   20.8770 C   0  0  0  0  0  0
    7.1051   56.0968   21.3612 O   0  0  0  0  0  0
    6.0482   55.2741   19.3853 C   0  0  0  0  0  0
    5.6544   54.0885   18.7358 C   0  0  0  0  0  0
    5.4197   54.0706   17.3624 C   0  0  0  0  0  0
    5.5751   55.2336   16.6122 C   0  0  0  0  0  0
    5.9723   56.4142   17.2370 C   0  0  0  0  0  0
    6.2146   56.4394   18.6108 C   0  0  0  0  0  0
    6.6118   57.6100   19.1678 F   0  0  0  0  0  0
   -3.5905   51.6869   27.8619 H   0  0  0  0  0  0
   -3.1102   51.5124   26.1830 H   0  0  0  0  0  0
   -2.9788   50.1307   27.2955 H   0  0  0  0  0  0
   -1.8212   51.4509   29.6984 H   0  0  0  0  0  0
    0.4538   52.0960   30.3429 H   0  0  0  0  0  0
    1.5186   52.4435   26.1877 H   0  0  0  0  0  0
   -0.7794   51.8459   25.5500 H   0  0  0  0  0  0
    2.9304   50.6662   29.2788 H   0  0  0  0  0  0
    4.2478   51.8269   29.4374 H   0  0  0  0  0  0
    2.8851   51.8804   30.5634 H   0  0  0  0  0  0
    5.8738   54.4242   29.1174 H   0  0  0  0  0  0
    7.7207   54.4956   27.5124 H   0  0  0  0  0  0
    7.2928   54.5116   25.0986 H   0  0  0  0  0  0
    3.0533   54.3725   25.8923 H   0  0  0  0  0  0
    6.6687   53.7902   23.1974 H   0  0  0  0  0  0
    5.3511   53.4974   21.2206 H   0  0  0  0  0  0
    5.5262   53.1597   19.2743 H   0  0  0  0  0  0
    5.1176   53.1490   16.8834 H   0  0  0  0  0  0
    5.3909   55.2192   15.5477 H   0  0  0  0  0  0
    6.0963   57.3171   16.6566 H   0  0  0  0  0  0
  1  2  1  0  0  0
  1 32  1  0  0  0
  1 33  1  0  0  0
  1 34  1  0  0  0
  2  7  2  0  0  0
  2  3  1  0  0  0
  3  4  2  0  0  0
  3 35  1  0  0  0
  4  5  1  0  0  0
  4 36  1  0  0  0
  5  6  2  0  0  0
  5  8  1  0  0  0
  6  7  1  0  0  0
  6 37  1  0  0  0
  7 38  1  0  0  0
  8  9  1  0  0  0
  8 10  1  0  0  0
  9 39  1  0  0  0
  9 40  1  0  0  0
  9 41  1  0  0  0
 10 11  2  0  0  0
 10 12  2  0  0  0
 10 13  1  0  0  0
 13 18  2  0  0  0
 13 14  1  0  0  0
 14 15  2  0  0  0
 14 42  1  0  0  0
 15 16  1  0  0  0
 15 43  1  0  0  0
 16 17  2  0  0  0
 16 44  1  0  0  0
 17 18  1  0  0  0
 17 19  1  0  0  0
 18 45  1  0  0  0
 19 20  2  0  0  0
 19 21  1  0  0  0
 21 22  1  0  0  0
 21 46  1  0  0  0
 22 23  1  0  0  0
 22 47  1  0  0  0
 23 24  2  0  0  0
 23 25  1  0  0  0
 25 30  2  0  0  0
 25 26  1  0  0  0
 26 27  2  0  0  0
 26 48  1  0  0  0
 27 28  1  0  0  0
 27 49  1  0  0  0
 28 29  2  0  0  0
 28 50  1  0  0  0
 29 30  1  0  0  0
 29 51  1  0  0  0
 30 31  1  0  0  0
M  END
> <i_i_glide_confnum>
154

> <i_i_glide_lignum>
2235

> <i_i_glide_posenum>
322

> <i_i_glide_rotatable_bonds>
8

> <i_m_Source_File_Index>
2039

> <b_m_subgroup_collapsed>
0

> <r_i_docking_score>
-5.39651

> <r_i_glide_ecoul>
-4.71009

> <r_i_glide_eff_state_penalty>
0

> <r_i_glide_einternal>
5.99928

> <r_i_glide_emodel>
-63.067

> <r_i_glide_energy>
-51.7088

> <r_i_glide_erotb>
0.717426

> <r_i_glide_esite>
-0.0954275

> <r_i_glide_evdw>
-46.9987

> <r_i_glide_gscore>
-5.39651

> <r_i_glide_hbond>
-0.06352

> <r_i_glide_ligand_efficiency>
-0.174081

> <r_i_glide_ligand_efficiency_ln>
-1.21708

> <r_i_glide_ligand_efficiency_sa>
-0.546855

> <r_i_glide_lipo>
-2.19529

> <r_i_glide_metal>
0

> <r_i_glide_rewards>
-0.703247

> <s_i_glide_gridfile>
wee1_glide-grid

> <s_m_Source_File>
wee1_decoys_glide_SP.sdf

> <s_m_Source_Path>
/Users/zhangxujun/Desktop

> <s_m_entry_id>
2314

> <s_m_entry_name>
wee1_decoys_glide_SP.2039

> <s_m_subgroup_title>
wee1_decoys_glide_SP

> <s_m_subgroupid>
wee1_decoys_glide_SP


$$$$
