ZINC39466934_5457
                    3D
 Schrodinger Suite 2024-2.
 65 69  0  0  1  0            999 V2000
    2.2790   52.1738   22.8756 C   0  0  0  0  0  0
    1.0114   52.8746   22.3691 C   0  0  0  0  0  0
   -0.0689   51.9536   22.1850 O   0  0  0  0  0  0
   -0.6732   51.4264   23.2837 C   0  0  0  0  0  0
   -1.0566   52.1809   24.3456 C   0  0  0  0  0  0
   -1.6869   51.5461   25.5973 C   0  0  2  0  0  0
   -2.7483   51.4247   25.3609 H   0  0  0  0  0  0
   -1.6131   52.3846   26.8802 C   0  0  0  0  0  0
   -0.1591   52.5618   27.3445 C   0  0  1  0  0  0
    0.4606   52.9071   26.5173 H   0  0  0  0  0  0
    0.0083   53.5290   28.5386 C   0  0  0  0  0  0
    1.3834   53.7198   28.8230 O   0  0  0  0  0  0
    2.2197   52.4496   29.3977 P   0  0  1  0  0  0
    1.8377   52.0976   30.7897 O   0  0  0  0  0  0
    1.7975   51.2960   28.2302 N   0  0  0  0  0  0
    0.4322   51.1755   27.6816 N   0  3  2  0  0  0
    0.3417   50.1970   26.4822 C   0  0  0  0  0  0
   -1.0689   50.1269   25.8302 C   0  0  2  0  0  0
   -1.7510   49.5838   26.4825 H   0  0  0  0  0  0
   -1.0274   49.3489   24.5142 C   0  0  0  0  0  0
   -0.8452   49.9767   23.3331 C   0  0  0  0  0  0
   -0.9427   49.0399   21.7995 S   0  0  0  0  0  0
   -1.2961   47.6453   22.0912 O   0  0  0  0  0  0
   -1.7043   49.8243   20.8199 O   0  0  0  0  0  0
    0.6764   49.0916   21.4050 O   0  0  0  0  0  0
    0.9742   48.9599   20.0787 C   0  0  0  0  0  0
    1.2424   50.1003   19.3240 C   0  0  0  0  0  0
    1.5048   49.9772   17.9637 C   0  0  0  0  0  0
    1.5039   48.7139   17.3743 C   0  0  0  0  0  0
    1.2495   47.5719   18.1279 C   0  0  0  0  0  0
    0.9796   47.6959   19.4867 C   0  0  0  0  0  0
    4.0112   52.8053   29.1676 C   0  0  0  0  0  0
    4.5036   53.5653   27.9390 C   0  0  0  0  0  0
    3.7361   53.7077   26.7763 C   0  0  0  0  0  0
    4.2516   54.3842   25.6734 C   0  0  0  0  0  0
    5.5383   54.9132   25.7292 C   0  0  0  0  0  0
    6.3062   54.7811   26.8833 C   0  0  0  0  0  0
    5.7897   54.1087   27.9848 C   0  0  0  0  0  0
    3.1252   52.8566   22.8744 H   0  0  0  0  0  0
    2.1467   51.8067   23.8916 H   0  0  0  0  0  0
    2.5334   51.3237   22.2414 H   0  0  0  0  0  0
    0.7474   53.7210   23.0038 H   0  0  0  0  0  0
    1.2196   53.2968   21.3864 H   0  0  0  0  0  0
   -0.9340   53.2538   24.3080 H   0  0  0  0  0  0
   -2.1031   53.3457   26.7207 H   0  0  0  0  0  0
   -2.1735   51.8711   27.6654 H   0  0  0  0  0  0
   -0.4169   54.4964   28.2912 H   0  0  0  0  0  0
   -0.5129   53.1715   29.4312 H   0  0  0  0  0  0
    2.5527   50.8237   27.7358 H   0  0  0  0  0  0
    1.0944   50.5246   25.7636 H   0  0  0  0  0  0
    0.6467   49.2219   26.8634 H   0  0  0  0  0  0
   -1.1660   48.2765   24.5368 H   0  0  0  0  0  0
    1.2406   51.0738   19.7918 H   0  0  0  0  0  0
    1.7310   50.8502   17.3686 H   0  0  0  0  0  0
    1.7427   48.6211   16.3250 H   0  0  0  0  0  0
    1.2688   46.5985   17.6610 H   0  0  0  0  0  0
    0.7649   46.8206   20.0788 H   0  0  0  0  0  0
    4.3043   53.3912   30.0392 H   0  0  0  0  0  0
    4.5705   51.8728   29.2496 H   0  0  0  0  0  0
    2.7454   53.2923   26.7060 H   0  0  0  0  0  0
    3.6597   54.4922   24.7768 H   0  0  0  0  0  0
    5.9400   55.4362   24.8725 H   0  0  0  0  0  0
    7.2987   55.1973   26.9383 H   0  0  0  0  0  0
    6.3965   54.0124   28.8755 H   0  0  0  0  0  0
   -0.1170   50.7786   28.4313 H   0  0  0  0  0  0
  1  2  1  0  0  0
  1 39  1  0  0  0
  1 40  1  0  0  0
  1 41  1  0  0  0
  2  3  1  0  0  0
  2 42  1  0  0  0
  2 43  1  0  0  0
  3  4  1  0  0  0
  4 21  1  0  0  0
  4  5  2  0  0  0
  5  6  1  0  0  0
  5 44  1  0  0  0
  6  7  1  0  0  0
  6 18  1  0  0  0
  6  8  1  0  0  0
  8  9  1  0  0  0
  8 45  1  0  0  0
  8 46  1  0  0  0
  9 10  1  0  0  0
  9 16  1  0  0  0
  9 11  1  0  0  0
 11 12  1  0  0  0
 11 47  1  0  0  0
 11 48  1  0  0  0
 12 13  1  0  0  0
 13 14  2  0  0  0
 13 15  1  0  0  0
 13 32  1  0  0  0
 15 16  1  0  0  0
 15 49  1  0  0  0
 16 17  1  0  0  0
 16 65  1  0  0  0
 17 18  1  0  0  0
 17 50  1  0  0  0
 17 51  1  0  0  0
 18 19  1  0  0  0
 18 20  1  0  0  0
 20 21  2  0  0  0
 20 52  1  0  0  0
 21 22  1  0  0  0
 22 23  2  0  0  0
 22 24  2  0  0  0
 22 25  1  0  0  0
 25 26  1  0  0  0
 26 31  2  0  0  0
 26 27  1  0  0  0
 27 28  2  0  0  0
 27 53  1  0  0  0
 28 29  1  0  0  0
 28 54  1  0  0  0
 29 30  2  0  0  0
 29 55  1  0  0  0
 30 31  1  0  0  0
 30 56  1  0  0  0
 31 57  1  0  0  0
 32 33  1  0  0  0
 32 58  1  0  0  0
 32 59  1  0  0  0
 33 38  2  0  0  0
 33 34  1  0  0  0
 34 35  2  0  0  0
 34 60  1  0  0  0
 35 36  1  0  0  0
 35 61  1  0  0  0
 36 37  2  0  0  0
 36 62  1  0  0  0
 37 38  1  0  0  0
 37 63  1  0  0  0
 38 64  1  0  0  0
M  CHG  1  16   1
M  END
> <i_i_glide_confnum>
89

> <i_i_glide_lignum>
5458

> <i_i_glide_posenum>
158

> <i_i_glide_rotatable_bonds>
7

> <i_m_Source_File_Index>
4934

> <b_m_subgroup_collapsed>
0

> <r_i_docking_score>
-4.60159

> <r_i_glide_ecoul>
-2.91627

> <r_i_glide_eff_state_penalty>
0

> <r_i_glide_einternal>
15.4034

> <r_i_glide_emodel>
-51.1366

> <r_i_glide_energy>
-45.9646

> <r_i_glide_erotb>
0.459923

> <r_i_glide_esite>
-0.034241

> <r_i_glide_evdw>
-43.0483

> <r_i_glide_gscore>
-4.60159

> <r_i_glide_hbond>
-0.178799

> <r_i_glide_ligand_efficiency>
-0.131474

> <r_i_glide_ligand_efficiency_ln>
-1.01015

> <r_i_glide_ligand_efficiency_sa>
-0.43006

> <r_i_glide_lipo>
-2.16255

> <r_i_glide_metal>
0

> <r_i_glide_rewards>
-0.0960672

> <s_i_glide_gridfile>
wee1_glide-grid

> <s_m_Source_File>
wee1_decoys_glide_SP.sdf

> <s_m_Source_Path>
/Users/zhangxujun/Desktop

> <s_m_entry_id>
5209

> <s_m_entry_name>
wee1_decoys_glide_SP.4934

> <s_m_subgroup_title>
wee1_decoys_glide_SP

> <s_m_subgroupid>
wee1_decoys_glide_SP


$$$$
