ZINC14472413_16
                    3D
 Schrodinger Suite 2024-2.
 56 60  0  0  1  0            999 V2000
    1.5470   49.3538   18.4327 C   0  0  0  0  0  0
    2.1152   49.8221   19.6149 C   0  0  0  0  0  0
    2.1880   51.1951   19.8655 C   0  0  0  0  0  0
    1.6854   52.0924   18.9135 C   0  0  0  0  0  0
    1.1023   51.6363   17.7220 C   0  0  0  0  0  0
    1.0479   50.2529   17.4919 C   0  0  0  0  0  0
    0.5503   52.5946   16.7341 N   0  3  0  0  0  0
    0.0965   52.1553   15.6812 O   0  0  0  0  0  0
    0.5485   53.7908   17.0133 O   0  5  0  0  0  0
    2.7590   51.6935   21.1930 C   0  0  2  0  0  0
    3.4960   50.9448   21.4915 H   0  0  0  0  0  0
    1.6631   51.7468   22.2927 C   0  0  2  0  0  0
    1.3938   50.7039   22.4813 H   0  0  0  0  0  0
    0.3487   52.4469   21.9470 C   0  0  0  0  0  0
   -0.1537   52.8968   23.3004 C   0  0  0  0  0  0
    0.8316   52.9042   24.2106 C   0  0  0  0  0  0
    2.1092   52.3381   23.6331 C   0  0  2  0  0  0
    2.4226   51.5176   24.2718 H   0  0  0  0  0  0
    3.3019   53.2968   23.5316 C   0  0  0  0  0  0
    3.8763   53.8126   24.6956 C   0  0  0  0  0  0
    5.1417   54.4247   24.7064 C   0  0  0  0  0  0
    5.8035   54.5900   23.4848 C   0  0  0  0  0  0
    5.2071   54.1666   22.2964 C   0  0  0  0  0  0
    3.9675   53.5221   22.3123 C   0  0  0  0  0  0
    3.5076   52.9506   21.1136 N   0  0  0  0  0  0
    5.7968   54.8502   26.0033 C   0  0  0  0  0  0
    6.7032   55.6888   26.0323 O   0  0  0  0  0  0
    5.3155   54.2377   27.1003 N   0  0  0  0  0  0
    5.5984   54.5648   28.4950 C   0  0  0  0  0  0
    4.4056   54.2945   29.4576 C   0  0  2  0  0  0
    4.7050   54.4970   30.4824 H   0  0  0  0  0  0
    3.7259   52.9225   29.3575 C   0  0  0  0  0  0
    2.4857   53.1240   28.5059 C   0  0  0  0  0  0
    2.3791   54.6374   28.3196 C   0  0  0  0  0  0
    3.3175   55.1923   29.2363 O   0  0  0  0  0  0
    1.5150   48.2928   18.2339 H   0  0  0  0  0  0
    2.5041   49.1145   20.3327 H   0  0  0  0  0  0
    1.7381   53.1539   19.1158 H   0  0  0  0  0  0
    0.6236   49.8643   16.5771 H   0  0  0  0  0  0
    0.5116   53.2925   21.2789 H   0  0  0  0  0  0
   -0.3427   51.7608   21.4564 H   0  0  0  0  0  0
   -1.1706   53.2244   23.4612 H   0  0  0  0  0  0
    0.7525   53.2204   25.2407 H   0  0  0  0  0  0
    3.3517   53.6256   25.6184 H   0  0  0  0  0  0
    6.7823   55.0499   23.4464 H   0  0  0  0  0  0
    5.7383   54.2996   21.3650 H   0  0  0  0  0  0
    4.0769   53.0238   20.2824 H   0  0  0  0  0  0
    4.7313   53.4285   26.9552 H   0  0  0  0  0  0
    5.9042   55.6072   28.5840 H   0  0  0  0  0  0
    6.4611   53.9772   28.8129 H   0  0  0  0  0  0
    3.4200   52.6087   30.3569 H   0  0  0  0  0  0
    4.3980   52.1403   29.0021 H   0  0  0  0  0  0
    1.6018   52.7301   29.0099 H   0  0  0  0  0  0
    2.5669   52.6093   27.5485 H   0  0  0  0  0  0
    1.3777   55.0186   28.5234 H   0  0  0  0  0  0
    2.6364   54.9498   27.3081 H   0  0  0  0  0  0
  1  6  2  0  0  0
  1  2  1  0  0  0
  1 36  1  0  0  0
  2  3  2  0  0  0
  2 37  1  0  0  0
  3  4  1  0  0  0
  3 10  1  0  0  0
  4  5  2  0  0  0
  4 38  1  0  0  0
  5  6  1  0  0  0
  5  7  1  0  0  0
  6 39  1  0  0  0
  7  8  2  0  0  0
  7  9  1  0  0  0
 10 11  1  0  0  0
 10 25  1  0  0  0
 10 12  1  0  0  0
 12 13  1  0  0  0
 12 17  1  0  0  0
 12 14  1  0  0  0
 14 15  1  0  0  0
 14 40  1  0  0  0
 14 41  1  0  0  0
 15 16  2  0  0  0
 15 42  1  0  0  0
 16 17  1  0  0  0
 16 43  1  0  0  0
 17 18  1  0  0  0
 17 19  1  0  0  0
 19 24  2  0  0  0
 19 20  1  0  0  0
 20 21  2  0  0  0
 20 44  1  0  0  0
 21 22  1  0  0  0
 21 26  1  0  0  0
 22 23  2  0  0  0
 22 45  1  0  0  0
 23 24  1  0  0  0
 23 46  1  0  0  0
 24 25  1  0  0  0
 25 47  1  0  0  0
 26 27  2  0  0  0
 26 28  1  0  0  0
 28 29  1  0  0  0
 28 48  1  0  0  0
 29 30  1  0  0  0
 29 49  1  0  0  0
 29 50  1  0  0  0
 30 31  1  0  0  0
 30 35  1  0  0  0
 30 32  1  0  0  0
 32 33  1  0  0  0
 32 51  1  0  0  0
 32 52  1  0  0  0
 33 34  1  0  0  0
 33 53  1  0  0  0
 33 54  1  0  0  0
 34 35  1  0  0  0
 34 55  1  0  0  0
 34 56  1  0  0  0
M  CHG  2   7   1   9  -1
M  END
> <i_i_glide_confnum>
55

> <i_i_glide_lignum>
17

> <i_i_glide_posenum>
152

> <i_i_glide_rotatable_bonds>
6

> <i_m_Source_File_Index>
3508

> <b_m_subgroup_collapsed>
0

> <r_i_docking_score>
-6.00909

> <r_i_glide_ecoul>
-4.76669

> <r_i_glide_eff_state_penalty>
0

> <r_i_glide_einternal>
10.3726

> <r_i_glide_emodel>
-51.6336

> <r_i_glide_energy>
-39.853

> <r_i_glide_erotb>
0.449737

> <r_i_glide_esite>
-0.0109059

> <r_i_glide_evdw>
-35.0863

> <r_i_glide_gscore>
-6.00909

> <r_i_glide_hbond>
-0.32

> <r_i_glide_ligand_efficiency>
-0.193842

> <r_i_glide_ligand_efficiency_ln>
-1.35523

> <r_i_glide_ligand_efficiency_sa>
-0.60893

> <r_i_glide_lipo>
-2.62216

> <r_i_glide_metal>
0

> <r_i_glide_rewards>
-1.03645

> <s_i_glide_gridfile>
wee1_glide-grid

> <s_m_Source_File>
wee1_decoys_glide_SP.sdf

> <s_m_Source_Path>
/Users/zhangxujun/Desktop

> <s_m_entry_id>
3783

> <s_m_entry_name>
wee1_decoys_glide_SP.3508

> <s_m_subgroup_title>
wee1_decoys_glide_SP

> <s_m_subgroupid>
wee1_decoys_glide_SP


$$$$
