ZINC43668769_3902
                    3D
 Schrodinger Suite 2024-2.
 33 34  0  0  1  0            999 V2000
    7.1253   53.5353   28.0937 C   0  0  0  0  0  0
    5.8072   53.7039   27.3891 C   0  0  0  0  0  0
    5.5629   54.1804   26.1008 C   0  0  0  0  0  0
    4.1904   54.1492   25.9548 C   0  0  0  0  0  0
    3.6888   53.6945   27.1621 N   0  0  0  0  0  0
    4.6921   53.3913   28.0039 N   0  0  0  0  0  0
    2.2715   53.6039   27.6211 C   0  0  1  0  0  0
    1.8328   54.5294   27.2480 H   0  0  0  0  0  0
    1.4394   52.4846   26.9633 C   0  0  0  0  0  0
    0.7842   51.3730   27.5180 C   0  0  0  0  0  0
    0.0721   50.5816   26.6104 C   0  0  0  0  0  0
    0.1490   51.0550   25.3216 C   0  0  0  0  0  0
    1.0883   52.4966   25.2457 S   0  0  0  0  0  0
    2.1120   53.7223   29.1871 C   0  0  0  0  0  0
    0.6645   54.0425   29.6016 C   0  0  0  0  0  0
    2.6885   52.5533   30.0322 C   0  0  0  0  0  0
    3.4251   54.4971   24.8829 N   0  0  0  0  0  0
    6.8459   54.7593   24.8193 Br  0  0  0  0  0  0
    7.9037   54.1292   27.6162 H   0  0  0  0  0  0
    7.0855   53.8581   29.1340 H   0  0  0  0  0  0
    7.4582   52.4977   28.0812 H   0  0  0  0  0  0
    0.7998   51.1318   28.5691 H   0  0  0  0  0  0
   -0.4871   49.6967   26.8817 H   0  0  0  0  0  0
   -0.3024   50.6410   24.4323 H   0  0  0  0  0  0
    2.6771   54.6090   29.4825 H   0  0  0  0  0  0
   -0.0183   53.2123   29.4218 H   0  0  0  0  0  0
    0.5988   54.2995   30.6598 H   0  0  0  0  0  0
    0.3045   54.8970   29.0360 H   0  0  0  0  0  0
    2.7299   51.6192   29.4751 H   0  0  0  0  0  0
    3.7090   52.7638   30.3541 H   0  0  0  0  0  0
    2.1119   52.3725   30.9412 H   0  0  0  0  0  0
    3.8507   54.8245   24.0276 H   0  0  0  0  0  0
    2.4441   54.2674   24.8393 H   0  0  0  0  0  0
  1  2  1  0  0  0
  1 19  1  0  0  0
  1 20  1  0  0  0
  1 21  1  0  0  0
  2  6  2  0  0  0
  2  3  1  0  0  0
  3  4  2  0  0  0
  3 18  1  0  0  0
  4  5  1  0  0  0
  4 17  1  0  0  0
  5  6  1  0  0  0
  5  7  1  0  0  0
  7  8  1  0  0  0
  7  9  1  0  0  0
  7 14  1  0  0  0
  9 13  1  0  0  0
  9 10  2  0  0  0
 10 11  1  0  0  0
 10 22  1  0  0  0
 11 12  2  0  0  0
 11 23  1  0  0  0
 12 13  1  0  0  0
 12 24  1  0  0  0
 14 15  1  0  0  0
 14 16  1  0  0  0
 14 25  1  0  0  0
 15 26  1  0  0  0
 15 27  1  0  0  0
 15 28  1  0  0  0
 16 29  1  0  0  0
 16 30  1  0  0  0
 16 31  1  0  0  0
 17 32  1  0  0  0
 17 33  1  0  0  0
M  END
> <i_i_glide_confnum>
4

> <i_i_glide_lignum>
3903

> <i_i_glide_posenum>
172

> <i_i_glide_rotatable_bonds>
3

> <i_m_Source_File_Index>
1854

> <b_m_subgroup_collapsed>
0

> <r_i_docking_score>
-5.01882

> <r_i_glide_ecoul>
-0.686845

> <r_i_glide_eff_state_penalty>
0

> <r_i_glide_einternal>
2.59254

> <r_i_glide_emodel>
-41.6084

> <r_i_glide_energy>
-32.7037

> <r_i_glide_erotb>
0.376417

> <r_i_glide_esite>
0

> <r_i_glide_evdw>
-32.0169

> <r_i_glide_gscore>
-5.01882

> <r_i_glide_hbond>
0

> <r_i_glide_ligand_efficiency>
-0.295224

> <r_i_glide_ligand_efficiency_ln>
-1.3093

> <r_i_glide_ligand_efficiency_sa>
-0.759105

> <r_i_glide_lipo>
-2.15122

> <r_i_glide_metal>
0

> <r_i_glide_rewards>
-1.54014

> <s_i_glide_gridfile>
wee1_glide-grid

> <s_m_Source_File>
wee1_decoys_glide_SP.sdf

> <s_m_Source_Path>
/Users/zhangxujun/Desktop

> <s_m_entry_id>
2129

> <s_m_entry_name>
wee1_decoys_glide_SP.1854

> <s_m_subgroup_title>
wee1_decoys_glide_SP

> <s_m_subgroupid>
wee1_decoys_glide_SP


$$$$
