ZINC58912918_4348
                    3D
 Schrodinger Suite 2024-2.
 47 49  0  0  1  0            999 V2000
   -0.9324   51.9353   26.0596 C   0  0  0  0  0  0
    0.4531   52.4967   25.7979 C   0  0  0  0  0  0
    1.1037   52.6723   24.5889 C   0  0  0  0  0  0
    2.3377   53.2965   24.7886 C   0  0  0  0  0  0
    2.4689   53.4166   26.1725 C   0  0  0  0  0  0
    1.2819   53.0170   26.7840 N   0  0  0  0  0  0
    0.9691   53.1789   28.1617 C   0  0  0  0  0  0
    1.2383   54.4090   28.7797 C   0  0  0  0  0  0
    1.0141   54.5738   30.1408 C   0  0  0  0  0  0
    0.4863   53.5215   30.8815 C   0  0  0  0  0  0
    0.1273   52.3289   30.2612 C   0  0  0  0  0  0
    0.3900   52.1423   28.9058 C   0  0  0  0  0  0
    0.3044   53.6973   32.7659 Br  0  0  0  0  0  0
    3.6699   53.9164   26.9700 C   0  0  0  0  0  0
    3.3104   53.7238   23.7881 C   0  0  0  0  0  0
    3.0785   53.6598   22.5322 N   0  0  0  0  0  0
    3.9935   54.0966   21.5871 N   0  0  0  0  0  0
    5.3009   54.4930   21.6920 C   0  0  0  0  0  0
    5.9728   54.4966   22.7276 O   0  0  0  0  0  0
    5.8958   54.9965   20.4268 C   0  0  0  0  0  0
    6.6680   55.9593   20.4465 O   0  0  0  0  0  0
    5.5552   54.2927   19.3167 N   0  0  0  0  0  0
    5.9306   54.5268   17.9818 C   0  0  0  0  0  0
    6.4006   55.7592   17.4992 C   0  0  0  0  0  0
    6.7348   55.8957   16.1542 C   0  0  0  0  0  0
    6.5965   54.8114   15.2913 C   0  0  0  0  0  0
    6.1197   53.5907   15.7600 C   0  0  0  0  0  0
    5.7819   53.4507   17.1030 C   0  0  0  0  0  0
    6.9223   54.9470   13.9865 F   0  0  0  0  0  0
   -1.5197   51.8769   25.1430 H   0  0  0  0  0  0
   -0.8948   50.9248   26.4674 H   0  0  0  0  0  0
   -1.5049   52.5505   26.7544 H   0  0  0  0  0  0
    0.6996   52.3994   23.6244 H   0  0  0  0  0  0
    1.6398   55.2383   28.2157 H   0  0  0  0  0  0
    1.2595   55.5088   30.6236 H   0  0  0  0  0  0
   -0.3351   51.5456   30.8443 H   0  0  0  0  0  0
    0.1563   51.1874   28.4567 H   0  0  0  0  0  0
    4.6105   53.6770   26.4735 H   0  0  0  0  0  0
    3.6528   54.9975   27.1036 H   0  0  0  0  0  0
    3.7410   53.4590   27.9574 H   0  0  0  0  0  0
    4.2150   54.1157   24.2386 H   0  0  0  0  0  0
    3.5887   54.0994   20.6614 H   0  0  0  0  0  0
    5.0148   53.4497   19.4431 H   0  0  0  0  0  0
    6.5008   56.6218   18.1398 H   0  0  0  0  0  0
    7.0957   56.8414   15.7784 H   0  0  0  0  0  0
    6.0112   52.7552   15.0842 H   0  0  0  0  0  0
    5.4121   52.4968   17.4517 H   0  0  0  0  0  0
  1  2  1  0  0  0
  1 30  1  0  0  0
  1 31  1  0  0  0
  1 32  1  0  0  0
  2  6  1  0  0  0
  2  3  2  0  0  0
  3  4  1  0  0  0
  3 33  1  0  0  0
  4  5  2  0  0  0
  4 15  1  0  0  0
  5  6  1  0  0  0
  5 14  1  0  0  0
  6  7  1  0  0  0
  7 12  2  0  0  0
  7  8  1  0  0  0
  8  9  2  0  0  0
  8 34  1  0  0  0
  9 10  1  0  0  0
  9 35  1  0  0  0
 10 11  2  0  0  0
 10 13  1  0  0  0
 11 12  1  0  0  0
 11 36  1  0  0  0
 12 37  1  0  0  0
 14 38  1  0  0  0
 14 39  1  0  0  0
 14 40  1  0  0  0
 15 16  2  0  0  0
 15 41  1  0  0  0
 16 17  1  0  0  0
 17 18  1  0  0  0
 17 42  1  0  0  0
 18 19  2  0  0  0
 18 20  1  0  0  0
 20 21  2  0  0  0
 20 22  1  0  0  0
 22 23  1  0  0  0
 22 43  1  0  0  0
 23 28  2  0  0  0
 23 24  1  0  0  0
 24 25  2  0  0  0
 24 44  1  0  0  0
 25 26  1  0  0  0
 25 45  1  0  0  0
 26 27  2  0  0  0
 26 29  1  0  0  0
 27 28  1  0  0  0
 27 46  1  0  0  0
 28 47  1  0  0  0
M  END
> <i_i_glide_confnum>
26

> <i_i_glide_lignum>
4349

> <i_i_glide_posenum>
282

> <i_i_glide_rotatable_bonds>
7

> <i_m_Source_File_Index>
4719

> <b_m_subgroup_collapsed>
0

> <r_i_docking_score>
-4.81218

> <r_i_glide_ecoul>
-3.37316

> <r_i_glide_eff_state_penalty>
0

> <r_i_glide_einternal>
1.97805

> <r_i_glide_emodel>
-56.661

> <r_i_glide_energy>
-44.4035

> <r_i_glide_erotb>
0.576812

> <r_i_glide_esite>
-0.00648013

> <r_i_glide_evdw>
-41.0303

> <r_i_glide_gscore>
-4.81218

> <r_i_glide_hbond>
0

> <r_i_glide_ligand_efficiency>
-0.165937

> <r_i_glide_ligand_efficiency_ln>
-1.10187

> <r_i_glide_ligand_efficiency_sa>
-0.509812

> <r_i_glide_lipo>
-1.63514

> <r_i_glide_metal>
0

> <r_i_glide_rewards>
-1.18989

> <s_i_glide_gridfile>
wee1_glide-grid

> <s_m_Source_File>
wee1_decoys_glide_SP.sdf

> <s_m_Source_Path>
/Users/zhangxujun/Desktop

> <s_m_entry_id>
4994

> <s_m_entry_name>
wee1_decoys_glide_SP.4719

> <s_m_subgroup_title>
wee1_decoys_glide_SP

> <s_m_subgroupid>
wee1_decoys_glide_SP


$$$$
