ZINC31688432_120
                    3D
 Schrodinger Suite 2024-2.
 51 53  0  0  1  0            999 V2000
    6.2509   53.5582   27.8512 C   0  0  0  0  0  0
    5.1415   54.4109   27.2060 C   0  0  2  0  0  0
    5.3781   55.4580   27.4000 H   0  0  0  0  0  0
    3.7894   54.1287   27.8725 C   0  0  0  0  0  0
    2.9499   53.1106   27.4068 C   0  0  0  0  0  0
    1.7538   52.8262   28.0584 C   0  0  0  0  0  0
    1.3802   53.5734   29.1761 C   0  0  0  0  0  0
    2.1826   54.6234   29.6173 C   0  0  0  0  0  0
    3.3866   54.8955   28.9712 C   0  0  0  0  0  0
   -0.0947   53.2029   30.0802 S   0  0  0  0  0  0
   -0.8343   51.6775   29.4249 C   0  0  0  0  0  0
    5.0979   54.2786   25.7440 N   0  0  0  0  0  0
    6.0625   54.6751   24.8904 C   0  0  0  0  0  0
    7.1043   55.2023   25.2817 O   0  0  0  0  0  0
    5.7934   54.4973   23.4077 C   0  0  0  0  0  0
    4.6807   53.7834   22.9315 C   0  0  0  0  0  0
    4.4042   53.7212   21.5686 C   0  0  0  0  0  0
    5.2174   54.3979   20.6593 C   0  0  0  0  0  0
    6.3264   55.1088   21.1185 C   0  0  0  0  0  0
    6.6319   55.1302   22.4774 C   0  0  0  0  0  0
    4.8031   54.3966   18.9099 S   0  0  0  0  0  0
    3.5017   53.7387   18.7713 O   0  0  0  0  0  0
    5.0243   55.7498   18.3895 O   0  0  0  0  0  0
    5.9341   53.2966   18.1121 N   0  0  0  0  0  0
    7.2587   53.5597   17.7400 C   0  0  0  0  0  0
    7.9862   52.4914   17.2030 C   0  0  0  0  0  0
    9.3363   52.6529   16.8818 C   0  0  0  0  0  0
    9.9239   53.8484   17.0928 N   0  3  0  0  0  0
    9.2637   54.9142   17.5874 C   0  0  0  0  0  0
    7.9082   54.7927   17.9104 C   0  0  0  0  0  0
    6.3278   53.7622   28.9176 H   0  0  0  0  0  0
    6.0499   52.4968   27.7258 H   0  0  0  0  0  0
    7.2317   53.7609   27.4217 H   0  0  0  0  0  0
    3.2350   52.5078   26.5582 H   0  0  0  0  0  0
    1.1391   52.0202   27.6907 H   0  0  0  0  0  0
    1.8815   55.2150   30.4709 H   0  0  0  0  0  0
    4.0115   55.6965   29.3364 H   0  0  0  0  0  0
   -1.5963   51.3002   30.1093 H   0  0  0  0  0  0
   -0.0836   50.8979   29.3071 H   0  0  0  0  0  0
   -1.3008   51.8563   28.4559 H   0  0  0  0  0  0
    4.1975   54.0466   25.3574 H   0  0  0  0  0  0
    3.9963   53.2954   23.6081 H   0  0  0  0  0  0
    3.5324   53.1809   21.2296 H   0  0  0  0  0  0
    6.9587   55.6484   20.4326 H   0  0  0  0  0  0
    7.4956   55.6925   22.8092 H   0  0  0  0  0  0
    5.6144   52.3333   18.0353 H   0  0  0  0  0  0
    7.5133   51.5277   17.0666 H   0  0  0  0  0  0
    9.9677   51.8666   16.4908 H   0  0  0  0  0  0
    9.8446   55.8180   17.7119 H   0  0  0  0  0  0
    7.3903   55.6563   18.2919 H   0  0  0  0  0  0
   10.9043   53.9500   16.8700 H   0  0  0  0  0  0
  1  2  1  0  0  0
  1 31  1  0  0  0
  1 32  1  0  0  0
  1 33  1  0  0  0
  2  3  1  0  0  0
  2  4  1  0  0  0
  2 12  1  0  0  0
  4  9  2  0  0  0
  4  5  1  0  0  0
  5  6  2  0  0  0
  5 34  1  0  0  0
  6  7  1  0  0  0
  6 35  1  0  0  0
  7  8  2  0  0  0
  7 10  1  0  0  0
  8  9  1  0  0  0
  8 36  1  0  0  0
  9 37  1  0  0  0
 10 11  1  0  0  0
 11 38  1  0  0  0
 11 39  1  0  0  0
 11 40  1  0  0  0
 12 13  1  0  0  0
 12 41  1  0  0  0
 13 14  2  0  0  0
 13 15  1  0  0  0
 15 20  2  0  0  0
 15 16  1  0  0  0
 16 17  2  0  0  0
 16 42  1  0  0  0
 17 18  1  0  0  0
 17 43  1  0  0  0
 18 19  2  0  0  0
 18 21  1  0  0  0
 19 20  1  0  0  0
 19 44  1  0  0  0
 20 45  1  0  0  0
 21 22  2  0  0  0
 21 23  2  0  0  0
 21 24  1  0  0  0
 24 25  1  0  0  0
 24 46  1  0  0  0
 25 30  2  0  0  0
 25 26  1  0  0  0
 26 27  2  0  0  0
 26 47  1  0  0  0
 27 28  1  0  0  0
 27 48  1  0  0  0
 28 29  2  0  0  0
 28 51  1  0  0  0
 29 30  1  0  0  0
 29 49  1  0  0  0
 30 50  1  0  0  0
M  CHG  1  28   1
M  END
> <i_i_glide_confnum>
158

> <i_i_glide_lignum>
121

> <i_i_glide_posenum>
23

> <i_i_glide_rotatable_bonds>
8

> <i_m_Source_File_Index>
2968

> <b_m_subgroup_collapsed>
0

> <r_i_docking_score>
-6.83709

> <r_i_glide_ecoul>
-6.33996

> <r_i_glide_eff_state_penalty>
0

> <r_i_glide_einternal>
3.02947

> <r_i_glide_emodel>
-74.2119

> <r_i_glide_energy>
-51.1751

> <r_i_glide_erotb>
0.757142

> <r_i_glide_esite>
-0.100483

> <r_i_glide_evdw>
-44.8352

> <r_i_glide_gscore>
-6.83709

> <r_i_glide_hbond>
-0.456

> <r_i_glide_ligand_efficiency>
-0.235762

> <r_i_glide_ligand_efficiency_ln>
-1.56552

> <r_i_glide_ligand_efficiency_sa>
-0.724335

> <r_i_glide_lipo>
-3.03777

> <r_i_glide_metal>
0

> <r_i_glide_rewards>
-0.807228

> <s_i_glide_gridfile>
wee1_glide-grid

> <s_m_Source_File>
wee1_decoys_glide_SP.sdf

> <s_m_Source_Path>
/Users/zhangxujun/Desktop

> <s_m_entry_id>
3243

> <s_m_entry_name>
wee1_decoys_glide_SP.2968

> <s_m_subgroup_title>
wee1_decoys_glide_SP

> <s_m_subgroupid>
wee1_decoys_glide_SP


$$$$
