ZINC34932976_5860
                    3D
 Schrodinger Suite 2024-2.
 57 60  0  0  1  0            999 V2000
   -3.7314   51.8114   24.3780 C   0  0  0  0  0  0
   -2.4584   51.0801   23.9027 C   0  0  2  0  0  0
   -2.6389   50.4306   22.5335 C   0  0  0  0  0  0
   -1.1872   50.1611   22.1436 C   0  0  2  0  0  0
   -1.1059   49.9665   21.0742 H   0  0  0  0  0  0
   -0.6092   48.9770   22.9573 C   0  0  0  0  0  0
   -0.8572   49.0153   24.5079 C   0  0  0  0  0  0
   -2.0179   49.9913   24.9320 C   0  0  0  0  0  0
   -1.1794   47.5851   24.9992 C   0  0  0  0  0  0
    0.4349   49.5337   25.1827 C   0  0  0  0  0  0
   -0.5480   51.4185   22.5499 N   0  0  0  0  0  0
   -1.3173   52.0785   23.6175 C   0  0  0  0  0  0
    0.5948   51.9395   22.0440 C   0  0  0  0  0  0
    1.0621   52.9895   22.4917 O   0  0  0  0  0  0
    1.3100   51.1910   20.8874 C   0  0  0  0  0  0
    2.2723   52.0671   20.2112 N   0  0  0  0  0  0
    3.5234   52.2771   20.6398 C   0  0  0  0  0  0
    4.1827   51.4574   21.2818 O   0  0  0  0  0  0
    3.9065   53.5351   20.3666 N   0  0  0  0  0  0
    5.0508   54.1643   20.8698 C   0  0  0  0  0  0
    5.9229   54.7152   19.9310 C   0  0  0  0  0  0
    7.0654   55.3977   20.3314 C   0  0  0  0  0  0
    7.3494   55.5665   21.6817 C   0  0  0  0  0  0
    6.4678   55.0668   22.6719 C   0  0  0  0  0  0
    5.2881   54.3626   22.2732 C   0  0  0  0  0  0
    4.3905   53.9364   23.2982 C   0  0  0  0  0  0
    4.6622   54.1690   24.6413 C   0  0  0  0  0  0
    5.8139   54.8426   25.0179 C   0  0  0  0  0  0
    6.7046   55.2950   24.0529 C   0  0  0  0  0  0
   -3.5745   52.2823   25.3492 H   0  0  0  0  0  0
   -4.5714   51.1229   24.4794 H   0  0  0  0  0  0
   -4.0345   52.5941   23.6817 H   0  0  0  0  0  0
   -3.2454   49.5242   22.5625 H   0  0  0  0  0  0
   -3.1079   51.1137   21.8222 H   0  0  0  0  0  0
   -1.2022   48.1509   22.5605 H   0  0  0  0  0  0
    0.4136   48.7036   22.6956 H   0  0  0  0  0  0
   -1.9162   50.3495   25.9583 H   0  0  0  0  0  0
   -2.9179   49.3744   24.9793 H   0  0  0  0  0  0
   -1.3042   47.5604   26.0816 H   0  0  0  0  0  0
   -2.0944   47.1938   24.5539 H   0  0  0  0  0  0
   -0.3707   46.8961   24.7560 H   0  0  0  0  0  0
    0.3390   49.5428   26.2695 H   0  0  0  0  0  0
    1.2869   48.8976   24.9527 H   0  0  0  0  0  0
    0.7028   50.5418   24.8721 H   0  0  0  0  0  0
   -1.7263   53.0177   23.2417 H   0  0  0  0  0  0
   -0.7266   52.2653   24.5156 H   0  0  0  0  0  0
    1.8133   50.3050   21.2757 H   0  0  0  0  0  0
    0.5930   50.8812   20.1292 H   0  0  0  0  0  0
    1.8904   52.7055   19.5323 H   0  0  0  0  0  0
    3.4008   54.0326   19.6501 H   0  0  0  0  0  0
    5.7281   54.5973   18.8748 H   0  0  0  0  0  0
    7.7393   55.7942   19.5863 H   0  0  0  0  0  0
    8.2422   56.0960   21.9855 H   0  0  0  0  0  0
    3.4787   53.4231   23.0429 H   0  0  0  0  0  0
    3.9685   53.8246   25.3943 H   0  0  0  0  0  0
    6.0089   55.0268   26.0640 H   0  0  0  0  0  0
    7.5785   55.8499   24.3551 H   0  0  0  0  0  0
  1  2  1  0  0  0
  1 30  1  0  0  0
  1 31  1  0  0  0
  1 32  1  0  0  0
  2  8  1  0  0  0
  2 12  1  0  0  0
  2  3  1  0  0  0
  3  4  1  0  0  0
  3 33  1  0  0  0
  3 34  1  0  0  0
  4  5  1  0  0  0
  4  6  1  0  0  0
  4 11  1  0  0  0
  6  7  1  0  0  0
  6 35  1  0  0  0
  6 36  1  0  0  0
  7  8  1  0  0  0
  7  9  1  0  0  0
  7 10  1  0  0  0
  8 37  1  0  0  0
  8 38  1  0  0  0
  9 39  1  0  0  0
  9 40  1  0  0  0
  9 41  1  0  0  0
 10 42  1  0  0  0
 10 43  1  0  0  0
 10 44  1  0  0  0
 11 12  1  0  0  0
 11 13  1  0  0  0
 12 45  1  0  0  0
 12 46  1  0  0  0
 13 14  2  0  0  0
 13 15  1  0  0  0
 15 16  1  0  0  0
 15 47  1  0  0  0
 15 48  1  0  0  0
 16 17  1  0  0  0
 16 49  1  0  0  0
 17 18  2  0  0  0
 17 19  1  0  0  0
 19 20  1  0  0  0
 19 50  1  0  0  0
 20 25  2  0  0  0
 20 21  1  0  0  0
 21 22  2  0  0  0
 21 51  1  0  0  0
 22 23  1  0  0  0
 22 52  1  0  0  0
 23 24  2  0  0  0
 23 53  1  0  0  0
 24 29  1  0  0  0
 24 25  1  0  0  0
 25 26  1  0  0  0
 26 27  2  0  0  0
 26 54  1  0  0  0
 27 28  1  0  0  0
 27 55  1  0  0  0
 28 29  2  0  0  0
 28 56  1  0  0  0
 29 57  1  0  0  0
M  END
> <i_i_glide_confnum>
14

> <i_i_glide_lignum>
5861

> <i_i_glide_posenum>
108

> <i_i_glide_rotatable_bonds>
6

> <i_m_Source_File_Index>
2189

> <b_m_subgroup_collapsed>
0

> <r_i_docking_score>
-4.40135

> <r_i_glide_ecoul>
-3.96451

> <r_i_glide_eff_state_penalty>
0

> <r_i_glide_einternal>
12.4379

> <r_i_glide_emodel>
-42.1477

> <r_i_glide_energy>
-37.3175

> <r_i_glide_erotb>
0.673202

> <r_i_glide_esite>
-0.0401919

> <r_i_glide_evdw>
-33.353

> <r_i_glide_gscore>
-4.40135

> <r_i_glide_hbond>
-0.0203042

> <r_i_glide_ligand_efficiency>
-0.157191

> <r_i_glide_ligand_efficiency_ln>
-1.01596

> <r_i_glide_ligand_efficiency_sa>
-0.477325

> <r_i_glide_lipo>
-1.95164

> <r_i_glide_metal>
0

> <r_i_glide_rewards>
-0.800091

> <s_i_glide_gridfile>
wee1_glide-grid

> <s_m_Source_File>
wee1_decoys_glide_SP.sdf

> <s_m_Source_Path>
/Users/zhangxujun/Desktop

> <s_m_entry_id>
2464

> <s_m_entry_name>
wee1_decoys_glide_SP.2189

> <s_m_subgroup_title>
wee1_decoys_glide_SP

> <s_m_subgroupid>
wee1_decoys_glide_SP


$$$$
