ZINC39945823_5067
                    3D
 Schrodinger Suite 2024-2.
 51 54  0  0  1  0            999 V2000
   -1.5293   51.8264   18.7218 C   0  0  0  0  0  0
   -0.5802   51.4425   19.7051 O   0  0  0  0  0  0
   -0.8451   51.6030   21.0173 C   0  0  0  0  0  0
   -1.8729   52.0966   21.4889 O   0  0  0  0  0  0
    0.3220   51.1359   21.9067 C   0  0  1  0  0  0
    0.9935   50.5834   21.2473 H   0  0  0  0  0  0
    1.0788   52.3251   22.5408 C   0  0  1  0  0  0
    0.6146   53.2863   22.2935 H   0  0  0  0  0  0
    0.8935   52.2228   24.3380 S   0  0  0  0  0  0
    0.1198   50.6298   24.2695 C   0  0  0  0  0  0
   -0.0839   50.1724   23.0140 C   0  0  0  0  0  0
   -0.7643   48.8346   22.7285 C   0  0  0  0  0  0
   -0.7092   47.9002   23.9553 C   0  0  0  0  0  0
   -1.1257   48.6363   25.2378 C   0  0  0  0  0  0
   -0.2090   49.8425   25.5365 C   0  0  0  0  0  0
    2.4664   52.3177   22.0819 N   0  0  0  0  0  0
    3.2778   53.3848   22.1085 C   0  0  0  0  0  0
    2.9031   54.4967   22.4817 O   0  0  0  0  0  0
    4.7350   53.1309   21.6996 C   0  0  0  0  0  0
    5.9045   54.5028   22.0081 S   0  0  0  0  0  0
    5.9031   54.5986   23.7694 C   0  0  0  0  0  0
    6.8036   55.2892   24.5225 N   0  0  0  0  0  0
    7.6264   55.7620   24.1695 H   0  0  0  0  0  0
    6.4802   55.2215   25.8162 N   0  0  0  0  0  0
    5.3792   54.4941   25.7751 C   0  0  0  0  0  0
    5.0053   54.0967   24.5700 N   0  0  0  0  0  0
    4.5668   54.0960   26.9721 C   0  0  0  0  0  0
    3.1703   54.0545   26.8218 C   0  0  0  0  0  0
    2.3447   53.6191   27.8563 C   0  0  0  0  0  0
    2.9060   53.2072   29.0608 C   0  0  0  0  0  0
    4.2867   53.2479   29.2284 C   0  0  0  0  0  0
    5.1217   53.6999   28.2029 C   0  0  0  0  0  0
    6.8303   53.6967   28.4810 Cl  0  0  0  0  0  0
    1.9014   52.6342   30.3421 Cl  0  0  0  0  0  0
   -1.1431   51.5992   17.7277 H   0  0  0  0  0  0
   -2.4697   51.2878   18.8509 H   0  0  0  0  0  0
   -1.7313   52.8969   18.7687 H   0  0  0  0  0  0
   -0.3337   48.3485   21.8528 H   0  0  0  0  0  0
   -1.8057   49.0043   22.4527 H   0  0  0  0  0  0
   -1.3476   47.0317   23.7933 H   0  0  0  0  0  0
    0.3042   47.5185   24.0827 H   0  0  0  0  0  0
   -2.1577   48.9776   25.1418 H   0  0  0  0  0  0
   -1.1151   47.9463   26.0817 H   0  0  0  0  0  0
   -0.6749   50.4692   26.2978 H   0  0  0  0  0  0
    0.7129   49.4829   25.9944 H   0  0  0  0  0  0
    2.8681   51.4130   21.8896 H   0  0  0  0  0  0
    5.1156   52.2377   22.1938 H   0  0  0  0  0  0
    4.7484   52.9272   20.6286 H   0  0  0  0  0  0
    2.7149   54.3463   25.8859 H   0  0  0  0  0  0
    1.2741   53.5843   27.7139 H   0  0  0  0  0  0
    4.7044   52.9008   30.1569 H   0  0  0  0  0  0
  1  2  1  0  0  0
  1 35  1  0  0  0
  1 36  1  0  0  0
  1 37  1  0  0  0
  2  3  1  0  0  0
  3  4  2  0  0  0
  3  5  1  0  0  0
  5  6  1  0  0  0
  5 11  1  0  0  0
  5  7  1  0  0  0
  7  8  1  0  0  0
  7  9  1  0  0  0
  7 16  1  0  0  0
  9 10  1  0  0  0
 10 15  1  0  0  0
 10 11  2  0  0  0
 11 12  1  0  0  0
 12 13  1  0  0  0
 12 38  1  0  0  0
 12 39  1  0  0  0
 13 14  1  0  0  0
 13 40  1  0  0  0
 13 41  1  0  0  0
 14 15  1  0  0  0
 14 42  1  0  0  0
 14 43  1  0  0  0
 15 44  1  0  0  0
 15 45  1  0  0  0
 16 17  1  0  0  0
 16 46  1  0  0  0
 17 18  2  0  0  0
 17 19  1  0  0  0
 19 20  1  0  0  0
 19 47  1  0  0  0
 19 48  1  0  0  0
 20 21  1  0  0  0
 21 26  2  0  0  0
 21 22  1  0  0  0
 22 23  1  0  0  0
 22 24  1  0  0  0
 24 25  2  0  0  0
 25 26  1  0  0  0
 25 27  1  0  0  0
 27 32  2  0  0  0
 27 28  1  0  0  0
 28 29  2  0  0  0
 28 49  1  0  0  0
 29 30  1  0  0  0
 29 50  1  0  0  0
 30 31  2  0  0  0
 30 34  1  0  0  0
 31 32  1  0  0  0
 31 51  1  0  0  0
 32 33  1  0  0  0
M  END
> <i_i_glide_confnum>
63

> <i_i_glide_lignum>
5068

> <i_i_glide_posenum>
93

> <i_i_glide_rotatable_bonds>
8

> <i_m_Source_File_Index>
2566

> <b_m_subgroup_collapsed>
0

> <r_i_docking_score>
-6.70523

> <r_i_glide_ecoul>
-2.60775

> <r_i_glide_eff_state_penalty>
0

> <r_i_glide_einternal>
3.22945

> <r_i_glide_emodel>
-71.8375

> <r_i_glide_energy>
-51.3821

> <r_i_glide_erotb>
0.400997

> <r_i_glide_esite>
-0.0125178

> <r_i_glide_evdw>
-48.7743

> <r_i_glide_gscore>
-6.70523

> <r_i_glide_hbond>
-0.303279

> <r_i_glide_ligand_efficiency>
-0.216298

> <r_i_glide_ligand_efficiency_ln>
-1.51223

> <r_i_glide_ligand_efficiency_sa>
-0.679473

> <r_i_glide_lipo>
-2.16766

> <r_i_glide_metal>
0

> <r_i_glide_rewards>
-1.79288

> <s_i_glide_gridfile>
wee1_glide-grid

> <s_m_Source_File>
wee1_decoys_glide_SP.sdf

> <s_m_Source_Path>
/Users/zhangxujun/Desktop

> <s_m_entry_id>
2841

> <s_m_entry_name>
wee1_decoys_glide_SP.2566

> <s_m_subgroup_title>
wee1_decoys_glide_SP

> <s_m_subgroupid>
wee1_decoys_glide_SP


$$$$
