ZINC20744942_6182
                    3D
 Schrodinger Suite 2024-2.
 28 30  0  0  1  0            999 V2000
    1.6623   53.7014   23.7270 C   0  0  0  0  0  0
    1.7644   53.6249   25.1158 C   0  0  0  0  0  0
    1.3040   52.4970   25.8141 C   0  0  0  0  0  0
    0.7040   51.4533   25.0776 C   0  0  0  0  0  0
    0.6059   51.5372   23.6888 C   0  0  0  0  0  0
    1.0879   52.6534   23.0146 C   0  0  0  0  0  0
    0.9901   52.7199   21.6696 F   0  0  0  0  0  0
    0.0823   50.0266   25.8374 Cl  0  0  0  0  0  0
    1.4397   52.4011   27.3479 C   0  0  1  0  0  0
    1.5216   51.3382   27.5701 H   0  0  0  0  0  0
    2.6900   53.0071   27.9773 C   0  0  0  0  0  0
    3.9046   53.3013   27.3611 C   0  0  0  0  0  0
    4.7097   53.8633   28.3017 N   0  0  0  0  0  0
    5.6525   54.1950   28.1493 H   0  0  0  0  0  0
    4.1201   53.9306   29.4868 N   0  0  0  0  0  0
    2.9290   53.3889   29.3321 C   0  0  0  0  0  0
    2.2032   53.2968   30.4814 N   0  0  0  0  0  0
    1.0621   52.7573   30.6618 C   0  0  0  0  0  0
    0.1061   52.0965   29.6773 C   0  0  0  0  0  0
   -0.0954   52.9853   28.1119 S   0  0  0  0  0  0
    0.7044   52.7838   31.9863 O   0  0  0  0  0  0
    2.0275   54.5696   23.1987 H   0  0  0  0  0  0
    2.2092   54.4521   25.6474 H   0  0  0  0  0  0
    0.1566   50.7308   23.1284 H   0  0  0  0  0  0
    4.2537   53.1678   26.3470 H   0  0  0  0  0  0
    0.4014   51.0675   29.4824 H   0  0  0  0  0  0
   -0.8855   52.0365   30.1284 H   0  0  0  0  0  0
   -0.1624   52.3756   32.1378 H   0  0  0  0  0  0
  1  6  2  0  0  0
  1  2  1  0  0  0
  1 22  1  0  0  0
  2  3  2  0  0  0
  2 23  1  0  0  0
  3  4  1  0  0  0
  3  9  1  0  0  0
  4  5  2  0  0  0
  4  8  1  0  0  0
  5  6  1  0  0  0
  5 24  1  0  0  0
  6  7  1  0  0  0
  9 10  1  0  0  0
  9 20  1  0  0  0
  9 11  1  0  0  0
 11 16  1  0  0  0
 11 12  2  0  0  0
 12 13  1  0  0  0
 12 25  1  0  0  0
 13 14  1  0  0  0
 13 15  1  0  0  0
 15 16  2  0  0  0
 16 17  1  0  0  0
 17 18  2  0  0  0
 18 19  1  0  0  0
 18 21  1  0  0  0
 19 20  1  0  0  0
 19 26  1  0  0  0
 19 27  1  0  0  0
 21 28  1  0  0  0
M  END
> <i_i_glide_confnum>
6

> <i_i_glide_lignum>
6183

> <i_i_glide_posenum>
397

> <i_i_glide_rotatable_bonds>
2

> <i_m_Source_File_Index>
2960

> <b_m_subgroup_collapsed>
0

> <r_i_docking_score>
-5.4898

> <r_i_glide_ecoul>
-6.32036

> <r_i_glide_eff_state_penalty>
0

> <r_i_glide_einternal>
2.92493

> <r_i_glide_emodel>
-44.5609

> <r_i_glide_energy>
-34.4198

> <r_i_glide_erotb>
0.20689

> <r_i_glide_esite>
-0.0358666

> <r_i_glide_evdw>
-28.0995

> <r_i_glide_gscore>
-5.4898

> <r_i_glide_hbond>
-0.419581

> <r_i_glide_ligand_efficiency>
-0.288937

> <r_i_glide_ligand_efficiency_ln>
-1.39178

> <r_i_glide_ligand_efficiency_sa>
-0.770999

> <r_i_glide_lipo>
-1.50914

> <r_i_glide_metal>
0

> <r_i_glide_rewards>
-1.37907

> <s_i_glide_gridfile>
wee1_glide-grid

> <s_m_Source_File>
wee1_decoys_glide_SP.sdf

> <s_m_Source_Path>
/Users/zhangxujun/Desktop

> <s_m_entry_id>
3235

> <s_m_entry_name>
wee1_decoys_glide_SP.2960

> <s_m_subgroup_title>
wee1_decoys_glide_SP

> <s_m_subgroupid>
wee1_decoys_glide_SP


$$$$
