ZINC13243360_5883
                    3D
 Schrodinger Suite 2024-2.
 54 57  0  0  1  0            999 V2000
    0.4406   53.6222   32.1361 C   0  0  0  0  0  0
    0.3325   53.3296   30.6562 C   0  0  0  0  0  0
   -0.1493   52.0967   30.2142 C   0  0  0  0  0  0
   -0.1813   51.8009   28.8522 C   0  0  0  0  0  0
    0.2442   52.7588   27.9280 C   0  0  0  0  0  0
    0.6655   54.0185   28.3806 C   0  0  0  0  0  0
    0.7260   54.2983   29.7383 C   0  0  0  0  0  0
    0.2273   52.4969   26.5323 N   0  0  0  0  0  0
    1.1894   52.8269   25.5756 C   0  0  0  0  0  0
    0.7253   52.6008   24.3710 N   0  0  0  0  0  0
   -0.5439   52.0827   24.4963 N   0  0  0  0  0  0
   -0.8022   51.9596   25.7681 C   0  0  0  0  0  0
   -2.3119   51.2383   26.3225 S   0  0  0  0  0  0
   -1.9972   49.5306   25.7168 C   0  0  0  0  0  0
   -2.1391   49.3333   24.1920 C   0  0  0  0  0  0
   -2.9280   50.0285   23.5483 O   0  0  0  0  0  0
   -1.3568   48.3861   23.6293 N   0  0  0  0  0  0
   -1.2957   48.0980   22.2432 C   0  0  0  0  0  0
   -0.6253   49.0019   21.3823 C   0  0  0  0  0  0
   -0.5152   48.7211   20.0197 C   0  0  0  0  0  0
   -1.0449   47.5530   19.4946 C   0  0  0  0  0  0
   -1.6759   46.6437   20.3319 C   0  0  0  0  0  0
   -1.8088   46.8794   21.7121 C   0  0  0  0  0  0
   -2.4648   45.8060   22.5438 C   0  0  0  0  0  0
   -2.8952   46.0923   23.6836 O   0  0  0  0  0  0
    0.0493   50.2714   21.8831 C   0  0  0  0  0  0
    2.5711   53.3924   25.7809 C   0  0  0  0  0  0
    3.2079   53.9987   24.6878 C   0  0  0  0  0  0
    4.4958   54.4995   24.8093 C   0  0  0  0  0  0
    5.1424   54.4403   26.0364 C   0  0  0  0  0  0
    4.5399   53.8330   27.1307 C   0  0  0  0  0  0
    3.2658   53.2967   26.9947 C   0  0  0  0  0  0
    6.7042   55.1252   26.1948 Cl  0  0  0  0  0  0
    1.1603   52.9458   32.5941 H   0  0  0  0  0  0
    0.7044   54.6591   32.3375 H   0  0  0  0  0  0
   -0.4956   53.4493   32.6400 H   0  0  0  0  0  0
   -0.4960   51.3634   30.9311 H   0  0  0  0  0  0
   -0.5331   50.8312   28.5289 H   0  0  0  0  0  0
    0.9721   54.7842   27.6821 H   0  0  0  0  0  0
    1.0813   55.2634   30.0696 H   0  0  0  0  0  0
   -2.7227   48.8746   26.1981 H   0  0  0  0  0  0
   -1.0182   49.2025   26.0708 H   0  0  0  0  0  0
   -0.9058   47.7272   24.2445 H   0  0  0  0  0  0
   -0.0026   49.4065   19.3588 H   0  0  0  0  0  0
   -0.9522   47.3449   18.4388 H   0  0  0  0  0  0
   -2.0600   45.7347   19.8908 H   0  0  0  0  0  0
    0.5268   50.1028   22.8498 H   0  0  0  0  0  0
    0.8423   50.6043   21.2126 H   0  0  0  0  0  0
   -0.6832   51.0723   21.9852 H   0  0  0  0  0  0
    2.7170   54.0740   23.7277 H   0  0  0  0  0  0
    4.9832   54.9486   23.9578 H   0  0  0  0  0  0
    5.0655   53.7633   28.0717 H   0  0  0  0  0  0
    2.8464   52.7736   27.8397 H   0  0  0  0  0  0
   -2.4956   44.6374   22.0817 O   0  5  0  0  0  0
  1  2  1  0  0  0
  1 34  1  0  0  0
  1 35  1  0  0  0
  1 36  1  0  0  0
  2  7  2  0  0  0
  2  3  1  0  0  0
  3  4  2  0  0  0
  3 37  1  0  0  0
  4  5  1  0  0  0
  4 38  1  0  0  0
  5  6  2  0  0  0
  5  8  1  0  0  0
  6  7  1  0  0  0
  6 39  1  0  0  0
  7 40  1  0  0  0
  8 12  1  0  0  0
  8  9  1  0  0  0
  9 10  2  0  0  0
  9 27  1  0  0  0
 10 11  1  0  0  0
 11 12  2  0  0  0
 12 13  1  0  0  0
 13 14  1  0  0  0
 14 15  1  0  0  0
 14 41  1  0  0  0
 14 42  1  0  0  0
 15 16  2  0  0  0
 15 17  1  0  0  0
 17 18  1  0  0  0
 17 43  1  0  0  0
 18 23  2  0  0  0
 18 19  1  0  0  0
 19 20  2  0  0  0
 19 26  1  0  0  0
 20 21  1  0  0  0
 20 44  1  0  0  0
 21 22  2  0  0  0
 21 45  1  0  0  0
 22 23  1  0  0  0
 22 46  1  0  0  0
 23 24  1  0  0  0
 24 25  2  0  0  0
 24 54  1  0  0  0
 26 47  1  0  0  0
 26 48  1  0  0  0
 26 49  1  0  0  0
 27 32  2  0  0  0
 27 28  1  0  0  0
 28 29  2  0  0  0
 28 50  1  0  0  0
 29 30  1  0  0  0
 29 51  1  0  0  0
 30 31  2  0  0  0
 30 33  1  0  0  0
 31 32  1  0  0  0
 31 52  1  0  0  0
 32 53  1  0  0  0
M  CHG  1  54  -1
M  END
> <i_i_glide_confnum>
39

> <i_i_glide_lignum>
5884

> <i_i_glide_posenum>
285

> <i_i_glide_rotatable_bonds>
8

> <i_m_Source_File_Index>
4758

> <b_m_subgroup_collapsed>
0

> <r_i_docking_score>
-5.02191

> <r_i_glide_ecoul>
-7.10421

> <r_i_glide_eff_state_penalty>
0

> <r_i_glide_einternal>
4.49292

> <r_i_glide_emodel>
-61.3454

> <r_i_glide_energy>
-45.3227

> <r_i_glide_erotb>
0.588879

> <r_i_glide_esite>
-0.0832884

> <r_i_glide_evdw>
-38.2185

> <r_i_glide_gscore>
-5.02191

> <r_i_glide_hbond>
-0.191262

> <r_i_glide_ligand_efficiency>
-0.147703

> <r_i_glide_ligand_efficiency_ln>
-1.10948

> <r_i_glide_ligand_efficiency_sa>
-0.478501

> <r_i_glide_lipo>
-2.00441

> <r_i_glide_metal>
0

> <r_i_glide_rewards>
-0.355265

> <s_i_glide_gridfile>
wee1_glide-grid

> <s_m_Source_File>
wee1_decoys_glide_SP.sdf

> <s_m_Source_Path>
/Users/zhangxujun/Desktop

> <s_m_entry_id>
5033

> <s_m_entry_name>
wee1_decoys_glide_SP.4758

> <s_m_subgroup_title>
wee1_decoys_glide_SP

> <s_m_subgroupid>
wee1_decoys_glide_SP


$$$$
