ZINC03014101_2727
                    3D
 Schrodinger Suite 2024-2.
 46 50  0  0  1  0            999 V2000
    2.1987   52.1922   30.2426 C   0  0  0  0  0  0
    3.5010   52.6948   30.2857 C   0  0  0  0  0  0
    4.0711   53.2612   29.1439 C   0  0  0  0  0  0
    3.3429   53.2961   27.9545 C   0  0  0  0  0  0
    2.0494   52.7682   27.8965 C   0  0  0  0  0  0
    1.4747   52.2200   29.0496 C   0  0  0  0  0  0
    1.3960   52.7893   26.5820 C   0  0  0  0  0  0
    1.9895   53.2839   25.4647 C   0  0  0  0  0  0
    3.3415   53.9040   25.5999 C   0  0  0  0  0  0
    3.9995   54.4856   24.7404 O   0  0  0  0  0  0
    3.9528   53.8603   26.8460 O   0  0  0  0  0  0
    1.2688   53.2377   24.0827 C   0  0  2  0  0  0
    1.0820   54.2839   23.8333 H   0  0  0  0  0  0
   -0.1414   52.6255   24.2478 C   0  0  0  0  0  0
   -0.5812   52.1991   25.4514 C   0  0  0  0  0  0
    0.1508   52.2482   26.5855 O   0  0  0  0  0  0
   -1.7874   51.6264   25.7503 N   0  0  0  0  0  0
   -0.9848   52.4570   23.1092 C   0  0  0  0  0  0
   -1.6996   52.2609   22.2187 N   0  0  0  0  0  0
    2.1154   52.7409   22.8811 C   0  0  0  0  0  0
    2.8565   53.6824   22.1488 C   0  0  0  0  0  0
    3.6757   53.3012   21.0893 C   0  0  0  0  0  0
    3.7690   51.9636   20.7297 C   0  0  0  0  0  0
    3.0321   51.0122   21.4265 C   0  0  0  0  0  0
    2.1827   51.3852   22.4836 C   0  0  0  0  0  0
    1.4440   50.4244   23.1461 O   0  0  0  0  0  0
    0.5481   49.6392   22.4592 C   0  0  0  0  0  0
    0.4245   49.5850   21.2322 O   0  0  0  0  0  0
   -0.3124   48.8657   23.3486 C   0  0  0  0  0  0
   -1.4159   48.0909   22.9890 C   0  0  0  0  0  0
   -2.0512   47.4895   24.0796 C   0  0  0  0  0  0
   -1.4269   47.7857   25.2816 C   0  0  0  0  0  0
   -0.0624   48.8300   25.0747 S   0  0  0  0  0  0
    1.7517   51.7629   31.1288 H   0  0  0  0  0  0
    4.0661   52.6490   31.2028 H   0  0  0  0  0  0
    5.0773   53.6569   29.1782 H   0  0  0  0  0  0
    0.4783   51.7999   29.0227 H   0  0  0  0  0  0
   -2.4782   51.4909   25.0267 H   0  0  0  0  0  0
   -1.8666   51.0368   26.5679 H   0  0  0  0  0  0
    2.8067   54.7307   22.4048 H   0  0  0  0  0  0
    4.2304   54.0478   20.5403 H   0  0  0  0  0  0
    4.3948   51.6661   19.9004 H   0  0  0  0  0  0
    3.1033   49.9751   21.1296 H   0  0  0  0  0  0
   -1.7575   47.9807   21.9700 H   0  0  0  0  0  0
   -2.9289   46.8654   23.9990 H   0  0  0  0  0  0
   -1.6885   47.4561   26.2776 H   0  0  0  0  0  0
  1  6  2  0  0  0
  1  2  1  0  0  0
  1 34  1  0  0  0
  2  3  2  0  0  0
  2 35  1  0  0  0
  3  4  1  0  0  0
  3 36  1  0  0  0
  4 11  1  0  0  0
  4  5  2  0  0  0
  5  6  1  0  0  0
  5  7  1  0  0  0
  6 37  1  0  0  0
  7 16  1  0  0  0
  7  8  2  0  0  0
  8  9  1  0  0  0
  8 12  1  0  0  0
  9 10  2  0  0  0
  9 11  1  0  0  0
 12 13  1  0  0  0
 12 14  1  0  0  0
 12 20  1  0  0  0
 14 15  2  0  0  0
 14 18  1  0  0  0
 15 16  1  0  0  0
 15 17  1  0  0  0
 17 38  1  0  0  0
 17 39  1  0  0  0
 18 19  3  0  0  0
 20 25  2  0  0  0
 20 21  1  0  0  0
 21 22  2  0  0  0
 21 40  1  0  0  0
 22 23  1  0  0  0
 22 41  1  0  0  0
 23 24  2  0  0  0
 23 42  1  0  0  0
 24 25  1  0  0  0
 24 43  1  0  0  0
 25 26  1  0  0  0
 26 27  1  0  0  0
 27 28  2  0  0  0
 27 29  1  0  0  0
 29 33  1  0  0  0
 29 30  2  0  0  0
 30 31  1  0  0  0
 30 44  1  0  0  0
 31 32  2  0  0  0
 31 45  1  0  0  0
 32 33  1  0  0  0
 32 46  1  0  0  0
M  END
> <i_i_glide_confnum>
23

> <i_i_glide_lignum>
2728

> <i_i_glide_posenum>
195

> <i_i_glide_rotatable_bonds>
5

> <i_m_Source_File_Index>
2784

> <b_m_subgroup_collapsed>
0

> <r_i_docking_score>
-4.92731

> <r_i_glide_ecoul>
-3.71396

> <r_i_glide_eff_state_penalty>
0

> <r_i_glide_einternal>
6.27699

> <r_i_glide_emodel>
-57.7994

> <r_i_glide_energy>
-46.4817

> <r_i_glide_erotb>
0.408331

> <r_i_glide_esite>
-0.021303

> <r_i_glide_evdw>
-42.7677

> <r_i_glide_gscore>
-4.92731

> <r_i_glide_hbond>
0

> <r_i_glide_ligand_efficiency>
-0.153979

> <r_i_glide_ligand_efficiency_ln>
-1.10336

> <r_i_glide_ligand_efficiency_sa>
-0.488851

> <r_i_glide_lipo>
-2.17532

> <r_i_glide_metal>
0

> <r_i_glide_rewards>
-0.443546

> <s_i_glide_gridfile>
wee1_glide-grid

> <s_m_Source_File>
wee1_decoys_glide_SP.sdf

> <s_m_Source_Path>
/Users/zhangxujun/Desktop

> <s_m_entry_id>
3059

> <s_m_entry_name>
wee1_decoys_glide_SP.2784

> <s_m_subgroup_title>
wee1_decoys_glide_SP

> <s_m_subgroupid>
wee1_decoys_glide_SP


$$$$
