ZINC36643740_5704
                    3D
 Schrodinger Suite 2024-2.
 73 76  0  0  1  0            999 V2000
    2.0982   53.9014   27.0695 C   0  0  0  0  0  0
    3.1179   54.0955   25.9659 C   0  0  0  0  0  0
    4.4243   54.4432   26.3106 C   0  0  0  0  0  0
    5.4203   54.6215   25.3481 C   0  0  0  0  0  0
    5.0593   54.4247   24.0067 C   0  0  0  0  0  0
    3.7289   54.1091   23.6404 C   0  0  0  0  0  0
    2.7452   53.9473   24.6270 C   0  0  0  0  0  0
    3.5113   53.9816   22.3067 N   0  0  0  0  0  0
    4.6118   54.0660   21.5979 C   0  0  0  0  0  0
    6.0387   54.4964   22.5456 S   0  0  0  0  0  0
    4.7000   53.8417   20.1958 N   0  0  0  0  0  0
    5.8579   54.4380   19.4593 C   0  0  0  0  0  0
    5.5969   55.3358   18.2145 C   0  0  0  0  0  0
    4.6607   56.5335   18.4822 C   0  0  0  0  0  0
    4.3648   57.3978   17.2298 N   0  3  0  0  0  0
    5.5388   58.3117   16.8183 C   0  0  0  0  0  0
    3.8029   56.6010   16.0319 C   0  0  0  0  0  0
    3.8179   53.0354   19.5001 C   0  0  0  0  0  0
    3.8215   52.9651   18.2702 O   0  0  0  0  0  0
    2.8172   52.1394   20.2126 C   0  0  0  0  0  0
    3.2194   51.2215   21.1945 C   0  0  0  0  0  0
    2.2750   50.4442   21.8649 C   0  0  0  0  0  0
    0.9181   50.5708   21.5476 C   0  0  0  0  0  0
    0.5193   51.4383   20.5313 C   0  0  0  0  0  0
    1.4642   52.2068   19.8597 C   0  0  0  0  0  0
   -0.3404   49.6081   22.3984 S   0  0  0  0  0  0
   -1.2387   49.1025   21.3530 O   0  0  0  0  0  0
    0.3392   48.6597   23.2841 O   0  0  0  0  0  0
   -1.2605   50.7614   23.4133 N   0  0  0  0  0  0
   -2.3798   51.4744   22.7355 C   0  0  0  0  0  0
   -3.4462   51.8982   23.7651 C   0  0  0  0  0  0
   -2.8325   52.7395   24.8977 C   0  0  0  0  0  0
   -1.6311   52.0191   25.5413 C   0  0  0  0  0  0
   -0.5928   51.5938   24.4746 C   0  0  1  0  0  0
   -0.2065   52.4911   23.9883 H   0  0  0  0  0  0
    0.5871   50.8566   25.1385 C   0  0  0  0  0  0
    6.8228   54.9892   25.7794 C   0  0  0  0  0  0
    2.3940   53.0714   27.7127 H   0  0  0  0  0  0
    1.1043   53.6953   26.6780 H   0  0  0  0  0  0
    2.0392   54.7945   27.6929 H   0  0  0  0  0  0
    4.6731   54.5678   27.3553 H   0  0  0  0  0  0
    1.7324   53.6970   24.3535 H   0  0  0  0  0  0
    6.4290   55.0720   20.1337 H   0  0  0  0  0  0
    6.5416   53.6293   19.1951 H   0  0  0  0  0  0
    6.5610   55.7138   17.8715 H   0  0  0  0  0  0
    5.2365   54.7280   17.3855 H   0  0  0  0  0  0
    3.6804   56.1926   18.8237 H   0  0  0  0  0  0
    5.0827   57.2359   19.2144 H   0  0  0  0  0  0
    6.3578   57.6855   16.4619 H   0  0  0  0  0  0
    5.1770   58.9809   16.0343 H   0  0  0  0  0  0
    5.8310   58.8959   17.6934 H   0  0  0  0  0  0
    4.6097   56.0022   15.6086 H   0  0  0  0  0  0
    2.9871   55.9769   16.4018 H   0  0  0  0  0  0
    3.4362   57.3272   15.3039 H   0  0  0  0  0  0
    4.2632   51.1237   21.4552 H   0  0  0  0  0  0
    2.6016   49.7461   22.6243 H   0  0  0  0  0  0
   -0.5220   51.5216   20.2603 H   0  0  0  0  0  0
    1.1355   52.8866   19.0847 H   0  0  0  0  0  0
   -1.9823   52.3873   22.2879 H   0  0  0  0  0  0
   -2.8225   50.8444   21.9630 H   0  0  0  0  0  0
   -4.2419   52.4632   23.2818 H   0  0  0  0  0  0
   -3.9271   51.0093   24.1798 H   0  0  0  0  0  0
   -2.5116   53.6948   24.4825 H   0  0  0  0  0  0
   -3.5848   52.9690   25.6525 H   0  0  0  0  0  0
   -1.1737   52.6765   26.2812 H   0  0  0  0  0  0
   -2.0143   51.1354   26.0598 H   0  0  0  0  0  0
    0.9866   51.4267   25.9764 H   0  0  0  0  0  0
    0.2862   49.8871   25.5390 H   0  0  0  0  0  0
    1.4193   50.7046   24.4560 H   0  0  0  0  0  0
    7.5036   54.2370   25.3880 H   0  0  0  0  0  0
    7.1023   55.9532   25.3523 H   0  0  0  0  0  0
    6.9342   55.0324   26.8642 H   0  0  0  0  0  0
    3.6262   58.0339   17.5071 H   0  0  0  0  0  0
  1  2  1  0  0  0
  1 38  1  0  0  0
  1 39  1  0  0  0
  1 40  1  0  0  0
  2  7  2  0  0  0
  2  3  1  0  0  0
  3  4  2  0  0  0
  3 41  1  0  0  0
  4  5  1  0  0  0
  4 37  1  0  0  0
  5 10  1  0  0  0
  5  6  2  0  0  0
  6  7  1  0  0  0
  6  8  1  0  0  0
  7 42  1  0  0  0
  8  9  2  0  0  0
  9 10  1  0  0  0
  9 11  1  0  0  0
 11 12  1  0  0  0
 11 18  1  0  0  0
 12 13  1  0  0  0
 12 43  1  0  0  0
 12 44  1  0  0  0
 13 14  1  0  0  0
 13 45  1  0  0  0
 13 46  1  0  0  0
 14 15  1  0  0  0
 14 47  1  0  0  0
 14 48  1  0  0  0
 15 16  1  0  0  0
 15 17  1  0  0  0
 15 73  1  0  0  0
 16 49  1  0  0  0
 16 50  1  0  0  0
 16 51  1  0  0  0
 17 52  1  0  0  0
 17 53  1  0  0  0
 17 54  1  0  0  0
 18 19  2  0  0  0
 18 20  1  0  0  0
 20 25  2  0  0  0
 20 21  1  0  0  0
 21 22  2  0  0  0
 21 55  1  0  0  0
 22 23  1  0  0  0
 22 56  1  0  0  0
 23 24  2  0  0  0
 23 26  1  0  0  0
 24 25  1  0  0  0
 24 57  1  0  0  0
 25 58  1  0  0  0
 26 27  2  0  0  0
 26 28  2  0  0  0
 26 29  1  0  0  0
 29 34  1  0  0  0
 29 30  1  0  0  0
 30 31  1  0  0  0
 30 59  1  0  0  0
 30 60  1  0  0  0
 31 32  1  0  0  0
 31 61  1  0  0  0
 31 62  1  0  0  0
 32 33  1  0  0  0
 32 63  1  0  0  0
 32 64  1  0  0  0
 33 34  1  0  0  0
 33 65  1  0  0  0
 33 66  1  0  0  0
 34 35  1  0  0  0
 34 36  1  0  0  0
 36 67  1  0  0  0
 36 68  1  0  0  0
 36 69  1  0  0  0
 37 70  1  0  0  0
 37 71  1  0  0  0
 37 72  1  0  0  0
M  CHG  1  15   1
M  END
> <i_i_glide_confnum>
124

> <i_i_glide_lignum>
5705

> <i_i_glide_posenum>
248

> <i_i_glide_rotatable_bonds>
9

> <i_m_Source_File_Index>
1203

> <b_m_subgroup_collapsed>
0

> <r_i_docking_score>
-3.66849

> <r_i_glide_ecoul>
1.88955

> <r_i_glide_eff_state_penalty>
0

> <r_i_glide_einternal>
7.98978

> <r_i_glide_emodel>
-46.728

> <r_i_glide_energy>
-40.6916

> <r_i_glide_erotb>
0.587533

> <r_i_glide_esite>
-0.0309375

> <r_i_glide_evdw>
-42.5812

> <r_i_glide_gscore>
-3.66849

> <r_i_glide_hbond>
0

> <r_i_glide_ligand_efficiency>
-0.101903

> <r_i_glide_ligand_efficiency_ln>
-0.800366

> <r_i_glide_ligand_efficiency_sa>
-0.336475

> <r_i_glide_lipo>
-2.62564

> <r_i_glide_metal>
0

> <r_i_glide_rewards>
0.246177

> <s_i_glide_gridfile>
wee1_glide-grid

> <s_m_Source_File>
wee1_decoys_glide_SP.sdf

> <s_m_Source_Path>
/Users/zhangxujun/Desktop

> <s_m_entry_id>
1478

> <s_m_entry_name>
wee1_decoys_glide_SP.1203

> <s_m_subgroup_title>
wee1_decoys_glide_SP

> <s_m_subgroupid>
wee1_decoys_glide_SP


$$$$
