ZINC04545704_3951
                    3D
 Schrodinger Suite 2024-2.
 55 58  0  0  1  0            999 V2000
    3.9065   52.3806   30.5423 C   0  0  0  0  0  0
    2.4345   52.2977   30.1052 C   0  0  0  0  0  0
    1.9147   53.3226   29.0497 C   0  0  0  0  0  0
    0.4243   52.9260   28.8242 C   0  0  0  0  0  0
    1.8930   54.7522   29.6567 C   0  0  0  0  0  0
    2.7573   53.2456   27.6983 C   0  0  2  0  0  0
    3.1288   52.2220   27.6288 H   0  0  0  0  0  0
    4.0132   54.1685   27.6850 C   0  0  0  0  0  0
    4.9596   53.8775   26.5019 C   0  0  0  0  0  0
    4.1618   53.9148   25.1991 C   0  0  0  0  0  0
    2.7706   53.7547   25.1931 C   0  0  0  0  0  0
    2.0960   53.8858   23.5949 S   0  0  0  0  0  0
    3.6648   54.1761   22.9293 C   0  0  0  0  0  0
    4.6691   54.1510   23.9019 C   0  0  0  0  0  0
    6.0249   54.3642   23.4139 C   0  0  0  0  0  0
    6.3502   54.7570   22.2518 N   0  0  0  0  0  0
    5.2602   54.9785   21.2886 C   0  0  2  0  0  0
    5.1051   56.0562   21.2817 H   0  0  0  0  0  0
    3.9048   54.4363   21.5873 N   0  0  0  0  0  0
    5.7924   54.7916   19.8622 C   0  0  0  0  0  0
    6.4598   55.8653   19.2531 C   0  0  0  0  0  0
    6.9769   55.7566   17.9613 C   0  0  0  0  0  0
    6.8212   54.5623   17.2573 C   0  0  0  0  0  0
    6.1623   53.4867   17.8475 C   0  0  0  0  0  0
    5.6513   53.5951   19.1413 C   0  0  0  0  0  0
    5.0468   52.4966   19.6817 O   0  0  0  0  0  0
    7.6856   56.9384   17.3242 C   0  0  0  0  0  0
    7.1044   54.1714   24.2202 O   0  0  0  0  0  0
    1.9061   53.5699   26.4348 C   0  0  0  0  0  0
    4.1035   51.6984   31.3697 H   0  0  0  0  0  0
    4.1767   53.3799   30.8793 H   0  0  0  0  0  0
    4.5815   52.0978   29.7341 H   0  0  0  0  0  0
    2.2584   51.2968   29.7156 H   0  0  0  0  0  0
    1.8206   52.3661   31.0062 H   0  0  0  0  0  0
   -0.1104   53.6463   28.2053 H   0  0  0  0  0  0
    0.3353   51.9493   28.3457 H   0  0  0  0  0  0
   -0.1298   52.8681   29.7631 H   0  0  0  0  0  0
    1.5153   55.4825   28.9405 H   0  0  0  0  0  0
    1.2484   54.8050   30.5352 H   0  0  0  0  0  0
    2.8788   55.0913   29.9739 H   0  0  0  0  0  0
    3.7167   55.2188   27.7048 H   0  0  0  0  0  0
    4.5945   54.0432   28.5958 H   0  0  0  0  0  0
    5.7661   54.6106   26.4973 H   0  0  0  0  0  0
    5.4300   52.9002   26.6239 H   0  0  0  0  0  0
    3.1811   54.7804   20.9676 H   0  0  0  0  0  0
    6.5833   56.7951   19.7889 H   0  0  0  0  0  0
    7.2114   54.4608   16.2557 H   0  0  0  0  0  0
    6.0536   52.5619   17.2967 H   0  0  0  0  0  0
    5.1040   51.7375   19.0730 H   0  0  0  0  0  0
    8.7196   56.9934   17.6688 H   0  0  0  0  0  0
    7.6728   56.8747   16.2356 H   0  0  0  0  0  0
    7.1869   57.8724   17.5876 H   0  0  0  0  0  0
    7.7388   54.8724   24.0422 H   0  0  0  0  0  0
    1.1630   52.7916   26.2551 H   0  0  0  0  0  0
    1.3852   54.4967   26.6325 H   0  0  0  0  0  0
  1  2  1  0  0  0
  1 30  1  0  0  0
  1 31  1  0  0  0
  1 32  1  0  0  0
  2  3  1  0  0  0
  2 33  1  0  0  0
  2 34  1  0  0  0
  3  4  1  0  0  0
  3  5  1  0  0  0
  3  6  1  0  0  0
  4 35  1  0  0  0
  4 36  1  0  0  0
  4 37  1  0  0  0
  5 38  1  0  0  0
  5 39  1  0  0  0
  5 40  1  0  0  0
  6  7  1  0  0  0
  6 29  1  0  0  0
  6  8  1  0  0  0
  8  9  1  0  0  0
  8 41  1  0  0  0
  8 42  1  0  0  0
  9 10  1  0  0  0
  9 43  1  0  0  0
  9 44  1  0  0  0
 10 14  1  0  0  0
 10 11  2  0  0  0
 11 12  1  0  0  0
 11 29  1  0  0  0
 12 13  1  0  0  0
 13 19  1  0  0  0
 13 14  2  0  0  0
 14 15  1  0  0  0
 15 16  2  0  0  0
 15 28  1  0  0  0
 16 17  1  0  0  0
 17 18  1  0  0  0
 17 19  1  0  0  0
 17 20  1  0  0  0
 19 45  1  0  0  0
 20 25  2  0  0  0
 20 21  1  0  0  0
 21 22  2  0  0  0
 21 46  1  0  0  0
 22 23  1  0  0  0
 22 27  1  0  0  0
 23 24  2  0  0  0
 23 47  1  0  0  0
 24 25  1  0  0  0
 24 48  1  0  0  0
 25 26  1  0  0  0
 26 49  1  0  0  0
 27 50  1  0  0  0
 27 51  1  0  0  0
 27 52  1  0  0  0
 28 53  1  0  0  0
 29 54  1  0  0  0
 29 55  1  0  0  0
M  END
> <i_i_glide_confnum>
6

> <i_i_glide_lignum>
3952

> <i_i_glide_posenum>
379

> <i_i_glide_rotatable_bonds>
5

> <i_m_Source_File_Index>
2287

> <b_m_subgroup_collapsed>
0

> <r_i_docking_score>
-7.57661

> <r_i_glide_ecoul>
-8.67872

> <r_i_glide_eff_state_penalty>
0

> <r_i_glide_einternal>
8.62818

> <r_i_glide_emodel>
-60.1172

> <r_i_glide_energy>
-44.5593

> <r_i_glide_erotb>
0.262986

> <r_i_glide_esite>
-0.00033295

> <r_i_glide_evdw>
-35.8806

> <r_i_glide_gscore>
-7.57661

> <r_i_glide_hbond>
-0.67326

> <r_i_glide_ligand_efficiency>
-0.280615

> <r_i_glide_ligand_efficiency_ln>
-1.76371

> <r_i_glide_ligand_efficiency_sa>
-0.841846

> <r_i_glide_lipo>
-2.69381

> <r_i_glide_metal>
0

> <r_i_glide_rewards>
-1.37636

> <s_i_glide_gridfile>
wee1_glide-grid

> <s_m_Source_File>
wee1_decoys_glide_SP.sdf

> <s_m_Source_Path>
/Users/zhangxujun/Desktop

> <s_m_entry_id>
2562

> <s_m_entry_name>
wee1_decoys_glide_SP.2287

> <s_m_subgroup_title>
wee1_decoys_glide_SP

> <s_m_subgroupid>
wee1_decoys_glide_SP


$$$$
