ZINC64610978_5121
                    3D
 Schrodinger Suite 2024-2.
 58 62  0  0  1  0            999 V2000
    0.2788   51.6966   28.8800 C   0  0  0  0  0  0
   -0.1765   52.2691   30.1383 C   0  0  0  0  0  0
    0.2765   53.4686   30.5868 C   0  0  0  0  0  0
    1.2069   54.1977   29.8371 C   0  0  0  0  0  0
    1.7266   55.3751   30.0785 N   0  3  0  0  0  0
    2.6715   55.7255   29.0046 C   0  0  0  0  0  0
    2.6156   54.5096   28.1020 C   0  0  0  0  0  0
    1.7127   53.6690   28.6425 C   0  0  0  0  0  0
    1.2045   52.3708   28.1718 C   0  0  0  0  0  0
    3.4184   54.4170   26.8092 C   0  0  0  0  0  0
    4.9673   54.4332   26.9459 C   0  0  0  0  0  0
    5.7283   54.7155   25.6314 C   0  0  0  0  0  0
    6.8024   55.3122   25.6828 O   0  0  0  0  0  0
    5.1441   54.2781   24.4966 N   0  0  0  0  0  0
    5.4952   54.4565   23.1463 C   0  0  0  0  0  0
    4.5782   53.9409   22.2274 C   0  0  0  0  0  0
    4.7805   54.0919   20.8594 C   0  0  0  0  0  0
    5.9068   54.7655   20.3966 C   0  0  0  0  0  0
    6.8470   55.2967   21.2960 C   0  0  0  0  0  0
    6.6371   55.1293   22.6712 C   0  0  0  0  0  0
    8.0058   55.9530   20.9179 O   0  0  0  0  0  0
    8.4075   56.0322   19.5393 C   0  0  0  0  0  0
    7.5488   56.9727   18.6979 C   0  0  0  0  0  0
    7.0678   58.1136   19.0061 N   0  0  0  0  0  0
    6.2398   58.4967   17.9566 N   0  0  0  0  0  0
    6.3612   57.5090   16.9423 C   0  0  1  0  0  0
    6.7881   57.9618   16.0439 H   0  0  0  0  0  0
    7.2203   56.5562   17.4327 O   0  0  0  0  0  0
    5.0252   56.8482   16.5428 C   0  0  0  0  0  0
    4.7051   56.6921   15.1905 C   0  0  0  0  0  0
    3.5164   56.0659   14.8230 C   0  0  0  0  0  0
    2.6540   55.5830   15.8056 C   0  0  0  0  0  0
    2.9717   55.7216   17.1552 C   0  0  0  0  0  0
    4.1514   56.3617   17.5233 C   0  0  0  0  0  0
    1.1809   54.8061   15.3486 Cl  0  0  0  0  0  0
   -0.1123   50.7507   28.5289 H   0  0  0  0  0  0
   -0.8858   51.7123   30.7412 H   0  0  0  0  0  0
   -0.0945   53.8334   31.5356 H   0  0  0  0  0  0
    2.3044   56.6396   28.5345 H   0  0  0  0  0  0
    3.6505   55.8849   29.4524 H   0  0  0  0  0  0
    1.5423   51.9312   27.2444 H   0  0  0  0  0  0
    3.1084   53.5155   26.2799 H   0  0  0  0  0  0
    3.1045   55.2513   26.1845 H   0  0  0  0  0  0
    5.2682   55.1893   27.6726 H   0  0  0  0  0  0
    5.3225   53.4806   27.3408 H   0  0  0  0  0  0
    4.2941   53.7541   24.6233 H   0  0  0  0  0  0
    3.6884   53.4259   22.5605 H   0  0  0  0  0  0
    4.0654   53.6886   20.1560 H   0  0  0  0  0  0
    6.0404   54.8425   19.3298 H   0  0  0  0  0  0
    7.3728   55.5372   23.3474 H   0  0  0  0  0  0
    9.4391   56.3864   19.5221 H   0  0  0  0  0  0
    8.4357   55.0340   19.1017 H   0  0  0  0  0  0
    6.3046   59.5013   17.7841 H   0  0  0  0  0  0
    5.3760   57.0522   14.4233 H   0  0  0  0  0  0
    3.2675   55.9529   13.7780 H   0  0  0  0  0  0
    2.3050   55.3392   17.9129 H   0  0  0  0  0  0
    4.3916   56.4754   18.5697 H   0  0  0  0  0  0
    1.5134   55.9686   30.8772 H   0  0  0  0  0  0
  1  9  2  0  0  0
  1  2  1  0  0  0
  1 36  1  0  0  0
  2  3  2  0  0  0
  2 37  1  0  0  0
  3  4  1  0  0  0
  3 38  1  0  0  0
  4  8  1  0  0  0
  4  5  2  0  0  0
  5  6  1  0  0  0
  5 58  1  0  0  0
  6  7  1  0  0  0
  6 39  1  0  0  0
  6 40  1  0  0  0
  7  8  2  0  0  0
  7 10  1  0  0  0
  8  9  1  0  0  0
  9 41  1  0  0  0
 10 11  1  0  0  0
 10 42  1  0  0  0
 10 43  1  0  0  0
 11 12  1  0  0  0
 11 44  1  0  0  0
 11 45  1  0  0  0
 12 13  2  0  0  0
 12 14  1  0  0  0
 14 15  1  0  0  0
 14 46  1  0  0  0
 15 20  2  0  0  0
 15 16  1  0  0  0
 16 17  2  0  0  0
 16 47  1  0  0  0
 17 18  1  0  0  0
 17 48  1  0  0  0
 18 19  2  0  0  0
 18 49  1  0  0  0
 19 20  1  0  0  0
 19 21  1  0  0  0
 20 50  1  0  0  0
 21 22  1  0  0  0
 22 23  1  0  0  0
 22 51  1  0  0  0
 22 52  1  0  0  0
 23 28  1  0  0  0
 23 24  2  0  0  0
 24 25  1  0  0  0
 25 26  1  0  0  0
 25 53  1  0  0  0
 26 27  1  0  0  0
 26 28  1  0  0  0
 26 29  1  0  0  0
 29 34  2  0  0  0
 29 30  1  0  0  0
 30 31  2  0  0  0
 30 54  1  0  0  0
 31 32  1  0  0  0
 31 55  1  0  0  0
 32 33  2  0  0  0
 32 35  1  0  0  0
 33 34  1  0  0  0
 33 56  1  0  0  0
 34 57  1  0  0  0
M  CHG  1   5   1
M  END
> <i_i_glide_confnum>
18

> <i_i_glide_lignum>
5122

> <i_i_glide_posenum>
81

> <i_i_glide_rotatable_bonds>
9

> <i_m_Source_File_Index>
1842

> <b_m_subgroup_collapsed>
0

> <r_i_docking_score>
-7.51952

> <r_i_glide_ecoul>
-11.6228

> <r_i_glide_eff_state_penalty>
0

> <r_i_glide_einternal>
5.94743

> <r_i_glide_emodel>
-80.6193

> <r_i_glide_energy>
-56.3776

> <r_i_glide_erotb>
0.715016

> <r_i_glide_esite>
-0.109391

> <r_i_glide_evdw>
-44.7548

> <r_i_glide_gscore>
-7.51952

> <r_i_glide_hbond>
-0.572173

> <r_i_glide_ligand_efficiency>
-0.221162

> <r_i_glide_ligand_efficiency_ln>
-1.66127

> <r_i_glide_ligand_efficiency_sa>
-0.71648

> <r_i_glide_lipo>
-2.96992

> <r_i_glide_metal>
0

> <r_i_glide_rewards>
-0.601897

> <s_i_glide_gridfile>
wee1_glide-grid

> <s_m_Source_File>
wee1_decoys_glide_SP.sdf

> <s_m_Source_Path>
/Users/zhangxujun/Desktop

> <s_m_entry_id>
2117

> <s_m_entry_name>
wee1_decoys_glide_SP.1842

> <s_m_subgroup_title>
wee1_decoys_glide_SP

> <s_m_subgroupid>
wee1_decoys_glide_SP


$$$$
