ZINC27055344_484
                    3D
 Schrodinger Suite 2024-2.
 46 48  0  0  1  0            999 V2000
    1.8761   50.0972   22.7289 C   0  0  0  0  0  0
    1.8115   51.3724   23.2811 C   0  0  0  0  0  0
    2.1285   52.4818   22.4990 C   0  0  0  0  0  0
    2.4946   52.3259   21.1607 C   0  0  0  0  0  0
    2.5668   51.0463   20.6111 C   0  0  0  0  0  0
    2.2520   49.9387   21.3972 C   0  0  0  0  0  0
    2.3007   48.6976   20.8641 F   0  0  0  0  0  0
    2.0361   54.0951   23.2103 S   0  0  0  0  0  0
    3.5134   54.1616   24.1951 C   0  0  0  0  0  0
    3.3627   54.0963   25.5813 C   0  0  0  0  0  0
    4.4703   54.1952   26.4176 C   0  0  0  0  0  0
    5.7391   54.3614   25.8714 C   0  0  0  0  0  0
    5.9051   54.4251   24.4880 C   0  0  0  0  0  0
    4.7937   54.3389   23.6275 C   0  0  0  0  0  0
    4.8875   54.4503   22.2202 N   0  0  0  0  0  0
    5.9032   54.8960   21.4516 C   0  0  0  0  0  0
    6.9907   55.2764   21.8864 O   0  0  0  0  0  0
    5.6046   54.9058   19.9325 C   0  0  0  0  0  0
    6.8173   55.1293   19.1039 N   0  0  0  0  0  0
    7.3614   54.0972   18.3765 C   0  0  0  0  0  0
    8.5022   54.1572   17.6602 C   0  0  0  0  0  0
    9.1890   55.4383   17.6676 C   0  0  0  0  0  0
    8.6649   56.5160   18.3203 C   0  0  0  0  0  0
    7.3840   56.3973   19.0568 C   0  0  0  0  0  0
    6.8570   57.3549   19.6358 O   0  0  0  0  0  0
    9.3905   57.7745   18.2729 C   0  0  0  0  0  0
    8.8596   58.8622   18.0710 O   0  0  0  0  0  0
   10.7053   57.6968   18.4811 N   0  0  0  0  0  0
    9.0152   53.0069   16.8851 N   0  3  0  0  0  0
    8.3447   51.9787   16.8821 O   0  0  0  0  0  0
   10.0787   53.1635   16.2934 O   0  5  0  0  0  0
    7.1038   54.4929   26.9147 Cl  0  0  0  0  0  0
    1.6382   49.2317   23.3298 H   0  0  0  0  0  0
    1.5208   51.4962   24.3143 H   0  0  0  0  0  0
    2.7107   53.1867   20.5446 H   0  0  0  0  0  0
    2.8567   50.9078   19.5783 H   0  0  0  0  0  0
    2.3804   53.9741   26.0144 H   0  0  0  0  0  0
    4.3430   54.1451   27.4892 H   0  0  0  0  0  0
    6.9092   54.5426   24.1120 H   0  0  0  0  0  0
    4.0256   54.2264   21.7454 H   0  0  0  0  0  0
    4.8853   55.6972   19.7254 H   0  0  0  0  0  0
    5.1032   53.9826   19.6404 H   0  0  0  0  0  0
    6.7449   53.2060   18.4079 H   0  0  0  0  0  0
   10.1211   55.5223   17.1203 H   0  0  0  0  0  0
   11.2572   58.5382   18.4556 H   0  0  0  0  0  0
   11.1235   56.8218   18.7732 H   0  0  0  0  0  0
  1  6  2  0  0  0
  1  2  1  0  0  0
  1 33  1  0  0  0
  2  3  2  0  0  0
  2 34  1  0  0  0
  3  4  1  0  0  0
  3  8  1  0  0  0
  4  5  2  0  0  0
  4 35  1  0  0  0
  5  6  1  0  0  0
  5 36  1  0  0  0
  6  7  1  0  0  0
  8  9  1  0  0  0
  9 14  2  0  0  0
  9 10  1  0  0  0
 10 11  2  0  0  0
 10 37  1  0  0  0
 11 12  1  0  0  0
 11 38  1  0  0  0
 12 13  2  0  0  0
 12 32  1  0  0  0
 13 14  1  0  0  0
 13 39  1  0  0  0
 14 15  1  0  0  0
 15 16  1  0  0  0
 15 40  1  0  0  0
 16 17  2  0  0  0
 16 18  1  0  0  0
 18 19  1  0  0  0
 18 41  1  0  0  0
 18 42  1  0  0  0
 19 24  1  0  0  0
 19 20  1  0  0  0
 20 21  2  0  0  0
 20 43  1  0  0  0
 21 22  1  0  0  0
 21 29  1  0  0  0
 22 23  2  0  0  0
 22 44  1  0  0  0
 23 24  1  0  0  0
 23 26  1  0  0  0
 24 25  2  0  0  0
 26 27  2  0  0  0
 26 28  1  0  0  0
 28 45  1  0  0  0
 28 46  1  0  0  0
 29 30  2  0  0  0
 29 31  1  0  0  0
M  CHG  2  29   1  31  -1
M  END
> <i_i_glide_confnum>
13

> <i_i_glide_lignum>
485

> <i_i_glide_posenum>
169

> <i_i_glide_rotatable_bonds>
8

> <i_m_Source_File_Index>
1795

> <b_m_subgroup_collapsed>
0

> <r_i_docking_score>
-6.65908

> <r_i_glide_ecoul>
-7.47405

> <r_i_glide_eff_state_penalty>
0

> <r_i_glide_einternal>
4.57289

> <r_i_glide_emodel>
-72.2825

> <r_i_glide_energy>
-51.7727

> <r_i_glide_erotb>
0.534375

> <r_i_glide_esite>
-0.0544548

> <r_i_glide_evdw>
-44.2987

> <r_i_glide_gscore>
-6.65908

> <r_i_glide_hbond>
-0.591701

> <r_i_glide_ligand_efficiency>
-0.208096

> <r_i_glide_ligand_efficiency_ln>
-1.49115

> <r_i_glide_ligand_efficiency_sa>
-0.660665

> <r_i_glide_lipo>
-2.48089

> <r_i_glide_metal>
0

> <r_i_glide_rewards>
-0.730368

> <s_i_glide_gridfile>
wee1_glide-grid

> <s_m_Source_File>
wee1_decoys_glide_SP.sdf

> <s_m_Source_Path>
/Users/zhangxujun/Desktop

> <s_m_entry_id>
2070

> <s_m_entry_name>
wee1_decoys_glide_SP.1795

> <s_m_subgroup_title>
wee1_decoys_glide_SP

> <s_m_subgroupid>
wee1_decoys_glide_SP


$$$$
