ZINC39883672_5411
                    3D
 Schrodinger Suite 2024-2.
 65 69  0  0  1  0            999 V2000
    5.5064   54.2166   28.7660 C   0  0  0  0  0  0
    5.2359   54.2434   27.2759 C   0  0  0  0  0  0
    3.9317   54.0975   26.7978 C   0  0  0  0  0  0
    3.6287   54.1014   25.4280 C   0  0  0  0  0  0
    4.6960   54.2522   24.5103 C   0  0  0  0  0  0
    6.0081   54.3911   25.0323 C   0  0  0  0  0  0
    6.3038   54.3908   26.3968 C   0  0  0  0  0  0
    6.9256   54.5266   24.0418 O   0  0  0  0  0  0
    6.2210   54.4969   22.8822 C   0  0  0  0  0  0
    4.8537   54.3307   23.0726 C   0  0  0  0  0  0
    3.7897   54.3124   21.9820 C   0  0  0  0  0  0
    3.2963   52.9119   21.5959 C   0  0  0  0  0  0
    3.0659   52.0974   22.4815 O   0  0  0  0  0  0
    3.1041   52.6791   20.2822 N   0  0  0  0  0  0
    2.5719   51.5380   19.6711 C   0  0  0  0  0  0
    2.2793   51.4015   18.2990 C   0  0  0  0  0  0
    1.5898   50.1925   18.0171 C   0  0  0  0  0  0
    1.5109   49.3500   19.1380 C   0  0  0  0  0  0
    2.1668   50.0835   20.5523 S   0  0  0  0  0  0
    1.0102   47.9108   19.1349 C   0  0  0  0  0  0
    0.2087   47.6560   17.8365 C   0  0  1  0  0  0
   -0.7541   48.1648   17.9129 H   0  0  0  0  0  0
    0.9957   48.1849   16.6200 C   0  0  0  0  0  0
    1.1027   49.7240   16.6395 C   0  0  0  0  0  0
   -0.0977   46.1536   17.6971 C   0  0  0  0  0  0
    2.5659   52.4077   17.2966 C   0  0  0  0  0  0
    1.7339   52.7575   16.4593 O   0  0  0  0  0  0
    3.8164   52.8962   17.3769 N   0  0  0  0  0  0
    4.4135   53.9284   16.5320 C   0  0  2  0  0  0
    3.7151   54.1581   15.7220 H   0  0  0  0  0  0
    5.7519   53.4450   15.9367 C   0  0  0  0  0  0
    6.8007   53.4091   17.0653 C   0  0  0  0  0  0
    6.3226   54.8221   18.2062 S   0  0  0  0  0  0
    7.2346   55.9575   18.0297 O   0  0  0  0  0  0
    6.0593   54.2806   19.5435 O   0  0  0  0  0  0
    4.7036   55.2004   17.3356 C   0  0  0  0  0  0
    2.1734   53.9515   25.0223 C   0  0  0  0  0  0
    4.7823   53.5883   29.2855 H   0  0  0  0  0  0
    6.4919   53.7904   28.9602 H   0  0  0  0  0  0
    5.4790   55.2238   29.1851 H   0  0  0  0  0  0
    3.1294   53.9725   27.5112 H   0  0  0  0  0  0
    7.3147   54.4911   26.7569 H   0  0  0  0  0  0
    6.8165   54.6321   21.9921 H   0  0  0  0  0  0
    4.1650   54.8202   21.0945 H   0  0  0  0  0  0
    2.9200   54.8961   22.2750 H   0  0  0  0  0  0
    3.3057   53.4439   19.6556 H   0  0  0  0  0  0
    1.8744   47.2461   19.1763 H   0  0  0  0  0  0
    0.3985   47.7061   20.0144 H   0  0  0  0  0  0
    1.9770   47.7092   16.5594 H   0  0  0  0  0  0
    0.4930   47.8859   15.6992 H   0  0  0  0  0  0
    0.1405   50.1838   16.4130 H   0  0  0  0  0  0
    1.7816   50.0485   15.8489 H   0  0  0  0  0  0
    0.8191   45.5676   17.6211 H   0  0  0  0  0  0
   -0.6599   45.7828   18.5547 H   0  0  0  0  0  0
   -0.6933   45.9517   16.8064 H   0  0  0  0  0  0
    4.4701   52.3144   17.8886 H   0  0  0  0  0  0
    6.0670   54.1267   15.1461 H   0  0  0  0  0  0
    5.6427   52.4694   15.4602 H   0  0  0  0  0  0
    7.8461   53.4943   16.7715 H   0  0  0  0  0  0
    6.6825   52.4853   17.6320 H   0  0  0  0  0  0
    3.9612   55.5486   18.0521 H   0  0  0  0  0  0
    4.9347   55.9991   16.6301 H   0  0  0  0  0  0
    1.5031   54.0945   25.8692 H   0  0  0  0  0  0
    1.9029   54.6922   24.2715 H   0  0  0  0  0  0
    1.9889   52.9597   24.6125 H   0  0  0  0  0  0
  1  2  1  0  0  0
  1 38  1  0  0  0
  1 39  1  0  0  0
  1 40  1  0  0  0
  2  7  2  0  0  0
  2  3  1  0  0  0
  3  4  2  0  0  0
  3 41  1  0  0  0
  4  5  1  0  0  0
  4 37  1  0  0  0
  5 10  1  0  0  0
  5  6  2  0  0  0
  6  7  1  0  0  0
  6  8  1  0  0  0
  7 42  1  0  0  0
  8  9  1  0  0  0
  9 10  2  0  0  0
  9 43  1  0  0  0
 10 11  1  0  0  0
 11 12  1  0  0  0
 11 44  1  0  0  0
 11 45  1  0  0  0
 12 13  2  0  0  0
 12 14  1  0  0  0
 14 15  1  0  0  0
 14 46  1  0  0  0
 15 19  1  0  0  0
 15 16  2  0  0  0
 16 17  1  0  0  0
 16 26  1  0  0  0
 17 24  1  0  0  0
 17 18  2  0  0  0
 18 19  1  0  0  0
 18 20  1  0  0  0
 20 21  1  0  0  0
 20 47  1  0  0  0
 20 48  1  0  0  0
 21 22  1  0  0  0
 21 23  1  0  0  0
 21 25  1  0  0  0
 23 24  1  0  0  0
 23 49  1  0  0  0
 23 50  1  0  0  0
 24 51  1  0  0  0
 24 52  1  0  0  0
 25 53  1  0  0  0
 25 54  1  0  0  0
 25 55  1  0  0  0
 26 27  2  0  0  0
 26 28  1  0  0  0
 28 29  1  0  0  0
 28 56  1  0  0  0
 29 30  1  0  0  0
 29 36  1  0  0  0
 29 31  1  0  0  0
 31 32  1  0  0  0
 31 57  1  0  0  0
 31 58  1  0  0  0
 32 33  1  0  0  0
 32 59  1  0  0  0
 32 60  1  0  0  0
 33 34  2  0  0  0
 33 35  2  0  0  0
 33 36  1  0  0  0
 36 61  1  0  0  0
 36 62  1  0  0  0
 37 63  1  0  0  0
 37 64  1  0  0  0
 37 65  1  0  0  0
M  END
> <i_i_glide_confnum>
234

> <i_i_glide_lignum>
5412

> <i_i_glide_posenum>
320

> <i_i_glide_rotatable_bonds>
7

> <i_m_Source_File_Index>
2704

> <b_m_subgroup_collapsed>
0

> <r_i_docking_score>
-4.77869

> <r_i_glide_ecoul>
-2.8128

> <r_i_glide_eff_state_penalty>
0

> <r_i_glide_einternal>
3.55797

> <r_i_glide_emodel>
-57.7012

> <r_i_glide_energy>
-42.5474

> <r_i_glide_erotb>
0.542139

> <r_i_glide_esite>
-0.116331

> <r_i_glide_evdw>
-39.7346

> <r_i_glide_gscore>
-4.77869

> <r_i_glide_hbond>
-0.101507

> <r_i_glide_ligand_efficiency>
-0.136534

> <r_i_glide_ligand_efficiency_ln>
-1.04903

> <r_i_glide_ligand_efficiency_sa>
-0.446612

> <r_i_glide_lipo>
-2.51215

> <r_i_glide_metal>
0

> <r_i_glide_rewards>
-0.182187

> <s_i_glide_gridfile>
wee1_glide-grid

> <s_m_Source_File>
wee1_decoys_glide_SP.sdf

> <s_m_Source_Path>
/Users/zhangxujun/Desktop

> <s_m_entry_id>
2979

> <s_m_entry_name>
wee1_decoys_glide_SP.2704

> <s_m_subgroup_title>
wee1_decoys_glide_SP

> <s_m_subgroupid>
wee1_decoys_glide_SP


$$$$
