ZINC36309751_5698
                    3D
 Schrodinger Suite 2024-2.
 73 76  0  0  1  0            999 V2000
   -3.4349   50.6180   26.5575 C   0  0  0  0  0  0
   -3.1797   50.6572   25.0395 C   0  0  0  0  0  0
   -3.7527   51.9210   24.3650 C   0  0  0  0  0  0
   -1.6630   50.4586   24.7198 N   0  3  2  0  0  0
   -0.6769   51.4604   25.4025 C   0  0  0  0  0  0
   -0.1414   50.8853   26.7333 C   0  0  2  0  0  0
   -0.9189   50.8542   27.4948 H   0  0  0  0  0  0
    1.0103   51.7563   27.2832 C   0  0  0  0  0  0
    1.4537   51.2966   28.5562 O   0  0  0  0  0  0
    2.5164   52.0588   29.1254 C   0  0  0  0  0  0
    2.0225   53.4136   29.6122 C   0  0  0  0  0  0
    0.8906   53.4863   30.4282 C   0  0  0  0  0  0
    0.4334   54.7236   30.8677 C   0  0  0  0  0  0
    1.1039   55.8844   30.4820 C   0  0  0  0  0  0
    2.2299   55.8167   29.6692 C   0  0  0  0  0  0
    2.6987   54.5789   29.2411 C   0  0  0  0  0  0
    0.3044   49.5634   26.4820 O   0  0  0  0  0  0
   -1.4188   50.0820   23.2654 C   0  0  0  0  0  0
   -0.7395   51.1907   22.4233 C   0  0  0  0  0  0
   -1.4608   52.0972   22.0065 O   0  0  0  0  0  0
    0.6018   51.1437   22.1719 N   0  0  0  0  0  0
    1.3791   49.8859   22.2693 C   0  0  0  0  0  0
    1.1735   49.0822   20.9515 C   0  0  0  0  0  0
    1.3140   50.0260   19.7597 C   0  0  0  0  0  0
    1.2979   51.4253   19.8677 C   0  0  0  0  0  0
    1.4283   52.0488   18.6202 C   0  0  0  0  0  0
    1.5060   51.1438   17.5711 C   0  0  0  0  0  0
    1.4217   49.5005   18.1131 S   0  0  0  0  0  0
    1.2189   52.1183   21.2311 C   0  0  2  0  0  0
    0.5635   52.9854   21.1381 H   0  0  0  0  0  0
    2.5854   52.6997   21.6558 C   0  0  0  0  0  0
    2.5220   53.1975   22.9910 O   0  0  0  0  0  0
    3.6707   53.6985   23.5740 C   0  0  0  0  0  0
    4.9152   53.8023   22.9262 C   0  0  0  0  0  0
    6.0199   54.3149   23.6046 C   0  0  0  0  0  0
    5.8900   54.7279   24.9267 C   0  0  0  0  0  0
    4.6624   54.6315   25.5765 C   0  0  0  0  0  0
    3.5582   54.1197   24.9004 C   0  0  0  0  0  0
    6.9598   55.2342   25.5851 F   0  0  0  0  0  0
   -4.5046   50.5761   26.7656 H   0  0  0  0  0  0
   -2.9887   49.7360   27.0222 H   0  0  0  0  0  0
   -3.0516   51.5034   27.0622 H   0  0  0  0  0  0
   -3.6520   49.7673   24.6158 H   0  0  0  0  0  0
   -4.8117   52.0321   24.5988 H   0  0  0  0  0  0
   -3.2546   52.8334   24.6878 H   0  0  0  0  0  0
   -3.6808   51.8680   23.2810 H   0  0  0  0  0  0
    0.1793   51.6287   24.7554 H   0  0  0  0  0  0
   -1.1988   52.4085   25.5160 H   0  0  0  0  0  0
    1.8443   51.7748   26.5829 H   0  0  0  0  0  0
    0.6603   52.7863   27.3684 H   0  0  0  0  0  0
    2.9096   51.5222   29.9863 H   0  0  0  0  0  0
    3.3471   52.1505   28.4224 H   0  0  0  0  0  0
    0.3691   52.5857   30.7225 H   0  0  0  0  0  0
   -0.4385   54.7805   31.5030 H   0  0  0  0  0  0
    0.7529   56.8476   30.8238 H   0  0  0  0  0  0
    2.7353   56.7242   29.3766 H   0  0  0  0  0  0
    3.5800   54.5295   28.6185 H   0  0  0  0  0  0
   -0.1054   48.9770   27.1430 H   0  0  0  0  0  0
   -2.3729   49.8044   22.8154 H   0  0  0  0  0  0
   -0.8389   49.1663   23.3558 H   0  0  0  0  0  0
    2.4307   50.1433   22.3886 H   0  0  0  0  0  0
    1.1984   49.3335   23.1925 H   0  0  0  0  0  0
    1.9021   48.2722   20.8889 H   0  0  0  0  0  0
    0.1877   48.6185   20.9579 H   0  0  0  0  0  0
    1.4706   53.1217   18.4897 H   0  0  0  0  0  0
    1.6284   51.3529   16.5193 H   0  0  0  0  0  0
    2.8711   53.5005   20.9716 H   0  0  0  0  0  0
    3.3558   51.9289   21.5836 H   0  0  0  0  0  0
    5.0412   53.4931   21.9000 H   0  0  0  0  0  0
    6.9761   54.3963   23.1100 H   0  0  0  0  0  0
    4.5728   54.9593   26.5992 H   0  0  0  0  0  0
    2.6050   54.0484   25.4040 H   0  0  0  0  0  0
   -1.4197   49.6096   25.2175 H   0  0  0  0  0  0
  1  2  1  0  0  0
  1 40  1  0  0  0
  1 41  1  0  0  0
  1 42  1  0  0  0
  2  3  1  0  0  0
  2  4  1  0  0  0
  2 43  1  0  0  0
  3 44  1  0  0  0
  3 45  1  0  0  0
  3 46  1  0  0  0
  4  5  1  0  0  0
  4 18  1  0  0  0
  4 73  1  0  0  0
  5  6  1  0  0  0
  5 47  1  0  0  0
  5 48  1  0  0  0
  6  7  1  0  0  0
  6  8  1  0  0  0
  6 17  1  0  0  0
  8  9  1  0  0  0
  8 49  1  0  0  0
  8 50  1  0  0  0
  9 10  1  0  0  0
 10 11  1  0  0  0
 10 51  1  0  0  0
 10 52  1  0  0  0
 11 16  2  0  0  0
 11 12  1  0  0  0
 12 13  2  0  0  0
 12 53  1  0  0  0
 13 14  1  0  0  0
 13 54  1  0  0  0
 14 15  2  0  0  0
 14 55  1  0  0  0
 15 16  1  0  0  0
 15 56  1  0  0  0
 16 57  1  0  0  0
 17 58  1  0  0  0
 18 19  1  0  0  0
 18 59  1  0  0  0
 18 60  1  0  0  0
 19 20  2  0  0  0
 19 21  1  0  0  0
 21 29  1  0  0  0
 21 22  1  0  0  0
 22 23  1  0  0  0
 22 61  1  0  0  0
 22 62  1  0  0  0
 23 24  1  0  0  0
 23 63  1  0  0  0
 23 64  1  0  0  0
 24 28  1  0  0  0
 24 25  2  0  0  0
 25 26  1  0  0  0
 25 29  1  0  0  0
 26 27  2  0  0  0
 26 65  1  0  0  0
 27 28  1  0  0  0
 27 66  1  0  0  0
 29 30  1  0  0  0
 29 31  1  0  0  0
 31 32  1  0  0  0
 31 67  1  0  0  0
 31 68  1  0  0  0
 32 33  1  0  0  0
 33 38  2  0  0  0
 33 34  1  0  0  0
 34 35  2  0  0  0
 34 69  1  0  0  0
 35 36  1  0  0  0
 35 70  1  0  0  0
 36 37  2  0  0  0
 36 39  1  0  0  0
 37 38  1  0  0  0
 37 71  1  0  0  0
 38 72  1  0  0  0
M  CHG  1   4   1
M  END
> <i_i_glide_confnum>
11

> <i_i_glide_lignum>
5699

> <i_i_glide_posenum>
227

> <i_i_glide_rotatable_bonds>
14

> <i_m_Source_File_Index>
5619

> <b_m_subgroup_collapsed>
0

> <r_i_docking_score>
-6.28372

> <r_i_glide_ecoul>
-8.99866

> <r_i_glide_eff_state_penalty>
0

> <r_i_glide_einternal>
9.44008

> <r_i_glide_emodel>
-74.0316

> <r_i_glide_energy>
-54.8458

> <r_i_glide_erotb>
0.813697

> <r_i_glide_esite>
-0.0170961

> <r_i_glide_evdw>
-45.8471

> <r_i_glide_gscore>
-6.28372

> <r_i_glide_hbond>
0

> <r_i_glide_ligand_efficiency>
-0.16983

> <r_i_glide_ligand_efficiency_ln>
-1.36279

> <r_i_glide_ligand_efficiency_sa>
-0.565912

> <r_i_glide_lipo>
-3.29092

> <r_i_glide_metal>
0

> <r_i_glide_rewards>
-0.147241

> <s_i_glide_gridfile>
wee1_glide-grid

> <s_m_Source_File>
wee1_decoys_glide_SP.sdf

> <s_m_Source_Path>
/Users/zhangxujun/Desktop

> <s_m_entry_id>
5894

> <s_m_entry_name>
wee1_decoys_glide_SP.5619

> <s_m_subgroup_title>
wee1_decoys_glide_SP

> <s_m_subgroupid>
wee1_decoys_glide_SP


$$$$
