ZINC47102966_1545
                    3D
 Schrodinger Suite 2024-2.
 52 55  0  0  1  0            999 V2000
   -3.8473   50.2203   22.7717 C   0  0  0  0  0  0
   -4.8133   49.2272   22.8993 C   0  0  0  0  0  0
   -4.8444   48.4280   24.0424 C   0  0  0  0  0  0
   -3.9049   48.6090   25.0693 C   0  0  0  0  0  0
   -2.9103   49.6043   24.9352 C   0  0  0  0  0  0
   -2.9029   50.4080   23.7799 C   0  0  0  0  0  0
   -1.9293   49.7672   25.9373 N   0  0  0  0  0  0
   -1.2925   50.9010   26.2861 C   0  0  0  0  0  0
   -1.6372   52.0425   25.9681 O   0  0  0  0  0  0
   -0.2044   50.6286   27.0216 N   0  0  0  0  0  0
    0.4518   51.5112   27.9865 C   0  0  2  0  0  0
    1.2323   50.8930   28.4257 H   0  0  0  0  0  0
   -0.4425   51.9748   29.1548 C   0  0  0  0  0  0
    0.3002   52.9329   30.0939 C   0  0  0  0  0  0
    1.0011   54.0586   29.3173 C   0  0  0  0  0  0
    1.9437   53.4990   28.3339 N   0  0  0  0  0  0
    1.2314   52.6766   27.3415 C   0  0  0  0  0  0
    3.2874   53.8502   28.2333 C   0  0  0  0  0  0
    3.9893   53.3929   27.1587 N   0  0  0  0  0  0
    5.3073   53.6976   27.0999 C   0  0  0  0  0  0
    5.9354   54.4478   28.0902 C   0  0  0  0  0  0
    5.1404   54.8761   29.1547 C   0  0  0  0  0  0
    3.8229   54.5846   29.2469 N   0  0  0  0  0  0
   -4.0201   47.8264   26.2362 N   0  0  0  0  0  0
   -4.4962   48.3956   27.5014 C   0  0  0  0  0  0
   -4.4981   47.2509   28.4941 C   0  0  0  0  0  0
   -4.4141   46.0117   27.6387 C   0  0  0  0  0  0
   -3.9862   46.4661   26.2453 C   0  0  0  0  0  0
   -3.6930   45.6973   25.3252 O   0  0  0  0  0  0
   -3.8252   50.8465   21.8908 H   0  0  0  0  0  0
   -5.5450   49.0803   22.1188 H   0  0  0  0  0  0
   -5.6159   47.6753   24.1338 H   0  0  0  0  0  0
   -2.1506   51.1720   23.6456 H   0  0  0  0  0  0
   -1.8231   48.9957   26.5891 H   0  0  0  0  0  0
    0.1772   49.6979   26.9373 H   0  0  0  0  0  0
   -1.2974   52.4966   28.7393 H   0  0  0  0  0  0
   -0.8294   51.1194   29.7132 H   0  0  0  0  0  0
   -0.4018   53.3590   30.8122 H   0  0  0  0  0  0
    1.0308   52.3924   30.6980 H   0  0  0  0  0  0
    0.2754   54.6611   28.7751 H   0  0  0  0  0  0
    1.4889   54.7305   30.0246 H   0  0  0  0  0  0
    1.9062   52.2486   26.5995 H   0  0  0  0  0  0
    0.5531   53.2963   26.7608 H   0  0  0  0  0  0
    5.8567   53.3204   26.2485 H   0  0  0  0  0  0
    6.9897   54.6814   28.0439 H   0  0  0  0  0  0
    5.5677   55.4478   29.9627 H   0  0  0  0  0  0
   -3.8571   49.2124   27.8390 H   0  0  0  0  0  0
   -5.5001   48.7930   27.3690 H   0  0  0  0  0  0
   -5.3726   47.2733   29.1446 H   0  0  0  0  0  0
   -3.6163   47.3155   29.1330 H   0  0  0  0  0  0
   -5.3852   45.5213   27.5465 H   0  0  0  0  0  0
   -3.6966   45.2960   28.0449 H   0  0  0  0  0  0
  1  6  2  0  0  0
  1  2  1  0  0  0
  1 30  1  0  0  0
  2  3  2  0  0  0
  2 31  1  0  0  0
  3  4  1  0  0  0
  3 32  1  0  0  0
  4  5  2  0  0  0
  4 24  1  0  0  0
  5  6  1  0  0  0
  5  7  1  0  0  0
  6 33  1  0  0  0
  7  8  1  0  0  0
  7 34  1  0  0  0
  8  9  2  0  0  0
  8 10  1  0  0  0
 10 11  1  0  0  0
 10 35  1  0  0  0
 11 12  1  0  0  0
 11 17  1  0  0  0
 11 13  1  0  0  0
 13 14  1  0  0  0
 13 36  1  0  0  0
 13 37  1  0  0  0
 14 15  1  0  0  0
 14 38  1  0  0  0
 14 39  1  0  0  0
 15 16  1  0  0  0
 15 40  1  0  0  0
 15 41  1  0  0  0
 16 17  1  0  0  0
 16 18  1  0  0  0
 17 42  1  0  0  0
 17 43  1  0  0  0
 18 23  2  0  0  0
 18 19  1  0  0  0
 19 20  2  0  0  0
 20 21  1  0  0  0
 20 44  1  0  0  0
 21 22  2  0  0  0
 21 45  1  0  0  0
 22 23  1  0  0  0
 22 46  1  0  0  0
 24 28  1  0  0  0
 24 25  1  0  0  0
 25 26  1  0  0  0
 25 47  1  0  0  0
 25 48  1  0  0  0
 26 27  1  0  0  0
 26 49  1  0  0  0
 26 50  1  0  0  0
 27 28  1  0  0  0
 27 51  1  0  0  0
 27 52  1  0  0  0
 28 29  2  0  0  0
M  END
> <i_i_glide_confnum>
119

> <i_i_glide_lignum>
1546

> <i_i_glide_posenum>
287

> <i_i_glide_rotatable_bonds>
6

> <i_m_Source_File_Index>
4430

> <b_m_subgroup_collapsed>
0

> <r_i_docking_score>
-4.76212

> <r_i_glide_ecoul>
-7.58273

> <r_i_glide_eff_state_penalty>
0

> <r_i_glide_einternal>
3.88632

> <r_i_glide_emodel>
-51.1554

> <r_i_glide_energy>
-40.2024

> <r_i_glide_erotb>
0.804238

> <r_i_glide_esite>
-0.366801

> <r_i_glide_evdw>
-32.6197

> <r_i_glide_gscore>
-4.76212

> <r_i_glide_hbond>
-0.32

> <r_i_glide_ligand_efficiency>
-0.170076

> <r_i_glide_ligand_efficiency_ln>
-1.09924

> <r_i_glide_ligand_efficiency_sa>
-0.51645

> <r_i_glide_lipo>
-0.910374

> <r_i_glide_metal>
0

> <r_i_glide_rewards>
-1.20079

> <s_i_glide_gridfile>
wee1_glide-grid

> <s_m_Source_File>
wee1_decoys_glide_SP.sdf

> <s_m_Source_Path>
/Users/zhangxujun/Desktop

> <s_m_entry_id>
4705

> <s_m_entry_name>
wee1_decoys_glide_SP.4430

> <s_m_subgroup_title>
wee1_decoys_glide_SP

> <s_m_subgroupid>
wee1_decoys_glide_SP


$$$$
