ZINC40899612_5759
                    3D
 Schrodinger Suite 2024-2.
 74 78  0  0  1  0            999 V2000
   -0.0222   52.1280   29.6917 C   0  0  0  0  0  0
    1.2794   52.6486   29.9454 O   0  0  0  0  0  0
    2.0961   53.0018   28.8869 C   0  0  0  0  0  0
    1.7000   52.9591   27.5425 C   0  0  0  0  0  0
    2.5847   53.3335   26.5293 C   0  0  0  0  0  0
    3.8847   53.7529   26.8331 C   0  0  0  0  0  0
    4.2791   53.8028   28.1728 C   0  0  0  0  0  0
    3.4022   53.4245   29.1895 C   0  0  0  0  0  0
    3.8537   53.5046   30.4816 O   0  0  0  0  0  0
    4.0686   52.2515   31.1127 C   0  0  0  0  0  0
    4.8373   54.1211   25.7432 C   0  0  0  0  0  0
    4.6186   54.0966   24.4555 N   0  0  0  0  0  0
    5.7718   54.4968   23.9513 C   0  0  0  0  0  0
    6.7050   54.7899   24.8364 N   0  0  0  0  0  0
    6.0927   54.5303   26.0621 O   0  0  0  0  0  0
    5.9715   54.6603   22.4693 C   0  0  0  0  0  0
    4.9829   54.2274   21.5746 C   0  0  0  0  0  0
    5.0819   54.4967   20.2097 C   0  0  0  0  0  0
    6.1725   55.2023   19.6932 C   0  0  0  0  0  0
    7.2218   55.5378   20.5727 C   0  0  0  0  0  0
    7.1037   55.2957   21.9430 C   0  0  0  0  0  0
    8.3682   56.0968   20.1262 F   0  0  0  0  0  0
    6.1773   55.5294   18.3366 N   0  0  0  0  0  0
    6.9175   56.6900   17.8057 C   0  0  0  0  0  0
    6.2558   57.2993   16.5468 C   0  0  0  0  0  0
    6.0055   56.2645   15.4349 C   0  0  0  0  0  0
    5.2622   55.0705   16.0695 C   0  0  2  0  0  0
    4.2823   55.4182   16.4044 H   0  0  0  0  0  0
    6.0284   54.4940   17.2981 C   0  0  0  0  0  0
    4.8394   54.0289   15.0086 C   0  0  0  0  0  0
    4.3318   54.4130   13.9522 O   0  0  0  0  0  0
    5.0521   52.7244   15.2551 N   0  0  0  0  0  0
    4.8097   51.6456   14.2970 C   0  0  0  0  0  0
    5.9449   51.5151   13.2621 C   0  0  0  0  0  0
    5.8853   50.2550   12.4107 C   0  0  0  0  0  0
    5.6457   50.3115   11.0805 C   0  0  0  0  0  0
    5.6396   49.1123   10.1383 C   0  0  0  0  0  0
    6.2694   47.8648   10.7989 C   0  0  0  0  0  0
    5.8419   47.7136   12.2658 C   0  0  0  0  0  0
    6.2194   48.9387   13.1107 C   0  0  0  0  0  0
   -0.4971   51.8639   30.6371 H   0  0  0  0  0  0
   -0.6597   52.8628   29.1990 H   0  0  0  0  0  0
    0.0132   51.2227   29.0828 H   0  0  0  0  0  0
    0.7098   52.6337   27.2624 H   0  0  0  0  0  0
    2.2520   53.2865   25.5028 H   0  0  0  0  0  0
    5.2759   54.1236   28.4307 H   0  0  0  0  0  0
    4.5144   52.4180   32.0898 H   0  0  0  0  0  0
    3.1442   51.6962   31.2675 H   0  0  0  0  0  0
    4.7588   51.6364   30.5346 H   0  0  0  0  0  0
    4.0950   53.7226   21.9324 H   0  0  0  0  0  0
    4.2710   54.1977   19.5609 H   0  0  0  0  0  0
    7.9035   55.6222   22.5902 H   0  0  0  0  0  0
    7.9552   56.4067   17.6068 H   0  0  0  0  0  0
    6.9349   57.4717   18.5681 H   0  0  0  0  0  0
    6.8993   58.0905   16.1606 H   0  0  0  0  0  0
    5.3322   57.8059   16.8340 H   0  0  0  0  0  0
    6.9818   55.9621   15.0491 H   0  0  0  0  0  0
    5.4074   56.7666   14.6708 H   0  0  0  0  0  0
    5.5367   53.5963   17.6801 H   0  0  0  0  0  0
    7.0407   54.2038   17.0054 H   0  0  0  0  0  0
    5.3999   52.4474   16.1614 H   0  0  0  0  0  0
    3.8450   51.7609   13.8000 H   0  0  0  0  0  0
    4.7217   50.7298   14.8772 H   0  0  0  0  0  0
    6.9094   51.5143   13.7722 H   0  0  0  0  0  0
    5.9378   52.3954   12.6175 H   0  0  0  0  0  0
    5.4399   51.2818   10.6475 H   0  0  0  0  0  0
    6.1665   49.3485    9.2121 H   0  0  0  0  0  0
    4.6079   48.9040    9.8503 H   0  0  0  0  0  0
    7.3555   47.9416   10.7560 H   0  0  0  0  0  0
    5.9927   46.9674   10.2463 H   0  0  0  0  0  0
    4.7638   47.5625   12.3114 H   0  0  0  0  0  0
    6.3042   46.8314   12.7030 H   0  0  0  0  0  0
    5.7287   48.8738   14.0812 H   0  0  0  0  0  0
    7.2867   48.9232   13.3383 H   0  0  0  0  0  0
  1  2  1  0  0  0
  1 41  1  0  0  0
  1 42  1  0  0  0
  1 43  1  0  0  0
  2  3  1  0  0  0
  3  8  2  0  0  0
  3  4  1  0  0  0
  4  5  2  0  0  0
  4 44  1  0  0  0
  5  6  1  0  0  0
  5 45  1  0  0  0
  6  7  2  0  0  0
  6 11  1  0  0  0
  7  8  1  0  0  0
  7 46  1  0  0  0
  8  9  1  0  0  0
  9 10  1  0  0  0
 10 47  1  0  0  0
 10 48  1  0  0  0
 10 49  1  0  0  0
 11 15  1  0  0  0
 11 12  2  0  0  0
 12 13  1  0  0  0
 13 14  2  0  0  0
 13 16  1  0  0  0
 14 15  1  0  0  0
 16 21  2  0  0  0
 16 17  1  0  0  0
 17 18  2  0  0  0
 17 50  1  0  0  0
 18 19  1  0  0  0
 18 51  1  0  0  0
 19 20  2  0  0  0
 19 23  1  0  0  0
 20 21  1  0  0  0
 20 22  1  0  0  0
 21 52  1  0  0  0
 23 29  1  0  0  0
 23 24  1  0  0  0
 24 25  1  0  0  0
 24 53  1  0  0  0
 24 54  1  0  0  0
 25 26  1  0  0  0
 25 55  1  0  0  0
 25 56  1  0  0  0
 26 27  1  0  0  0
 26 57  1  0  0  0
 26 58  1  0  0  0
 27 28  1  0  0  0
 27 29  1  0  0  0
 27 30  1  0  0  0
 29 59  1  0  0  0
 29 60  1  0  0  0
 30 31  2  0  0  0
 30 32  1  0  0  0
 32 33  1  0  0  0
 32 61  1  0  0  0
 33 34  1  0  0  0
 33 62  1  0  0  0
 33 63  1  0  0  0
 34 35  1  0  0  0
 34 64  1  0  0  0
 34 65  1  0  0  0
 35 40  1  0  0  0
 35 36  2  0  0  0
 36 37  1  0  0  0
 36 66  1  0  0  0
 37 38  1  0  0  0
 37 67  1  0  0  0
 37 68  1  0  0  0
 38 39  1  0  0  0
 38 69  1  0  0  0
 38 70  1  0  0  0
 39 40  1  0  0  0
 39 71  1  0  0  0
 39 72  1  0  0  0
 40 73  1  0  0  0
 40 74  1  0  0  0
M  END
> <i_i_glide_confnum>
207

> <i_i_glide_lignum>
5760

> <i_i_glide_posenum>
215

> <i_i_glide_rotatable_bonds>
10

> <i_m_Source_File_Index>
413

> <b_m_subgroup_collapsed>
0

> <r_i_docking_score>
-6.01625

> <r_i_glide_ecoul>
-3.64538

> <r_i_glide_eff_state_penalty>
0

> <r_i_glide_einternal>
11.4053

> <r_i_glide_emodel>
-64.8026

> <r_i_glide_energy>
-50.4142

> <r_i_glide_erotb>
0.505478

> <r_i_glide_esite>
-0.0265617

> <r_i_glide_evdw>
-46.7688

> <r_i_glide_gscore>
-6.01625

> <r_i_glide_hbond>
-0.32

> <r_i_glide_ligand_efficiency>
-0.154263

> <r_i_glide_ligand_efficiency_ln>
-1.29006

> <r_i_glide_ligand_efficiency_sa>
-0.523138

> <r_i_glide_lipo>
-2.52703

> <r_i_glide_metal>
0

> <r_i_glide_rewards>
-0.762892

> <s_i_glide_gridfile>
wee1_glide-grid

> <s_m_Source_File>
wee1_decoys_glide_SP.sdf

> <s_m_Source_Path>
/Users/zhangxujun/Desktop

> <s_m_entry_id>
688

> <s_m_entry_name>
wee1_decoys_glide_SP.413

> <s_m_subgroup_title>
wee1_decoys_glide_SP

> <s_m_subgroupid>
wee1_decoys_glide_SP


$$$$
