ZINC19909684_3762
                    3D
 Schrodinger Suite 2024-2.
 37 39  0  0  1  0            999 V2000
   -0.2898   51.2124   20.9884 C   0  0  0  0  0  0
    0.0412   51.5617   22.4306 C   0  0  0  0  0  0
    0.6723   52.6590   22.6545 N   0  0  0  0  0  0
    0.9493   52.9479   23.8763 N   0  0  0  0  0  0
    2.1355   53.3830   24.0965 C   0  0  0  0  0  0
    2.6913   53.6966   25.3357 N   0  0  0  0  0  0
    4.0348   54.0988   25.3648 C   0  0  0  0  0  0
    4.8127   54.4439   26.4780 C   0  0  0  0  0  0
    6.1475   54.8138   26.3080 C   0  0  0  0  0  0
    6.7047   54.8387   25.0280 C   0  0  0  0  0  0
    5.9356   54.4970   23.9187 C   0  0  0  0  0  0
    4.6020   54.1344   24.0978 C   0  0  0  0  0  0
    3.4434   53.6967   22.8679 S   0  0  0  0  0  0
    1.9603   53.5400   26.5958 C   0  0  0  0  0  0
   -0.3293   50.5132   23.4077 C   0  0  0  0  0  0
    0.6533   49.8709   24.1743 C   0  0  0  0  0  0
    0.3043   48.8971   25.1078 C   0  0  0  0  0  0
   -1.0306   48.5446   25.2819 C   0  0  0  0  0  0
   -2.0203   49.1713   24.5281 C   0  0  0  0  0  0
   -1.6719   50.1476   23.5922 C   0  0  0  0  0  0
   -3.3550   48.8299   24.7314 N   0  0  0  0  0  0
   -1.2694   50.7448   20.8864 H   0  0  0  0  0  0
   -0.2606   52.0919   20.3385 H   0  0  0  0  0  0
    0.4520   50.5179   20.5922 H   0  0  0  0  0  0
    4.3983   54.4250   27.4756 H   0  0  0  0  0  0
    6.7452   55.0752   27.1709 H   0  0  0  0  0  0
    7.7348   55.1194   24.8850 H   0  0  0  0  0  0
    6.3774   54.5211   22.9341 H   0  0  0  0  0  0
    2.4747   52.8340   27.2490 H   0  0  0  0  0  0
    1.8935   54.4953   27.1170 H   0  0  0  0  0  0
    0.9431   53.1708   26.4546 H   0  0  0  0  0  0
    1.6979   50.1309   24.0549 H   0  0  0  0  0  0
    1.0697   48.4209   25.7028 H   0  0  0  0  0  0
   -1.2838   47.8010   26.0245 H   0  0  0  0  0  0
   -2.4502   50.6342   23.0231 H   0  0  0  0  0  0
   -4.0612   49.4138   24.3076 H   0  0  0  0  0  0
   -3.5725   48.3299   25.5826 H   0  0  0  0  0  0
  1  2  1  0  0  0
  1 22  1  0  0  0
  1 23  1  0  0  0
  1 24  1  0  0  0
  2  3  2  0  0  0
  2 15  1  0  0  0
  3  4  1  0  0  0
  4  5  2  0  0  0
  5 13  1  0  0  0
  5  6  1  0  0  0
  6  7  1  0  0  0
  6 14  1  0  0  0
  7 12  2  0  0  0
  7  8  1  0  0  0
  8  9  2  0  0  0
  8 25  1  0  0  0
  9 10  1  0  0  0
  9 26  1  0  0  0
 10 11  2  0  0  0
 10 27  1  0  0  0
 11 12  1  0  0  0
 11 28  1  0  0  0
 12 13  1  0  0  0
 14 29  1  0  0  0
 14 30  1  0  0  0
 14 31  1  0  0  0
 15 20  2  0  0  0
 15 16  1  0  0  0
 16 17  2  0  0  0
 16 32  1  0  0  0
 17 18  1  0  0  0
 17 33  1  0  0  0
 18 19  2  0  0  0
 18 34  1  0  0  0
 19 20  1  0  0  0
 19 21  1  0  0  0
 20 35  1  0  0  0
 21 36  1  0  0  0
 21 37  1  0  0  0
M  END
> <i_i_glide_confnum>
4

> <i_i_glide_lignum>
3763

> <i_i_glide_posenum>
256

> <i_i_glide_rotatable_bonds>
2

> <i_m_Source_File_Index>
2732

> <b_m_subgroup_collapsed>
0

> <r_i_docking_score>
-5.41145

> <r_i_glide_ecoul>
-0.988818

> <r_i_glide_eff_state_penalty>
0

> <r_i_glide_einternal>
6.27588

> <r_i_glide_emodel>
-41.4611

> <r_i_glide_energy>
-33.2533

> <r_i_glide_erotb>
0.417068

> <r_i_glide_esite>
-0.0192844

> <r_i_glide_evdw>
-32.2645

> <r_i_glide_gscore>
-5.41145

> <r_i_glide_hbond>
0

> <r_i_glide_ligand_efficiency>
-0.257688

> <r_i_glide_ligand_efficiency_ln>
-1.33797

> <r_i_glide_ligand_efficiency_sa>
-0.710942

> <r_i_glide_lipo>
-2.22641

> <r_i_glide_metal>
0

> <r_i_glide_rewards>
-1.82128

> <s_i_glide_gridfile>
wee1_glide-grid

> <s_m_Source_File>
wee1_decoys_glide_SP.sdf

> <s_m_Source_Path>
/Users/zhangxujun/Desktop

> <s_m_entry_id>
3007

> <s_m_entry_name>
wee1_decoys_glide_SP.2732

> <s_m_subgroup_title>
wee1_decoys_glide_SP

> <s_m_subgroupid>
wee1_decoys_glide_SP


$$$$
