ZINC45781596_4153
                    3D
 Schrodinger Suite 2024-2.
 56 58  0  0  1  0            999 V2000
   -2.4209   51.5723   21.4770 C   0  0  0  0  0  0
   -1.4244   50.4046   21.6534 C   0  0  1  0  0  0
   -1.8531   49.6196   21.0267 H   0  0  0  0  0  0
   -0.0685   50.7775   21.0426 C   0  0  0  0  0  0
    0.2966   50.2507   19.7988 C   0  0  0  0  0  0
    1.5477   50.5329   19.2535 C   0  0  0  0  0  0
    2.4411   51.3500   19.9427 C   0  0  0  0  0  0
    2.0840   51.9104   21.1731 C   0  0  0  0  0  0
    0.8230   51.6200   21.7212 C   0  0  0  0  0  0
    3.0660   52.6851   21.8085 N   0  0  0  0  0  0
    2.9495   53.5852   22.8093 C   0  0  0  0  0  0
    1.8820   53.9776   23.2853 O   0  0  0  0  0  0
    4.2689   54.0776   23.3680 C   0  0  0  0  0  0
    4.3480   54.4959   24.7035 C   0  0  0  0  0  0
    5.5598   54.8975   25.2551 C   0  0  0  0  0  0
    6.7021   54.9038   24.4635 C   0  0  0  0  0  0
    6.6454   54.5132   23.1299 C   0  0  0  0  0  0
    5.4355   54.0976   22.5826 C   0  0  0  0  0  0
   -1.3093   49.7573   22.9955 N   0  0  0  0  0  0
   -0.5015   48.5292   22.9393 C   0  0  0  0  0  0
   -1.7685   50.2532   24.1858 C   0  0  0  0  0  0
   -2.4785   51.2580   24.2639 O   0  0  0  0  0  0
   -1.3899   49.5615   25.5275 C   0  0  0  0  0  0
   -0.7701   50.4967   26.4816 N   0  0  0  0  0  0
    0.2900   51.2842   26.2157 C   0  0  0  0  0  0
    0.8476   51.2977   25.1170 O   0  0  0  0  0  0
    0.7725   52.2045   27.3116 C   0  0  0  0  0  0
    1.5048   53.3459   26.9615 C   0  0  0  0  0  0
    1.9788   54.2276   27.9316 C   0  0  0  0  0  0
    1.7288   53.9734   29.2748 C   0  0  0  0  0  0
    1.0129   52.8374   29.6438 C   0  0  0  0  0  0
    0.5326   51.9546   28.6728 C   0  0  0  0  0  0
    0.7078   52.4986   31.4849 Br  0  0  0  0  0  0
   -2.5284   51.8372   20.4252 H   0  0  0  0  0  0
   -3.4088   51.2964   21.8424 H   0  0  0  0  0  0
   -2.0959   52.4659   22.0108 H   0  0  0  0  0  0
   -0.3810   49.6058   19.2575 H   0  0  0  0  0  0
    1.8343   50.1113   18.3009 H   0  0  0  0  0  0
    3.4120   51.5408   19.5048 H   0  0  0  0  0  0
    0.5337   52.0126   22.6836 H   0  0  0  0  0  0
    4.0000   52.5283   21.4671 H   0  0  0  0  0  0
    3.4724   54.5097   25.3294 H   0  0  0  0  0  0
    5.6099   55.2080   26.2884 H   0  0  0  0  0  0
    7.6421   55.2233   24.8815 H   0  0  0  0  0  0
    7.5373   54.5349   22.5218 H   0  0  0  0  0  0
    5.4227   53.8064   21.5425 H   0  0  0  0  0  0
    0.5427   48.7521   23.1640 H   0  0  0  0  0  0
   -0.8567   47.7590   23.6229 H   0  0  0  0  0  0
   -0.5400   48.0798   21.9473 H   0  0  0  0  0  0
   -0.7030   48.7243   25.4320 H   0  0  0  0  0  0
   -2.2992   49.1653   25.9794 H   0  0  0  0  0  0
   -1.1165   50.4216   27.4285 H   0  0  0  0  0  0
    1.6834   53.5630   25.9190 H   0  0  0  0  0  0
    2.5332   55.1076   27.6412 H   0  0  0  0  0  0
    2.0891   54.6576   30.0287 H   0  0  0  0  0  0
   -0.0149   51.0788   28.9937 H   0  0  0  0  0  0
  1  2  1  0  0  0
  1 34  1  0  0  0
  1 35  1  0  0  0
  1 36  1  0  0  0
  2  3  1  0  0  0
  2  4  1  0  0  0
  2 19  1  0  0  0
  4  9  2  0  0  0
  4  5  1  0  0  0
  5  6  2  0  0  0
  5 37  1  0  0  0
  6  7  1  0  0  0
  6 38  1  0  0  0
  7  8  2  0  0  0
  7 39  1  0  0  0
  8  9  1  0  0  0
  8 10  1  0  0  0
  9 40  1  0  0  0
 10 11  1  0  0  0
 10 41  1  0  0  0
 11 12  2  0  0  0
 11 13  1  0  0  0
 13 18  2  0  0  0
 13 14  1  0  0  0
 14 15  2  0  0  0
 14 42  1  0  0  0
 15 16  1  0  0  0
 15 43  1  0  0  0
 16 17  2  0  0  0
 16 44  1  0  0  0
 17 18  1  0  0  0
 17 45  1  0  0  0
 18 46  1  0  0  0
 19 20  1  0  0  0
 19 21  1  0  0  0
 20 47  1  0  0  0
 20 48  1  0  0  0
 20 49  1  0  0  0
 21 22  2  0  0  0
 21 23  1  0  0  0
 23 24  1  0  0  0
 23 50  1  0  0  0
 23 51  1  0  0  0
 24 25  1  0  0  0
 24 52  1  0  0  0
 25 26  2  0  0  0
 25 27  1  0  0  0
 27 32  2  0  0  0
 27 28  1  0  0  0
 28 29  2  0  0  0
 28 53  1  0  0  0
 29 30  1  0  0  0
 29 54  1  0  0  0
 30 31  2  0  0  0
 30 55  1  0  0  0
 31 32  1  0  0  0
 31 33  1  0  0  0
 32 56  1  0  0  0
M  END
> <i_i_glide_confnum>
110

> <i_i_glide_lignum>
4154

> <i_i_glide_posenum>
191

> <i_i_glide_rotatable_bonds>
10

> <i_m_Source_File_Index>
4549

> <b_m_subgroup_collapsed>
0

> <r_i_docking_score>
-4.64359

> <r_i_glide_ecoul>
-1.5782

> <r_i_glide_eff_state_penalty>
0

> <r_i_glide_einternal>
8.79795

> <r_i_glide_emodel>
-58.5805

> <r_i_glide_energy>
-46.3332

> <r_i_glide_erotb>
0.750383

> <r_i_glide_esite>
-0.105056

> <r_i_glide_evdw>
-44.755

> <r_i_glide_gscore>
-4.64359

> <r_i_glide_hbond>
-0.0235329

> <r_i_glide_ligand_efficiency>
-0.145112

> <r_i_glide_ligand_efficiency_ln>
-1.03983

> <r_i_glide_ligand_efficiency_sa>
-0.460702

> <r_i_glide_lipo>
-2.49095

> <r_i_glide_metal>
0

> <r_i_glide_rewards>
-0.299953

> <s_i_glide_gridfile>
wee1_glide-grid

> <s_m_Source_File>
wee1_decoys_glide_SP.sdf

> <s_m_Source_Path>
/Users/zhangxujun/Desktop

> <s_m_entry_id>
4824

> <s_m_entry_name>
wee1_decoys_glide_SP.4549

> <s_m_subgroup_title>
wee1_decoys_glide_SP

> <s_m_subgroupid>
wee1_decoys_glide_SP


$$$$
