ZINC14067390_1127
                    3D
 Schrodinger Suite 2024-2.
 62 65  0  0  1  0            999 V2000
    2.3379   51.1975   18.7685 C   0  0  0  0  0  0
    2.8445   52.5196   19.3577 C   0  0  1  0  0  0
    2.0970   53.2958   19.1767 H   0  0  0  0  0  0
    3.0726   52.3247   20.8769 C   0  0  0  0  0  0
    3.9422   51.5517   21.2817 O   0  0  0  0  0  0
    2.3160   53.0965   21.6814 N   0  0  0  0  0  0
    2.2487   53.1880   23.1500 C   0  0  0  0  0  0
    1.4642   52.0428   23.8320 C   0  0  0  0  0  0
    1.6289   50.6990   23.4641 C   0  0  0  0  0  0
    0.8854   49.6965   24.0820 C   0  0  0  0  0  0
   -0.0368   50.0258   25.0705 C   0  0  0  0  0  0
   -0.2379   51.3555   25.4270 C   0  0  0  0  0  0
    0.4996   52.3563   24.7997 C   0  0  0  0  0  0
    3.5021   53.6982   23.9078 C   0  0  0  0  0  0
    4.7527   53.8775   23.2896 C   0  0  0  0  0  0
    5.8422   54.3723   24.0039 C   0  0  0  0  0  0
    5.6925   54.7086   25.3452 C   0  0  0  0  0  0
    4.4597   54.5639   25.9725 C   0  0  0  0  0  0
    3.3716   54.0773   25.2529 C   0  0  0  0  0  0
    4.1507   53.1173   18.7518 N   0  3  0  0  0  0
    4.1455   53.0980   17.2061 C   0  0  0  0  0  0
    5.4277   53.7584   16.6421 C   0  0  0  0  0  0
    5.7217   55.1018   17.1834 N   0  0  0  0  0  0
    5.6860   55.1049   18.6556 C   0  0  0  0  0  0
    4.3588   54.5805   19.2125 C   0  0  0  0  0  0
    6.1434   56.1984   16.4246 C   0  0  0  0  0  0
    6.5682   56.0762   15.0922 C   0  0  0  0  0  0
    6.9428   57.2191   14.3833 C   0  0  0  0  0  0
    6.8808   58.4743   14.9982 C   0  0  0  0  0  0
    6.4468   58.5249   16.3258 C   0  0  0  0  0  0
    6.0875   57.4212   17.0273 N   0  0  0  0  0  0
    7.3007   59.7424   14.2587 C   0  0  0  0  0  0
    7.8309   60.6359   15.0950 F   0  0  0  0  0  0
    8.2089   59.4734   13.3195 F   0  0  0  0  0  0
    6.2333   60.2800   13.6728 F   0  0  0  0  0  0
    1.4506   50.8506   19.2994 H   0  0  0  0  0  0
    2.0652   51.3247   17.7211 H   0  0  0  0  0  0
    3.1043   50.4226   18.8276 H   0  0  0  0  0  0
    1.7324   53.7746   21.2057 H   0  0  0  0  0  0
    1.5854   54.0505   23.2402 H   0  0  0  0  0  0
    2.3485   50.4016   22.7204 H   0  0  0  0  0  0
    1.0403   48.6627   23.8094 H   0  0  0  0  0  0
   -0.5992   49.2461   25.5662 H   0  0  0  0  0  0
   -0.9619   51.6053   26.1884 H   0  0  0  0  0  0
    0.3215   53.3813   25.0793 H   0  0  0  0  0  0
    4.9156   53.6344   22.2552 H   0  0  0  0  0  0
    6.8011   54.4903   23.5196 H   0  0  0  0  0  0
    6.5367   55.0855   25.9024 H   0  0  0  0  0  0
    4.3468   54.8316   27.0134 H   0  0  0  0  0  0
    2.4254   53.9820   25.7622 H   0  0  0  0  0  0
    4.1313   52.0454   16.9210 H   0  0  0  0  0  0
    3.2343   53.5963   16.8695 H   0  0  0  0  0  0
    6.2927   53.1499   16.9144 H   0  0  0  0  0  0
    5.3768   53.7494   15.5544 H   0  0  0  0  0  0
    5.8814   56.0943   19.0701 H   0  0  0  0  0  0
    6.5172   54.4823   18.9909 H   0  0  0  0  0  0
    3.5044   55.1749   18.8816 H   0  0  0  0  0  0
    4.4068   54.5897   20.2996 H   0  0  0  0  0  0
    6.6331   55.1188   14.6003 H   0  0  0  0  0  0
    7.2777   57.1245   13.3603 H   0  0  0  0  0  0
    6.3707   59.4686   16.8504 H   0  0  0  0  0  0
    4.9310   52.5486   19.0605 H   0  0  0  0  0  0
  1  2  1  0  0  0
  1 36  1  0  0  0
  1 37  1  0  0  0
  1 38  1  0  0  0
  2  3  1  0  0  0
  2  4  1  0  0  0
  2 20  1  0  0  0
  4  5  2  0  0  0
  4  6  1  0  0  0
  6  7  1  0  0  0
  6 39  1  0  0  0
  7  8  1  0  0  0
  7 14  1  0  0  0
  7 40  1  0  0  0
  8 13  2  0  0  0
  8  9  1  0  0  0
  9 10  2  0  0  0
  9 41  1  0  0  0
 10 11  1  0  0  0
 10 42  1  0  0  0
 11 12  2  0  0  0
 11 43  1  0  0  0
 12 13  1  0  0  0
 12 44  1  0  0  0
 13 45  1  0  0  0
 14 19  2  0  0  0
 14 15  1  0  0  0
 15 16  2  0  0  0
 15 46  1  0  0  0
 16 17  1  0  0  0
 16 47  1  0  0  0
 17 18  2  0  0  0
 17 48  1  0  0  0
 18 19  1  0  0  0
 18 49  1  0  0  0
 19 50  1  0  0  0
 20 25  1  0  0  0
 20 21  1  0  0  0
 20 62  1  0  0  0
 21 22  1  0  0  0
 21 51  1  0  0  0
 21 52  1  0  0  0
 22 23  1  0  0  0
 22 53  1  0  0  0
 22 54  1  0  0  0
 23 24  1  0  0  0
 23 26  1  0  0  0
 24 25  1  0  0  0
 24 55  1  0  0  0
 24 56  1  0  0  0
 25 57  1  0  0  0
 25 58  1  0  0  0
 26 31  2  0  0  0
 26 27  1  0  0  0
 27 28  2  0  0  0
 27 59  1  0  0  0
 28 29  1  0  0  0
 28 60  1  0  0  0
 29 30  2  0  0  0
 29 32  1  0  0  0
 30 31  1  0  0  0
 30 61  1  0  0  0
 32 33  1  0  0  0
 32 34  1  0  0  0
 32 35  1  0  0  0
M  CHG  1  20   1
M  END
> <i_i_glide_confnum>
104

> <i_i_glide_lignum>
1128

> <i_i_glide_posenum>
320

> <i_i_glide_rotatable_bonds>
8

> <i_m_Source_File_Index>
1909

> <b_m_subgroup_collapsed>
0

> <r_i_docking_score>
-4.85351

> <r_i_glide_ecoul>
-6.73638

> <r_i_glide_eff_state_penalty>
0

> <r_i_glide_einternal>
4.60193

> <r_i_glide_emodel>
-49.0496

> <r_i_glide_energy>
-37.442

> <r_i_glide_erotb>
0.641354

> <r_i_glide_esite>
-0.157534

> <r_i_glide_evdw>
-30.7056

> <r_i_glide_gscore>
-4.85351

> <r_i_glide_hbond>
-0.325275

> <r_i_glide_ligand_efficiency>
-0.14275

> <r_i_glide_ligand_efficiency_ln>
-1.07228

> <r_i_glide_ligand_efficiency_sa>
-0.462456

> <r_i_glide_lipo>
-2.18852

> <r_i_glide_metal>
0

> <r_i_glide_rewards>
-0.277798

> <s_i_glide_gridfile>
wee1_glide-grid

> <s_m_Source_File>
wee1_decoys_glide_SP.sdf

> <s_m_Source_Path>
/Users/zhangxujun/Desktop

> <s_m_entry_id>
2184

> <s_m_entry_name>
wee1_decoys_glide_SP.1909

> <s_m_subgroup_title>
wee1_decoys_glide_SP

> <s_m_subgroupid>
wee1_decoys_glide_SP


$$$$
