ZINC39665380_1283
                    3D
 Schrodinger Suite 2024-2.
 69 72  0  0  1  0            999 V2000
   -6.0709   50.8641   23.9230 C   0  0  0  0  0  0
   -4.5610   50.7126   23.9519 C   0  0  0  0  0  0
   -3.9434   49.6810   23.2456 C   0  0  0  0  0  0
   -2.5603   49.5266   23.2986 C   0  0  0  0  0  0
   -1.7691   50.3994   24.0585 C   0  0  0  0  0  0
   -2.3912   51.4462   24.7720 C   0  0  0  0  0  0
   -3.7828   51.5896   24.7094 C   0  0  0  0  0  0
   -1.5960   52.4402   25.6132 C   0  0  0  0  0  0
   -0.2746   50.1811   24.1052 C   0  0  0  0  0  0
    0.2621   49.9108   25.1803 O   0  0  0  0  0  0
    0.4214   50.2895   22.9473 N   0  0  0  0  0  0
    1.8818   50.1584   22.9248 C   0  0  0  0  0  0
    2.3029   50.9878   21.6962 C   0  0  1  0  0  0
    3.2072   50.5705   21.2590 H   0  0  0  0  0  0
    1.0929   50.8503   20.7181 C   0  0  0  0  0  0
   -0.1088   50.8350   21.6885 C   0  0  0  0  0  0
    1.0747   49.4828   19.9690 C   0  0  0  0  0  0
    2.2773   49.3157   19.0187 C   0  0  0  0  0  0
    2.3044   50.4967   18.0260 N   0  3  0  0  0  0
    2.1667   51.9004   18.6553 C   0  0  0  0  0  0
    0.9323   51.8984   19.5822 C   0  0  0  0  0  0
    2.5932   52.4633   22.0831 C   0  0  0  0  0  0
    1.8211   53.0861   22.8148 O   0  0  0  0  0  0
    3.7612   52.9714   21.6560 N   0  0  0  0  0  0
    4.2864   54.2919   22.0173 C   0  0  0  0  0  0
    5.1414   54.2906   23.3074 C   0  0  2  0  0  0
    5.5047   55.2967   23.4627 H   0  0  0  0  0  0
    6.3831   53.3908   23.1983 C   0  0  0  0  0  0
    4.2943   53.9286   24.3986 O   0  0  0  0  0  0
    4.6870   54.1492   25.7038 C   0  0  0  0  0  0
    3.8019   53.7268   26.6969 C   0  0  0  0  0  0
    4.1226   53.8856   28.0426 C   0  0  0  0  0  0
    5.3406   54.4626   28.3934 C   0  0  0  0  0  0
    6.2309   54.8852   27.4114 C   0  0  0  0  0  0
    5.8983   54.7523   26.0724 C   0  0  0  0  0  0
   -6.5654   49.9566   23.5719 H   0  0  0  0  0  0
   -6.4508   51.0645   24.9264 H   0  0  0  0  0  0
   -6.3610   51.6965   23.2824 H   0  0  0  0  0  0
   -4.5343   48.9890   22.6641 H   0  0  0  0  0  0
   -2.1068   48.7097   22.7547 H   0  0  0  0  0  0
   -4.2657   52.3839   25.2595 H   0  0  0  0  0  0
   -2.2182   53.2422   26.0135 H   0  0  0  0  0  0
   -1.1175   51.9286   26.4492 H   0  0  0  0  0  0
   -0.8077   52.8966   25.0133 H   0  0  0  0  0  0
    2.1713   49.1239   22.7349 H   0  0  0  0  0  0
    2.3858   50.5236   23.8207 H   0  0  0  0  0  0
   -0.3893   51.8715   21.8858 H   0  0  0  0  0  0
   -1.0012   50.3583   21.2819 H   0  0  0  0  0  0
    1.0993   48.6611   20.6855 H   0  0  0  0  0  0
    0.1392   49.3428   19.4243 H   0  0  0  0  0  0
    3.2467   49.3154   19.5119 H   0  0  0  0  0  0
    2.2144   48.4131   18.4082 H   0  0  0  0  0  0
    3.1800   50.4054   17.5025 H   0  0  0  0  0  0
    3.1080   52.0925   19.1693 H   0  0  0  0  0  0
    2.0715   52.6047   17.8270 H   0  0  0  0  0  0
    0.0157   51.7361   19.0130 H   0  0  0  0  0  0
    0.8217   52.8968   20.0074 H   0  0  0  0  0  0
    4.3461   52.4040   21.0614 H   0  0  0  0  0  0
    3.4660   55.0053   22.1201 H   0  0  0  0  0  0
    4.8897   54.6493   21.1823 H   0  0  0  0  0  0
    7.0802   53.8204   22.4820 H   0  0  0  0  0  0
    6.9292   53.2966   24.1340 H   0  0  0  0  0  0
    6.1118   52.3888   22.8795 H   0  0  0  0  0  0
    2.8663   53.2657   26.4168 H   0  0  0  0  0  0
    3.4343   53.5557   28.8069 H   0  0  0  0  0  0
    5.6014   54.5885   29.4333 H   0  0  0  0  0  0
    7.1784   55.3210   27.6817 H   0  0  0  0  0  0
    6.6036   55.1132   25.3418 H   0  0  0  0  0  0
    1.5718   50.3652   17.3440 H   0  0  0  0  0  0
  1  2  1  0  0  0
  1 36  1  0  0  0
  1 37  1  0  0  0
  1 38  1  0  0  0
  2  7  2  0  0  0
  2  3  1  0  0  0
  3  4  2  0  0  0
  3 39  1  0  0  0
  4  5  1  0  0  0
  4 40  1  0  0  0
  5  6  2  0  0  0
  5  9  1  0  0  0
  6  7  1  0  0  0
  6  8  1  0  0  0
  7 41  1  0  0  0
  8 42  1  0  0  0
  8 43  1  0  0  0
  8 44  1  0  0  0
  9 10  2  0  0  0
  9 11  1  0  0  0
 11 16  1  0  0  0
 11 12  1  0  0  0
 12 13  1  0  0  0
 12 45  1  0  0  0
 12 46  1  0  0  0
 13 14  1  0  0  0
 13 15  1  0  0  0
 13 22  1  0  0  0
 15 21  1  0  0  0
 15 16  1  0  0  0
 15 17  1  0  0  0
 16 47  1  0  0  0
 16 48  1  0  0  0
 17 18  1  0  0  0
 17 49  1  0  0  0
 17 50  1  0  0  0
 18 19  1  0  0  0
 18 51  1  0  0  0
 18 52  1  0  0  0
 19 20  1  0  0  0
 19 53  1  0  0  0
 19 69  1  0  0  0
 20 21  1  0  0  0
 20 54  1  0  0  0
 20 55  1  0  0  0
 21 56  1  0  0  0
 21 57  1  0  0  0
 22 23  2  0  0  0
 22 24  1  0  0  0
 24 25  1  0  0  0
 24 58  1  0  0  0
 25 26  1  0  0  0
 25 59  1  0  0  0
 25 60  1  0  0  0
 26 27  1  0  0  0
 26 28  1  0  0  0
 26 29  1  0  0  0
 28 61  1  0  0  0
 28 62  1  0  0  0
 28 63  1  0  0  0
 29 30  1  0  0  0
 30 35  2  0  0  0
 30 31  1  0  0  0
 31 32  2  0  0  0
 31 64  1  0  0  0
 32 33  1  0  0  0
 32 65  1  0  0  0
 33 34  2  0  0  0
 33 66  1  0  0  0
 34 35  1  0  0  0
 34 67  1  0  0  0
 35 68  1  0  0  0
M  CHG  1  19   1
M  END
> <i_i_glide_confnum>
388

> <i_i_glide_lignum>
1284

> <i_i_glide_posenum>
382

> <i_i_glide_rotatable_bonds>
8

> <i_m_Source_File_Index>
667

> <b_m_subgroup_collapsed>
0

> <r_i_docking_score>
-4.35671

> <r_i_glide_ecoul>
-1.9978

> <r_i_glide_eff_state_penalty>
0

> <r_i_glide_einternal>
6.69374

> <r_i_glide_emodel>
-46.3528

> <r_i_glide_energy>
-37.7558

> <r_i_glide_erotb>
0.691272

> <r_i_glide_esite>
-0.100584

> <r_i_glide_evdw>
-35.758

> <r_i_glide_gscore>
-4.35671

> <r_i_glide_hbond>
-0.22797

> <r_i_glide_ligand_efficiency>
-0.132021

> <r_i_glide_ligand_efficiency_ln>
-0.968909

> <r_i_glide_ligand_efficiency_sa>
-0.423463

> <r_i_glide_lipo>
-2.13329

> <r_i_glide_metal>
0

> <r_i_glide_rewards>
-0.498566

> <s_i_glide_gridfile>
wee1_glide-grid

> <s_m_Source_File>
wee1_decoys_glide_SP.sdf

> <s_m_Source_Path>
/Users/zhangxujun/Desktop

> <s_m_entry_id>
942

> <s_m_entry_name>
wee1_decoys_glide_SP.667

> <s_m_subgroup_title>
wee1_decoys_glide_SP

> <s_m_subgroupid>
wee1_decoys_glide_SP


$$$$
