ZINC40383414_495
                    3D
 Schrodinger Suite 2024-2.
 54 57  0  0  1  0            999 V2000
    6.8884   55.4616   24.6346 C   0  0  0  0  0  0
    5.6329   55.0275   25.3884 C   0  0  2  0  0  0
    5.0518   55.9313   25.5919 H   0  0  0  0  0  0
    5.9029   54.4476   26.7991 C   0  0  0  0  0  0
    4.6673   53.6948   27.3463 C   0  0  2  0  0  0
    4.8253   52.6845   26.9616 H   0  0  0  0  0  0
    3.3527   54.1207   26.6555 C   0  0  0  0  0  0
    3.3731   53.8890   25.1967 N   0  0  0  0  0  0
    4.6780   54.1426   24.5518 C   0  0  0  0  0  0
    2.2795   53.2981   24.4774 C   0  0  0  0  0  0
    2.4033   53.0771   23.1283 N   0  0  0  0  0  0
    3.2673   53.2969   22.6657 H   0  0  0  0  0  0
    1.4755   52.5374   22.3119 C   0  0  0  0  0  0
    1.6991   52.2970   21.1303 O   0  0  0  0  0  0
    0.2201   52.2596   22.9871 C   0  0  0  0  0  0
    0.1409   52.4530   24.3261 C   0  0  0  0  0  0
    1.1738   52.9593   25.0568 N   0  0  0  0  0  0
   -0.9654   52.2228   25.0613 N   0  0  0  0  0  0
   -2.2020   52.0018   24.5662 C   0  0  0  0  0  0
   -3.1741   51.8518   25.2985 O   0  0  0  0  0  0
   -2.2978   52.0975   23.0152 C   0  0  0  0  0  0
   -0.9900   51.6963   22.2321 C   0  0  2  0  0  0
   -1.0339   52.0984   21.2170 H   0  0  0  0  0  0
   -0.9173   50.1631   21.9876 C   0  0  0  0  0  0
   -1.5013   49.3795   22.7375 O   0  0  0  0  0  0
   -0.1803   49.7853   20.9183 N   0  0  0  0  0  0
   -0.0911   48.5213   20.3076 C   0  0  0  0  0  0
    0.9843   48.3162   19.4401 C   0  0  0  0  0  0
    1.1045   47.1145   18.7455 C   0  0  0  0  0  0
    0.1465   46.1176   18.9157 C   0  0  0  0  0  0
   -0.9311   46.3115   19.7759 C   0  0  0  0  0  0
   -1.0555   47.5119   20.4686 C   0  0  0  0  0  0
    0.3018   44.4691   17.9773 Br  0  0  0  0  0  0
    4.5926   53.5182   28.8696 C   0  0  0  0  0  0
    7.5030   54.5982   24.3761 H   0  0  0  0  0  0
    6.6477   55.9821   23.7073 H   0  0  0  0  0  0
    7.5035   56.1295   25.2320 H   0  0  0  0  0  0
    6.1707   55.2938   27.4359 H   0  0  0  0  0  0
    6.7440   53.7513   26.8023 H   0  0  0  0  0  0
    3.1028   55.1543   26.8926 H   0  0  0  0  0  0
    2.5470   53.5428   27.1110 H   0  0  0  0  0  0
    5.1901   53.2210   24.2916 H   0  0  0  0  0  0
    4.5020   54.6814   23.6191 H   0  0  0  0  0  0
   -0.8987   52.2827   26.0636 H   0  0  0  0  0  0
   -2.4947   53.1548   22.8391 H   0  0  0  0  0  0
   -3.1714   51.5382   22.6792 H   0  0  0  0  0  0
    0.4153   50.4983   20.5171 H   0  0  0  0  0  0
    1.7298   49.0854   19.2904 H   0  0  0  0  0  0
    1.9372   46.9649   18.0719 H   0  0  0  0  0  0
   -1.6770   45.5404   19.8967 H   0  0  0  0  0  0
   -1.9160   47.6489   21.1061 H   0  0  0  0  0  0
    4.4474   54.4792   29.3653 H   0  0  0  0  0  0
    3.7620   52.8701   29.1530 H   0  0  0  0  0  0
    5.5050   53.0709   29.2674 H   0  0  0  0  0  0
  1  2  1  0  0  0
  1 35  1  0  0  0
  1 36  1  0  0  0
  1 37  1  0  0  0
  2  3  1  0  0  0
  2  9  1  0  0  0
  2  4  1  0  0  0
  4  5  1  0  0  0
  4 38  1  0  0  0
  4 39  1  0  0  0
  5  6  1  0  0  0
  5  7  1  0  0  0
  5 34  1  0  0  0
  7  8  1  0  0  0
  7 40  1  0  0  0
  7 41  1  0  0  0
  8  9  1  0  0  0
  8 10  1  0  0  0
  9 42  1  0  0  0
  9 43  1  0  0  0
 10 17  2  0  0  0
 10 11  1  0  0  0
 11 12  1  0  0  0
 11 13  1  0  0  0
 13 14  2  0  0  0
 13 15  1  0  0  0
 15 22  1  0  0  0
 15 16  2  0  0  0
 16 17  1  0  0  0
 16 18  1  0  0  0
 18 19  1  0  0  0
 18 44  1  0  0  0
 19 20  2  0  0  0
 19 21  1  0  0  0
 21 22  1  0  0  0
 21 45  1  0  0  0
 21 46  1  0  0  0
 22 23  1  0  0  0
 22 24  1  0  0  0
 24 25  2  0  0  0
 24 26  1  0  0  0
 26 27  1  0  0  0
 26 47  1  0  0  0
 27 32  2  0  0  0
 27 28  1  0  0  0
 28 29  2  0  0  0
 28 48  1  0  0  0
 29 30  1  0  0  0
 29 49  1  0  0  0
 30 31  2  0  0  0
 30 33  1  0  0  0
 31 32  1  0  0  0
 31 50  1  0  0  0
 32 51  1  0  0  0
 34 52  1  0  0  0
 34 53  1  0  0  0
 34 54  1  0  0  0
M  END
> <i_i_glide_confnum>
40

> <i_i_glide_lignum>
496

> <i_i_glide_posenum>
256

> <i_i_glide_rotatable_bonds>
4

> <i_m_Source_File_Index>
4850

> <b_m_subgroup_collapsed>
0

> <r_i_docking_score>
-4.29473

> <r_i_glide_ecoul>
1.88753

> <r_i_glide_eff_state_penalty>
0

> <r_i_glide_einternal>
3.44577

> <r_i_glide_emodel>
-48.4671

> <r_i_glide_energy>
-38.7917

> <r_i_glide_erotb>
0.359707

> <r_i_glide_esite>
-0.000161364

> <r_i_glide_evdw>
-40.6792

> <r_i_glide_gscore>
-4.29473

> <r_i_glide_hbond>
0

> <r_i_glide_ligand_efficiency>
-0.143158

> <r_i_glide_ligand_efficiency_ln>
-0.975809

> <r_i_glide_ligand_efficiency_sa>
-0.444824

> <r_i_glide_lipo>
-2.00158

> <r_i_glide_metal>
0

> <r_i_glide_rewards>
-0.901867

> <s_i_glide_gridfile>
wee1_glide-grid

> <s_m_Source_File>
wee1_decoys_glide_SP.sdf

> <s_m_Source_Path>
/Users/zhangxujun/Desktop

> <s_m_entry_id>
5125

> <s_m_entry_name>
wee1_decoys_glide_SP.4850

> <s_m_subgroup_title>
wee1_decoys_glide_SP

> <s_m_subgroupid>
wee1_decoys_glide_SP


$$$$
