ZINC02528649_3859
                    3D
 Schrodinger Suite 2024-2.
 27 28  0  0  1  0            999 V2000
    7.5701   55.8020   18.2215 C   0  0  0  0  0  0
    6.7528   55.3930   19.3101 O   0  0  0  0  0  0
    7.2460   55.3693   20.5672 C   0  0  0  0  0  0
    8.3927   55.6967   20.8757 O   0  0  0  0  0  0
    6.2545   54.8968   21.5382 C   0  0  0  0  0  0
    4.9538   54.4017   21.3938 C   0  0  0  0  0  0
    4.3340   54.0959   22.6070 C   0  0  0  0  0  0
    5.1370   54.3257   23.7233 C   0  0  0  0  0  0
    6.7021   54.8968   23.2209 S   0  0  0  0  0  0
    4.8132   54.1734   25.1757 C   0  0  0  0  0  0
    5.8136   54.0981   26.1556 C   0  0  0  0  0  0
    5.4751   53.9416   27.4968 C   0  0  0  0  0  0
    4.1335   53.8542   27.8602 C   0  0  0  0  0  0
    3.1304   53.9361   26.9002 C   0  0  0  0  0  0
    3.4699   54.0965   25.5612 C   0  0  0  0  0  0
    3.6594   53.6088   29.6820 Br  0  0  0  0  0  0
    4.3046   54.2278   20.2054 N   0  0  0  0  0  0
    7.0030   55.7473   17.2921 H   0  0  0  0  0  0
    8.4446   55.1560   18.1266 H   0  0  0  0  0  0
    7.9122   56.8303   18.3522 H   0  0  0  0  0  0
    3.3229   53.7215   22.6631 H   0  0  0  0  0  0
    6.8580   54.1421   25.8878 H   0  0  0  0  0  0
    6.2483   53.8789   28.2493 H   0  0  0  0  0  0
    2.0922   53.8680   27.1926 H   0  0  0  0  0  0
    2.6788   54.1591   24.8294 H   0  0  0  0  0  0
    3.3213   53.9961   20.1557 H   0  0  0  0  0  0
    4.7699   54.4155   19.3273 H   0  0  0  0  0  0
  1  2  1  0  0  0
  1 18  1  0  0  0
  1 19  1  0  0  0
  1 20  1  0  0  0
  2  3  1  0  0  0
  3  4  2  0  0  0
  3  5  1  0  0  0
  5  9  1  0  0  0
  5  6  2  0  0  0
  6  7  1  0  0  0
  6 17  1  0  0  0
  7  8  2  0  0  0
  7 21  1  0  0  0
  8  9  1  0  0  0
  8 10  1  0  0  0
 10 15  2  0  0  0
 10 11  1  0  0  0
 11 12  2  0  0  0
 11 22  1  0  0  0
 12 13  1  0  0  0
 12 23  1  0  0  0
 13 14  2  0  0  0
 13 16  1  0  0  0
 14 15  1  0  0  0
 14 24  1  0  0  0
 15 25  1  0  0  0
 17 26  1  0  0  0
 17 27  1  0  0  0
M  END
> <i_i_glide_confnum>
4

> <i_i_glide_lignum>
3860

> <i_i_glide_posenum>
191

> <i_i_glide_rotatable_bonds>
3

> <i_m_Source_File_Index>
2028

> <b_m_subgroup_collapsed>
0

> <r_i_docking_score>
-5.64549

> <r_i_glide_ecoul>
-1.56616

> <r_i_glide_eff_state_penalty>
0

> <r_i_glide_einternal>
0.224894

> <r_i_glide_emodel>
-45.007

> <r_i_glide_energy>
-33.2415

> <r_i_glide_erotb>
0.380799

> <r_i_glide_esite>
-0.00100698

> <r_i_glide_evdw>
-31.6754

> <r_i_glide_gscore>
-5.64549

> <r_i_glide_hbond>
-0.0764178

> <r_i_glide_ligand_efficiency>
-0.332087

> <r_i_glide_ligand_efficiency_ln>
-1.47278

> <r_i_glide_ligand_efficiency_sa>
-0.85389

> <r_i_glide_lipo>
-2.57103

> <r_i_glide_metal>
0

> <r_i_glide_rewards>
-1.55914

> <s_i_glide_gridfile>
wee1_glide-grid

> <s_m_Source_File>
wee1_decoys_glide_SP.sdf

> <s_m_Source_Path>
/Users/zhangxujun/Desktop

> <s_m_entry_id>
2303

> <s_m_entry_name>
wee1_decoys_glide_SP.2028

> <s_m_subgroup_title>
wee1_decoys_glide_SP

> <s_m_subgroupid>
wee1_decoys_glide_SP


$$$$
