ZINC59895409_4353
                    3D
 Schrodinger Suite 2024-2.
 61 65  0  0  1  0            999 V2000
    4.1785   54.3582   22.2901 C   0  0  0  0  0  0
    5.5035   54.2051   21.8979 C   0  0  0  0  0  0
    6.4846   54.1680   22.8878 C   0  0  0  0  0  0
    6.2028   54.2379   24.2122 N   0  0  0  0  0  0
    4.9056   54.4051   24.5939 C   0  0  0  0  0  0
    3.8719   54.4967   23.6443 C   0  0  0  0  0  0
    2.2520   54.8949   24.0812 Cl  0  0  0  0  0  0
    4.6113   54.4991   25.9658 N   0  0  0  0  0  0
    5.4860   53.8714   26.9593 C   0  0  0  0  0  0
    5.1633   54.2570   28.4142 C   0  0  0  0  0  0
    3.7462   54.1199   28.7488 N   0  0  0  0  0  0
    3.1556   53.0078   29.2096 C   0  0  0  0  0  0
    3.7518   51.9791   29.5272 O   0  0  0  0  0  0
    1.6231   53.0913   29.3531 C   0  0  2  0  0  0
    1.3062   54.1324   29.2493 H   0  0  0  0  0  0
    1.1600   52.5808   30.7291 C   0  0  0  0  0  0
   -0.2559   52.1318   30.4782 C   0  0  0  0  0  0
   -0.1703   51.5168   29.0929 C   0  0  0  0  0  0
    0.8249   52.3070   28.3692 N   0  0  0  0  0  0
    0.9580   52.4349   27.0149 C   0  0  0  0  0  0
    1.7252   53.2953   26.5824 O   0  0  0  0  0  0
    0.1599   51.5651   25.9593 C   0  0  0  0  0  0
   -1.2997   52.1098   25.7987 C   0  0  0  0  0  0
   -2.0736   51.2799   24.7331 C   0  0  2  0  0  0
   -2.1036   49.7839   25.1448 C   0  0  0  0  0  0
   -0.6545   49.2349   25.2452 C   0  0  2  0  0  0
    0.1124   50.0434   26.3195 C   0  0  0  0  0  0
    0.0571   49.3790   23.8790 C   0  0  0  0  0  0
    0.0823   50.8716   23.4686 C   0  0  1  0  0  0
   -1.3670   51.4127   23.3593 C   0  0  0  0  0  0
    0.8446   51.6849   24.5446 C   0  0  0  0  0  0
    5.9041   54.1081   20.2211 Cl  0  0  0  0  0  0
    3.4019   54.4272   21.5440 H   0  0  0  0  0  0
    7.5303   54.0967   22.6409 H   0  0  0  0  0  0
    3.6223   54.4476   26.1796 H   0  0  0  0  0  0
    5.4190   52.7903   26.8362 H   0  0  0  0  0  0
    6.5307   54.1055   26.7514 H   0  0  0  0  0  0
    5.7819   53.6641   29.0895 H   0  0  0  0  0  0
    5.4459   55.2965   28.5806 H   0  0  0  0  0  0
    3.1575   54.9026   28.5080 H   0  0  0  0  0  0
    1.7471   51.7252   31.0659 H   0  0  0  0  0  0
    1.2079   53.3412   31.5072 H   0  0  0  0  0  0
   -0.6333   51.4413   31.2317 H   0  0  0  0  0  0
   -0.8956   53.0083   30.4573 H   0  0  0  0  0  0
    0.2107   50.5056   29.1825 H   0  0  0  0  0  0
   -1.1549   51.4818   28.6352 H   0  0  0  0  0  0
   -1.8561   52.0800   26.7323 H   0  0  0  0  0  0
   -1.2912   53.1587   25.4958 H   0  0  0  0  0  0
   -3.0952   51.6558   24.6520 H   0  0  0  0  0  0
   -2.6772   49.2031   24.4206 H   0  0  0  0  0  0
   -2.6167   49.6628   26.1011 H   0  0  0  0  0  0
   -0.6819   48.1839   25.5391 H   0  0  0  0  0  0
    1.1049   49.6237   26.4647 H   0  0  0  0  0  0
   -0.4205   49.8651   27.2385 H   0  0  0  0  0  0
    1.0729   48.9841   23.9384 H   0  0  0  0  0  0
   -0.4543   48.7844   23.1215 H   0  0  0  0  0  0
    0.5843   50.9776   22.5064 H   0  0  0  0  0  0
   -1.9203   50.8636   22.5956 H   0  0  0  0  0  0
   -1.3586   52.4543   23.0355 H   0  0  0  0  0  0
    0.8489   52.7213   24.2206 H   0  0  0  0  0  0
    1.8923   51.3785   24.5623 H   0  0  0  0  0  0
  1  6  2  0  0  0
  1  2  1  0  0  0
  1 33  1  0  0  0
  2  3  2  0  0  0
  2 32  1  0  0  0
  3  4  1  0  0  0
  3 34  1  0  0  0
  4  5  2  0  0  0
  5  6  1  0  0  0
  5  8  1  0  0  0
  6  7  1  0  0  0
  8  9  1  0  0  0
  8 35  1  0  0  0
  9 10  1  0  0  0
  9 36  1  0  0  0
  9 37  1  0  0  0
 10 11  1  0  0  0
 10 38  1  0  0  0
 10 39  1  0  0  0
 11 12  1  0  0  0
 11 40  1  0  0  0
 12 13  2  0  0  0
 12 14  1  0  0  0
 14 15  1  0  0  0
 14 19  1  0  0  0
 14 16  1  0  0  0
 16 17  1  0  0  0
 16 41  1  0  0  0
 16 42  1  0  0  0
 17 18  1  0  0  0
 17 43  1  0  0  0
 17 44  1  0  0  0
 18 19  1  0  0  0
 18 45  1  0  0  0
 18 46  1  0  0  0
 19 20  1  0  0  0
 20 21  2  0  0  0
 20 22  1  0  0  0
 22 27  1  0  0  0
 22 31  1  0  0  0
 22 23  1  0  0  0
 23 24  1  0  0  0
 23 47  1  0  0  0
 23 48  1  0  0  0
 24 30  1  0  0  0
 24 25  1  0  0  0
 24 49  1  0  0  0
 25 26  1  0  0  0
 25 50  1  0  0  0
 25 51  1  0  0  0
 26 27  1  0  0  0
 26 28  1  0  0  0
 26 52  1  0  0  0
 27 53  1  0  0  0
 27 54  1  0  0  0
 28 29  1  0  0  0
 28 55  1  0  0  0
 28 56  1  0  0  0
 29 30  1  0  0  0
 29 31  1  0  0  0
 29 57  1  0  0  0
 30 58  1  0  0  0
 30 59  1  0  0  0
 31 60  1  0  0  0
 31 61  1  0  0  0
M  END
> <i_i_glide_confnum>
36

> <i_i_glide_lignum>
4354

> <i_i_glide_posenum>
39

> <i_i_glide_rotatable_bonds>
8

> <i_m_Source_File_Index>
2809

> <b_m_subgroup_collapsed>
0

> <r_i_docking_score>
-4.65803

> <r_i_glide_ecoul>
-3.42593

> <r_i_glide_eff_state_penalty>
0

> <r_i_glide_einternal>
3.41038

> <r_i_glide_emodel>
-53.7726

> <r_i_glide_energy>
-42.4742

> <r_i_glide_erotb>
0.651712

> <r_i_glide_esite>
0

> <r_i_glide_evdw>
-39.0483

> <r_i_glide_gscore>
-4.65803

> <r_i_glide_hbond>
-0.0221288

> <r_i_glide_ligand_efficiency>
-0.150259

> <r_i_glide_ligand_efficiency_ln>
-1.05053

> <r_i_glide_ligand_efficiency_sa>
-0.472021

> <r_i_glide_lipo>
-1.99658

> <r_i_glide_metal>
0

> <r_i_glide_rewards>
-0.824735

> <s_i_glide_gridfile>
wee1_glide-grid

> <s_m_Source_File>
wee1_decoys_glide_SP.sdf

> <s_m_Source_Path>
/Users/zhangxujun/Desktop

> <s_m_entry_id>
3084

> <s_m_entry_name>
wee1_decoys_glide_SP.2809

> <s_m_subgroup_title>
wee1_decoys_glide_SP

> <s_m_subgroupid>
wee1_decoys_glide_SP


$$$$
