ZINC12278503_927
                    3D
 Schrodinger Suite 2024-2.
 49 51  0  0  1  0            999 V2000
    6.3311   55.3581   24.5170 C   0  0  0  0  0  0
    5.2935   54.2603   24.2930 C   0  0  0  0  0  0
    4.5666   53.7071   25.2932 C   0  0  0  0  0  0
    4.5060   54.0135   26.7202 C   0  0  0  0  0  0
    5.6446   54.1205   27.5175 C   0  0  0  0  0  0
    5.5045   54.3889   28.8702 C   0  0  0  0  0  0
    4.2367   54.4968   29.4288 C   0  0  0  0  0  0
    3.0950   54.3790   28.6464 C   0  0  0  0  0  0
    3.2337   54.1388   27.2861 C   0  0  0  0  0  0
    5.0901   53.7727   22.9304 C   0  0  0  0  0  0
    3.9076   53.4028   22.3733 C   0  0  0  0  0  0
    3.8497   52.8864   21.0258 C   0  0  0  0  0  0
    4.8017   52.8446   20.2415 O   0  0  0  0  0  0
    2.5980   52.4292   20.7553 N   0  0  0  0  0  0
    1.6426   52.4972   21.7360 C   0  0  0  0  0  0
    0.0867   51.8940   21.8139 S   0  0  0  0  0  0
    2.2771   53.4145   23.0627 S   0  0  0  0  0  0
    2.2708   51.8967   19.4092 C   0  0  0  0  0  0
    2.2991   50.3582   19.3665 C   0  0  0  0  0  0
    2.7042   49.6947   20.3248 O   0  0  0  0  0  0
    1.7968   49.8410   18.2327 N   0  0  0  0  0  0
    1.9043   48.4752   18.0082 N   0  0  0  0  0  0
    0.7561   47.7773   17.8749 C   0  0  0  0  0  0
   -0.3684   48.2262   18.1210 O   0  0  0  0  0  0
    0.9078   46.3444   17.4308 C   0  0  0  0  0  0
    0.0400   45.3710   17.9425 C   0  0  0  0  0  0
    0.1447   44.0468   17.5279 C   0  0  0  0  0  0
    1.1106   43.6913   16.5914 C   0  0  0  0  0  0
    1.9694   44.6514   16.0630 C   0  0  0  0  0  0
    1.8748   45.9764   16.4820 C   0  0  0  0  0  0
    1.2567   41.8786   16.0307 Br  0  0  0  0  0  0
    7.1215   55.2878   23.7691 H   0  0  0  0  0  0
    5.9041   56.3571   24.4816 H   0  0  0  0  0  0
    6.8498   55.2597   25.4642 H   0  0  0  0  0  0
    3.9010   52.8969   25.0493 H   0  0  0  0  0  0
    6.6334   53.9688   27.1139 H   0  0  0  0  0  0
    6.3865   54.4967   29.4809 H   0  0  0  0  0  0
    4.1440   54.6807   30.4818 H   0  0  0  0  0  0
    2.1132   54.4704   29.0876 H   0  0  0  0  0  0
    2.3475   54.0409   26.6747 H   0  0  0  0  0  0
    5.9847   53.6972   22.3263 H   0  0  0  0  0  0
    1.2969   52.2650   19.0849 H   0  0  0  0  0  0
    2.9886   52.2547   18.6687 H   0  0  0  0  0  0
    1.7121   50.3753   17.3800 H   0  0  0  0  0  0
    2.7337   48.2770   17.4567 H   0  0  0  0  0  0
   -0.7201   45.6374   18.6642 H   0  0  0  0  0  0
   -0.5258   43.3008   17.9259 H   0  0  0  0  0  0
    2.7058   44.3680   15.3283 H   0  0  0  0  0  0
    2.5503   46.7078   16.0581 H   0  0  0  0  0  0
  1  2  1  0  0  0
  1 32  1  0  0  0
  1 33  1  0  0  0
  1 34  1  0  0  0
  2  3  2  0  0  0
  2 10  1  0  0  0
  3  4  1  0  0  0
  3 35  1  0  0  0
  4  9  2  0  0  0
  4  5  1  0  0  0
  5  6  2  0  0  0
  5 36  1  0  0  0
  6  7  1  0  0  0
  6 37  1  0  0  0
  7  8  2  0  0  0
  7 38  1  0  0  0
  8  9  1  0  0  0
  8 39  1  0  0  0
  9 40  1  0  0  0
 10 11  2  0  0  0
 10 41  1  0  0  0
 11 17  1  0  0  0
 11 12  1  0  0  0
 12 13  2  0  0  0
 12 14  1  0  0  0
 14 15  1  0  0  0
 14 18  1  0  0  0
 15 16  2  0  0  0
 15 17  1  0  0  0
 18 19  1  0  0  0
 18 42  1  0  0  0
 18 43  1  0  0  0
 19 20  2  0  0  0
 19 21  1  0  0  0
 21 22  1  0  0  0
 21 44  1  0  0  0
 22 23  1  0  0  0
 22 45  1  0  0  0
 23 24  2  0  0  0
 23 25  1  0  0  0
 25 30  2  0  0  0
 25 26  1  0  0  0
 26 27  2  0  0  0
 26 46  1  0  0  0
 27 28  1  0  0  0
 27 47  1  0  0  0
 28 29  2  0  0  0
 28 31  1  0  0  0
 29 30  1  0  0  0
 29 48  1  0  0  0
 30 49  1  0  0  0
M  END
> <i_i_glide_confnum>
22

> <i_i_glide_lignum>
928

> <i_i_glide_posenum>
276

> <i_i_glide_rotatable_bonds>
8

> <i_m_Source_File_Index>
2646

> <b_m_subgroup_collapsed>
0

> <r_i_docking_score>
-5.27188

> <r_i_glide_ecoul>
-3.51174

> <r_i_glide_eff_state_penalty>
0

> <r_i_glide_einternal>
5.23725

> <r_i_glide_emodel>
-56.4605

> <r_i_glide_energy>
-41.9923

> <r_i_glide_erotb>
0.461762

> <r_i_glide_esite>
-0.308064

> <r_i_glide_evdw>
-38.4806

> <r_i_glide_gscore>
-5.27188

> <r_i_glide_hbond>
-0.131246

> <r_i_glide_ligand_efficiency>
-0.170061

> <r_i_glide_ligand_efficiency_ln>
-1.18897

> <r_i_glide_ligand_efficiency_sa>
-0.534225

> <r_i_glide_lipo>
-2.6341

> <r_i_glide_metal>
0

> <r_i_glide_rewards>
-0.209438

> <s_i_glide_gridfile>
wee1_glide-grid

> <s_m_Source_File>
wee1_decoys_glide_SP.sdf

> <s_m_Source_Path>
/Users/zhangxujun/Desktop

> <s_m_entry_id>
2921

> <s_m_entry_name>
wee1_decoys_glide_SP.2646

> <s_m_subgroup_title>
wee1_decoys_glide_SP

> <s_m_subgroupid>
wee1_decoys_glide_SP


$$$$
