ZINC36640289_4446
                    3D
 Schrodinger Suite 2024-2.
 34 35  0  0  1  0            999 V2000
    0.8178   53.6531   23.2533 C   0  0  0  0  0  0
    2.2938   53.9032   23.6123 C   0  0  1  0  0  0
    2.5246   54.9409   23.3850 H   0  0  0  0  0  0
    2.6284   53.6967   25.1072 C   0  0  0  0  0  0
    3.6652   54.1846   25.5570 O   0  0  0  0  0  0
    1.7072   53.0405   25.8508 N   0  0  0  0  0  0
    1.6309   52.8178   27.2390 C   0  0  0  0  0  0
    2.7072   53.0172   28.1162 C   0  0  0  0  0  0
    2.5527   52.8066   29.4851 C   0  0  0  0  0  0
    1.3229   52.3877   29.9983 C   0  0  0  0  0  0
    0.2531   52.1696   29.1316 C   0  0  0  0  0  0
    0.3991   52.3846   27.7612 C   0  0  0  0  0  0
   -0.9742   52.1111   26.7424 Cl  0  0  0  0  0  0
    1.1051   52.1142   31.6931 Cl  0  0  0  0  0  0
    3.9044   53.0650   30.5188 Cl  0  0  0  0  0  0
    3.2849   52.8966   22.4734 S   0  0  0  0  0  0
    4.7212   53.8723   22.1983 C   0  0  0  0  0  0
    5.5843   54.2277   23.1173 N   0  0  0  0  0  0
    6.5847   54.9596   22.4843 N   0  0  0  0  0  0
    6.2445   55.0728   21.2216 C   0  0  0  0  0  0
    5.0565   54.4220   20.9823 N   0  0  0  0  0  0
    4.3629   54.3066   19.7870 N   0  0  0  0  0  0
    7.0645   55.7771   20.1561 C   0  0  0  0  0  0
    8.2807   56.0966   20.5993 F   0  0  0  0  0  0
    7.2318   55.0034   19.0834 F   0  0  0  0  0  0
    6.4655   56.9013   19.7626 F   0  0  0  0  0  0
    0.1529   54.3857   23.7104 H   0  0  0  0  0  0
    0.7044   53.6967   22.1709 H   0  0  0  0  0  0
    0.4812   52.6546   23.5345 H   0  0  0  0  0  0
    0.8943   52.7164   25.3472 H   0  0  0  0  0  0
    3.6780   53.3246   27.7605 H   0  0  0  0  0  0
   -0.6930   51.8275   29.5263 H   0  0  0  0  0  0
    4.3962   53.3639   19.4234 H   0  0  0  0  0  0
    3.4155   54.6634   19.8532 H   0  0  0  0  0  0
  1  2  1  0  0  0
  1 27  1  0  0  0
  1 28  1  0  0  0
  1 29  1  0  0  0
  2  3  1  0  0  0
  2  4  1  0  0  0
  2 16  1  0  0  0
  4  5  2  0  0  0
  4  6  1  0  0  0
  6  7  1  0  0  0
  6 30  1  0  0  0
  7 12  2  0  0  0
  7  8  1  0  0  0
  8  9  2  0  0  0
  8 31  1  0  0  0
  9 10  1  0  0  0
  9 15  1  0  0  0
 10 11  2  0  0  0
 10 14  1  0  0  0
 11 12  1  0  0  0
 11 32  1  0  0  0
 12 13  1  0  0  0
 16 17  1  0  0  0
 17 21  1  0  0  0
 17 18  2  0  0  0
 18 19  1  0  0  0
 19 20  2  0  0  0
 20 21  1  0  0  0
 20 23  1  0  0  0
 21 22  1  0  0  0
 22 33  1  0  0  0
 22 34  1  0  0  0
 23 24  1  0  0  0
 23 25  1  0  0  0
 23 26  1  0  0  0
M  END
> <i_i_glide_confnum>
32

> <i_i_glide_lignum>
4447

> <i_i_glide_posenum>
316

> <i_i_glide_rotatable_bonds>
6

> <i_m_Source_File_Index>
162

> <b_m_subgroup_collapsed>
0

> <r_i_docking_score>
-5.42869

> <r_i_glide_ecoul>
-3.43084

> <r_i_glide_eff_state_penalty>
0

> <r_i_glide_einternal>
5.927

> <r_i_glide_emodel>
-51.8898

> <r_i_glide_energy>
-40.6925

> <r_i_glide_erotb>
0.421709

> <r_i_glide_esite>
-0.0283532

> <r_i_glide_evdw>
-37.2616

> <r_i_glide_gscore>
-5.42869

> <r_i_glide_hbond>
-0.265079

> <r_i_glide_ligand_efficiency>
-0.217148

> <r_i_glide_ligand_efficiency_ln>
-1.28676

> <r_i_glide_ligand_efficiency_sa>
-0.634943

> <r_i_glide_lipo>
-1.3209

> <r_i_glide_metal>
0

> <r_i_glide_rewards>
-1.85836

> <s_i_glide_gridfile>
wee1_glide-grid

> <s_m_Source_File>
wee1_decoys_glide_SP.sdf

> <s_m_Source_Path>
/Users/zhangxujun/Desktop

> <s_m_entry_id>
437

> <s_m_entry_name>
wee1_decoys_glide_SP.162

> <s_m_subgroup_title>
wee1_decoys_glide_SP

> <s_m_subgroupid>
wee1_decoys_glide_SP


$$$$
