ZINC12371259_5289
                    3D
 Schrodinger Suite 2024-2.
 61 65  0  0  1  0            999 V2000
   -7.6917   53.0910   27.8986 C   0  0  0  0  0  0
   -6.7510   52.2782   28.5909 O   0  0  0  0  0  0
   -5.7018   51.7003   27.8952 C   0  0  0  0  0  0
   -5.4903   51.8834   26.5206 C   0  0  0  0  0  0
   -4.3902   51.3129   25.8862 C   0  0  0  0  0  0
   -3.4808   50.5205   26.5938 C   0  0  0  0  0  0
   -3.7122   50.3240   27.9616 C   0  0  0  0  0  0
   -4.7954   50.9219   28.6281 C   0  0  0  0  0  0
   -5.0187   50.8200   29.9917 O   0  0  0  0  0  0
   -4.1058   50.0893   30.8037 C   0  0  0  0  0  0
   -2.2060   49.9062   25.9472 C   0  0  2  0  0  0
   -2.1082   48.9610   26.4817 H   0  0  0  0  0  0
   -0.8067   50.5928   26.1616 C   0  0  1  0  0  0
   -0.2464   50.0567   26.9293 H   0  0  0  0  0  0
   -0.0831   50.4559   24.8663 N   0  0  0  0  0  0
    0.8801   51.2226   24.1440 C   0  0  0  0  0  0
    1.5177   52.3396   24.7006 C   0  0  0  0  0  0
    2.3362   53.1692   23.9366 C   0  0  0  0  0  0
    2.5671   52.8752   22.5967 C   0  0  0  0  0  0
    1.9979   51.7365   22.0311 C   0  0  0  0  0  0
    1.1675   50.9083   22.7946 C   0  0  0  0  0  0
    0.5976   49.7162   22.1650 C   0  0  0  0  0  0
   -0.2518   48.9231   22.8249 C   0  0  0  0  0  0
   -0.6835   49.2446   24.2539 C   0  0  2  0  0  0
   -0.3564   48.3974   24.8644 H   0  0  0  0  0  0
   -2.1984   49.4796   24.4499 C   0  0  2  0  0  0
   -2.5988   50.5212   23.4725 C   0  0  0  0  0  0
   -2.8977   51.3319   22.7002 N   0  0  0  0  0  0
   -3.0364   48.1850   24.2318 C   0  0  0  0  0  0
   -2.5502   47.0654   24.3909 O   0  0  0  0  0  0
   -4.3158   48.3084   23.8725 N   0  0  0  0  0  0
   -0.9588   52.0726   26.6127 C   0  0  0  0  0  0
   -1.4266   52.8964   25.8239 O   0  0  0  0  0  0
   -0.3781   52.4516   27.9470 C   0  0  0  0  0  0
    0.3856   53.6170   28.1156 C   0  0  0  0  0  0
    0.7630   54.0504   29.3832 C   0  0  0  0  0  0
    0.3965   53.3059   30.4959 C   0  0  0  0  0  0
   -0.2954   52.1163   30.3442 C   0  0  0  0  0  0
   -0.6912   51.6967   29.0795 C   0  0  0  0  0  0
    0.7042   53.7367   31.7352 F   0  0  0  0  0  0
   -8.4459   53.4451   28.6013 H   0  0  0  0  0  0
   -8.2079   52.5303   27.1188 H   0  0  0  0  0  0
   -7.2145   53.9682   27.4586 H   0  0  0  0  0  0
   -6.1573   52.4883   25.9259 H   0  0  0  0  0  0
   -4.2691   51.5318   24.8430 H   0  0  0  0  0  0
   -3.0195   49.7102   28.5155 H   0  0  0  0  0  0
   -4.4150   50.1542   31.8473 H   0  0  0  0  0  0
   -4.1006   49.0339   30.5302 H   0  0  0  0  0  0
   -3.0943   50.4942   30.7394 H   0  0  0  0  0  0
    1.3966   52.5925   25.7379 H   0  0  0  0  0  0
    2.7980   54.0355   24.3887 H   0  0  0  0  0  0
    3.1984   53.5163   21.9997 H   0  0  0  0  0  0
    2.2040   51.5054   20.9943 H   0  0  0  0  0  0
    0.8716   49.4617   21.1498 H   0  0  0  0  0  0
   -0.6514   48.0507   22.3281 H   0  0  0  0  0  0
   -4.7380   49.2179   23.7536 H   0  0  0  0  0  0
   -4.8677   47.4756   23.7406 H   0  0  0  0  0  0
    0.7049   54.2116   27.2821 H   0  0  0  0  0  0
    1.3247   54.9652   29.5037 H   0  0  0  0  0  0
   -0.5311   51.5293   31.2187 H   0  0  0  0  0  0
   -1.2619   50.7887   29.0011 H   0  0  0  0  0  0
  1  2  1  0  0  0
  1 41  1  0  0  0
  1 42  1  0  0  0
  1 43  1  0  0  0
  2  3  1  0  0  0
  3  8  2  0  0  0
  3  4  1  0  0  0
  4  5  2  0  0  0
  4 44  1  0  0  0
  5  6  1  0  0  0
  5 45  1  0  0  0
  6  7  2  0  0  0
  6 11  1  0  0  0
  7  8  1  0  0  0
  7 46  1  0  0  0
  8  9  1  0  0  0
  9 10  1  0  0  0
 10 47  1  0  0  0
 10 48  1  0  0  0
 10 49  1  0  0  0
 11 12  1  0  0  0
 11 26  1  0  0  0
 11 13  1  0  0  0
 13 14  1  0  0  0
 13 15  1  0  0  0
 13 32  1  0  0  0
 15 24  1  0  0  0
 15 16  1  0  0  0
 16 21  2  0  0  0
 16 17  1  0  0  0
 17 18  2  0  0  0
 17 50  1  0  0  0
 18 19  1  0  0  0
 18 51  1  0  0  0
 19 20  2  0  0  0
 19 52  1  0  0  0
 20 21  1  0  0  0
 20 53  1  0  0  0
 21 22  1  0  0  0
 22 23  2  0  0  0
 22 54  1  0  0  0
 23 24  1  0  0  0
 23 55  1  0  0  0
 24 25  1  0  0  0
 24 26  1  0  0  0
 26 27  1  0  0  0
 26 29  1  0  0  0
 27 28  3  0  0  0
 29 30  2  0  0  0
 29 31  1  0  0  0
 31 56  1  0  0  0
 31 57  1  0  0  0
 32 33  2  0  0  0
 32 34  1  0  0  0
 34 39  2  0  0  0
 34 35  1  0  0  0
 35 36  2  0  0  0
 35 58  1  0  0  0
 36 37  1  0  0  0
 36 59  1  0  0  0
 37 38  2  0  0  0
 37 40  1  0  0  0
 38 39  1  0  0  0
 38 60  1  0  0  0
 39 61  1  0  0  0
M  END
> <i_i_glide_confnum>
5

> <i_i_glide_lignum>
5290

> <i_i_glide_posenum>
307

> <i_i_glide_rotatable_bonds>
7

> <i_m_Source_File_Index>
3813

> <b_m_subgroup_collapsed>
0

> <r_i_docking_score>
-3.61314

> <r_i_glide_ecoul>
-7.10692

> <r_i_glide_eff_state_penalty>
0

> <r_i_glide_einternal>
12.1586

> <r_i_glide_emodel>
-40.2427

> <r_i_glide_energy>
-36.8885

> <r_i_glide_erotb>
0.247246

> <r_i_glide_esite>
-0.0866468

> <r_i_glide_evdw>
-29.7816

> <r_i_glide_gscore>
-3.61314

> <r_i_glide_hbond>
0

> <r_i_glide_ligand_efficiency>
-0.0976524

> <r_i_glide_ligand_efficiency_ln>
-0.783605

> <r_i_glide_ligand_efficiency_sa>
-0.3254

> <r_i_glide_lipo>
-1.20169

> <r_i_glide_metal>
0

> <r_i_glide_rewards>
-0.0169298

> <s_i_glide_gridfile>
wee1_glide-grid

> <s_m_Source_File>
wee1_decoys_glide_SP.sdf

> <s_m_Source_Path>
/Users/zhangxujun/Desktop

> <s_m_entry_id>
4088

> <s_m_entry_name>
wee1_decoys_glide_SP.3813

> <s_m_subgroup_title>
wee1_decoys_glide_SP

> <s_m_subgroupid>
wee1_decoys_glide_SP


$$$$
