ZINC45446827_3031
                    3D
 Schrodinger Suite 2024-2.
 51 53  0  0  1  0            999 V2000
    2.2342   51.2340   18.8856 C   0  0  0  0  0  0
    2.7150   50.0980   19.7976 C   0  0  0  0  0  0
    1.7337   49.7262   20.8186 N   0  0  0  0  0  0
    1.5266   50.3861   21.9739 C   0  0  0  0  0  0
    2.1814   51.3760   22.2997 O   0  0  0  0  0  0
    0.4621   49.8341   22.8971 C   0  0  0  0  0  0
   -0.4924   48.8963   22.4649 C   0  0  0  0  0  0
   -1.4237   48.3635   23.3572 C   0  0  0  0  0  0
   -1.4299   48.7703   24.6899 C   0  0  0  0  0  0
   -0.5276   49.7395   25.1280 C   0  0  0  0  0  0
    0.4175   50.2610   24.2334 C   0  0  0  0  0  0
   -0.5636   50.0973   26.4818 N   0  0  0  0  0  0
   -0.3163   51.3140   27.0153 C   0  0  0  0  0  0
   -0.1667   52.3404   26.3498 O   0  0  0  0  0  0
   -0.2068   51.3491   28.5495 C   0  0  0  0  0  0
   -0.0956   52.9774   29.3704 S   0  0  0  0  0  0
    1.6154   53.3716   29.2497 C   0  0  0  0  0  0
    2.2289   54.1781   30.0798 N   0  0  0  0  0  0
    3.5227   54.4970   29.6820 N   0  0  0  0  0  0
    3.8398   53.9688   28.5318 C   0  0  0  0  0  0
    2.6155   52.8969   27.9134 S   0  0  0  0  0  0
    4.9986   54.2596   27.8528 N   0  0  0  0  0  0
    5.1802   54.2773   26.4591 C   0  0  0  0  0  0
    4.1114   54.4750   25.5741 C   0  0  0  0  0  0
    4.3248   54.4941   24.2031 C   0  0  0  0  0  0
    5.6183   54.3683   23.7091 C   0  0  0  0  0  0
    6.6956   54.1943   24.5767 C   0  0  0  0  0  0
    6.4751   54.1497   25.9537 C   0  0  0  0  0  0
    5.9044   54.4972   21.9755 S   0  0  0  0  0  0
    4.8816   53.2435   21.1632 C   0  0  0  0  0  0
    5.1005   52.0333   21.6775 F   0  0  0  0  0  0
    3.5909   53.5529   21.2453 F   0  0  0  0  0  0
    2.9950   51.4652   18.1387 H   0  0  0  0  0  0
    2.0423   52.1480   19.4479 H   0  0  0  0  0  0
    1.3253   50.9571   18.3506 H   0  0  0  0  0  0
    2.9329   49.2201   19.1871 H   0  0  0  0  0  0
    3.6633   50.3758   20.2617 H   0  0  0  0  0  0
    1.1940   48.8955   20.6377 H   0  0  0  0  0  0
   -0.5187   48.5547   21.4403 H   0  0  0  0  0  0
   -2.1400   47.6303   23.0166 H   0  0  0  0  0  0
   -2.1435   48.3410   25.3797 H   0  0  0  0  0  0
    1.1379   50.9848   24.5882 H   0  0  0  0  0  0
   -0.8906   49.3729   27.1247 H   0  0  0  0  0  0
   -1.1029   50.8834   28.9561 H   0  0  0  0  0  0
    0.6463   50.7590   28.8666 H   0  0  0  0  0  0
    5.8439   54.4346   28.3772 H   0  0  0  0  0  0
    3.1072   54.6318   25.9320 H   0  0  0  0  0  0
    3.4910   54.6498   23.5345 H   0  0  0  0  0  0
    7.6964   54.0964   24.1837 H   0  0  0  0  0  0
    7.3093   54.0090   26.6247 H   0  0  0  0  0  0
    5.1272   53.1927   20.1025 H   0  0  0  0  0  0
  1  2  1  0  0  0
  1 33  1  0  0  0
  1 34  1  0  0  0
  1 35  1  0  0  0
  2  3  1  0  0  0
  2 36  1  0  0  0
  2 37  1  0  0  0
  3  4  1  0  0  0
  3 38  1  0  0  0
  4  5  2  0  0  0
  4  6  1  0  0  0
  6 11  2  0  0  0
  6  7  1  0  0  0
  7  8  2  0  0  0
  7 39  1  0  0  0
  8  9  1  0  0  0
  8 40  1  0  0  0
  9 10  2  0  0  0
  9 41  1  0  0  0
 10 11  1  0  0  0
 10 12  1  0  0  0
 11 42  1  0  0  0
 12 13  1  0  0  0
 12 43  1  0  0  0
 13 14  2  0  0  0
 13 15  1  0  0  0
 15 16  1  0  0  0
 15 44  1  0  0  0
 15 45  1  0  0  0
 16 17  1  0  0  0
 17 21  1  0  0  0
 17 18  2  0  0  0
 18 19  1  0  0  0
 19 20  2  0  0  0
 20 21  1  0  0  0
 20 22  1  0  0  0
 22 23  1  0  0  0
 22 46  1  0  0  0
 23 28  2  0  0  0
 23 24  1  0  0  0
 24 25  2  0  0  0
 24 47  1  0  0  0
 25 26  1  0  0  0
 25 48  1  0  0  0
 26 27  2  0  0  0
 26 29  1  0  0  0
 27 28  1  0  0  0
 27 49  1  0  0  0
 28 50  1  0  0  0
 29 30  1  0  0  0
 30 31  1  0  0  0
 30 32  1  0  0  0
 30 51  1  0  0  0
M  END
> <i_i_glide_confnum>
2

> <i_i_glide_lignum>
3032

> <i_i_glide_posenum>
255

> <i_i_glide_rotatable_bonds>
12

> <i_m_Source_File_Index>
2783

> <b_m_subgroup_collapsed>
0

> <r_i_docking_score>
-5.80344

> <r_i_glide_ecoul>
-7.76526

> <r_i_glide_eff_state_penalty>
0

> <r_i_glide_einternal>
4.55436

> <r_i_glide_emodel>
-75.2766

> <r_i_glide_energy>
-55.3661

> <r_i_glide_erotb>
0.830028

> <r_i_glide_esite>
-0.18777

> <r_i_glide_evdw>
-47.6008

> <r_i_glide_gscore>
-5.80344

> <r_i_glide_hbond>
-0.16

> <r_i_glide_ligand_efficiency>
-0.181358

> <r_i_glide_ligand_efficiency_ln>
-1.29955

> <r_i_glide_ligand_efficiency_sa>
-0.575774

> <r_i_glide_lipo>
-2.57868

> <r_i_glide_metal>
0

> <r_i_glide_rewards>
-0.162189

> <s_i_glide_gridfile>
wee1_glide-grid

> <s_m_Source_File>
wee1_decoys_glide_SP.sdf

> <s_m_Source_Path>
/Users/zhangxujun/Desktop

> <s_m_entry_id>
3058

> <s_m_entry_name>
wee1_decoys_glide_SP.2783

> <s_m_subgroup_title>
wee1_decoys_glide_SP

> <s_m_subgroupid>
wee1_decoys_glide_SP


$$$$
