ZINC14240889_4172
                    3D
 Schrodinger Suite 2024-2.
 65 69  0  0  1  0            999 V2000
    0.3159   53.5135   31.6448 C   0  0  0  0  0  0
    0.8173   54.4474   30.5250 C   0  0  0  0  0  0
    1.7081   53.8744   29.3600 C   0  0  0  0  0  0
    2.7579   52.8607   29.8926 C   0  0  0  0  0  0
    2.5071   55.0897   28.8078 C   0  0  0  0  0  0
    0.8205   53.2515   28.2017 C   0  0  2  0  0  0
   -0.0151   53.9417   28.0799 H   0  0  0  0  0  0
    0.2087   51.8671   28.5483 C   0  0  0  0  0  0
   -0.9355   51.4970   27.5870 C   0  0  0  0  0  0
   -0.4354   51.6031   26.1476 C   0  0  0  0  0  0
    0.7037   52.3581   25.8284 C   0  0  0  0  0  0
    1.0669   52.2980   24.1370 S   0  0  0  0  0  0
   -0.2585   51.2186   23.8641 C   0  0  0  0  0  0
   -0.9955   50.9553   25.0279 C   0  0  0  0  0  0
   -2.2149   50.1570   25.0775 C   0  0  0  0  0  0
   -3.1856   49.5266   25.1123 N   0  0  0  0  0  0
   -0.4530   50.8043   22.5590 N   0  0  0  0  0  0
   -0.5536   49.5163   22.1693 C   0  0  0  0  0  0
   -0.4955   48.5474   22.9253 O   0  0  0  0  0  0
   -0.7440   49.2731   20.6622 C   0  0  0  0  0  0
    0.4268   49.7527   19.8975 N   0  0  0  0  0  0
    0.6356   51.0542   19.5942 C   0  0  0  0  0  0
   -0.1141   52.0089   19.8178 O   0  0  0  0  0  0
    1.9810   51.1088   18.8875 C   0  0  1  0  0  0
    1.8655   51.7610   17.4918 C   0  0  0  0  0  0
    3.0733   52.6907   17.3377 C   0  0  0  0  0  0
    3.5763   52.8977   18.7492 C   0  0  0  0  0  0
    2.9743   51.9948   19.6312 C   0  0  0  0  0  0
    3.3444   51.9932   20.9836 C   0  0  0  0  0  0
    4.3080   52.8928   21.4408 C   0  0  0  0  0  0
    4.9177   53.7806   20.5553 C   0  0  0  0  0  0
    4.5633   53.7721   19.2049 C   0  0  0  0  0  0
    2.3054   49.7094   18.8818 N   0  0  0  0  0  0
    1.4335   48.9243   19.5184 C   0  0  0  0  0  0
    1.5998   47.7474   19.8294 O   0  0  0  0  0  0
    1.5691   53.1125   26.8348 C   0  0  0  0  0  0
   -0.0932   54.0996   32.4680 H   0  0  0  0  0  0
    1.1071   52.8962   32.0657 H   0  0  0  0  0  0
   -0.4963   52.8709   31.3220 H   0  0  0  0  0  0
   -0.0739   54.8990   30.0929 H   0  0  0  0  0  0
    1.3216   55.2866   31.0063 H   0  0  0  0  0  0
    3.4245   52.5171   29.1034 H   0  0  0  0  0  0
    3.3853   53.2956   30.6699 H   0  0  0  0  0  0
    2.2920   51.9746   30.3215 H   0  0  0  0  0  0
    3.2527   54.8009   28.0660 H   0  0  0  0  0  0
    1.8477   55.8233   28.3398 H   0  0  0  0  0  0
    3.0593   55.6089   29.5919 H   0  0  0  0  0  0
    0.9751   51.0921   28.6072 H   0  0  0  0  0  0
   -0.2320   51.8756   29.5379 H   0  0  0  0  0  0
   -1.2915   50.4967   27.8140 H   0  0  0  0  0  0
   -1.7937   52.1522   27.7323 H   0  0  0  0  0  0
   -0.3025   51.4858   21.8303 H   0  0  0  0  0  0
   -0.9394   48.2150   20.4757 H   0  0  0  0  0  0
   -1.6370   49.8066   20.3366 H   0  0  0  0  0  0
    1.8374   51.0222   16.6869 H   0  0  0  0  0  0
    0.9578   52.3596   17.3820 H   0  0  0  0  0  0
    2.7972   53.6198   16.8423 H   0  0  0  0  0  0
    3.8429   52.2031   16.7361 H   0  0  0  0  0  0
    2.8959   51.2958   21.6767 H   0  0  0  0  0  0
    4.5922   52.8978   22.4818 H   0  0  0  0  0  0
    5.6696   54.4700   20.9107 H   0  0  0  0  0  0
    5.0510   54.4523   18.5210 H   0  0  0  0  0  0
    2.9857   49.3517   18.2143 H   0  0  0  0  0  0
    1.8199   54.0926   26.4269 H   0  0  0  0  0  0
    2.5049   52.5696   26.9755 H   0  0  0  0  0  0
  1  2  1  0  0  0
  1 37  1  0  0  0
  1 38  1  0  0  0
  1 39  1  0  0  0
  2  3  1  0  0  0
  2 40  1  0  0  0
  2 41  1  0  0  0
  3  4  1  0  0  0
  3  5  1  0  0  0
  3  6  1  0  0  0
  4 42  1  0  0  0
  4 43  1  0  0  0
  4 44  1  0  0  0
  5 45  1  0  0  0
  5 46  1  0  0  0
  5 47  1  0  0  0
  6  7  1  0  0  0
  6 36  1  0  0  0
  6  8  1  0  0  0
  8  9  1  0  0  0
  8 48  1  0  0  0
  8 49  1  0  0  0
  9 10  1  0  0  0
  9 50  1  0  0  0
  9 51  1  0  0  0
 10 14  1  0  0  0
 10 11  2  0  0  0
 11 12  1  0  0  0
 11 36  1  0  0  0
 12 13  1  0  0  0
 13 14  2  0  0  0
 13 17  1  0  0  0
 14 15  1  0  0  0
 15 16  3  0  0  0
 17 18  1  0  0  0
 17 52  1  0  0  0
 18 19  2  0  0  0
 18 20  1  0  0  0
 20 21  1  0  0  0
 20 53  1  0  0  0
 20 54  1  0  0  0
 21 34  1  0  0  0
 21 22  1  0  0  0
 22 23  2  0  0  0
 22 24  1  0  0  0
 24 28  1  0  0  0
 24 25  1  0  0  0
 24 33  1  0  0  0
 25 26  1  0  0  0
 25 55  1  0  0  0
 25 56  1  0  0  0
 26 27  1  0  0  0
 26 57  1  0  0  0
 26 58  1  0  0  0
 27 32  2  0  0  0
 27 28  1  0  0  0
 28 29  2  0  0  0
 29 30  1  0  0  0
 29 59  1  0  0  0
 30 31  2  0  0  0
 30 60  1  0  0  0
 31 32  1  0  0  0
 31 61  1  0  0  0
 32 62  1  0  0  0
 33 34  1  0  0  0
 33 63  1  0  0  0
 34 35  2  0  0  0
 36 64  1  0  0  0
 36 65  1  0  0  0
M  END
> <i_i_glide_confnum>
11

> <i_i_glide_lignum>
4173

> <i_i_glide_posenum>
108

> <i_i_glide_rotatable_bonds>
7

> <i_m_Source_File_Index>
1828

> <b_m_subgroup_collapsed>
0

> <r_i_docking_score>
-4.11938

> <r_i_glide_ecoul>
-2.42078

> <r_i_glide_eff_state_penalty>
0

> <r_i_glide_einternal>
19.6279

> <r_i_glide_emodel>
-45.7685

> <r_i_glide_energy>
-43.8502

> <r_i_glide_erotb>
0.338202

> <r_i_glide_esite>
-0.172374

> <r_i_glide_evdw>
-41.4294

> <r_i_glide_gscore>
-4.11938

> <r_i_glide_hbond>
-0.16

> <r_i_glide_ligand_efficiency>
-0.117696

> <r_i_glide_ligand_efficiency_ln>
-0.904294

> <r_i_glide_ligand_efficiency_sa>
-0.384993

> <r_i_glide_lipo>
-1.61351

> <r_i_glide_metal>
0

> <r_i_glide_rewards>
-0.0771008

> <s_i_glide_gridfile>
wee1_glide-grid

> <s_m_Source_File>
wee1_decoys_glide_SP.sdf

> <s_m_Source_Path>
/Users/zhangxujun/Desktop

> <s_m_entry_id>
2103

> <s_m_entry_name>
wee1_decoys_glide_SP.1828

> <s_m_subgroup_title>
wee1_decoys_glide_SP

> <s_m_subgroupid>
wee1_decoys_glide_SP


$$$$
