ZINC35240456_5064
                    3D
 Schrodinger Suite 2024-2.
 52 55  0  0  1  0            999 V2000
    4.6296   53.6358   12.9111 C   0  0  0  0  0  0
    4.4641   52.3813   13.4953 C   0  0  0  0  0  0
    4.4332   52.2657   14.8819 C   0  0  0  0  0  0
    4.5652   53.4073   15.6797 C   0  0  0  0  0  0
    4.7328   54.6657   15.0872 C   0  0  0  0  0  0
    4.7640   54.7773   13.6998 C   0  0  0  0  0  0
    4.5457   53.2881   17.0884 N   0  0  0  0  0  0
    5.7030   53.3883   17.7815 C   0  0  0  0  0  0
    6.8610   53.4997   17.3718 O   0  0  0  0  0  0
    5.2815   53.4092   19.2348 C   0  0  2  0  0  0
    5.8610   52.6453   19.7564 H   0  0  0  0  0  0
    3.8959   52.9951   19.0992 N   0  0  0  0  0  0
    3.4037   53.0563   17.8248 C   0  0  0  0  0  0
    1.8093   52.8959   17.3151 S   0  0  0  0  0  0
    3.1036   52.8967   20.2494 N   0  0  0  0  0  0
    3.1388   51.7790   21.0072 C   0  0  0  0  0  0
    3.9899   50.8972   20.8815 O   0  0  0  0  0  0
    2.1158   51.6917   22.1226 C   0  0  0  0  0  0
    1.9088   50.4667   22.7762 C   0  0  0  0  0  0
    1.0083   50.3679   23.8330 C   0  0  0  0  0  0
    0.3048   51.4947   24.2485 C   0  0  0  0  0  0
    0.4872   52.7158   23.6071 C   0  0  0  0  0  0
    1.3823   52.8141   22.5452 C   0  0  0  0  0  0
   -0.7964   51.3830   25.5718 Cl  0  0  0  0  0  0
    5.4736   54.8512   19.8133 C   0  0  0  0  0  0
    5.9354   54.9204   21.2776 C   0  0  0  0  0  0
    7.0315   55.4241   21.5229 O   0  0  0  0  0  0
    5.0775   54.4739   22.2180 N   0  0  0  0  0  0
    5.2433   54.4530   23.6197 C   0  0  0  0  0  0
    6.4888   54.4942   24.2688 C   0  0  0  0  0  0
    6.5490   54.4763   25.6610 C   0  0  0  0  0  0
    5.3762   54.4108   26.4066 C   0  0  0  0  0  0
    4.1388   54.3599   25.7727 C   0  0  0  0  0  0
    4.0740   54.3765   24.3821 C   0  0  0  0  0  0
    5.4400   54.3937   27.7568 F   0  0  0  0  0  0
    4.6548   53.7241   11.8351 H   0  0  0  0  0  0
    4.3608   51.5019   12.8773 H   0  0  0  0  0  0
    4.3035   51.2960   15.3397 H   0  0  0  0  0  0
    4.8406   55.5509   15.6983 H   0  0  0  0  0  0
    4.8940   55.7455   13.2382 H   0  0  0  0  0  0
    2.3185   53.5353   20.2234 H   0  0  0  0  0  0
    2.4582   49.5816   22.4838 H   0  0  0  0  0  0
    0.8708   49.4213   24.3370 H   0  0  0  0  0  0
   -0.0609   53.5862   23.9371 H   0  0  0  0  0  0
    1.5054   53.7814   22.0803 H   0  0  0  0  0  0
    4.5636   55.4344   19.6819 H   0  0  0  0  0  0
    6.2215   55.4092   19.2425 H   0  0  0  0  0  0
    4.1724   54.1801   21.8875 H   0  0  0  0  0  0
    7.4165   54.5242   23.7171 H   0  0  0  0  0  0
    7.5001   54.4955   26.1688 H   0  0  0  0  0  0
    3.2342   54.3054   26.3597 H   0  0  0  0  0  0
    3.1066   54.3499   23.9067 H   0  0  0  0  0  0
  1  6  2  0  0  0
  1  2  1  0  0  0
  1 36  1  0  0  0
  2  3  2  0  0  0
  2 37  1  0  0  0
  3  4  1  0  0  0
  3 38  1  0  0  0
  4  5  2  0  0  0
  4  7  1  0  0  0
  5  6  1  0  0  0
  5 39  1  0  0  0
  6 40  1  0  0  0
  7 13  1  0  0  0
  7  8  1  0  0  0
  8  9  2  0  0  0
  8 10  1  0  0  0
 10 11  1  0  0  0
 10 12  1  0  0  0
 10 25  1  0  0  0
 12 13  1  0  0  0
 12 15  1  0  0  0
 13 14  2  0  0  0
 15 16  1  0  0  0
 15 41  1  0  0  0
 16 17  2  0  0  0
 16 18  1  0  0  0
 18 23  2  0  0  0
 18 19  1  0  0  0
 19 20  2  0  0  0
 19 42  1  0  0  0
 20 21  1  0  0  0
 20 43  1  0  0  0
 21 22  2  0  0  0
 21 24  1  0  0  0
 22 23  1  0  0  0
 22 44  1  0  0  0
 23 45  1  0  0  0
 25 26  1  0  0  0
 25 46  1  0  0  0
 25 47  1  0  0  0
 26 27  2  0  0  0
 26 28  1  0  0  0
 28 29  1  0  0  0
 28 48  1  0  0  0
 29 34  2  0  0  0
 29 30  1  0  0  0
 30 31  2  0  0  0
 30 49  1  0  0  0
 31 32  1  0  0  0
 31 50  1  0  0  0
 32 33  2  0  0  0
 32 35  1  0  0  0
 33 34  1  0  0  0
 33 51  1  0  0  0
 34 52  1  0  0  0
M  END
> <i_i_glide_confnum>
134

> <i_i_glide_lignum>
5065

> <i_i_glide_posenum>
100

> <i_i_glide_rotatable_bonds>
8

> <i_m_Source_File_Index>
3421

> <b_m_subgroup_collapsed>
0

> <r_i_docking_score>
-5.78533

> <r_i_glide_ecoul>
-4.58542

> <r_i_glide_eff_state_penalty>
0

> <r_i_glide_einternal>
5.21289

> <r_i_glide_emodel>
-63.197

> <r_i_glide_energy>
-46.2896

> <r_i_glide_erotb>
0.578131

> <r_i_glide_esite>
-0.237062

> <r_i_glide_evdw>
-41.7042

> <r_i_glide_gscore>
-5.78533

> <r_i_glide_hbond>
-0.371064

> <r_i_glide_ligand_efficiency>
-0.170157

> <r_i_glide_ligand_efficiency_ln>
-1.27814

> <r_i_glide_ligand_efficiency_sa>
-0.551242

> <r_i_glide_lipo>
-2.15395

> <r_i_glide_metal>
0

> <r_i_glide_rewards>
-0.828364

> <s_i_glide_gridfile>
wee1_glide-grid

> <s_m_Source_File>
wee1_decoys_glide_SP.sdf

> <s_m_Source_Path>
/Users/zhangxujun/Desktop

> <s_m_entry_id>
3696

> <s_m_entry_name>
wee1_decoys_glide_SP.3421

> <s_m_subgroup_title>
wee1_decoys_glide_SP

> <s_m_subgroupid>
wee1_decoys_glide_SP


$$$$
