ZINC58161401_190
                    3D
 Schrodinger Suite 2024-2.
 64 67  0  0  1  0            999 V2000
    6.8391   55.6778   16.0076 C   0  0  0  0  0  0
    6.9988   54.3305   16.7552 C   0  0  2  0  0  0
    8.0685   54.1548   16.8724 H   0  0  0  0  0  0
    6.4042   53.2147   15.8731 C   0  0  0  0  0  0
    5.0097   53.0571   15.8529 C   0  0  0  0  0  0
    4.3988   52.1761   14.9644 C   0  0  0  0  0  0
    5.1752   51.4319   14.0838 C   0  0  0  0  0  0
    6.5616   51.5556   14.1062 C   0  0  0  0  0  0
    7.2018   52.4317   14.9996 C   0  0  0  0  0  0
    8.5949   52.4738   15.0407 N   0  0  0  0  0  0
    9.2983   51.8824   16.1961 C   0  0  0  0  0  0
    9.8692   50.4669   15.9420 C   0  0  0  0  0  0
   10.8032   50.5217   14.7180 N   0  3  0  0  0  0
   10.0204   51.0268   13.4914 C   0  0  0  0  0  0
    9.4202   52.4155   13.8181 C   0  0  0  0  0  0
   11.4218   49.1391   14.4171 C   0  0  0  0  0  0
    3.0523   52.0597   14.9437 F   0  0  0  0  0  0
    6.4608   54.3475   18.1316 N   0  0  0  0  0  0
    6.8741   55.1816   19.1111 C   0  0  0  0  0  0
    7.6983   56.0773   18.9180 O   0  0  0  0  0  0
    6.3487   54.9458   20.5107 C   0  0  0  0  0  0
    7.1142   55.3918   21.5955 C   0  0  0  0  0  0
    6.7046   55.1668   22.9025 C   0  0  0  0  0  0
    5.5050   54.4949   23.1584 C   0  0  0  0  0  0
    4.7267   54.0568   22.0803 C   0  0  0  0  0  0
    5.1409   54.2773   20.7653 C   0  0  0  0  0  0
    4.9943   54.2509   24.4501 N   0  0  0  0  0  0
    5.5342   54.5047   25.6679 C   0  0  0  0  0  0
    6.6695   54.9559   25.8449 O   0  0  0  0  0  0
    4.6408   54.2192   26.8634 C   0  0  0  0  0  0
    5.1087   54.4955   28.1588 C   0  0  0  0  0  0
    4.3038   54.2671   29.2715 C   0  0  0  0  0  0
    3.0243   53.7478   29.1044 C   0  0  0  0  0  0
    2.5410   53.4615   27.8320 C   0  0  0  0  0  0
    3.3415   53.6972   26.7174 C   0  0  0  0  0  0
    7.2150   55.6060   14.9857 H   0  0  0  0  0  0
    5.7922   55.9815   15.9512 H   0  0  0  0  0  0
    7.3932   56.4883   16.4799 H   0  0  0  0  0  0
    4.3835   53.6497   16.5034 H   0  0  0  0  0  0
    4.6996   50.7449   13.4001 H   0  0  0  0  0  0
    7.1348   50.9414   13.4299 H   0  0  0  0  0  0
    8.6508   51.8510   17.0748 H   0  0  0  0  0  0
   10.1202   52.5620   16.4274 H   0  0  0  0  0  0
   10.4876   50.1542   16.7862 H   0  0  0  0  0  0
    9.1039   49.7168   15.7438 H   0  0  0  0  0  0
   10.7494   51.1046   12.6798 H   0  0  0  0  0  0
    9.2705   50.2744   13.2396 H   0  0  0  0  0  0
   10.2389   53.1159   13.9963 H   0  0  0  0  0  0
    8.8634   52.7961   12.9608 H   0  0  0  0  0  0
   10.6261   48.4672   14.0868 H   0  0  0  0  0  0
   12.1625   49.2833   13.6279 H   0  0  0  0  0  0
   11.9047   48.7789   15.3284 H   0  0  0  0  0  0
    5.9437   53.5250   18.4068 H   0  0  0  0  0  0
    8.0549   55.9032   21.4404 H   0  0  0  0  0  0
    7.3441   55.5374   23.6864 H   0  0  0  0  0  0
    3.7901   53.5443   22.2490 H   0  0  0  0  0  0
    4.5142   53.9275   19.9567 H   0  0  0  0  0  0
    4.0785   53.8337   24.4611 H   0  0  0  0  0  0
    6.1001   54.8971   28.3187 H   0  0  0  0  0  0
    4.6784   54.4963   30.2570 H   0  0  0  0  0  0
    2.3983   53.5634   29.9646 H   0  0  0  0  0  0
    1.5472   53.0552   27.7092 H   0  0  0  0  0  0
    2.9265   53.4600   25.7496 H   0  0  0  0  0  0
   11.5477   51.1793   14.9159 H   0  0  0  0  0  0
  1  2  1  0  0  0
  1 36  1  0  0  0
  1 37  1  0  0  0
  1 38  1  0  0  0
  2  3  1  0  0  0
  2  4  1  0  0  0
  2 18  1  0  0  0
  4  9  2  0  0  0
  4  5  1  0  0  0
  5  6  2  0  0  0
  5 39  1  0  0  0
  6  7  1  0  0  0
  6 17  1  0  0  0
  7  8  2  0  0  0
  7 40  1  0  0  0
  8  9  1  0  0  0
  8 41  1  0  0  0
  9 10  1  0  0  0
 10 15  1  0  0  0
 10 11  1  0  0  0
 11 12  1  0  0  0
 11 42  1  0  0  0
 11 43  1  0  0  0
 12 13  1  0  0  0
 12 44  1  0  0  0
 12 45  1  0  0  0
 13 14  1  0  0  0
 13 16  1  0  0  0
 13 64  1  0  0  0
 14 15  1  0  0  0
 14 46  1  0  0  0
 14 47  1  0  0  0
 15 48  1  0  0  0
 15 49  1  0  0  0
 16 50  1  0  0  0
 16 51  1  0  0  0
 16 52  1  0  0  0
 18 19  1  0  0  0
 18 53  1  0  0  0
 19 20  2  0  0  0
 19 21  1  0  0  0
 21 26  2  0  0  0
 21 22  1  0  0  0
 22 23  2  0  0  0
 22 54  1  0  0  0
 23 24  1  0  0  0
 23 55  1  0  0  0
 24 25  2  0  0  0
 24 27  1  0  0  0
 25 26  1  0  0  0
 25 56  1  0  0  0
 26 57  1  0  0  0
 27 28  1  0  0  0
 27 58  1  0  0  0
 28 29  2  0  0  0
 28 30  1  0  0  0
 30 35  2  0  0  0
 30 31  1  0  0  0
 31 32  2  0  0  0
 31 59  1  0  0  0
 32 33  1  0  0  0
 32 60  1  0  0  0
 33 34  2  0  0  0
 33 61  1  0  0  0
 34 35  1  0  0  0
 34 62  1  0  0  0
 35 63  1  0  0  0
M  CHG  1  13   1
M  END
> <i_i_glide_confnum>
75

> <i_i_glide_lignum>
191

> <i_i_glide_posenum>
164

> <i_i_glide_rotatable_bonds>
8

> <i_m_Source_File_Index>
1907

> <b_m_subgroup_collapsed>
0

> <r_i_docking_score>
-5.72227

> <r_i_glide_ecoul>
-6.2521

> <r_i_glide_eff_state_penalty>
0

> <r_i_glide_einternal>
4.51418

> <r_i_glide_emodel>
-65.6081

> <r_i_glide_energy>
-47.6557

> <r_i_glide_erotb>
0.756218

> <r_i_glide_esite>
-0.0520848

> <r_i_glide_evdw>
-41.4036

> <r_i_glide_gscore>
-5.72227

> <r_i_glide_hbond>
-0.22873

> <r_i_glide_ligand_efficiency>
-0.168302

> <r_i_glide_ligand_efficiency_ln>
-1.26421

> <r_i_glide_ligand_efficiency_sa>
-0.545234

> <r_i_glide_lipo>
-2.39457

> <r_i_glide_metal>
0

> <r_i_glide_rewards>
-0.795119

> <s_i_glide_gridfile>
wee1_glide-grid

> <s_m_Source_File>
wee1_decoys_glide_SP.sdf

> <s_m_Source_Path>
/Users/zhangxujun/Desktop

> <s_m_entry_id>
2182

> <s_m_entry_name>
wee1_decoys_glide_SP.1907

> <s_m_subgroup_title>
wee1_decoys_glide_SP

> <s_m_subgroupid>
wee1_decoys_glide_SP


$$$$
