ZINC50002940_1857
                    3D
 Schrodinger Suite 2024-2.
 37 38  0  0  1  0            999 V2000
    6.8592   54.3737   27.6903 C   0  0  0  0  0  0
    6.0603   54.3288   26.4029 C   0  0  0  0  0  0
    4.6729   54.2225   26.4564 C   0  0  0  0  0  0
    3.9396   54.1200   25.2792 C   0  0  0  0  0  0
    4.5743   54.0976   24.0237 C   0  0  0  0  0  0
    5.9729   54.2199   23.9973 C   0  0  0  0  0  0
    6.7044   54.3731   25.1686 C   0  0  0  0  0  0
    3.8380   53.9274   22.8164 N   0  0  0  0  0  0
    2.3683   53.9219   22.9128 C   0  0  0  0  0  0
    4.3278   53.8879   21.4819 C   0  0  0  0  0  0
    5.1970   54.8944   21.0336 C   0  0  0  0  0  0
    5.6926   54.9102   19.7350 C   0  0  0  0  0  0
    5.3244   53.9057   18.8479 C   0  0  0  0  0  0
    4.4583   52.8963   19.2652 C   0  0  0  0  0  0
    3.9761   52.8621   20.5730 C   0  0  0  0  0  0
    3.1934   51.7605   20.9376 N   0  0  0  0  0  0
    6.0122   53.8447   17.2055 S   0  0  0  0  0  0
    4.9340   53.4804   16.2830 O   0  0  0  0  0  0
    6.8174   55.0512   16.9917 O   0  0  0  0  0  0
    7.1043   52.4966   17.2808 N   0  0  0  0  0  0
    7.8057   54.8964   27.5661 H   0  0  0  0  0  0
    7.0678   53.3645   28.0436 H   0  0  0  0  0  0
    6.3043   54.8964   28.4698 H   0  0  0  0  0  0
    4.1601   54.2003   27.4076 H   0  0  0  0  0  0
    2.8695   54.0245   25.3724 H   0  0  0  0  0  0
    6.5287   54.1898   23.0753 H   0  0  0  0  0  0
    7.7738   54.4967   25.1008 H   0  0  0  0  0  0
    1.8749   53.8426   21.9441 H   0  0  0  0  0  0
    2.0194   53.0772   23.5078 H   0  0  0  0  0  0
    2.0100   54.8515   23.3562 H   0  0  0  0  0  0
    5.4957   55.6966   21.6826 H   0  0  0  0  0  0
    6.3693   55.6954   19.4284 H   0  0  0  0  0  0
    4.1969   52.1052   18.5732 H   0  0  0  0  0  0
    2.9871   51.0448   20.2549 H   0  0  0  0  0  0
    2.8464   51.7076   21.8842 H   0  0  0  0  0  0
    6.5725   51.6225   17.4256 H   0  0  0  0  0  0
    7.6588   52.4039   16.4283 H   0  0  0  0  0  0
  1  2  1  0  0  0
  1 21  1  0  0  0
  1 22  1  0  0  0
  1 23  1  0  0  0
  2  7  2  0  0  0
  2  3  1  0  0  0
  3  4  2  0  0  0
  3 24  1  0  0  0
  4  5  1  0  0  0
  4 25  1  0  0  0
  5  6  2  0  0  0
  5  8  1  0  0  0
  6  7  1  0  0  0
  6 26  1  0  0  0
  7 27  1  0  0  0
  8  9  1  0  0  0
  8 10  1  0  0  0
  9 28  1  0  0  0
  9 29  1  0  0  0
  9 30  1  0  0  0
 10 15  2  0  0  0
 10 11  1  0  0  0
 11 12  2  0  0  0
 11 31  1  0  0  0
 12 13  1  0  0  0
 12 32  1  0  0  0
 13 14  2  0  0  0
 13 17  1  0  0  0
 14 15  1  0  0  0
 14 33  1  0  0  0
 15 16  1  0  0  0
 16 34  1  0  0  0
 16 35  1  0  0  0
 17 18  2  0  0  0
 17 19  2  0  0  0
 17 20  1  0  0  0
 20 36  1  0  0  0
 20 37  1  0  0  0
M  END
> <i_i_glide_confnum>
3

> <i_i_glide_lignum>
1858

> <i_i_glide_posenum>
320

> <i_i_glide_rotatable_bonds>
3

> <i_m_Source_File_Index>
128

> <b_m_subgroup_collapsed>
0

> <r_i_docking_score>
-5.08915

> <r_i_glide_ecoul>
-2.08662

> <r_i_glide_eff_state_penalty>
0

> <r_i_glide_einternal>
1.16438

> <r_i_glide_emodel>
-40.3746

> <r_i_glide_energy>
-30.7812

> <r_i_glide_erotb>
0.429699

> <r_i_glide_esite>
-0.106625

> <r_i_glide_evdw>
-28.6946

> <r_i_glide_gscore>
-5.08915

> <r_i_glide_hbond>
-0.16

> <r_i_glide_ligand_efficiency>
-0.254458

> <r_i_glide_ligand_efficiency_ln>
-1.27365

> <r_i_glide_ligand_efficiency_sa>
-0.690704

> <r_i_glide_lipo>
-2.29796

> <r_i_glide_metal>
0

> <r_i_glide_rewards>
-1.20655

> <s_i_glide_gridfile>
wee1_glide-grid

> <s_m_Source_File>
wee1_decoys_glide_SP.sdf

> <s_m_Source_Path>
/Users/zhangxujun/Desktop

> <s_m_entry_id>
403

> <s_m_entry_name>
wee1_decoys_glide_SP.128

> <s_m_subgroup_title>
wee1_decoys_glide_SP

> <s_m_subgroupid>
wee1_decoys_glide_SP


$$$$
