ZINC22827657_43
                    3D
 Schrodinger Suite 2024-2.
 52 54  0  0  1  0            999 V2000
   -1.8830   53.1266   23.6030 C   0  0  0  0  0  0
   -1.7509   52.4235   24.9695 C   0  0  0  0  0  0
   -0.6088   51.8021   25.3862 C   0  0  0  0  0  0
   -0.6029   50.9829   26.7021 C   0  0  2  0  0  0
    0.0327   50.1048   26.5650 H   0  0  0  0  0  0
   -1.9892   50.4970   26.8606 N   0  0  0  0  0  0
   -3.1175   51.2141   26.5646 C   0  0  0  0  0  0
   -4.5257   50.7342   27.3309 S   0  0  0  0  0  0
   -2.9426   52.2674   25.6682 N   0  0  0  0  0  0
   -4.0815   53.1958   25.4792 C   0  0  0  0  0  0
   -0.0086   51.6705   27.9473 C   0  0  0  0  0  0
   -0.7927   51.9420   29.0794 C   0  0  0  0  0  0
   -0.2298   52.4869   30.2310 C   0  0  0  0  0  0
    1.1288   52.7732   30.2746 C   0  0  0  0  0  0
    1.9300   52.4998   29.1646 C   0  0  0  0  0  0
    1.3632   51.9475   28.0107 C   0  0  0  0  0  0
    3.3541   52.7688   29.2264 C   0  0  0  0  0  0
    4.4862   52.9842   29.2814 N   0  0  0  0  0  0
    0.6445   51.8710   24.6676 C   0  0  0  0  0  0
    1.1130   50.8823   24.1055 O   0  0  0  0  0  0
    1.2246   53.0890   24.7052 N   0  0  0  0  0  0
    2.4528   53.4223   24.1092 C   0  0  0  0  0  0
    3.4522   53.9328   24.9463 C   0  0  0  0  0  0
    4.7179   54.2635   24.4342 C   0  0  0  0  0  0
    4.9527   54.0967   23.0712 C   0  0  0  0  0  0
    3.9573   53.6117   22.2262 C   0  0  0  0  0  0
    2.6895   53.2696   22.7276 C   0  0  0  0  0  0
    1.6580   52.8135   21.9252 O   0  0  0  0  0  0
    1.9306   52.4531   20.5739 C   0  0  0  0  0  0
    5.7721   54.7499   25.1826 O   0  0  0  0  0  0
    5.6945   54.6965   26.6016 C   0  0  0  0  0  0
   -1.0611   52.8931   22.9272 H   0  0  0  0  0  0
   -2.7859   52.7952   23.0891 H   0  0  0  0  0  0
   -1.9218   54.2108   23.6816 H   0  0  0  0  0  0
   -2.1280   49.7152   27.4993 H   0  0  0  0  0  0
   -4.5088   53.5104   26.4328 H   0  0  0  0  0  0
   -3.7909   54.1136   24.9711 H   0  0  0  0  0  0
   -4.8685   52.7203   24.8897 H   0  0  0  0  0  0
   -1.8441   51.6989   29.0995 H   0  0  0  0  0  0
   -0.8451   52.6571   31.1034 H   0  0  0  0  0  0
    1.5428   53.1832   31.1844 H   0  0  0  0  0  0
    1.9897   51.7023   27.1661 H   0  0  0  0  0  0
    0.8202   53.7695   25.3279 H   0  0  0  0  0  0
    3.2463   54.0439   25.9991 H   0  0  0  0  0  0
    5.9195   54.3501   22.6621 H   0  0  0  0  0  0
    4.1907   53.5153   21.1775 H   0  0  0  0  0  0
    1.0117   52.1077   20.1027 H   0  0  0  0  0  0
    2.3048   53.2932   19.9866 H   0  0  0  0  0  0
    2.6555   51.6396   20.5236 H   0  0  0  0  0  0
    6.6166   55.0881   27.0329 H   0  0  0  0  0  0
    4.8705   55.2967   26.9897 H   0  0  0  0  0  0
    5.5854   53.6648   26.9371 H   0  0  0  0  0  0
  1  2  1  0  0  0
  1 32  1  0  0  0
  1 33  1  0  0  0
  1 34  1  0  0  0
  2  9  1  0  0  0
  2  3  2  0  0  0
  3  4  1  0  0  0
  3 19  1  0  0  0
  4  5  1  0  0  0
  4  6  1  0  0  0
  4 11  1  0  0  0
  6  7  1  0  0  0
  6 35  1  0  0  0
  7  8  2  0  0  0
  7  9  1  0  0  0
  9 10  1  0  0  0
 10 36  1  0  0  0
 10 37  1  0  0  0
 10 38  1  0  0  0
 11 16  2  0  0  0
 11 12  1  0  0  0
 12 13  2  0  0  0
 12 39  1  0  0  0
 13 14  1  0  0  0
 13 40  1  0  0  0
 14 15  2  0  0  0
 14 41  1  0  0  0
 15 16  1  0  0  0
 15 17  1  0  0  0
 16 42  1  0  0  0
 17 18  3  0  0  0
 19 20  2  0  0  0
 19 21  1  0  0  0
 21 22  1  0  0  0
 21 43  1  0  0  0
 22 27  2  0  0  0
 22 23  1  0  0  0
 23 24  2  0  0  0
 23 44  1  0  0  0
 24 25  1  0  0  0
 24 30  1  0  0  0
 25 26  2  0  0  0
 25 45  1  0  0  0
 26 27  1  0  0  0
 26 46  1  0  0  0
 27 28  1  0  0  0
 28 29  1  0  0  0
 29 47  1  0  0  0
 29 48  1  0  0  0
 29 49  1  0  0  0
 30 31  1  0  0  0
 31 50  1  0  0  0
 31 51  1  0  0  0
 31 52  1  0  0  0
M  END
> <i_i_glide_confnum>
29

> <i_i_glide_lignum>
44

> <i_i_glide_posenum>
224

> <i_i_glide_rotatable_bonds>
7

> <i_m_Source_File_Index>
5969

> <b_m_subgroup_collapsed>
0

> <r_i_docking_score>
-5.38721

> <r_i_glide_ecoul>
-1.95997

> <r_i_glide_eff_state_penalty>
0

> <r_i_glide_einternal>
8.90731

> <r_i_glide_emodel>
-56.269

> <r_i_glide_energy>
-44.8488

> <r_i_glide_erotb>
0.443926

> <r_i_glide_esite>
-0.165202

> <r_i_glide_evdw>
-42.8888

> <r_i_glide_gscore>
-5.38721

> <r_i_glide_hbond>
-0.16

> <r_i_glide_ligand_efficiency>
-0.179574

> <r_i_glide_ligand_efficiency_ln>
-1.22403

> <r_i_glide_ligand_efficiency_sa>
-0.557977

> <r_i_glide_lipo>
-2.12753

> <r_i_glide_metal>
0

> <r_i_glide_rewards>
-0.939972

> <s_i_glide_gridfile>
wee1_glide-grid

> <s_m_Source_File>
wee1_decoys_glide_SP.sdf

> <s_m_Source_Path>
/Users/zhangxujun/Desktop

> <s_m_entry_id>
6244

> <s_m_entry_name>
wee1_decoys_glide_SP.5969

> <s_m_subgroup_title>
wee1_decoys_glide_SP

> <s_m_subgroupid>
wee1_decoys_glide_SP


$$$$
