ZINC44939183_5357
                    3D
 Schrodinger Suite 2024-2.
 64 67  0  0  1  0            999 V2000
    3.9558   58.2102   16.0100 C   0  0  0  0  0  0
    4.8884   57.7157   16.9654 O   0  0  0  0  0  0
    6.1917   58.1865   16.9506 C   0  0  0  0  0  0
    6.7061   59.0179   15.9414 C   0  0  0  0  0  0
    8.0068   59.5160   16.0180 C   0  0  0  0  0  0
    8.8183   59.1807   17.1027 C   0  0  0  0  0  0
    8.3403   58.3116   18.0793 C   0  0  0  0  0  0
    7.0321   57.8148   18.0135 C   0  0  0  0  0  0
    6.4794   57.0055   19.0222 N   0  0  0  0  0  0
    7.1038   56.1841   19.8899 C   0  0  0  0  0  0
    8.3046   55.9166   19.8601 O   0  0  0  0  0  0
    6.1925   55.5678   20.9668 C   0  0  1  0  0  0
    5.5053   56.3689   21.2283 H   0  0  0  0  0  0
    5.4190   54.3736   20.3529 C   0  0  0  0  0  0
    4.5421   53.7002   21.4232 C   0  0  0  0  0  0
    5.3389   53.2929   22.6756 C   0  0  0  0  0  0
    6.0277   54.5506   23.2589 N   0  3  2  0  0  0
    6.9992   55.1981   22.2404 C   0  0  0  0  0  0
    6.7610   54.2438   24.5886 C   0  0  0  0  0  0
    5.9166   54.2386   25.8593 C   0  0  0  0  0  0
    6.5784   54.0953   27.0808 C   0  0  0  0  0  0
    5.8638   54.0975   28.2728 C   0  0  0  0  0  0
    4.4789   54.2399   28.2473 C   0  0  0  0  0  0
    3.8079   54.3882   27.0361 C   0  0  0  0  0  0
    4.5239   54.3949   25.8414 C   0  0  0  0  0  0
    3.5894   54.2471   29.7251 Cl  0  0  0  0  0  0
   10.4541   59.8857   17.2842 S   0  0  0  0  0  0
   10.6703   60.1066   18.7212 O   0  0  0  0  0  0
   10.5523   61.0104   16.3460 O   0  0  0  0  0  0
   11.5674   58.6258   16.7373 N   0  0  0  0  0  0
   12.9470   59.0267   16.3645 C   0  0  0  0  0  0
   13.7868   58.3203   17.4129 C   0  0  0  0  0  0
   13.0731   56.9927   17.5520 C   0  0  0  0  0  0
   11.5746   57.3078   17.4473 C   0  0  0  0  0  0
    2.9698   57.7960   16.2217 H   0  0  0  0  0  0
    3.8688   59.2964   16.0591 H   0  0  0  0  0  0
    4.2253   57.9179   14.9941 H   0  0  0  0  0  0
    6.0922   59.3323   15.1102 H   0  0  0  0  0  0
    8.3614   60.1899   15.2490 H   0  0  0  0  0  0
    8.9870   58.0698   18.9070 H   0  0  0  0  0  0
    5.4690   57.0073   19.0296 H   0  0  0  0  0  0
    4.7420   54.6990   19.5601 H   0  0  0  0  0  0
    6.0944   53.6047   19.9778 H   0  0  0  0  0  0
    3.7267   54.3686   21.7080 H   0  0  0  0  0  0
    4.0634   52.8167   20.9988 H   0  0  0  0  0  0
    4.6548   52.9013   23.4273 H   0  0  0  0  0  0
    6.1088   52.5465   22.4813 H   0  0  0  0  0  0
    7.8190   54.4970   22.0813 H   0  0  0  0  0  0
    7.3807   56.0962   22.7313 H   0  0  0  0  0  0
    7.2921   53.3006   24.4449 H   0  0  0  0  0  0
    7.5047   55.0309   24.6985 H   0  0  0  0  0  0
    7.6503   53.9800   27.1180 H   0  0  0  0  0  0
    6.3925   54.0100   29.2114 H   0  0  0  0  0  0
    2.7322   54.5023   27.0254 H   0  0  0  0  0  0
    3.9817   54.5214   24.9167 H   0  0  0  0  0  0
   13.0741   60.1036   16.2345 H   0  0  0  0  0  0
   13.1842   58.5973   15.3886 H   0  0  0  0  0  0
   13.7731   58.8768   18.3539 H   0  0  0  0  0  0
   14.8274   58.2079   17.1060 H   0  0  0  0  0  0
   13.3725   56.3269   16.7389 H   0  0  0  0  0  0
   13.3259   56.4830   18.4820 H   0  0  0  0  0  0
   11.1459   56.4943   16.8592 H   0  0  0  0  0  0
   11.2306   57.3799   18.4803 H   0  0  0  0  0  0
    5.3076   55.2275   23.4716 H   0  0  0  0  0  0
  1  2  1  0  0  0
  1 35  1  0  0  0
  1 36  1  0  0  0
  1 37  1  0  0  0
  2  3  1  0  0  0
  3  8  2  0  0  0
  3  4  1  0  0  0
  4  5  2  0  0  0
  4 38  1  0  0  0
  5  6  1  0  0  0
  5 39  1  0  0  0
  6  7  2  0  0  0
  6 27  1  0  0  0
  7  8  1  0  0  0
  7 40  1  0  0  0
  8  9  1  0  0  0
  9 10  1  0  0  0
  9 41  1  0  0  0
 10 11  2  0  0  0
 10 12  1  0  0  0
 12 13  1  0  0  0
 12 18  1  0  0  0
 12 14  1  0  0  0
 14 15  1  0  0  0
 14 42  1  0  0  0
 14 43  1  0  0  0
 15 16  1  0  0  0
 15 44  1  0  0  0
 15 45  1  0  0  0
 16 17  1  0  0  0
 16 46  1  0  0  0
 16 47  1  0  0  0
 17 18  1  0  0  0
 17 19  1  0  0  0
 17 64  1  0  0  0
 18 48  1  0  0  0
 18 49  1  0  0  0
 19 20  1  0  0  0
 19 50  1  0  0  0
 19 51  1  0  0  0
 20 25  2  0  0  0
 20 21  1  0  0  0
 21 22  2  0  0  0
 21 52  1  0  0  0
 22 23  1  0  0  0
 22 53  1  0  0  0
 23 24  2  0  0  0
 23 26  1  0  0  0
 24 25  1  0  0  0
 24 54  1  0  0  0
 25 55  1  0  0  0
 27 28  2  0  0  0
 27 29  2  0  0  0
 27 30  1  0  0  0
 30 34  1  0  0  0
 30 31  1  0  0  0
 31 32  1  0  0  0
 31 56  1  0  0  0
 31 57  1  0  0  0
 32 33  1  0  0  0
 32 58  1  0  0  0
 32 59  1  0  0  0
 33 34  1  0  0  0
 33 60  1  0  0  0
 33 61  1  0  0  0
 34 62  1  0  0  0
 34 63  1  0  0  0
M  CHG  1  17   1
M  END
> <i_i_glide_confnum>
348

> <i_i_glide_lignum>
5358

> <i_i_glide_posenum>
345

> <i_i_glide_rotatable_bonds>
8

> <i_m_Source_File_Index>
741

> <b_m_subgroup_collapsed>
0

> <r_i_docking_score>
-3.25759

> <r_i_glide_ecoul>
-2.02107

> <r_i_glide_eff_state_penalty>
0

> <r_i_glide_einternal>
7.2413

> <r_i_glide_emodel>
-42.6935

> <r_i_glide_energy>
-40.8527

> <r_i_glide_erotb>
0.586542

> <r_i_glide_esite>
-0.0880633

> <r_i_glide_evdw>
-38.8317

> <r_i_glide_gscore>
-3.25759

> <r_i_glide_hbond>
0

> <r_i_glide_ligand_efficiency>
-0.0987148

> <r_i_glide_ligand_efficiency_ln>
-0.724471

> <r_i_glide_ligand_efficiency_sa>
-0.316631

> <r_i_glide_lipo>
-2.56846

> <r_i_glide_metal>
0

> <r_i_glide_rewards>
1.05714

> <s_i_glide_gridfile>
wee1_glide-grid

> <s_m_Source_File>
wee1_decoys_glide_SP.sdf

> <s_m_Source_Path>
/Users/zhangxujun/Desktop

> <s_m_entry_id>
1016

> <s_m_entry_name>
wee1_decoys_glide_SP.741

> <s_m_subgroup_title>
wee1_decoys_glide_SP

> <s_m_subgroupid>
wee1_decoys_glide_SP


$$$$
