ZINC34900202_4132
                    3D
 Schrodinger Suite 2024-2.
 72 75  0  0  1  0            999 V2000
    0.6917   51.9513   28.5783 C   0  0  0  0  0  0
   -0.6308   52.1539   27.8144 C   0  0  0  0  0  0
   -0.7381   51.3788   26.4680 C   0  0  1  0  0  0
   -0.5504   50.3366   26.7284 H   0  0  0  0  0  0
   -2.1692   51.4702   25.9104 C   0  0  0  0  0  0
   -2.5786   52.5240   25.0822 C   0  0  0  0  0  0
   -3.8920   52.5929   24.6283 C   0  0  0  0  0  0
   -4.8034   51.6100   25.0039 C   0  0  0  0  0  0
   -4.4138   50.5669   25.8385 C   0  0  0  0  0  0
   -3.1018   50.5035   26.2995 C   0  0  0  0  0  0
    0.3347   51.7710   25.4045 C   0  0  0  0  0  0
    0.8509   52.8930   25.4695 O   0  0  0  0  0  0
    0.7776   50.8321   24.5235 N   0  0  0  0  0  0
   -0.0126   49.6507   24.1434 C   0  0  0  0  0  0
   -0.6964   49.9894   22.8022 C   0  0  0  0  0  0
    0.3227   50.3699   21.7070 C   0  0  0  0  0  0
    1.3297   51.4458   22.2052 C   0  0  1  0  0  0
    0.8294   52.4141   22.2626 H   0  0  0  0  0  0
    1.9039   51.1223   23.6142 C   0  0  0  0  0  0
    2.4710   51.5729   21.1715 C   0  0  0  0  0  0
    3.4937   50.8964   21.2875 O   0  0  0  0  0  0
    2.2677   52.4083   20.1347 N   0  0  0  0  0  0
    3.1429   52.5438   18.9596 C   0  0  2  0  0  0
    3.9375   51.8004   19.0553 H   0  0  0  0  0  0
    3.8547   53.9167   18.9206 C   0  0  0  0  0  0
    4.7736   54.0926   17.7035 C   0  0  0  0  0  0
    4.0170   53.8396   16.3917 C   0  0  0  0  0  0
    3.3591   52.4474   16.3796 C   0  0  0  0  0  0
    2.4471   52.1849   17.6048 C   0  0  1  0  0  0
    1.6103   52.8817   17.5089 H   0  0  0  0  0  0
    1.9056   50.8206   17.5690 N   0  0  0  0  0  0
    0.6945   50.4264   17.9902 C   0  0  0  0  0  0
   -0.1942   51.2277   18.2924 O   0  0  0  0  0  0
    0.4744   48.9321   18.1395 C   0  0  0  0  0  0
   -0.6231   48.4663   18.8805 C   0  0  0  0  0  0
   -0.8264   47.1030   19.0674 C   0  0  0  0  0  0
    0.0573   46.1882   18.5034 C   0  0  0  0  0  0
    1.1406   46.6293   17.7503 C   0  0  0  0  0  0
    1.3550   47.9935   17.5749 C   0  0  0  0  0  0
   -0.1378   44.8612   18.6892 F   0  0  0  0  0  0
    0.6667   52.4751   29.5330 H   0  0  0  0  0  0
    0.8658   50.8984   28.7905 H   0  0  0  0  0  0
    1.5472   52.3262   28.0171 H   0  0  0  0  0  0
   -0.7875   53.2228   27.6613 H   0  0  0  0  0  0
   -1.4376   51.8265   28.4683 H   0  0  0  0  0  0
   -1.8804   53.2951   24.7928 H   0  0  0  0  0  0
   -4.2032   53.4059   23.9877 H   0  0  0  0  0  0
   -5.8246   51.6614   24.6497 H   0  0  0  0  0  0
   -5.1263   49.8102   26.1356 H   0  0  0  0  0  0
   -2.8084   49.6972   26.9601 H   0  0  0  0  0  0
    0.6931   48.8269   24.0121 H   0  0  0  0  0  0
   -0.6814   49.2851   24.9191 H   0  0  0  0  0  0
   -1.2797   49.1320   22.4675 H   0  0  0  0  0  0
   -1.4178   50.7951   22.9480 H   0  0  0  0  0  0
    0.8449   49.4368   21.4748 H   0  0  0  0  0  0
   -0.2451   50.7250   20.8460 H   0  0  0  0  0  0
    2.5686   51.8905   24.0154 H   0  0  0  0  0  0
    2.5020   50.2097   23.5825 H   0  0  0  0  0  0
    1.4612   53.0162   20.1423 H   0  0  0  0  0  0
    3.1076   54.7073   18.8826 H   0  0  0  0  0  0
    4.4286   54.0654   19.8391 H   0  0  0  0  0  0
    5.1991   55.0960   17.7011 H   0  0  0  0  0  0
    5.6174   53.4021   17.7801 H   0  0  0  0  0  0
    3.2528   54.6056   16.2555 H   0  0  0  0  0  0
    4.7010   53.9331   15.5470 H   0  0  0  0  0  0
    2.7862   52.3288   15.4589 H   0  0  0  0  0  0
    4.1537   51.7011   16.3566 H   0  0  0  0  0  0
    2.5840   50.1082   17.3098 H   0  0  0  0  0  0
   -1.3220   49.1629   19.3272 H   0  0  0  0  0  0
   -1.6707   46.7538   19.6434 H   0  0  0  0  0  0
    1.8195   45.9167   17.3059 H   0  0  0  0  0  0
    2.2180   48.3012   16.9983 H   0  0  0  0  0  0
  1  2  1  0  0  0
  1 41  1  0  0  0
  1 42  1  0  0  0
  1 43  1  0  0  0
  2  3  1  0  0  0
  2 44  1  0  0  0
  2 45  1  0  0  0
  3  4  1  0  0  0
  3  5  1  0  0  0
  3 11  1  0  0  0
  5 10  2  0  0  0
  5  6  1  0  0  0
  6  7  2  0  0  0
  6 46  1  0  0  0
  7  8  1  0  0  0
  7 47  1  0  0  0
  8  9  2  0  0  0
  8 48  1  0  0  0
  9 10  1  0  0  0
  9 49  1  0  0  0
 10 50  1  0  0  0
 11 12  2  0  0  0
 11 13  1  0  0  0
 13 19  1  0  0  0
 13 14  1  0  0  0
 14 15  1  0  0  0
 14 51  1  0  0  0
 14 52  1  0  0  0
 15 16  1  0  0  0
 15 53  1  0  0  0
 15 54  1  0  0  0
 16 17  1  0  0  0
 16 55  1  0  0  0
 16 56  1  0  0  0
 17 18  1  0  0  0
 17 19  1  0  0  0
 17 20  1  0  0  0
 19 57  1  0  0  0
 19 58  1  0  0  0
 20 21  2  0  0  0
 20 22  1  0  0  0
 22 23  1  0  0  0
 22 59  1  0  0  0
 23 24  1  0  0  0
 23 29  1  0  0  0
 23 25  1  0  0  0
 25 26  1  0  0  0
 25 60  1  0  0  0
 25 61  1  0  0  0
 26 27  1  0  0  0
 26 62  1  0  0  0
 26 63  1  0  0  0
 27 28  1  0  0  0
 27 64  1  0  0  0
 27 65  1  0  0  0
 28 29  1  0  0  0
 28 66  1  0  0  0
 28 67  1  0  0  0
 29 30  1  0  0  0
 29 31  1  0  0  0
 31 32  1  0  0  0
 31 68  1  0  0  0
 32 33  2  0  0  0
 32 34  1  0  0  0
 34 39  2  0  0  0
 34 35  1  0  0  0
 35 36  2  0  0  0
 35 69  1  0  0  0
 36 37  1  0  0  0
 36 70  1  0  0  0
 37 38  2  0  0  0
 37 40  1  0  0  0
 38 39  1  0  0  0
 38 71  1  0  0  0
 39 72  1  0  0  0
M  END
> <i_i_glide_confnum>
45

> <i_i_glide_lignum>
4133

> <i_i_glide_posenum>
114

> <i_i_glide_rotatable_bonds>
10

> <i_m_Source_File_Index>
1902

> <b_m_subgroup_collapsed>
0

> <r_i_docking_score>
-2.86491

> <r_i_glide_ecoul>
-7.85976

> <r_i_glide_eff_state_penalty>
0

> <r_i_glide_einternal>
5.83745

> <r_i_glide_emodel>
-40.4447

> <r_i_glide_energy>
-36.2311

> <r_i_glide_erotb>
0.752521

> <r_i_glide_esite>
-0.154828

> <r_i_glide_evdw>
-28.3714

> <r_i_glide_gscore>
-2.86491

> <r_i_glide_hbond>
-0.264008

> <r_i_glide_ligand_efficiency>
-0.0795807

> <r_i_glide_ligand_efficiency_ln>
-0.625045

> <r_i_glide_ligand_efficiency_sa>
-0.26277

> <r_i_glide_lipo>
-0.408077

> <r_i_glide_metal>
0

> <r_i_glide_rewards>
-0.192982

> <s_i_glide_gridfile>
wee1_glide-grid

> <s_m_Source_File>
wee1_decoys_glide_SP.sdf

> <s_m_Source_Path>
/Users/zhangxujun/Desktop

> <s_m_entry_id>
2177

> <s_m_entry_name>
wee1_decoys_glide_SP.1902

> <s_m_subgroup_title>
wee1_decoys_glide_SP

> <s_m_subgroupid>
wee1_decoys_glide_SP


$$$$
