ZINC01508389_706
                    3D
 Schrodinger Suite 2024-2.
 41 43  0  0  1  0            999 V2000
   -1.1204   51.3850   27.8734 C   0  0  0  0  0  0
   -0.9058   51.9408   26.4662 C   0  0  0  0  0  0
    0.2483   52.4453   25.9512 C   0  0  0  0  0  0
    0.2766   52.9002   24.4629 C   0  0  2  0  0  0
    0.4851   53.9721   24.4802 H   0  0  0  0  0  0
   -1.0896   52.8158   23.8839 N   0  0  0  0  0  0
   -2.2339   52.4703   24.5191 C   0  0  0  0  0  0
   -3.3352   52.8045   24.0958 O   0  0  0  0  0  0
   -2.0519   51.9105   25.7344 N   0  0  0  0  0  0
    1.3175   52.2568   23.5283 C   0  0  0  0  0  0
    2.2070   53.1018   22.8319 C   0  0  0  0  0  0
    3.0739   52.5318   21.9061 C   0  0  0  0  0  0
    3.0988   51.1868   21.6818 C   0  0  0  0  0  0
    2.2715   50.3144   22.3717 C   0  0  0  0  0  0
    1.3669   50.8555   23.2949 C   0  0  0  0  0  0
    0.2219   49.6207   24.1909 Br  0  0  0  0  0  0
    4.0658   50.8973   20.7770 O   0  0  0  0  0  0
    4.4309   52.1330   20.2289 C   0  0  0  0  0  0
    4.0172   53.1289   21.1288 O   0  0  0  0  0  0
    1.5033   52.5349   26.7409 C   0  0  0  0  0  0
    1.6488   52.0343   27.8596 O   0  0  0  0  0  0
    2.4810   53.2564   26.1351 O   0  0  0  0  0  0
    3.7315   53.4518   26.7918 C   0  0  0  0  0  0
    4.7241   54.2584   25.9406 C   0  0  0  0  0  0
    6.0584   54.4438   26.6975 C   0  0  0  0  0  0
    5.8662   54.8977   27.9353 F   0  0  0  0  0  0
    6.8629   55.2965   26.0649 F   0  0  0  0  0  0
    6.7179   53.2970   26.8346 F   0  0  0  0  0  0
    4.1824   55.4384   25.6818 F   0  0  0  0  0  0
    4.9396   53.6967   24.7517 F   0  0  0  0  0  0
   -0.8549   52.1242   28.6290 H   0  0  0  0  0  0
   -2.1474   51.0720   28.0695 H   0  0  0  0  0  0
   -0.4937   50.5048   28.0203 H   0  0  0  0  0  0
   -1.1942   53.0712   22.9151 H   0  0  0  0  0  0
   -2.8875   51.5140   26.1357 H   0  0  0  0  0  0
    2.2041   54.1710   22.9877 H   0  0  0  0  0  0
    2.3154   49.2486   22.2048 H   0  0  0  0  0  0
    5.5025   52.1758   20.0357 H   0  0  0  0  0  0
    3.9192   52.2583   19.2712 H   0  0  0  0  0  0
    4.1787   52.4967   27.0525 H   0  0  0  0  0  0
    3.5518   53.9739   27.7331 H   0  0  0  0  0  0
  1  2  1  0  0  0
  1 31  1  0  0  0
  1 32  1  0  0  0
  1 33  1  0  0  0
  2  9  1  0  0  0
  2  3  2  0  0  0
  3  4  1  0  0  0
  3 20  1  0  0  0
  4  5  1  0  0  0
  4  6  1  0  0  0
  4 10  1  0  0  0
  6  7  1  0  0  0
  6 34  1  0  0  0
  7  8  2  0  0  0
  7  9  1  0  0  0
  9 35  1  0  0  0
 10 15  2  0  0  0
 10 11  1  0  0  0
 11 12  2  0  0  0
 11 36  1  0  0  0
 12 19  1  0  0  0
 12 13  1  0  0  0
 13 14  2  0  0  0
 13 17  1  0  0  0
 14 15  1  0  0  0
 14 37  1  0  0  0
 15 16  1  0  0  0
 17 18  1  0  0  0
 18 19  1  0  0  0
 18 38  1  0  0  0
 18 39  1  0  0  0
 20 21  2  0  0  0
 20 22  1  0  0  0
 22 23  1  0  0  0
 23 24  1  0  0  0
 23 40  1  0  0  0
 23 41  1  0  0  0
 24 25  1  0  0  0
 24 29  1  0  0  0
 24 30  1  0  0  0
 25 26  1  0  0  0
 25 27  1  0  0  0
 25 28  1  0  0  0
M  END
> <i_i_glide_confnum>
5

> <i_i_glide_lignum>
707

> <i_i_glide_posenum>
400

> <i_i_glide_rotatable_bonds>
6

> <i_m_Source_File_Index>
4810

> <b_m_subgroup_collapsed>
0

> <r_i_docking_score>
-4.58655

> <r_i_glide_ecoul>
-2.75609

> <r_i_glide_eff_state_penalty>
0

> <r_i_glide_einternal>
1.19778

> <r_i_glide_emodel>
-44.1134

> <r_i_glide_energy>
-35.6192

> <r_i_glide_erotb>
0.42824

> <r_i_glide_esite>
-0.0819295

> <r_i_glide_evdw>
-32.8631

> <r_i_glide_gscore>
-4.58655

> <r_i_glide_hbond>
-0.0839698

> <r_i_glide_ligand_efficiency>
-0.158157

> <r_i_glide_ligand_efficiency_ln>
-1.0502

> <r_i_glide_ligand_efficiency_sa>
-0.485908

> <r_i_glide_lipo>
-1.49673

> <r_i_glide_metal>
0

> <r_i_glide_rewards>
-1.2956

> <s_i_glide_gridfile>
wee1_glide-grid

> <s_m_Source_File>
wee1_decoys_glide_SP.sdf

> <s_m_Source_Path>
/Users/zhangxujun/Desktop

> <s_m_entry_id>
5085

> <s_m_entry_name>
wee1_decoys_glide_SP.4810

> <s_m_subgroup_title>
wee1_decoys_glide_SP

> <s_m_subgroupid>
wee1_decoys_glide_SP


$$$$
