ZINC02198504_3958
                    3D
 Schrodinger Suite 2024-2.
 62 66  0  0  1  0            999 V2000
   -2.3221   48.7397   21.1354 C   0  0  0  0  0  0
   -1.6490   49.0502   22.4602 C   0  0  0  0  0  0
   -1.1676   48.0179   23.2652 C   0  0  0  0  0  0
   -0.5545   48.3077   24.4813 C   0  0  0  0  0  0
   -0.4256   49.6283   24.9206 C   0  0  0  0  0  0
   -0.9236   50.6750   24.1185 C   0  0  0  0  0  0
   -1.5305   50.3718   22.8932 C   0  0  0  0  0  0
   -0.8420   52.4072   24.6091 S   0  0  0  0  0  0
   -1.0716   52.4967   26.0548 O   0  0  0  0  0  0
   -1.6712   53.1840   23.6804 O   0  0  0  0  0  0
    0.8693   52.9190   24.2988 C   0  0  0  0  0  0
    1.8378   53.2951   25.2687 C   0  0  0  0  0  0
    3.0115   53.6965   24.5837 C   0  0  0  0  0  0
    4.1046   54.1015   25.2410 N   0  0  0  0  0  0
    4.0820   54.1075   26.5990 C   0  0  0  0  0  0
    5.2273   54.4967   27.3298 C   0  0  0  0  0  0
    5.1882   54.4931   28.7215 C   0  0  0  0  0  0
    4.0405   54.0968   29.4026 C   0  0  0  0  0  0
    2.8971   53.7071   28.7098 C   0  0  0  0  0  0
    2.9043   53.7075   27.2968 C   0  0  0  0  0  0
    1.8012   53.3180   26.6034 N   0  0  0  0  0  0
    2.8056   53.5365   23.2072 N   0  0  0  0  0  0
    1.5043   53.0330   23.0734 C   0  0  0  0  0  0
    0.9931   52.7195   21.8409 N   0  0  0  0  0  0
    3.6099   53.7501   22.0795 N   0  0  0  0  0  0
    4.7518   54.3065   22.1779 C   0  0  0  0  0  0
    5.6249   54.5951   21.0350 C   0  0  0  0  0  0
    6.8158   55.2972   21.2483 C   0  0  0  0  0  0
    7.6844   55.5633   20.1923 C   0  0  0  0  0  0
    7.3927   55.1363   18.8864 C   0  0  0  0  0  0
    6.1843   54.4501   18.6799 C   0  0  0  0  0  0
    5.3158   54.1816   19.7344 C   0  0  0  0  0  0
    8.2866   55.3943   17.8098 N   0  0  0  0  0  0
    9.6802   55.7597   18.0786 C   0  0  0  0  0  0
    8.0272   54.8192   16.4884 C   0  0  0  0  0  0
    0.2647   49.8684   26.2549 C   0  0  0  0  0  0
   -2.7005   47.7174   21.1079 H   0  0  0  0  0  0
   -3.1783   49.3960   20.9799 H   0  0  0  0  0  0
   -1.6255   48.8852   20.3084 H   0  0  0  0  0  0
   -1.2603   46.9902   22.9473 H   0  0  0  0  0  0
   -0.1825   47.4990   25.0949 H   0  0  0  0  0  0
   -1.9238   51.1623   22.2718 H   0  0  0  0  0  0
    6.1224   54.7975   26.8036 H   0  0  0  0  0  0
    6.0611   54.7942   29.2814 H   0  0  0  0  0  0
    4.0487   54.0896   30.4808 H   0  0  0  0  0  0
    2.0087   53.3975   29.2417 H   0  0  0  0  0  0
    0.0622   52.3488   21.7333 H   0  0  0  0  0  0
    1.4800   53.0032   20.9988 H   0  0  0  0  0  0
    5.1637   54.6338   23.1250 H   0  0  0  0  0  0
    7.0923   55.6327   22.2385 H   0  0  0  0  0  0
    8.5936   56.0955   20.4208 H   0  0  0  0  0  0
    5.8983   54.0912   17.7039 H   0  0  0  0  0  0
    4.4050   53.6358   19.5297 H   0  0  0  0  0  0
   10.2111   54.9070   18.5037 H   0  0  0  0  0  0
    9.7671   56.5918   18.7759 H   0  0  0  0  0  0
   10.2032   56.0522   17.1684 H   0  0  0  0  0  0
    8.0962   53.7312   16.5310 H   0  0  0  0  0  0
    7.0275   55.0730   16.1322 H   0  0  0  0  0  0
    8.7399   55.1719   15.7422 H   0  0  0  0  0  0
    0.8429   48.9973   26.5658 H   0  0  0  0  0  0
    0.9599   50.7009   26.1959 H   0  0  0  0  0  0
   -0.4704   50.0968   27.0282 H   0  0  0  0  0  0
  1  2  1  0  0  0
  1 37  1  0  0  0
  1 38  1  0  0  0
  1 39  1  0  0  0
  2  7  2  0  0  0
  2  3  1  0  0  0
  3  4  2  0  0  0
  3 40  1  0  0  0
  4  5  1  0  0  0
  4 41  1  0  0  0
  5  6  2  0  0  0
  5 36  1  0  0  0
  6  7  1  0  0  0
  6  8  1  0  0  0
  7 42  1  0  0  0
  8  9  2  0  0  0
  8 10  2  0  0  0
  8 11  1  0  0  0
 11 23  2  0  0  0
 11 12  1  0  0  0
 12 21  2  0  0  0
 12 13  1  0  0  0
 13 14  2  0  0  0
 13 22  1  0  0  0
 14 15  1  0  0  0
 15 20  2  0  0  0
 15 16  1  0  0  0
 16 17  2  0  0  0
 16 43  1  0  0  0
 17 18  1  0  0  0
 17 44  1  0  0  0
 18 19  2  0  0  0
 18 45  1  0  0  0
 19 20  1  0  0  0
 19 46  1  0  0  0
 20 21  1  0  0  0
 22 23  1  0  0  0
 22 25  1  0  0  0
 23 24  1  0  0  0
 24 47  1  0  0  0
 24 48  1  0  0  0
 25 26  2  0  0  0
 26 27  1  0  0  0
 26 49  1  0  0  0
 27 32  2  0  0  0
 27 28  1  0  0  0
 28 29  2  0  0  0
 28 50  1  0  0  0
 29 30  1  0  0  0
 29 51  1  0  0  0
 30 31  2  0  0  0
 30 33  1  0  0  0
 31 32  1  0  0  0
 31 52  1  0  0  0
 32 53  1  0  0  0
 33 34  1  0  0  0
 33 35  1  0  0  0
 34 54  1  0  0  0
 34 55  1  0  0  0
 34 56  1  0  0  0
 35 57  1  0  0  0
 35 58  1  0  0  0
 35 59  1  0  0  0
 36 60  1  0  0  0
 36 61  1  0  0  0
 36 62  1  0  0  0
M  END
> <i_i_glide_confnum>
19

> <i_i_glide_lignum>
3959

> <i_i_glide_posenum>
131

> <i_i_glide_rotatable_bonds>
5

> <i_m_Source_File_Index>
5571

> <b_m_subgroup_collapsed>
0

> <r_i_docking_score>
-5.73263

> <r_i_glide_ecoul>
-3.13951

> <r_i_glide_eff_state_penalty>
0

> <r_i_glide_einternal>
1.46249

> <r_i_glide_emodel>
-66.4202

> <r_i_glide_energy>
-50.5684

> <r_i_glide_erotb>
0.32835

> <r_i_glide_esite>
-0.011482

> <r_i_glide_evdw>
-47.4289

> <r_i_glide_gscore>
-5.73263

> <r_i_glide_hbond>
-0.0127882

> <r_i_glide_ligand_efficiency>
-0.15924

> <r_i_glide_ligand_efficiency_ln>
-1.2507

> <r_i_glide_ligand_efficiency_sa>
-0.525798

> <r_i_glide_lipo>
-2.29343

> <r_i_glide_metal>
0

> <r_i_glide_rewards>
-0.900908

> <s_i_glide_gridfile>
wee1_glide-grid

> <s_m_Source_File>
wee1_decoys_glide_SP.sdf

> <s_m_Source_Path>
/Users/zhangxujun/Desktop

> <s_m_entry_id>
5846

> <s_m_entry_name>
wee1_decoys_glide_SP.5571

> <s_m_subgroup_title>
wee1_decoys_glide_SP

> <s_m_subgroupid>
wee1_decoys_glide_SP


$$$$
