ZINC38152417_1089
                    3D
 Schrodinger Suite 2024-2.
 79 82  0  0  1  0            999 V2000
    6.2027   58.4975   17.1423 C   0  0  0  0  0  0
    7.5136   58.0056   17.8062 C   0  0  0  0  0  0
    8.4619   57.3724   16.7593 C   0  0  0  0  0  0
    8.2217   59.2048   18.4629 C   0  0  0  0  0  0
    7.2429   57.0947   18.8897 O   0  0  0  0  0  0
    6.5841   55.9011   18.7537 C   0  0  0  0  0  0
    6.2579   55.4147   17.6706 O   0  0  0  0  0  0
    6.2912   55.3357   20.0017 N   0  0  0  0  0  0
    6.7770   55.8628   21.2883 C   0  0  0  0  0  0
    6.2044   54.8921   22.3255 C   0  0  0  0  0  0
    4.9726   54.3172   21.6517 C   0  0  1  0  0  0
    4.1607   55.0474   21.6987 H   0  0  0  0  0  0
    5.3669   54.2037   20.1826 C   0  0  1  0  0  0
    5.9303   53.2827   20.0597 H   0  0  0  0  0  0
    4.1260   53.9808   19.3035 C   0  0  0  0  0  0
    3.3552   52.7206   19.7741 C   0  0  0  0  0  0
    3.0938   52.7568   21.3091 N   0  3  2  0  0  0
    4.3826   52.9915   22.1423 C   0  0  0  0  0  0
    2.3481   51.4942   21.8036 C   0  0  0  0  0  0
    0.9015   51.4986   21.2740 C   0  0  0  0  0  0
   -0.0141   50.4026   21.8688 C   0  0  2  0  0  0
    0.4284   49.4420   21.6032 H   0  0  0  0  0  0
   -1.4321   50.4535   21.2504 C   0  0  0  0  0  0
   -1.4700   50.1148   19.8027 N   0  0  0  0  0  0
   -1.1247   48.7378   19.3827 C   0  0  0  0  0  0
   -1.9291   51.3312   18.5862 S   0  0  0  0  0  0
   -2.7038   50.6476   17.5445 O   0  0  0  0  0  0
   -2.4950   52.4959   19.2804 O   0  0  0  0  0  0
   -0.4129   51.8753   17.7919 C   0  0  0  0  0  0
   -0.1377   53.2409   17.6789 C   0  0  0  0  0  0
    1.0210   53.6638   17.0288 C   0  0  0  0  0  0
    1.8999   52.7203   16.5010 C   0  0  0  0  0  0
    1.6260   51.3593   16.6058 C   0  0  0  0  0  0
    0.4638   50.9360   17.2443 C   0  0  0  0  0  0
   -0.0966   50.4547   23.3963 C   0  0  0  0  0  0
    0.3042   49.3458   24.1503 C   0  0  0  0  0  0
    0.1995   49.3646   25.5376 C   0  0  0  0  0  0
   -0.2981   50.4979   26.1745 C   0  0  0  0  0  0
   -0.6856   51.6157   25.4369 C   0  0  0  0  0  0
   -0.5869   51.5933   24.0472 C   0  0  0  0  0  0
    5.6855   57.7050   16.6024 H   0  0  0  0  0  0
    5.5055   58.8930   17.8839 H   0  0  0  0  0  0
    6.3948   59.2977   16.4259 H   0  0  0  0  0  0
    8.7956   58.1099   16.0278 H   0  0  0  0  0  0
    9.3499   56.9539   17.2340 H   0  0  0  0  0  0
    7.9853   56.5653   16.2035 H   0  0  0  0  0  0
    7.6224   59.6352   19.2677 H   0  0  0  0  0  0
    9.1838   58.9127   18.8821 H   0  0  0  0  0  0
    8.4081   59.9995   17.7393 H   0  0  0  0  0  0
    7.8691   55.9083   21.3227 H   0  0  0  0  0  0
    6.3699   56.8638   21.4380 H   0  0  0  0  0  0
    6.9358   54.0967   22.4818 H   0  0  0  0  0  0
    6.0302   55.3015   23.3201 H   0  0  0  0  0  0
    3.5047   54.8738   19.3063 H   0  0  0  0  0  0
    4.4209   53.8174   18.2663 H   0  0  0  0  0  0
    2.3827   52.7000   19.2886 H   0  0  0  0  0  0
    3.9037   51.7987   19.5519 H   0  0  0  0  0  0
    5.0466   52.1323   22.0255 H   0  0  0  0  0  0
    4.0850   53.0911   23.1875 H   0  0  0  0  0  0
    2.9271   50.6251   21.4815 H   0  0  0  0  0  0
    2.3548   51.5527   22.8932 H   0  0  0  0  0  0
    0.4541   52.4840   21.4279 H   0  0  0  0  0  0
    0.9317   51.3486   20.1964 H   0  0  0  0  0  0
   -2.1330   49.7972   21.7706 H   0  0  0  0  0  0
   -1.8275   51.4594   21.3846 H   0  0  0  0  0  0
   -1.7959   48.0240   19.8655 H   0  0  0  0  0  0
   -1.2592   48.6304   18.3043 H   0  0  0  0  0  0
   -0.0794   48.5111   19.6102 H   0  0  0  0  0  0
   -0.8150   53.9802   18.0818 H   0  0  0  0  0  0
    1.2411   54.7181   16.9429 H   0  0  0  0  0  0
    2.8028   53.0446   16.0039 H   0  0  0  0  0  0
    2.3101   50.6302   16.1927 H   0  0  0  0  0  0
    0.2579   49.8794   17.3019 H   0  0  0  0  0  0
    0.6957   48.4639   23.6682 H   0  0  0  0  0  0
    0.4922   48.5008   26.1199 H   0  0  0  0  0  0
   -0.3940   50.4982   27.2520 H   0  0  0  0  0  0
   -1.0731   52.4877   25.9406 H   0  0  0  0  0  0
   -0.9012   52.4575   23.4829 H   0  0  0  0  0  0
    2.4965   53.5569   21.4792 H   0  0  0  0  0  0
  1  2  1  0  0  0
  1 41  1  0  0  0
  1 42  1  0  0  0
  1 43  1  0  0  0
  2  3  1  0  0  0
  2  4  1  0  0  0
  2  5  1  0  0  0
  3 44  1  0  0  0
  3 45  1  0  0  0
  3 46  1  0  0  0
  4 47  1  0  0  0
  4 48  1  0  0  0
  4 49  1  0  0  0
  5  6  1  0  0  0
  6  7  2  0  0  0
  6  8  1  0  0  0
  8 13  1  0  0  0
  8  9  1  0  0  0
  9 10  1  0  0  0
  9 50  1  0  0  0
  9 51  1  0  0  0
 10 11  1  0  0  0
 10 52  1  0  0  0
 10 53  1  0  0  0
 11 12  1  0  0  0
 11 18  1  0  0  0
 11 13  1  0  0  0
 13 14  1  0  0  0
 13 15  1  0  0  0
 15 16  1  0  0  0
 15 54  1  0  0  0
 15 55  1  0  0  0
 16 17  1  0  0  0
 16 56  1  0  0  0
 16 57  1  0  0  0
 17 18  1  0  0  0
 17 19  1  0  0  0
 17 79  1  0  0  0
 18 58  1  0  0  0
 18 59  1  0  0  0
 19 20  1  0  0  0
 19 60  1  0  0  0
 19 61  1  0  0  0
 20 21  1  0  0  0
 20 62  1  0  0  0
 20 63  1  0  0  0
 21 22  1  0  0  0
 21 23  1  0  0  0
 21 35  1  0  0  0
 23 24  1  0  0  0
 23 64  1  0  0  0
 23 65  1  0  0  0
 24 25  1  0  0  0
 24 26  1  0  0  0
 25 66  1  0  0  0
 25 67  1  0  0  0
 25 68  1  0  0  0
 26 27  2  0  0  0
 26 28  2  0  0  0
 26 29  1  0  0  0
 29 34  2  0  0  0
 29 30  1  0  0  0
 30 31  2  0  0  0
 30 69  1  0  0  0
 31 32  1  0  0  0
 31 70  1  0  0  0
 32 33  2  0  0  0
 32 71  1  0  0  0
 33 34  1  0  0  0
 33 72  1  0  0  0
 34 73  1  0  0  0
 35 40  2  0  0  0
 35 36  1  0  0  0
 36 37  2  0  0  0
 36 74  1  0  0  0
 37 38  1  0  0  0
 37 75  1  0  0  0
 38 39  2  0  0  0
 38 76  1  0  0  0
 39 40  1  0  0  0
 39 77  1  0  0  0
 40 78  1  0  0  0
M  CHG  1  17   1
M  END
> <i_i_glide_confnum>
63

> <i_i_glide_lignum>
1090

> <i_i_glide_posenum>
146

> <i_i_glide_rotatable_bonds>
11

> <i_m_Source_File_Index>
4892

> <b_m_subgroup_collapsed>
0

> <r_i_docking_score>
-2.5067

> <r_i_glide_ecoul>
-6.75184

> <r_i_glide_eff_state_penalty>
0

> <r_i_glide_einternal>
4.52948

> <r_i_glide_emodel>
-42.1303

> <r_i_glide_energy>
-39.7504

> <r_i_glide_erotb>
0.589606

> <r_i_glide_esite>
-0.0866516

> <r_i_glide_evdw>
-32.9985

> <r_i_glide_gscore>
-2.5067

> <r_i_glide_hbond>
0

> <r_i_glide_ligand_efficiency>
-0.0677487

> <r_i_glide_ligand_efficiency_ln>
-0.543645

> <r_i_glide_ligand_efficiency_sa>
-0.225754

> <r_i_glide_lipo>
-0.933788

> <r_i_glide_metal>
0

> <r_i_glide_rewards>
0.586835

> <s_i_glide_gridfile>
wee1_glide-grid

> <s_m_Source_File>
wee1_decoys_glide_SP.sdf

> <s_m_Source_Path>
/Users/zhangxujun/Desktop

> <s_m_entry_id>
5167

> <s_m_entry_name>
wee1_decoys_glide_SP.4892

> <s_m_subgroup_title>
wee1_decoys_glide_SP

> <s_m_subgroupid>
wee1_decoys_glide_SP


$$$$
