ZINC35754818_5503
                    3D
 Schrodinger Suite 2024-2.
 65 69  0  0  1  0            999 V2000
   11.0426   59.0412   17.6899 C   0  0  0  0  0  0
   10.7535   57.6967   17.9101 C   0  0  0  0  0  0
    9.4302   57.2647   17.9070 C   0  0  0  0  0  0
    8.3928   58.1798   17.6900 C   0  0  0  0  0  0
    8.6948   59.5264   17.4628 C   0  0  0  0  0  0
   10.0187   59.9579   17.4626 C   0  0  0  0  0  0
    6.9353   57.7108   17.6818 C   0  0  0  0  0  0
    6.5112   57.0808   19.0166 C   0  0  0  0  0  0
    6.7044   57.6967   20.0645 O   0  0  0  0  0  0
    5.9257   55.8674   18.9669 N   0  0  0  0  0  0
    5.5895   55.0546   20.0633 C   0  0  0  0  0  0
    6.2855   55.0946   21.2852 C   0  0  0  0  0  0
    5.9436   54.2281   22.3171 C   0  0  0  0  0  0
    4.9354   53.2967   22.1167 C   0  0  0  0  0  0
    4.1971   53.2683   20.9354 C   0  0  0  0  0  0
    4.5409   54.1418   19.8990 C   0  0  0  0  0  0
    3.0317   52.2862   20.7915 C   0  0  2  0  0  0
    2.8067   52.2364   19.7235 H   0  0  0  0  0  0
    1.7090   52.5238   21.5465 C   0  0  1  0  0  0
    1.0356   53.1348   20.9454 H   0  0  0  0  0  0
    1.2261   51.1479   21.6353 N   0  0  0  0  0  0
    2.2781   50.2388   21.5161 C   0  0  0  0  0  0
    2.3044   49.0213   21.6817 O   0  0  0  0  0  0
    3.3652   50.9657   21.1858 O   0  0  0  0  0  0
   -0.1667   50.7391   21.8264 C   0  0  0  0  0  0
   -0.6063   50.5903   23.2748 C   0  0  0  0  0  0
   -0.1454   49.5139   24.0400 C   0  0  0  0  0  0
   -0.6069   49.3404   25.3414 C   0  0  0  0  0  0
   -1.5285   50.2411   25.8712 C   0  0  0  0  0  0
   -1.9851   51.3206   25.1177 C   0  0  0  0  0  0
   -1.5255   51.4938   23.8148 C   0  0  0  0  0  0
    1.8530   53.2752   22.9052 C   0  0  0  0  0  0
    1.9955   54.4967   22.8817 O   0  0  0  0  0  0
    1.8074   52.5737   24.0591 N   0  0  0  0  0  0
    2.0937   53.0567   25.3498 C   0  0  0  0  0  0
    3.1044   54.0002   25.5944 C   0  0  0  0  0  0
    3.3960   54.3847   26.9014 C   0  0  0  0  0  0
    2.6777   53.8362   27.9611 C   0  0  0  0  0  0
    1.6775   52.8956   27.7259 C   0  0  0  0  0  0
    1.3930   52.4989   26.4213 C   0  0  0  0  0  0
    2.9586   54.2146   29.2293 F   0  0  0  0  0  0
   12.0707   59.3721   17.6866 H   0  0  0  0  0  0
   11.5510   56.9878   18.0817 H   0  0  0  0  0  0
    9.2139   56.2201   18.0790 H   0  0  0  0  0  0
    7.9044   60.2406   17.2816 H   0  0  0  0  0  0
   10.2493   60.9961   17.2762 H   0  0  0  0  0  0
    6.2672   58.5517   17.4855 H   0  0  0  0  0  0
    6.7971   57.0125   16.8552 H   0  0  0  0  0  0
    5.6637   55.5117   18.0603 H   0  0  0  0  0  0
    7.1180   55.7629   21.4433 H   0  0  0  0  0  0
    6.4947   54.2453   23.2460 H   0  0  0  0  0  0
    4.7055   52.5869   22.8817 H   0  0  0  0  0  0
    3.9875   54.1122   18.9710 H   0  0  0  0  0  0
   -0.8124   51.4571   21.3198 H   0  0  0  0  0  0
   -0.3386   49.7824   21.3295 H   0  0  0  0  0  0
    0.5575   48.8027   23.6303 H   0  0  0  0  0  0
   -0.2623   48.5084   25.9417 H   0  0  0  0  0  0
   -1.8856   50.0967   26.8817 H   0  0  0  0  0  0
   -2.6975   52.0133   25.5409 H   0  0  0  0  0  0
   -1.8909   52.3238   23.2279 H   0  0  0  0  0  0
    1.4529   51.6293   24.0056 H   0  0  0  0  0  0
    3.6798   54.4218   24.7832 H   0  0  0  0  0  0
    4.1783   55.1031   27.0946 H   0  0  0  0  0  0
    1.1316   52.4673   28.5535 H   0  0  0  0  0  0
    0.6314   51.7554   26.2509 H   0  0  0  0  0  0
  1  6  2  0  0  0
  1  2  1  0  0  0
  1 42  1  0  0  0
  2  3  2  0  0  0
  2 43  1  0  0  0
  3  4  1  0  0  0
  3 44  1  0  0  0
  4  5  2  0  0  0
  4  7  1  0  0  0
  5  6  1  0  0  0
  5 45  1  0  0  0
  6 46  1  0  0  0
  7  8  1  0  0  0
  7 47  1  0  0  0
  7 48  1  0  0  0
  8  9  2  0  0  0
  8 10  1  0  0  0
 10 11  1  0  0  0
 10 49  1  0  0  0
 11 16  2  0  0  0
 11 12  1  0  0  0
 12 13  2  0  0  0
 12 50  1  0  0  0
 13 14  1  0  0  0
 13 51  1  0  0  0
 14 15  2  0  0  0
 14 52  1  0  0  0
 15 16  1  0  0  0
 15 17  1  0  0  0
 16 53  1  0  0  0
 17 18  1  0  0  0
 17 24  1  0  0  0
 17 19  1  0  0  0
 19 20  1  0  0  0
 19 21  1  0  0  0
 19 32  1  0  0  0
 21 22  1  0  0  0
 21 25  1  0  0  0
 22 23  2  0  0  0
 22 24  1  0  0  0
 25 26  1  0  0  0
 25 54  1  0  0  0
 25 55  1  0  0  0
 26 31  2  0  0  0
 26 27  1  0  0  0
 27 28  2  0  0  0
 27 56  1  0  0  0
 28 29  1  0  0  0
 28 57  1  0  0  0
 29 30  2  0  0  0
 29 58  1  0  0  0
 30 31  1  0  0  0
 30 59  1  0  0  0
 31 60  1  0  0  0
 32 33  2  0  0  0
 32 34  1  0  0  0
 34 35  1  0  0  0
 34 61  1  0  0  0
 35 40  2  0  0  0
 35 36  1  0  0  0
 36 37  2  0  0  0
 36 62  1  0  0  0
 37 38  1  0  0  0
 37 63  1  0  0  0
 38 39  2  0  0  0
 38 41  1  0  0  0
 39 40  1  0  0  0
 39 64  1  0  0  0
 40 65  1  0  0  0
M  END
> <i_i_glide_confnum>
266

> <i_i_glide_lignum>
5504

> <i_i_glide_posenum>
285

> <i_i_glide_rotatable_bonds>
10

> <i_m_Source_File_Index>
3302

> <b_m_subgroup_collapsed>
0

> <r_i_docking_score>
-5.53237

> <r_i_glide_ecoul>
-8.41756

> <r_i_glide_eff_state_penalty>
0

> <r_i_glide_einternal>
5.96882

> <r_i_glide_emodel>
-65.9579

> <r_i_glide_energy>
-50.7459

> <r_i_glide_erotb>
0.675418

> <r_i_glide_esite>
0

> <r_i_glide_evdw>
-42.3283

> <r_i_glide_gscore>
-5.53237

> <r_i_glide_hbond>
-0.32

> <r_i_glide_ligand_efficiency>
-0.141856

> <r_i_glide_ligand_efficiency_ln>
-1.1863

> <r_i_glide_ligand_efficiency_sa>
-0.481063

> <r_i_glide_lipo>
-1.8735

> <r_i_glide_metal>
0

> <r_i_glide_rewards>
-0.635247

> <s_i_glide_gridfile>
wee1_glide-grid

> <s_m_Source_File>
wee1_decoys_glide_SP.sdf

> <s_m_Source_Path>
/Users/zhangxujun/Desktop

> <s_m_entry_id>
3577

> <s_m_entry_name>
wee1_decoys_glide_SP.3302

> <s_m_subgroup_title>
wee1_decoys_glide_SP

> <s_m_subgroupid>
wee1_decoys_glide_SP


$$$$
