ZINC12250174_4934
                    3D
 Schrodinger Suite 2024-2.
 68 71  0  0  1  0            999 V2000
    0.4677   48.7007   24.8256 C   0  0  0  0  0  0
   -0.8856   49.3857   24.6933 C   0  0  0  0  0  0
   -2.0261   48.5881   24.5772 C   0  0  0  0  0  0
   -3.2870   49.1673   24.4768 C   0  0  0  0  0  0
   -3.4179   50.5526   24.4862 C   0  0  0  0  0  0
   -2.2947   51.3762   24.6084 C   0  0  0  0  0  0
   -1.0125   50.7883   24.7247 C   0  0  0  0  0  0
    0.1596   51.5599   24.8530 N   0  0  0  0  0  0
    0.4280   52.3979   25.8765 C   0  0  0  0  0  0
   -0.3219   52.4965   26.8484 O   0  0  0  0  0  0
    1.6806   53.1500   25.7828 C   0  0  0  0  0  0
    2.1513   53.6966   24.6160 C   0  0  0  0  0  0
    3.3837   54.3100   24.5736 N   0  0  0  0  0  0
    4.2078   54.4537   25.6585 C   0  0  0  0  0  0
    3.8498   53.9791   26.8676 C   0  0  0  0  0  0
    2.5376   53.1977   27.0935 C   0  0  1  0  0  0
    2.8235   52.1616   27.2879 H   0  0  0  0  0  0
    1.8308   53.7189   28.3463 C   0  0  0  0  0  0
    1.2924   53.0966   29.4669 C   0  0  0  0  0  0
    0.8165   54.0995   30.3108 C   0  0  0  0  0  0
    1.1058   55.2970   29.6818 C   0  0  0  0  0  0
    1.6979   55.0672   28.4820 O   0  0  0  0  0  0
    4.6955   54.2345   27.9870 C   0  0  0  0  0  0
    5.3826   54.4790   28.8817 N   0  0  0  0  0  0
    5.6990   55.3672   25.3033 S   0  0  0  0  0  0
    6.5207   54.3131   24.0775 C   0  0  0  0  0  0
    6.3431   54.7736   22.6335 C   0  0  0  0  0  0
    7.0397   55.6967   22.2175 O   0  0  0  0  0  0
    5.4501   54.0798   21.8976 N   0  0  0  0  0  0
    5.1054   54.2326   20.5413 C   0  0  0  0  0  0
    4.3022   53.2314   19.9936 C   0  0  0  0  0  0
    3.9037   53.2957   18.6605 C   0  0  0  0  0  0
    4.2883   54.3677   17.8521 C   0  0  0  0  0  0
    5.0944   55.3837   18.3906 C   0  0  0  0  0  0
    5.5046   55.3049   19.7253 C   0  0  0  0  0  0
    5.5186   56.5838   17.5544 C   0  0  0  0  0  0
    3.8312   54.4002   16.4006 C   0  0  0  0  0  0
    1.4612   53.7850   23.2583 C   0  0  0  0  0  0
   -2.5172   52.8851   24.5656 C   0  0  0  0  0  0
    0.9746   49.0319   25.7324 H   0  0  0  0  0  0
    0.3793   47.6166   24.8818 H   0  0  0  0  0  0
    1.1046   48.9512   23.9785 H   0  0  0  0  0  0
   -1.9392   47.5119   24.5794 H   0  0  0  0  0  0
   -4.1633   48.5421   24.3950 H   0  0  0  0  0  0
   -4.4044   50.9841   24.4003 H   0  0  0  0  0  0
    0.8973   51.3740   24.1929 H   0  0  0  0  0  0
    3.6476   54.7792   23.7192 H   0  0  0  0  0  0
    1.2399   52.0323   29.6423 H   0  0  0  0  0  0
    0.3283   53.9649   31.2662 H   0  0  0  0  0  0
    0.9430   56.3336   29.9401 H   0  0  0  0  0  0
    7.5836   54.3197   24.3005 H   0  0  0  0  0  0
    6.1850   53.2912   24.2093 H   0  0  0  0  0  0
    4.9988   53.3026   22.3545 H   0  0  0  0  0  0
    3.9846   52.3865   20.5874 H   0  0  0  0  0  0
    3.2965   52.4986   18.2561 H   0  0  0  0  0  0
    6.1131   56.1067   20.1106 H   0  0  0  0  0  0
    4.6468   57.0509   17.0968 H   0  0  0  0  0  0
    6.0202   57.3477   18.1488 H   0  0  0  0  0  0
    6.1868   56.2719   16.7517 H   0  0  0  0  0  0
    4.6840   54.5520   15.7381 H   0  0  0  0  0  0
    3.3508   53.4683   16.1002 H   0  0  0  0  0  0
    3.1327   55.2216   16.2394 H   0  0  0  0  0  0
    0.4097   53.5206   23.2869 H   0  0  0  0  0  0
    1.5010   54.8074   22.8803 H   0  0  0  0  0  0
    1.9569   53.1396   22.5326 H   0  0  0  0  0  0
   -1.7203   53.3856   24.0213 H   0  0  0  0  0  0
   -3.4417   53.1378   24.0464 H   0  0  0  0  0  0
   -2.5607   53.2953   25.5740 H   0  0  0  0  0  0
  1  2  1  0  0  0
  1 40  1  0  0  0
  1 41  1  0  0  0
  1 42  1  0  0  0
  2  7  2  0  0  0
  2  3  1  0  0  0
  3  4  2  0  0  0
  3 43  1  0  0  0
  4  5  1  0  0  0
  4 44  1  0  0  0
  5  6  2  0  0  0
  5 45  1  0  0  0
  6  7  1  0  0  0
  6 39  1  0  0  0
  7  8  1  0  0  0
  8  9  1  0  0  0
  8 46  1  0  0  0
  9 10  2  0  0  0
  9 11  1  0  0  0
 11 16  1  0  0  0
 11 12  2  0  0  0
 12 13  1  0  0  0
 12 38  1  0  0  0
 13 14  1  0  0  0
 13 47  1  0  0  0
 14 15  2  0  0  0
 14 25  1  0  0  0
 15 16  1  0  0  0
 15 23  1  0  0  0
 16 17  1  0  0  0
 16 18  1  0  0  0
 18 22  1  0  0  0
 18 19  2  0  0  0
 19 20  1  0  0  0
 19 48  1  0  0  0
 20 21  2  0  0  0
 20 49  1  0  0  0
 21 22  1  0  0  0
 21 50  1  0  0  0
 23 24  3  0  0  0
 25 26  1  0  0  0
 26 27  1  0  0  0
 26 51  1  0  0  0
 26 52  1  0  0  0
 27 28  2  0  0  0
 27 29  1  0  0  0
 29 30  1  0  0  0
 29 53  1  0  0  0
 30 35  2  0  0  0
 30 31  1  0  0  0
 31 32  2  0  0  0
 31 54  1  0  0  0
 32 33  1  0  0  0
 32 55  1  0  0  0
 33 34  2  0  0  0
 33 37  1  0  0  0
 34 35  1  0  0  0
 34 36  1  0  0  0
 35 56  1  0  0  0
 36 57  1  0  0  0
 36 58  1  0  0  0
 36 59  1  0  0  0
 37 60  1  0  0  0
 37 61  1  0  0  0
 37 62  1  0  0  0
 38 63  1  0  0  0
 38 64  1  0  0  0
 38 65  1  0  0  0
 39 66  1  0  0  0
 39 67  1  0  0  0
 39 68  1  0  0  0
M  END
> <i_i_glide_confnum>
58

> <i_i_glide_lignum>
4935

> <i_i_glide_posenum>
346

> <i_i_glide_rotatable_bonds>
10

> <i_m_Source_File_Index>
2736

> <b_m_subgroup_collapsed>
0

> <r_i_docking_score>
-6.02659

> <r_i_glide_ecoul>
-0.882384

> <r_i_glide_eff_state_penalty>
0

> <r_i_glide_einternal>
11.4816

> <r_i_glide_emodel>
-67.2199

> <r_i_glide_energy>
-53.9977

> <r_i_glide_erotb>
0.66813

> <r_i_glide_esite>
0

> <r_i_glide_evdw>
-53.1153

> <r_i_glide_gscore>
-6.02659

> <r_i_glide_hbond>
0

> <r_i_glide_ligand_efficiency>
-0.158594

> <r_i_glide_ligand_efficiency_ln>
-1.29951

> <r_i_glide_ligand_efficiency_sa>
-0.53319

> <r_i_glide_lipo>
-3.07541

> <r_i_glide_metal>
0

> <r_i_glide_rewards>
-0.831185

> <s_i_glide_gridfile>
wee1_glide-grid

> <s_m_Source_File>
wee1_decoys_glide_SP.sdf

> <s_m_Source_Path>
/Users/zhangxujun/Desktop

> <s_m_entry_id>
3011

> <s_m_entry_name>
wee1_decoys_glide_SP.2736

> <s_m_subgroup_title>
wee1_decoys_glide_SP

> <s_m_subgroupid>
wee1_decoys_glide_SP


$$$$
