ZINC40824060_4556
                    3D
 Schrodinger Suite 2024-2.
 58 61  0  0  1  0            999 V2000
   -8.0271   49.4158   28.8356 C   0  0  0  0  0  0
   -6.6811   49.9363   28.3669 C   0  0  0  0  0  0
   -6.6036   50.7780   27.2591 C   0  0  0  0  0  0
   -5.3657   51.2405   26.8218 C   0  0  0  0  0  0
   -4.1876   50.8638   27.4822 C   0  0  0  0  0  0
   -4.2821   50.0151   28.6003 C   0  0  0  0  0  0
   -5.5187   49.5512   29.0352 C   0  0  0  0  0  0
   -2.8539   51.4029   27.0061 C   0  0  0  0  0  0
   -2.8081   52.2787   26.1339 O   0  0  0  0  0  0
   -1.7597   50.8969   27.6155 N   0  0  0  0  0  0
   -0.5130   51.4422   27.3212 N   0  0  0  0  0  0
    0.0873   52.1668   28.2895 C   0  0  0  0  0  0
   -0.4319   52.4941   29.3617 O   0  0  0  0  0  0
    1.4275   52.5773   27.9818 C   0  0  0  0  0  0
    2.0552   53.0214   26.8009 C   0  0  0  0  0  0
    3.3682   53.3728   27.2059 C   0  0  0  0  0  0
    3.4439   53.1394   28.5693 C   0  0  0  0  0  0
    2.2640   52.6948   29.0439 O   0  0  0  0  0  0
    4.6230   53.3274   29.4850 C   0  0  0  0  0  0
    5.5981   54.2818   28.7671 C   0  0  0  0  0  0
    5.8555   53.9107   27.2944 C   0  0  0  0  0  0
    4.5508   53.8589   26.4589 C   0  0  0  0  0  0
    4.4403   54.0966   25.2139 N   0  0  0  0  0  0
    5.5874   54.4545   24.4878 N   0  0  0  0  0  0
    5.6634   54.4972   23.0948 C   0  0  0  0  0  0
    6.7214   55.1841   22.4959 C   0  0  0  0  0  0
    6.7978   55.2971   21.1077 C   0  0  0  0  0  0
    5.8272   54.6969   20.3083 C   0  0  0  0  0  0
    4.7789   53.9761   20.8929 C   0  0  0  0  0  0
    4.6941   53.8988   22.2854 C   0  0  0  0  0  0
    3.7865   53.2253   20.0163 C   0  0  0  0  0  0
    3.5045   53.9002   18.9009 F   0  0  0  0  0  0
    4.3802   52.0968   19.6819 F   0  0  0  0  0  0
    2.6597   52.8966   20.6526 F   0  0  0  0  0  0
    1.4545   53.1451   25.4106 C   0  0  0  0  0  0
   -8.7661   49.4409   28.0349 H   0  0  0  0  0  0
   -7.9456   48.3759   29.1573 H   0  0  0  0  0  0
   -8.3926   50.0049   29.6775 H   0  0  0  0  0  0
   -7.5014   51.0763   26.7371 H   0  0  0  0  0  0
   -5.3334   51.8988   25.9650 H   0  0  0  0  0  0
   -3.4029   49.6962   29.1481 H   0  0  0  0  0  0
   -5.5672   48.8954   29.8931 H   0  0  0  0  0  0
   -1.6971   49.9395   27.9626 H   0  0  0  0  0  0
   -0.0252   50.9573   26.5827 H   0  0  0  0  0  0
    4.3043   53.7541   30.4368 H   0  0  0  0  0  0
    5.1027   52.3678   29.6818 H   0  0  0  0  0  0
    5.2112   55.2964   28.8235 H   0  0  0  0  0  0
    6.5565   54.3000   29.2806 H   0  0  0  0  0  0
    6.5449   54.6461   26.8795 H   0  0  0  0  0  0
    6.3565   52.9435   27.2292 H   0  0  0  0  0  0
    6.4249   54.5569   25.0400 H   0  0  0  0  0  0
    7.4902   55.6469   23.1009 H   0  0  0  0  0  0
    7.6192   55.8281   20.6493 H   0  0  0  0  0  0
    5.9109   54.7603   19.2325 H   0  0  0  0  0  0
    3.8823   53.3530   22.7432 H   0  0  0  0  0  0
    1.8521   52.3871   24.7351 H   0  0  0  0  0  0
    0.3682   53.0911   25.3941 H   0  0  0  0  0  0
    1.7099   54.1038   24.9630 H   0  0  0  0  0  0
  1  2  1  0  0  0
  1 36  1  0  0  0
  1 37  1  0  0  0
  1 38  1  0  0  0
  2  7  2  0  0  0
  2  3  1  0  0  0
  3  4  2  0  0  0
  3 39  1  0  0  0
  4  5  1  0  0  0
  4 40  1  0  0  0
  5  6  2  0  0  0
  5  8  1  0  0  0
  6  7  1  0  0  0
  6 41  1  0  0  0
  7 42  1  0  0  0
  8  9  2  0  0  0
  8 10  1  0  0  0
 10 11  1  0  0  0
 10 43  1  0  0  0
 11 12  1  0  0  0
 11 44  1  0  0  0
 12 13  2  0  0  0
 12 14  1  0  0  0
 14 18  1  0  0  0
 14 15  2  0  0  0
 15 16  1  0  0  0
 15 35  1  0  0  0
 16 22  1  0  0  0
 16 17  2  0  0  0
 17 18  1  0  0  0
 17 19  1  0  0  0
 19 20  1  0  0  0
 19 45  1  0  0  0
 19 46  1  0  0  0
 20 21  1  0  0  0
 20 47  1  0  0  0
 20 48  1  0  0  0
 21 22  1  0  0  0
 21 49  1  0  0  0
 21 50  1  0  0  0
 22 23  2  0  0  0
 23 24  1  0  0  0
 24 25  1  0  0  0
 24 51  1  0  0  0
 25 30  2  0  0  0
 25 26  1  0  0  0
 26 27  2  0  0  0
 26 52  1  0  0  0
 27 28  1  0  0  0
 27 53  1  0  0  0
 28 29  2  0  0  0
 28 54  1  0  0  0
 29 30  1  0  0  0
 29 31  1  0  0  0
 30 55  1  0  0  0
 31 32  1  0  0  0
 31 33  1  0  0  0
 31 34  1  0  0  0
 35 56  1  0  0  0
 35 57  1  0  0  0
 35 58  1  0  0  0
M  END
> <i_i_glide_confnum>
49

> <i_i_glide_lignum>
4557

> <i_i_glide_posenum>
55

> <i_i_glide_rotatable_bonds>
8

> <i_m_Source_File_Index>
4433

> <b_m_subgroup_collapsed>
0

> <r_i_docking_score>
-5.42062

> <r_i_glide_ecoul>
-4.87026

> <r_i_glide_eff_state_penalty>
0

> <r_i_glide_einternal>
6.85626

> <r_i_glide_emodel>
-58.0614

> <r_i_glide_energy>
-44.6661

> <r_i_glide_erotb>
0.605668

> <r_i_glide_esite>
-0.339573

> <r_i_glide_evdw>
-39.7958

> <r_i_glide_gscore>
-5.42062

> <r_i_glide_hbond>
-0.16

> <r_i_glide_ligand_efficiency>
-0.154875

> <r_i_glide_ligand_efficiency_ln>
-1.18995

> <r_i_glide_ligand_efficiency_sa>
-0.506606

> <r_i_glide_lipo>
-2.35872

> <r_i_glide_metal>
0

> <r_i_glide_rewards>
-0.44766

> <s_i_glide_gridfile>
wee1_glide-grid

> <s_m_Source_File>
wee1_decoys_glide_SP.sdf

> <s_m_Source_Path>
/Users/zhangxujun/Desktop

> <s_m_entry_id>
4708

> <s_m_entry_name>
wee1_decoys_glide_SP.4433

> <s_m_subgroup_title>
wee1_decoys_glide_SP

> <s_m_subgroupid>
wee1_decoys_glide_SP


$$$$
