ZINC36311943_1189
                    3D
 Schrodinger Suite 2024-2.
 62 66  0  0  1  0            999 V2000
   -0.9194   51.3262   21.6205 C   0  0  0  0  0  0
   -0.4212   51.6962   20.3638 C   0  0  0  0  0  0
    0.7914   51.1475   19.9651 C   0  0  0  0  0  0
    1.4839   50.2739   20.7536 C   0  0  0  0  0  0
    1.0124   49.8759   21.9999 C   0  0  0  0  0  0
   -0.2022   50.4260   22.4396 C   0  0  0  0  0  0
   -0.6750   50.0417   23.7002 N   0  0  0  0  0  0
   -1.0815   50.8895   24.6675 C   0  0  0  0  0  0
   -1.1095   52.1159   24.5335 O   0  0  0  0  0  0
   -1.4457   50.2382   26.0305 C   0  0  2  0  0  0
   -1.0163   49.2326   26.0676 H   0  0  0  0  0  0
   -2.9776   50.0875   26.3158 C   0  0  0  0  0  0
   -3.8704   51.3550   26.1786 C   0  0  0  0  0  0
   -5.0784   50.9457   25.3233 C   0  0  0  0  0  0
   -4.5578   49.8105   24.4501 C   0  0  0  0  0  0
   -3.6469   49.0349   25.3997 C   0  0  0  0  0  0
   -0.6726   50.8969   27.2227 N   0  3  0  0  0  0
    0.8656   50.9012   26.9861 C   0  0  0  0  0  0
    1.6434   51.5284   28.1629 C   0  0  0  0  0  0
    1.0466   52.8403   28.4515 N   0  0  0  0  0  0
   -0.3482   52.7691   28.9080 C   0  0  0  0  0  0
   -1.1937   52.2662   27.7175 C   0  0  0  0  0  0
    1.6402   54.0425   28.2133 C   0  0  0  0  0  0
    1.1047   55.1176   28.4819 O   0  0  0  0  0  0
    3.0098   54.0722   27.5809 C   0  0  0  0  0  0
    3.1244   54.0928   26.1847 C   0  0  0  0  0  0
    4.3763   54.2140   25.5785 C   0  0  0  0  0  0
    5.5280   54.3057   26.3611 C   0  0  0  0  0  0
    5.4260   54.2547   27.7507 C   0  0  0  0  0  0
    4.1759   54.1395   28.3622 C   0  0  0  0  0  0
    4.1148   54.0970   30.0848 Cl  0  0  0  0  0  0
    7.0763   54.4963   25.6195 Cl  0  0  0  0  0  0
    2.6265   49.9043   20.1219 O   0  0  0  0  0  0
    2.6516   50.6052   18.9042 C   0  0  0  0  0  0
    1.4658   51.3492   18.8049 O   0  0  0  0  0  0
   -1.8577   51.7375   21.9597 H   0  0  0  0  0  0
   -0.9605   52.3837   19.7312 H   0  0  0  0  0  0
    1.5746   49.1864   22.6137 H   0  0  0  0  0  0
   -0.5612   49.0698   23.9409 H   0  0  0  0  0  0
   -3.0854   49.7115   27.3366 H   0  0  0  0  0  0
   -4.2302   51.7124   27.1451 H   0  0  0  0  0  0
   -3.3625   52.1741   25.6661 H   0  0  0  0  0  0
   -5.8896   50.5838   25.9614 H   0  0  0  0  0  0
   -5.4740   51.7750   24.7339 H   0  0  0  0  0  0
   -5.3613   49.1939   24.0443 H   0  0  0  0  0  0
   -3.9879   50.2086   23.6085 H   0  0  0  0  0  0
   -2.9419   48.3761   24.8909 H   0  0  0  0  0  0
   -4.2698   48.3788   26.0116 H   0  0  0  0  0  0
    1.1243   49.8455   26.8824 H   0  0  0  0  0  0
    1.1017   51.4179   26.0549 H   0  0  0  0  0  0
    1.5719   50.8963   29.0484 H   0  0  0  0  0  0
    2.7081   51.6043   27.9436 H   0  0  0  0  0  0
   -0.7033   53.7257   29.2960 H   0  0  0  0  0  0
   -0.4265   52.0808   29.7525 H   0  0  0  0  0  0
   -1.2212   52.9673   26.8862 H   0  0  0  0  0  0
   -2.2044   52.0964   28.0767 H   0  0  0  0  0  0
    2.2423   54.0467   25.5601 H   0  0  0  0  0  0
    4.4511   54.2501   24.5010 H   0  0  0  0  0  0
    6.3165   54.3257   28.3583 H   0  0  0  0  0  0
    3.5044   51.2867   18.8845 H   0  0  0  0  0  0
    2.7036   49.8914   18.0817 H   0  0  0  0  0  0
   -0.8096   50.2579   28.0029 H   0  0  0  0  0  0
  1  6  2  0  0  0
  1  2  1  0  0  0
  1 36  1  0  0  0
  2  3  2  0  0  0
  2 37  1  0  0  0
  3 35  1  0  0  0
  3  4  1  0  0  0
  4  5  2  0  0  0
  4 33  1  0  0  0
  5  6  1  0  0  0
  5 38  1  0  0  0
  6  7  1  0  0  0
  7  8  1  0  0  0
  7 39  1  0  0  0
  8  9  2  0  0  0
  8 10  1  0  0  0
 10 11  1  0  0  0
 10 12  1  0  0  0
 10 17  1  0  0  0
 12 16  1  0  0  0
 12 13  1  0  0  0
 12 40  1  0  0  0
 13 14  1  0  0  0
 13 41  1  0  0  0
 13 42  1  0  0  0
 14 15  1  0  0  0
 14 43  1  0  0  0
 14 44  1  0  0  0
 15 16  1  0  0  0
 15 45  1  0  0  0
 15 46  1  0  0  0
 16 47  1  0  0  0
 16 48  1  0  0  0
 17 22  1  0  0  0
 17 18  1  0  0  0
 17 62  1  0  0  0
 18 19  1  0  0  0
 18 49  1  0  0  0
 18 50  1  0  0  0
 19 20  1  0  0  0
 19 51  1  0  0  0
 19 52  1  0  0  0
 20 21  1  0  0  0
 20 23  1  0  0  0
 21 22  1  0  0  0
 21 53  1  0  0  0
 21 54  1  0  0  0
 22 55  1  0  0  0
 22 56  1  0  0  0
 23 24  2  0  0  0
 23 25  1  0  0  0
 25 30  2  0  0  0
 25 26  1  0  0  0
 26 27  2  0  0  0
 26 57  1  0  0  0
 27 28  1  0  0  0
 27 58  1  0  0  0
 28 29  2  0  0  0
 28 32  1  0  0  0
 29 30  1  0  0  0
 29 59  1  0  0  0
 30 31  1  0  0  0
 33 34  1  0  0  0
 34 35  1  0  0  0
 34 60  1  0  0  0
 34 61  1  0  0  0
M  CHG  1  17   1
M  END
> <i_i_glide_confnum>
302

> <i_i_glide_lignum>
1190

> <i_i_glide_posenum>
232

> <i_i_glide_rotatable_bonds>
7

> <i_m_Source_File_Index>
5388

> <b_m_subgroup_collapsed>
0

> <r_i_docking_score>
-4.52513

> <r_i_glide_ecoul>
-4.19777

> <r_i_glide_eff_state_penalty>
0

> <r_i_glide_einternal>
8.67985

> <r_i_glide_emodel>
-53.6895

> <r_i_glide_energy>
-44.0492

> <r_i_glide_erotb>
0.480418

> <r_i_glide_esite>
-0.201083

> <r_i_glide_evdw>
-39.8514

> <r_i_glide_gscore>
-4.52513

> <r_i_glide_hbond>
-0.166413

> <r_i_glide_ligand_efficiency>
-0.133092

> <r_i_glide_ligand_efficiency_ln>
-0.999729

> <r_i_glide_ligand_efficiency_sa>
-0.431167

> <r_i_glide_lipo>
-1.89947

> <r_i_glide_metal>
0

> <r_i_glide_rewards>
-0.11635

> <s_i_glide_gridfile>
wee1_glide-grid

> <s_m_Source_File>
wee1_decoys_glide_SP.sdf

> <s_m_Source_Path>
/Users/zhangxujun/Desktop

> <s_m_entry_id>
5663

> <s_m_entry_name>
wee1_decoys_glide_SP.5388

> <s_m_subgroup_title>
wee1_decoys_glide_SP

> <s_m_subgroupid>
wee1_decoys_glide_SP


$$$$
