ZINC14111086_2129
                    3D
 Schrodinger Suite 2024-2.
 59 62  0  0  1  0            999 V2000
    6.6986   55.5746   21.3541 C   0  0  0  0  0  0
    5.7724   54.8954   20.5652 C   0  0  0  0  0  0
    4.9417   53.9103   21.1285 C   0  0  0  0  0  0
    5.0675   53.6391   22.4999 C   0  0  0  0  0  0
    5.9800   54.3235   23.3028 C   0  0  0  0  0  0
    6.7934   55.2972   22.7167 C   0  0  0  0  0  0
    6.0262   53.9564   24.6591 N   0  0  0  0  0  0
    6.5490   54.5990   25.7198 C   0  0  0  0  0  0
    7.1008   55.6958   25.6799 O   0  0  0  0  0  0
    6.4163   53.8867   27.0734 C   0  0  0  0  0  0
    5.3429   54.4982   28.0092 C   0  0  0  0  0  0
    4.0085   53.8710   27.9566 N   0  0  0  0  0  0
    3.1858   53.9726   26.8734 C   0  0  0  0  0  0
    3.4014   54.4970   25.7839 O   0  0  0  0  0  0
    1.8576   53.4028   27.3123 C   0  0  1  0  0  0
    1.2818   54.2697   27.6458 H   0  0  0  0  0  0
    0.9591   52.6624   26.3034 C   0  0  0  0  0  0
   -0.3389   52.2692   27.0625 C   0  0  0  0  0  0
   -0.0579   51.4966   28.3830 C   0  0  0  0  0  0
    1.0132   52.1648   29.2968 C   0  0  0  0  0  0
    2.2423   52.4895   28.4249 C   0  0  2  0  0  0
    2.5963   51.5175   28.0729 H   0  0  0  0  0  0
    3.4716   53.1667   28.9973 C   0  0  0  0  0  0
    3.9045   53.0203   30.1409 O   0  0  0  0  0  0
    3.8994   53.1669   20.3199 C   0  0  0  0  0  0
    3.0466   52.4860   20.8974 O   0  0  0  0  0  0
    3.9665   53.2948   18.9759 N   0  0  0  0  0  0
    3.0256   52.8498   18.0307 C   0  0  0  0  0  0
    3.4940   52.5182   16.7583 C   0  0  0  0  0  0
    2.6084   52.0971   15.7684 C   0  0  0  0  0  0
    1.2424   52.0178   16.0394 C   0  0  0  0  0  0
    0.7491   52.3600   17.3042 C   0  0  0  0  0  0
    1.6484   52.7742   18.2928 C   0  0  0  0  0  0
   -0.7439   52.2916   17.6212 C   0  0  0  0  0  0
   -1.4233   51.6071   16.6989 F   0  0  0  0  0  0
   -0.9459   51.7055   18.8025 F   0  0  0  0  0  0
   -1.2425   53.5279   17.6738 F   0  0  0  0  0  0
    7.3377   56.3231   20.9105 H   0  0  0  0  0  0
    5.7126   55.1571   19.5188 H   0  0  0  0  0  0
    4.4284   52.8972   22.9560 H   0  0  0  0  0  0
    7.5052   55.8502   23.3052 H   0  0  0  0  0  0
    5.5014   53.1223   24.8793 H   0  0  0  0  0  0
    7.3825   53.8780   27.5806 H   0  0  0  0  0  0
    6.2197   52.8232   26.9472 H   0  0  0  0  0  0
    5.3068   55.5813   27.9032 H   0  0  0  0  0  0
    5.7311   54.4035   29.0252 H   0  0  0  0  0  0
    1.4133   51.7345   25.9542 H   0  0  0  0  0  0
    0.6859   53.2978   25.4621 H   0  0  0  0  0  0
   -0.9112   53.1687   27.2919 H   0  0  0  0  0  0
   -0.9805   51.6699   26.4137 H   0  0  0  0  0  0
   -0.9883   51.3591   28.9390 H   0  0  0  0  0  0
    0.2765   50.4976   28.1153 H   0  0  0  0  0  0
    0.5600   53.0676   29.7111 H   0  0  0  0  0  0
    1.2618   51.4449   30.0777 H   0  0  0  0  0  0
    4.7905   53.7270   18.5923 H   0  0  0  0  0  0
    4.5517   52.5599   16.5363 H   0  0  0  0  0  0
    2.9859   51.8242   14.7944 H   0  0  0  0  0  0
    0.5718   51.6906   15.2577 H   0  0  0  0  0  0
    1.2647   53.0551   19.2646 H   0  0  0  0  0  0
  1  6  2  0  0  0
  1  2  1  0  0  0
  1 38  1  0  0  0
  2  3  2  0  0  0
  2 39  1  0  0  0
  3  4  1  0  0  0
  3 25  1  0  0  0
  4  5  2  0  0  0
  4 40  1  0  0  0
  5  6  1  0  0  0
  5  7  1  0  0  0
  6 41  1  0  0  0
  7  8  1  0  0  0
  7 42  1  0  0  0
  8  9  2  0  0  0
  8 10  1  0  0  0
 10 11  1  0  0  0
 10 43  1  0  0  0
 10 44  1  0  0  0
 11 12  1  0  0  0
 11 45  1  0  0  0
 11 46  1  0  0  0
 12 23  1  0  0  0
 12 13  1  0  0  0
 13 14  2  0  0  0
 13 15  1  0  0  0
 15 16  1  0  0  0
 15 21  1  0  0  0
 15 17  1  0  0  0
 17 18  1  0  0  0
 17 47  1  0  0  0
 17 48  1  0  0  0
 18 19  1  0  0  0
 18 49  1  0  0  0
 18 50  1  0  0  0
 19 20  1  0  0  0
 19 51  1  0  0  0
 19 52  1  0  0  0
 20 21  1  0  0  0
 20 53  1  0  0  0
 20 54  1  0  0  0
 21 22  1  0  0  0
 21 23  1  0  0  0
 23 24  2  0  0  0
 25 26  2  0  0  0
 25 27  1  0  0  0
 27 28  1  0  0  0
 27 55  1  0  0  0
 28 33  2  0  0  0
 28 29  1  0  0  0
 29 30  2  0  0  0
 29 56  1  0  0  0
 30 31  1  0  0  0
 30 57  1  0  0  0
 31 32  2  0  0  0
 31 58  1  0  0  0
 32 33  1  0  0  0
 32 34  1  0  0  0
 33 59  1  0  0  0
 34 35  1  0  0  0
 34 36  1  0  0  0
 34 37  1  0  0  0
M  END
> <i_i_glide_confnum>
113

> <i_i_glide_lignum>
2130

> <i_i_glide_posenum>
52

> <i_i_glide_rotatable_bonds>
9

> <i_m_Source_File_Index>
2181

> <b_m_subgroup_collapsed>
0

> <r_i_docking_score>
-6.9759

> <r_i_glide_ecoul>
-8.31622

> <r_i_glide_eff_state_penalty>
0

> <r_i_glide_einternal>
8.46581

> <r_i_glide_emodel>
-69.2357

> <r_i_glide_energy>
-51.5005

> <r_i_glide_erotb>
0.598865

> <r_i_glide_esite>
-0.0760221

> <r_i_glide_evdw>
-43.1842

> <r_i_glide_gscore>
-6.9759

> <r_i_glide_hbond>
-0.375056

> <r_i_glide_ligand_efficiency>
-0.199311

> <r_i_glide_ligand_efficiency_ln>
-1.53137

> <r_i_glide_ligand_efficiency_sa>
-0.651961

> <r_i_glide_lipo>
-2.32221

> <r_i_glide_metal>
0

> <r_i_glide_rewards>
-1.39483

> <s_i_glide_gridfile>
wee1_glide-grid

> <s_m_Source_File>
wee1_decoys_glide_SP.sdf

> <s_m_Source_Path>
/Users/zhangxujun/Desktop

> <s_m_entry_id>
2456

> <s_m_entry_name>
wee1_decoys_glide_SP.2181

> <s_m_subgroup_title>
wee1_decoys_glide_SP

> <s_m_subgroupid>
wee1_decoys_glide_SP


$$$$
