ZINC63823474_2637
                    3D
 Schrodinger Suite 2024-2.
 40 43  0  0  1  0            999 V2000
    0.3601   50.8810   27.5266 C   0  0  0  0  0  0
    0.3008   50.4729   26.0710 C   0  0  0  0  0  0
    0.3951   51.1950   24.9489 C   0  0  0  0  0  0
    0.5112   52.6836   24.7019 C   0  0  2  0  0  0
    0.5078   53.2105   25.6559 H   0  0  0  0  0  0
   -0.8025   53.1016   23.9901 C   0  0  0  0  0  0
   -1.2831   52.1640   22.8560 C   0  0  0  0  0  0
   -2.0941   52.4963   21.9991 O   0  0  0  0  0  0
   -0.8315   50.8976   22.8998 N   0  0  0  0  0  0
    0.2454   50.3215   23.7293 C   0  0  2  0  0  0
    1.1856   50.2318   23.1822 H   0  0  0  0  0  0
   -0.0968   49.0181   24.2658 N   0  0  0  0  0  0
    0.0667   49.1440   25.7130 N   0  0  0  0  0  0
   -0.9868   48.0479   23.7565 C   0  0  0  0  0  0
   -1.2481   47.9685   22.3785 C   0  0  0  0  0  0
   -2.0947   46.9712   21.9051 C   0  0  0  0  0  0
   -2.6257   46.0891   22.8359 C   0  0  0  0  0  0
   -3.3413   45.1059   22.4778 O   0  5  0  0  0  0
   -2.3548   46.1684   24.1621 N   0  0  0  0  0  0
   -1.5353   47.1342   24.6145 N   0  0  0  0  0  0
    1.8257   53.1075   24.0246 C   0  0  0  0  0  0
    2.8247   53.7088   24.8030 C   0  0  0  0  0  0
    4.0377   54.0971   24.2347 C   0  0  0  0  0  0
    4.2761   53.8715   22.8809 C   0  0  0  0  0  0
    3.2976   53.2646   22.0959 C   0  0  0  0  0  0
    2.0727   52.9017   22.6589 C   0  0  0  0  0  0
    3.6536   52.8948   20.2642 Br  0  0  0  0  0  0
   -0.5069   50.4983   28.0650 H   0  0  0  0  0  0
    1.2689   50.4970   27.9874 H   0  0  0  0  0  0
    0.3685   51.9647   27.6290 H   0  0  0  0  0  0
   -1.6141   52.9731   24.7084 H   0  0  0  0  0  0
   -0.7954   54.1436   23.6823 H   0  0  0  0  0  0
   -1.1520   50.3207   22.1396 H   0  0  0  0  0  0
    0.6630   48.3737   25.9914 H   0  0  0  0  0  0
   -0.7803   48.6349   21.6718 H   0  0  0  0  0  0
   -2.3052   46.8660   20.8522 H   0  0  0  0  0  0
    2.6678   53.8764   25.8585 H   0  0  0  0  0  0
    4.7979   54.5583   24.8487 H   0  0  0  0  0  0
    5.2218   54.1543   22.4424 H   0  0  0  0  0  0
    1.3364   52.4340   22.0256 H   0  0  0  0  0  0
  1  2  1  0  0  0
  1 28  1  0  0  0
  1 29  1  0  0  0
  1 30  1  0  0  0
  2 13  1  0  0  0
  2  3  2  0  0  0
  3 10  1  0  0  0
  3  4  1  0  0  0
  4  5  1  0  0  0
  4  6  1  0  0  0
  4 21  1  0  0  0
  6  7  1  0  0  0
  6 31  1  0  0  0
  6 32  1  0  0  0
  7  8  2  0  0  0
  7  9  1  0  0  0
  9 10  1  0  0  0
  9 33  1  0  0  0
 10 11  1  0  0  0
 10 12  1  0  0  0
 12 13  1  0  0  0
 12 14  1  0  0  0
 13 34  1  0  0  0
 14 15  2  0  0  0
 14 20  1  0  0  0
 15 16  1  0  0  0
 15 35  1  0  0  0
 16 17  2  0  0  0
 16 36  1  0  0  0
 17 18  1  0  0  0
 17 19  1  0  0  0
 19 20  2  0  0  0
 21 26  2  0  0  0
 21 22  1  0  0  0
 22 23  2  0  0  0
 22 37  1  0  0  0
 23 24  1  0  0  0
 23 38  1  0  0  0
 24 25  2  0  0  0
 24 39  1  0  0  0
 25 26  1  0  0  0
 25 27  1  0  0  0
 26 40  1  0  0  0
M  CHG  1  18  -1
M  END
> <i_i_glide_confnum>
10

> <i_i_glide_lignum>
2638

> <i_i_glide_posenum>
144

> <i_i_glide_rotatable_bonds>
2

> <i_m_Source_File_Index>
1571

> <b_m_subgroup_collapsed>
0

> <r_i_docking_score>
-4.42118

> <r_i_glide_ecoul>
-4.38324

> <r_i_glide_eff_state_penalty>
0

> <r_i_glide_einternal>
2.41323

> <r_i_glide_emodel>
-41.1481

> <r_i_glide_energy>
-31.6541

> <r_i_glide_erotb>
0.243642

> <r_i_glide_esite>
-0.260231

> <r_i_glide_evdw>
-27.2709

> <r_i_glide_gscore>
-4.42118

> <r_i_glide_hbond>
-0.195448

> <r_i_glide_ligand_efficiency>
-0.176847

> <r_i_glide_ligand_efficiency_ln>
-1.04795

> <r_i_glide_ligand_efficiency_sa>
-0.517104

> <r_i_glide_lipo>
-1.46668

> <r_i_glide_metal>
0

> <r_i_glide_rewards>
-0.72143

> <s_i_glide_gridfile>
wee1_glide-grid

> <s_m_Source_File>
wee1_decoys_glide_SP.sdf

> <s_m_Source_Path>
/Users/zhangxujun/Desktop

> <s_m_entry_id>
1846

> <s_m_entry_name>
wee1_decoys_glide_SP.1571

> <s_m_subgroup_title>
wee1_decoys_glide_SP

> <s_m_subgroupid>
wee1_decoys_glide_SP


$$$$
