ZINC54217679_1759
                    3D
 Schrodinger Suite 2024-2.
 39 40  0  0  1  0            999 V2000
   -0.3329   52.5002   30.2201 C   0  0  0  0  0  0
    0.9702   52.5242   29.4193 C   0  0  1  0  0  0
    1.5025   51.5905   29.6109 H   0  0  0  0  0  0
    0.7179   52.6548   27.9171 C   0  0  0  0  0  0
    2.0558   52.4964   27.1836 C   0  0  0  0  0  0
    2.9517   53.6143   27.5688 N   0  0  0  0  0  0
    3.2179   53.7452   29.0336 C   0  0  1  0  0  0
    3.6418   54.7329   29.2299 H   0  0  0  0  0  0
    1.8701   53.7056   29.8082 C   0  0  0  0  0  0
    4.2288   52.7132   29.5728 C   0  0  0  0  0  0
    3.8008   54.2400   26.6898 C   0  0  0  0  0  0
    4.7596   54.8958   27.1095 O   0  0  0  0  0  0
    3.6026   54.1590   25.1706 C   0  0  0  0  0  0
    2.3051   54.0950   24.6310 C   0  0  0  0  0  0
    2.0827   53.9796   23.2656 C   0  0  0  0  0  0
    3.1578   53.9639   22.3916 C   0  0  0  0  0  0
    4.4527   54.1043   22.8756 C   0  0  0  0  0  0
    4.6984   54.2224   24.2597 C   0  0  0  0  0  0
    6.0102   54.4677   24.7142 N   0  0  0  0  0  0
    7.1040   53.6969   24.1735 N   0  0  0  0  0  0
    5.4630   54.1559   21.9733 F   0  0  0  0  0  0
   -0.8905   53.4238   30.0804 H   0  0  0  0  0  0
   -0.1370   52.3881   31.2861 H   0  0  0  0  0  0
   -0.9718   51.6679   29.9210 H   0  0  0  0  0  0
    0.0360   51.8647   27.5990 H   0  0  0  0  0  0
    0.2005   53.5836   27.6761 H   0  0  0  0  0  0
    1.9017   52.3189   26.1252 H   0  0  0  0  0  0
    2.5232   51.5867   27.5571 H   0  0  0  0  0  0
    1.3274   54.6373   29.6365 H   0  0  0  0  0  0
    2.0386   53.6922   30.8817 H   0  0  0  0  0  0
    4.3047   52.7712   30.6578 H   0  0  0  0  0  0
    3.9441   51.6905   29.3325 H   0  0  0  0  0  0
    5.2260   52.8996   29.1750 H   0  0  0  0  0  0
    1.4349   54.1485   25.2678 H   0  0  0  0  0  0
    1.0771   53.9132   22.8796 H   0  0  0  0  0  0
    2.9879   53.8831   21.3271 H   0  0  0  0  0  0
    6.0559   54.4062   25.7282 H   0  0  0  0  0  0
    6.7106   53.0159   23.5385 H   0  0  0  0  0  0
    7.7048   54.3316   23.6585 H   0  0  0  0  0  0
  1  2  1  0  0  0
  1 22  1  0  0  0
  1 23  1  0  0  0
  1 24  1  0  0  0
  2  3  1  0  0  0
  2  9  1  0  0  0
  2  4  1  0  0  0
  4  5  1  0  0  0
  4 25  1  0  0  0
  4 26  1  0  0  0
  5  6  1  0  0  0
  5 27  1  0  0  0
  5 28  1  0  0  0
  6  7  1  0  0  0
  6 11  1  0  0  0
  7  8  1  0  0  0
  7  9  1  0  0  0
  7 10  1  0  0  0
  9 29  1  0  0  0
  9 30  1  0  0  0
 10 31  1  0  0  0
 10 32  1  0  0  0
 10 33  1  0  0  0
 11 12  2  0  0  0
 11 13  1  0  0  0
 13 18  2  0  0  0
 13 14  1  0  0  0
 14 15  2  0  0  0
 14 34  1  0  0  0
 15 16  1  0  0  0
 15 35  1  0  0  0
 16 17  2  0  0  0
 16 36  1  0  0  0
 17 18  1  0  0  0
 17 21  1  0  0  0
 18 19  1  0  0  0
 19 20  1  0  0  0
 19 37  1  0  0  0
 20 38  1  0  0  0
 20 39  1  0  0  0
M  END
> <i_i_glide_confnum>
1

> <i_i_glide_lignum>
1760

> <i_i_glide_posenum>
384

> <i_i_glide_rotatable_bonds>
3

> <i_m_Source_File_Index>
1575

> <b_m_subgroup_collapsed>
0

> <r_i_docking_score>
-5.81629

> <r_i_glide_ecoul>
-0.986848

> <r_i_glide_eff_state_penalty>
0

> <r_i_glide_einternal>
0.381012

> <r_i_glide_emodel>
-42.9094

> <r_i_glide_energy>
-32.1141

> <r_i_glide_erotb>
0.505515

> <r_i_glide_esite>
0

> <r_i_glide_evdw>
-31.1273

> <r_i_glide_gscore>
-5.81629

> <r_i_glide_hbond>
-0.20445

> <r_i_glide_ligand_efficiency>
-0.306121

> <r_i_glide_ligand_efficiency_ln>
-1.47456

> <r_i_glide_ligand_efficiency_sa>
-0.816853

> <r_i_glide_lipo>
-2.01323

> <r_i_glide_metal>
0

> <r_i_glide_rewards>
-2.39974

> <s_i_glide_gridfile>
wee1_glide-grid

> <s_m_Source_File>
wee1_decoys_glide_SP.sdf

> <s_m_Source_Path>
/Users/zhangxujun/Desktop

> <s_m_entry_id>
1850

> <s_m_entry_name>
wee1_decoys_glide_SP.1575

> <s_m_subgroup_title>
wee1_decoys_glide_SP

> <s_m_subgroupid>
wee1_decoys_glide_SP


$$$$
