ZINC16923625_4486
                    3D
 Schrodinger Suite 2024-2.
 72 76  0  0  1  0            999 V2000
    7.0853   56.9427   17.4612 C   0  0  0  0  0  0
    6.4783   56.1391   18.5967 C   0  0  0  0  0  0
    5.2538   55.4947   18.4158 C   0  0  0  0  0  0
    4.7038   54.7436   19.4509 C   0  0  0  0  0  0
    5.3778   54.6351   20.6680 C   0  0  0  0  0  0
    6.5967   55.2959   20.8528 C   0  0  0  0  0  0
    7.1558   56.0280   19.8119 C   0  0  0  0  0  0
    4.6832   53.6996   22.0367 S   0  0  0  0  0  0
    3.5687   54.4833   22.5810 O   0  0  0  0  0  0
    5.8107   53.2965   22.8826 O   0  0  0  0  0  0
    4.1001   52.3377   21.2379 O   0  0  0  0  0  0
    2.7218   52.2802   20.8557 C   0  0  1  0  0  0
    2.3292   53.2963   20.8178 H   0  0  0  0  0  0
    2.5339   51.6655   19.4480 C   0  0  0  0  0  0
    1.1971   50.8867   19.4925 C   0  0  0  0  0  0
    0.6014   51.2375   20.8675 C   0  0  2  0  0  0
    0.2079   52.2535   20.7503 H   0  0  0  0  0  0
    1.8360   51.4094   21.7892 C   0  0  2  0  0  0
    1.4144   52.0830   23.1366 C   0  0  0  0  0  0
   -0.0869   51.9103   23.4981 C   0  0  0  0  0  0
   -0.6325   50.5315   23.0397 C   0  0  2  0  0  0
    0.0710   49.7935   23.4265 H   0  0  0  0  0  0
   -0.5984   50.4419   21.4799 C   0  0  2  0  0  0
   -1.4785   50.9498   21.0859 H   0  0  0  0  0  0
   -0.7508   48.9726   21.0281 C   0  0  0  0  0  0
   -1.8434   48.2737   21.8344 C   0  0  0  0  0  0
   -2.4437   48.7595   22.9482 C   0  0  0  0  0  0
   -2.0346   50.1077   23.6121 C   0  0  1  0  0  0
   -1.9126   49.8948   25.1590 C   0  0  0  0  0  0
   -3.0970   49.1610   25.8138 C   0  0  0  0  0  0
   -3.3355   47.8139   25.1187 C   0  0  2  0  0  0
   -2.4517   47.1818   25.2258 H   0  0  0  0  0  0
   -3.6029   48.0121   23.6146 C   0  0  0  0  0  0
   -4.7716   46.9586   25.8597 S   0  0  0  0  0  0
   -3.9879   45.6924   26.8706 C   0  0  0  0  0  0
   -4.4955   44.5432   26.8816 N   0  0  0  0  0  0
   -2.8960   46.0967   27.5891 N   0  0  0  0  0  0
   -3.1336   51.1642   23.3120 C   0  0  0  0  0  0
    2.5289   50.0365   22.0729 C   0  0  0  0  0  0
    6.8694   56.4743   16.5004 H   0  0  0  0  0  0
    6.6786   57.9552   17.4518 H   0  0  0  0  0  0
    8.1719   56.9951   17.5473 H   0  0  0  0  0  0
    4.7254   55.5769   17.4764 H   0  0  0  0  0  0
    3.7474   54.2666   19.2985 H   0  0  0  0  0  0
    7.1261   55.2207   21.7924 H   0  0  0  0  0  0
    8.1174   56.4998   19.9488 H   0  0  0  0  0  0
    3.3687   51.0158   19.1765 H   0  0  0  0  0  0
    2.4765   52.4459   18.6894 H   0  0  0  0  0  0
    1.4178   49.8205   19.4351 H   0  0  0  0  0  0
    0.5180   51.1132   18.6711 H   0  0  0  0  0  0
    1.4812   53.1614   23.0022 H   0  0  0  0  0  0
    2.1023   51.8617   23.9532 H   0  0  0  0  0  0
   -0.7098   52.7169   23.1079 H   0  0  0  0  0  0
   -0.1688   52.0025   24.5811 H   0  0  0  0  0  0
    0.1835   48.4214   21.1136 H   0  0  0  0  0  0
   -1.0247   48.9444   19.9737 H   0  0  0  0  0  0
   -2.1940   47.3233   21.4562 H   0  0  0  0  0  0
   -1.7786   50.8510   25.6655 H   0  0  0  0  0  0
   -1.0109   49.3209   25.3837 H   0  0  0  0  0  0
   -3.9944   49.7778   25.7594 H   0  0  0  0  0  0
   -2.8967   49.0139   26.8765 H   0  0  0  0  0  0
   -3.7679   47.0449   23.1367 H   0  0  0  0  0  0
   -4.5240   48.5788   23.4688 H   0  0  0  0  0  0
   -3.9587   43.9463   27.5137 H   0  0  0  0  0  0
   -2.4967   45.4352   28.2453 H   0  0  0  0  0  0
   -2.6050   47.0682   27.6810 H   0  0  0  0  0  0
   -2.8819   52.1374   23.7321 H   0  0  0  0  0  0
   -3.2984   51.2982   22.2441 H   0  0  0  0  0  0
   -4.0966   50.8879   23.7406 H   0  0  0  0  0  0
    3.0731   49.6530   21.2096 H   0  0  0  0  0  0
    3.2450   50.0967   22.8814 H   0  0  0  0  0  0
    1.8347   49.2545   22.3661 H   0  0  0  0  0  0
  1  2  1  0  0  0
  1 40  1  0  0  0
  1 41  1  0  0  0
  1 42  1  0  0  0
  2  7  2  0  0  0
  2  3  1  0  0  0
  3  4  2  0  0  0
  3 43  1  0  0  0
  4  5  1  0  0  0
  4 44  1  0  0  0
  5  6  2  0  0  0
  5  8  1  0  0  0
  6  7  1  0  0  0
  6 45  1  0  0  0
  7 46  1  0  0  0
  8  9  2  0  0  0
  8 10  2  0  0  0
  8 11  1  0  0  0
 11 12  1  0  0  0
 12 13  1  0  0  0
 12 18  1  0  0  0
 12 14  1  0  0  0
 14 15  1  0  0  0
 14 47  1  0  0  0
 14 48  1  0  0  0
 15 16  1  0  0  0
 15 49  1  0  0  0
 15 50  1  0  0  0
 16 17  1  0  0  0
 16 23  1  0  0  0
 16 18  1  0  0  0
 18 19  1  0  0  0
 18 39  1  0  0  0
 19 20  1  0  0  0
 19 51  1  0  0  0
 19 52  1  0  0  0
 20 21  1  0  0  0
 20 53  1  0  0  0
 20 54  1  0  0  0
 21 22  1  0  0  0
 21 28  1  0  0  0
 21 23  1  0  0  0
 23 24  1  0  0  0
 23 25  1  0  0  0
 25 26  1  0  0  0
 25 55  1  0  0  0
 25 56  1  0  0  0
 26 27  2  0  0  0
 26 57  1  0  0  0
 27 33  1  0  0  0
 27 28  1  0  0  0
 28 29  1  0  0  0
 28 38  1  0  0  0
 29 30  1  0  0  0
 29 58  1  0  0  0
 29 59  1  0  0  0
 30 31  1  0  0  0
 30 60  1  0  0  0
 30 61  1  0  0  0
 31 32  1  0  0  0
 31 33  1  0  0  0
 31 34  1  0  0  0
 33 62  1  0  0  0
 33 63  1  0  0  0
 34 35  1  0  0  0
 35 36  2  0  0  0
 35 37  1  0  0  0
 36 64  1  0  0  0
 37 65  1  0  0  0
 37 66  1  0  0  0
 38 67  1  0  0  0
 38 68  1  0  0  0
 38 69  1  0  0  0
 39 70  1  0  0  0
 39 71  1  0  0  0
 39 72  1  0  0  0
M  END
> <i_i_glide_confnum>
47

> <i_i_glide_lignum>
4487

> <i_i_glide_posenum>
214

> <i_i_glide_rotatable_bonds>
5

> <i_m_Source_File_Index>
3288

> <b_m_subgroup_collapsed>
0

> <r_i_docking_score>
-4.49617

> <r_i_glide_ecoul>
-10.2377

> <r_i_glide_eff_state_penalty>
0

> <r_i_glide_einternal>
6.47635

> <r_i_glide_emodel>
-50.0042

> <r_i_glide_energy>
-40.7153

> <r_i_glide_erotb>
0.40427

> <r_i_glide_esite>
-0.175641

> <r_i_glide_evdw>
-30.4777

> <r_i_glide_gscore>
-4.49617

> <r_i_glide_hbond>
-0.400964

> <r_i_glide_ligand_efficiency>
-0.13224

> <r_i_glide_ligand_efficiency_ln>
-0.993329

> <r_i_glide_ligand_efficiency_sa>
-0.428407

> <r_i_glide_lipo>
-1.00751

> <r_i_glide_metal>
0

> <r_i_glide_rewards>
-0.256784

> <s_i_glide_gridfile>
wee1_glide-grid

> <s_m_Source_File>
wee1_decoys_glide_SP.sdf

> <s_m_Source_Path>
/Users/zhangxujun/Desktop

> <s_m_entry_id>
3563

> <s_m_entry_name>
wee1_decoys_glide_SP.3288

> <s_m_subgroup_title>
wee1_decoys_glide_SP

> <s_m_subgroupid>
wee1_decoys_glide_SP


$$$$
