ZINC09236849_2238
                    3D
 Schrodinger Suite 2024-2.
 49 52  0  0  1  0            999 V2000
   -1.0303   47.1912   24.9185 C   0  0  0  0  0  0
   -1.7219   48.3536   24.2518 C   0  0  0  0  0  0
   -2.6147   48.2347   23.3024 N   0  0  0  0  0  0
   -2.9960   49.5221   22.9427 N   0  0  0  0  0  0
   -2.3173   50.3647   23.6837 C   0  0  0  0  0  0
   -1.4941   49.6760   24.5583 N   0  0  0  0  0  0
   -0.5944   50.1670   25.5242 N   0  0  0  0  0  0
   -0.8321   51.5710   25.8743 C   0  0  2  0  0  0
   -1.8311   51.5867   26.3174 H   0  0  0  0  0  0
   -0.9350   52.4919   24.6012 C   0  0  2  0  0  0
   -1.1110   53.5241   24.8820 H   0  0  0  0  0  0
   -2.3934   52.1264   23.5608 S   0  0  0  0  0  0
    0.3182   52.5221   23.6796 C   0  0  0  0  0  0
    0.5103   51.6326   22.8483 O   0  0  0  0  0  0
    1.1913   53.5304   23.9066 N   0  0  0  0  0  0
    2.4994   53.6397   23.4067 C   0  0  0  0  0  0
    2.8620   53.2981   22.0963 C   0  0  0  0  0  0
    4.1889   53.4177   21.6855 C   0  0  0  0  0  0
    5.1607   53.8711   22.5784 C   0  0  0  0  0  0
    4.8155   54.2148   23.8903 C   0  0  0  0  0  0
    3.4769   54.1069   24.2894 C   0  0  0  0  0  0
    5.8916   54.7065   24.8602 C   0  0  0  0  0  0
    6.6130   55.6820   24.3080 F   0  0  0  0  0  0
    6.7069   53.7004   25.1652 F   0  0  0  0  0  0
    5.3718   55.1710   25.9971 F   0  0  0  0  0  0
    0.0967   52.0834   26.9931 C   0  0  0  0  0  0
   -0.4104   52.3176   28.2759 C   0  0  0  0  0  0
    0.4122   52.8304   29.2813 C   0  0  0  0  0  0
    1.7566   53.1115   29.0258 C   0  0  0  0  0  0
    2.2743   52.8283   27.7568 C   0  0  0  0  0  0
    1.4555   52.3096   26.7651 C   0  0  0  0  0  0
    2.5091   53.6567   30.0508 O   0  0  0  0  0  0
    3.8589   54.0369   29.7789 C   0  0  0  0  0  0
   -1.2944   46.2370   24.4647 H   0  0  0  0  0  0
    0.0524   47.2950   24.8640 H   0  0  0  0  0  0
   -1.2961   47.1311   25.9746 H   0  0  0  0  0  0
   -0.7308   49.6129   26.3623 H   0  0  0  0  0  0
    0.9739   54.1521   24.6706 H   0  0  0  0  0  0
    2.1224   52.9511   21.3902 H   0  0  0  0  0  0
    4.4612   53.1536   20.6735 H   0  0  0  0  0  0
    6.1869   53.9572   22.2486 H   0  0  0  0  0  0
    3.1995   54.3701   25.3000 H   0  0  0  0  0  0
   -1.4437   52.0969   28.5012 H   0  0  0  0  0  0
    0.0033   53.0173   30.2643 H   0  0  0  0  0  0
    3.3147   52.9896   27.5182 H   0  0  0  0  0  0
    1.9047   52.0838   25.8166 H   0  0  0  0  0  0
    4.3049   54.4950   30.6589 H   0  0  0  0  0  0
    4.4731   53.1726   29.5177 H   0  0  0  0  0  0
    3.9162   54.7715   28.9726 H   0  0  0  0  0  0
  1  2  1  0  0  0
  1 34  1  0  0  0
  1 35  1  0  0  0
  1 36  1  0  0  0
  2  6  1  0  0  0
  2  3  2  0  0  0
  3  4  1  0  0  0
  4  5  2  0  0  0
  5 12  1  0  0  0
  5  6  1  0  0  0
  6  7  1  0  0  0
  7  8  1  0  0  0
  7 37  1  0  0  0
  8  9  1  0  0  0
  8 10  1  0  0  0
  8 26  1  0  0  0
 10 11  1  0  0  0
 10 12  1  0  0  0
 10 13  1  0  0  0
 13 14  2  0  0  0
 13 15  1  0  0  0
 15 16  1  0  0  0
 15 38  1  0  0  0
 16 21  2  0  0  0
 16 17  1  0  0  0
 17 18  2  0  0  0
 17 39  1  0  0  0
 18 19  1  0  0  0
 18 40  1  0  0  0
 19 20  2  0  0  0
 19 41  1  0  0  0
 20 21  1  0  0  0
 20 22  1  0  0  0
 21 42  1  0  0  0
 22 23  1  0  0  0
 22 24  1  0  0  0
 22 25  1  0  0  0
 26 31  2  0  0  0
 26 27  1  0  0  0
 27 28  2  0  0  0
 27 43  1  0  0  0
 28 29  1  0  0  0
 28 44  1  0  0  0
 29 30  2  0  0  0
 29 32  1  0  0  0
 30 31  1  0  0  0
 30 45  1  0  0  0
 31 46  1  0  0  0
 32 33  1  0  0  0
 33 47  1  0  0  0
 33 48  1  0  0  0
 33 49  1  0  0  0
M  END
> <i_i_glide_confnum>
14

> <i_i_glide_lignum>
2239

> <i_i_glide_posenum>
26

> <i_i_glide_rotatable_bonds>
6

> <i_m_Source_File_Index>
4570

> <b_m_subgroup_collapsed>
0

> <r_i_docking_score>
-5.99345

> <r_i_glide_ecoul>
-3.28664

> <r_i_glide_eff_state_penalty>
0

> <r_i_glide_einternal>
6.73127

> <r_i_glide_emodel>
-55.007

> <r_i_glide_energy>
-42.1073

> <r_i_glide_erotb>
0.39684

> <r_i_glide_esite>
-0.107699

> <r_i_glide_evdw>
-38.8207

> <r_i_glide_gscore>
-5.99345

> <r_i_glide_hbond>
-0.32

> <r_i_glide_ligand_efficiency>
-0.193337

> <r_i_glide_ligand_efficiency_ln>
-1.35171

> <r_i_glide_ligand_efficiency_sa>
-0.607345

> <r_i_glide_lipo>
-2.11736

> <r_i_glide_metal>
0

> <r_i_glide_rewards>
-1.4112

> <s_i_glide_gridfile>
wee1_glide-grid

> <s_m_Source_File>
wee1_decoys_glide_SP.sdf

> <s_m_Source_Path>
/Users/zhangxujun/Desktop

> <s_m_entry_id>
4845

> <s_m_entry_name>
wee1_decoys_glide_SP.4570

> <s_m_subgroup_title>
wee1_decoys_glide_SP

> <s_m_subgroupid>
wee1_decoys_glide_SP


$$$$
