ZINC39687269_3085
                    3D
 Schrodinger Suite 2024-2.
 81 84  0  0  1  0            999 V2000
    4.9802   54.6130   28.9578 C   0  0  0  0  0  0
    4.1932   53.2908   28.8375 C   0  0  0  0  0  0
    2.7560   53.3137   28.2237 C   0  0  0  0  0  0
    1.6814   54.0464   29.0837 C   0  0  0  0  0  0
    1.6813   55.5866   29.0803 C   0  0  0  0  0  0
    2.7156   53.6966   26.7150 C   0  0  0  0  0  0
    3.5447   54.4900   26.2690 O   0  0  0  0  0  0
    1.8019   53.1167   25.8950 N   0  0  0  0  0  0
    1.8107   53.3698   24.4586 C   0  0  0  0  0  0
    0.4480   52.8301   23.9644 C   0  0  2  0  0  0
   -0.2158   53.6961   23.9480 H   0  0  0  0  0  0
    0.0233   51.7484   25.0079 C   0  0  0  0  0  0
    0.6787   52.2773   26.3101 C   0  0  0  0  0  0
   -1.5134   51.6020   25.1120 C   0  0  0  0  0  0
   -1.9096   50.6879   26.2903 C   0  0  0  0  0  0
   -1.2828   49.2927   26.0771 N   0  3  0  0  0  0
    0.2324   49.2841   25.7729 C   0  0  0  0  0  0
    0.5258   50.3074   24.6542 C   0  0  0  0  0  0
    0.5728   52.3166   22.5005 C   0  0  0  0  0  0
   -0.4609   52.0969   21.8701 O   0  0  0  0  0  0
    1.7911   52.1030   21.9707 N   0  0  0  0  0  0
    2.1073   51.3905   20.7291 C   0  0  1  0  0  0
    1.7277   52.0005   19.9147 H   0  0  0  0  0  0
    3.6510   51.3182   20.5903 C   0  0  0  0  0  0
    4.4028   52.6361   20.5248 C   0  0  0  0  0  0
    4.5319   53.3059   19.2919 C   0  0  0  0  0  0
    5.1773   54.5342   19.2349 C   0  0  0  0  0  0
    5.6711   55.1206   20.3939 C   0  0  0  0  0  0
    5.5027   54.4963   21.6225 C   0  0  0  0  0  0
    4.8622   53.2672   21.7011 C   0  0  0  0  0  0
    1.5280   49.9456   20.7332 C   0  0  0  0  0  0
    1.8757   49.2108   21.6650 O   0  0  0  0  0  0
    0.7090   49.5214   19.7329 N   0  0  0  0  0  0
    0.3240   50.3268   18.5596 C   0  0  0  0  0  0
    1.2892   49.9432   17.4146 C   0  0  0  0  0  0
    1.2770   48.4225   17.1427 C   0  0  0  0  0  0
    1.4481   47.6112   18.4446 C   0  0  0  0  0  0
    0.4742   48.0781   19.5525 C   0  0  0  0  0  0
    6.0006   54.4120   29.2817 H   0  0  0  0  0  0
    4.5386   55.2886   29.6847 H   0  0  0  0  0  0
    5.0695   55.1478   28.0147 H   0  0  0  0  0  0
    4.8019   52.5991   28.2486 H   0  0  0  0  0  0
    4.1427   52.8318   29.8268 H   0  0  0  0  0  0
    2.4802   52.2600   28.2563 H   0  0  0  0  0  0
    0.6951   53.7146   28.7573 H   0  0  0  0  0  0
    1.7462   53.6952   30.1143 H   0  0  0  0  0  0
    0.7489   55.9645   29.4954 H   0  0  0  0  0  0
    2.4767   55.9991   29.6933 H   0  0  0  0  0  0
    1.7803   56.0014   28.0815 H   0  0  0  0  0  0
    1.9298   54.4261   24.2145 H   0  0  0  0  0  0
    2.6530   52.7716   24.1132 H   0  0  0  0  0  0
    0.8890   51.5117   27.0526 H   0  0  0  0  0  0
   -0.0385   52.9516   26.7774 H   0  0  0  0  0  0
   -1.9546   52.5829   25.3019 H   0  0  0  0  0  0
   -1.9503   51.2693   24.1690 H   0  0  0  0  0  0
   -1.5485   51.0317   27.2599 H   0  0  0  0  0  0
   -2.9872   50.5335   26.3581 H   0  0  0  0  0  0
   -1.4482   48.7439   26.9472 H   0  0  0  0  0  0
    0.7300   49.4861   26.7189 H   0  0  0  0  0  0
    0.4775   48.2640   25.4710 H   0  0  0  0  0  0
    0.1024   49.9518   23.7122 H   0  0  0  0  0  0
    1.6026   50.3204   24.4794 H   0  0  0  0  0  0
    2.6018   52.3567   22.5091 H   0  0  0  0  0  0
    4.0772   50.7440   21.4119 H   0  0  0  0  0  0
    3.9016   50.7597   19.6883 H   0  0  0  0  0  0
    4.1520   52.8492   18.3882 H   0  0  0  0  0  0
    5.2886   55.0348   18.2849 H   0  0  0  0  0  0
    6.1766   56.0731   20.3362 H   0  0  0  0  0  0
    5.8768   54.9636   22.5205 H   0  0  0  0  0  0
    4.7428   52.7976   22.6642 H   0  0  0  0  0  0
   -0.6906   50.0205   18.2995 H   0  0  0  0  0  0
    0.1926   51.3914   18.7533 H   0  0  0  0  0  0
    1.0145   50.4805   16.5076 H   0  0  0  0  0  0
    2.3011   50.2734   17.6543 H   0  0  0  0  0  0
    2.0592   48.1580   16.4307 H   0  0  0  0  0  0
    0.3355   48.1475   16.6686 H   0  0  0  0  0  0
    2.4771   47.6947   18.7983 H   0  0  0  0  0  0
    1.2957   46.5521   18.2430 H   0  0  0  0  0  0
    0.5304   47.5136   20.4825 H   0  0  0  0  0  0
   -0.5583   47.9538   19.2277 H   0  0  0  0  0  0
   -1.7664   48.8462   25.3087 H   0  0  0  0  0  0
  1  2  1  0  0  0
  1 39  1  0  0  0
  1 40  1  0  0  0
  1 41  1  0  0  0
  2  3  1  0  0  0
  2 42  1  0  0  0
  2 43  1  0  0  0
  3  4  1  0  0  0
  3  6  1  0  0  0
  3 44  1  0  0  0
  4  5  1  0  0  0
  4 45  1  0  0  0
  4 46  1  0  0  0
  5 47  1  0  0  0
  5 48  1  0  0  0
  5 49  1  0  0  0
  6  7  2  0  0  0
  6  8  1  0  0  0
  8 13  1  0  0  0
  8  9  1  0  0  0
  9 10  1  0  0  0
  9 50  1  0  0  0
  9 51  1  0  0  0
 10 11  1  0  0  0
 10 12  1  0  0  0
 10 19  1  0  0  0
 12 18  1  0  0  0
 12 13  1  0  0  0
 12 14  1  0  0  0
 13 52  1  0  0  0
 13 53  1  0  0  0
 14 15  1  0  0  0
 14 54  1  0  0  0
 14 55  1  0  0  0
 15 16  1  0  0  0
 15 56  1  0  0  0
 15 57  1  0  0  0
 16 17  1  0  0  0
 16 58  1  0  0  0
 16 81  1  0  0  0
 17 18  1  0  0  0
 17 59  1  0  0  0
 17 60  1  0  0  0
 18 61  1  0  0  0
 18 62  1  0  0  0
 19 20  2  0  0  0
 19 21  1  0  0  0
 21 22  1  0  0  0
 21 63  1  0  0  0
 22 23  1  0  0  0
 22 24  1  0  0  0
 22 31  1  0  0  0
 24 25  1  0  0  0
 24 64  1  0  0  0
 24 65  1  0  0  0
 25 30  2  0  0  0
 25 26  1  0  0  0
 26 27  2  0  0  0
 26 66  1  0  0  0
 27 28  1  0  0  0
 27 67  1  0  0  0
 28 29  2  0  0  0
 28 68  1  0  0  0
 29 30  1  0  0  0
 29 69  1  0  0  0
 30 70  1  0  0  0
 31 32  2  0  0  0
 31 33  1  0  0  0
 33 38  1  0  0  0
 33 34  1  0  0  0
 34 35  1  0  0  0
 34 71  1  0  0  0
 34 72  1  0  0  0
 35 36  1  0  0  0
 35 73  1  0  0  0
 35 74  1  0  0  0
 36 37  1  0  0  0
 36 75  1  0  0  0
 36 76  1  0  0  0
 37 38  1  0  0  0
 37 77  1  0  0  0
 37 78  1  0  0  0
 38 79  1  0  0  0
 38 80  1  0  0  0
M  CHG  1  16   1
M  END
> <i_i_glide_confnum>
450

> <i_i_glide_lignum>
3086

> <i_i_glide_posenum>
335

> <i_i_glide_rotatable_bonds>
11

> <i_m_Source_File_Index>
1529

> <b_m_subgroup_collapsed>
0

> <r_i_docking_score>
-5.35574

> <r_i_glide_ecoul>
-6.44333

> <r_i_glide_eff_state_penalty>
0

> <r_i_glide_einternal>
11.4685

> <r_i_glide_emodel>
-60.0966

> <r_i_glide_energy>
-47.6851

> <r_i_glide_erotb>
0.576534

> <r_i_glide_esite>
-0.110434

> <r_i_glide_evdw>
-41.2418

> <r_i_glide_gscore>
-5.35574

> <r_i_glide_hbond>
-0.176006

> <r_i_glide_ligand_efficiency>
-0.14877

> <r_i_glide_ligand_efficiency_ln>
-1.16848

> <r_i_glide_ligand_efficiency_sa>
-0.491229

> <r_i_glide_lipo>
-2.06123

> <r_i_glide_metal>
0

> <r_i_glide_rewards>
-0.556012

> <s_i_glide_gridfile>
wee1_glide-grid

> <s_m_Source_File>
wee1_decoys_glide_SP.sdf

> <s_m_Source_Path>
/Users/zhangxujun/Desktop

> <s_m_entry_id>
1804

> <s_m_entry_name>
wee1_decoys_glide_SP.1529

> <s_m_subgroup_title>
wee1_decoys_glide_SP

> <s_m_subgroupid>
wee1_decoys_glide_SP


$$$$
