ZINC13879942_5945
                    3D
 Schrodinger Suite 2024-2.
 53 56  0  0  1  0            999 V2000
    8.8564   53.3645   17.0144 C   0  0  0  0  0  0
    9.1946   54.5415   17.6790 C   0  0  0  0  0  0
    8.2358   55.2013   18.4439 C   0  0  0  0  0  0
    6.9470   54.6711   18.5531 C   0  0  0  0  0  0
    6.6116   53.4952   17.8774 C   0  0  0  0  0  0
    7.5690   52.8403   17.1092 C   0  0  0  0  0  0
    5.8869   55.3833   19.3860 C   0  0  0  0  0  0
    5.7962   54.8946   20.7775 N   0  0  0  0  0  0
    6.7045   55.2967   21.6967 C   0  0  0  0  0  0
    7.6146   56.0966   21.4958 O   0  0  0  0  0  0
    6.5146   54.5969   23.0373 C   0  0  2  0  0  0
    7.3248   53.8692   23.1127 H   0  0  0  0  0  0
    4.9768   53.6967   22.8832 S   0  0  0  0  0  0
    4.8261   54.0031   21.1207 C   0  0  0  0  0  0
    3.9454   53.4326   20.3870 N   0  0  0  0  0  0
    3.0442   52.4716   20.8697 C   0  0  0  0  0  0
    3.1492   51.1554   20.4111 C   0  0  0  0  0  0
    2.3032   50.1583   20.8902 C   0  0  0  0  0  0
    1.3296   50.4766   21.8312 C   0  0  0  0  0  0
    1.1926   51.7841   22.2893 C   0  0  0  0  0  0
    2.0442   52.7742   21.8062 C   0  0  0  0  0  0
    0.5066   49.5113   22.2975 F   0  0  0  0  0  0
    6.5872   55.5617   24.2586 C   0  0  0  0  0  0
    6.2990   54.8962   25.6106 C   0  0  0  0  0  0
    7.2335   54.5074   26.2952 O   0  0  0  0  0  0
    5.0131   54.7978   25.9856 N   0  0  0  0  0  0
    4.5006   54.2140   27.1552 C   0  0  0  0  0  0
    3.2036   54.5717   27.4897 C   0  0  0  0  0  0
    2.5744   54.0277   28.6025 C   0  0  0  0  0  0
    3.2497   53.0978   29.4012 C   0  0  0  0  0  0
    4.5610   52.7415   29.0633 C   0  0  0  0  0  0
    5.1858   53.2929   27.9536 C   0  0  0  0  0  0
    2.5919   52.4967   30.6013 C   0  0  0  0  0  0
    1.4285   52.8604   30.8785 O   0  0  0  0  0  0
    9.5995   52.8493   16.4244 H   0  0  0  0  0  0
   10.1965   54.9399   17.6051 H   0  0  0  0  0  0
    8.5025   56.1115   18.9604 H   0  0  0  0  0  0
    5.6194   53.0727   17.9596 H   0  0  0  0  0  0
    7.3134   51.9205   16.6033 H   0  0  0  0  0  0
    4.9233   55.3055   18.8782 H   0  0  0  0  0  0
    6.1083   56.4520   19.3875 H   0  0  0  0  0  0
    3.9037   50.9026   19.6813 H   0  0  0  0  0  0
    2.4054   49.1433   20.5346 H   0  0  0  0  0  0
    0.4313   52.0249   23.0162 H   0  0  0  0  0  0
    1.9382   53.7882   22.1620 H   0  0  0  0  0  0
    5.9045   56.3968   24.1596 H   0  0  0  0  0  0
    7.5709   56.0266   24.3157 H   0  0  0  0  0  0
    4.3233   55.1861   25.3624 H   0  0  0  0  0  0
    2.7042   55.2963   26.8818 H   0  0  0  0  0  0
    1.5637   54.3322   28.8389 H   0  0  0  0  0  0
    5.1040   52.0202   29.6554 H   0  0  0  0  0  0
    6.1817   52.9516   27.7203 H   0  0  0  0  0  0
    3.2664   51.6968   31.2877 O   0  5  0  0  0  0
  1  6  2  0  0  0
  1  2  1  0  0  0
  1 35  1  0  0  0
  2  3  2  0  0  0
  2 36  1  0  0  0
  3  4  1  0  0  0
  3 37  1  0  0  0
  4  5  2  0  0  0
  4  7  1  0  0  0
  5  6  1  0  0  0
  5 38  1  0  0  0
  6 39  1  0  0  0
  7  8  1  0  0  0
  7 40  1  0  0  0
  7 41  1  0  0  0
  8 14  1  0  0  0
  8  9  1  0  0  0
  9 10  2  0  0  0
  9 11  1  0  0  0
 11 12  1  0  0  0
 11 13  1  0  0  0
 11 23  1  0  0  0
 13 14  1  0  0  0
 14 15  2  0  0  0
 15 16  1  0  0  0
 16 21  2  0  0  0
 16 17  1  0  0  0
 17 18  2  0  0  0
 17 42  1  0  0  0
 18 19  1  0  0  0
 18 43  1  0  0  0
 19 20  2  0  0  0
 19 22  1  0  0  0
 20 21  1  0  0  0
 20 44  1  0  0  0
 21 45  1  0  0  0
 23 24  1  0  0  0
 23 46  1  0  0  0
 23 47  1  0  0  0
 24 25  2  0  0  0
 24 26  1  0  0  0
 26 27  1  0  0  0
 26 48  1  0  0  0
 27 32  2  0  0  0
 27 28  1  0  0  0
 28 29  2  0  0  0
 28 49  1  0  0  0
 29 30  1  0  0  0
 29 50  1  0  0  0
 30 31  2  0  0  0
 30 33  1  0  0  0
 31 32  1  0  0  0
 31 51  1  0  0  0
 32 52  1  0  0  0
 33 34  2  0  0  0
 33 53  1  0  0  0
M  CHG  1  53  -1
M  END
> <i_i_glide_confnum>
102

> <i_i_glide_lignum>
5946

> <i_i_glide_posenum>
154

> <i_i_glide_rotatable_bonds>
8

> <i_m_Source_File_Index>
4250

> <b_m_subgroup_collapsed>
0

> <r_i_docking_score>
-7.22002

> <r_i_glide_ecoul>
-5.11702

> <r_i_glide_eff_state_penalty>
0

> <r_i_glide_einternal>
2.65549

> <r_i_glide_emodel>
-77.4834

> <r_i_glide_energy>
-51.6565

> <r_i_glide_erotb>
0.535124

> <r_i_glide_esite>
-0.0273345

> <r_i_glide_evdw>
-46.5394

> <r_i_glide_gscore>
-7.22002

> <r_i_glide_hbond>
-0.528942

> <r_i_glide_ligand_efficiency>
-0.212354

> <r_i_glide_ligand_efficiency_ln>
-1.59511

> <r_i_glide_ligand_efficiency_sa>
-0.687943

> <r_i_glide_lipo>
-2.8123

> <r_i_glide_metal>
0

> <r_i_glide_rewards>
-1.29204

> <s_i_glide_gridfile>
wee1_glide-grid

> <s_m_Source_File>
wee1_decoys_glide_SP.sdf

> <s_m_Source_Path>
/Users/zhangxujun/Desktop

> <s_m_entry_id>
4525

> <s_m_entry_name>
wee1_decoys_glide_SP.4250

> <s_m_subgroup_title>
wee1_decoys_glide_SP

> <s_m_subgroupid>
wee1_decoys_glide_SP


$$$$
