ZINC56344573_4600
                    3D
 Schrodinger Suite 2024-2.
 43 45  0  0  1  0            999 V2000
    7.1138   55.4999   20.8838 C   0  0  0  0  0  0
    6.2977   54.9235   19.9146 C   0  0  0  0  0  0
    5.2176   54.1333   20.2952 C   0  0  0  0  0  0
    4.9409   53.9028   21.6530 C   0  0  0  0  0  0
    5.7608   54.4970   22.6302 C   0  0  0  0  0  0
    6.8475   55.2935   22.2350 C   0  0  0  0  0  0
    5.4079   54.2612   23.9726 N   0  0  0  0  0  0
    5.8110   54.8591   25.1152 C   0  0  0  0  0  0
    6.7112   55.6964   25.1944 O   0  0  0  0  0  0
    5.0580   54.4364   26.3598 C   0  0  0  0  0  0
    5.5879   54.7165   27.6264 C   0  0  0  0  0  0
    4.8961   54.3647   28.7813 C   0  0  0  0  0  0
    3.6752   53.6982   28.6963 C   0  0  0  0  0  0
    3.1199   53.4020   27.4507 C   0  0  0  0  0  0
    3.8146   53.7791   26.2905 C   0  0  0  0  0  0
    1.9042   52.6889   27.4467 N   0  0  0  0  0  0
    1.0422   52.4969   26.4281 C   0  0  0  0  0  0
    1.1051   53.0446   25.3261 O   0  0  0  0  0  0
    0.0890   51.6108   26.7516 N   0  0  0  0  0  0
   -1.0844   51.3375   25.9268 C   0  0  0  0  0  0
   -0.9037   50.7284   24.5515 C   0  0  0  0  0  0
   -1.4715   49.8998   25.6809 C   0  0  0  0  0  0
    3.8677   53.1384   22.0813 O   0  0  0  0  0  0
    3.3904   52.0645   21.2720 C   0  0  0  0  0  0
    2.5765   51.3290   22.0259 F   0  0  0  0  0  0
    2.6961   52.4966   20.2214 F   0  0  0  0  0  0
    4.3928   51.2761   20.8816 F   0  0  0  0  0  0
    7.9651   56.0969   20.5883 H   0  0  0  0  0  0
    6.5070   55.0881   18.8675 H   0  0  0  0  0  0
    4.6033   53.7071   19.5177 H   0  0  0  0  0  0
    7.5045   55.7499   22.9560 H   0  0  0  0  0  0
    4.6618   53.5889   24.0700 H   0  0  0  0  0  0
    6.5340   55.2314   27.7280 H   0  0  0  0  0  0
    5.3161   54.6152   29.7414 H   0  0  0  0  0  0
    3.1634   53.4169   29.6064 H   0  0  0  0  0  0
    3.3956   53.5440   25.3258 H   0  0  0  0  0  0
    1.6493   52.2801   28.3324 H   0  0  0  0  0  0
    0.0426   51.2658   27.6990 H   0  0  0  0  0  0
   -1.8805   52.0744   26.0494 H   0  0  0  0  0  0
   -1.5601   51.0648   23.7498 H   0  0  0  0  0  0
    0.1091   50.5271   24.1999 H   0  0  0  0  0  0
   -0.8595   49.1079   26.1172 H   0  0  0  0  0  0
   -2.5309   49.6441   25.6870 H   0  0  0  0  0  0
  1  6  2  0  0  0
  1  2  1  0  0  0
  1 28  1  0  0  0
  2  3  2  0  0  0
  2 29  1  0  0  0
  3  4  1  0  0  0
  3 30  1  0  0  0
  4  5  2  0  0  0
  4 23  1  0  0  0
  5  6  1  0  0  0
  5  7  1  0  0  0
  6 31  1  0  0  0
  7  8  1  0  0  0
  7 32  1  0  0  0
  8  9  2  0  0  0
  8 10  1  0  0  0
 10 15  2  0  0  0
 10 11  1  0  0  0
 11 12  2  0  0  0
 11 33  1  0  0  0
 12 13  1  0  0  0
 12 34  1  0  0  0
 13 14  2  0  0  0
 13 35  1  0  0  0
 14 15  1  0  0  0
 14 16  1  0  0  0
 15 36  1  0  0  0
 16 17  1  0  0  0
 16 37  1  0  0  0
 17 18  2  0  0  0
 17 19  1  0  0  0
 19 20  1  0  0  0
 19 38  1  0  0  0
 20 22  1  0  0  0
 20 21  1  0  0  0
 20 39  1  0  0  0
 21 22  1  0  0  0
 21 40  1  0  0  0
 21 41  1  0  0  0
 22 42  1  0  0  0
 22 43  1  0  0  0
 23 24  1  0  0  0
 24 25  1  0  0  0
 24 26  1  0  0  0
 24 27  1  0  0  0
M  END
> <i_i_glide_confnum>
1

> <i_i_glide_lignum>
4601

> <i_i_glide_posenum>
304

> <i_i_glide_rotatable_bonds>
9

> <i_m_Source_File_Index>
6030

> <b_m_subgroup_collapsed>
0

> <r_i_docking_score>
-5.58213

> <r_i_glide_ecoul>
-2.78956

> <r_i_glide_eff_state_penalty>
0

> <r_i_glide_einternal>
1.17183

> <r_i_glide_emodel>
-59.5827

> <r_i_glide_energy>
-43.3266

> <r_i_glide_erotb>
0.943204

> <r_i_glide_esite>
-0.0712779

> <r_i_glide_evdw>
-40.537

> <r_i_glide_gscore>
-5.58213

> <r_i_glide_hbond>
-0.230147

> <r_i_glide_ligand_efficiency>
-0.206746

> <r_i_glide_ligand_efficiency_ln>
-1.29943

> <r_i_glide_ligand_efficiency_sa>
-0.620237

> <r_i_glide_lipo>
-2.17889

> <r_i_glide_metal>
0

> <r_i_glide_rewards>
-1.59973

> <s_i_glide_gridfile>
wee1_glide-grid

> <s_m_Source_File>
wee1_decoys_glide_SP.sdf

> <s_m_Source_Path>
/Users/zhangxujun/Desktop

> <s_m_entry_id>
6305

> <s_m_entry_name>
wee1_decoys_glide_SP.6030

> <s_m_subgroup_title>
wee1_decoys_glide_SP

> <s_m_subgroupid>
wee1_decoys_glide_SP


$$$$
