ZINC34923239_5799
                    3D
 Schrodinger Suite 2024-2.
 60 63  0  0  1  0            999 V2000
    4.0922   53.7069   27.6356 C   0  0  0  0  0  0
    2.8512   54.3373   26.9789 C   0  0  0  0  0  0
    1.8604   53.3033   26.4225 C   0  0  0  0  0  0
    0.9233   52.5691   27.1130 C   0  0  0  0  0  0
    0.0848   51.4774   26.3496 C   0  0  2  0  0  0
    0.2173   50.5269   26.8716 H   0  0  0  0  0  0
    0.6661   51.2602   24.9911 N   0  0  0  0  0  0
    0.3179   50.2403   24.1216 C   0  0  0  0  0  0
    0.7631   50.4690   22.8734 C   0  0  0  0  0  0
    1.6825   51.9589   22.7124 S   0  0  0  0  0  0
    1.5045   52.2330   24.4544 C   0  0  0  0  0  0
    2.0252   53.2181   25.0696 N   0  0  0  0  0  0
   -0.5135   49.1008   24.4774 C   0  0  0  0  0  0
   -1.4554   48.5286   23.7053 C   0  0  0  0  0  0
   -1.8418   48.8191   22.5111 O   0  5  0  0  0  0
   -2.1677   47.4636   24.2028 N   0  0  0  0  0  0
   -3.4084   46.8597   23.7151 C   0  0  0  0  0  0
   -4.1620   46.0651   24.7797 C   0  0  0  0  0  0
   -3.8039   46.0875   26.1378 C   0  0  0  0  0  0
   -4.4954   45.3031   27.0596 C   0  0  0  0  0  0
   -5.5634   44.5085   26.6463 C   0  0  0  0  0  0
   -5.9417   44.5014   25.3058 C   0  0  0  0  0  0
   -5.2482   45.2755   24.3776 C   0  0  0  0  0  0
   -5.6150   45.2291   23.0755 F   0  0  0  0  0  0
   -1.4393   51.7235   26.2903 C   0  0  0  0  0  0
   -2.0051   52.5021   25.2755 C   0  0  0  0  0  0
   -3.3815   52.7135   25.2244 C   0  0  0  0  0  0
   -4.2102   52.1459   26.1891 C   0  0  0  0  0  0
   -3.6795   51.3475   27.2025 C   0  0  0  0  0  0
   -2.2929   51.1323   27.2297 C   0  0  0  0  0  0
   -4.5749   50.8313   28.1222 O   0  0  0  0  0  0
   -4.0971   49.9673   29.1503 C   0  0  0  0  0  0
    0.7117   52.7262   28.5799 C   0  0  0  0  0  0
    1.2201   53.6226   29.2607 O   0  0  0  0  0  0
   -0.1065   51.8008   29.1154 O   0  0  0  0  0  0
   -0.4946   51.8702   30.4827 C   0  0  0  0  0  0
    4.7633   54.4739   28.0209 H   0  0  0  0  0  0
    3.8221   53.0577   28.4665 H   0  0  0  0  0  0
    4.6537   53.1084   26.9164 H   0  0  0  0  0  0
    3.1959   55.0106   26.1895 H   0  0  0  0  0  0
    2.3503   55.0057   27.6768 H   0  0  0  0  0  0
    0.5873   49.8436   22.0093 H   0  0  0  0  0  0
   -0.3561   48.6813   25.4610 H   0  0  0  0  0  0
   -1.6737   46.8829   24.8573 H   0  0  0  0  0  0
   -4.0536   47.6189   23.2707 H   0  0  0  0  0  0
   -3.1401   46.1707   22.9131 H   0  0  0  0  0  0
   -2.9869   46.6999   26.4975 H   0  0  0  0  0  0
   -4.1932   45.3135   28.0967 H   0  0  0  0  0  0
   -6.0958   43.8980   27.3627 H   0  0  0  0  0  0
   -6.7699   43.8871   24.9833 H   0  0  0  0  0  0
   -1.3766   52.9581   24.5248 H   0  0  0  0  0  0
   -3.8017   53.3196   24.4367 H   0  0  0  0  0  0
   -5.2759   52.3128   26.1422 H   0  0  0  0  0  0
   -1.8655   50.4972   27.9900 H   0  0  0  0  0  0
   -4.9205   49.6952   29.8126 H   0  0  0  0  0  0
   -3.6958   49.0424   28.7323 H   0  0  0  0  0  0
   -3.3321   50.4496   29.7632 H   0  0  0  0  0  0
   -1.2602   51.1233   30.6976 H   0  0  0  0  0  0
    0.3596   51.6967   31.1363 H   0  0  0  0  0  0
   -0.8962   52.8534   30.7254 H   0  0  0  0  0  0
  1  2  1  0  0  0
  1 37  1  0  0  0
  1 38  1  0  0  0
  1 39  1  0  0  0
  2  3  1  0  0  0
  2 40  1  0  0  0
  2 41  1  0  0  0
  3 12  1  0  0  0
  3  4  2  0  0  0
  4  5  1  0  0  0
  4 33  1  0  0  0
  5  6  1  0  0  0
  5  7  1  0  0  0
  5 25  1  0  0  0
  7 11  1  0  0  0
  7  8  1  0  0  0
  8  9  2  0  0  0
  8 13  1  0  0  0
  9 10  1  0  0  0
  9 42  1  0  0  0
 10 11  1  0  0  0
 11 12  2  0  0  0
 13 14  2  0  0  0
 13 43  1  0  0  0
 14 15  1  0  0  0
 14 16  1  0  0  0
 16 17  1  0  0  0
 16 44  1  0  0  0
 17 18  1  0  0  0
 17 45  1  0  0  0
 17 46  1  0  0  0
 18 23  2  0  0  0
 18 19  1  0  0  0
 19 20  2  0  0  0
 19 47  1  0  0  0
 20 21  1  0  0  0
 20 48  1  0  0  0
 21 22  2  0  0  0
 21 49  1  0  0  0
 22 23  1  0  0  0
 22 50  1  0  0  0
 23 24  1  0  0  0
 25 30  2  0  0  0
 25 26  1  0  0  0
 26 27  2  0  0  0
 26 51  1  0  0  0
 27 28  1  0  0  0
 27 52  1  0  0  0
 28 29  2  0  0  0
 28 53  1  0  0  0
 29 30  1  0  0  0
 29 31  1  0  0  0
 30 54  1  0  0  0
 31 32  1  0  0  0
 32 55  1  0  0  0
 32 56  1  0  0  0
 32 57  1  0  0  0
 33 34  2  0  0  0
 33 35  1  0  0  0
 35 36  1  0  0  0
 36 58  1  0  0  0
 36 59  1  0  0  0
 36 60  1  0  0  0
M  CHG  1  15  -1
M  END
> <i_i_glide_confnum>
138

> <i_i_glide_lignum>
5800

> <i_i_glide_posenum>
62

> <i_i_glide_rotatable_bonds>
9

> <i_m_Source_File_Index>
3724

> <b_m_subgroup_collapsed>
0

> <r_i_docking_score>
-3.51101

> <r_i_glide_ecoul>
-3.70962

> <r_i_glide_eff_state_penalty>
0

> <r_i_glide_einternal>
8.86447

> <r_i_glide_emodel>
-48.8836

> <r_i_glide_energy>
-42.4626

> <r_i_glide_erotb>
0.416604

> <r_i_glide_esite>
-0.0401594

> <r_i_glide_evdw>
-38.753

> <r_i_glide_gscore>
-3.51101

> <r_i_glide_hbond>
0

> <r_i_glide_ligand_efficiency>
-0.100315

> <r_i_glide_ligand_efficiency_ln>
-0.770745

> <r_i_glide_ligand_efficiency_sa>
-0.328136

> <r_i_glide_lipo>
-0.916574

> <r_i_glide_metal>
0

> <r_i_glide_rewards>
-0.476789

> <s_i_glide_gridfile>
wee1_glide-grid

> <s_m_Source_File>
wee1_decoys_glide_SP.sdf

> <s_m_Source_Path>
/Users/zhangxujun/Desktop

> <s_m_entry_id>
3999

> <s_m_entry_name>
wee1_decoys_glide_SP.3724

> <s_m_subgroup_title>
wee1_decoys_glide_SP

> <s_m_subgroupid>
wee1_decoys_glide_SP


$$$$
