ZINC03665044_4156
                    3D
 Schrodinger Suite 2024-2.
 58 62  0  0  1  0            999 V2000
   -1.2025   51.5640   20.0942 C   0  0  0  0  0  0
   -1.4653   52.1009   18.8384 C   0  0  0  0  0  0
   -2.5145   51.6041   18.0549 C   0  0  0  0  0  0
   -3.2590   50.5183   18.5314 C   0  0  0  0  0  0
   -2.9791   49.9627   19.7748 C   0  0  0  0  0  0
   -1.9569   50.4875   20.5722 C   0  0  0  0  0  0
   -1.6533   49.8783   21.9563 C   0  0  1  0  0  0
   -2.0661   48.8675   21.9010 H   0  0  0  0  0  0
   -0.1526   49.7188   22.2117 C   0  0  0  0  0  0
    0.4707   50.2663   23.2747 C   0  0  0  0  0  0
   -0.2289   51.0113   24.2380 N   0  0  0  0  0  0
   -1.6301   51.1475   24.1778 C   0  0  0  0  0  0
   -2.3398   50.6200   23.1345 C   0  0  0  0  0  0
   -3.8249   50.6831   23.1012 C   0  0  0  0  0  0
   -4.4927   49.9266   22.3985 O   0  0  0  0  0  0
   -4.5305   51.5532   24.1513 C   0  0  0  0  0  0
   -3.6150   52.6508   24.7003 C   0  0  0  0  0  0
   -2.3322   52.0155   25.2528 C   0  0  0  0  0  0
    0.4539   51.5862   25.3109 C   0  0  0  0  0  0
    1.2817   52.7069   25.3272 C   0  0  0  0  0  0
    1.7645   53.0178   26.6207 C   0  0  0  0  0  0
    1.2202   52.1812   27.6083 C   0  0  0  0  0  0
    0.3020   50.8971   26.8825 S   0  0  0  0  0  0
    1.3857   52.3183   29.1079 C   0  0  0  0  0  0
    2.8402   52.2054   29.5952 C   0  0  0  0  0  0
    3.7384   53.4105   29.2554 C   0  0  0  0  0  0
    3.9822   53.6969   27.7628 C   0  0  0  0  0  0
    2.7410   54.1360   26.9647 C   0  0  0  0  0  0
    1.6107   53.4811   24.1357 C   0  0  0  0  0  0
    1.8717   54.0965   23.1952 N   0  0  0  0  0  0
    1.8254   50.0970   23.4637 N   0  0  0  0  0  0
    0.6041   49.0246   21.2166 C   0  0  0  0  0  0
    1.2410   48.4966   20.4067 N   0  0  0  0  0  0
   -2.8313   52.2202   16.7447 N   0  3  0  0  0  0
   -2.2287   53.2386   16.4123 O   0  0  0  0  0  0
   -3.7008   51.7041   16.0450 O   0  5  0  0  0  0
   -0.3983   51.9781   20.6882 H   0  0  0  0  0  0
   -0.8554   52.9185   18.4814 H   0  0  0  0  0  0
   -4.0620   50.0981   17.9420 H   0  0  0  0  0  0
   -3.5647   49.1223   20.1214 H   0  0  0  0  0  0
   -4.7951   50.8853   24.9737 H   0  0  0  0  0  0
   -5.4614   51.9453   23.7378 H   0  0  0  0  0  0
   -4.1248   53.2137   25.4799 H   0  0  0  0  0  0
   -3.3743   53.3682   23.9133 H   0  0  0  0  0  0
   -2.4752   51.4751   26.1894 H   0  0  0  0  0  0
   -1.7179   52.8847   25.4956 H   0  0  0  0  0  0
    0.7646   51.5859   29.6251 H   0  0  0  0  0  0
    1.0035   53.2902   29.4286 H   0  0  0  0  0  0
    3.2933   51.2962   29.2034 H   0  0  0  0  0  0
    2.8308   52.0927   30.6806 H   0  0  0  0  0  0
    4.7065   53.2336   29.7141 H   0  0  0  0  0  0
    3.3451   54.3070   29.7346 H   0  0  0  0  0  0
    4.4502   52.8361   27.2849 H   0  0  0  0  0  0
    4.7259   54.4932   27.7016 H   0  0  0  0  0  0
    2.2217   54.9180   27.5205 H   0  0  0  0  0  0
    3.1043   54.6283   26.0613 H   0  0  0  0  0  0
    2.3596   49.4993   22.8479 H   0  0  0  0  0  0
    2.2857   50.4289   24.2955 H   0  0  0  0  0  0
  1  6  2  0  0  0
  1  2  1  0  0  0
  1 37  1  0  0  0
  2  3  2  0  0  0
  2 38  1  0  0  0
  3  4  1  0  0  0
  3 34  1  0  0  0
  4  5  2  0  0  0
  4 39  1  0  0  0
  5  6  1  0  0  0
  5 40  1  0  0  0
  6  7  1  0  0  0
  7  8  1  0  0  0
  7 13  1  0  0  0
  7  9  1  0  0  0
  9 10  2  0  0  0
  9 32  1  0  0  0
 10 11  1  0  0  0
 10 31  1  0  0  0
 11 12  1  0  0  0
 11 19  1  0  0  0
 12 18  1  0  0  0
 12 13  2  0  0  0
 13 14  1  0  0  0
 14 15  2  0  0  0
 14 16  1  0  0  0
 16 17  1  0  0  0
 16 41  1  0  0  0
 16 42  1  0  0  0
 17 18  1  0  0  0
 17 43  1  0  0  0
 17 44  1  0  0  0
 18 45  1  0  0  0
 18 46  1  0  0  0
 19 23  1  0  0  0
 19 20  2  0  0  0
 20 21  1  0  0  0
 20 29  1  0  0  0
 21 28  1  0  0  0
 21 22  2  0  0  0
 22 23  1  0  0  0
 22 24  1  0  0  0
 24 25  1  0  0  0
 24 47  1  0  0  0
 24 48  1  0  0  0
 25 26  1  0  0  0
 25 49  1  0  0  0
 25 50  1  0  0  0
 26 27  1  0  0  0
 26 51  1  0  0  0
 26 52  1  0  0  0
 27 28  1  0  0  0
 27 53  1  0  0  0
 27 54  1  0  0  0
 28 55  1  0  0  0
 28 56  1  0  0  0
 29 30  3  0  0  0
 31 57  1  0  0  0
 31 58  1  0  0  0
 32 33  3  0  0  0
 34 35  2  0  0  0
 34 36  1  0  0  0
M  CHG  2  34   1  36  -1
M  END
> <i_i_glide_confnum>
9

> <i_i_glide_lignum>
4157

> <i_i_glide_posenum>
379

> <i_i_glide_rotatable_bonds>
5

> <i_m_Source_File_Index>
511

> <b_m_subgroup_collapsed>
0

> <r_i_docking_score>
-3.67855

> <r_i_glide_ecoul>
1.00697

> <r_i_glide_eff_state_penalty>
0

> <r_i_glide_einternal>
5.36387

> <r_i_glide_emodel>
-43.7686

> <r_i_glide_energy>
-37.9038

> <r_i_glide_erotb>
0.172339

> <r_i_glide_esite>
-0.00383183

> <r_i_glide_evdw>
-38.9107

> <r_i_glide_gscore>
-3.67855

> <r_i_glide_hbond>
0

> <r_i_glide_ligand_efficiency>
-0.105101

> <r_i_glide_ligand_efficiency_ln>
-0.807523

> <r_i_glide_ligand_efficiency_sa>
-0.343793

> <r_i_glide_lipo>
-1.55518

> <r_i_glide_metal>
0

> <r_i_glide_rewards>
-0.497379

> <s_i_glide_gridfile>
wee1_glide-grid

> <s_m_Source_File>
wee1_decoys_glide_SP.sdf

> <s_m_Source_Path>
/Users/zhangxujun/Desktop

> <s_m_entry_id>
786

> <s_m_entry_name>
wee1_decoys_glide_SP.511

> <s_m_subgroup_title>
wee1_decoys_glide_SP

> <s_m_subgroupid>
wee1_decoys_glide_SP


$$$$
