ZINC12494018_2889
                    3D
 Schrodinger Suite 2024-2.
 62 63  0  0  1  0            999 V2000
    3.8931   54.3562   25.0369 C   0  0  0  0  0  0
    3.4965   53.8235   26.4040 C   0  0  0  0  0  0
    2.2177   53.2922   26.5849 C   0  0  0  0  0  0
    1.8368   52.7057   27.8042 C   0  0  0  0  0  0
    2.7267   52.7727   28.8935 C   0  0  0  0  0  0
    3.9993   53.3342   28.7111 C   0  0  0  0  0  0
    4.3967   53.8330   27.4742 C   0  0  0  0  0  0
    6.1769   54.4965   27.2822 Br  0  0  0  0  0  0
    2.2771   52.2574   30.2718 C   0  0  0  0  0  0
    3.4168   51.9847   31.2818 C   0  0  0  0  0  0
    1.1948   53.1731   30.8811 C   0  0  0  0  0  0
    0.6524   52.0033   27.9993 O   0  0  0  0  0  0
   -0.5374   52.2426   27.2335 C   0  0  0  0  0  0
   -0.4596   51.7622   25.7762 C   0  0  0  0  0  0
   -0.9691   52.4674   24.8983 O   0  0  0  0  0  0
    0.1919   50.6045   25.5365 N   0  0  0  0  0  0
    0.5606   50.3341   24.2179 N   0  0  0  0  0  0
   -0.0853   49.3631   23.5392 C   0  0  0  0  0  0
   -1.0128   48.6926   24.0060 O   0  0  0  0  0  0
    0.3677   49.1488   22.1105 C   0  0  0  0  0  0
    1.6418   49.5450   21.6660 C   0  0  0  0  0  0
    2.0610   49.2567   20.3679 C   0  0  0  0  0  0
    1.2294   48.5455   19.5047 C   0  0  0  0  0  0
   -0.0624   48.1956   19.9217 C   0  0  0  0  0  0
   -0.4875   48.4966   21.2117 C   0  0  0  0  0  0
    1.7309   48.2302   18.2264 N   0  0  0  0  0  0
    1.4102   47.1525   17.4788 C   0  0  0  0  0  0
    0.6984   46.2240   17.8695 O   0  0  0  0  0  0
    2.0220   47.0923   16.0719 C   0  0  0  0  0  0
    1.1063   46.4559   14.9904 C   0  0  0  0  0  0
   -0.1428   47.3108   14.6944 C   0  0  0  0  0  0
    1.8925   46.1780   13.6992 C   0  0  0  0  0  0
    4.4299   55.2971   25.1411 H   0  0  0  0  0  0
    4.5592   53.6549   24.5311 H   0  0  0  0  0  0
    3.0255   54.5511   24.4034 H   0  0  0  0  0  0
    1.5582   53.2981   25.7350 H   0  0  0  0  0  0
    4.7071   53.3835   29.5222 H   0  0  0  0  0  0
    1.8052   51.2966   30.0846 H   0  0  0  0  0  0
    4.1602   51.3000   30.8698 H   0  0  0  0  0  0
    3.9338   52.8960   31.5810 H   0  0  0  0  0  0
    3.0296   51.5272   32.1927 H   0  0  0  0  0  0
    0.2656   53.1205   30.3129 H   0  0  0  0  0  0
    0.9495   52.8851   31.9046 H   0  0  0  0  0  0
    1.5043   54.2185   30.8823 H   0  0  0  0  0  0
   -0.7946   53.2967   27.2818 H   0  0  0  0  0  0
   -1.3642   51.7207   27.7167 H   0  0  0  0  0  0
    0.7082   50.0784   26.2281 H   0  0  0  0  0  0
    1.5191   50.5852   24.0284 H   0  0  0  0  0  0
    2.3360   50.0504   22.3218 H   0  0  0  0  0  0
    3.0520   49.5502   20.0505 H   0  0  0  0  0  0
   -0.7412   47.6818   19.2581 H   0  0  0  0  0  0
   -1.4787   48.1899   21.5154 H   0  0  0  0  0  0
    2.4924   48.8056   17.8786 H   0  0  0  0  0  0
    2.9588   46.5389   16.1465 H   0  0  0  0  0  0
    2.3049   48.0968   15.7501 H   0  0  0  0  0  0
    0.7648   45.4835   15.3533 H   0  0  0  0  0  0
    0.1297   48.3005   14.3255 H   0  0  0  0  0  0
   -0.7557   47.4487   15.5853 H   0  0  0  0  0  0
   -0.7746   46.8386   13.9411 H   0  0  0  0  0  0
    2.3195   47.0922   13.2830 H   0  0  0  0  0  0
    2.7044   45.4814   13.8950 H   0  0  0  0  0  0
    1.2575   45.7261   12.9363 H   0  0  0  0  0  0
  1  2  1  0  0  0
  1 33  1  0  0  0
  1 34  1  0  0  0
  1 35  1  0  0  0
  2  7  2  0  0  0
  2  3  1  0  0  0
  3  4  2  0  0  0
  3 36  1  0  0  0
  4  5  1  0  0  0
  4 12  1  0  0  0
  5  6  2  0  0  0
  5  9  1  0  0  0
  6  7  1  0  0  0
  6 37  1  0  0  0
  7  8  1  0  0  0
  9 10  1  0  0  0
  9 11  1  0  0  0
  9 38  1  0  0  0
 10 39  1  0  0  0
 10 40  1  0  0  0
 10 41  1  0  0  0
 11 42  1  0  0  0
 11 43  1  0  0  0
 11 44  1  0  0  0
 12 13  1  0  0  0
 13 14  1  0  0  0
 13 45  1  0  0  0
 13 46  1  0  0  0
 14 15  2  0  0  0
 14 16  1  0  0  0
 16 17  1  0  0  0
 16 47  1  0  0  0
 17 18  1  0  0  0
 17 48  1  0  0  0
 18 19  2  0  0  0
 18 20  1  0  0  0
 20 25  2  0  0  0
 20 21  1  0  0  0
 21 22  2  0  0  0
 21 49  1  0  0  0
 22 23  1  0  0  0
 22 50  1  0  0  0
 23 24  2  0  0  0
 23 26  1  0  0  0
 24 25  1  0  0  0
 24 51  1  0  0  0
 25 52  1  0  0  0
 26 27  1  0  0  0
 26 53  1  0  0  0
 27 28  2  0  0  0
 27 29  1  0  0  0
 29 30  1  0  0  0
 29 54  1  0  0  0
 29 55  1  0  0  0
 30 31  1  0  0  0
 30 32  1  0  0  0
 30 56  1  0  0  0
 31 57  1  0  0  0
 31 58  1  0  0  0
 31 59  1  0  0  0
 32 60  1  0  0  0
 32 61  1  0  0  0
 32 62  1  0  0  0
M  END
> <i_i_glide_confnum>
83

> <i_i_glide_lignum>
2890

> <i_i_glide_posenum>
107

> <i_i_glide_rotatable_bonds>
12

> <i_m_Source_File_Index>
1319

> <b_m_subgroup_collapsed>
0

> <r_i_docking_score>
-4.2076

> <r_i_glide_ecoul>
-3.1151

> <r_i_glide_eff_state_penalty>
0

> <r_i_glide_einternal>
6.25308

> <r_i_glide_emodel>
-57.7894

> <r_i_glide_energy>
-46.8597

> <r_i_glide_erotb>
0.8036

> <r_i_glide_esite>
-0.159224

> <r_i_glide_evdw>
-43.7446

> <r_i_glide_gscore>
-4.2076

> <r_i_glide_hbond>
-0.120419

> <r_i_glide_ligand_efficiency>
-0.131488

> <r_i_glide_ligand_efficiency_ln>
-0.942197

> <r_i_glide_ligand_efficiency_sa>
-0.417447

> <r_i_glide_lipo>
-2.07173

> <r_i_glide_metal>
0

> <r_i_glide_rewards>
-0.00533703

> <s_i_glide_gridfile>
wee1_glide-grid

> <s_m_Source_File>
wee1_decoys_glide_SP.sdf

> <s_m_Source_Path>
/Users/zhangxujun/Desktop

> <s_m_entry_id>
1594

> <s_m_entry_name>
wee1_decoys_glide_SP.1319

> <s_m_subgroup_title>
wee1_decoys_glide_SP

> <s_m_subgroupid>
wee1_decoys_glide_SP


$$$$
