ZINC59265090_3645
                    3D
 Schrodinger Suite 2024-2.
 41 43  0  0  1  0            999 V2000
   -2.8953   50.2265   22.0081 C   0  0  0  0  0  0
   -3.7206   49.5635   21.1042 C   0  0  0  0  0  0
   -4.4558   48.4579   21.5249 C   0  0  0  0  0  0
   -4.3760   48.0142   22.8425 C   0  0  0  0  0  0
   -3.5485   48.6769   23.7449 C   0  0  0  0  0  0
   -2.7972   49.7832   23.3322 C   0  0  0  0  0  0
   -1.9035   50.5141   24.2874 C   0  0  0  0  0  0
   -1.7152   51.8147   24.2546 N   0  0  0  0  0  0
   -0.8458   52.1411   25.2884 N   0  0  0  0  0  0
   -0.5099   51.0236   25.8836 C   0  0  0  0  0  0
   -1.1543   49.9540   25.3057 N   0  0  0  0  0  0
   -1.0458   48.6233   25.6817 N   0  0  0  0  0  0
    0.5513   50.9045   27.2817 S   0  0  0  0  0  0
   -0.1954   52.1720   28.3606 C   0  0  0  0  0  0
    0.6843   52.6737   29.5360 C   0  0  0  0  0  0
    2.0240   53.3465   29.1764 C   0  0  0  0  0  0
    2.7040   53.8255   30.0816 O   0  0  0  0  0  0
    2.3636   53.3854   27.8732 N   0  0  0  0  0  0
    3.5175   53.8840   27.2566 C   0  0  0  0  0  0
    4.7237   54.1508   27.9230 C   0  0  0  0  0  0
    5.8059   54.6605   27.2112 C   0  0  0  0  0  0
    5.6789   54.8967   25.8441 C   0  0  0  0  0  0
    4.5021   54.5876   25.1712 C   0  0  0  0  0  0
    3.4199   54.0828   25.8787 C   0  0  0  0  0  0
    7.1044   55.6951   24.8820 Br  0  0  0  0  0  0
   -5.5798   47.5465   20.2888 Br  0  0  0  0  0  0
   -2.3224   51.0805   21.6758 H   0  0  0  0  0  0
   -3.7884   49.9023   20.0814 H   0  0  0  0  0  0
   -4.9563   47.1617   23.1635 H   0  0  0  0  0  0
   -3.5034   48.3342   24.7682 H   0  0  0  0  0  0
   -0.1165   48.2687   25.5073 H   0  0  0  0  0  0
   -1.2959   48.4964   26.6684 H   0  0  0  0  0  0
   -1.1018   51.7265   28.7737 H   0  0  0  0  0  0
   -0.5404   53.0262   27.7773 H   0  0  0  0  0  0
    1.0060   51.7896   30.0880 H   0  0  0  0  0  0
    0.1089   53.2864   30.2315 H   0  0  0  0  0  0
    1.6875   52.9858   27.2392 H   0  0  0  0  0  0
    4.8409   53.9773   28.9811 H   0  0  0  0  0  0
    6.7270   54.8964   27.7245 H   0  0  0  0  0  0
    4.4214   54.7646   24.1086 H   0  0  0  0  0  0
    2.5035   53.8630   25.3495 H   0  0  0  0  0  0
  1  6  2  0  0  0
  1  2  1  0  0  0
  1 27  1  0  0  0
  2  3  2  0  0  0
  2 28  1  0  0  0
  3  4  1  0  0  0
  3 26  1  0  0  0
  4  5  2  0  0  0
  4 29  1  0  0  0
  5  6  1  0  0  0
  5 30  1  0  0  0
  6  7  1  0  0  0
  7 11  1  0  0  0
  7  8  2  0  0  0
  8  9  1  0  0  0
  9 10  2  0  0  0
 10 11  1  0  0  0
 10 13  1  0  0  0
 11 12  1  0  0  0
 12 31  1  0  0  0
 12 32  1  0  0  0
 13 14  1  0  0  0
 14 15  1  0  0  0
 14 33  1  0  0  0
 14 34  1  0  0  0
 15 16  1  0  0  0
 15 35  1  0  0  0
 15 36  1  0  0  0
 16 17  2  0  0  0
 16 18  1  0  0  0
 18 19  1  0  0  0
 18 37  1  0  0  0
 19 24  2  0  0  0
 19 20  1  0  0  0
 20 21  2  0  0  0
 20 38  1  0  0  0
 21 22  1  0  0  0
 21 39  1  0  0  0
 22 23  2  0  0  0
 22 25  1  0  0  0
 23 24  1  0  0  0
 23 40  1  0  0  0
 24 41  1  0  0  0
M  END
> <i_i_glide_confnum>
100

> <i_i_glide_lignum>
3646

> <i_i_glide_posenum>
328

> <i_i_glide_rotatable_bonds>
7

> <i_m_Source_File_Index>
224

> <b_m_subgroup_collapsed>
0

> <r_i_docking_score>
-5.27951

> <r_i_glide_ecoul>
-9.94121

> <r_i_glide_eff_state_penalty>
0

> <r_i_glide_einternal>
3.35934

> <r_i_glide_emodel>
-59.1493

> <r_i_glide_energy>
-43.1471

> <r_i_glide_erotb>
0.495055

> <r_i_glide_esite>
-0.191388

> <r_i_glide_evdw>
-33.2059

> <r_i_glide_gscore>
-5.27951

> <r_i_glide_hbond>
-0.456

> <r_i_glide_ligand_efficiency>
-0.203058

> <r_i_glide_ligand_efficiency_ln>
-1.23988

> <r_i_glide_ligand_efficiency_sa>
-0.601559

> <r_i_glide_lipo>
-1.75035

> <r_i_glide_metal>
0

> <r_i_glide_rewards>
-0.225353

> <s_i_glide_gridfile>
wee1_glide-grid

> <s_m_Source_File>
wee1_decoys_glide_SP.sdf

> <s_m_Source_Path>
/Users/zhangxujun/Desktop

> <s_m_entry_id>
499

> <s_m_entry_name>
wee1_decoys_glide_SP.224

> <s_m_subgroup_title>
wee1_decoys_glide_SP

> <s_m_subgroupid>
wee1_decoys_glide_SP


$$$$
