ZINC12490620_5290
                    3D
 Schrodinger Suite 2024-2.
 45 46  0  0  1  0            999 V2000
    1.6526   53.1573   26.3765 C   0  0  0  0  0  0
    2.9214   53.3846   27.1855 C   0  0  0  0  0  0
    3.0256   52.7863   28.4444 C   0  0  0  0  0  0
    4.1842   52.9295   29.1991 C   0  0  0  0  0  0
    5.2466   53.6782   28.6958 C   0  0  0  0  0  0
    5.1652   54.2818   27.4430 C   0  0  0  0  0  0
    3.9928   54.1431   26.6755 C   0  0  0  0  0  0
    3.8325   54.8095   25.4810 O   0  0  0  0  0  0
    4.6981   54.4428   24.4032 C   0  0  0  0  0  0
    3.8657   54.0960   23.1617 C   0  0  0  0  0  0
    2.6614   53.8444   23.2598 O   0  0  0  0  0  0
    4.5407   54.0889   21.9928 N   0  0  0  0  0  0
    3.9050   53.6218   20.8429 N   0  0  0  0  0  0
    3.9693   52.3038   20.5340 C   0  0  0  0  0  0
    4.6883   51.5052   21.1388 O   0  0  0  0  0  0
    3.1198   51.8480   19.4521 C   0  0  0  0  0  0
    2.3125   52.6333   18.7029 C   0  0  0  0  0  0
    1.4174   52.1858   17.6184 C   0  0  0  0  0  0
    0.4134   53.0545   17.1861 C   0  0  0  0  0  0
   -0.4667   52.6670   16.1798 C   0  0  0  0  0  0
   -0.3604   51.4088   15.5907 C   0  0  0  0  0  0
    0.6498   50.5362   16.0216 C   0  0  0  0  0  0
    1.5285   50.9218   17.0302 C   0  0  0  0  0  0
   -1.2790   51.1101   14.6042 O   0  0  0  0  0  0
   -1.2104   49.8476   13.9498 C   0  0  0  0  0  0
    6.6818   55.2749   26.8335 Br  0  0  0  0  0  0
    4.3042   52.0906   30.9047 Br  0  0  0  0  0  0
    0.9448   52.5023   26.8882 H   0  0  0  0  0  0
    1.1499   54.0955   26.1545 H   0  0  0  0  0  0
    1.9030   52.6831   25.4248 H   0  0  0  0  0  0
    2.2094   52.1944   28.8359 H   0  0  0  0  0  0
    6.1456   53.7991   29.2804 H   0  0  0  0  0  0
    5.3308   53.5851   24.6447 H   0  0  0  0  0  0
    5.3513   55.2881   24.1841 H   0  0  0  0  0  0
    5.5171   54.3118   21.8597 H   0  0  0  0  0  0
    3.3213   54.3106   20.3887 H   0  0  0  0  0  0
    3.1744   50.7833   19.2778 H   0  0  0  0  0  0
    2.2980   53.6964   18.8816 H   0  0  0  0  0  0
    0.3076   54.0344   17.6300 H   0  0  0  0  0  0
   -1.2386   53.3464   15.8492 H   0  0  0  0  0  0
    0.7732   49.5572   15.5905 H   0  0  0  0  0  0
    2.3045   50.2327   17.3308 H   0  0  0  0  0  0
   -2.0017   49.7821   13.2033 H   0  0  0  0  0  0
   -1.3523   49.0250   14.6523 H   0  0  0  0  0  0
   -0.2588   49.7145   13.4338 H   0  0  0  0  0  0
  1  2  1  0  0  0
  1 28  1  0  0  0
  1 29  1  0  0  0
  1 30  1  0  0  0
  2  7  2  0  0  0
  2  3  1  0  0  0
  3  4  2  0  0  0
  3 31  1  0  0  0
  4  5  1  0  0  0
  4 27  1  0  0  0
  5  6  2  0  0  0
  5 32  1  0  0  0
  6  7  1  0  0  0
  6 26  1  0  0  0
  7  8  1  0  0  0
  8  9  1  0  0  0
  9 10  1  0  0  0
  9 33  1  0  0  0
  9 34  1  0  0  0
 10 11  2  0  0  0
 10 12  1  0  0  0
 12 13  1  0  0  0
 12 35  1  0  0  0
 13 14  1  0  0  0
 13 36  1  0  0  0
 14 15  2  0  0  0
 14 16  1  0  0  0
 16 17  2  0  0  0
 16 37  1  0  0  0
 17 18  1  0  0  0
 17 38  1  0  0  0
 18 23  2  0  0  0
 18 19  1  0  0  0
 19 20  2  0  0  0
 19 39  1  0  0  0
 20 21  1  0  0  0
 20 40  1  0  0  0
 21 22  2  0  0  0
 21 24  1  0  0  0
 22 23  1  0  0  0
 22 41  1  0  0  0
 23 42  1  0  0  0
 24 25  1  0  0  0
 25 43  1  0  0  0
 25 44  1  0  0  0
 25 45  1  0  0  0
M  END
> <i_i_glide_confnum>
57

> <i_i_glide_lignum>
5291

> <i_i_glide_posenum>
172

> <i_i_glide_rotatable_bonds>
9

> <i_m_Source_File_Index>
2966

> <b_m_subgroup_collapsed>
0

> <r_i_docking_score>
-4.63366

> <r_i_glide_ecoul>
-6.06264

> <r_i_glide_eff_state_penalty>
0

> <r_i_glide_einternal>
5.28449

> <r_i_glide_emodel>
-52.9491

> <r_i_glide_energy>
-41.2152

> <r_i_glide_erotb>
0.657751

> <r_i_glide_esite>
-0.0232445

> <r_i_glide_evdw>
-35.1526

> <r_i_glide_gscore>
-4.63366

> <r_i_glide_hbond>
-0.225855

> <r_i_glide_ligand_efficiency>
-0.171617

> <r_i_glide_ligand_efficiency_ln>
-1.07864

> <r_i_glide_ligand_efficiency_sa>
-0.514852

> <r_i_glide_lipo>
-2.09458

> <r_i_glide_metal>
0

> <r_i_glide_rewards>
-0.280709

> <s_i_glide_gridfile>
wee1_glide-grid

> <s_m_Source_File>
wee1_decoys_glide_SP.sdf

> <s_m_Source_Path>
/Users/zhangxujun/Desktop

> <s_m_entry_id>
3241

> <s_m_entry_name>
wee1_decoys_glide_SP.2966

> <s_m_subgroup_title>
wee1_decoys_glide_SP

> <s_m_subgroupid>
wee1_decoys_glide_SP


$$$$
