ZINC45302310_349
                    3D
 Schrodinger Suite 2024-2.
 80 83  0  0  1  0            999 V2000
    0.6942   49.0883   20.2075 C   0  0  0  0  0  0
   -0.3257   50.0960   20.7745 C   0  0  0  0  0  0
   -1.7580   49.5258   20.6522 C   0  0  0  0  0  0
    0.0683   50.5626   22.1953 C   0  0  0  0  0  0
   -0.5146   49.9447   23.3076 C   0  0  0  0  0  0
   -0.1975   50.3455   24.5971 C   0  0  0  0  0  0
    0.7044   51.3828   24.7998 C   0  0  0  0  0  0
    1.3324   52.0305   23.7232 C   0  0  0  0  0  0
    1.0095   51.5989   22.4080 C   0  0  0  0  0  0
    1.5491   52.2367   21.2783 N   0  0  0  0  0  0
    2.7860   52.0542   20.7915 C   0  0  0  0  0  0
    3.6286   51.2982   21.2791 O   0  0  0  0  0  0
    2.9835   52.8196   19.7029 N   0  0  0  0  0  0
    4.1575   52.7758   18.8216 C   0  0  0  0  0  0
    4.8895   54.1367   18.5376 C   0  0  0  0  0  0
    5.7283   53.9475   17.2090 C   0  0  0  0  0  0
    4.9118   53.9077   15.8888 C   0  0  0  0  0  0
    4.1458   55.1612   15.7754 N   0  0  0  0  0  0
    3.1317   55.1060   16.8364 C   0  0  0  0  0  0
    3.8652   55.2750   18.1845 C   0  0  0  0  0  0
    4.6733   56.3652   15.2892 C   0  0  0  0  0  0
    5.8404   56.3947   14.4985 C   0  0  0  0  0  0
    6.3735   57.6103   14.0621 C   0  0  0  0  0  0
    5.7455   58.7598   14.3771 N   0  3  0  0  0  0
    4.6091   58.7982   15.0963 C   0  0  0  0  0  0
    4.0497   57.6028   15.5521 C   0  0  0  0  0  0
    5.7739   54.6435   19.7209 C   0  0  0  0  0  0
    7.0091   55.2957   19.5412 C   0  0  0  0  0  0
    7.7715   55.7085   20.6297 C   0  0  0  0  0  0
    7.3047   55.5097   21.9234 C   0  0  0  0  0  0
    6.0849   54.8698   22.1472 C   0  0  0  0  0  0
    5.3205   54.5013   21.0444 C   0  0  0  0  0  0
    5.5828   54.5489   23.3946 O   0  0  0  0  0  0
    6.3874   54.7945   24.5436 C   0  0  0  0  0  0
    2.3486   53.1740   24.0014 C   0  0  0  0  0  0
    1.9098   54.5322   23.4330 C   0  0  0  0  0  0
    2.7195   53.3988   25.4880 C   0  0  0  0  0  0
   -0.7927   49.7058   25.6821 N   0  0  0  0  0  0
    1.7170   49.4593   20.2671 H   0  0  0  0  0  0
    0.6604   48.1432   20.7497 H   0  0  0  0  0  0
    0.4928   48.8736   19.1569 H   0  0  0  0  0  0
   -0.3291   50.9768   20.1312 H   0  0  0  0  0  0
   -2.4915   50.1914   21.1088 H   0  0  0  0  0  0
   -2.0391   49.4051   19.6054 H   0  0  0  0  0  0
   -1.8524   48.5468   21.1228 H   0  0  0  0  0  0
   -1.2173   49.1372   23.1788 H   0  0  0  0  0  0
    0.9130   51.6682   25.8178 H   0  0  0  0  0  0
    0.9124   52.7961   20.7320 H   0  0  0  0  0  0
    2.2792   53.5052   19.4713 H   0  0  0  0  0  0
    4.9011   52.0968   19.2418 H   0  0  0  0  0  0
    3.8229   52.2985   17.9017 H   0  0  0  0  0  0
    6.4489   54.7391   17.0386 H   0  0  0  0  0  0
    6.3526   53.0564   17.3012 H   0  0  0  0  0  0
    5.5565   53.7368   15.0280 H   0  0  0  0  0  0
    4.2305   53.0553   15.8845 H   0  0  0  0  0  0
    2.3361   55.8380   16.7010 H   0  0  0  0  0  0
    2.6169   54.1437   16.8096 H   0  0  0  0  0  0
    3.1113   55.3901   18.9503 H   0  0  0  0  0  0
    4.3725   56.2426   18.1947 H   0  0  0  0  0  0
    6.3580   55.4857   14.2374 H   0  0  0  0  0  0
    7.2739   57.7044   13.4659 H   0  0  0  0  0  0
    4.1990   59.7837   15.2818 H   0  0  0  0  0  0
    3.1464   57.6648   16.1373 H   0  0  0  0  0  0
    7.4374   55.4942   18.5759 H   0  0  0  0  0  0
    8.7279   56.1854   20.4692 H   0  0  0  0  0  0
    7.9045   55.8484   22.7492 H   0  0  0  0  0  0
    4.3664   54.0712   21.2696 H   0  0  0  0  0  0
    5.8757   54.4247   25.4311 H   0  0  0  0  0  0
    7.3454   54.2753   24.4822 H   0  0  0  0  0  0
    6.5667   55.8625   24.6860 H   0  0  0  0  0  0
    3.2736   52.8964   23.4973 H   0  0  0  0  0  0
    1.7944   54.5202   22.3543 H   0  0  0  0  0  0
    0.9738   54.8755   23.8682 H   0  0  0  0  0  0
    2.6593   55.2919   23.6606 H   0  0  0  0  0  0
    3.1022   52.4969   25.9569 H   0  0  0  0  0  0
    3.4997   54.1542   25.5897 H   0  0  0  0  0  0
    1.8643   53.7447   26.0712 H   0  0  0  0  0  0
   -0.4860   49.8941   26.6270 H   0  0  0  0  0  0
   -1.3447   48.8765   25.5210 H   0  0  0  0  0  0
    6.1481   59.6359   14.0734 H   0  0  0  0  0  0
  1  2  1  0  0  0
  1 39  1  0  0  0
  1 40  1  0  0  0
  1 41  1  0  0  0
  2  3  1  0  0  0
  2  4  1  0  0  0
  2 42  1  0  0  0
  3 43  1  0  0  0
  3 44  1  0  0  0
  3 45  1  0  0  0
  4  9  2  0  0  0
  4  5  1  0  0  0
  5  6  2  0  0  0
  5 46  1  0  0  0
  6  7  1  0  0  0
  6 38  1  0  0  0
  7  8  2  0  0  0
  7 47  1  0  0  0
  8  9  1  0  0  0
  8 35  1  0  0  0
  9 10  1  0  0  0
 10 11  1  0  0  0
 10 48  1  0  0  0
 11 12  2  0  0  0
 11 13  1  0  0  0
 13 14  1  0  0  0
 13 49  1  0  0  0
 14 15  1  0  0  0
 14 50  1  0  0  0
 14 51  1  0  0  0
 15 20  1  0  0  0
 15 16  1  0  0  0
 15 27  1  0  0  0
 16 17  1  0  0  0
 16 52  1  0  0  0
 16 53  1  0  0  0
 17 18  1  0  0  0
 17 54  1  0  0  0
 17 55  1  0  0  0
 18 19  1  0  0  0
 18 21  1  0  0  0
 19 20  1  0  0  0
 19 56  1  0  0  0
 19 57  1  0  0  0
 20 58  1  0  0  0
 20 59  1  0  0  0
 21 26  2  0  0  0
 21 22  1  0  0  0
 22 23  2  0  0  0
 22 60  1  0  0  0
 23 24  1  0  0  0
 23 61  1  0  0  0
 24 25  2  0  0  0
 24 80  1  0  0  0
 25 26  1  0  0  0
 25 62  1  0  0  0
 26 63  1  0  0  0
 27 32  2  0  0  0
 27 28  1  0  0  0
 28 29  2  0  0  0
 28 64  1  0  0  0
 29 30  1  0  0  0
 29 65  1  0  0  0
 30 31  2  0  0  0
 30 66  1  0  0  0
 31 32  1  0  0  0
 31 33  1  0  0  0
 32 67  1  0  0  0
 33 34  1  0  0  0
 34 68  1  0  0  0
 34 69  1  0  0  0
 34 70  1  0  0  0
 35 36  1  0  0  0
 35 37  1  0  0  0
 35 71  1  0  0  0
 36 72  1  0  0  0
 36 73  1  0  0  0
 36 74  1  0  0  0
 37 75  1  0  0  0
 37 76  1  0  0  0
 37 77  1  0  0  0
 38 78  1  0  0  0
 38 79  1  0  0  0
M  CHG  1  24   1
M  END
> <i_i_glide_confnum>
267

> <i_i_glide_lignum>
350

> <i_i_glide_posenum>
382

> <i_i_glide_rotatable_bonds>
10

> <i_m_Source_File_Index>
3206

> <b_m_subgroup_collapsed>
0

> <r_i_docking_score>
-4.90461

> <r_i_glide_ecoul>
-9.15362

> <r_i_glide_eff_state_penalty>
0

> <r_i_glide_einternal>
8.72938

> <r_i_glide_emodel>
-52.7766

> <r_i_glide_energy>
-42.1822

> <r_i_glide_erotb>
0.538215

> <r_i_glide_esite>
-0.138506

> <r_i_glide_evdw>
-33.0286

> <r_i_glide_gscore>
-4.90461

> <r_i_glide_hbond>
-0.278219

> <r_i_glide_ligand_efficiency>
-0.129069

> <r_i_glide_ligand_efficiency_ln>
-1.05758

> <r_i_glide_ligand_efficiency_sa>
-0.433926

> <r_i_glide_lipo>
-2.00266

> <r_i_glide_metal>
0

> <r_i_glide_rewards>
0.00103068

> <s_i_glide_gridfile>
wee1_glide-grid

> <s_m_Source_File>
wee1_decoys_glide_SP.sdf

> <s_m_Source_Path>
/Users/zhangxujun/Desktop

> <s_m_entry_id>
3481

> <s_m_entry_name>
wee1_decoys_glide_SP.3206

> <s_m_subgroup_title>
wee1_decoys_glide_SP

> <s_m_subgroupid>
wee1_decoys_glide_SP


$$$$
