ZINC00724619_6084
                    3D
 Schrodinger Suite 2024-2.
 49 52  0  0  1  0            999 V2000
    1.7129   55.7553   28.9273 C   0  0  0  0  0  0
    1.0847   54.5027   29.5159 C   0  0  0  0  0  0
    0.7044   54.5253   30.8621 C   0  0  0  0  0  0
    0.1551   53.3977   31.4552 C   0  0  0  0  0  0
   -0.0954   52.2627   30.6917 C   0  0  0  0  0  0
    0.2465   52.2346   29.3459 C   0  0  0  0  0  0
    0.8515   53.3434   28.7415 C   0  0  0  0  0  0
    1.1846   53.2003   27.2920 C   0  0  0  0  0  0
    2.2231   53.6963   26.6500 N   0  0  0  0  0  0
    2.0143   53.3181   25.3550 C   0  0  0  0  0  0
    2.7668   53.5465   24.1960 C   0  0  0  0  0  0
    2.2940   53.0226   22.9860 C   0  0  0  0  0  0
    1.0620   52.3463   22.9233 C   0  0  0  0  0  0
    0.3010   52.0985   24.0675 C   0  0  0  0  0  0
    0.8197   52.5888   25.2666 C   0  0  0  0  0  0
    0.2998   52.4975   26.5165 O   0  0  0  0  0  0
    3.1175   53.2356   21.8687 N   0  0  0  0  0  0
    3.4766   52.4368   20.8089 C   0  0  0  0  0  0
    2.8853   50.9121   20.4845 S   0  0  0  0  0  0
    4.4477   52.9010   19.9565 N   0  0  0  0  0  0
    5.2118   54.0262   20.0122 C   0  0  0  0  0  0
    5.1045   54.8966   20.8836 O   0  0  0  0  0  0
    6.2881   54.1710   18.9549 C   0  0  0  0  0  0
    6.3880   53.2975   17.8602 C   0  0  0  0  0  0
    7.4271   53.4198   16.9400 C   0  0  0  0  0  0
    8.3870   54.4360   17.0720 C   0  0  0  0  0  0
    8.2715   55.3267   18.1440 C   0  0  0  0  0  0
    7.2412   55.1938   19.0706 C   0  0  0  0  0  0
    9.5180   56.7494   18.3748 Br  0  0  0  0  0  0
    9.4459   54.6178   16.2025 O   0  0  0  0  0  0
    9.6249   53.7083   15.1226 C   0  0  0  0  0  0
    1.7701   56.5781   29.6441 H   0  0  0  0  0  0
    2.7225   55.5483   28.5697 H   0  0  0  0  0  0
    1.1226   56.0954   28.0817 H   0  0  0  0  0  0
    0.8660   55.4096   31.4608 H   0  0  0  0  0  0
   -0.1023   53.3991   32.5040 H   0  0  0  0  0  0
   -0.5549   51.3984   31.1531 H   0  0  0  0  0  0
    0.0467   51.3340   28.7809 H   0  0  0  0  0  0
    3.6983   54.0899   24.2511 H   0  0  0  0  0  0
    0.6832   51.9968   21.9734 H   0  0  0  0  0  0
   -0.6337   51.5613   24.0314 H   0  0  0  0  0  0
    3.6279   54.1073   21.9115 H   0  0  0  0  0  0
    4.6705   52.2667   19.1992 H   0  0  0  0  0  0
    5.6772   52.4974   17.7078 H   0  0  0  0  0  0
    7.4726   52.7095   16.1302 H   0  0  0  0  0  0
    7.2001   55.8938   19.8926 H   0  0  0  0  0  0
   10.4998   54.0042   14.5437 H   0  0  0  0  0  0
    8.7679   53.7119   14.4461 H   0  0  0  0  0  0
    9.7953   52.6909   15.4815 H   0  0  0  0  0  0
  1  2  1  0  0  0
  1 32  1  0  0  0
  1 33  1  0  0  0
  1 34  1  0  0  0
  2  7  2  0  0  0
  2  3  1  0  0  0
  3  4  2  0  0  0
  3 35  1  0  0  0
  4  5  1  0  0  0
  4 36  1  0  0  0
  5  6  2  0  0  0
  5 37  1  0  0  0
  6  7  1  0  0  0
  6 38  1  0  0  0
  7  8  1  0  0  0
  8 16  1  0  0  0
  8  9  2  0  0  0
  9 10  1  0  0  0
 10 15  2  0  0  0
 10 11  1  0  0  0
 11 12  2  0  0  0
 11 39  1  0  0  0
 12 13  1  0  0  0
 12 17  1  0  0  0
 13 14  2  0  0  0
 13 40  1  0  0  0
 14 15  1  0  0  0
 14 41  1  0  0  0
 15 16  1  0  0  0
 17 18  1  0  0  0
 17 42  1  0  0  0
 18 19  2  0  0  0
 18 20  1  0  0  0
 20 21  1  0  0  0
 20 43  1  0  0  0
 21 22  2  0  0  0
 21 23  1  0  0  0
 23 28  2  0  0  0
 23 24  1  0  0  0
 24 25  2  0  0  0
 24 44  1  0  0  0
 25 26  1  0  0  0
 25 45  1  0  0  0
 26 27  2  0  0  0
 26 30  1  0  0  0
 27 28  1  0  0  0
 27 29  1  0  0  0
 28 46  1  0  0  0
 30 31  1  0  0  0
 31 47  1  0  0  0
 31 48  1  0  0  0
 31 49  1  0  0  0
M  END
> <i_i_glide_confnum>
83

> <i_i_glide_lignum>
6085

> <i_i_glide_posenum>
309

> <i_i_glide_rotatable_bonds>
7

> <i_m_Source_File_Index>
1370

> <b_m_subgroup_collapsed>
0

> <r_i_docking_score>
-4.19565

> <r_i_glide_ecoul>
-3.04853

> <r_i_glide_eff_state_penalty>
0

> <r_i_glide_einternal>
5.6467

> <r_i_glide_emodel>
-51.9488

> <r_i_glide_energy>
-42.4027

> <r_i_glide_erotb>
0.496574

> <r_i_glide_esite>
-0.0709809

> <r_i_glide_evdw>
-39.3542

> <r_i_glide_gscore>
-4.19565

> <r_i_glide_hbond>
-0.0568927

> <r_i_glide_ligand_efficiency>
-0.135344

> <r_i_glide_ligand_efficiency_ln>
-0.946249

> <r_i_glide_ligand_efficiency_sa>
-0.425166

> <r_i_glide_lipo>
-2.28591

> <r_i_glide_metal>
0

> <r_i_glide_rewards>
0.146548

> <s_i_glide_gridfile>
wee1_glide-grid

> <s_m_Source_File>
wee1_decoys_glide_SP.sdf

> <s_m_Source_Path>
/Users/zhangxujun/Desktop

> <s_m_entry_id>
1645

> <s_m_entry_name>
wee1_decoys_glide_SP.1370

> <s_m_subgroup_title>
wee1_decoys_glide_SP

> <s_m_subgroupid>
wee1_decoys_glide_SP


$$$$
