ZINC21228568_2304
                    3D
 Schrodinger Suite 2024-2.
 61 64  0  0  1  0            999 V2000
    1.5966   53.8480   29.4539 C   0  0  0  0  0  0
    2.2277   54.0890   28.0705 C   0  0  2  0  0  0
    1.9597   55.1074   27.7823 H   0  0  0  0  0  0
    1.7088   53.0800   27.0252 C   0  0  0  0  0  0
    2.1401   53.4499   25.5883 C   0  0  0  0  0  0
    3.6131   53.8696   25.5762 C   0  0  0  0  0  0
    4.3409   54.1049   26.7476 C   0  0  0  0  0  0
    6.0227   54.4996   26.4708 S   0  0  0  0  0  0
    5.7470   54.4856   24.7438 C   0  0  0  0  0  0
    4.4087   54.1204   24.4088 C   0  0  0  0  0  0
    4.1323   54.0976   23.0192 C   0  0  0  0  0  0
    5.0752   54.4275   22.1020 N   0  0  0  0  0  0
    6.3013   54.7743   22.5639 C   0  0  0  0  0  0
    6.6992   54.7947   23.8606 N   0  0  0  0  0  0
    7.5012   55.3237   21.3929 S   0  0  0  0  0  0
    6.7151   55.6255   19.7741 C   0  0  0  0  0  0
    7.1022   54.6318   18.6601 C   0  0  0  0  0  0
    6.2064   53.8708   18.3030 O   0  0  0  0  0  0
    8.3510   54.6420   18.0889 N   0  0  0  0  0  0
    9.3629   55.6381   18.5231 C   0  0  0  0  0  0
    9.6048   56.8441   17.5822 C   0  0  0  0  0  0
    8.3663   57.7361   17.3749 C   0  0  0  0  0  0
   10.7858   57.6735   18.1199 C   0  0  0  0  0  0
    8.7152   53.8331   16.8704 C   0  0  1  0  0  0
    8.4848   54.4250   15.9824 H   0  0  0  0  0  0
   10.2402   53.5034   16.7726 C   0  0  0  0  0  0
   10.5094   52.5945   15.5692 C   0  0  0  0  0  0
    9.1023   51.3795   15.6037 S   0  0  0  0  0  0
    9.5064   50.1642   16.3155 O   0  0  0  0  0  0
    8.5130   51.3025   14.2646 O   0  0  0  0  0  0
    8.0322   52.4390   16.7214 C   0  0  0  0  0  0
    2.8740   53.7775   22.5108 N   0  0  0  0  0  0
    3.7692   53.9824   28.1559 C   0  0  0  0  0  0
    1.8381   52.8575   29.8416 H   0  0  0  0  0  0
    1.9431   54.5874   30.1769 H   0  0  0  0  0  0
    0.5095   53.9281   29.4100 H   0  0  0  0  0  0
    2.0143   52.0675   27.2949 H   0  0  0  0  0  0
    0.6187   53.0443   27.0606 H   0  0  0  0  0  0
    1.5138   54.2527   25.1999 H   0  0  0  0  0  0
    1.9755   52.5901   24.9386 H   0  0  0  0  0  0
    6.9558   56.6347   19.4523 H   0  0  0  0  0  0
    5.6307   55.6380   19.8790 H   0  0  0  0  0  0
    9.1541   56.0372   19.5115 H   0  0  0  0  0  0
   10.3044   55.1124   18.6737 H   0  0  0  0  0  0
    9.8968   56.4680   16.6011 H   0  0  0  0  0  0
    8.0636   58.2302   18.2993 H   0  0  0  0  0  0
    8.5671   58.5204   16.6439 H   0  0  0  0  0  0
    7.5168   57.1644   16.9998 H   0  0  0  0  0  0
   10.6223   57.9807   19.1591 H   0  0  0  0  0  0
   11.7087   57.0912   18.0913 H   0  0  0  0  0  0
   10.9530   58.5705   17.5230 H   0  0  0  0  0  0
   10.5699   53.0114   17.6888 H   0  0  0  0  0  0
   10.8552   54.3991   16.6887 H   0  0  0  0  0  0
   11.4654   52.0753   15.5101 H   0  0  0  0  0  0
   10.3897   53.1870   14.6622 H   0  0  0  0  0  0
    6.9703   52.3710   16.4906 H   0  0  0  0  0  0
    8.1428   51.9395   17.6810 H   0  0  0  0  0  0
    2.1229   53.5329   23.1388 H   0  0  0  0  0  0
    2.7221   53.8258   21.5104 H   0  0  0  0  0  0
    4.0616   53.0213   28.5817 H   0  0  0  0  0  0
    4.1736   54.7570   28.8091 H   0  0  0  0  0  0
  1  2  1  0  0  0
  1 34  1  0  0  0
  1 35  1  0  0  0
  1 36  1  0  0  0
  2  3  1  0  0  0
  2 33  1  0  0  0
  2  4  1  0  0  0
  4  5  1  0  0  0
  4 37  1  0  0  0
  4 38  1  0  0  0
  5  6  1  0  0  0
  5 39  1  0  0  0
  5 40  1  0  0  0
  6 10  1  0  0  0
  6  7  2  0  0  0
  7  8  1  0  0  0
  7 33  1  0  0  0
  8  9  1  0  0  0
  9 14  2  0  0  0
  9 10  1  0  0  0
 10 11  2  0  0  0
 11 12  1  0  0  0
 11 32  1  0  0  0
 12 13  2  0  0  0
 13 14  1  0  0  0
 13 15  1  0  0  0
 15 16  1  0  0  0
 16 17  1  0  0  0
 16 41  1  0  0  0
 16 42  1  0  0  0
 17 18  2  0  0  0
 17 19  1  0  0  0
 19 20  1  0  0  0
 19 24  1  0  0  0
 20 21  1  0  0  0
 20 43  1  0  0  0
 20 44  1  0  0  0
 21 22  1  0  0  0
 21 23  1  0  0  0
 21 45  1  0  0  0
 22 46  1  0  0  0
 22 47  1  0  0  0
 22 48  1  0  0  0
 23 49  1  0  0  0
 23 50  1  0  0  0
 23 51  1  0  0  0
 24 25  1  0  0  0
 24 31  1  0  0  0
 24 26  1  0  0  0
 26 27  1  0  0  0
 26 52  1  0  0  0
 26 53  1  0  0  0
 27 28  1  0  0  0
 27 54  1  0  0  0
 27 55  1  0  0  0
 28 29  2  0  0  0
 28 30  2  0  0  0
 28 31  1  0  0  0
 31 56  1  0  0  0
 31 57  1  0  0  0
 32 58  1  0  0  0
 32 59  1  0  0  0
 33 60  1  0  0  0
 33 61  1  0  0  0
M  END
> <i_i_glide_confnum>
105

> <i_i_glide_lignum>
2305

> <i_i_glide_posenum>
194

> <i_i_glide_rotatable_bonds>
7

> <i_m_Source_File_Index>
1735

> <b_m_subgroup_collapsed>
0

> <r_i_docking_score>
-5.50055

> <r_i_glide_ecoul>
-0.472602

> <r_i_glide_eff_state_penalty>
0

> <r_i_glide_einternal>
9.33614

> <r_i_glide_emodel>
-53.3084

> <r_i_glide_energy>
-43.9947

> <r_i_glide_erotb>
0.435549

> <r_i_glide_esite>
0

> <r_i_glide_evdw>
-43.5221

> <r_i_glide_gscore>
-5.50055

> <r_i_glide_hbond>
-0.0244575

> <r_i_glide_ligand_efficiency>
-0.177437

> <r_i_glide_ligand_efficiency_ln>
-1.24054

> <r_i_glide_ligand_efficiency_sa>
-0.557397

> <r_i_glide_lipo>
-2.74581

> <r_i_glide_metal>
0

> <r_i_glide_rewards>
-0.918834

> <s_i_glide_gridfile>
wee1_glide-grid

> <s_m_Source_File>
wee1_decoys_glide_SP.sdf

> <s_m_Source_Path>
/Users/zhangxujun/Desktop

> <s_m_entry_id>
2010

> <s_m_entry_name>
wee1_decoys_glide_SP.1735

> <s_m_subgroup_title>
wee1_decoys_glide_SP

> <s_m_subgroupid>
wee1_decoys_glide_SP


$$$$
