ZINC39836247_2479
                    3D
 Schrodinger Suite 2024-2.
 60 63  0  0  1  0            999 V2000
    0.5563   51.6495   28.6137 C   0  0  0  0  0  0
    1.2414   52.9832   28.8408 C   0  0  0  0  0  0
    0.6505   53.9394   29.6685 C   0  0  0  0  0  0
    1.2589   55.1790   29.8469 C   0  0  0  0  0  0
    2.4613   55.4595   29.2037 C   0  0  0  0  0  0
    3.0850   54.5104   28.3898 C   0  0  0  0  0  0
    2.4532   53.2677   28.2040 C   0  0  0  0  0  0
    4.2807   54.8966   27.8137 O   0  0  0  0  0  0
    5.1846   53.9389   27.2514 C   0  0  0  0  0  0
    5.7173   54.4925   25.9251 C   0  0  0  0  0  0
    6.7042   55.2344   25.9467 O   0  0  0  0  0  0
    5.0454   54.0980   24.8163 N   0  0  0  0  0  0
    5.3123   54.3769   23.4703 C   0  0  0  0  0  0
    4.5573   53.9545   22.3488 C   0  0  0  0  0  0
    5.1327   54.4186   21.1205 C   0  0  0  0  0  0
    6.3047   55.1628   21.3282 C   0  0  0  0  0  0
    6.7053   55.2966   22.9925 S   0  0  0  0  0  0
    7.1378   55.8495   20.2525 C   0  0  0  0  0  0
    6.7719   55.2510   18.8768 C   0  0  1  0  0  0
    7.1768   54.2378   18.8104 H   0  0  0  0  0  0
    5.2394   55.2364   18.7220 C   0  0  0  0  0  0
    4.5829   54.2347   19.6944 C   0  0  0  0  0  0
    7.4410   56.0663   17.7559 C   0  0  0  0  0  0
    3.3142   53.2014   22.4818 C   0  0  0  0  0  0
    2.7009   53.1565   23.5507 O   0  0  0  0  0  0
    2.9307   52.4982   21.4020 N   0  0  0  0  0  0
    1.7966   51.5771   21.3338 C   0  0  2  0  0  0
    1.9274   50.7317   22.0161 H   0  0  0  0  0  0
    1.6996   51.0118   19.8969 C   0  0  0  0  0  0
    0.3683   50.2593   19.7348 C   0  0  0  0  0  0
   -0.8553   51.2300   20.7632 S   0  0  0  0  0  0
   -1.6840   52.0968   19.9179 O   0  0  0  0  0  0
   -1.4835   50.3250   21.7287 O   0  0  0  0  0  0
    0.4473   52.2655   21.6151 C   0  0  0  0  0  0
   -0.5194   51.7161   28.7808 H   0  0  0  0  0  0
    0.9717   50.8977   29.2811 H   0  0  0  0  0  0
    0.6935   51.3095   27.5872 H   0  0  0  0  0  0
   -0.2855   53.7281   30.1646 H   0  0  0  0  0  0
    0.7979   55.9239   30.4794 H   0  0  0  0  0  0
    2.9219   56.4280   29.3396 H   0  0  0  0  0  0
    2.8647   52.5115   27.5573 H   0  0  0  0  0  0
    6.0215   53.8200   27.9409 H   0  0  0  0  0  0
    4.7968   52.9360   27.0894 H   0  0  0  0  0  0
    4.2146   53.5407   24.9563 H   0  0  0  0  0  0
    6.9170   56.9170   20.2597 H   0  0  0  0  0  0
    8.2062   55.7357   20.4466 H   0  0  0  0  0  0
    4.8315   56.2436   18.8302 H   0  0  0  0  0  0
    4.9796   54.9500   17.7022 H   0  0  0  0  0  0
    4.7724   53.2167   19.3486 H   0  0  0  0  0  0
    3.5044   54.3828   19.6575 H   0  0  0  0  0  0
    7.0987   57.1029   17.7502 H   0  0  0  0  0  0
    8.5274   56.0769   17.8698 H   0  0  0  0  0  0
    7.2237   55.6411   16.7759 H   0  0  0  0  0  0
    3.4849   52.5799   20.5620 H   0  0  0  0  0  0
    1.7530   51.8258   19.1696 H   0  0  0  0  0  0
    2.5532   50.3699   19.6637 H   0  0  0  0  0  0
   -0.0041   50.1101   18.7223 H   0  0  0  0  0  0
    0.4713   49.2791   20.2018 H   0  0  0  0  0  0
    0.1954   52.5657   22.6305 H   0  0  0  0  0  0
    0.4659   53.1777   21.0194 H   0  0  0  0  0  0
  1  2  1  0  0  0
  1 35  1  0  0  0
  1 36  1  0  0  0
  1 37  1  0  0  0
  2  7  2  0  0  0
  2  3  1  0  0  0
  3  4  2  0  0  0
  3 38  1  0  0  0
  4  5  1  0  0  0
  4 39  1  0  0  0
  5  6  2  0  0  0
  5 40  1  0  0  0
  6  7  1  0  0  0
  6  8  1  0  0  0
  7 41  1  0  0  0
  8  9  1  0  0  0
  9 10  1  0  0  0
  9 42  1  0  0  0
  9 43  1  0  0  0
 10 11  2  0  0  0
 10 12  1  0  0  0
 12 13  1  0  0  0
 12 44  1  0  0  0
 13 17  1  0  0  0
 13 14  2  0  0  0
 14 15  1  0  0  0
 14 24  1  0  0  0
 15 22  1  0  0  0
 15 16  2  0  0  0
 16 17  1  0  0  0
 16 18  1  0  0  0
 18 19  1  0  0  0
 18 45  1  0  0  0
 18 46  1  0  0  0
 19 20  1  0  0  0
 19 21  1  0  0  0
 19 23  1  0  0  0
 21 22  1  0  0  0
 21 47  1  0  0  0
 21 48  1  0  0  0
 22 49  1  0  0  0
 22 50  1  0  0  0
 23 51  1  0  0  0
 23 52  1  0  0  0
 23 53  1  0  0  0
 24 25  2  0  0  0
 24 26  1  0  0  0
 26 27  1  0  0  0
 26 54  1  0  0  0
 27 28  1  0  0  0
 27 34  1  0  0  0
 27 29  1  0  0  0
 29 30  1  0  0  0
 29 55  1  0  0  0
 29 56  1  0  0  0
 30 31  1  0  0  0
 30 57  1  0  0  0
 30 58  1  0  0  0
 31 32  2  0  0  0
 31 33  2  0  0  0
 31 34  1  0  0  0
 34 59  1  0  0  0
 34 60  1  0  0  0
M  END
> <i_i_glide_confnum>
450

> <i_i_glide_lignum>
2480

> <i_i_glide_posenum>
349

> <i_i_glide_rotatable_bonds>
8

> <i_m_Source_File_Index>
1817

> <b_m_subgroup_collapsed>
0

> <r_i_docking_score>
-6.77745

> <r_i_glide_ecoul>
-7.50218

> <r_i_glide_eff_state_penalty>
0

> <r_i_glide_einternal>
9.44709

> <r_i_glide_emodel>
-72.1118

> <r_i_glide_energy>
-53.9194

> <r_i_glide_erotb>
0.713197

> <r_i_glide_esite>
-0.0391457

> <r_i_glide_evdw>
-46.4172

> <r_i_glide_gscore>
-6.77745

> <r_i_glide_hbond>
-0.32

> <r_i_glide_ligand_efficiency>
-0.211795

> <r_i_glide_ligand_efficiency_ln>
-1.51765

> <r_i_glide_ligand_efficiency_sa>
-0.672408

> <r_i_glide_lipo>
-2.98893

> <r_i_glide_metal>
0

> <r_i_glide_rewards>
-0.696377

> <s_i_glide_gridfile>
wee1_glide-grid

> <s_m_Source_File>
wee1_decoys_glide_SP.sdf

> <s_m_Source_Path>
/Users/zhangxujun/Desktop

> <s_m_entry_id>
2092

> <s_m_entry_name>
wee1_decoys_glide_SP.1817

> <s_m_subgroup_title>
wee1_decoys_glide_SP

> <s_m_subgroupid>
wee1_decoys_glide_SP


$$$$
