ZINC20459080_5487
                    3D
 Schrodinger Suite 2024-2.
 58 61  0  0  1  0            999 V2000
    2.3303   52.0848   18.1043 C   0  0  0  0  0  0
    2.9932   52.4610   19.4319 C   0  0  0  0  0  0
    2.2003   51.9881   20.5148 O   0  0  0  0  0  0
    2.6318   52.1258   21.7958 C   0  0  0  0  0  0
    3.6942   52.6869   22.0807 O   0  0  0  0  0  0
    1.7072   51.5438   22.8172 C   0  0  0  0  0  0
    1.5774   52.1286   24.0401 C   0  0  0  0  0  0
    0.6886   51.7240   24.9987 N   0  0  0  0  0  0
    0.6863   52.3399   26.2081 C   0  0  0  0  0  0
   -0.1222   52.0779   27.0964 O   0  0  0  0  0  0
    1.7385   53.3289   26.2829 C   0  0  0  0  0  0
    2.0887   54.0411   27.3831 C   0  0  0  0  0  0
    1.5613   54.0188   28.7714 C   0  0  0  0  0  0
    1.1849   52.8356   29.4242 C   0  0  0  0  0  0
    0.5317   52.8761   30.6548 C   0  0  0  0  0  0
    0.3070   54.0975   31.2838 C   0  0  0  0  0  0
    0.7762   55.2718   30.6976 C   0  0  0  0  0  0
    1.3866   55.2367   29.4449 C   0  0  0  0  0  0
    1.7913   56.4016   28.8834 F   0  0  0  0  0  0
    2.4501   53.5358   24.6877 S   0  0  0  0  0  0
   -0.3262   50.6522   24.7341 C   0  0  2  0  0  0
   -0.2199   49.9496   25.5651 H   0  0  0  0  0  0
    0.0041   49.8854   23.4216 C   0  0  0  0  0  0
    0.9219   50.3276   22.5066 C   0  0  0  0  0  0
    1.2242   49.5726   21.3904 N   0  0  0  0  0  0
   -0.8459   48.6839   23.1852 C   0  0  0  0  0  0
   -1.1532   48.2718   22.0629 O   0  0  0  0  0  0
   -1.2557   48.0835   24.3298 O   0  0  0  0  0  0
   -2.1057   46.9485   24.2974 C   0  0  0  0  0  0
   -2.5269   46.5905   25.7256 C   0  0  0  0  0  0
   -1.7721   51.1870   24.8213 C   0  0  0  0  0  0
   -2.6647   50.5911   25.7225 C   0  0  0  0  0  0
   -3.9633   51.0819   25.8671 C   0  0  0  0  0  0
   -4.3781   52.1832   25.1166 C   0  0  0  0  0  0
   -3.4908   52.7919   24.2279 C   0  0  0  0  0  0
   -2.1969   52.2921   24.0707 C   0  0  0  0  0  0
   -1.3589   52.8926   23.1987 F   0  0  0  0  0  0
    2.9412   52.4248   17.2675 H   0  0  0  0  0  0
    2.2237   51.0037   18.0123 H   0  0  0  0  0  0
    1.3470   52.5408   18.0120 H   0  0  0  0  0  0
    3.1089   53.5436   19.5031 H   0  0  0  0  0  0
    3.9913   52.0215   19.4804 H   0  0  0  0  0  0
    2.8908   54.7529   27.2426 H   0  0  0  0  0  0
    1.3408   51.8752   28.9496 H   0  0  0  0  0  0
    0.1911   51.9635   31.1232 H   0  0  0  0  0  0
   -0.1750   54.1192   32.2508 H   0  0  0  0  0  0
    0.6973   56.2182   31.2131 H   0  0  0  0  0  0
    1.8869   49.9099   20.7033 H   0  0  0  0  0  0
    0.6369   48.7912   21.1335 H   0  0  0  0  0  0
   -2.9908   47.1590   23.6910 H   0  0  0  0  0  0
   -1.5826   46.1096   23.8359 H   0  0  0  0  0  0
   -3.1787   45.7150   25.7404 H   0  0  0  0  0  0
   -1.6676   46.3802   26.3595 H   0  0  0  0  0  0
   -3.0773   47.4138   26.1877 H   0  0  0  0  0  0
   -2.3504   49.7548   26.3352 H   0  0  0  0  0  0
   -4.6421   50.6162   26.5687 H   0  0  0  0  0  0
   -5.3808   52.5686   25.2297 H   0  0  0  0  0  0
   -3.8063   53.6583   23.6688 H   0  0  0  0  0  0
  1  2  1  0  0  0
  1 38  1  0  0  0
  1 39  1  0  0  0
  1 40  1  0  0  0
  2  3  1  0  0  0
  2 41  1  0  0  0
  2 42  1  0  0  0
  3  4  1  0  0  0
  4  5  2  0  0  0
  4  6  1  0  0  0
  6 24  1  0  0  0
  6  7  2  0  0  0
  7 20  1  0  0  0
  7  8  1  0  0  0
  8  9  1  0  0  0
  8 21  1  0  0  0
  9 10  2  0  0  0
  9 11  1  0  0  0
 11 12  2  0  0  0
 11 20  1  0  0  0
 12 13  1  0  0  0
 12 43  1  0  0  0
 13 18  2  0  0  0
 13 14  1  0  0  0
 14 15  2  0  0  0
 14 44  1  0  0  0
 15 16  1  0  0  0
 15 45  1  0  0  0
 16 17  2  0  0  0
 16 46  1  0  0  0
 17 18  1  0  0  0
 17 47  1  0  0  0
 18 19  1  0  0  0
 21 22  1  0  0  0
 21 23  1  0  0  0
 21 31  1  0  0  0
 23 24  2  0  0  0
 23 26  1  0  0  0
 24 25  1  0  0  0
 25 48  1  0  0  0
 25 49  1  0  0  0
 26 27  2  0  0  0
 26 28  1  0  0  0
 28 29  1  0  0  0
 29 30  1  0  0  0
 29 50  1  0  0  0
 29 51  1  0  0  0
 30 52  1  0  0  0
 30 53  1  0  0  0
 30 54  1  0  0  0
 31 36  2  0  0  0
 31 32  1  0  0  0
 32 33  2  0  0  0
 32 55  1  0  0  0
 33 34  1  0  0  0
 33 56  1  0  0  0
 34 35  2  0  0  0
 34 57  1  0  0  0
 35 36  1  0  0  0
 35 58  1  0  0  0
 36 37  1  0  0  0
M  END
> <i_i_glide_confnum>
14

> <i_i_glide_lignum>
5488

> <i_i_glide_posenum>
312

> <i_i_glide_rotatable_bonds>
8

> <i_m_Source_File_Index>
2540

> <b_m_subgroup_collapsed>
0

> <r_i_docking_score>
-4.97085

> <r_i_glide_ecoul>
-2.55128

> <r_i_glide_eff_state_penalty>
0

> <r_i_glide_einternal>
2.45788

> <r_i_glide_emodel>
-59.4898

> <r_i_glide_energy>
-46.4777

> <r_i_glide_erotb>
0.390207

> <r_i_glide_esite>
-0.00695636

> <r_i_glide_evdw>
-43.9264

> <r_i_glide_gscore>
-4.97085

> <r_i_glide_hbond>
0

> <r_i_glide_ligand_efficiency>
-0.138079

> <r_i_glide_ligand_efficiency_ln>
-1.0845

> <r_i_glide_ligand_efficiency_sa>
-0.455927

> <r_i_glide_lipo>
-2.15995

> <r_i_glide_metal>
0

> <r_i_glide_rewards>
-0.615139

> <s_i_glide_gridfile>
wee1_glide-grid

> <s_m_Source_File>
wee1_decoys_glide_SP.sdf

> <s_m_Source_Path>
/Users/zhangxujun/Desktop

> <s_m_entry_id>
2815

> <s_m_entry_name>
wee1_decoys_glide_SP.2540

> <s_m_subgroup_title>
wee1_decoys_glide_SP

> <s_m_subgroupid>
wee1_decoys_glide_SP


$$$$
