ZINC15874291_3718
                    3D
 Schrodinger Suite 2024-2.
 59 61  0  0  1  0            999 V2000
    3.0863   53.8372   22.7604 C   0  0  0  0  0  0
    3.9025   54.0956   21.6613 C   0  0  0  0  0  0
    3.8697   53.2575   20.5403 C   0  0  0  0  0  0
    3.0363   52.1296   20.5611 C   0  0  0  0  0  0
    2.2222   51.8605   21.6694 C   0  0  0  0  0  0
    2.2479   52.7245   22.7684 C   0  0  0  0  0  0
    1.1607   50.4125   21.6073 S   0  0  0  0  0  0
    0.2878   50.6131   20.4449 O   0  0  0  0  0  0
    2.0655   49.2593   21.6816 O   0  0  0  0  0  0
    0.1275   50.3915   23.0580 N   0  0  0  0  0  0
   -0.9863   51.3677   23.1621 C   0  0  0  0  0  0
   -2.1158   50.7814   24.0419 C   0  0  0  0  0  0
   -1.6325   50.1960   25.4067 C   0  0  0  0  0  0
   -0.3635   49.3083   25.2318 C   0  0  0  0  0  0
    0.7168   49.9644   24.3497 C   0  0  0  0  0  0
   -1.3497   51.3133   26.4499 C   0  0  0  0  0  0
   -1.5532   52.4967   26.1712 O   0  0  0  0  0  0
   -0.9773   50.8969   27.6818 N   0  0  0  0  0  0
   -0.7945   51.7979   28.7474 N   0  0  0  0  0  0
    0.2831   52.6322   28.8769 C   0  0  0  0  0  0
    0.3294   53.5900   30.2408 S   0  0  0  0  0  0
    1.2310   52.6077   27.8854 N   0  0  0  0  0  0
    2.4432   53.4420   27.8236 C   0  0  0  0  0  0
    3.5886   53.0135   28.7806 C   0  0  0  0  0  0
    4.8548   53.8769   28.6425 C   0  0  0  0  0  0
    5.3523   53.9427   27.1923 C   0  0  0  0  0  0
    4.2516   54.4552   26.2528 C   0  0  0  0  0  0
    2.9405   53.6488   26.3719 C   0  0  0  0  0  0
    4.6771   53.6016   19.2861 C   0  0  0  0  0  0
    3.9901   53.2959   18.1845 F   0  0  0  0  0  0
    5.8207   52.9215   19.2817 F   0  0  0  0  0  0
    4.9686   54.9036   19.2390 F   0  0  0  0  0  0
    3.0877   54.5175   23.5973 H   0  0  0  0  0  0
    4.5354   54.9700   21.6705 H   0  0  0  0  0  0
    3.0059   51.4709   19.7014 H   0  0  0  0  0  0
    1.6248   52.5571   23.6304 H   0  0  0  0  0  0
   -0.6188   52.2616   23.6653 H   0  0  0  0  0  0
   -1.3444   51.6365   22.1684 H   0  0  0  0  0  0
   -2.9426   51.4789   24.1895 H   0  0  0  0  0  0
   -2.6481   49.9909   23.5108 H   0  0  0  0  0  0
   -2.3945   49.6004   25.9152 H   0  0  0  0  0  0
   -0.6754   48.3447   24.8245 H   0  0  0  0  0  0
    0.0291   48.9590   26.1901 H   0  0  0  0  0  0
    1.5581   49.2967   24.1723 H   0  0  0  0  0  0
    1.0768   50.8448   24.8789 H   0  0  0  0  0  0
   -0.9378   49.9188   27.9644 H   0  0  0  0  0  0
   -1.1556   51.3908   29.6002 H   0  0  0  0  0  0
    1.0591   52.0064   27.0947 H   0  0  0  0  0  0
    2.1515   54.4455   28.1398 H   0  0  0  0  0  0
    3.2599   53.0413   29.8189 H   0  0  0  0  0  0
    3.8581   51.9791   28.5701 H   0  0  0  0  0  0
    4.6531   54.8851   29.0076 H   0  0  0  0  0  0
    5.6397   53.4752   29.2816 H   0  0  0  0  0  0
    6.2306   54.5868   27.1293 H   0  0  0  0  0  0
    5.6755   52.9498   26.8737 H   0  0  0  0  0  0
    4.0478   55.4999   26.4755 H   0  0  0  0  0  0
    4.6185   54.4329   25.2273 H   0  0  0  0  0  0
    3.1199   52.6720   25.9237 H   0  0  0  0  0  0
    2.1598   54.1207   25.7755 H   0  0  0  0  0  0
  1  6  2  0  0  0
  1  2  1  0  0  0
  1 33  1  0  0  0
  2  3  2  0  0  0
  2 34  1  0  0  0
  3  4  1  0  0  0
  3 29  1  0  0  0
  4  5  2  0  0  0
  4 35  1  0  0  0
  5  6  1  0  0  0
  5  7  1  0  0  0
  6 36  1  0  0  0
  7  8  2  0  0  0
  7  9  2  0  0  0
  7 10  1  0  0  0
 10 15  1  0  0  0
 10 11  1  0  0  0
 11 12  1  0  0  0
 11 37  1  0  0  0
 11 38  1  0  0  0
 12 13  1  0  0  0
 12 39  1  0  0  0
 12 40  1  0  0  0
 13 14  1  0  0  0
 13 16  1  0  0  0
 13 41  1  0  0  0
 14 15  1  0  0  0
 14 42  1  0  0  0
 14 43  1  0  0  0
 15 44  1  0  0  0
 15 45  1  0  0  0
 16 17  2  0  0  0
 16 18  1  0  0  0
 18 19  1  0  0  0
 18 46  1  0  0  0
 19 20  1  0  0  0
 19 47  1  0  0  0
 20 21  2  0  0  0
 20 22  1  0  0  0
 22 23  1  0  0  0
 22 48  1  0  0  0
 23 28  1  0  0  0
 23 24  1  0  0  0
 23 49  1  0  0  0
 24 25  1  0  0  0
 24 50  1  0  0  0
 24 51  1  0  0  0
 25 26  1  0  0  0
 25 52  1  0  0  0
 25 53  1  0  0  0
 26 27  1  0  0  0
 26 54  1  0  0  0
 26 55  1  0  0  0
 27 28  1  0  0  0
 27 56  1  0  0  0
 27 57  1  0  0  0
 28 58  1  0  0  0
 28 59  1  0  0  0
 29 30  1  0  0  0
 29 31  1  0  0  0
 29 32  1  0  0  0
M  END
> <i_i_glide_confnum>
281

> <i_i_glide_lignum>
3719

> <i_i_glide_posenum>
225

> <i_i_glide_rotatable_bonds>
9

> <i_m_Source_File_Index>
900

> <b_m_subgroup_collapsed>
0

> <r_i_docking_score>
-2.95033

> <r_i_glide_ecoul>
-5.03515

> <r_i_glide_eff_state_penalty>
0

> <r_i_glide_einternal>
5.08882

> <r_i_glide_emodel>
-49.1656

> <r_i_glide_energy>
-48.9168

> <r_i_glide_erotb>
0.587543

> <r_i_glide_esite>
-0.336748

> <r_i_glide_evdw>
-43.8817

> <r_i_glide_gscore>
-2.95033

> <r_i_glide_hbond>
-0.16

> <r_i_glide_ligand_efficiency>
-0.0921978

> <r_i_glide_ligand_efficiency_ln>
-0.660659

> <r_i_glide_ligand_efficiency_sa>
-0.29271

> <r_i_glide_lipo>
-1.83376

> <r_i_glide_metal>
0

> <r_i_glide_rewards>
1.74199

> <s_i_glide_gridfile>
wee1_glide-grid

> <s_m_Source_File>
wee1_decoys_glide_SP.sdf

> <s_m_Source_Path>
/Users/zhangxujun/Desktop

> <s_m_entry_id>
1175

> <s_m_entry_name>
wee1_decoys_glide_SP.900

> <s_m_subgroup_title>
wee1_decoys_glide_SP

> <s_m_subgroupid>
wee1_decoys_glide_SP


$$$$
