ZINC63301860_6211
                    3D
 Schrodinger Suite 2024-2.
 58 59  0  0  1  0            999 V2000
   -5.0328   49.4748   30.8096 C   0  0  0  0  0  0
   -5.5891   48.1962   30.1437 C   0  0  0  0  0  0
   -6.1015   47.2131   31.2227 C   0  0  0  0  0  0
   -6.7757   48.6171   29.2396 C   0  0  0  0  0  0
   -4.4957   47.6043   29.3583 N   0  0  0  0  0  0
   -4.5736   46.6285   28.4351 C   0  0  0  0  0  0
   -5.3822   45.6969   28.4812 O   0  0  0  0  0  0
   -3.6955   46.8835   27.4478 N   0  0  0  0  0  0
   -3.5600   46.2811   26.2407 C   0  0  0  0  0  0
   -4.1995   45.2963   25.8687 O   0  0  0  0  0  0
   -2.5158   46.8363   25.2400 C   0  0  0  0  0  0
   -1.8621   48.1753   25.6817 N   0  3  1  0  0  0
   -0.5208   48.4079   24.9530 C   0  0  0  0  0  0
    0.1665   49.6123   25.6183 C   0  0  0  0  0  0
   -0.7302   50.8790   25.5473 C   0  0  1  0  0  0
   -2.1598   50.6158   26.1041 C   0  0  0  0  0  0
   -2.8044   49.3810   25.4480 C   0  0  0  0  0  0
   -0.0475   52.0529   26.2958 C   0  0  0  0  0  0
   -0.6169   52.6111   27.2326 O   0  0  0  0  0  0
    1.1741   52.4164   25.8619 N   0  0  0  0  0  0
    2.0457   53.4599   26.4184 C   0  0  0  0  0  0
    2.7571   53.1041   27.7444 C   0  0  0  0  0  0
    1.8639   53.2394   28.9586 C   0  0  0  0  0  0
    1.1776   52.2473   29.6548 C   0  0  0  0  0  0
    0.3590   52.7236   30.6798 C   0  0  0  0  0  0
    0.4370   54.0960   30.8220 C   0  0  0  0  0  0
    1.5039   54.7986   29.6537 S   0  0  0  0  0  0
   -5.7423   49.9090   31.5153 H   0  0  0  0  0  0
   -4.8076   50.2423   30.0682 H   0  0  0  0  0  0
   -4.1018   49.2968   31.3469 H   0  0  0  0  0  0
   -6.6019   46.3526   30.7776 H   0  0  0  0  0  0
   -5.2957   46.8247   31.8420 H   0  0  0  0  0  0
   -6.8218   47.6887   31.8891 H   0  0  0  0  0  0
   -7.2396   47.7586   28.7523 H   0  0  0  0  0  0
   -7.5568   49.1172   29.8137 H   0  0  0  0  0  0
   -6.4593   49.3043   28.4540 H   0  0  0  0  0  0
   -3.5905   48.0436   29.4978 H   0  0  0  0  0  0
   -3.0447   47.6290   27.6615 H   0  0  0  0  0  0
   -1.7009   46.1177   25.1525 H   0  0  0  0  0  0
   -2.9374   47.0010   24.2471 H   0  0  0  0  0  0
    0.0910   47.5184   25.0951 H   0  0  0  0  0  0
   -0.7256   48.5450   23.8895 H   0  0  0  0  0  0
    0.3438   49.3123   26.6541 H   0  0  0  0  0  0
    1.1046   49.7489   25.0804 H   0  0  0  0  0  0
   -0.8055   51.2171   24.5121 H   0  0  0  0  0  0
   -2.8215   51.4611   25.9087 H   0  0  0  0  0  0
   -2.1237   50.3904   27.1734 H   0  0  0  0  0  0
   -2.9618   49.4896   24.3737 H   0  0  0  0  0  0
   -3.7557   49.1618   25.9349 H   0  0  0  0  0  0
    1.5450   51.9257   25.0628 H   0  0  0  0  0  0
    2.8069   53.6727   25.6671 H   0  0  0  0  0  0
    1.5044   54.3973   26.5352 H   0  0  0  0  0  0
    3.1661   52.0967   27.6816 H   0  0  0  0  0  0
    3.6287   53.7490   27.8618 H   0  0  0  0  0  0
    1.2319   51.2041   29.3823 H   0  0  0  0  0  0
   -0.2714   52.0858   31.2820 H   0  0  0  0  0  0
   -0.0821   54.7155   31.5380 H   0  0  0  0  0  0
   -1.6562   48.0968   26.6837 H   0  0  0  0  0  0
  1  2  1  0  0  0
  1 28  1  0  0  0
  1 29  1  0  0  0
  1 30  1  0  0  0
  2  3  1  0  0  0
  2  4  1  0  0  0
  2  5  1  0  0  0
  3 31  1  0  0  0
  3 32  1  0  0  0
  3 33  1  0  0  0
  4 34  1  0  0  0
  4 35  1  0  0  0
  4 36  1  0  0  0
  5  6  1  0  0  0
  5 37  1  0  0  0
  6  7  2  0  0  0
  6  8  1  0  0  0
  8  9  1  0  0  0
  8 38  1  0  0  0
  9 10  2  0  0  0
  9 11  1  0  0  0
 11 12  1  0  0  0
 11 39  1  0  0  0
 11 40  1  0  0  0
 12 17  1  0  0  0
 12 13  1  0  0  0
 12 58  1  0  0  0
 13 14  1  0  0  0
 13 41  1  0  0  0
 13 42  1  0  0  0
 14 15  1  0  0  0
 14 43  1  0  0  0
 14 44  1  0  0  0
 15 16  1  0  0  0
 15 18  1  0  0  0
 15 45  1  0  0  0
 16 17  1  0  0  0
 16 46  1  0  0  0
 16 47  1  0  0  0
 17 48  1  0  0  0
 17 49  1  0  0  0
 18 19  2  0  0  0
 18 20  1  0  0  0
 20 21  1  0  0  0
 20 50  1  0  0  0
 21 22  1  0  0  0
 21 51  1  0  0  0
 21 52  1  0  0  0
 22 23  1  0  0  0
 22 53  1  0  0  0
 22 54  1  0  0  0
 23 27  1  0  0  0
 23 24  2  0  0  0
 24 25  1  0  0  0
 24 55  1  0  0  0
 25 26  2  0  0  0
 25 56  1  0  0  0
 26 27  1  0  0  0
 26 57  1  0  0  0
M  CHG  1  12   1
M  END
> <i_i_glide_confnum>
189

> <i_i_glide_lignum>
6212

> <i_i_glide_posenum>
382

> <i_i_glide_rotatable_bonds>
11

> <i_m_Source_File_Index>
3392

> <b_m_subgroup_collapsed>
0

> <r_i_docking_score>
-5.84929

> <r_i_glide_ecoul>
-16.5243

> <r_i_glide_eff_state_penalty>
0

> <r_i_glide_einternal>
10.4665

> <r_i_glide_emodel>
-67.1546

> <r_i_glide_energy>
-49.5991

> <r_i_glide_erotb>
1.12496

> <r_i_glide_esite>
-0.470266

> <r_i_glide_evdw>
-33.0749

> <r_i_glide_gscore>
-5.84929

> <r_i_glide_hbond>
-0.787277

> <r_i_glide_ligand_efficiency>
-0.21664

> <r_i_glide_ligand_efficiency_ln>
-1.36162

> <r_i_glide_ligand_efficiency_sa>
-0.649921

> <r_i_glide_lipo>
-1.17915

> <r_i_glide_metal>
0

> <r_i_glide_rewards>
-0.405175

> <s_i_glide_gridfile>
wee1_glide-grid

> <s_m_Source_File>
wee1_decoys_glide_SP.sdf

> <s_m_Source_Path>
/Users/zhangxujun/Desktop

> <s_m_entry_id>
3667

> <s_m_entry_name>
wee1_decoys_glide_SP.3392

> <s_m_subgroup_title>
wee1_decoys_glide_SP

> <s_m_subgroupid>
wee1_decoys_glide_SP


$$$$
