ZINC09244742_2696
                    3D
 Schrodinger Suite 2024-2.
 54 56  0  0  1  0            999 V2000
    0.5108   53.6749   30.6107 C   0  0  0  0  0  0
    1.2609   52.5219   29.9149 C   0  0  0  0  0  0
    1.9862   52.9376   28.6851 N   0  0  0  0  0  0
    3.3383   53.2454   28.8631 C   0  0  0  0  0  0
    3.9042   53.1393   29.9556 O   0  0  0  0  0  0
    3.9578   53.7257   27.6124 C   0  0  0  0  0  0
    5.2993   54.0980   27.3429 C   0  0  0  0  0  0
    5.4586   54.5916   26.0344 C   0  0  0  0  0  0
    3.9768   54.4944   25.1344 S   0  0  0  0  0  0
    3.1465   53.8739   26.5010 C   0  0  0  0  0  0
    1.8321   53.5723   26.4366 N   0  0  0  0  0  0
    1.2793   53.0881   27.4874 C   0  0  0  0  0  0
   -0.4579   52.6596   27.2810 S   0  0  0  0  0  0
   -0.3218   50.8474   27.2297 C   0  0  0  0  0  0
   -0.2304   50.2514   25.8123 C   0  0  0  0  0  0
    0.2997   50.9003   24.9052 O   0  0  0  0  0  0
   -0.7601   49.0139   25.6826 N   0  0  0  0  0  0
   -1.0113   48.3341   24.5470 C   0  0  0  0  0  0
   -0.5252   48.5859   23.4424 O   0  0  0  0  0  0
   -1.9373   47.3837   24.7865 N   0  0  0  0  0  0
   -2.6290   46.5772   23.8586 C   0  0  0  0  0  0
   -2.0974   46.2292   22.6055 C   0  0  0  0  0  0
   -2.8190   45.4258   21.7253 C   0  0  0  0  0  0
   -4.0824   44.9534   22.0818 C   0  0  0  0  0  0
   -4.6220   45.2977   23.3218 C   0  0  0  0  0  0
   -3.9033   46.0968   24.2186 C   0  0  0  0  0  0
   -4.5305   46.4308   25.5682 C   0  0  0  0  0  0
   -4.8731   44.0897   21.1174 C   0  0  0  0  0  0
    6.6953   55.1494   25.3671 C   0  0  0  0  0  0
    6.4375   54.0235   28.3362 C   0  0  0  0  0  0
    0.0338   53.3216   31.5262 H   0  0  0  0  0  0
    1.1827   54.4879   30.8812 H   0  0  0  0  0  0
   -0.2773   54.0808   29.9783 H   0  0  0  0  0  0
    0.5423   51.7383   29.6785 H   0  0  0  0  0  0
    1.9244   52.0444   30.6390 H   0  0  0  0  0  0
   -1.2307   50.4967   27.7144 H   0  0  0  0  0  0
    0.5258   50.4970   27.8146 H   0  0  0  0  0  0
   -1.1085   48.6125   26.5498 H   0  0  0  0  0  0
   -2.2925   47.3376   25.7300 H   0  0  0  0  0  0
   -1.1183   46.5608   22.2965 H   0  0  0  0  0  0
   -2.3899   45.1765   20.7649 H   0  0  0  0  0  0
   -5.6056   44.9376   23.5917 H   0  0  0  0  0  0
   -4.6250   47.5116   25.6826 H   0  0  0  0  0  0
   -5.5212   45.9917   25.6901 H   0  0  0  0  0  0
   -3.8972   46.0720   26.3828 H   0  0  0  0  0  0
   -4.6423   43.0351   21.2701 H   0  0  0  0  0  0
   -4.6477   44.3526   20.0823 H   0  0  0  0  0  0
   -5.9451   44.2383   21.2513 H   0  0  0  0  0  0
    7.0471   56.0501   25.8713 H   0  0  0  0  0  0
    7.5042   54.4209   25.3775 H   0  0  0  0  0  0
    6.5268   55.4155   24.3230 H   0  0  0  0  0  0
    7.3562   54.4966   27.9904 H   0  0  0  0  0  0
    6.1741   54.4962   29.2813 H   0  0  0  0  0  0
    6.6689   52.9852   28.5624 H   0  0  0  0  0  0
  1  2  1  0  0  0
  1 31  1  0  0  0
  1 32  1  0  0  0
  1 33  1  0  0  0
  2  3  1  0  0  0
  2 34  1  0  0  0
  2 35  1  0  0  0
  3 12  1  0  0  0
  3  4  1  0  0  0
  4  5  2  0  0  0
  4  6  1  0  0  0
  6 10  2  0  0  0
  6  7  1  0  0  0
  7  8  2  0  0  0
  7 30  1  0  0  0
  8  9  1  0  0  0
  8 29  1  0  0  0
  9 10  1  0  0  0
 10 11  1  0  0  0
 11 12  2  0  0  0
 12 13  1  0  0  0
 13 14  1  0  0  0
 14 15  1  0  0  0
 14 36  1  0  0  0
 14 37  1  0  0  0
 15 16  2  0  0  0
 15 17  1  0  0  0
 17 18  1  0  0  0
 17 38  1  0  0  0
 18 19  2  0  0  0
 18 20  1  0  0  0
 20 21  1  0  0  0
 20 39  1  0  0  0
 21 26  2  0  0  0
 21 22  1  0  0  0
 22 23  2  0  0  0
 22 40  1  0  0  0
 23 24  1  0  0  0
 23 41  1  0  0  0
 24 25  2  0  0  0
 24 28  1  0  0  0
 25 26  1  0  0  0
 25 42  1  0  0  0
 26 27  1  0  0  0
 27 43  1  0  0  0
 27 44  1  0  0  0
 27 45  1  0  0  0
 28 46  1  0  0  0
 28 47  1  0  0  0
 28 48  1  0  0  0
 29 49  1  0  0  0
 29 50  1  0  0  0
 29 51  1  0  0  0
 30 52  1  0  0  0
 30 53  1  0  0  0
 30 54  1  0  0  0
M  END
> <i_i_glide_confnum>
43

> <i_i_glide_lignum>
2697

> <i_i_glide_posenum>
238

> <i_i_glide_rotatable_bonds>
8

> <i_m_Source_File_Index>
5176

> <b_m_subgroup_collapsed>
0

> <r_i_docking_score>
-6.18109

> <r_i_glide_ecoul>
-7.79853

> <r_i_glide_eff_state_penalty>
0

> <r_i_glide_einternal>
7.48711

> <r_i_glide_emodel>
-69.3299

> <r_i_glide_energy>
-51.2562

> <r_i_glide_erotb>
0.70838

> <r_i_glide_esite>
-0.265015

> <r_i_glide_evdw>
-43.4577

> <r_i_glide_gscore>
-6.18109

> <r_i_glide_hbond>
-0.16

> <r_i_glide_ligand_efficiency>
-0.206036

> <r_i_glide_ligand_efficiency_ln>
-1.40441

> <r_i_glide_ligand_efficiency_sa>
-0.640202

> <r_i_glide_lipo>
-2.25625

> <r_i_glide_metal>
0

> <r_i_glide_rewards>
-0.865543

> <s_i_glide_gridfile>
wee1_glide-grid

> <s_m_Source_File>
wee1_decoys_glide_SP.sdf

> <s_m_Source_Path>
/Users/zhangxujun/Desktop

> <s_m_entry_id>
5451

> <s_m_entry_name>
wee1_decoys_glide_SP.5176

> <s_m_subgroup_title>
wee1_decoys_glide_SP

> <s_m_subgroupid>
wee1_decoys_glide_SP


$$$$
