ZINC19514806_3816
                    3D
 Schrodinger Suite 2024-2.
 36 38  0  0  1  0            999 V2000
   -0.7826   51.7746   29.7567 C   0  0  0  0  0  0
   -0.6187   51.8735   28.2513 C   0  0  0  0  0  0
    0.5842   52.3646   27.7370 C   0  0  0  0  0  0
    0.7644   52.4967   26.3526 C   0  0  0  0  0  0
   -0.2559   52.0882   25.4899 C   0  0  0  0  0  0
   -1.4552   51.5956   25.9987 C   0  0  0  0  0  0
   -1.6495   51.5000   27.3753 C   0  0  0  0  0  0
   -3.3450   50.8970   28.0136 Br  0  0  0  0  0  0
    1.9040   53.0411   25.7435 N   0  0  0  0  0  0
    2.9590   53.6966   26.2745 C   0  0  0  0  0  0
    3.1302   53.9020   27.4769 O   0  0  0  0  0  0
    3.9696   54.2705   25.2599 C   0  0  1  0  0  0
    3.7762   55.3413   25.2657 H   0  0  0  0  0  0
    5.4406   54.0035   25.6745 C   0  0  0  0  0  0
    6.3481   54.5384   24.6494 N   0  0  0  0  0  0
    5.9040   54.4968   23.3117 C   0  0  0  0  0  0
    6.7522   54.8971   22.2775 C   0  0  0  0  0  0
    6.2978   54.8996   20.9570 C   0  0  0  0  0  0
    5.0002   54.4813   20.6602 C   0  0  0  0  0  0
    4.1440   54.0774   21.6844 C   0  0  0  0  0  0
    4.5896   54.0968   23.0061 C   0  0  0  0  0  0
    3.6937   53.6969   23.9716 O   0  0  0  0  0  0
   -1.3599   50.8966   30.0445 H   0  0  0  0  0  0
    0.1801   51.6968   30.2635 H   0  0  0  0  0  0
   -1.2953   52.6599   30.1181 H   0  0  0  0  0  0
    1.3581   52.6503   28.4309 H   0  0  0  0  0  0
   -0.1398   52.1672   24.4187 H   0  0  0  0  0  0
   -2.2439   51.2995   25.3233 H   0  0  0  0  0  0
    1.9302   52.9729   24.7361 H   0  0  0  0  0  0
    5.6808   54.4569   26.6373 H   0  0  0  0  0  0
    5.6183   52.9363   25.7992 H   0  0  0  0  0  0
    7.3370   54.4867   24.8470 H   0  0  0  0  0  0
    7.7615   55.2227   22.4826 H   0  0  0  0  0  0
    6.9576   55.2155   20.1623 H   0  0  0  0  0  0
    4.6528   54.4741   19.6367 H   0  0  0  0  0  0
    3.1356   53.7639   21.4523 H   0  0  0  0  0  0
  1  2  1  0  0  0
  1 23  1  0  0  0
  1 24  1  0  0  0
  1 25  1  0  0  0
  2  7  2  0  0  0
  2  3  1  0  0  0
  3  4  2  0  0  0
  3 26  1  0  0  0
  4  5  1  0  0  0
  4  9  1  0  0  0
  5  6  2  0  0  0
  5 27  1  0  0  0
  6  7  1  0  0  0
  6 28  1  0  0  0
  7  8  1  0  0  0
  9 10  1  0  0  0
  9 29  1  0  0  0
 10 11  2  0  0  0
 10 12  1  0  0  0
 12 13  1  0  0  0
 12 22  1  0  0  0
 12 14  1  0  0  0
 14 15  1  0  0  0
 14 30  1  0  0  0
 14 31  1  0  0  0
 15 16  1  0  0  0
 15 32  1  0  0  0
 16 21  2  0  0  0
 16 17  1  0  0  0
 17 18  2  0  0  0
 17 33  1  0  0  0
 18 19  1  0  0  0
 18 34  1  0  0  0
 19 20  2  0  0  0
 19 35  1  0  0  0
 20 21  1  0  0  0
 20 36  1  0  0  0
 21 22  1  0  0  0
M  END
> <i_i_glide_confnum>
6

> <i_i_glide_lignum>
3817

> <i_i_glide_posenum>
370

> <i_i_glide_rotatable_bonds>
3

> <i_m_Source_File_Index>
1683

> <b_m_subgroup_collapsed>
0

> <r_i_docking_score>
-4.16912

> <r_i_glide_ecoul>
-1.19653

> <r_i_glide_eff_state_penalty>
0

> <r_i_glide_einternal>
3.41317

> <r_i_glide_emodel>
-39.8663

> <r_i_glide_energy>
-31.3858

> <r_i_glide_erotb>
0.47336

> <r_i_glide_esite>
0

> <r_i_glide_evdw>
-30.1893

> <r_i_glide_gscore>
-4.16912

> <r_i_glide_hbond>
0

> <r_i_glide_ligand_efficiency>
-0.19853

> <r_i_glide_ligand_efficiency_ln>
-1.03081

> <r_i_glide_ligand_efficiency_sa>
-0.547728

> <r_i_glide_lipo>
-1.65745

> <r_i_glide_metal>
0

> <r_i_glide_rewards>
-1.29609

> <s_i_glide_gridfile>
wee1_glide-grid

> <s_m_Source_File>
wee1_decoys_glide_SP.sdf

> <s_m_Source_Path>
/Users/zhangxujun/Desktop

> <s_m_entry_id>
1958

> <s_m_entry_name>
wee1_decoys_glide_SP.1683

> <s_m_subgroup_title>
wee1_decoys_glide_SP

> <s_m_subgroupid>
wee1_decoys_glide_SP


$$$$
