ZINC14975935_2140
                    3D
 Schrodinger Suite 2024-2.
 60 63  0  0  1  0            999 V2000
    1.6202   49.8331   21.2733 C   0  0  0  0  0  0
    2.0403   51.2896   20.9703 C   0  0  0  0  0  0
    3.1422   51.6959   21.9995 C   0  0  0  0  0  0
    3.9328   52.9011   21.4812 C   0  0  0  0  0  0
    3.9202   53.3690   20.1638 C   0  0  0  0  0  0
    4.7354   54.4979   20.2117 C   0  0  0  0  0  0
    5.2237   54.7424   21.3973 N   0  0  0  0  0  0
    4.6944   53.8059   22.1992 N   0  0  0  0  0  0
    4.9479   53.9006   23.5864 C   0  0  0  0  0  0
    6.2572   54.1044   24.0391 C   0  0  0  0  0  0
    6.4977   54.3050   25.3938 C   0  0  0  0  0  0
    5.4488   54.2978   26.3116 C   0  0  0  0  0  0
    4.1375   54.0815   25.8558 C   0  0  0  0  0  0
    3.8888   53.8713   24.4991 C   0  0  0  0  0  0
    5.7962   54.5199   27.6294 O   0  0  0  0  0  0
    4.7855   54.4875   28.6326 C   0  0  0  0  0  0
    3.0858   52.7281   19.0582 C   0  0  2  0  0  0
    2.2151   53.3267   18.7906 H   0  0  0  0  0  0
    2.6643   51.3122   19.5417 C   0  0  0  0  0  0
    4.3255   53.7014   16.9063 C   0  0  0  0  0  0
    5.7733   54.1465   17.0728 C   0  0  0  0  0  0
    6.0800   55.5045   17.1922 C   0  0  0  0  0  0
    7.3971   55.9123   17.3917 C   0  0  0  0  0  0
    8.4207   54.9682   17.4431 C   0  0  0  0  0  0
    8.1455   53.6064   17.2706 C   0  0  0  0  0  0
    6.8093   53.2056   17.0904 C   0  0  0  0  0  0
    9.2198   52.7354   17.2809 O   0  0  0  0  0  0
    9.0080   51.3580   16.9874 C   0  0  0  0  0  0
    9.7062   55.3952   17.6526 O   0  0  0  0  0  0
    0.8367   52.2537   21.0670 C   0  0  0  0  0  0
    1.2255   49.7339   22.2857 H   0  0  0  0  0  0
    0.8410   49.4921   20.5886 H   0  0  0  0  0  0
    2.4571   49.1377   21.1850 H   0  0  0  0  0  0
    3.8717   50.8921   22.0813 H   0  0  0  0  0  0
    2.7037   51.8426   22.9865 H   0  0  0  0  0  0
    4.9347   55.1698   19.3972 H   0  0  0  0  0  0
    7.0893   54.1327   23.3488 H   0  0  0  0  0  0
    7.5067   54.4715   25.7387 H   0  0  0  0  0  0
    3.3013   54.0718   26.5369 H   0  0  0  0  0  0
    2.8680   53.7423   24.1688 H   0  0  0  0  0  0
    4.3264   53.4980   28.6925 H   0  0  0  0  0  0
    5.2356   54.7072   29.6009 H   0  0  0  0  0  0
    4.0099   55.2367   28.4564 H   0  0  0  0  0  0
    3.5002   50.6124   19.5021 H   0  0  0  0  0  0
    1.9375   50.9222   18.8280 H   0  0  0  0  0  0
    4.1807   53.3361   15.8886 H   0  0  0  0  0  0
    3.5987   54.4918   17.0999 H   0  0  0  0  0  0
    5.2986   56.2496   17.1557 H   0  0  0  0  0  0
    7.6284   56.9612   17.5034 H   0  0  0  0  0  0
    6.5621   52.1614   16.9652 H   0  0  0  0  0  0
    8.3151   50.8961   17.6901 H   0  0  0  0  0  0
    8.6262   51.2218   15.9724 H   0  0  0  0  0  0
    9.9538   50.8217   17.0675 H   0  0  0  0  0  0
   10.3104   54.6535   17.7433 H   0  0  0  0  0  0
    1.1490   53.2967   21.0100 H   0  0  0  0  0  0
    0.1137   52.0750   20.2698 H   0  0  0  0  0  0
    0.3115   52.1366   22.0164 H   0  0  0  0  0  0
    3.9029   52.4966   17.7724 N   0  3  0  0  0  0
    3.3316   51.9068   17.1850 H   0  0  0  0  0  0
    4.7084   51.9084   17.9988 H   0  0  0  0  0  0
  1  2  1  0  0  0
  1 31  1  0  0  0
  1 32  1  0  0  0
  1 33  1  0  0  0
  2 19  1  0  0  0
  2  3  1  0  0  0
  2 30  1  0  0  0
  3  4  1  0  0  0
  3 34  1  0  0  0
  3 35  1  0  0  0
  4  8  1  0  0  0
  4  5  2  0  0  0
  5  6  1  0  0  0
  5 17  1  0  0  0
  6  7  2  0  0  0
  6 36  1  0  0  0
  7  8  1  0  0  0
  8  9  1  0  0  0
  9 14  2  0  0  0
  9 10  1  0  0  0
 10 11  2  0  0  0
 10 37  1  0  0  0
 11 12  1  0  0  0
 11 38  1  0  0  0
 12 13  2  0  0  0
 12 15  1  0  0  0
 13 14  1  0  0  0
 13 39  1  0  0  0
 14 40  1  0  0  0
 15 16  1  0  0  0
 16 41  1  0  0  0
 16 42  1  0  0  0
 16 43  1  0  0  0
 17 18  1  0  0  0
 17 19  1  0  0  0
 17 58  1  0  0  0
 19 44  1  0  0  0
 19 45  1  0  0  0
 20 21  1  0  0  0
 20 46  1  0  0  0
 20 47  1  0  0  0
 20 58  1  0  0  0
 21 26  2  0  0  0
 21 22  1  0  0  0
 22 23  2  0  0  0
 22 48  1  0  0  0
 23 24  1  0  0  0
 23 49  1  0  0  0
 24 25  2  0  0  0
 24 29  1  0  0  0
 25 26  1  0  0  0
 25 27  1  0  0  0
 26 50  1  0  0  0
 27 28  1  0  0  0
 28 51  1  0  0  0
 28 52  1  0  0  0
 28 53  1  0  0  0
 29 54  1  0  0  0
 30 55  1  0  0  0
 30 56  1  0  0  0
 30 57  1  0  0  0
 58 59  1  0  0  0
 58 60  1  0  0  0
M  CHG  1  58   1
M  END
> <i_i_glide_confnum>
71

> <i_i_glide_lignum>
2141

> <i_i_glide_posenum>
208

> <i_i_glide_rotatable_bonds>
7

> <i_m_Source_File_Index>
5580

> <b_m_subgroup_collapsed>
0

> <r_i_docking_score>
-5.11912

> <r_i_glide_ecoul>
-2.68475

> <r_i_glide_eff_state_penalty>
0

> <r_i_glide_einternal>
6.10012

> <r_i_glide_emodel>
-48.5314

> <r_i_glide_energy>
-37.1814

> <r_i_glide_erotb>
0.471756

> <r_i_glide_esite>
-0.0803537

> <r_i_glide_evdw>
-34.4967

> <r_i_glide_gscore>
-5.11912

> <r_i_glide_hbond>
-0.197714

> <r_i_glide_ligand_efficiency>
-0.170637

> <r_i_glide_ligand_efficiency_ln>
-1.16312

> <r_i_glide_ligand_efficiency_sa>
-0.53021

> <r_i_glide_lipo>
-2.28774

> <r_i_glide_metal>
0

> <r_i_glide_rewards>
-0.897524

> <s_i_glide_gridfile>
wee1_glide-grid

> <s_m_Source_File>
wee1_decoys_glide_SP.sdf

> <s_m_Source_Path>
/Users/zhangxujun/Desktop

> <s_m_entry_id>
5855

> <s_m_entry_name>
wee1_decoys_glide_SP.5580

> <s_m_subgroup_title>
wee1_decoys_glide_SP

> <s_m_subgroupid>
wee1_decoys_glide_SP


$$$$
