ZINC38003026_3883
                    3D
 Schrodinger Suite 2024-2.
 30 32  0  0  1  0            999 V2000
    0.1917   52.0963   26.7430 C   0  0  0  0  0  0
    1.4851   52.6601   27.3527 C   0  0  2  0  0  0
    2.0620   51.7966   27.6888 H   0  0  0  0  0  0
    1.1649   53.5232   28.5737 C   0  0  0  0  0  0
    0.5654   53.1379   29.7775 C   0  0  0  0  0  0
    0.5402   54.1325   30.7593 C   0  0  0  0  0  0
    1.1047   55.3140   30.3164 C   0  0  0  0  0  0
    1.5415   55.2290   28.6588 S   0  0  0  0  0  0
    1.5044   56.8967   31.2814 Br  0  0  0  0  0  0
    2.2978   53.2976   26.3119 N   0  0  0  0  0  0
    3.6404   53.6965   26.4927 C   0  0  0  0  0  0
    4.2890   53.6911   27.7395 C   0  0  0  0  0  0
    5.6139   54.0876   27.8998 C   0  0  0  0  0  0
    6.3826   54.4827   26.8119 C   0  0  0  0  0  0
    5.7979   54.4607   25.5397 C   0  0  0  0  0  0
    4.4383   54.0798   25.4022 C   0  0  0  0  0  0
    4.1894   54.1374   24.0419 N   0  0  0  0  0  0
    3.3286   53.9198   23.5615 H   0  0  0  0  0  0
    5.2780   54.4965   23.3407 N   0  0  0  0  0  0
    6.2270   54.7273   24.2076 C   0  0  0  0  0  0
   -0.4353   51.6195   27.4980 H   0  0  0  0  0  0
   -0.4024   52.8779   26.2689 H   0  0  0  0  0  0
    0.4089   51.3382   25.9897 H   0  0  0  0  0  0
    0.2032   52.1353   29.9573 H   0  0  0  0  0  0
    0.1692   53.9768   31.7628 H   0  0  0  0  0  0
    2.0521   53.0377   25.3684 H   0  0  0  0  0  0
    3.7654   53.3677   28.6247 H   0  0  0  0  0  0
    6.0611   54.0763   28.8815 H   0  0  0  0  0  0
    7.4126   54.7597   26.9576 H   0  0  0  0  0  0
    7.1977   55.0530   23.8755 H   0  0  0  0  0  0
  1  2  1  0  0  0
  1 21  1  0  0  0
  1 22  1  0  0  0
  1 23  1  0  0  0
  2  3  1  0  0  0
  2  4  1  0  0  0
  2 10  1  0  0  0
  4  8  1  0  0  0
  4  5  2  0  0  0
  5  6  1  0  0  0
  5 24  1  0  0  0
  6  7  2  0  0  0
  6 25  1  0  0  0
  7  8  1  0  0  0
  7  9  1  0  0  0
 10 11  1  0  0  0
 10 26  1  0  0  0
 11 16  2  0  0  0
 11 12  1  0  0  0
 12 13  2  0  0  0
 12 27  1  0  0  0
 13 14  1  0  0  0
 13 28  1  0  0  0
 14 15  2  0  0  0
 14 29  1  0  0  0
 15 20  1  0  0  0
 15 16  1  0  0  0
 16 17  1  0  0  0
 17 18  1  0  0  0
 17 19  1  0  0  0
 19 20  2  0  0  0
 20 30  1  0  0  0
M  END
> <i_i_glide_confnum>
15

> <i_i_glide_lignum>
3884

> <i_i_glide_posenum>
353

> <i_i_glide_rotatable_bonds>
3

> <i_m_Source_File_Index>
2204

> <b_m_subgroup_collapsed>
0

> <r_i_docking_score>
-6.26409

> <r_i_glide_ecoul>
-0.255927

> <r_i_glide_eff_state_penalty>
0

> <r_i_glide_einternal>
2.36383

> <r_i_glide_emodel>
-49.8784

> <r_i_glide_energy>
-37.3149

> <r_i_glide_erotb>
0.540238

> <r_i_glide_esite>
0

> <r_i_glide_evdw>
-37.059

> <r_i_glide_gscore>
-6.26409

> <r_i_glide_hbond>
0

> <r_i_glide_ligand_efficiency>
-0.348005

> <r_i_glide_ligand_efficiency_ln>
-1.61015

> <r_i_glide_ligand_efficiency_sa>
-0.912031

> <r_i_glide_lipo>
-3.63422

> <r_i_glide_metal>
0

> <r_i_glide_rewards>
-1.27877

> <s_i_glide_gridfile>
wee1_glide-grid

> <s_m_Source_File>
wee1_decoys_glide_SP.sdf

> <s_m_Source_Path>
/Users/zhangxujun/Desktop

> <s_m_entry_id>
2479

> <s_m_entry_name>
wee1_decoys_glide_SP.2204

> <s_m_subgroup_title>
wee1_decoys_glide_SP

> <s_m_subgroupid>
wee1_decoys_glide_SP


$$$$
