ZINC09963303_1066
                    3D
 Schrodinger Suite 2024-2.
 79 81  0  0  1  0            999 V2000
    2.1915   51.4074   13.9763 C   0  0  0  0  0  0
    2.9566   51.6873   15.2786 C   0  0  0  0  0  0
    2.6900   53.0873   15.8741 C   0  0  1  0  0  0
    2.8759   53.8318   15.1004 H   0  0  0  0  0  0
    1.2474   53.2569   16.4140 C   0  0  0  0  0  0
    3.4287   52.7575   18.3558 C   0  0  0  0  0  0
    4.6602   52.6977   19.2824 C   0  0  0  0  0  0
    4.5926   53.6801   20.3608 N   0  0  0  0  0  0
    4.7911   53.4128   21.6591 C   0  0  0  0  0  0
    5.1044   52.3051   22.0817 O   0  0  0  0  0  0
    4.5859   54.6112   22.5900 C   0  0  0  0  0  0
    4.5143   54.3078   24.0470 N   0  0  0  0  0  0
    3.3143   53.7516   24.5672 C   0  0  0  0  0  0
    2.2701   53.2489   23.7762 C   0  0  0  0  0  0
    1.1138   52.7361   24.3676 C   0  0  0  0  0  0
    0.9666   52.7626   25.7569 C   0  0  0  0  0  0
    1.9757   53.2968   26.5564 C   0  0  0  0  0  0
    3.1371   53.7748   25.9569 C   0  0  0  0  0  0
    4.1117   54.3316   26.7530 O   0  0  0  0  0  0
    5.4498   54.0843   26.2778 C   0  0  0  0  0  0
    5.6486   54.4965   24.7910 C   0  0  0  0  0  0
    6.7096   54.9675   24.3806 O   0  0  0  0  0  0
   -0.1621   52.0162   23.3400 S   0  0  0  0  0  0
   -1.4470   52.2980   23.9933 O   0  0  0  0  0  0
    0.0735   52.4925   21.9716 O   0  0  0  0  0  0
    0.1469   50.2575   23.4004 N   0  0  0  0  0  0
   -0.5701   49.4608   24.4350 C   0  0  0  0  0  0
    0.2759   49.1593   25.6844 C   0  0  0  0  0  0
    1.4497   49.7070   22.9188 C   0  0  0  0  0  0
    1.8454   50.1308   21.4955 C   0  0  0  0  0  0
    4.3736   54.7989   17.0153 C   0  0  0  0  0  0
    5.2747   55.0561   15.7816 C   0  0  0  0  0  0
    5.8638   56.4839   15.7857 C   0  0  0  0  0  0
    4.7771   57.5658   15.9672 C   0  0  0  0  0  0
    3.9021   57.3030   17.2093 C   0  0  0  0  0  0
    3.2899   55.8881   17.1942 C   0  0  0  0  0  0
    2.4527   50.4239   13.5829 H   0  0  0  0  0  0
    1.1117   51.4188   14.1322 H   0  0  0  0  0  0
    2.4285   52.1434   13.2073 H   0  0  0  0  0  0
    4.0234   51.5664   15.0754 H   0  0  0  0  0  0
    2.7044   50.9132   16.0067 H   0  0  0  0  0  0
    0.5248   53.2305   15.5982 H   0  0  0  0  0  0
    0.9728   52.4582   17.1041 H   0  0  0  0  0  0
    1.0979   54.2024   16.9336 H   0  0  0  0  0  0
    2.6107   53.3550   18.7634 H   0  0  0  0  0  0
    3.0694   51.7468   18.1517 H   0  0  0  0  0  0
    4.7059   51.6922   19.6918 H   0  0  0  0  0  0
    5.5975   52.8181   18.7366 H   0  0  0  0  0  0
    4.3915   54.6317   20.0909 H   0  0  0  0  0  0
    5.4023   55.2967   22.3760 H   0  0  0  0  0  0
    3.6849   55.1523   22.3003 H   0  0  0  0  0  0
    2.3457   53.2332   22.7008 H   0  0  0  0  0  0
    0.0670   52.3768   26.2170 H   0  0  0  0  0  0
    1.8614   53.3340   27.6301 H   0  0  0  0  0  0
    5.6521   53.0131   26.3328 H   0  0  0  0  0  0
    6.1793   54.6016   26.9017 H   0  0  0  0  0  0
   -1.4729   49.9935   24.7333 H   0  0  0  0  0  0
   -0.9183   48.5357   23.9746 H   0  0  0  0  0  0
   -0.3188   48.6529   26.4462 H   0  0  0  0  0  0
    1.1066   48.4968   25.4534 H   0  0  0  0  0  0
    0.6767   50.0613   26.1414 H   0  0  0  0  0  0
    2.2291   49.9874   23.6289 H   0  0  0  0  0  0
    1.3905   48.6192   22.9606 H   0  0  0  0  0  0
    2.6976   49.5464   21.1485 H   0  0  0  0  0  0
    1.0298   49.9767   20.7889 H   0  0  0  0  0  0
    2.1507   51.1748   21.4482 H   0  0  0  0  0  0
    5.0368   54.8736   17.8768 H   0  0  0  0  0  0
    4.7017   54.9405   14.8624 H   0  0  0  0  0  0
    6.0527   54.2936   15.7070 H   0  0  0  0  0  0
    6.4169   56.6628   14.8632 H   0  0  0  0  0  0
    6.5947   56.5701   16.5920 H   0  0  0  0  0  0
    4.1458   57.5998   15.0773 H   0  0  0  0  0  0
    5.2386   58.5533   16.0448 H   0  0  0  0  0  0
    3.1141   58.0549   17.2797 H   0  0  0  0  0  0
    4.5180   57.4185   18.1016 H   0  0  0  0  0  0
    2.6901   55.6959   18.0820 H   0  0  0  0  0  0
    2.5827   55.8400   16.3670 H   0  0  0  0  0  0
    3.7707   53.3600   16.9652 N   0  3  2  0  0  0
    4.5494   52.7879   16.6589 H   0  0  0  0  0  0
  1  2  1  0  0  0
  1 37  1  0  0  0
  1 38  1  0  0  0
  1 39  1  0  0  0
  2  3  1  0  0  0
  2 40  1  0  0  0
  2 41  1  0  0  0
  3  4  1  0  0  0
  3  5  1  0  0  0
  3 78  1  0  0  0
  5 42  1  0  0  0
  5 43  1  0  0  0
  5 44  1  0  0  0
  6  7  1  0  0  0
  6 45  1  0  0  0
  6 46  1  0  0  0
  6 78  1  0  0  0
  7  8  1  0  0  0
  7 47  1  0  0  0
  7 48  1  0  0  0
  8  9  1  0  0  0
  8 49  1  0  0  0
  9 10  2  0  0  0
  9 11  1  0  0  0
 11 12  1  0  0  0
 11 50  1  0  0  0
 11 51  1  0  0  0
 12 21  1  0  0  0
 12 13  1  0  0  0
 13 18  2  0  0  0
 13 14  1  0  0  0
 14 15  2  0  0  0
 14 52  1  0  0  0
 15 16  1  0  0  0
 15 23  1  0  0  0
 16 17  2  0  0  0
 16 53  1  0  0  0
 17 18  1  0  0  0
 17 54  1  0  0  0
 18 19  1  0  0  0
 19 20  1  0  0  0
 20 21  1  0  0  0
 20 55  1  0  0  0
 20 56  1  0  0  0
 21 22  2  0  0  0
 23 24  2  0  0  0
 23 25  2  0  0  0
 23 26  1  0  0  0
 26 27  1  0  0  0
 26 29  1  0  0  0
 27 28  1  0  0  0
 27 57  1  0  0  0
 27 58  1  0  0  0
 28 59  1  0  0  0
 28 60  1  0  0  0
 28 61  1  0  0  0
 29 30  1  0  0  0
 29 62  1  0  0  0
 29 63  1  0  0  0
 30 64  1  0  0  0
 30 65  1  0  0  0
 30 66  1  0  0  0
 31 36  1  0  0  0
 31 32  1  0  0  0
 31 67  1  0  0  0
 31 78  1  0  0  0
 32 33  1  0  0  0
 32 68  1  0  0  0
 32 69  1  0  0  0
 33 34  1  0  0  0
 33 70  1  0  0  0
 33 71  1  0  0  0
 34 35  1  0  0  0
 34 72  1  0  0  0
 34 73  1  0  0  0
 35 36  1  0  0  0
 35 74  1  0  0  0
 35 75  1  0  0  0
 36 76  1  0  0  0
 36 77  1  0  0  0
 78 79  1  0  0  0
M  CHG  1  78   1
M  END
> <i_i_glide_confnum>
342

> <i_i_glide_lignum>
1067

> <i_i_glide_posenum>
336

> <i_i_glide_rotatable_bonds>
13

> <i_m_Source_File_Index>
1309

> <b_m_subgroup_collapsed>
0

> <r_i_docking_score>
-4.86029

> <r_i_glide_ecoul>
-7.23531

> <r_i_glide_eff_state_penalty>
0

> <r_i_glide_einternal>
4.444

> <r_i_glide_emodel>
-58.8263

> <r_i_glide_energy>
-44.9367

> <r_i_glide_erotb>
0.67505

> <r_i_glide_esite>
-0.0341494

> <r_i_glide_evdw>
-37.7014

> <r_i_glide_gscore>
-4.86029

> <r_i_glide_hbond>
0

> <r_i_glide_ligand_efficiency>
-0.135008

> <r_i_glide_ligand_efficiency_ln>
-1.06038

> <r_i_glide_ligand_efficiency_sa>
-0.445787

> <r_i_glide_lipo>
-1.7402

> <r_i_glide_metal>
0

> <r_i_glide_rewards>
-0.790626

> <s_i_glide_gridfile>
wee1_glide-grid

> <s_m_Source_File>
wee1_decoys_glide_SP.sdf

> <s_m_Source_Path>
/Users/zhangxujun/Desktop

> <s_m_entry_id>
1584

> <s_m_entry_name>
wee1_decoys_glide_SP.1309

> <s_m_subgroup_title>
wee1_decoys_glide_SP

> <s_m_subgroupid>
wee1_decoys_glide_SP


$$$$
