ZINC32947525_3934
                    3D
 Schrodinger Suite 2024-2.
 40 42  0  0  1  0            999 V2000
   -5.1230   50.2364   30.5446 C   0  0  0  0  0  0
   -4.7028   50.7045   29.1629 C   0  0  0  0  0  0
   -5.6483   50.9422   28.1659 C   0  0  0  0  0  0
   -5.2369   51.3408   26.8952 C   0  0  0  0  0  0
   -3.8780   51.5153   26.6071 C   0  0  0  0  0  0
   -2.9167   51.2967   27.6136 C   0  0  0  0  0  0
   -3.3499   50.8866   28.8816 C   0  0  0  0  0  0
   -1.5514   51.4996   27.3265 N   0  0  0  0  0  0
   -0.5240   51.8068   28.1909 C   0  0  0  0  0  0
   -0.6211   52.0967   29.4634 N   0  0  0  0  0  0
    0.5334   52.4432   29.9834 C   0  0  0  0  0  0
    1.6338   52.4989   29.1201 C   0  0  0  0  0  0
    1.0805   51.9381   27.5566 S   0  0  0  0  0  0
    3.0370   52.8406   29.3768 C   0  0  0  0  0  0
    3.5049   52.5577   30.4822 O   0  0  0  0  0  0
    3.8995   53.4735   28.3146 C   0  0  0  0  0  0
    3.3612   54.1785   27.2265 C   0  0  0  0  0  0
    4.1954   54.7623   26.2769 C   0  0  0  0  0  0
    5.5763   54.6868   26.4272 C   0  0  0  0  0  0
    6.1302   54.0155   27.5120 C   0  0  0  0  0  0
    5.2942   53.4143   28.4484 C   0  0  0  0  0  0
    6.7080   55.5454   25.1625 Br  0  0  0  0  0  0
    0.5598   52.7157   31.3182 N   0  0  0  0  0  0
   -3.4800   51.9629   25.2038 C   0  0  0  0  0  0
   -6.2066   50.1994   30.6597 H   0  0  0  0  0  0
   -4.7150   49.2437   30.7379 H   0  0  0  0  0  0
   -4.7194   50.9007   31.3100 H   0  0  0  0  0  0
   -6.7006   50.8042   28.3671 H   0  0  0  0  0  0
   -5.9831   51.5112   26.1324 H   0  0  0  0  0  0
   -2.6362   50.6503   29.6570 H   0  0  0  0  0  0
   -1.3780   51.5313   26.3343 H   0  0  0  0  0  0
    2.2962   54.3053   27.1074 H   0  0  0  0  0  0
    3.7714   55.2971   25.4403 H   0  0  0  0  0  0
    7.2020   53.9639   27.6337 H   0  0  0  0  0  0
    5.7438   52.8968   29.2809 H   0  0  0  0  0  0
    1.4305   52.8744   31.8013 H   0  0  0  0  0  0
   -0.2442   52.4935   31.9051 H   0  0  0  0  0  0
   -4.3446   52.1354   24.5609 H   0  0  0  0  0  0
   -2.9073   52.8898   25.2513 H   0  0  0  0  0  0
   -2.8491   51.2082   24.7328 H   0  0  0  0  0  0
  1  2  1  0  0  0
  1 25  1  0  0  0
  1 26  1  0  0  0
  1 27  1  0  0  0
  2  7  2  0  0  0
  2  3  1  0  0  0
  3  4  2  0  0  0
  3 28  1  0  0  0
  4  5  1  0  0  0
  4 29  1  0  0  0
  5  6  2  0  0  0
  5 24  1  0  0  0
  6  7  1  0  0  0
  6  8  1  0  0  0
  7 30  1  0  0  0
  8  9  1  0  0  0
  8 31  1  0  0  0
  9 13  1  0  0  0
  9 10  2  0  0  0
 10 11  1  0  0  0
 11 12  2  0  0  0
 11 23  1  0  0  0
 12 13  1  0  0  0
 12 14  1  0  0  0
 14 15  2  0  0  0
 14 16  1  0  0  0
 16 21  2  0  0  0
 16 17  1  0  0  0
 17 18  2  0  0  0
 17 32  1  0  0  0
 18 19  1  0  0  0
 18 33  1  0  0  0
 19 20  2  0  0  0
 19 22  1  0  0  0
 20 21  1  0  0  0
 20 34  1  0  0  0
 21 35  1  0  0  0
 23 36  1  0  0  0
 23 37  1  0  0  0
 24 38  1  0  0  0
 24 39  1  0  0  0
 24 40  1  0  0  0
M  END
> <i_i_glide_confnum>
47

> <i_i_glide_lignum>
3935

> <i_i_glide_posenum>
381

> <i_i_glide_rotatable_bonds>
4

> <i_m_Source_File_Index>
503

> <b_m_subgroup_collapsed>
0

> <r_i_docking_score>
-5.82379

> <r_i_glide_ecoul>
-4.34324

> <r_i_glide_eff_state_penalty>
0

> <r_i_glide_einternal>
5.93822

> <r_i_glide_emodel>
-59.4575

> <r_i_glide_energy>
-45.6616

> <r_i_glide_erotb>
0.484948

> <r_i_glide_esite>
-0.16375

> <r_i_glide_evdw>
-41.3184

> <r_i_glide_gscore>
-5.82379

> <r_i_glide_hbond>
-0.209147

> <r_i_glide_ligand_efficiency>
-0.242658

> <r_i_glide_ligand_efficiency_ln>
-1.3939

> <r_i_glide_ligand_efficiency_sa>
-0.699947

> <r_i_glide_lipo>
-2.18744

> <r_i_glide_metal>
0

> <r_i_glide_rewards>
-1.031

> <s_i_glide_gridfile>
wee1_glide-grid

> <s_m_Source_File>
wee1_decoys_glide_SP.sdf

> <s_m_Source_Path>
/Users/zhangxujun/Desktop

> <s_m_entry_id>
778

> <s_m_entry_name>
wee1_decoys_glide_SP.503

> <s_m_subgroup_title>
wee1_decoys_glide_SP

> <s_m_subgroupid>
wee1_decoys_glide_SP


$$$$
