ZINC02407377_2807
                    3D
 Schrodinger Suite 2024-2.
 51 55  0  0  1  0            999 V2000
   -0.4629   51.8776   22.2527 C   0  0  0  0  0  0
    0.7927   51.9954   23.1326 C   0  0  0  0  0  0
    1.8583   52.8512   22.4064 C   0  0  0  0  0  0
    2.9348   53.4211   23.3386 C   0  0  0  0  0  0
    2.7033   53.4817   24.7336 C   0  0  0  0  0  0
    3.7173   53.9915   25.5772 C   0  0  0  0  0  0
    4.9345   54.3982   25.1389 N   0  0  0  0  0  0
    5.1284   54.3674   23.8284 C   0  0  0  0  0  0
    4.1779   53.9274   22.8749 C   0  0  0  0  0  0
    4.6489   54.0967   21.5526 C   0  0  0  0  0  0
    5.9319   54.6916   21.4639 C   0  0  0  0  0  0
    6.6135   54.8967   23.0646 S   0  0  0  0  0  0
    6.4407   54.9831   20.1904 C   0  0  0  0  0  0
    5.7120   54.7021   19.0826 N   0  0  0  0  0  0
    4.5162   54.0905   19.2667 C   0  0  0  0  0  0
    3.9456   53.7708   20.4608 N   0  0  0  0  0  0
    3.6429   53.6587   17.7937 S   0  0  0  0  0  0
    2.3522   52.4737   18.2607 C   0  0  0  0  0  0
    8.0455   55.6966   19.9885 S   0  0  0  0  0  0
    8.0097   56.6479   18.4323 C   0  0  0  0  0  0
    7.1191   57.8958   18.4807 C   0  0  0  0  0  0
    6.7044   58.3447   19.5468 O   0  0  0  0  0  0
    6.8425   58.5027   17.3273 N   0  0  0  0  0  0
    3.6200   54.0867   27.0670 C   0  0  0  0  0  0
    4.5410   53.8880   28.0902 C   0  0  0  0  0  0
    3.8867   54.1587   29.2914 C   0  0  0  0  0  0
    2.5994   54.5366   28.9575 C   0  0  0  0  0  0
    2.4416   54.4978   27.6119 O   0  0  0  0  0  0
    1.3683   52.9771   25.2823 C   0  0  0  0  0  0
    0.3891   52.7590   24.2656 O   0  0  0  0  0  0
    1.3555   50.6118   23.5371 C   0  0  0  0  0  0
   -0.2441   51.3763   21.3087 H   0  0  0  0  0  0
   -1.2412   51.3100   22.7617 H   0  0  0  0  0  0
   -0.8837   52.8545   22.0203 H   0  0  0  0  0  0
    1.3906   53.6969   21.9025 H   0  0  0  0  0  0
    2.3122   52.2333   21.6324 H   0  0  0  0  0  0
    1.7789   52.1823   17.3807 H   0  0  0  0  0  0
    1.6717   52.9089   18.9925 H   0  0  0  0  0  0
    2.8068   51.5766   18.6841 H   0  0  0  0  0  0
    9.0279   56.9619   18.2058 H   0  0  0  0  0  0
    7.6875   55.9919   17.6228 H   0  0  0  0  0  0
    7.1586   58.1295   16.4448 H   0  0  0  0  0  0
    6.3203   59.3771   17.3460 H   0  0  0  0  0  0
    5.5683   53.5762   27.9729 H   0  0  0  0  0  0
    4.3042   54.0964   30.2819 H   0  0  0  0  0  0
    1.7348   54.8462   29.5290 H   0  0  0  0  0  0
    1.5148   52.0535   25.8427 H   0  0  0  0  0  0
    0.9475   53.6962   25.9752 H   0  0  0  0  0  0
    1.5238   49.9813   22.6630 H   0  0  0  0  0  0
    2.3042   50.6867   24.0619 H   0  0  0  0  0  0
    0.6645   50.0834   24.1934 H   0  0  0  0  0  0
  1  2  1  0  0  0
  1 32  1  0  0  0
  1 33  1  0  0  0
  1 34  1  0  0  0
  2 30  1  0  0  0
  2  3  1  0  0  0
  2 31  1  0  0  0
  3  4  1  0  0  0
  3 35  1  0  0  0
  3 36  1  0  0  0
  4  9  2  0  0  0
  4  5  1  0  0  0
  5  6  2  0  0  0
  5 29  1  0  0  0
  6  7  1  0  0  0
  6 24  1  0  0  0
  7  8  2  0  0  0
  8 12  1  0  0  0
  8  9  1  0  0  0
  9 10  1  0  0  0
 10 16  2  0  0  0
 10 11  1  0  0  0
 11 12  1  0  0  0
 11 13  2  0  0  0
 13 14  1  0  0  0
 13 19  1  0  0  0
 14 15  2  0  0  0
 15 16  1  0  0  0
 15 17  1  0  0  0
 17 18  1  0  0  0
 18 37  1  0  0  0
 18 38  1  0  0  0
 18 39  1  0  0  0
 19 20  1  0  0  0
 20 21  1  0  0  0
 20 40  1  0  0  0
 20 41  1  0  0  0
 21 22  2  0  0  0
 21 23  1  0  0  0
 23 42  1  0  0  0
 23 43  1  0  0  0
 24 28  1  0  0  0
 24 25  2  0  0  0
 25 26  1  0  0  0
 25 44  1  0  0  0
 26 27  2  0  0  0
 26 45  1  0  0  0
 27 28  1  0  0  0
 27 46  1  0  0  0
 29 30  1  0  0  0
 29 47  1  0  0  0
 29 48  1  0  0  0
 31 49  1  0  0  0
 31 50  1  0  0  0
 31 51  1  0  0  0
M  END
> <i_i_glide_confnum>
74

> <i_i_glide_lignum>
2808

> <i_i_glide_posenum>
368

> <i_i_glide_rotatable_bonds>
5

> <i_m_Source_File_Index>
733

> <b_m_subgroup_collapsed>
0

> <r_i_docking_score>
-6.66633

> <r_i_glide_ecoul>
-5.18905

> <r_i_glide_eff_state_penalty>
0

> <r_i_glide_einternal>
5.63996

> <r_i_glide_emodel>
-66.7732

> <r_i_glide_energy>
-48.0751

> <r_i_glide_erotb>
0.271601

> <r_i_glide_esite>
-0.104352

> <r_i_glide_evdw>
-42.886

> <r_i_glide_gscore>
-6.66633

> <r_i_glide_hbond>
-0.351409

> <r_i_glide_ligand_efficiency>
-0.215043

> <r_i_glide_ligand_efficiency_ln>
-1.50346

> <r_i_glide_ligand_efficiency_sa>
-0.675532

> <r_i_glide_lipo>
-3.32121

> <r_i_glide_metal>
0

> <r_i_glide_rewards>
-0.238301

> <s_i_glide_gridfile>
wee1_glide-grid

> <s_m_Source_File>
wee1_decoys_glide_SP.sdf

> <s_m_Source_Path>
/Users/zhangxujun/Desktop

> <s_m_entry_id>
1008

> <s_m_entry_name>
wee1_decoys_glide_SP.733

> <s_m_subgroup_title>
wee1_decoys_glide_SP

> <s_m_subgroupid>
wee1_decoys_glide_SP


$$$$
