ZINC39685111_646
                    3D
 Schrodinger Suite 2024-2.
 63 66  0  0  1  0            999 V2000
    2.0690   54.8108   28.1685 C   0  0  0  0  0  0
    3.5017   54.4901   27.7723 C   0  0  0  0  0  0
    3.9037   54.7319   26.4598 C   0  0  0  0  0  0
    5.1711   54.3620   25.9945 C   0  0  0  0  0  0
    6.0940   53.8762   26.9295 C   0  0  0  0  0  0
    5.7217   53.6777   28.2561 C   0  0  0  0  0  0
    4.4154   53.9345   28.6756 C   0  0  0  0  0  0
    3.9042   53.5043   30.4660 Br  0  0  0  0  0  0
    5.5836   54.4970   24.5398 C   0  0  0  0  0  0
    6.7442   54.8294   24.3012 O   0  0  0  0  0  0
    4.7095   54.1949   23.5351 N   0  0  0  0  0  0
    3.3133   53.7795   23.6691 C   0  0  0  0  0  0
    2.8116   53.5777   22.2246 C   0  0  1  0  0  0
    2.2920   54.4961   21.9718 H   0  0  0  0  0  0
    4.0952   53.4128   21.3344 C   0  0  0  0  0  0
    5.1237   54.2473   22.1331 C   0  0  0  0  0  0
    4.6649   51.9710   21.1424 C   0  0  0  0  0  0
    3.7691   51.0360   20.3040 C   0  0  0  0  0  0
    3.4931   51.7026   18.9460 N   0  3  0  0  0  0
    3.1036   53.1991   18.9557 C   0  0  0  0  0  0
    4.0586   53.9647   19.8814 C   0  0  0  0  0  0
    1.7842   52.4130   22.2522 C   0  0  0  0  0  0
    1.9046   51.4648   23.0296 O   0  0  0  0  0  0
    0.7588   52.4967   21.3929 N   0  0  0  0  0  0
   -0.2117   51.4305   21.1180 C   0  0  0  0  0  0
   -1.1723   51.0731   22.2663 C   0  0  0  0  0  0
   -2.0384   52.1679   22.5438 O   0  0  0  0  0  0
   -2.8209   51.9779   23.6551 C   0  0  0  0  0  0
   -2.4918   52.6536   24.8302 C   0  0  0  0  0  0
   -3.2672   52.4858   25.9759 C   0  0  0  0  0  0
   -4.3817   51.6479   25.9539 C   0  0  0  0  0  0
   -4.7244   50.9814   24.7778 C   0  0  0  0  0  0
   -3.9471   51.1445   23.6292 C   0  0  0  0  0  0
   -4.2946   50.4949   22.4934 F   0  0  0  0  0  0
    2.0247   55.7394   28.7386 H   0  0  0  0  0  0
    1.4271   54.8946   27.2860 H   0  0  0  0  0  0
    1.6461   54.0130   28.7799 H   0  0  0  0  0  0
    3.2078   55.2370   25.8175 H   0  0  0  0  0  0
    7.0995   53.6189   26.6308 H   0  0  0  0  0  0
    6.4515   53.2964   28.9509 H   0  0  0  0  0  0
    2.6781   54.5455   24.1019 H   0  0  0  0  0  0
    3.3280   52.8715   24.2685 H   0  0  0  0  0  0
    6.1566   53.9711   21.9212 H   0  0  0  0  0  0
    5.0246   55.2926   21.8282 H   0  0  0  0  0  0
    5.6431   52.0218   20.6647 H   0  0  0  0  0  0
    4.8608   51.4840   22.0819 H   0  0  0  0  0  0
    4.2766   50.1048   20.0816 H   0  0  0  0  0  0
    2.8136   50.7399   20.7167 H   0  0  0  0  0  0
    4.3686   51.5367   18.4367 H   0  0  0  0  0  0
    3.1748   53.5352   17.9202 H   0  0  0  0  0  0
    2.0660   53.2836   19.2687 H   0  0  0  0  0  0
    3.7552   55.0082   19.8832 H   0  0  0  0  0  0
    5.0587   53.9736   19.4427 H   0  0  0  0  0  0
    0.6825   53.3435   20.8419 H   0  0  0  0  0  0
    0.3098   50.5342   20.7810 H   0  0  0  0  0  0
   -0.8067   51.7603   20.2660 H   0  0  0  0  0  0
   -0.6064   50.7943   23.1585 H   0  0  0  0  0  0
   -1.7575   50.1982   21.9792 H   0  0  0  0  0  0
   -1.6243   53.2953   24.8515 H   0  0  0  0  0  0
   -2.9957   53.0012   26.8817 H   0  0  0  0  0  0
   -4.9767   51.5100   26.8458 H   0  0  0  0  0  0
   -5.5907   50.3368   24.7514 H   0  0  0  0  0  0
    2.8177   51.1560   18.4263 H   0  0  0  0  0  0
  1  2  1  0  0  0
  1 35  1  0  0  0
  1 36  1  0  0  0
  1 37  1  0  0  0
  2  7  2  0  0  0
  2  3  1  0  0  0
  3  4  2  0  0  0
  3 38  1  0  0  0
  4  5  1  0  0  0
  4  9  1  0  0  0
  5  6  2  0  0  0
  5 39  1  0  0  0
  6  7  1  0  0  0
  6 40  1  0  0  0
  7  8  1  0  0  0
  9 10  2  0  0  0
  9 11  1  0  0  0
 11 16  1  0  0  0
 11 12  1  0  0  0
 12 13  1  0  0  0
 12 41  1  0  0  0
 12 42  1  0  0  0
 13 14  1  0  0  0
 13 15  1  0  0  0
 13 22  1  0  0  0
 15 21  1  0  0  0
 15 16  1  0  0  0
 15 17  1  0  0  0
 16 43  1  0  0  0
 16 44  1  0  0  0
 17 18  1  0  0  0
 17 45  1  0  0  0
 17 46  1  0  0  0
 18 19  1  0  0  0
 18 47  1  0  0  0
 18 48  1  0  0  0
 19 20  1  0  0  0
 19 49  1  0  0  0
 19 63  1  0  0  0
 20 21  1  0  0  0
 20 50  1  0  0  0
 20 51  1  0  0  0
 21 52  1  0  0  0
 21 53  1  0  0  0
 22 23  2  0  0  0
 22 24  1  0  0  0
 24 25  1  0  0  0
 24 54  1  0  0  0
 25 26  1  0  0  0
 25 55  1  0  0  0
 25 56  1  0  0  0
 26 27  1  0  0  0
 26 57  1  0  0  0
 26 58  1  0  0  0
 27 28  1  0  0  0
 28 33  2  0  0  0
 28 29  1  0  0  0
 29 30  2  0  0  0
 29 59  1  0  0  0
 30 31  1  0  0  0
 30 60  1  0  0  0
 31 32  2  0  0  0
 31 61  1  0  0  0
 32 33  1  0  0  0
 32 62  1  0  0  0
 33 34  1  0  0  0
M  CHG  1  19   1
M  END
> <i_i_glide_confnum>
82

> <i_i_glide_lignum>
647

> <i_i_glide_posenum>
240

> <i_i_glide_rotatable_bonds>
8

> <i_m_Source_File_Index>
5927

> <b_m_subgroup_collapsed>
0

> <r_i_docking_score>
-6.29176

> <r_i_glide_ecoul>
-5.619

> <r_i_glide_eff_state_penalty>
0

> <r_i_glide_einternal>
8.32952

> <r_i_glide_emodel>
-53.4191

> <r_i_glide_energy>
-42.9761

> <r_i_glide_erotb>
0.533028

> <r_i_glide_esite>
-0.118303

> <r_i_glide_evdw>
-37.3571

> <r_i_glide_gscore>
-6.29176

> <r_i_glide_hbond>
-0.403826

> <r_i_glide_ligand_efficiency>
-0.190659

> <r_i_glide_ligand_efficiency_ln>
-1.39925

> <r_i_glide_ligand_efficiency_sa>
-0.611546

> <r_i_glide_lipo>
-2.73064

> <r_i_glide_metal>
0

> <r_i_glide_rewards>
-0.86131

> <s_i_glide_gridfile>
wee1_glide-grid

> <s_m_Source_File>
wee1_decoys_glide_SP.sdf

> <s_m_Source_Path>
/Users/zhangxujun/Desktop

> <s_m_entry_id>
6202

> <s_m_entry_name>
wee1_decoys_glide_SP.5927

> <s_m_subgroup_title>
wee1_decoys_glide_SP

> <s_m_subgroupid>
wee1_decoys_glide_SP


$$$$
