ZINC39678284_5550
                    3D
 Schrodinger Suite 2024-2.
 78 82  0  0  1  0            999 V2000
    1.9047   47.6971   18.9501 C   0  0  0  0  0  0
    0.8745   48.8353   18.9097 C   0  0  1  0  0  0
    0.3562   48.7837   17.9486 H   0  0  0  0  0  0
   -0.2162   48.6621   20.0038 C   0  0  0  0  0  0
   -1.1447   47.8936   19.7403 O   0  0  0  0  0  0
   -0.1757   49.3186   21.1951 N   0  0  0  0  0  0
    0.9385   50.1143   21.7114 C   0  0  0  0  0  0
    0.4499   50.6549   23.0615 C   0  0  2  0  0  0
    1.3248   50.6193   23.6902 H   0  0  0  0  0  0
   -0.6831   49.6803   23.5292 C   0  0  0  0  0  0
   -1.2538   49.1781   22.1824 C   0  0  0  0  0  0
   -0.0966   48.4692   24.2935 C   0  0  0  0  0  0
    0.6105   48.9235   25.5758 C   0  0  0  0  0  0
   -0.3734   49.6969   26.4816 N   0  3  0  0  0  0
   -1.3455   50.6961   25.8083 C   0  0  0  0  0  0
   -1.8412   50.1500   24.4558 C   0  0  0  0  0  0
    0.0031   52.1302   22.9865 C   0  0  0  0  0  0
   -0.8184   52.4602   22.1369 O   0  0  0  0  0  0
    0.5637   53.0733   23.7693 N   0  0  0  0  0  0
    1.3401   52.9178   25.0096 C   0  0  0  0  0  0
    2.7198   53.5850   25.0740 C   0  0  0  0  0  0
    3.3685   53.9692   23.8917 C   0  0  0  0  0  0
    4.6567   54.4964   23.9286 C   0  0  0  0  0  0
    5.2922   54.7036   25.1485 C   0  0  0  0  0  0
    4.6472   54.3589   26.3327 C   0  0  0  0  0  0
    3.3726   53.7694   26.3176 C   0  0  0  0  0  0
    2.7448   53.4385   27.5167 N   0  0  0  0  0  0
    1.7897   54.4078   28.0826 C   0  0  0  0  0  0
    0.7851   53.7129   29.0290 C   0  0  0  0  0  0
    1.4914   52.9601   30.1656 C   0  0  0  0  0  0
    2.6367   52.0985   29.6122 C   0  0  0  0  0  0
    3.5320   52.8904   28.6367 C   0  0  0  0  0  0
    1.5727   50.0778   19.0313 O   0  0  0  0  0  0
    1.2704   51.0643   18.1202 C   0  0  0  0  0  0
    0.7815   52.2863   18.5830 C   0  0  0  0  0  0
    0.4951   53.3070   17.6807 C   0  0  0  0  0  0
    0.7075   53.1050   16.3190 C   0  0  0  0  0  0
    1.2085   51.8921   15.8506 C   0  0  0  0  0  0
    1.4944   50.8723   16.7539 C   0  0  0  0  0  0
    1.4329   46.7194   18.8389 H   0  0  0  0  0  0
    2.6301   47.8061   18.1423 H   0  0  0  0  0  0
    2.4644   47.6991   19.8868 H   0  0  0  0  0  0
    1.7950   49.4596   21.8838 H   0  0  0  0  0  0
    1.2845   50.9325   21.0840 H   0  0  0  0  0  0
   -2.0414   49.8726   21.8844 H   0  0  0  0  0  0
   -1.7024   48.1883   22.2751 H   0  0  0  0  0  0
   -0.8441   47.7013   24.5041 H   0  0  0  0  0  0
    0.6545   47.9756   23.6820 H   0  0  0  0  0  0
    0.9889   48.0967   26.1557 H   0  0  0  0  0  0
    1.4708   49.5461   25.3953 H   0  0  0  0  0  0
   -0.9165   49.0156   27.0282 H   0  0  0  0  0  0
   -2.1590   50.8415   26.5204 H   0  0  0  0  0  0
   -0.8182   51.6363   25.7127 H   0  0  0  0  0  0
   -2.4056   50.9435   23.9630 H   0  0  0  0  0  0
   -2.5677   49.3510   24.6146 H   0  0  0  0  0  0
    0.2736   54.0197   23.5725 H   0  0  0  0  0  0
    0.7055   53.3331   25.7875 H   0  0  0  0  0  0
    1.4772   51.8876   25.3274 H   0  0  0  0  0  0
    2.8983   53.8274   22.9291 H   0  0  0  0  0  0
    5.1571   54.7635   23.0086 H   0  0  0  0  0  0
    6.2822   55.1347   25.1762 H   0  0  0  0  0  0
    5.1558   54.5412   27.2682 H   0  0  0  0  0  0
    2.3345   55.1996   28.6019 H   0  0  0  0  0  0
    1.2341   54.8960   27.2829 H   0  0  0  0  0  0
    0.1153   54.4596   29.4571 H   0  0  0  0  0  0
    0.1421   53.0426   28.4564 H   0  0  0  0  0  0
    0.7795   52.3458   30.7198 H   0  0  0  0  0  0
    1.8937   53.6809   30.8758 H   0  0  0  0  0  0
    2.2510   51.2064   29.1156 H   0  0  0  0  0  0
    3.2468   51.7359   30.4396 H   0  0  0  0  0  0
    4.2872   52.2097   28.2410 H   0  0  0  0  0  0
    4.0675   53.6880   29.1547 H   0  0  0  0  0  0
    0.6266   52.4498   19.6383 H   0  0  0  0  0  0
    0.1274   54.2565   18.0411 H   0  0  0  0  0  0
    0.4946   53.9011   15.6202 H   0  0  0  0  0  0
    1.3881   51.7462   14.7955 H   0  0  0  0  0  0
    1.9034   49.9367   16.4004 H   0  0  0  0  0  0
    0.1459   50.1767   27.2034 H   0  0  0  0  0  0
  1  2  1  0  0  0
  1 40  1  0  0  0
  1 41  1  0  0  0
  1 42  1  0  0  0
  2  3  1  0  0  0
  2  4  1  0  0  0
  2 33  1  0  0  0
  4  5  2  0  0  0
  4  6  1  0  0  0
  6 11  1  0  0  0
  6  7  1  0  0  0
  7  8  1  0  0  0
  7 43  1  0  0  0
  7 44  1  0  0  0
  8  9  1  0  0  0
  8 10  1  0  0  0
  8 17  1  0  0  0
 10 16  1  0  0  0
 10 11  1  0  0  0
 10 12  1  0  0  0
 11 45  1  0  0  0
 11 46  1  0  0  0
 12 13  1  0  0  0
 12 47  1  0  0  0
 12 48  1  0  0  0
 13 14  1  0  0  0
 13 49  1  0  0  0
 13 50  1  0  0  0
 14 15  1  0  0  0
 14 51  1  0  0  0
 14 78  1  0  0  0
 15 16  1  0  0  0
 15 52  1  0  0  0
 15 53  1  0  0  0
 16 54  1  0  0  0
 16 55  1  0  0  0
 17 18  2  0  0  0
 17 19  1  0  0  0
 19 20  1  0  0  0
 19 56  1  0  0  0
 20 21  1  0  0  0
 20 57  1  0  0  0
 20 58  1  0  0  0
 21 26  2  0  0  0
 21 22  1  0  0  0
 22 23  2  0  0  0
 22 59  1  0  0  0
 23 24  1  0  0  0
 23 60  1  0  0  0
 24 25  2  0  0  0
 24 61  1  0  0  0
 25 26  1  0  0  0
 25 62  1  0  0  0
 26 27  1  0  0  0
 27 32  1  0  0  0
 27 28  1  0  0  0
 28 29  1  0  0  0
 28 63  1  0  0  0
 28 64  1  0  0  0
 29 30  1  0  0  0
 29 65  1  0  0  0
 29 66  1  0  0  0
 30 31  1  0  0  0
 30 67  1  0  0  0
 30 68  1  0  0  0
 31 32  1  0  0  0
 31 69  1  0  0  0
 31 70  1  0  0  0
 32 71  1  0  0  0
 32 72  1  0  0  0
 33 34  1  0  0  0
 34 39  2  0  0  0
 34 35  1  0  0  0
 35 36  2  0  0  0
 35 73  1  0  0  0
 36 37  1  0  0  0
 36 74  1  0  0  0
 37 38  2  0  0  0
 37 75  1  0  0  0
 38 39  1  0  0  0
 38 76  1  0  0  0
 39 77  1  0  0  0
M  CHG  1  14   1
M  END
> <i_i_glide_confnum>
680

> <i_i_glide_lignum>
5551

> <i_i_glide_posenum>
225

> <i_i_glide_rotatable_bonds>
9

> <i_m_Source_File_Index>
3496

> <b_m_subgroup_collapsed>
0

> <r_i_docking_score>
-2.53833

> <r_i_glide_ecoul>
-6.04175

> <r_i_glide_eff_state_penalty>
0

> <r_i_glide_einternal>
15.6189

> <r_i_glide_emodel>
-36.0232

> <r_i_glide_energy>
-43.9127

> <r_i_glide_erotb>
0.639956

> <r_i_glide_esite>
-0.101634

> <r_i_glide_evdw>
-37.8709

> <r_i_glide_gscore>
-2.53833

> <r_i_glide_hbond>
-0.2

> <r_i_glide_ligand_efficiency>
-0.0686035

> <r_i_glide_ligand_efficiency_ln>
-0.550504

> <r_i_glide_ligand_efficiency_sa>
-0.228602

> <r_i_glide_lipo>
-2.52202

> <r_i_glide_metal>
0

> <r_i_glide_rewards>
2.44518

> <s_i_glide_gridfile>
wee1_glide-grid

> <s_m_Source_File>
wee1_decoys_glide_SP.sdf

> <s_m_Source_Path>
/Users/zhangxujun/Desktop

> <s_m_entry_id>
3771

> <s_m_entry_name>
wee1_decoys_glide_SP.3496

> <s_m_subgroup_title>
wee1_decoys_glide_SP

> <s_m_subgroupid>
wee1_decoys_glide_SP


$$$$
