ZINC06075285_5624
                    3D
 Schrodinger Suite 2024-2.
 55 58  0  0  1  0            999 V2000
    1.7296   52.4152   29.6383 C   0  0  0  0  0  0
    0.5939   52.5564   28.5924 C   0  0  0  0  0  0
   -0.4614   51.4740   28.9090 C   0  0  0  0  0  0
   -0.0954   53.9263   28.8073 C   0  0  0  0  0  0
    1.1814   52.3671   27.1341 C   0  0  1  0  0  0
    1.8846   51.5370   27.2141 H   0  0  0  0  0  0
    0.1345   52.0730   26.0221 C   0  0  0  0  0  0
    0.7586   51.6837   24.6605 C   0  0  0  0  0  0
    1.9038   52.6325   24.3009 C   0  0  0  0  0  0
    2.4884   53.4682   25.2522 C   0  0  0  0  0  0
    3.7525   54.4941   24.6248 S   0  0  0  0  0  0
    3.5816   53.7569   23.0517 C   0  0  0  0  0  0
    2.5618   52.7534   23.0230 C   0  0  0  0  0  0
    2.4403   52.0767   21.7800 C   0  0  0  0  0  0
    3.2248   52.3996   20.7186 N   0  0  0  0  0  0
    4.1303   53.3874   20.8923 C   0  0  0  0  0  0
    4.3625   54.0966   22.0221 N   0  0  0  0  0  0
    1.3165   50.7241   21.5470 S   0  0  0  0  0  0
    1.6612   49.9856   19.9078 C   0  0  0  0  0  0
    0.9940   48.6263   19.6517 C   0  0  0  0  0  0
    0.0892   48.2279   20.3862 O   0  0  0  0  0  0
    1.4532   47.9569   18.5723 N   0  0  0  0  0  0
    1.1047   46.6734   18.1067 C   0  0  0  0  0  0
    1.5075   46.3639   16.8062 C   0  0  0  0  0  0
    1.2951   45.0894   16.2862 C   0  0  0  0  0  0
    0.7038   44.1033   17.0741 C   0  0  0  0  0  0
    0.2983   44.3769   18.3906 C   0  0  0  0  0  0
    0.4729   45.6826   18.8817 C   0  0  0  0  0  0
   -0.2538   43.2819   19.2600 C   0  0  0  0  0  0
   -0.8258   43.5760   20.3351 O   0  0  0  0  0  0
    2.0632   53.5762   26.7078 C   0  0  0  0  0  0
    1.3486   52.4766   30.6593 H   0  0  0  0  0  0
    2.4814   53.1972   29.5367 H   0  0  0  0  0  0
    2.2398   51.4562   29.5437 H   0  0  0  0  0  0
   -1.3995   51.6390   28.3771 H   0  0  0  0  0  0
   -0.0951   50.4967   28.6143 H   0  0  0  0  0  0
   -0.7096   51.4277   29.9710 H   0  0  0  0  0  0
   -0.8947   54.0960   28.0819 H   0  0  0  0  0  0
   -0.5466   53.9844   29.7988 H   0  0  0  0  0  0
    0.6017   54.7615   28.7510 H   0  0  0  0  0  0
   -0.4961   51.2354   26.3177 H   0  0  0  0  0  0
   -0.5668   52.8966   25.9186 H   0  0  0  0  0  0
    1.1126   50.6524   24.6919 H   0  0  0  0  0  0
   -0.0229   51.7125   23.9009 H   0  0  0  0  0  0
    4.7388   53.6314   20.0335 H   0  0  0  0  0  0
    1.3314   50.6835   19.1388 H   0  0  0  0  0  0
    2.7412   49.8702   19.8014 H   0  0  0  0  0  0
    2.1384   48.4356   18.0010 H   0  0  0  0  0  0
    2.0048   47.1050   16.1948 H   0  0  0  0  0  0
    1.6140   44.8578   15.2809 H   0  0  0  0  0  0
    0.5817   43.1130   16.6574 H   0  0  0  0  0  0
    0.1690   45.8948   19.8951 H   0  0  0  0  0  0
    1.5036   54.4967   26.8080 H   0  0  0  0  0  0
    2.9406   53.6620   27.3488 H   0  0  0  0  0  0
   -0.0947   42.0967   18.8820 O   0  5  0  0  0  0
  1  2  1  0  0  0
  1 32  1  0  0  0
  1 33  1  0  0  0
  1 34  1  0  0  0
  2  3  1  0  0  0
  2  4  1  0  0  0
  2  5  1  0  0  0
  3 35  1  0  0  0
  3 36  1  0  0  0
  3 37  1  0  0  0
  4 38  1  0  0  0
  4 39  1  0  0  0
  4 40  1  0  0  0
  5  6  1  0  0  0
  5 31  1  0  0  0
  5  7  1  0  0  0
  7  8  1  0  0  0
  7 41  1  0  0  0
  7 42  1  0  0  0
  8  9  1  0  0  0
  8 43  1  0  0  0
  8 44  1  0  0  0
  9 13  1  0  0  0
  9 10  2  0  0  0
 10 11  1  0  0  0
 10 31  1  0  0  0
 11 12  1  0  0  0
 12 17  2  0  0  0
 12 13  1  0  0  0
 13 14  2  0  0  0
 14 15  1  0  0  0
 14 18  1  0  0  0
 15 16  2  0  0  0
 16 17  1  0  0  0
 16 45  1  0  0  0
 18 19  1  0  0  0
 19 20  1  0  0  0
 19 46  1  0  0  0
 19 47  1  0  0  0
 20 21  2  0  0  0
 20 22  1  0  0  0
 22 23  1  0  0  0
 22 48  1  0  0  0
 23 28  2  0  0  0
 23 24  1  0  0  0
 24 25  2  0  0  0
 24 49  1  0  0  0
 25 26  1  0  0  0
 25 50  1  0  0  0
 26 27  2  0  0  0
 26 51  1  0  0  0
 27 28  1  0  0  0
 27 29  1  0  0  0
 28 52  1  0  0  0
 29 30  2  0  0  0
 29 55  1  0  0  0
 31 53  1  0  0  0
 31 54  1  0  0  0
M  CHG  1  55  -1
M  END
> <i_i_glide_confnum>
6

> <i_i_glide_lignum>
5625

> <i_i_glide_posenum>
240

> <i_i_glide_rotatable_bonds>
7

> <i_m_Source_File_Index>
3994

> <b_m_subgroup_collapsed>
0

> <r_i_docking_score>
-4.64697

> <r_i_glide_ecoul>
-6.34168

> <r_i_glide_eff_state_penalty>
0

> <r_i_glide_einternal>
5.25313

> <r_i_glide_emodel>
-53.7771

> <r_i_glide_energy>
-40.1938

> <r_i_glide_erotb>
0.485903

> <r_i_glide_esite>
-0.122574

> <r_i_glide_evdw>
-33.8521

> <r_i_glide_gscore>
-4.64697

> <r_i_glide_hbond>
-0.307893

> <r_i_glide_ligand_efficiency>
-0.149902

> <r_i_glide_ligand_efficiency_ln>
-1.04803

> <r_i_glide_ligand_efficiency_sa>
-0.4709

> <r_i_glide_lipo>
-1.69795

> <r_i_glide_metal>
0

> <r_i_glide_rewards>
-0.360596

> <s_i_glide_gridfile>
wee1_glide-grid

> <s_m_Source_File>
wee1_decoys_glide_SP.sdf

> <s_m_Source_Path>
/Users/zhangxujun/Desktop

> <s_m_entry_id>
4269

> <s_m_entry_name>
wee1_decoys_glide_SP.3994

> <s_m_subgroup_title>
wee1_decoys_glide_SP

> <s_m_subgroupid>
wee1_decoys_glide_SP


$$$$
