ZINC35692856_5648
                    3D
 Schrodinger Suite 2024-2.
 57 61  0  0  1  0            999 V2000
   -4.1008   49.0366   22.3764 C   0  0  0  0  0  0
   -3.3969   50.0134   21.4309 C   0  0  0  0  0  0
   -2.3407   50.6468   22.1364 O   0  0  0  0  0  0
   -1.6458   51.6649   21.5875 C   0  0  0  0  0  0
   -1.8355   52.0957   20.4473 O   0  0  0  0  0  0
   -0.5842   52.1847   22.4669 C   0  0  0  0  0  0
   -0.7595   52.3903   23.8120 C   0  0  0  0  0  0
    0.2309   52.8724   24.6159 N   0  0  0  0  0  0
    1.3872   53.0874   24.1299 C   0  0  0  0  0  0
    1.8082   52.9096   22.8112 N   0  0  0  0  0  0
    0.8070   52.4390   21.7975 C   0  0  1  0  0  0
    0.6996   53.2907   21.1238 H   0  0  0  0  0  0
    1.3049   51.2594   20.9436 C   0  0  0  0  0  0
    1.4022   51.4339   19.5555 C   0  0  0  0  0  0
    1.9041   50.4184   18.7445 C   0  0  0  0  0  0
    2.2928   49.2070   19.3081 C   0  0  0  0  0  0
    2.1607   49.0068   20.6809 C   0  0  0  0  0  0
    1.6651   50.0204   21.5013 C   0  0  0  0  0  0
    1.5038   49.7014   23.1915 Cl  0  0  0  0  0  0
    3.1298   53.2935   22.5696 C   0  0  0  0  0  0
    3.7265   53.7515   23.6859 C   0  0  0  0  0  0
    2.7165   53.6970   25.1177 S   0  0  0  0  0  0
    3.8200   53.2387   21.2819 C   0  0  0  0  0  0
    4.8641   53.9791   20.8627 C   0  0  0  0  0  0
    5.5399   54.8970   21.4565 O   0  5  0  0  0  0
    5.3687   53.7802   19.5998 N   0  0  0  0  0  0
    5.5218   54.8108   18.5852 C   0  0  0  0  0  0
    5.3545   54.3628   17.1500 C   0  0  0  0  0  0
    4.2753   55.1820   17.8111 C   0  0  0  0  0  0
   -2.0367   52.2462   24.5659 C   0  0  0  0  0  0
   -3.1850   52.9443   24.1703 C   0  0  0  0  0  0
   -4.3740   52.8106   24.8821 C   0  0  0  0  0  0
   -4.4201   51.9749   25.9956 C   0  0  0  0  0  0
   -3.2880   51.2726   26.4020 C   0  0  0  0  0  0
   -2.1007   51.4100   25.6891 C   0  0  0  0  0  0
   -4.9259   48.5339   21.8722 H   0  0  0  0  0  0
   -3.4109   48.2725   22.7363 H   0  0  0  0  0  0
   -4.5069   49.5565   23.2451 H   0  0  0  0  0  0
   -4.1097   50.7552   21.0664 H   0  0  0  0  0  0
   -2.9984   49.4834   20.5644 H   0  0  0  0  0  0
    1.1244   52.3753   19.1037 H   0  0  0  0  0  0
    2.0193   50.5729   17.6811 H   0  0  0  0  0  0
    2.7073   48.4338   18.6771 H   0  0  0  0  0  0
    2.4674   48.0678   21.1136 H   0  0  0  0  0  0
    4.7427   54.1078   23.7639 H   0  0  0  0  0  0
    3.4718   52.5110   20.5735 H   0  0  0  0  0  0
    5.1377   52.8953   19.1718 H   0  0  0  0  0  0
    6.2518   55.5875   18.8200 H   0  0  0  0  0  0
    5.1760   53.3052   16.9456 H   0  0  0  0  0  0
    5.9836   54.8257   16.3899 H   0  0  0  0  0  0
    4.1399   56.2243   17.5212 H   0  0  0  0  0  0
    3.3319   54.7081   18.0873 H   0  0  0  0  0  0
   -3.1538   53.5971   23.3104 H   0  0  0  0  0  0
   -5.2564   53.3493   24.5687 H   0  0  0  0  0  0
   -5.3423   51.8664   26.5470 H   0  0  0  0  0  0
   -3.3243   50.6199   27.2632 H   0  0  0  0  0  0
   -1.2255   50.8608   26.0076 H   0  0  0  0  0  0
  1  2  1  0  0  0
  1 36  1  0  0  0
  1 37  1  0  0  0
  1 38  1  0  0  0
  2  3  1  0  0  0
  2 39  1  0  0  0
  2 40  1  0  0  0
  3  4  1  0  0  0
  4  5  2  0  0  0
  4  6  1  0  0  0
  6 11  1  0  0  0
  6  7  2  0  0  0
  7  8  1  0  0  0
  7 30  1  0  0  0
  8  9  2  0  0  0
  9 22  1  0  0  0
  9 10  1  0  0  0
 10 11  1  0  0  0
 10 20  1  0  0  0
 11 12  1  0  0  0
 11 13  1  0  0  0
 13 18  2  0  0  0
 13 14  1  0  0  0
 14 15  2  0  0  0
 14 41  1  0  0  0
 15 16  1  0  0  0
 15 42  1  0  0  0
 16 17  2  0  0  0
 16 43  1  0  0  0
 17 18  1  0  0  0
 17 44  1  0  0  0
 18 19  1  0  0  0
 20 21  2  0  0  0
 20 23  1  0  0  0
 21 22  1  0  0  0
 21 45  1  0  0  0
 23 24  2  0  0  0
 23 46  1  0  0  0
 24 25  1  0  0  0
 24 26  1  0  0  0
 26 27  1  0  0  0
 26 47  1  0  0  0
 27 29  1  0  0  0
 27 28  1  0  0  0
 27 48  1  0  0  0
 28 29  1  0  0  0
 28 49  1  0  0  0
 28 50  1  0  0  0
 29 51  1  0  0  0
 29 52  1  0  0  0
 30 35  2  0  0  0
 30 31  1  0  0  0
 31 32  2  0  0  0
 31 53  1  0  0  0
 32 33  1  0  0  0
 32 54  1  0  0  0
 33 34  2  0  0  0
 33 55  1  0  0  0
 34 35  1  0  0  0
 34 56  1  0  0  0
 35 57  1  0  0  0
M  CHG  1  25  -1
M  END
> <i_i_glide_confnum>
6

> <i_i_glide_lignum>
5649

> <i_i_glide_posenum>
350

> <i_i_glide_rotatable_bonds>
8

> <i_m_Source_File_Index>
2480

> <b_m_subgroup_collapsed>
0

> <r_i_docking_score>
-4.05471

> <r_i_glide_ecoul>
-3.99889

> <r_i_glide_eff_state_penalty>
0

> <r_i_glide_einternal>
6.55167

> <r_i_glide_emodel>
-49.4588

> <r_i_glide_energy>
-42.7678

> <r_i_glide_erotb>
0.502828

> <r_i_glide_esite>
-0.040363

> <r_i_glide_evdw>
-38.7689

> <r_i_glide_gscore>
-4.05471

> <r_i_glide_hbond>
-0.235673

> <r_i_glide_ligand_efficiency>
-0.119256

> <r_i_glide_ligand_efficiency_ln>
-0.895798

> <r_i_glide_ligand_efficiency_sa>
-0.386343

> <r_i_glide_lipo>
-1.22591

> <r_i_glide_metal>
0

> <r_i_glide_rewards>
-0.517312

> <s_i_glide_gridfile>
wee1_glide-grid

> <s_m_Source_File>
wee1_decoys_glide_SP.sdf

> <s_m_Source_Path>
/Users/zhangxujun/Desktop

> <s_m_entry_id>
2755

> <s_m_entry_name>
wee1_decoys_glide_SP.2480

> <s_m_subgroup_title>
wee1_decoys_glide_SP

> <s_m_subgroupid>
wee1_decoys_glide_SP


$$$$
