ZINC66771809_1507
                    3D
 Schrodinger Suite 2024-2.
 44 47  0  0  1  0            999 V2000
    6.6691   58.4964   17.7244 C   0  0  0  0  0  0
    7.4661   57.2186   17.5535 C   0  0  0  0  0  0
    8.0263   56.8352   16.3239 C   0  0  0  0  0  0
    8.7202   55.6382   16.3590 C   0  0  0  0  0  0
    8.7098   54.9377   17.9326 S   0  0  0  0  0  0
    7.7576   56.2734   18.5584 C   0  0  0  0  0  0
    7.3657   56.3222   19.9571 C   0  0  0  0  0  0
    6.7043   57.2656   20.4054 O   0  0  0  0  0  0
    7.8055   55.2979   20.7194 N   0  0  0  0  0  0
    7.4966   55.2349   22.0819 N   0  0  0  0  0  0
    6.3049   54.7163   22.4811 C   0  0  0  0  0  0
    5.4327   54.3258   21.7007 O   0  0  0  0  0  0
    6.0933   54.6451   23.9199 C   0  0  0  0  0  0
    4.8580   54.4383   24.5660 C   0  0  0  0  0  0
    5.1773   54.3162   25.9172 N   0  0  0  0  0  0
    6.4974   54.5008   26.0768 N   0  0  0  0  0  0
    7.0478   54.7061   24.8345 N   0  0  0  0  0  0
    4.3605   54.0395   27.0570 C   0  0  0  0  0  0
    4.7607   54.4611   28.3342 C   0  0  0  0  0  0
    4.0037   54.1720   29.4660 C   0  0  0  0  0  0
    2.7948   53.4476   29.3538 C   0  0  0  0  0  0
    2.3725   53.0079   28.0653 C   0  0  0  0  0  0
    3.1724   53.3042   26.9353 C   0  0  0  0  0  0
    1.1589   52.2792   27.9772 C   0  0  0  0  0  0
    0.4238   52.0306   29.1348 C   0  0  0  0  0  0
    0.9091   52.4970   30.3540 C   0  0  0  0  0  0
    2.0717   53.1836   30.4801 N   0  0  0  0  0  0
    3.4449   54.3606   24.0068 C   0  0  0  0  0  0
    7.1069   59.1426   18.4858 H   0  0  0  0  0  0
    6.5902   59.0860   16.8099 H   0  0  0  0  0  0
    5.6570   58.2902   18.0716 H   0  0  0  0  0  0
    7.9241   57.4254   15.4242 H   0  0  0  0  0  0
    9.2314   55.1413   15.5475 H   0  0  0  0  0  0
    8.3431   54.5127   20.3816 H   0  0  0  0  0  0
    8.2537   55.5064   22.6979 H   0  0  0  0  0  0
    5.6790   55.0177   28.4660 H   0  0  0  0  0  0
    4.3438   54.4961   30.4371 H   0  0  0  0  0  0
    2.8500   52.9073   25.9864 H   0  0  0  0  0  0
    0.8104   51.9230   27.0188 H   0  0  0  0  0  0
   -0.5032   51.4757   29.0905 H   0  0  0  0  0  0
    0.3551   52.3138   31.2652 H   0  0  0  0  0  0
    3.3513   54.8963   23.0617 H   0  0  0  0  0  0
    3.1377   53.3344   23.8061 H   0  0  0  0  0  0
    2.7062   54.8167   24.6643 H   0  0  0  0  0  0
  1  2  1  0  0  0
  1 29  1  0  0  0
  1 30  1  0  0  0
  1 31  1  0  0  0
  2  6  2  0  0  0
  2  3  1  0  0  0
  3  4  2  0  0  0
  3 32  1  0  0  0
  4  5  1  0  0  0
  4 33  1  0  0  0
  5  6  1  0  0  0
  6  7  1  0  0  0
  7  8  2  0  0  0
  7  9  1  0  0  0
  9 10  1  0  0  0
  9 34  1  0  0  0
 10 11  1  0  0  0
 10 35  1  0  0  0
 11 12  2  0  0  0
 11 13  1  0  0  0
 13 17  1  0  0  0
 13 14  2  0  0  0
 14 15  1  0  0  0
 14 28  1  0  0  0
 15 16  1  0  0  0
 15 18  1  0  0  0
 16 17  2  0  0  0
 18 23  2  0  0  0
 18 19  1  0  0  0
 19 20  2  0  0  0
 19 36  1  0  0  0
 20 21  1  0  0  0
 20 37  1  0  0  0
 21 27  2  0  0  0
 21 22  1  0  0  0
 22 23  1  0  0  0
 22 24  2  0  0  0
 23 38  1  0  0  0
 24 25  1  0  0  0
 24 39  1  0  0  0
 25 26  2  0  0  0
 25 40  1  0  0  0
 26 27  1  0  0  0
 26 41  1  0  0  0
 28 42  1  0  0  0
 28 43  1  0  0  0
 28 44  1  0  0  0
M  END
> <i_i_glide_confnum>
27

> <i_i_glide_lignum>
1508

> <i_i_glide_posenum>
342

> <i_i_glide_rotatable_bonds>
6

> <i_m_Source_File_Index>
1410

> <b_m_subgroup_collapsed>
0

> <r_i_docking_score>
-7.18866

> <r_i_glide_ecoul>
-9.03495

> <r_i_glide_eff_state_penalty>
0

> <r_i_glide_einternal>
1.10868

> <r_i_glide_emodel>
-74.605

> <r_i_glide_energy>
-52.0934

> <r_i_glide_erotb>
0.760677

> <r_i_glide_esite>
-0.0162183

> <r_i_glide_evdw>
-43.0584

> <r_i_glide_gscore>
-7.18866

> <r_i_glide_hbond>
-0.796152

> <r_i_glide_ligand_efficiency>
-0.256738

> <r_i_glide_ligand_efficiency_ln>
-1.65935

> <r_i_glide_ligand_efficiency_sa>
-0.779607

> <r_i_glide_lipo>
-2.15994

> <r_i_glide_metal>
0

> <r_i_glide_rewards>
-1.46886

> <s_i_glide_gridfile>
wee1_glide-grid

> <s_m_Source_File>
wee1_decoys_glide_SP.sdf

> <s_m_Source_Path>
/Users/zhangxujun/Desktop

> <s_m_entry_id>
1685

> <s_m_entry_name>
wee1_decoys_glide_SP.1410

> <s_m_subgroup_title>
wee1_decoys_glide_SP

> <s_m_subgroupid>
wee1_decoys_glide_SP


$$$$
