ZINC16571461_6101
                    3D
 Schrodinger Suite 2024-2.
 48 51  0  0  1  0            999 V2000
    8.4980   58.6623   16.4630 C   0  0  0  0  0  0
    7.1247   58.8013   16.6217 C   0  0  0  0  0  0
    6.4777   58.2093   17.6986 C   0  0  0  0  0  0
    7.2121   57.4515   18.6371 C   0  0  0  0  0  0
    8.6123   57.3531   18.4817 C   0  0  0  0  0  0
    9.2383   57.9434   17.3925 C   0  0  0  0  0  0
    6.5077   56.8388   19.8420 C   0  0  0  0  0  0
    6.8197   55.3500   20.1647 C   0  0  1  0  0  0
    7.8881   55.2544   20.3704 H   0  0  0  0  0  0
    6.0390   54.8968   21.4178 C   0  0  0  0  0  0
    4.8809   54.4965   21.2911 O   0  0  0  0  0  0
    6.7050   55.0119   22.5885 N   0  0  0  0  0  0
    6.2207   54.7839   23.8700 C   0  0  0  0  0  0
    6.9400   55.0861   24.9208 N   0  0  0  0  0  0
    6.2999   54.8028   26.1189 N   0  0  0  0  0  0
    5.0984   54.2919   25.9562 C   0  0  0  0  0  0
    4.6584   54.0974   24.2731 S   0  0  0  0  0  0
    4.1962   53.8745   27.0797 C   0  0  0  0  0  0
    2.8226   53.6964   26.8721 C   0  0  0  0  0  0
    1.9956   53.2933   27.9189 C   0  0  0  0  0  0
    2.5378   53.0611   29.1786 C   0  0  0  0  0  0
    3.9002   53.2395   29.4026 C   0  0  0  0  0  0
    4.7257   53.6522   28.3588 C   0  0  0  0  0  0
    1.4199   52.4985   30.6139 Br  0  0  0  0  0  0
    6.4662   54.5363   18.9938 N   0  0  0  0  0  0
    7.3198   54.0826   18.0588 C   0  0  0  0  0  0
    8.5396   54.2494   18.1025 O   0  0  0  0  0  0
    6.7178   53.3701   16.9577 C   0  0  0  0  0  0
    7.3820   52.5993   16.0022 C   0  0  0  0  0  0
    6.5338   52.0977   15.0104 C   0  0  0  0  0  0
    5.2167   52.4964   15.1828 C   0  0  0  0  0  0
    5.0168   53.5082   16.5740 S   0  0  0  0  0  0
    8.9883   59.1209   15.6193 H   0  0  0  0  0  0
    6.5552   59.3893   15.9155 H   0  0  0  0  0  0
    5.4121   58.3395   17.8058 H   0  0  0  0  0  0
    9.2083   56.8050   19.1973 H   0  0  0  0  0  0
   10.3046   57.8395   17.2670 H   0  0  0  0  0  0
    6.7019   57.4671   20.7086 H   0  0  0  0  0  0
    5.4376   56.9276   19.6560 H   0  0  0  0  0  0
    7.6579   55.3477   22.5572 H   0  0  0  0  0  0
    2.3841   53.8666   25.9002 H   0  0  0  0  0  0
    0.9379   53.1530   27.7492 H   0  0  0  0  0  0
    4.3045   53.0529   30.3868 H   0  0  0  0  0  0
    5.7832   53.7840   28.5473 H   0  0  0  0  0  0
    5.4915   54.2834   18.9241 H   0  0  0  0  0  0
    8.4467   52.4058   16.0267 H   0  0  0  0  0  0
    6.8655   51.4644   14.2010 H   0  0  0  0  0  0
    4.3638   52.2395   14.5736 H   0  0  0  0  0  0
  1  6  2  0  0  0
  1  2  1  0  0  0
  1 33  1  0  0  0
  2  3  2  0  0  0
  2 34  1  0  0  0
  3  4  1  0  0  0
  3 35  1  0  0  0
  4  5  2  0  0  0
  4  7  1  0  0  0
  5  6  1  0  0  0
  5 36  1  0  0  0
  6 37  1  0  0  0
  7  8  1  0  0  0
  7 38  1  0  0  0
  7 39  1  0  0  0
  8  9  1  0  0  0
  8 10  1  0  0  0
  8 25  1  0  0  0
 10 11  2  0  0  0
 10 12  1  0  0  0
 12 13  1  0  0  0
 12 40  1  0  0  0
 13 17  1  0  0  0
 13 14  2  0  0  0
 14 15  1  0  0  0
 15 16  2  0  0  0
 16 17  1  0  0  0
 16 18  1  0  0  0
 18 23  2  0  0  0
 18 19  1  0  0  0
 19 20  2  0  0  0
 19 41  1  0  0  0
 20 21  1  0  0  0
 20 42  1  0  0  0
 21 22  2  0  0  0
 21 24  1  0  0  0
 22 23  1  0  0  0
 22 43  1  0  0  0
 23 44  1  0  0  0
 25 26  1  0  0  0
 25 45  1  0  0  0
 26 27  2  0  0  0
 26 28  1  0  0  0
 28 32  1  0  0  0
 28 29  2  0  0  0
 29 30  1  0  0  0
 29 46  1  0  0  0
 30 31  2  0  0  0
 30 47  1  0  0  0
 31 32  1  0  0  0
 31 48  1  0  0  0
M  END
> <i_i_glide_confnum>
185

> <i_i_glide_lignum>
6102

> <i_i_glide_posenum>
330

> <i_i_glide_rotatable_bonds>
9

> <i_m_Source_File_Index>
365

> <b_m_subgroup_collapsed>
0

> <r_i_docking_score>
-4.48818

> <r_i_glide_ecoul>
-0.199659

> <r_i_glide_eff_state_penalty>
0

> <r_i_glide_einternal>
5.49692

> <r_i_glide_emodel>
-58.6093

> <r_i_glide_energy>
-46.4059

> <r_i_glide_erotb>
0.544521

> <r_i_glide_esite>
0

> <r_i_glide_evdw>
-46.2063

> <r_i_glide_gscore>
-4.48818

> <r_i_glide_hbond>
-0.0779351

> <r_i_glide_ligand_efficiency>
-0.14478

> <r_i_glide_ligand_efficiency_ln>
-1.01222

> <r_i_glide_ligand_efficiency_sa>
-0.454809

> <r_i_glide_lipo>
-2.18858

> <r_i_glide_metal>
0

> <r_i_glide_rewards>
-0.425915

> <s_i_glide_gridfile>
wee1_glide-grid

> <s_m_Source_File>
wee1_decoys_glide_SP.sdf

> <s_m_Source_Path>
/Users/zhangxujun/Desktop

> <s_m_entry_id>
640

> <s_m_entry_name>
wee1_decoys_glide_SP.365

> <s_m_subgroup_title>
wee1_decoys_glide_SP

> <s_m_subgroupid>
wee1_decoys_glide_SP


$$$$
