ZINC50708256_4803
                    3D
 Schrodinger Suite 2024-2.
 36 37  0  0  1  0            999 V2000
   -0.0790   51.3085   28.4378 C   0  0  0  0  0  0
    0.8272   52.5043   28.5946 C   0  0  0  0  0  0
    2.1317   52.6989   28.1789 C   0  0  0  0  0  0
    2.6906   53.9586   28.4585 C   0  0  0  0  0  0
    1.7533   54.8023   29.0659 C   0  0  0  0  0  0
    0.3040   53.9221   29.4198 S   0  0  0  0  0  0
    1.8447   56.2613   29.4540 C   0  0  0  0  0  0
    4.1430   54.3185   28.1681 C   0  0  1  0  0  0
    4.3670   55.2966   28.5931 H   0  0  0  0  0  0
    5.0499   53.2751   28.8525 C   0  0  0  0  0  0
    4.3520   54.3804   26.7183 N   0  0  0  0  0  0
    5.5117   54.6489   26.0814 C   0  0  0  0  0  0
    6.5605   54.9127   26.6748 O   0  0  0  0  0  0
    5.4786   54.6051   24.5682 C   0  0  0  0  0  0
    6.5732   55.0733   23.8264 C   0  0  0  0  0  0
    6.5358   55.0056   22.4332 C   0  0  0  0  0  0
    5.4862   54.4942   21.7516 N   0  0  0  0  0  0
    4.4260   54.0380   22.4630 C   0  0  0  0  0  0
    4.3792   54.0936   23.8571 C   0  0  0  0  0  0
    3.1002   53.3388   21.6125 Cl  0  0  0  0  0  0
    7.5950   55.4963   21.6821 N   0  0  0  0  0  0
    0.3868   50.5062   27.8660 H   0  0  0  0  0  0
   -0.3703   50.8967   29.4032 H   0  0  0  0  0  0
   -0.9999   51.5678   27.9166 H   0  0  0  0  0  0
    2.6899   51.9244   27.6817 H   0  0  0  0  0  0
    2.7044   56.4662   30.0816 H   0  0  0  0  0  0
    1.9158   56.9061   28.5794 H   0  0  0  0  0  0
    0.9742   56.5974   30.0177 H   0  0  0  0  0  0
    4.7047   53.0939   29.8718 H   0  0  0  0  0  0
    5.0262   52.3174   28.3337 H   0  0  0  0  0  0
    6.0897   53.6022   28.8818 H   0  0  0  0  0  0
    3.5085   54.4221   26.1683 H   0  0  0  0  0  0
    7.4298   55.5004   24.3266 H   0  0  0  0  0  0
    3.5080   53.7011   24.3603 H   0  0  0  0  0  0
    8.4585   55.6973   22.1743 H   0  0  0  0  0  0
    7.5848   55.3398   20.6845 H   0  0  0  0  0  0
  1  2  1  0  0  0
  1 22  1  0  0  0
  1 23  1  0  0  0
  1 24  1  0  0  0
  2  6  1  0  0  0
  2  3  2  0  0  0
  3  4  1  0  0  0
  3 25  1  0  0  0
  4  5  2  0  0  0
  4  8  1  0  0  0
  5  6  1  0  0  0
  5  7  1  0  0  0
  7 26  1  0  0  0
  7 27  1  0  0  0
  7 28  1  0  0  0
  8  9  1  0  0  0
  8 10  1  0  0  0
  8 11  1  0  0  0
 10 29  1  0  0  0
 10 30  1  0  0  0
 10 31  1  0  0  0
 11 12  1  0  0  0
 11 32  1  0  0  0
 12 13  2  0  0  0
 12 14  1  0  0  0
 14 19  2  0  0  0
 14 15  1  0  0  0
 15 16  2  0  0  0
 15 33  1  0  0  0
 16 17  1  0  0  0
 16 21  1  0  0  0
 17 18  2  0  0  0
 18 19  1  0  0  0
 18 20  1  0  0  0
 19 34  1  0  0  0
 21 35  1  0  0  0
 21 36  1  0  0  0
M  END
> <i_i_glide_confnum>
16

> <i_i_glide_lignum>
4804

> <i_i_glide_posenum>
377

> <i_i_glide_rotatable_bonds>
4

> <i_m_Source_File_Index>
478

> <b_m_subgroup_collapsed>
0

> <r_i_docking_score>
-6.94181

> <r_i_glide_ecoul>
-3.58169

> <r_i_glide_eff_state_penalty>
0

> <r_i_glide_einternal>
4.12366

> <r_i_glide_emodel>
-55.7119

> <r_i_glide_energy>
-41.7489

> <r_i_glide_erotb>
0.771855

> <r_i_glide_esite>
0

> <r_i_glide_evdw>
-38.1672

> <r_i_glide_gscore>
-6.94181

> <r_i_glide_hbond>
-0.407368

> <r_i_glide_ligand_efficiency>
-0.34709

> <r_i_glide_ligand_efficiency_ln>
-1.7373

> <r_i_glide_ligand_efficiency_sa>
-0.942148

> <r_i_glide_lipo>
-3.08131

> <r_i_glide_metal>
0

> <r_i_glide_rewards>
-1.77937

> <s_i_glide_gridfile>
wee1_glide-grid

> <s_m_Source_File>
wee1_decoys_glide_SP.sdf

> <s_m_Source_Path>
/Users/zhangxujun/Desktop

> <s_m_entry_id>
753

> <s_m_entry_name>
wee1_decoys_glide_SP.478

> <s_m_subgroup_title>
wee1_decoys_glide_SP

> <s_m_subgroupid>
wee1_decoys_glide_SP


$$$$
