ZINC63530630_6072
                    3D
 Schrodinger Suite 2024-2.
 57 61  0  0  1  0            999 V2000
   -2.0012   49.2556   25.6815 C   0  0  0  0  0  0
   -0.9848   50.2801   25.2141 C   0  0  0  0  0  0
   -0.9035   50.6402   23.9080 C   0  0  0  0  0  0
    0.0011   51.6478   23.4222 C   0  0  0  0  0  0
    0.3902   51.8430   22.2254 N   0  0  0  0  0  0
    1.5469   52.7275   22.2661 C   0  0  1  0  0  0
    1.2545   53.6867   21.8304 H   0  0  0  0  0  0
    1.9619   52.8596   23.7435 C   0  0  2  0  0  0
    2.7042   52.1129   24.0344 H   0  0  0  0  0  0
    0.6544   52.5736   24.4559 C   0  0  2  0  0  0
    0.0678   53.4931   24.4944 H   0  0  0  0  0  0
    0.6845   51.9617   25.8637 C   0  0  0  0  0  0
   -0.0990   50.9121   26.1911 C   0  0  0  0  0  0
    2.6720   54.4967   24.0817 S   0  0  0  0  0  0
    3.9143   54.2973   25.3136 C   0  0  0  0  0  0
    3.5549   54.1769   26.6552 C   0  0  0  0  0  0
    4.5451   54.0020   27.6185 C   0  0  0  0  0  0
    5.8842   53.9624   27.2333 C   0  0  0  0  0  0
    6.2435   54.1198   25.8950 C   0  0  0  0  0  0
    5.2541   54.2848   24.9302 C   0  0  0  0  0  0
    7.1045   53.6969   28.4209 Cl  0  0  0  0  0  0
    2.6952   52.1201   21.4257 C   0  0  0  0  0  0
    3.1046   50.9806   21.6617 O   0  0  0  0  0  0
    3.2233   52.8966   20.4632 N   0  0  0  0  0  0
    4.2934   52.4580   19.5664 C   0  0  0  0  0  0
    5.1179   53.5999   18.9418 C   0  0  0  0  0  0
    4.3651   54.6088   18.0845 C   0  0  0  0  0  0
    4.6648   55.8857   17.7775 C   0  0  0  0  0  0
    5.8198   56.7193   18.1488 C   0  0  0  0  0  0
    5.9369   57.9814   17.6869 C   0  0  0  0  0  0
    4.8842   58.4949   16.8239 C   0  0  0  0  0  0
    3.8037   57.7451   16.4816 C   0  0  0  0  0  0
    3.6816   56.4271   16.9419 C   0  0  0  0  0  0
    2.7410   55.5449   16.7076 N   0  3  0  0  0  0
    3.0601   54.2769   17.3859 C   0  0  0  0  0  0
   -2.5702   49.6644   26.5182 H   0  0  0  0  0  0
   -2.7057   48.9586   24.9044 H   0  0  0  0  0  0
   -1.4904   48.3770   26.0799 H   0  0  0  0  0  0
   -1.5813   50.1748   23.2083 H   0  0  0  0  0  0
    1.3177   52.3884   26.6249 H   0  0  0  0  0  0
   -0.0627   50.5115   27.1956 H   0  0  0  0  0  0
    2.5177   54.2212   26.9496 H   0  0  0  0  0  0
    4.2762   53.8911   28.6583 H   0  0  0  0  0  0
    7.2798   54.0929   25.5970 H   0  0  0  0  0  0
    5.5254   54.3897   23.8897 H   0  0  0  0  0  0
    2.8129   53.8076   20.2984 H   0  0  0  0  0  0
    4.9772   51.7774   20.0812 H   0  0  0  0  0  0
    3.8261   51.8715   18.7732 H   0  0  0  0  0  0
    5.6741   54.1257   19.7179 H   0  0  0  0  0  0
    5.8698   53.1424   18.2967 H   0  0  0  0  0  0
    6.6027   56.3411   18.7903 H   0  0  0  0  0  0
    6.7769   58.6090   17.9512 H   0  0  0  0  0  0
    4.9666   59.5083   16.4535 H   0  0  0  0  0  0
    3.0511   58.1899   15.8461 H   0  0  0  0  0  0
    3.1582   53.4964   16.6290 H   0  0  0  0  0  0
    2.2405   54.0366   18.0634 H   0  0  0  0  0  0
    1.9186   55.6966   16.1295 H   0  0  0  0  0  0
  1  2  1  0  0  0
  1 36  1  0  0  0
  1 37  1  0  0  0
  1 38  1  0  0  0
  2 13  1  0  0  0
  2  3  2  0  0  0
  3  4  1  0  0  0
  3 39  1  0  0  0
  4 10  1  0  0  0
  4  5  2  0  0  0
  5  6  1  0  0  0
  6  7  1  0  0  0
  6  8  1  0  0  0
  6 22  1  0  0  0
  8  9  1  0  0  0
  8 10  1  0  0  0
  8 14  1  0  0  0
 10 11  1  0  0  0
 10 12  1  0  0  0
 12 13  2  0  0  0
 12 40  1  0  0  0
 13 41  1  0  0  0
 14 15  1  0  0  0
 15 20  2  0  0  0
 15 16  1  0  0  0
 16 17  2  0  0  0
 16 42  1  0  0  0
 17 18  1  0  0  0
 17 43  1  0  0  0
 18 19  2  0  0  0
 18 21  1  0  0  0
 19 20  1  0  0  0
 19 44  1  0  0  0
 20 45  1  0  0  0
 22 23  2  0  0  0
 22 24  1  0  0  0
 24 25  1  0  0  0
 24 46  1  0  0  0
 25 26  1  0  0  0
 25 47  1  0  0  0
 25 48  1  0  0  0
 26 27  1  0  0  0
 26 49  1  0  0  0
 26 50  1  0  0  0
 27 35  1  0  0  0
 27 28  2  0  0  0
 28 33  1  0  0  0
 28 29  1  0  0  0
 29 30  2  0  0  0
 29 51  1  0  0  0
 30 31  1  0  0  0
 30 52  1  0  0  0
 31 32  2  0  0  0
 31 53  1  0  0  0
 32 33  1  0  0  0
 32 54  1  0  0  0
 33 34  2  0  0  0
 34 35  1  0  0  0
 34 57  1  0  0  0
 35 55  1  0  0  0
 35 56  1  0  0  0
M  CHG  1  34   1
M  END
> <i_i_glide_confnum>
38

> <i_i_glide_lignum>
6073

> <i_i_glide_posenum>
266

> <i_i_glide_rotatable_bonds>
7

> <i_m_Source_File_Index>
346

> <b_m_subgroup_collapsed>
0

> <r_i_docking_score>
-5.9113

> <r_i_glide_ecoul>
-6.52632

> <r_i_glide_eff_state_penalty>
0

> <r_i_glide_einternal>
4.05269

> <r_i_glide_emodel>
-65.004

> <r_i_glide_energy>
-47.5877

> <r_i_glide_erotb>
0.5639

> <r_i_glide_esite>
0

> <r_i_glide_evdw>
-41.0613

> <r_i_glide_gscore>
-5.9113

> <r_i_glide_hbond>
-0.32

> <r_i_glide_ligand_efficiency>
-0.184728

> <r_i_glide_ligand_efficiency_ln>
-1.3237

> <r_i_glide_ligand_efficiency_sa>
-0.586476

> <r_i_glide_lipo>
-2.70487

> <r_i_glide_metal>
0

> <r_i_glide_rewards>
-0.418316

> <s_i_glide_gridfile>
wee1_glide-grid

> <s_m_Source_File>
wee1_decoys_glide_SP.sdf

> <s_m_Source_Path>
/Users/zhangxujun/Desktop

> <s_m_entry_id>
621

> <s_m_entry_name>
wee1_decoys_glide_SP.346

> <s_m_subgroup_title>
wee1_decoys_glide_SP

> <s_m_subgroupid>
wee1_decoys_glide_SP


$$$$
