ZINC39609131_174
                    3D
 Schrodinger Suite 2024-2.
 76 80  0  0  1  0            999 V2000
   -7.7622   50.8950   28.4590 C   0  0  0  0  0  0
   -6.5943   50.6506   29.4047 C   0  0  0  0  0  0
   -6.8049   50.7795   30.7837 C   0  0  0  0  0  0
   -5.7614   50.5715   31.6841 C   0  0  0  0  0  0
   -4.4979   50.2309   31.2148 C   0  0  0  0  0  0
   -4.2809   50.0960   29.8473 C   0  0  0  0  0  0
   -5.3155   50.2990   28.9288 C   0  0  0  0  0  0
   -4.9882   50.1780   27.4374 C   0  0  0  0  0  0
   -4.3831   51.4943   26.9100 C   0  0  0  0  0  0
   -5.1083   52.4912   26.8807 O   0  0  0  0  0  0
   -3.0881   51.5422   26.5143 N   0  0  0  0  0  0
   -2.4338   52.8176   26.2195 C   0  0  0  0  0  0
   -0.9352   52.4983   26.3294 C   0  0  2  0  0  0
   -0.3788   53.0647   25.5840 H   0  0  0  0  0  0
   -0.8198   51.0043   25.9479 C   0  0  0  0  0  0
   -2.1541   50.4078   26.4632 C   0  0  0  0  0  0
    0.4510   50.3189   26.5076 C   0  0  0  0  0  0
    0.6598   48.8968   26.0129 C   0  0  0  0  0  0
    0.7032   48.8974   24.4771 N   0  3  0  0  0  0
   -0.5759   49.4868   23.8541 C   0  0  0  0  0  0
   -0.7308   50.9222   24.3873 C   0  0  0  0  0  0
   -0.2954   52.8084   27.7133 C   0  0  0  0  0  0
   -0.8562   52.4964   28.7618 O   0  0  0  0  0  0
    0.8861   53.4425   27.6831 N   0  0  0  0  0  0
    1.6238   53.8852   28.8610 C   0  0  2  0  0  0
    1.6582   53.1252   29.6466 H   0  0  0  0  0  0
    1.0972   55.2055   29.4442 C   0  0  0  0  0  0
    2.2923   55.9392   30.0575 C   0  0  0  0  0  0
    3.5181   55.0904   29.6816 C   0  0  0  0  0  0
    3.0642   54.2465   28.5044 C   0  0  1  0  0  0
    3.1034   54.8365   27.5876 H   0  0  0  0  0  0
    3.8647   53.0768   28.3630 O   0  0  0  0  0  0
    5.2281   53.3111   27.9995 C   0  0  0  0  0  0
    5.3840   53.9500   26.6231 C   0  0  0  0  0  0
    4.4550   53.6972   25.6073 C   0  0  0  0  0  0
    4.6880   54.1540   24.3150 C   0  0  0  0  0  0
    5.8350   54.8967   24.0546 C   0  0  0  0  0  0
    6.7093   55.2345   25.0801 C   0  0  0  0  0  0
    6.4994   54.7452   26.3642 C   0  0  0  0  0  0
   -7.9991   49.9856   27.9070 H   0  0  0  0  0  0
   -8.6599   51.2206   28.9862 H   0  0  0  0  0  0
   -7.5160   51.6675   27.7314 H   0  0  0  0  0  0
   -7.7806   51.0416   31.1659 H   0  0  0  0  0  0
   -5.9230   50.6816   32.7463 H   0  0  0  0  0  0
   -3.6800   50.0841   31.9072 H   0  0  0  0  0  0
   -3.2947   49.8284   29.5015 H   0  0  0  0  0  0
   -4.3163   49.3335   27.2966 H   0  0  0  0  0  0
   -5.8730   49.9334   26.8519 H   0  0  0  0  0  0
   -2.6455   53.1147   25.1916 H   0  0  0  0  0  0
   -2.7015   53.6429   26.8810 H   0  0  0  0  0  0
   -2.0079   50.0987   27.4971 H   0  0  0  0  0  0
   -2.4865   49.5274   25.9142 H   0  0  0  0  0  0
    1.3119   50.9472   26.2894 H   0  0  0  0  0  0
    0.4052   50.2807   27.5956 H   0  0  0  0  0  0
    1.6110   48.4959   26.3571 H   0  0  0  0  0  0
   -0.1502   48.2293   26.3158 H   0  0  0  0  0  0
    1.5133   49.4182   24.1737 H   0  0  0  0  0  0
   -0.4372   49.4561   22.7731 H   0  0  0  0  0  0
   -1.3994   48.8259   24.1275 H   0  0  0  0  0  0
   -1.6161   51.3704   23.9335 H   0  0  0  0  0  0
    0.1019   51.5227   24.0165 H   0  0  0  0  0  0
    1.2970   53.6669   26.7901 H   0  0  0  0  0  0
    0.7046   55.8268   28.6385 H   0  0  0  0  0  0
    0.2827   55.0379   30.1491 H   0  0  0  0  0  0
    2.1548   56.0966   31.1249 H   0  0  0  0  0  0
    2.3782   56.9325   29.6167 H   0  0  0  0  0  0
    3.8580   54.4386   30.4826 H   0  0  0  0  0  0
    4.3648   55.6968   29.3837 H   0  0  0  0  0  0
    5.7344   53.9023   28.7645 H   0  0  0  0  0  0
    5.7443   52.3558   27.9831 H   0  0  0  0  0  0
    3.5871   53.0879   25.8058 H   0  0  0  0  0  0
    3.9948   53.9272   23.5195 H   0  0  0  0  0  0
    6.0269   55.2582   23.0537 H   0  0  0  0  0  0
    7.5712   55.8482   24.8698 H   0  0  0  0  0  0
    7.2043   54.9670   27.1520 H   0  0  0  0  0  0
    0.8594   47.9509   24.1598 H   0  0  0  0  0  0
  1  2  1  0  0  0
  1 40  1  0  0  0
  1 41  1  0  0  0
  1 42  1  0  0  0
  2  7  2  0  0  0
  2  3  1  0  0  0
  3  4  2  0  0  0
  3 43  1  0  0  0
  4  5  1  0  0  0
  4 44  1  0  0  0
  5  6  2  0  0  0
  5 45  1  0  0  0
  6  7  1  0  0  0
  6 46  1  0  0  0
  7  8  1  0  0  0
  8  9  1  0  0  0
  8 47  1  0  0  0
  8 48  1  0  0  0
  9 10  2  0  0  0
  9 11  1  0  0  0
 11 16  1  0  0  0
 11 12  1  0  0  0
 12 13  1  0  0  0
 12 49  1  0  0  0
 12 50  1  0  0  0
 13 14  1  0  0  0
 13 15  1  0  0  0
 13 22  1  0  0  0
 15 21  1  0  0  0
 15 16  1  0  0  0
 15 17  1  0  0  0
 16 51  1  0  0  0
 16 52  1  0  0  0
 17 18  1  0  0  0
 17 53  1  0  0  0
 17 54  1  0  0  0
 18 19  1  0  0  0
 18 55  1  0  0  0
 18 56  1  0  0  0
 19 20  1  0  0  0
 19 57  1  0  0  0
 19 76  1  0  0  0
 20 21  1  0  0  0
 20 58  1  0  0  0
 20 59  1  0  0  0
 21 60  1  0  0  0
 21 61  1  0  0  0
 22 23  2  0  0  0
 22 24  1  0  0  0
 24 25  1  0  0  0
 24 62  1  0  0  0
 25 26  1  0  0  0
 25 30  1  0  0  0
 25 27  1  0  0  0
 27 28  1  0  0  0
 27 63  1  0  0  0
 27 64  1  0  0  0
 28 29  1  0  0  0
 28 65  1  0  0  0
 28 66  1  0  0  0
 29 30  1  0  0  0
 29 67  1  0  0  0
 29 68  1  0  0  0
 30 31  1  0  0  0
 30 32  1  0  0  0
 32 33  1  0  0  0
 33 34  1  0  0  0
 33 69  1  0  0  0
 33 70  1  0  0  0
 34 39  2  0  0  0
 34 35  1  0  0  0
 35 36  2  0  0  0
 35 71  1  0  0  0
 36 37  1  0  0  0
 36 72  1  0  0  0
 37 38  2  0  0  0
 37 73  1  0  0  0
 38 39  1  0  0  0
 38 74  1  0  0  0
 39 75  1  0  0  0
M  CHG  1  19   1
M  END
> <i_i_glide_confnum>
1117

> <i_i_glide_lignum>
175

> <i_i_glide_posenum>
326

> <i_i_glide_rotatable_bonds>
9

> <i_m_Source_File_Index>
5751

> <b_m_subgroup_collapsed>
0

> <r_i_docking_score>
-4.61659

> <r_i_glide_ecoul>
-4.95141

> <r_i_glide_eff_state_penalty>
0

> <r_i_glide_einternal>
4.50531

> <r_i_glide_emodel>
-45.6898

> <r_i_glide_energy>
-36.7919

> <r_i_glide_erotb>
0.760844

> <r_i_glide_esite>
-0.0819414

> <r_i_glide_evdw>
-31.8405

> <r_i_glide_gscore>
-4.61659

> <r_i_glide_hbond>
0

> <r_i_glide_ligand_efficiency>
-0.128239

> <r_i_glide_ligand_efficiency_ln>
-1.00722

> <r_i_glide_ligand_efficiency_sa>
-0.423435

> <r_i_glide_lipo>
-2.70961

> <r_i_glide_metal>
0

> <r_i_glide_rewards>
-0.25115

> <s_i_glide_gridfile>
wee1_glide-grid

> <s_m_Source_File>
wee1_decoys_glide_SP.sdf

> <s_m_Source_Path>
/Users/zhangxujun/Desktop

> <s_m_entry_id>
6026

> <s_m_entry_name>
wee1_decoys_glide_SP.5751

> <s_m_subgroup_title>
wee1_decoys_glide_SP

> <s_m_subgroupid>
wee1_decoys_glide_SP


$$$$
