ZINC04925197_4568
                    3D
 Schrodinger Suite 2024-2.
 47 50  0  0  1  0            999 V2000
    3.7043   51.7739   20.8118 C   0  0  0  0  0  0
    2.6883   50.8903   21.1652 C   0  0  0  0  0  0
    1.7263   51.2547   22.1206 C   0  0  0  0  0  0
    1.7932   52.5281   22.7035 C   0  0  0  0  0  0
    2.8075   53.4109   22.3499 C   0  0  0  0  0  0
    3.7765   53.0250   21.4175 C   0  0  0  0  0  0
    4.8370   53.8810   21.0736 N   0  0  0  0  0  0
    5.6719   54.5572   21.9148 C   0  0  0  0  0  0
    6.7047   55.6966   21.2705 S   0  0  0  0  0  0
    5.5993   54.1954   23.2304 N   0  0  0  0  0  0
    6.2831   54.8420   24.3505 C   0  0  0  0  0  0
    5.6580   54.4965   25.7019 C   0  0  0  0  0  0
    6.4756   54.4860   26.8270 C   0  0  0  0  0  0
    6.0285   54.0957   28.0835 C   0  0  0  0  0  0
    4.6943   53.7030   28.1908 C   0  0  0  0  0  0
    3.8191   53.7010   27.0682 C   0  0  0  0  0  0
    4.3152   54.1130   25.8215 C   0  0  0  0  0  0
    2.5505   53.2144   27.5227 C   0  0  0  0  0  0
    2.6667   53.0051   28.8906 C   0  0  0  0  0  0
    3.9622   53.2536   29.2693 N   0  0  0  0  0  0
    4.2888   53.1118   30.2128 H   0  0  0  0  0  0
    1.5808   52.4572   29.8058 C   0  0  0  0  0  0
    0.4354   51.8835   28.9352 C   0  0  0  0  0  0
    0.0931   52.7793   27.7238 C   0  0  0  0  0  0
    1.2823   52.9162   26.7410 C   0  0  0  0  0  0
    0.6476   50.3121   22.5034 N   0  3  0  0  0  0
    0.5915   49.2253   21.9359 O   0  0  0  0  0  0
   -0.1542   50.6580   23.3675 O   0  5  0  0  0  0
    4.4410   51.4757   20.0818 H   0  0  0  0  0  0
    2.6588   49.9185   20.6911 H   0  0  0  0  0  0
    1.0578   52.8426   23.4306 H   0  0  0  0  0  0
    2.8360   54.3962   22.7934 H   0  0  0  0  0  0
    4.9874   54.0150   20.0836 H   0  0  0  0  0  0
    5.1280   53.3286   23.4448 H   0  0  0  0  0  0
    7.3202   54.5025   24.3404 H   0  0  0  0  0  0
    6.3009   55.9268   24.2340 H   0  0  0  0  0  0
    7.5043   54.7667   26.7327 H   0  0  0  0  0  0
    6.7078   54.0885   28.9184 H   0  0  0  0  0  0
    3.6598   54.1068   24.9662 H   0  0  0  0  0  0
    1.9593   51.7000   30.4928 H   0  0  0  0  0  0
    1.1839   53.2648   30.4217 H   0  0  0  0  0  0
    0.7189   50.8967   28.5683 H   0  0  0  0  0  0
   -0.4511   51.7247   29.5513 H   0  0  0  0  0  0
   -0.7717   52.3757   27.1953 H   0  0  0  0  0  0
   -0.2051   53.7662   28.0816 H   0  0  0  0  0  0
    1.1044   53.6964   26.0035 H   0  0  0  0  0  0
    1.4061   51.9918   26.1759 H   0  0  0  0  0  0
  1  6  2  0  0  0
  1  2  1  0  0  0
  1 29  1  0  0  0
  2  3  2  0  0  0
  2 30  1  0  0  0
  3  4  1  0  0  0
  3 26  1  0  0  0
  4  5  2  0  0  0
  4 31  1  0  0  0
  5  6  1  0  0  0
  5 32  1  0  0  0
  6  7  1  0  0  0
  7  8  1  0  0  0
  7 33  1  0  0  0
  8  9  2  0  0  0
  8 10  1  0  0  0
 10 11  1  0  0  0
 10 34  1  0  0  0
 11 12  1  0  0  0
 11 35  1  0  0  0
 11 36  1  0  0  0
 12 17  2  0  0  0
 12 13  1  0  0  0
 13 14  2  0  0  0
 13 37  1  0  0  0
 14 15  1  0  0  0
 14 38  1  0  0  0
 15 20  1  0  0  0
 15 16  2  0  0  0
 16 17  1  0  0  0
 16 18  1  0  0  0
 17 39  1  0  0  0
 18 25  1  0  0  0
 18 19  2  0  0  0
 19 20  1  0  0  0
 19 22  1  0  0  0
 20 21  1  0  0  0
 22 23  1  0  0  0
 22 40  1  0  0  0
 22 41  1  0  0  0
 23 24  1  0  0  0
 23 42  1  0  0  0
 23 43  1  0  0  0
 24 25  1  0  0  0
 24 44  1  0  0  0
 24 45  1  0  0  0
 25 46  1  0  0  0
 25 47  1  0  0  0
 26 27  2  0  0  0
 26 28  1  0  0  0
M  CHG  2  26   1  28  -1
M  END
> <i_i_glide_confnum>
48

> <i_i_glide_lignum>
4569

> <i_i_glide_posenum>
105

> <i_i_glide_rotatable_bonds>
6

> <i_m_Source_File_Index>
1541

> <b_m_subgroup_collapsed>
0

> <r_i_docking_score>
-5.9485

> <r_i_glide_ecoul>
0.834029

> <r_i_glide_eff_state_penalty>
0

> <r_i_glide_einternal>
9.91945

> <r_i_glide_emodel>
-54.8991

> <r_i_glide_energy>
-45.208

> <r_i_glide_erotb>
0.536106

> <r_i_glide_esite>
0

> <r_i_glide_evdw>
-46.042

> <r_i_glide_gscore>
-5.9485

> <r_i_glide_hbond>
0

> <r_i_glide_ligand_efficiency>
-0.220315

> <r_i_glide_ligand_efficiency_ln>
-1.38471

> <r_i_glide_ligand_efficiency_sa>
-0.660944

> <r_i_glide_lipo>
-3.17575

> <r_i_glide_metal>
0

> <r_i_glide_rewards>
-1.13186

> <s_i_glide_gridfile>
wee1_glide-grid

> <s_m_Source_File>
wee1_decoys_glide_SP.sdf

> <s_m_Source_Path>
/Users/zhangxujun/Desktop

> <s_m_entry_id>
1816

> <s_m_entry_name>
wee1_decoys_glide_SP.1541

> <s_m_subgroup_title>
wee1_decoys_glide_SP

> <s_m_subgroupid>
wee1_decoys_glide_SP


$$$$
