ZINC37606219_3826
                    3D
 Schrodinger Suite 2024-2.
 32 34  0  0  1  0            999 V2000
    5.1044   53.6346   21.6097 C   0  0  0  0  0  0
    5.5172   54.0967   22.8608 C   0  0  0  0  0  0
    4.6271   54.1296   23.9424 C   0  0  0  0  0  0
    3.3067   53.6967   23.7308 C   0  0  0  0  0  0
    2.9089   53.1884   22.4941 C   0  0  0  0  0  0
    3.8057   53.1656   21.4294 C   0  0  0  0  0  0
    1.1487   52.4967   22.2731 Br  0  0  0  0  0  0
    5.1185   54.6994   25.2859 C   0  0  0  0  0  0
    4.5538   54.0967   26.5670 C   0  0  0  0  0  0
    3.2612   54.0424   26.7990 N   0  0  0  0  0  0
    3.2013   53.4254   27.9436 C   0  0  0  0  0  0
    4.4222   53.1922   28.4891 O   0  0  0  0  0  0
    5.3306   53.6651   27.5395 N   0  0  0  0  0  0
    1.9735   52.9444   28.6383 C   0  0  0  0  0  0
    1.9319   52.9033   30.0373 C   0  0  0  0  0  0
    0.7693   52.4967   30.6938 C   0  0  0  0  0  0
   -0.3447   52.0967   29.9584 C   0  0  0  0  0  0
   -0.3007   52.0994   28.5670 C   0  0  0  0  0  0
    0.8483   52.5290   27.9059 C   0  0  0  0  0  0
    0.8604   52.5175   26.5520 F   0  0  0  0  0  0
    0.7044   52.4475   32.0817 N   0  0  0  0  0  0
    5.7914   53.6352   20.7764 H   0  0  0  0  0  0
    6.5326   54.4476   22.9798 H   0  0  0  0  0  0
    2.5647   53.7212   24.5100 H   0  0  0  0  0  0
    3.4941   52.7877   20.4660 H   0  0  0  0  0  0
    6.2088   54.6557   25.3057 H   0  0  0  0  0  0
    4.8828   55.7608   25.2817 H   0  0  0  0  0  0
    2.8003   53.1965   30.6066 H   0  0  0  0  0  0
   -1.2339   51.7431   30.4630 H   0  0  0  0  0  0
   -1.1556   51.7596   28.0006 H   0  0  0  0  0  0
    1.5334   52.4967   32.6576 H   0  0  0  0  0  0
   -0.1910   52.1320   32.4944 H   0  0  0  0  0  0
  1  6  2  0  0  0
  1  2  1  0  0  0
  1 22  1  0  0  0
  2  3  2  0  0  0
  2 23  1  0  0  0
  3  4  1  0  0  0
  3  8  1  0  0  0
  4  5  2  0  0  0
  4 24  1  0  0  0
  5  6  1  0  0  0
  5  7  1  0  0  0
  6 25  1  0  0  0
  8  9  1  0  0  0
  8 26  1  0  0  0
  8 27  1  0  0  0
  9 13  2  0  0  0
  9 10  1  0  0  0
 10 11  2  0  0  0
 11 12  1  0  0  0
 11 14  1  0  0  0
 12 13  1  0  0  0
 14 19  2  0  0  0
 14 15  1  0  0  0
 15 16  2  0  0  0
 15 28  1  0  0  0
 16 17  1  0  0  0
 16 21  1  0  0  0
 17 18  2  0  0  0
 17 29  1  0  0  0
 18 19  1  0  0  0
 18 30  1  0  0  0
 19 20  1  0  0  0
 21 31  1  0  0  0
 21 32  1  0  0  0
M  END
> <i_i_glide_confnum>
5

> <i_i_glide_lignum>
3827

> <i_i_glide_posenum>
289

> <i_i_glide_rotatable_bonds>
3

> <i_m_Source_File_Index>
5463

> <b_m_subgroup_collapsed>
0

> <r_i_docking_score>
-5.82933

> <r_i_glide_ecoul>
-4.67059

> <r_i_glide_eff_state_penalty>
0

> <r_i_glide_einternal>
1.94306

> <r_i_glide_emodel>
-53.9271

> <r_i_glide_energy>
-38.7545

> <r_i_glide_erotb>
0.471036

> <r_i_glide_esite>
-0.1

> <r_i_glide_evdw>
-34.0839

> <r_i_glide_gscore>
-5.82933

> <r_i_glide_hbond>
-0.304331

> <r_i_glide_ligand_efficiency>
-0.277587

> <r_i_glide_ligand_efficiency_ln>
-1.44129

> <r_i_glide_ligand_efficiency_sa>
-0.765842

> <r_i_glide_lipo>
-1.97441

> <r_i_glide_metal>
0

> <r_i_glide_rewards>
-1.51685

> <s_i_glide_gridfile>
wee1_glide-grid

> <s_m_Source_File>
wee1_decoys_glide_SP.sdf

> <s_m_Source_Path>
/Users/zhangxujun/Desktop

> <s_m_entry_id>
5738

> <s_m_entry_name>
wee1_decoys_glide_SP.5463

> <s_m_subgroup_title>
wee1_decoys_glide_SP

> <s_m_subgroupid>
wee1_decoys_glide_SP


$$$$
