ZINC40988795_5356
                    3D
 Schrodinger Suite 2024-2.
 74 78  0  0  1  0            999 V2000
    1.3321   49.4103   22.1057 C   0  0  0  0  0  0
    0.2349   49.6958   23.1145 C   0  0  0  0  0  0
    0.3029   49.1485   24.3966 C   0  0  0  0  0  0
   -0.6759   49.4407   25.3331 C   0  0  0  0  0  0
   -1.7593   50.2524   24.9839 C   0  0  0  0  0  0
   -1.8438   50.7812   23.6906 C   0  0  0  0  0  0
   -0.8455   50.5054   22.7592 C   0  0  0  0  0  0
   -2.8017   50.6275   26.0456 C   0  0  2  0  0  0
   -3.7137   50.9384   25.5313 H   0  0  0  0  0  0
   -2.3138   51.7934   26.9792 C   0  0  0  0  0  0
   -0.9668   52.3243   26.7156 N   0  0  0  0  0  0
    0.0932   52.2365   27.5391 C   0  0  0  0  0  0
    0.0388   51.7036   28.6461 O   0  0  0  0  0  0
    1.3110   52.8541   27.0431 C   0  0  0  0  0  0
    2.4306   53.1676   27.8408 C   0  0  0  0  0  0
    3.3765   53.6972   26.9618 C   0  0  0  0  0  0
    2.7799   53.6952   25.7175 N   0  0  0  0  0  0
    1.5357   53.1898   25.7838 N   0  0  0  0  0  0
    3.2715   54.2329   24.4245 C   0  0  2  0  0  0
    3.0109   55.2928   24.4794 H   0  0  0  0  0  0
    2.5566   53.6579   23.1698 C   0  0  0  0  0  0
    3.2974   54.1416   21.9194 C   0  0  0  0  0  0
    5.0871   53.8913   22.3533 S   0  0  0  0  0  0
    5.9037   54.9795   21.8091 O   0  0  0  0  0  0
    5.4437   52.4966   22.0819 O   0  0  0  0  0  0
    4.8101   54.1352   24.2017 C   0  0  0  0  0  0
    4.7393   54.2581   27.3572 C   0  0  0  0  0  0
    4.7887   54.4147   28.8960 C   0  0  0  0  0  0
    4.1980   53.1990   29.6375 C   0  0  0  0  0  0
    2.7014   52.9908   29.3335 C   0  0  0  0  0  0
   -3.3601   49.4255   26.8817 N   0  3  0  0  0  0
   -4.5437   49.8200   27.8158 C   0  0  0  0  0  0
   -4.6902   48.8580   29.0061 C   0  0  0  0  0  0
   -5.5995   47.6378   28.7809 C   0  0  0  0  0  0
   -5.4875   46.9477   27.4097 C   0  0  0  0  0  0
   -4.0735   46.9140   26.8039 C   0  0  0  0  0  0
   -3.6828   48.1771   26.0117 C   0  0  0  0  0  0
    1.9174   50.3117   21.9186 H   0  0  0  0  0  0
    2.0089   48.6234   22.4430 H   0  0  0  0  0  0
    0.9063   49.0923   21.1516 H   0  0  0  0  0  0
    1.1046   48.4968   24.6897 H   0  0  0  0  0  0
   -0.5877   49.0363   26.3340 H   0  0  0  0  0  0
   -2.6677   51.4223   23.4131 H   0  0  0  0  0  0
   -0.9069   50.9263   21.7661 H   0  0  0  0  0  0
   -2.3788   51.5110   28.0319 H   0  0  0  0  0  0
   -3.0000   52.6342   26.8696 H   0  0  0  0  0  0
   -0.8223   52.7705   25.8212 H   0  0  0  0  0  0
    1.5020   53.9396   23.1348 H   0  0  0  0  0  0
    2.5999   52.5656   23.1918 H   0  0  0  0  0  0
    3.1338   55.2127   21.8250 H   0  0  0  0  0  0
    3.0607   53.6827   20.9599 H   0  0  0  0  0  0
    5.2881   53.2941   24.6938 H   0  0  0  0  0  0
    5.3254   55.0392   24.5247 H   0  0  0  0  0  0
    5.5206   53.5605   27.0549 H   0  0  0  0  0  0
    4.9495   55.2117   26.8734 H   0  0  0  0  0  0
    5.8162   54.5904   29.2171 H   0  0  0  0  0  0
    4.2279   55.3005   29.1908 H   0  0  0  0  0  0
    4.7585   52.3023   29.3679 H   0  0  0  0  0  0
    4.3043   53.3200   30.7152 H   0  0  0  0  0  0
    2.1019   53.7065   29.8959 H   0  0  0  0  0  0
    2.3951   52.0028   29.6778 H   0  0  0  0  0  0
   -4.3362   50.8080   28.2161 H   0  0  0  0  0  0
   -5.4383   49.9019   27.1969 H   0  0  0  0  0  0
   -3.6963   48.5087   29.2930 H   0  0  0  0  0  0
   -5.0480   49.4094   29.8776 H   0  0  0  0  0  0
   -5.3840   46.9106   29.5652 H   0  0  0  0  0  0
   -6.6385   47.9305   28.9370 H   0  0  0  0  0  0
   -6.1691   47.4247   26.7039 H   0  0  0  0  0  0
   -5.8597   45.9274   27.5102 H   0  0  0  0  0  0
   -4.0154   46.0668   26.1213 H   0  0  0  0  0  0
   -3.3274   46.7071   27.5752 H   0  0  0  0  0  0
   -4.4403   48.4852   25.2905 H   0  0  0  0  0  0
   -2.7701   47.9458   25.4693 H   0  0  0  0  0  0
   -2.5957   49.1199   27.4972 H   0  0  0  0  0  0
  1  2  1  0  0  0
  1 38  1  0  0  0
  1 39  1  0  0  0
  1 40  1  0  0  0
  2  7  2  0  0  0
  2  3  1  0  0  0
  3  4  2  0  0  0
  3 41  1  0  0  0
  4  5  1  0  0  0
  4 42  1  0  0  0
  5  6  2  0  0  0
  5  8  1  0  0  0
  6  7  1  0  0  0
  6 43  1  0  0  0
  7 44  1  0  0  0
  8  9  1  0  0  0
  8 10  1  0  0  0
  8 31  1  0  0  0
 10 11  1  0  0  0
 10 45  1  0  0  0
 10 46  1  0  0  0
 11 12  1  0  0  0
 11 47  1  0  0  0
 12 13  2  0  0  0
 12 14  1  0  0  0
 14 18  2  0  0  0
 14 15  1  0  0  0
 15 30  1  0  0  0
 15 16  2  0  0  0
 16 17  1  0  0  0
 16 27  1  0  0  0
 17 18  1  0  0  0
 17 19  1  0  0  0
 19 20  1  0  0  0
 19 26  1  0  0  0
 19 21  1  0  0  0
 21 22  1  0  0  0
 21 48  1  0  0  0
 21 49  1  0  0  0
 22 23  1  0  0  0
 22 50  1  0  0  0
 22 51  1  0  0  0
 23 24  2  0  0  0
 23 25  2  0  0  0
 23 26  1  0  0  0
 26 52  1  0  0  0
 26 53  1  0  0  0
 27 28  1  0  0  0
 27 54  1  0  0  0
 27 55  1  0  0  0
 28 29  1  0  0  0
 28 56  1  0  0  0
 28 57  1  0  0  0
 29 30  1  0  0  0
 29 58  1  0  0  0
 29 59  1  0  0  0
 30 60  1  0  0  0
 30 61  1  0  0  0
 31 37  1  0  0  0
 31 32  1  0  0  0
 31 74  1  0  0  0
 32 33  1  0  0  0
 32 62  1  0  0  0
 32 63  1  0  0  0
 33 34  1  0  0  0
 33 64  1  0  0  0
 33 65  1  0  0  0
 34 35  1  0  0  0
 34 66  1  0  0  0
 34 67  1  0  0  0
 35 36  1  0  0  0
 35 68  1  0  0  0
 35 69  1  0  0  0
 36 37  1  0  0  0
 36 70  1  0  0  0
 36 71  1  0  0  0
 37 72  1  0  0  0
 37 73  1  0  0  0
M  CHG  1  31   1
M  END
> <i_i_glide_confnum>
312

> <i_i_glide_lignum>
5357

> <i_i_glide_posenum>
382

> <i_i_glide_rotatable_bonds>
7

> <i_m_Source_File_Index>
6037

> <b_m_subgroup_collapsed>
0

> <r_i_docking_score>
-5.32642

> <r_i_glide_ecoul>
-5.12836

> <r_i_glide_eff_state_penalty>
0

> <r_i_glide_einternal>
7.70721

> <r_i_glide_emodel>
-57.0577

> <r_i_glide_energy>
-46.0791

> <r_i_glide_erotb>
0.572318

> <r_i_glide_esite>
-0.11807

> <r_i_glide_evdw>
-40.9508

> <r_i_glide_gscore>
-5.32642

> <r_i_glide_hbond>
-0.2

> <r_i_glide_ligand_efficiency>
-0.152183

> <r_i_glide_ligand_efficiency_ln>
-1.16927

> <r_i_glide_ligand_efficiency_sa>
-0.497802

> <r_i_glide_lipo>
-2.12808

> <r_i_glide_metal>
0

> <r_i_glide_rewards>
-0.635795

> <s_i_glide_gridfile>
wee1_glide-grid

> <s_m_Source_File>
wee1_decoys_glide_SP.sdf

> <s_m_Source_Path>
/Users/zhangxujun/Desktop

> <s_m_entry_id>
6312

> <s_m_entry_name>
wee1_decoys_glide_SP.6037

> <s_m_subgroup_title>
wee1_decoys_glide_SP

> <s_m_subgroupid>
wee1_decoys_glide_SP


$$$$
