ZINC54691218_4808
                    3D
 Schrodinger Suite 2024-2.
 44 46  0  0  1  0            999 V2000
    6.5100   54.0460   26.6051 C   0  0  0  0  0  0
    5.2292   54.3639   27.3964 C   0  0  2  0  0  0
    5.0225   55.4248   27.2954 H   0  0  0  0  0  0
    5.3985   54.0240   28.8814 C   0  0  0  0  0  0
    4.1753   54.4965   29.6815 C   0  0  0  0  0  0
    2.8689   53.8732   29.1671 C   0  0  0  0  0  0
    2.6992   53.9410   27.6273 C   0  0  1  0  0  0
    2.4037   54.9470   27.3352 H   0  0  0  0  0  0
    4.0138   53.5708   26.8847 C   0  0  0  0  0  0
    1.2613   52.8707   27.2683 S   0  0  0  0  0  0
    1.0588   52.5106   25.5372 C   0  0  0  0  0  0
    0.1386   51.5307   25.0945 C   0  0  0  0  0  0
    0.1126   51.2352   23.7197 C   0  0  0  0  0  0
    1.0160   51.8607   22.8600 C   0  0  0  0  0  0
    1.8539   52.8382   23.3814 C   0  0  0  0  0  0
    1.8693   53.1854   24.6858 N   0  0  0  0  0  0
    2.7153   53.4565   22.3138 C   0  0  0  0  0  0
    2.5366   52.4965   21.1310 C   0  0  0  0  0  0
    1.2292   51.7281   21.3699 C   0  0  0  0  0  0
   -0.7484   50.7939   26.0004 C   0  0  0  0  0  0
   -1.9188   51.2504   26.2114 N   0  0  0  0  0  0
   -2.6923   50.4979   27.1315 O   0  0  0  0  0  0
   -0.0954   49.6799   26.4814 N   0  0  0  0  0  0
    6.7619   52.9880   26.6700 H   0  0  0  0  0  0
    6.3992   54.2993   25.5505 H   0  0  0  0  0  0
    7.3588   54.6077   26.9948 H   0  0  0  0  0  0
    5.5779   52.9527   29.0022 H   0  0  0  0  0  0
    6.3004   54.4967   29.2712 H   0  0  0  0  0  0
    4.1019   55.5824   29.6314 H   0  0  0  0  0  0
    4.3052   54.2432   30.7316 H   0  0  0  0  0  0
    2.0191   54.3490   29.6600 H   0  0  0  0  0  0
    2.8629   52.8286   29.4851 H   0  0  0  0  0  0
    4.2110   52.5045   26.9765 H   0  0  0  0  0  0
    3.9437   53.7619   25.8178 H   0  0  0  0  0  0
   -0.5752   50.4909   23.3395 H   0  0  0  0  0  0
    3.7657   53.5358   22.6018 H   0  0  0  0  0  0
    2.3606   54.4618   22.0820 H   0  0  0  0  0  0
    3.3657   51.7861   21.1153 H   0  0  0  0  0  0
    2.5470   53.0134   20.1705 H   0  0  0  0  0  0
    0.4115   52.1935   20.8193 H   0  0  0  0  0  0
    1.3159   50.6937   21.0369 H   0  0  0  0  0  0
   -2.0945   49.8075   27.4534 H   0  0  0  0  0  0
   -0.5504   49.0396   27.1375 H   0  0  0  0  0  0
    0.8254   49.4420   26.1540 H   0  0  0  0  0  0
  1  2  1  0  0  0
  1 24  1  0  0  0
  1 25  1  0  0  0
  1 26  1  0  0  0
  2  3  1  0  0  0
  2  9  1  0  0  0
  2  4  1  0  0  0
  4  5  1  0  0  0
  4 27  1  0  0  0
  4 28  1  0  0  0
  5  6  1  0  0  0
  5 29  1  0  0  0
  5 30  1  0  0  0
  6  7  1  0  0  0
  6 31  1  0  0  0
  6 32  1  0  0  0
  7  8  1  0  0  0
  7  9  1  0  0  0
  7 10  1  0  0  0
  9 33  1  0  0  0
  9 34  1  0  0  0
 10 11  1  0  0  0
 11 16  2  0  0  0
 11 12  1  0  0  0
 12 13  2  0  0  0
 12 20  1  0  0  0
 13 14  1  0  0  0
 13 35  1  0  0  0
 14 19  1  0  0  0
 14 15  2  0  0  0
 15 16  1  0  0  0
 15 17  1  0  0  0
 17 18  1  0  0  0
 17 36  1  0  0  0
 17 37  1  0  0  0
 18 19  1  0  0  0
 18 38  1  0  0  0
 18 39  1  0  0  0
 19 40  1  0  0  0
 19 41  1  0  0  0
 20 21  2  0  0  0
 20 23  1  0  0  0
 21 22  1  0  0  0
 22 42  1  0  0  0
 23 43  1  0  0  0
 23 44  1  0  0  0
M  END
> <i_i_glide_confnum>
2

> <i_i_glide_lignum>
4809

> <i_i_glide_posenum>
45

> <i_i_glide_rotatable_bonds>
4

> <i_m_Source_File_Index>
5851

> <b_m_subgroup_collapsed>
0

> <r_i_docking_score>
-5.72328

> <r_i_glide_ecoul>
-8.0655

> <r_i_glide_eff_state_penalty>
0

> <r_i_glide_einternal>
3.55486

> <r_i_glide_emodel>
-52.9777

> <r_i_glide_energy>
-37.1883

> <r_i_glide_erotb>
0.791362

> <r_i_glide_esite>
-0.275818

> <r_i_glide_evdw>
-29.1228

> <r_i_glide_gscore>
-5.72328

> <r_i_glide_hbond>
-0.304

> <r_i_glide_ligand_efficiency>
-0.272537

> <r_i_glide_ligand_efficiency_ln>
-1.41507

> <r_i_glide_ligand_efficiency_sa>
-0.751909

> <r_i_glide_lipo>
-1.94231

> <r_i_glide_metal>
0

> <r_i_glide_rewards>
-1.32655

> <s_i_glide_gridfile>
wee1_glide-grid

> <s_m_Source_File>
wee1_decoys_glide_SP.sdf

> <s_m_Source_Path>
/Users/zhangxujun/Desktop

> <s_m_entry_id>
6126

> <s_m_entry_name>
wee1_decoys_glide_SP.5851

> <s_m_subgroup_title>
wee1_decoys_glide_SP

> <s_m_subgroupid>
wee1_decoys_glide_SP


$$$$
