ZINC12281962_2187
                    3D
 Schrodinger Suite 2024-2.
 65 69  0  0  1  0            999 V2000
    2.1344   53.6584   23.9644 C   0  0  0  0  0  0
    3.6302   53.9399   23.9110 C   0  0  0  0  0  0
    4.3994   54.2000   25.1063 C   0  0  0  0  0  0
    4.0945   54.2098   26.4991 C   0  0  0  0  0  0
    5.0595   54.4909   27.4205 N   0  0  0  0  0  0
    6.3020   54.7548   26.9622 C   0  0  0  0  0  0
    6.7121   54.7882   25.6815 N   0  0  0  0  0  0
    5.7616   54.4983   24.7999 C   0  0  0  0  0  0
    6.1189   54.4033   23.1102 S   0  0  0  0  0  0
    4.4538   53.9310   22.7695 C   0  0  0  0  0  0
    4.1243   53.4682   21.4290 C   0  0  0  0  0  0
    3.1563   52.7410   21.2092 O   0  0  0  0  0  0
    5.0236   53.7877   20.4814 N   0  0  0  0  0  0
    5.1316   53.1721   19.1584 C   0  0  0  0  0  0
    4.2349   53.7538   18.0037 C   0  0  0  0  0  0
    4.3549   55.3073   17.9858 C   0  0  0  0  0  0
    5.7017   55.6077   17.3265 C   0  0  0  0  0  0
    5.8126   54.5557   16.2212 C   0  0  0  0  0  0
    4.8980   53.3896   16.6430 C   0  0  0  0  0  0
    2.7057   51.6298   18.0245 C   0  0  0  0  0  0
    1.2711   51.1269   18.2393 C   0  0  0  0  0  0
    0.2749   51.8164   17.3050 C   0  0  0  0  0  0
    0.3187   53.3323   17.5128 C   0  0  0  0  0  0
    1.7272   53.9195   17.3254 C   0  0  0  0  0  0
    2.7989   53.9137   26.9716 N   0  0  0  0  0  0
    2.4837   53.7988   28.3991 C   0  0  1  0  0  0
    2.7435   54.7435   28.8807 H   0  0  0  0  0  0
    1.0161   53.5302   28.6594 C   0  0  0  0  0  0
    1.0032   52.8541   30.0391 C   0  0  0  0  0  0
    2.3686   52.5364   30.3308 O   0  0  0  0  0  0
    3.1478   52.6408   29.1435 C   0  0  0  0  0  0
    1.5994   54.4174   24.5342 H   0  0  0  0  0  0
    1.6618   53.6544   22.9828 H   0  0  0  0  0  0
    1.9235   52.6907   24.4208 H   0  0  0  0  0  0
    7.0766   54.9321   27.6837 H   0  0  0  0  0  0
    5.7088   54.4918   20.7059 H   0  0  0  0  0  0
    5.0480   52.0969   19.2820 H   0  0  0  0  0  0
    6.1809   53.2788   18.8787 H   0  0  0  0  0  0
    4.2618   55.7720   18.9665 H   0  0  0  0  0  0
    3.5998   55.7745   17.3571 H   0  0  0  0  0  0
    6.5140   55.4947   18.0477 H   0  0  0  0  0  0
    5.7562   56.6260   16.9371 H   0  0  0  0  0  0
    6.8472   54.2346   16.0839 H   0  0  0  0  0  0
    5.4767   54.9724   15.2690 H   0  0  0  0  0  0
    4.1484   53.2325   15.8688 H   0  0  0  0  0  0
    5.4520   52.4510   16.6968 H   0  0  0  0  0  0
    3.1017   51.3643   17.0428 H   0  0  0  0  0  0
    3.3080   51.1585   18.7955 H   0  0  0  0  0  0
    1.2430   50.0489   18.0736 H   0  0  0  0  0  0
    0.9804   51.2800   19.2817 H   0  0  0  0  0  0
   -0.7309   51.4370   17.4911 H   0  0  0  0  0  0
    0.5083   51.5716   16.2663 H   0  0  0  0  0  0
   -0.0452   53.5784   18.5072 H   0  0  0  0  0  0
   -0.3670   53.8158   16.8157 H   0  0  0  0  0  0
    1.6905   54.9503   17.6765 H   0  0  0  0  0  0
    2.0545   53.8787   16.2854 H   0  0  0  0  0  0
    2.1120   53.5843   26.3091 H   0  0  0  0  0  0
    0.4218   54.4440   28.6490 H   0  0  0  0  0  0
    0.5984   52.8483   27.9150 H   0  0  0  0  0  0
    0.6209   53.5380   30.7987 H   0  0  0  0  0  0
    0.3908   51.9500   30.0194 H   0  0  0  0  0  0
    3.1107   51.6989   28.5948 H   0  0  0  0  0  0
    4.1947   52.8204   29.3896 H   0  0  0  0  0  0
    2.7848   53.1792   18.1986 N   0  3  0  0  0  0
    2.5177   53.3675   19.1598 H   0  0  0  0  0  0
  1  2  1  0  0  0
  1 32  1  0  0  0
  1 33  1  0  0  0
  1 34  1  0  0  0
  2 10  2  0  0  0
  2  3  1  0  0  0
  3  8  2  0  0  0
  3  4  1  0  0  0
  4  5  2  0  0  0
  4 25  1  0  0  0
  5  6  1  0  0  0
  6  7  2  0  0  0
  6 35  1  0  0  0
  7  8  1  0  0  0
  8  9  1  0  0  0
  9 10  1  0  0  0
 10 11  1  0  0  0
 11 12  2  0  0  0
 11 13  1  0  0  0
 13 14  1  0  0  0
 13 36  1  0  0  0
 14 15  1  0  0  0
 14 37  1  0  0  0
 14 38  1  0  0  0
 15 19  1  0  0  0
 15 16  1  0  0  0
 15 64  1  0  0  0
 16 17  1  0  0  0
 16 39  1  0  0  0
 16 40  1  0  0  0
 17 18  1  0  0  0
 17 41  1  0  0  0
 17 42  1  0  0  0
 18 19  1  0  0  0
 18 43  1  0  0  0
 18 44  1  0  0  0
 19 45  1  0  0  0
 19 46  1  0  0  0
 20 21  1  0  0  0
 20 47  1  0  0  0
 20 48  1  0  0  0
 20 64  1  0  0  0
 21 22  1  0  0  0
 21 49  1  0  0  0
 21 50  1  0  0  0
 22 23  1  0  0  0
 22 51  1  0  0  0
 22 52  1  0  0  0
 23 24  1  0  0  0
 23 53  1  0  0  0
 23 54  1  0  0  0
 24 55  1  0  0  0
 24 56  1  0  0  0
 24 64  1  0  0  0
 25 26  1  0  0  0
 25 57  1  0  0  0
 26 27  1  0  0  0
 26 31  1  0  0  0
 26 28  1  0  0  0
 28 29  1  0  0  0
 28 58  1  0  0  0
 28 59  1  0  0  0
 29 30  1  0  0  0
 29 60  1  0  0  0
 29 61  1  0  0  0
 30 31  1  0  0  0
 31 62  1  0  0  0
 31 63  1  0  0  0
 64 65  1  0  0  0
M  CHG  1  64   1
M  END
> <i_i_glide_confnum>
874

> <i_i_glide_lignum>
2188

> <i_i_glide_posenum>
195

> <i_i_glide_rotatable_bonds>
7

> <i_m_Source_File_Index>
5135

> <b_m_subgroup_collapsed>
0

> <r_i_docking_score>
-6.45524

> <r_i_glide_ecoul>
-4.18497

> <r_i_glide_eff_state_penalty>
0

> <r_i_glide_einternal>
8.78296

> <r_i_glide_emodel>
-61.6281

> <r_i_glide_energy>
-46.1172

> <r_i_glide_erotb>
0.708258

> <r_i_glide_esite>
-0.0200945

> <r_i_glide_evdw>
-41.9322

> <r_i_glide_gscore>
-6.45524

> <r_i_glide_hbond>
-0.180127

> <r_i_glide_ligand_efficiency>
-0.208233

> <r_i_glide_ligand_efficiency_ln>
-1.45585

> <r_i_glide_ligand_efficiency_sa>
-0.65414

> <r_i_glide_lipo>
-2.58989

> <r_i_glide_metal>
0

> <r_i_glide_rewards>
-1.64903

> <s_i_glide_gridfile>
wee1_glide-grid

> <s_m_Source_File>
wee1_decoys_glide_SP.sdf

> <s_m_Source_Path>
/Users/zhangxujun/Desktop

> <s_m_entry_id>
5410

> <s_m_entry_name>
wee1_decoys_glide_SP.5135

> <s_m_subgroup_title>
wee1_decoys_glide_SP

> <s_m_subgroupid>
wee1_decoys_glide_SP


$$$$
