ZINC22852005_2760
                    3D
 Schrodinger Suite 2024-2.
 48 52  0  0  1  0            999 V2000
   -3.6660   45.7537   26.2377 C   0  0  0  0  0  0
   -2.4956   46.4967   26.0817 C   0  0  0  0  0  0
   -2.6535   47.3029   24.9605 C   0  0  0  0  0  0
   -3.8819   47.0653   24.4223 O   0  0  0  0  0  0
   -4.4956   46.1317   25.1961 C   0  0  0  0  0  0
   -1.7935   48.2817   24.2979 C   0  0  0  0  0  0
   -0.4836   48.2831   24.4969 N   0  0  0  0  0  0
   -0.0813   49.2695   23.7345 C   0  0  0  0  0  0
   -1.1393   49.8627   23.1108 N   0  0  0  0  0  0
   -2.2784   49.2067   23.4842 N   0  0  0  0  0  0
   -0.8326   50.9250   22.2720 C   0  0  0  0  0  0
    0.5442   51.1303   22.1812 C   0  0  0  0  0  0
    1.4157   50.0418   23.2813 S   0  0  0  0  0  0
    1.3020   52.1060   21.2836 C   0  0  1  0  0  0
    0.6006   52.8861   20.9789 H   0  0  0  0  0  0
    2.4494   52.8187   22.0191 C   0  0  0  0  0  0
    2.1345   53.6493   23.1006 C   0  0  0  0  0  0
    3.1442   54.2753   23.8252 C   0  0  0  0  0  0
    4.4747   54.0967   23.4548 C   0  0  0  0  0  0
    4.8010   53.2967   22.3632 C   0  0  0  0  0  0
    3.7931   52.6485   21.6529 C   0  0  0  0  0  0
    5.7287   54.8695   24.3567 Cl  0  0  0  0  0  0
    1.6952   51.4239   19.9305 N   0  3  1  0  0  0
    0.7602   50.2673   19.4750 C   0  0  0  0  0  0
    1.3127   49.6446   18.1851 C   0  0  0  0  0  0
    1.4306   50.6883   17.0696 C   0  0  1  0  0  0
    2.3471   51.8349   17.5240 C   0  0  0  0  0  0
    1.8338   52.4967   18.8158 C   0  0  0  0  0  0
    1.9044   50.0849   15.8889 O   0  0  0  0  0  0
   -1.7048   51.5877   21.6237 O   0  5  0  0  0  0
   -3.8791   45.0476   27.0296 H   0  0  0  0  0  0
   -1.6365   46.4888   26.7380 H   0  0  0  0  0  0
   -5.4977   45.8540   24.9027 H   0  0  0  0  0  0
    1.1043   53.7873   23.3963 H   0  0  0  0  0  0
    2.8949   54.8967   24.6719 H   0  0  0  0  0  0
    5.8345   53.1625   22.0817 H   0  0  0  0  0  0
    4.0751   52.0156   20.8249 H   0  0  0  0  0  0
    0.7779   49.5029   20.2525 H   0  0  0  0  0  0
   -0.2470   50.6739   19.3646 H   0  0  0  0  0  0
    2.2968   49.2184   18.3935 H   0  0  0  0  0  0
    0.6825   48.8148   17.8626 H   0  0  0  0  0  0
    0.4371   51.0994   16.8794 H   0  0  0  0  0  0
    2.4485   52.5754   16.7297 H   0  0  0  0  0  0
    3.3528   51.4517   17.7076 H   0  0  0  0  0  0
    0.8596   52.9725   18.6867 H   0  0  0  0  0  0
    2.5555   53.2372   19.1651 H   0  0  0  0  0  0
    2.8003   49.7236   16.0817 H   0  0  0  0  0  0
    2.6081   51.0160   20.0723 H   0  0  0  0  0  0
  1  5  2  0  0  0
  1  2  1  0  0  0
  1 31  1  0  0  0
  2  3  2  0  0  0
  2 32  1  0  0  0
  3  4  1  0  0  0
  3  6  1  0  0  0
  4  5  1  0  0  0
  5 33  1  0  0  0
  6 10  2  0  0  0
  6  7  1  0  0  0
  7  8  2  0  0  0
  8 13  1  0  0  0
  8  9  1  0  0  0
  9 10  1  0  0  0
  9 11  1  0  0  0
 11 12  2  0  0  0
 11 30  1  0  0  0
 12 13  1  0  0  0
 12 14  1  0  0  0
 14 15  1  0  0  0
 14 16  1  0  0  0
 14 23  1  0  0  0
 16 21  2  0  0  0
 16 17  1  0  0  0
 17 18  2  0  0  0
 17 34  1  0  0  0
 18 19  1  0  0  0
 18 35  1  0  0  0
 19 20  2  0  0  0
 19 22  1  0  0  0
 20 21  1  0  0  0
 20 36  1  0  0  0
 21 37  1  0  0  0
 23 28  1  0  0  0
 23 24  1  0  0  0
 23 48  1  0  0  0
 24 25  1  0  0  0
 24 38  1  0  0  0
 24 39  1  0  0  0
 25 26  1  0  0  0
 25 40  1  0  0  0
 25 41  1  0  0  0
 26 27  1  0  0  0
 26 29  1  0  0  0
 26 42  1  0  0  0
 27 28  1  0  0  0
 27 43  1  0  0  0
 27 44  1  0  0  0
 28 45  1  0  0  0
 28 46  1  0  0  0
 29 47  1  0  0  0
M  CHG  2  23   1  30  -1
M  END
> <i_i_glide_confnum>
19

> <i_i_glide_lignum>
2761

> <i_i_glide_posenum>
7

> <i_i_glide_rotatable_bonds>
5

> <i_m_Source_File_Index>
2512

> <b_m_subgroup_collapsed>
0

> <r_i_docking_score>
-4.33766

> <r_i_glide_ecoul>
-8.50177

> <r_i_glide_eff_state_penalty>
0

> <r_i_glide_einternal>
2.87204

> <r_i_glide_emodel>
-48.6571

> <r_i_glide_energy>
-37.3302

> <r_i_glide_erotb>
0.428372

> <r_i_glide_esite>
-0.0554454

> <r_i_glide_evdw>
-28.8284

> <r_i_glide_gscore>
-4.33766

> <r_i_glide_hbond>
-0.16

> <r_i_glide_ligand_efficiency>
-0.149575

> <r_i_glide_ligand_efficiency_ln>
-0.993214

> <r_i_glide_ligand_efficiency_sa>
-0.45954

> <r_i_glide_lipo>
-1.36282

> <r_i_glide_metal>
0

> <r_i_glide_rewards>
-0.471078

> <s_i_glide_gridfile>
wee1_glide-grid

> <s_m_Source_File>
wee1_decoys_glide_SP.sdf

> <s_m_Source_Path>
/Users/zhangxujun/Desktop

> <s_m_entry_id>
2787

> <s_m_entry_name>
wee1_decoys_glide_SP.2512

> <s_m_subgroup_title>
wee1_decoys_glide_SP

> <s_m_subgroupid>
wee1_decoys_glide_SP


$$$$
