ZINC13679782_4018
                    3D
 Schrodinger Suite 2024-2.
 46 49  0  0  1  0            999 V2000
   -1.7793   50.8832   26.4238 C   0  0  0  0  0  0
   -2.9623   51.0967   25.7189 C   0  0  0  0  0  0
   -2.9170   51.5276   24.3943 C   0  0  0  0  0  0
   -1.6915   51.7619   23.7688 C   0  0  0  0  0  0
   -0.4974   51.5877   24.4942 C   0  0  0  0  0  0
   -0.5491   51.1183   25.8102 C   0  0  0  0  0  0
    0.7694   51.8112   23.9401 N   0  0  0  0  0  0
    1.2419   53.0253   23.5870 C   0  0  0  0  0  0
    0.5902   54.0660   23.6819 O   0  0  0  0  0  0
    2.7269   53.0935   23.2018 C   0  0  2  0  0  0
    3.0950   52.0878   23.0460 H   0  0  0  0  0  0
    3.4267   53.8743   24.3249 C   0  0  0  0  0  0
    4.8580   54.0324   24.0665 N   0  0  0  0  0  0
    5.1615   54.3405   22.7118 C   0  0  0  0  0  0
    6.4036   54.8802   22.3373 C   0  0  0  0  0  0
    6.6555   55.2450   21.0141 C   0  0  0  0  0  0
    5.6905   55.0227   20.0329 C   0  0  0  0  0  0
    4.4487   54.4964   20.3826 C   0  0  0  0  0  0
    4.1693   54.1928   21.7148 C   0  0  0  0  0  0
    2.8640   53.8268   21.9951 O   0  0  0  0  0  0
    5.8634   54.6444   25.4116 S   0  0  0  0  0  0
    7.1044   53.8727   25.3882 O   0  0  0  0  0  0
    5.9046   56.0967   25.2814 O   0  0  0  0  0  0
    5.0040   54.2697   26.9390 C   0  0  0  0  0  0
    3.7881   54.8950   27.2200 C   0  0  0  0  0  0
    3.0357   54.5004   28.3238 C   0  0  0  0  0  0
    3.5141   53.4844   29.1487 C   0  0  0  0  0  0
    4.7466   52.8960   28.8934 C   0  0  0  0  0  0
    5.5036   53.2953   27.7973 C   0  0  0  0  0  0
    2.5709   52.9224   30.4807 Cl  0  0  0  0  0  0
   -1.6977   52.2362   21.9192 Br  0  0  0  0  0  0
   -1.8149   50.5176   27.4410 H   0  0  0  0  0  0
   -3.9134   50.9004   26.1927 H   0  0  0  0  0  0
   -3.8367   51.6592   23.8431 H   0  0  0  0  0  0
    0.3561   50.9453   26.3732 H   0  0  0  0  0  0
    1.4318   51.0537   24.0251 H   0  0  0  0  0  0
    2.9853   54.8669   24.4380 H   0  0  0  0  0  0
    3.2830   53.3424   25.2637 H   0  0  0  0  0  0
    7.1889   55.0390   23.0633 H   0  0  0  0  0  0
    7.6148   55.6641   20.7439 H   0  0  0  0  0  0
    5.8921   55.2811   19.0032 H   0  0  0  0  0  0
    3.6801   54.3691   19.6320 H   0  0  0  0  0  0
    3.4103   55.6452   26.5415 H   0  0  0  0  0  0
    2.0794   54.9575   28.5220 H   0  0  0  0  0  0
    5.1040   52.1050   29.5357 H   0  0  0  0  0  0
    6.4422   52.8010   27.5911 H   0  0  0  0  0  0
  1  6  2  0  0  0
  1  2  1  0  0  0
  1 32  1  0  0  0
  2  3  2  0  0  0
  2 33  1  0  0  0
  3  4  1  0  0  0
  3 34  1  0  0  0
  4  5  2  0  0  0
  4 31  1  0  0  0
  5  6  1  0  0  0
  5  7  1  0  0  0
  6 35  1  0  0  0
  7  8  1  0  0  0
  7 36  1  0  0  0
  8  9  2  0  0  0
  8 10  1  0  0  0
 10 11  1  0  0  0
 10 20  1  0  0  0
 10 12  1  0  0  0
 12 13  1  0  0  0
 12 37  1  0  0  0
 12 38  1  0  0  0
 13 14  1  0  0  0
 13 21  1  0  0  0
 14 19  2  0  0  0
 14 15  1  0  0  0
 15 16  2  0  0  0
 15 39  1  0  0  0
 16 17  1  0  0  0
 16 40  1  0  0  0
 17 18  2  0  0  0
 17 41  1  0  0  0
 18 19  1  0  0  0
 18 42  1  0  0  0
 19 20  1  0  0  0
 21 22  2  0  0  0
 21 23  2  0  0  0
 21 24  1  0  0  0
 24 29  2  0  0  0
 24 25  1  0  0  0
 25 26  2  0  0  0
 25 43  1  0  0  0
 26 27  1  0  0  0
 26 44  1  0  0  0
 27 28  2  0  0  0
 27 30  1  0  0  0
 28 29  1  0  0  0
 28 45  1  0  0  0
 29 46  1  0  0  0
M  END
> <i_i_glide_confnum>
17

> <i_i_glide_lignum>
4019

> <i_i_glide_posenum>
219

> <i_i_glide_rotatable_bonds>
5

> <i_m_Source_File_Index>
3267

> <b_m_subgroup_collapsed>
0

> <r_i_docking_score>
-3.28861

> <r_i_glide_ecoul>
-4.46154

> <r_i_glide_eff_state_penalty>
0

> <r_i_glide_einternal>
10.6533

> <r_i_glide_emodel>
-37.5947

> <r_i_glide_energy>
-43.1138

> <r_i_glide_erotb>
0.396922

> <r_i_glide_esite>
0

> <r_i_glide_evdw>
-38.6522

> <r_i_glide_gscore>
-3.28861

> <r_i_glide_hbond>
0

> <r_i_glide_ligand_efficiency>
-0.10962

> <r_i_glide_ligand_efficiency_ln>
-0.747209

> <r_i_glide_ligand_efficiency_sa>
-0.340616

> <r_i_glide_lipo>
-2.73153

> <r_i_glide_metal>
0

> <r_i_glide_rewards>
1.64784

> <s_i_glide_gridfile>
wee1_glide-grid

> <s_m_Source_File>
wee1_decoys_glide_SP.sdf

> <s_m_Source_Path>
/Users/zhangxujun/Desktop

> <s_m_entry_id>
3542

> <s_m_entry_name>
wee1_decoys_glide_SP.3267

> <s_m_subgroup_title>
wee1_decoys_glide_SP

> <s_m_subgroupid>
wee1_decoys_glide_SP


$$$$
