ZINC09283781_4164
                    3D
 Schrodinger Suite 2024-2.
 66 71  0  0  1  0            999 V2000
    4.0560   54.2089   19.3655 C   0  0  0  0  0  0
    4.3242   54.7670   18.1193 C   0  0  0  0  0  0
    5.5350   55.4293   17.8784 C   0  0  0  0  0  0
    6.4964   55.4331   18.9011 C   0  0  0  0  0  0
    6.2219   54.9019   20.1628 C   0  0  0  0  0  0
    4.9769   54.3160   20.4187 C   0  0  0  0  0  0
    4.6415   53.7893   21.7919 C   0  0  0  0  0  0
    5.5039   53.2473   22.4859 O   0  0  0  0  0  0
    3.3537   53.9833   22.1585 N   0  0  0  0  0  0
    2.8102   53.4262   23.3206 N   0  0  0  0  0  0
    3.0166   53.9500   24.5505 C   0  0  0  0  0  0
    3.7606   54.8956   24.7957 O   0  0  0  0  0  0
    2.1698   53.2971   25.6573 C   0  0  0  0  0  0
    2.5652   53.4299   27.1683 C   0  0  0  0  0  0
    4.0992   53.3145   27.4514 C   0  0  0  0  0  0
    4.3836   53.2293   28.9736 C   0  0  2  0  0  0
    3.5833   52.0967   29.6655 C   0  0  0  0  0  0
    2.0678   52.3073   29.4285 C   0  0  2  0  0  0
    1.8032   52.2825   27.9141 C   0  0  0  0  0  0
    1.6082   53.6765   29.9830 C   0  0  0  0  0  0
    2.4390   54.8081   29.3292 C   0  0  1  0  0  0
    3.9462   54.5543   29.6136 C   0  0  0  0  0  0
    2.1632   54.7950   27.7984 C   0  0  0  0  0  0
    8.1446   55.9346   18.4778 S   0  0  0  0  0  0
    8.8087   56.4349   19.6816 O   0  0  0  0  0  0
    8.7787   54.8414   17.7339 O   0  0  0  0  0  0
    7.7517   57.2552   17.3974 N   0  0  0  0  0  0
    6.7687   57.1496   16.6008 C   0  0  0  0  0  0
    5.7987   56.1281   16.6613 N   0  0  0  0  0  0
    5.0109   55.7737   15.4680 C   0  0  0  0  0  0
    3.8121   56.7057   15.2025 C   0  0  0  0  0  0
    4.1775   58.0828   14.6225 C   0  0  0  0  0  0
    5.1984   58.8931   15.4347 C   0  0  0  0  0  0
    6.6035   58.2578   15.5531 C   0  0  0  0  0  0
    3.1034   53.7187   19.5103 H   0  0  0  0  0  0
    3.5543   54.7144   17.3656 H   0  0  0  0  0  0
    6.9836   54.9253   20.9316 H   0  0  0  0  0  0
    2.7617   54.6921   21.7497 H   0  0  0  0  0  0
    2.2375   52.6143   23.1382 H   0  0  0  0  0  0
    2.1040   52.2373   25.4056 H   0  0  0  0  0  0
    1.1558   53.6776   25.5310 H   0  0  0  0  0  0
    4.6299   54.1820   27.0571 H   0  0  0  0  0  0
    4.5515   52.4966   26.9169 H   0  0  0  0  0  0
    5.4521   53.0777   29.1336 H   0  0  0  0  0  0
    3.8033   52.0774   30.7338 H   0  0  0  0  0  0
    3.8948   51.1303   29.2817 H   0  0  0  0  0  0
    1.4997   51.5098   29.9080 H   0  0  0  0  0  0
    2.0834   51.3038   27.5254 H   0  0  0  0  0  0
    0.7293   52.3675   27.7372 H   0  0  0  0  0  0
    1.7193   53.6910   31.0594 H   0  0  0  0  0  0
    0.5438   53.8296   29.7973 H   0  0  0  0  0  0
    2.1421   55.7709   29.7487 H   0  0  0  0  0  0
    4.5552   55.3715   29.2341 H   0  0  0  0  0  0
    4.1436   54.4943   30.6835 H   0  0  0  0  0  0
    1.1042   54.9906   27.6365 H   0  0  0  0  0  0
    2.7035   55.5980   27.2927 H   0  0  0  0  0  0
    5.6792   55.8093   14.6037 H   0  0  0  0  0  0
    4.6873   54.7305   15.4812 H   0  0  0  0  0  0
    3.1362   56.2088   14.5055 H   0  0  0  0  0  0
    3.2328   56.8337   16.1187 H   0  0  0  0  0  0
    4.5541   57.9522   13.6056 H   0  0  0  0  0  0
    3.2646   58.6734   14.5205 H   0  0  0  0  0  0
    5.3016   59.8774   14.9714 H   0  0  0  0  0  0
    4.7972   59.1058   16.4282 H   0  0  0  0  0  0
    7.2892   59.0740   15.7913 H   0  0  0  0  0  0
    6.9473   57.8993   14.5823 H   0  0  0  0  0  0
  1  6  2  0  0  0
  1  2  1  0  0  0
  1 35  1  0  0  0
  2  3  2  0  0  0
  2 36  1  0  0  0
  3 29  1  0  0  0
  3  4  1  0  0  0
  4  5  2  0  0  0
  4 24  1  0  0  0
  5  6  1  0  0  0
  5 37  1  0  0  0
  6  7  1  0  0  0
  7  8  2  0  0  0
  7  9  1  0  0  0
  9 10  1  0  0  0
  9 38  1  0  0  0
 10 11  1  0  0  0
 10 39  1  0  0  0
 11 12  2  0  0  0
 11 13  1  0  0  0
 13 14  1  0  0  0
 13 40  1  0  0  0
 13 41  1  0  0  0
 14 19  1  0  0  0
 14 23  1  0  0  0
 14 15  1  0  0  0
 15 16  1  0  0  0
 15 42  1  0  0  0
 15 43  1  0  0  0
 16 22  1  0  0  0
 16 17  1  0  0  0
 16 44  1  0  0  0
 17 18  1  0  0  0
 17 45  1  0  0  0
 17 46  1  0  0  0
 18 19  1  0  0  0
 18 20  1  0  0  0
 18 47  1  0  0  0
 19 48  1  0  0  0
 19 49  1  0  0  0
 20 21  1  0  0  0
 20 50  1  0  0  0
 20 51  1  0  0  0
 21 22  1  0  0  0
 21 23  1  0  0  0
 21 52  1  0  0  0
 22 53  1  0  0  0
 22 54  1  0  0  0
 23 55  1  0  0  0
 23 56  1  0  0  0
 24 25  2  0  0  0
 24 26  2  0  0  0
 24 27  1  0  0  0
 27 28  2  0  0  0
 28 34  1  0  0  0
 28 29  1  0  0  0
 29 30  1  0  0  0
 30 31  1  0  0  0
 30 57  1  0  0  0
 30 58  1  0  0  0
 31 32  1  0  0  0
 31 59  1  0  0  0
 31 60  1  0  0  0
 32 33  1  0  0  0
 32 61  1  0  0  0
 32 62  1  0  0  0
 33 34  1  0  0  0
 33 63  1  0  0  0
 33 64  1  0  0  0
 34 65  1  0  0  0
 34 66  1  0  0  0
M  END
> <i_i_glide_confnum>
25

> <i_i_glide_lignum>
4165

> <i_i_glide_posenum>
364

> <i_i_glide_rotatable_bonds>
6

> <i_m_Source_File_Index>
3580

> <b_m_subgroup_collapsed>
0

> <r_i_docking_score>
-5.15545

> <r_i_glide_ecoul>
-2.57975

> <r_i_glide_eff_state_penalty>
0

> <r_i_glide_einternal>
4.99994

> <r_i_glide_emodel>
-56.8275

> <r_i_glide_energy>
-42.4233

> <r_i_glide_erotb>
0.345911

> <r_i_glide_esite>
-0.00388738

> <r_i_glide_evdw>
-39.8436

> <r_i_glide_gscore>
-5.15545

> <r_i_glide_hbond>
-0.19201

> <r_i_glide_ligand_efficiency>
-0.151631

> <r_i_glide_ligand_efficiency_ln>
-1.13898

> <r_i_glide_ligand_efficiency_sa>
-0.491226

> <r_i_glide_lipo>
-2.10481

> <r_i_glide_metal>
0

> <r_i_glide_rewards>
-0.821519

> <s_i_glide_gridfile>
wee1_glide-grid

> <s_m_Source_File>
wee1_decoys_glide_SP.sdf

> <s_m_Source_Path>
/Users/zhangxujun/Desktop

> <s_m_entry_id>
3855

> <s_m_entry_name>
wee1_decoys_glide_SP.3580

> <s_m_subgroup_title>
wee1_decoys_glide_SP

> <s_m_subgroupid>
wee1_decoys_glide_SP


$$$$
