ZINC13030714_5814
                    3D
 Schrodinger Suite 2024-2.
 46 48  0  0  1  0            999 V2000
    0.9833   50.8660   24.0812 C   0  0  0  0  0  0
    0.9640   50.5586   22.5956 C   0  0  0  0  0  0
    1.7584   51.0029   21.6001 C   0  0  0  0  0  0
    1.4859   50.4219   20.3825 N   0  0  0  0  0  0
    0.4400   49.5334   20.3006 C   0  0  0  0  0  0
   -0.1819   49.3699   21.9760 S   0  0  0  0  0  0
    0.0447   48.9836   19.2289 N   0  0  0  0  0  0
   -1.3744   47.9310   19.1869 S   0  0  0  0  0  0
   -2.3643   48.2343   18.1476 O   0  0  0  0  0  0
   -1.9598   47.4888   20.4587 O   0  0  0  0  0  0
   -0.5317   46.4666   18.5582 C   0  0  0  0  0  0
   -0.5013   45.3053   19.3393 C   0  0  0  0  0  0
    0.1152   44.1353   18.8796 C   0  0  0  0  0  0
    0.7043   44.1493   17.6102 C   0  0  0  0  0  0
    0.7003   45.3063   16.8347 C   0  0  0  0  0  0
    0.0848   46.4806   17.2966 C   0  0  0  0  0  0
    0.0556   47.6540   16.5674 O   0  0  0  0  0  0
    0.9026   47.7949   15.4326 C   0  0  0  0  0  0
    0.1275   42.8961   19.7188 C   0  0  0  0  0  0
    0.7044   41.8740   19.2765 O   0  0  0  0  0  0
   -0.4955   42.8968   20.8065 O   0  5  0  0  0  0
    2.8184   52.0443   21.6802 C   0  0  0  0  0  0
    3.9378   51.9736   20.8393 C   0  0  0  0  0  0
    4.9404   52.9347   20.9091 C   0  0  0  0  0  0
    4.8556   53.9691   21.8377 C   0  0  0  0  0  0
    3.7310   54.0744   22.6564 C   0  0  0  0  0  0
    2.7185   53.1218   22.5717 C   0  0  0  0  0  0
    5.8685   54.8965   21.8929 O   0  0  0  0  0  0
    6.6804   54.8785   23.0670 C   0  0  0  0  0  0
    6.0413   55.2960   24.1609 F   0  0  0  0  0  0
    7.2357   53.6882   23.2816 F   0  0  0  0  0  0
    0.1456   51.5126   24.3443 H   0  0  0  0  0  0
    0.8936   49.9407   24.6519 H   0  0  0  0  0  0
    1.9073   51.3462   24.3955 H   0  0  0  0  0  0
   -0.9671   45.3058   20.3156 H   0  0  0  0  0  0
    1.1871   43.2643   17.2185 H   0  0  0  0  0  0
    1.1787   45.2706   15.8682 H   0  0  0  0  0  0
    0.8306   48.8152   15.0569 H   0  0  0  0  0  0
    1.9481   47.6118   15.6857 H   0  0  0  0  0  0
    0.6040   47.1248   14.6256 H   0  0  0  0  0  0
    4.0450   51.1739   20.1193 H   0  0  0  0  0  0
    5.7838   52.8701   20.2377 H   0  0  0  0  0  0
    3.6372   54.8962   23.3500 H   0  0  0  0  0  0
    1.8465   53.2423   23.1956 H   0  0  0  0  0  0
    7.5044   55.5757   22.9190 H   0  0  0  0  0  0
    1.9979   50.6536   19.5436 H   0  0  0  0  0  0
  1  2  1  0  0  0
  1 32  1  0  0  0
  1 33  1  0  0  0
  1 34  1  0  0  0
  2  6  1  0  0  0
  2  3  2  0  0  0
  3  4  1  0  0  0
  3 22  1  0  0  0
  4  5  1  0  0  0
  4 46  1  0  0  0
  5  6  1  0  0  0
  5  7  2  0  0  0
  7  8  1  0  0  0
  8  9  2  0  0  0
  8 10  2  0  0  0
  8 11  1  0  0  0
 11 16  2  0  0  0
 11 12  1  0  0  0
 12 13  2  0  0  0
 12 35  1  0  0  0
 13 14  1  0  0  0
 13 19  1  0  0  0
 14 15  2  0  0  0
 14 36  1  0  0  0
 15 16  1  0  0  0
 15 37  1  0  0  0
 16 17  1  0  0  0
 17 18  1  0  0  0
 18 38  1  0  0  0
 18 39  1  0  0  0
 18 40  1  0  0  0
 19 20  2  0  0  0
 19 21  1  0  0  0
 22 27  2  0  0  0
 22 23  1  0  0  0
 23 24  2  0  0  0
 23 41  1  0  0  0
 24 25  1  0  0  0
 24 42  1  0  0  0
 25 26  2  0  0  0
 25 28  1  0  0  0
 26 27  1  0  0  0
 26 43  1  0  0  0
 27 44  1  0  0  0
 28 29  1  0  0  0
 29 30  1  0  0  0
 29 31  1  0  0  0
 29 45  1  0  0  0
M  CHG  1  21  -1
M  END
> <i_i_glide_confnum>
85

> <i_i_glide_lignum>
5815

> <i_i_glide_posenum>
370

> <i_i_glide_rotatable_bonds>
7

> <i_m_Source_File_Index>
3491

> <b_m_subgroup_collapsed>
0

> <r_i_docking_score>
-1.93482

> <r_i_glide_ecoul>
-8.54815

> <r_i_glide_eff_state_penalty>
0

> <r_i_glide_einternal>
6.93368

> <r_i_glide_emodel>
-32.9235

> <r_i_glide_energy>
-36.0335

> <r_i_glide_erotb>
0.366575

> <r_i_glide_esite>
-0.0854371

> <r_i_glide_evdw>
-27.4853

> <r_i_glide_gscore>
-1.93482

> <r_i_glide_hbond>
-0.4

> <r_i_glide_ligand_efficiency>
-0.0624136

> <r_i_glide_ligand_efficiency_ln>
-0.436362

> <r_i_glide_ligand_efficiency_sa>
-0.196065

> <r_i_glide_lipo>
-0.906434

> <r_i_glide_metal>
0

> <r_i_glide_rewards>
1.74696

> <s_i_glide_gridfile>
wee1_glide-grid

> <s_m_Source_File>
wee1_decoys_glide_SP.sdf

> <s_m_Source_Path>
/Users/zhangxujun/Desktop

> <s_m_entry_id>
3766

> <s_m_entry_name>
wee1_decoys_glide_SP.3491

> <s_m_subgroup_title>
wee1_decoys_glide_SP

> <s_m_subgroupid>
wee1_decoys_glide_SP


$$$$
