ZINC13479774_3818
                    3D
 Schrodinger Suite 2024-2.
 42 44  0  0  1  0            999 V2000
    1.9761   54.3372   22.9267 C   0  0  0  0  0  0
    1.5747   52.8523   22.9046 C   0  0  0  0  0  0
    0.7061   52.3770   24.0960 C   0  0  1  0  0  0
    0.6384   51.2897   24.0122 H   0  0  0  0  0  0
    1.3899   52.6601   25.4528 C   0  0  0  0  0  0
    0.5016   52.2434   26.6060 C   0  0  0  0  0  0
   -0.8418   52.0994   26.5416 C   0  0  0  0  0  0
   -1.6275   52.4448   25.2669 C   0  0  1  0  0  0
   -2.2494   53.2968   25.5361 H   0  0  0  0  0  0
   -0.7347   52.9292   24.0820 C   0  0  0  0  0  0
   -2.6041   51.2767   24.9801 C   0  0  2  0  0  0
   -3.2301   51.5953   24.1436 H   0  0  0  0  0  0
   -3.5819   51.0642   26.1931 C   0  0  0  0  0  0
   -2.8518   51.1117   27.5552 C   0  0  0  0  0  0
   -1.5972   51.6044   27.6885 C   0  0  0  0  0  0
   -1.0005   51.6958   28.9876 C   0  0  0  0  0  0
   -0.4960   51.8684   30.0138 N   0  0  0  0  0  0
   -3.5915   50.6660   28.6307 N   0  0  0  0  0  0
   -4.3259   49.7952   26.0348 C   0  0  0  0  0  0
   -4.9105   48.8040   25.9108 N   0  0  0  0  0  0
   -4.5766   52.1580   26.1972 C   0  0  0  0  0  0
   -5.3522   53.0160   26.1993 N   0  0  0  0  0  0
   -1.8881   50.0185   24.5050 C   0  0  0  0  0  0
   -1.1605   49.0780   25.2377 C   0  0  0  0  0  0
   -0.5930   48.0638   24.4643 C   0  0  0  0  0  0
   -0.8961   48.1974   23.1225 C   0  0  0  0  0  0
   -1.8638   49.5924   22.8159 S   0  0  0  0  0  0
    2.6109   54.5784   22.0806 H   0  0  0  0  0  0
    2.5529   54.6032   23.8136 H   0  0  0  0  0  0
    1.1047   54.9881   22.8852 H   0  0  0  0  0  0
    1.0500   52.6422   21.9717 H   0  0  0  0  0  0
    2.4835   52.2488   22.8691 H   0  0  0  0  0  0
    2.3191   52.1003   25.4991 H   0  0  0  0  0  0
    1.6474   53.7109   25.5880 H   0  0  0  0  0  0
    1.0098   51.9985   27.5300 H   0  0  0  0  0  0
   -0.6897   54.0190   24.0819 H   0  0  0  0  0  0
   -1.2092   52.6910   23.1285 H   0  0  0  0  0  0
   -4.4927   50.2316   28.4949 H   0  0  0  0  0  0
   -3.1110   50.4277   29.4916 H   0  0  0  0  0  0
   -1.0289   49.1298   26.3099 H   0  0  0  0  0  0
    0.0094   47.2721   24.8816 H   0  0  0  0  0  0
   -0.6015   47.5659   22.3013 H   0  0  0  0  0  0
  1  2  1  0  0  0
  1 28  1  0  0  0
  1 29  1  0  0  0
  1 30  1  0  0  0
  2  3  1  0  0  0
  2 31  1  0  0  0
  2 32  1  0  0  0
  3  4  1  0  0  0
  3 10  1  0  0  0
  3  5  1  0  0  0
  5  6  1  0  0  0
  5 33  1  0  0  0
  5 34  1  0  0  0
  6  7  2  0  0  0
  6 35  1  0  0  0
  7 15  1  0  0  0
  7  8  1  0  0  0
  8  9  1  0  0  0
  8 10  1  0  0  0
  8 11  1  0  0  0
 10 36  1  0  0  0
 10 37  1  0  0  0
 11 12  1  0  0  0
 11 13  1  0  0  0
 11 23  1  0  0  0
 13 14  1  0  0  0
 13 19  1  0  0  0
 13 21  1  0  0  0
 14 15  2  0  0  0
 14 18  1  0  0  0
 15 16  1  0  0  0
 16 17  3  0  0  0
 18 38  1  0  0  0
 18 39  1  0  0  0
 19 20  3  0  0  0
 21 22  3  0  0  0
 23 27  1  0  0  0
 23 24  2  0  0  0
 24 25  1  0  0  0
 24 40  1  0  0  0
 25 26  2  0  0  0
 25 41  1  0  0  0
 26 27  1  0  0  0
 26 42  1  0  0  0
M  END
> <i_i_glide_confnum>
3

> <i_i_glide_lignum>
3819

> <i_i_glide_posenum>
166

> <i_i_glide_rotatable_bonds>
5

> <i_m_Source_File_Index>
5614

> <b_m_subgroup_collapsed>
0

> <r_i_docking_score>
-3.38796

> <r_i_glide_ecoul>
-2.29325

> <r_i_glide_eff_state_penalty>
0

> <r_i_glide_einternal>
7.68382

> <r_i_glide_emodel>
-27.1826

> <r_i_glide_energy>
-25.6234

> <r_i_glide_erotb>
0.168624

> <r_i_glide_esite>
-0.185609

> <r_i_glide_evdw>
-23.3301

> <r_i_glide_gscore>
-3.38796

> <r_i_glide_hbond>
0

> <r_i_glide_ligand_efficiency>
-0.141165

> <r_i_glide_ligand_efficiency_ln>
-0.810895

> <r_i_glide_ligand_efficiency_sa>
-0.407191

> <r_i_glide_lipo>
-0.713796

> <r_i_glide_metal>
0

> <r_i_glide_rewards>
-1.14669

> <s_i_glide_gridfile>
wee1_glide-grid

> <s_m_Source_File>
wee1_decoys_glide_SP.sdf

> <s_m_Source_Path>
/Users/zhangxujun/Desktop

> <s_m_entry_id>
5889

> <s_m_entry_name>
wee1_decoys_glide_SP.5614

> <s_m_subgroup_title>
wee1_decoys_glide_SP

> <s_m_subgroupid>
wee1_decoys_glide_SP


$$$$
