ZINC36214784_955
                    3D
 Schrodinger Suite 2024-2.
 63 65  0  0  1  0            999 V2000
   -4.2397   50.7750   29.1074 C   0  0  0  0  0  0
   -4.2678   50.4358   27.6056 C   0  0  1  0  0  0
   -4.6545   49.4178   27.5354 H   0  0  0  0  0  0
   -5.2346   51.3156   26.7427 C   0  0  0  0  0  0
   -5.1687   50.9795   25.2357 C   0  0  0  0  0  0
   -6.7022   51.2405   27.2170 C   0  0  0  0  0  0
   -2.8956   50.3206   27.1033 N   0  0  0  0  0  0
   -2.0406   51.3011   26.7650 C   0  0  0  0  0  0
   -2.3324   52.4964   26.7374 O   0  0  0  0  0  0
   -0.6504   50.8301   26.2663 C   0  0  1  0  0  0
   -0.4277   49.8853   26.7681 H   0  0  0  0  0  0
   -0.6939   50.5377   24.7316 C   0  0  0  0  0  0
   -1.0268   51.7754   23.8622 C   0  0  0  0  0  0
   -1.3039   51.3393   22.4133 C   0  0  0  0  0  0
   -0.2071   50.4902   21.8548 N   0  0  0  0  0  0
    0.4254   49.4641   22.7412 C   0  0  0  0  0  0
    0.6431   49.9951   24.1730 C   0  0  0  0  0  0
    0.6793   51.0470   20.4226 S   0  0  0  0  0  0
    1.1541   49.8570   19.7064 O   0  0  0  0  0  0
   -0.1289   52.0653   19.7407 O   0  0  0  0  0  0
    2.1334   51.8869   21.0506 C   0  0  0  0  0  0
    1.9956   52.8968   22.0035 C   0  0  0  0  0  0
    3.1197   53.5623   22.4820 C   0  0  0  0  0  0
    4.3795   53.2274   21.9922 C   0  0  0  0  0  0
    4.5196   52.2349   21.0229 C   0  0  0  0  0  0
    3.3960   51.5585   20.5552 C   0  0  0  0  0  0
    5.7747   54.0520   22.5828 Cl  0  0  0  0  0  0
    0.4525   51.7467   26.5929 N   0  0  0  0  0  0
    0.8975   52.0972   27.8121 C   0  0  0  0  0  0
    0.4024   51.6974   28.8661 O   0  0  0  0  0  0
    2.0673   52.9491   27.8167 C   0  0  0  0  0  0
    2.8263   53.3067   28.9312 C   0  0  0  0  0  0
    3.9257   54.1158   28.6187 C   0  0  0  0  0  0
    4.0091   54.4011   27.2639 C   0  0  0  0  0  0
    2.7075   53.6960   26.3666 S   0  0  0  0  0  0
   -5.2335   50.8986   29.5296 H   0  0  0  0  0  0
   -3.7611   49.9786   29.6785 H   0  0  0  0  0  0
   -3.6952   51.6967   29.2815 H   0  0  0  0  0  0
   -4.9226   52.3556   26.8480 H   0  0  0  0  0  0
   -5.4399   49.9412   25.0495 H   0  0  0  0  0  0
   -5.8441   51.6088   24.6564 H   0  0  0  0  0  0
   -4.1718   51.1370   24.8284 H   0  0  0  0  0  0
   -7.0643   50.2119   27.2274 H   0  0  0  0  0  0
   -6.8331   51.6513   28.2174 H   0  0  0  0  0  0
   -7.3601   51.8114   26.5621 H   0  0  0  0  0  0
   -2.4753   49.4011   27.2275 H   0  0  0  0  0  0
   -1.4646   49.7768   24.5870 H   0  0  0  0  0  0
   -1.9241   52.2755   24.2233 H   0  0  0  0  0  0
   -0.2637   52.5449   23.9580 H   0  0  0  0  0  0
   -2.2366   50.7820   22.3203 H   0  0  0  0  0  0
   -1.4304   52.2217   21.7866 H   0  0  0  0  0  0
   -0.1937   48.5674   22.7186 H   0  0  0  0  0  0
    1.3829   49.1712   22.3071 H   0  0  0  0  0  0
    1.4442   50.7332   24.2229 H   0  0  0  0  0  0
    0.9989   49.1768   24.8011 H   0  0  0  0  0  0
    1.0208   53.1912   22.3490 H   0  0  0  0  0  0
    3.0119   54.3483   23.2143 H   0  0  0  0  0  0
    5.4898   51.9924   20.6188 H   0  0  0  0  0  0
    3.5051   50.7960   19.7960 H   0  0  0  0  0  0
    0.9002   52.1676   25.7961 H   0  0  0  0  0  0
    2.5979   52.9726   29.9333 H   0  0  0  0  0  0
    4.6383   54.4742   29.3481 H   0  0  0  0  0  0
    4.7634   54.9858   26.7576 H   0  0  0  0  0  0
  1  2  1  0  0  0
  1 36  1  0  0  0
  1 37  1  0  0  0
  1 38  1  0  0  0
  2  3  1  0  0  0
  2  4  1  0  0  0
  2  7  1  0  0  0
  4  5  1  0  0  0
  4  6  1  0  0  0
  4 39  1  0  0  0
  5 40  1  0  0  0
  5 41  1  0  0  0
  5 42  1  0  0  0
  6 43  1  0  0  0
  6 44  1  0  0  0
  6 45  1  0  0  0
  7  8  1  0  0  0
  7 46  1  0  0  0
  8  9  2  0  0  0
  8 10  1  0  0  0
 10 11  1  0  0  0
 10 12  1  0  0  0
 10 28  1  0  0  0
 12 17  1  0  0  0
 12 13  1  0  0  0
 12 47  1  0  0  0
 13 14  1  0  0  0
 13 48  1  0  0  0
 13 49  1  0  0  0
 14 15  1  0  0  0
 14 50  1  0  0  0
 14 51  1  0  0  0
 15 16  1  0  0  0
 15 18  1  0  0  0
 16 17  1  0  0  0
 16 52  1  0  0  0
 16 53  1  0  0  0
 17 54  1  0  0  0
 17 55  1  0  0  0
 18 19  2  0  0  0
 18 20  2  0  0  0
 18 21  1  0  0  0
 21 26  2  0  0  0
 21 22  1  0  0  0
 22 23  2  0  0  0
 22 56  1  0  0  0
 23 24  1  0  0  0
 23 57  1  0  0  0
 24 25  2  0  0  0
 24 27  1  0  0  0
 25 26  1  0  0  0
 25 58  1  0  0  0
 26 59  1  0  0  0
 28 29  1  0  0  0
 28 60  1  0  0  0
 29 30  2  0  0  0
 29 31  1  0  0  0
 31 35  1  0  0  0
 31 32  2  0  0  0
 32 33  1  0  0  0
 32 61  1  0  0  0
 33 34  2  0  0  0
 33 62  1  0  0  0
 34 35  1  0  0  0
 34 63  1  0  0  0
M  END
> <i_i_glide_confnum>
233

> <i_i_glide_lignum>
956

> <i_i_glide_posenum>
393

> <i_i_glide_rotatable_bonds>
10

> <i_m_Source_File_Index>
2201

> <b_m_subgroup_collapsed>
0

> <r_i_docking_score>
-3.33886

> <r_i_glide_ecoul>
-3.33294

> <r_i_glide_eff_state_penalty>
0

> <r_i_glide_einternal>
7.73062

> <r_i_glide_emodel>
-46.0449

> <r_i_glide_energy>
-43.0436

> <r_i_glide_erotb>
0.625316

> <r_i_glide_esite>
-0.200627

> <r_i_glide_evdw>
-39.7106

> <r_i_glide_gscore>
-3.33886

> <r_i_glide_hbond>
-0.139991

> <r_i_glide_ligand_efficiency>
-0.101178

> <r_i_glide_ligand_efficiency_ln>
-0.742545

> <r_i_glide_ligand_efficiency_sa>
-0.324531

> <r_i_glide_lipo>
-1.78767

> <r_i_glide_metal>
0

> <r_i_glide_rewards>
0.649584

> <s_i_glide_gridfile>
wee1_glide-grid

> <s_m_Source_File>
wee1_decoys_glide_SP.sdf

> <s_m_Source_Path>
/Users/zhangxujun/Desktop

> <s_m_entry_id>
2476

> <s_m_entry_name>
wee1_decoys_glide_SP.2201

> <s_m_subgroup_title>
wee1_decoys_glide_SP

> <s_m_subgroupid>
wee1_decoys_glide_SP


$$$$
