ZINC07386210_1371
                    3D
 Schrodinger Suite 2024-2.
 33 34  0  0  1  0            999 V2000
    4.3219   52.4622   29.4600 C   0  0  0  0  0  0
    5.2185   52.9702   28.5216 C   0  0  0  0  0  0
    4.8615   53.9995   27.6539 C   0  0  0  0  0  0
    3.5464   54.4978   27.7475 C   0  0  0  0  0  0
    2.6332   53.9991   28.6969 C   0  0  0  0  0  0
    3.0332   52.9640   29.5433 C   0  0  0  0  0  0
    1.2799   54.5733   28.8405 N   0  3  0  0  0  0
    0.3959   53.8847   29.3435 O   0  0  0  0  0  0
    1.1096   55.7301   28.4817 O   0  5  0  0  0  0
    5.9013   54.5330   26.6804 C   0  0  0  0  0  0
    7.1009   54.2660   26.8047 O   0  0  0  0  0  0
    5.4259   55.2944   25.6826 N   0  0  0  0  0  0
    6.1598   55.6781   24.5716 N   0  0  0  0  0  0
    6.2334   54.5249   23.2197 S   0  0  0  0  0  0
    6.7026   55.2927   22.0611 O   0  0  0  0  0  0
    7.0179   53.3778   23.6760 O   0  0  0  0  0  0
    4.5732   53.9115   22.7993 C   0  0  0  0  0  0
    3.4245   54.2433   23.5337 C   0  0  0  0  0  0
    2.1749   53.7395   23.1792 C   0  0  0  0  0  0
    2.0510   52.8912   22.0836 C   0  0  0  0  0  0
    3.1788   52.5463   21.3419 C   0  0  0  0  0  0
    4.4313   53.0555   21.6957 C   0  0  0  0  0  0
    5.5044   52.7001   20.9589 F   0  0  0  0  0  0
    3.0572   51.7164   20.2802 F   0  0  0  0  0  0
    0.8333   52.4081   21.7444 F   0  0  0  0  0  0
    4.6439   51.6968   30.1452 H   0  0  0  0  0  0
    6.2166   52.5721   28.4734 H   0  0  0  0  0  0
    3.2177   55.2966   27.1026 H   0  0  0  0  0  0
    2.3561   52.5624   30.2845 H   0  0  0  0  0  0
    4.6000   55.8522   25.8361 H   0  0  0  0  0  0
    7.0876   55.9986   24.8607 H   0  0  0  0  0  0
    3.4502   54.8967   24.3824 H   0  0  0  0  0  0
    1.2991   54.0082   23.7516 H   0  0  0  0  0  0
  1  6  2  0  0  0
  1  2  1  0  0  0
  1 26  1  0  0  0
  2  3  2  0  0  0
  2 27  1  0  0  0
  3  4  1  0  0  0
  3 10  1  0  0  0
  4  5  2  0  0  0
  4 28  1  0  0  0
  5  6  1  0  0  0
  5  7  1  0  0  0
  6 29  1  0  0  0
  7  8  2  0  0  0
  7  9  1  0  0  0
 10 11  2  0  0  0
 10 12  1  0  0  0
 12 13  1  0  0  0
 12 30  1  0  0  0
 13 14  1  0  0  0
 13 31  1  0  0  0
 14 15  2  0  0  0
 14 16  2  0  0  0
 14 17  1  0  0  0
 17 22  2  0  0  0
 17 18  1  0  0  0
 18 19  2  0  0  0
 18 32  1  0  0  0
 19 20  1  0  0  0
 19 33  1  0  0  0
 20 21  2  0  0  0
 20 25  1  0  0  0
 21 22  1  0  0  0
 21 24  1  0  0  0
 22 23  1  0  0  0
M  CHG  2   7   1   9  -1
M  END
> <i_i_glide_confnum>
5

> <i_i_glide_lignum>
1372

> <i_i_glide_posenum>
389

> <i_i_glide_rotatable_bonds>
6

> <i_m_Source_File_Index>
5827

> <b_m_subgroup_collapsed>
0

> <r_i_docking_score>
-3.3722

> <r_i_glide_ecoul>
0.359467

> <r_i_glide_eff_state_penalty>
0

> <r_i_glide_einternal>
6.25387

> <r_i_glide_emodel>
-37.3177

> <r_i_glide_energy>
-38.1728

> <r_i_glide_erotb>
0.549439

> <r_i_glide_esite>
-0.0604662

> <r_i_glide_evdw>
-38.5323

> <r_i_glide_gscore>
-3.3722

> <r_i_glide_hbond>
-0.121513

> <r_i_glide_ligand_efficiency>
-0.134888

> <r_i_glide_ligand_efficiency_ln>
-0.799312

> <r_i_glide_ligand_efficiency_sa>
-0.394415

> <r_i_glide_lipo>
-2.15055

> <r_i_glide_metal>
0

> <r_i_glide_rewards>
0.283589

> <s_i_glide_gridfile>
wee1_glide-grid

> <s_m_Source_File>
wee1_decoys_glide_SP.sdf

> <s_m_Source_Path>
/Users/zhangxujun/Desktop

> <s_m_entry_id>
6102

> <s_m_entry_name>
wee1_decoys_glide_SP.5827

> <s_m_subgroup_title>
wee1_decoys_glide_SP

> <s_m_subgroupid>
wee1_decoys_glide_SP


$$$$
