ZINC43736407_956
                    3D
 Schrodinger Suite 2024-2.
 82 86  0  0  1  0            999 V2000
   -3.3425   50.4594   21.6479 C   0  0  0  0  0  0
   -2.2163   50.2901   22.6566 C   0  0  0  0  0  0
   -2.0208   49.3710   23.6254 C   0  0  0  0  0  0
   -2.7987   48.2301   24.2852 C   0  0  2  0  0  0
   -4.3144   48.1383   23.9320 C   0  0  0  0  0  0
   -5.2310   49.1476   24.6396 C   0  0  0  0  0  0
   -5.0515   49.0707   26.1787 C   0  0  1  0  0  0
   -5.1173   48.0092   26.4217 H   0  0  0  0  0  0
   -3.5975   49.5244   26.4843 C   0  0  1  0  0  0
   -3.4248   49.3727   27.5515 H   0  0  0  0  0  0
   -2.5210   48.6179   25.7738 C   0  0  2  0  0  0
   -2.5156   47.6888   26.3493 H   0  0  0  0  0  0
   -1.0800   49.2065   25.7713 C   0  0  0  0  0  0
   -0.6759   49.5213   24.3101 C   0  0  2  0  0  0
   -0.2291   50.9347   23.8752 C   0  0  1  0  0  0
    0.7944   50.8901   23.5032 H   0  0  0  0  0  0
   -1.0926   51.2264   22.6419 C   0  0  0  0  0  0
   -0.9218   52.0991   21.7951 O   0  0  0  0  0  0
   -0.2691   52.1218   24.8889 C   0  0  0  0  0  0
    0.8751   52.0794   25.9361 C   0  0  1  0  0  0
    1.1039   51.0260   26.0859 H   0  0  0  0  0  0
    2.1325   52.7949   25.3861 C   0  0  0  0  0  0
    0.4806   52.6067   27.3379 C   0  0  0  0  0  0
    1.5138   52.3591   28.3496 N   0  0  0  0  0  0
    1.3571   52.3141   29.6826 C   0  0  0  0  0  0
    2.3165   52.1012   30.4218 O   0  0  0  0  0  0
   -0.0276   52.5278   30.2924 C   0  0  0  0  0  0
    0.2816   48.5898   23.8262 O   0  0  0  0  0  0
   -3.4555   51.0535   26.2669 C   0  0  0  0  0  0
   -4.6276   51.8359   26.8208 C   0  0  0  0  0  0
   -5.7970   51.3092   27.2375 C   0  0  0  0  0  0
   -6.1292   49.8028   27.0877 C   0  0  1  0  0  0
   -7.5738   49.6912   26.4909 C   0  0  0  0  0  0
   -8.6477   50.5450   27.1965 C   0  0  0  0  0  0
   -8.2341   52.0288   27.2560 C   0  0  1  0  0  0
   -8.9788   52.5673   27.8463 H   0  0  0  0  0  0
   -6.8569   52.1706   27.9385 C   0  0  0  0  0  0
   -8.2350   52.5913   25.9410 O   0  0  0  0  0  0
   -8.3064   53.9269   25.7437 C   0  0  0  0  0  0
   -8.3963   54.7873   26.6207 O   0  0  0  0  0  0
   -8.2662   54.3037   24.2692 C   0  0  0  0  0  0
   -6.1033   49.1539   28.5025 C   0  0  0  0  0  0
   -2.1710   46.8478   23.9329 C   0  0  0  0  0  0
   -3.0643   51.0955   20.8066 H   0  0  0  0  0  0
   -3.6356   49.4941   21.2337 H   0  0  0  0  0  0
   -4.2107   50.8966   22.1358 H   0  0  0  0  0  0
   -4.4622   48.1857   22.8545 H   0  0  0  0  0  0
   -4.6911   47.1496   24.2092 H   0  0  0  0  0  0
   -5.1324   50.1672   24.2668 H   0  0  0  0  0  0
   -6.2428   48.8518   24.3612 H   0  0  0  0  0  0
   -0.9533   50.0184   26.4807 H   0  0  0  0  0  0
   -0.4127   48.4360   26.1621 H   0  0  0  0  0  0
   -0.2139   53.0742   24.3567 H   0  0  0  0  0  0
   -1.2319   52.1640   25.3723 H   0  0  0  0  0  0
    2.9746   52.7463   26.0757 H   0  0  0  0  0  0
    2.4635   52.3541   24.4445 H   0  0  0  0  0  0
    1.9388   53.8502   25.1976 H   0  0  0  0  0  0
    0.3126   53.6819   27.2999 H   0  0  0  0  0  0
   -0.4659   52.1594   27.6397 H   0  0  0  0  0  0
    2.4519   52.2158   28.0027 H   0  0  0  0  0  0
   -0.6662   51.6608   30.1095 H   0  0  0  0  0  0
    0.0486   52.6623   31.3734 H   0  0  0  0  0  0
   -0.5047   53.4152   29.8751 H   0  0  0  0  0  0
    1.0798   48.6503   24.3620 H   0  0  0  0  0  0
   -2.5896   51.4022   26.8260 H   0  0  0  0  0  0
   -3.3062   51.3038   25.2189 H   0  0  0  0  0  0
   -4.4900   52.9003   26.9446 H   0  0  0  0  0  0
   -7.5832   50.0290   25.4548 H   0  0  0  0  0  0
   -7.8883   48.6464   26.4668 H   0  0  0  0  0  0
   -9.6258   50.4372   26.7232 H   0  0  0  0  0  0
   -8.7725   50.1704   28.2143 H   0  0  0  0  0  0
   -6.9354   51.8648   28.9833 H   0  0  0  0  0  0
   -6.5576   53.2172   27.9690 H   0  0  0  0  0  0
   -8.5226   53.4498   23.6410 H   0  0  0  0  0  0
   -8.9690   55.1121   24.0673 H   0  0  0  0  0  0
   -7.2643   54.6418   24.0014 H   0  0  0  0  0  0
   -5.1239   49.2393   28.9750 H   0  0  0  0  0  0
   -6.8194   49.6001   29.1897 H   0  0  0  0  0  0
   -6.3413   48.0907   28.4532 H   0  0  0  0  0  0
   -1.1865   46.7031   24.3753 H   0  0  0  0  0  0
   -2.7736   46.0251   24.3132 H   0  0  0  0  0  0
   -2.0742   46.7179   22.8517 H   0  0  0  0  0  0
  1  2  1  0  0  0
  1 44  1  0  0  0
  1 45  1  0  0  0
  1 46  1  0  0  0
  2 17  1  0  0  0
  2  3  2  0  0  0
  3 14  1  0  0  0
  3  4  1  0  0  0
  4 11  1  0  0  0
  4  5  1  0  0  0
  4 43  1  0  0  0
  5  6  1  0  0  0
  5 47  1  0  0  0
  5 48  1  0  0  0
  6  7  1  0  0  0
  6 49  1  0  0  0
  6 50  1  0  0  0
  7  8  1  0  0  0
  7 32  1  0  0  0
  7  9  1  0  0  0
  9 10  1  0  0  0
  9 11  1  0  0  0
  9 29  1  0  0  0
 11 12  1  0  0  0
 11 13  1  0  0  0
 13 14  1  0  0  0
 13 51  1  0  0  0
 13 52  1  0  0  0
 14 15  1  0  0  0
 14 28  1  0  0  0
 15 16  1  0  0  0
 15 17  1  0  0  0
 15 19  1  0  0  0
 17 18  2  0  0  0
 19 20  1  0  0  0
 19 53  1  0  0  0
 19 54  1  0  0  0
 20 21  1  0  0  0
 20 22  1  0  0  0
 20 23  1  0  0  0
 22 55  1  0  0  0
 22 56  1  0  0  0
 22 57  1  0  0  0
 23 24  1  0  0  0
 23 58  1  0  0  0
 23 59  1  0  0  0
 24 25  1  0  0  0
 24 60  1  0  0  0
 25 26  2  0  0  0
 25 27  1  0  0  0
 27 61  1  0  0  0
 27 62  1  0  0  0
 27 63  1  0  0  0
 28 64  1  0  0  0
 29 30  1  0  0  0
 29 65  1  0  0  0
 29 66  1  0  0  0
 30 31  2  0  0  0
 30 67  1  0  0  0
 31 37  1  0  0  0
 31 32  1  0  0  0
 32 33  1  0  0  0
 32 42  1  0  0  0
 33 34  1  0  0  0
 33 68  1  0  0  0
 33 69  1  0  0  0
 34 35  1  0  0  0
 34 70  1  0  0  0
 34 71  1  0  0  0
 35 36  1  0  0  0
 35 37  1  0  0  0
 35 38  1  0  0  0
 37 72  1  0  0  0
 37 73  1  0  0  0
 38 39  1  0  0  0
 39 40  2  0  0  0
 39 41  1  0  0  0
 41 74  1  0  0  0
 41 75  1  0  0  0
 41 76  1  0  0  0
 42 77  1  0  0  0
 42 78  1  0  0  0
 42 79  1  0  0  0
 43 80  1  0  0  0
 43 81  1  0  0  0
 43 82  1  0  0  0
M  END
> <i_i_glide_confnum>
99

> <i_i_glide_lignum>
957

> <i_i_glide_posenum>
126

> <i_i_glide_rotatable_bonds>
8

> <i_m_Source_File_Index>
3885

> <b_m_subgroup_collapsed>
0

> <r_i_docking_score>
-1.69859

> <r_i_glide_ecoul>
-8.06283

> <r_i_glide_eff_state_penalty>
0

> <r_i_glide_einternal>
4.61426

> <r_i_glide_emodel>
-33.8225

> <r_i_glide_energy>
-36.4633

> <r_i_glide_erotb>
0.391375

> <r_i_glide_esite>
0

> <r_i_glide_evdw>
-28.4005

> <r_i_glide_gscore>
-1.69859

> <r_i_glide_hbond>
-0.430029

> <r_i_glide_ligand_efficiency>
-0.0459077

> <r_i_glide_ligand_efficiency_ln>
-0.368384

> <r_i_glide_ligand_efficiency_sa>
-0.152975

> <r_i_glide_lipo>
-0.334032

> <r_i_glide_metal>
0

> <r_i_glide_rewards>
1.30355

> <s_i_glide_gridfile>
wee1_glide-grid

> <s_m_Source_File>
wee1_decoys_glide_SP.sdf

> <s_m_Source_Path>
/Users/zhangxujun/Desktop

> <s_m_entry_id>
4160

> <s_m_entry_name>
wee1_decoys_glide_SP.3885

> <s_m_subgroup_title>
wee1_decoys_glide_SP

> <s_m_subgroupid>
wee1_decoys_glide_SP


$$$$
