ZINC62569564_457
                    3D
 Schrodinger Suite 2024-2.
 60 63  0  0  1  0            999 V2000
    3.9111   52.2747   31.0664 C   0  0  0  0  0  0
    3.7049   53.5512   30.4756 O   0  0  0  0  0  0
    3.2870   53.5358   29.1652 C   0  0  0  0  0  0
    4.1601   54.0228   28.1877 C   0  0  0  0  0  0
    3.7614   54.0993   26.8457 C   0  0  0  0  0  0
    2.4656   53.6964   26.4986 C   0  0  0  0  0  0
    1.6030   53.1891   27.4694 C   0  0  0  0  0  0
    1.9972   53.1059   28.8140 C   0  0  0  0  0  0
    1.1764   52.6412   29.8268 O   0  0  0  0  0  0
   -0.0994   52.0953   29.5101 C   0  0  0  0  0  0
    1.8221   53.8500   24.7053 Br  0  0  0  0  0  0
    4.5784   54.6059   25.8174 N   0  0  0  0  0  0
    5.9224   54.6727   25.7419 C   0  0  0  0  0  0
    6.7037   54.2691   26.6003 O   0  0  0  0  0  0
    6.4925   55.3349   24.4806 C   0  0  0  0  0  0
    6.3347   54.6052   23.1219 C   0  0  0  0  0  0
    4.9832   54.1917   22.6929 N   0  0  0  0  0  0
    4.6856   53.0297   22.0819 C   0  0  0  0  0  0
    5.4801   52.0968   22.0235 O   0  0  0  0  0  0
    3.4244   52.9900   21.6101 N   0  0  0  0  0  0
    2.6238   51.8161   21.2011 C   0  0  0  0  0  0
    1.3019   52.3325   20.5491 C   0  0  0  0  0  0
    0.3725   51.1770   20.0987 C   0  0  1  0  0  0
    1.1184   50.3142   19.0487 C   0  0  0  0  0  0
    2.4137   49.7433   19.6769 C   0  0  1  0  0  0
    3.3255   50.9137   20.1331 C   0  0  0  0  0  0
    2.0354   48.8685   20.8995 C   0  0  0  0  0  0
    1.2986   49.7319   21.9525 C   0  0  2  0  0  0
    0.0052   50.3096   21.3275 C   0  0  0  0  0  0
    2.2226   50.8932   22.3990 C   0  0  0  0  0  0
    4.3044   52.4085   32.0737 H   0  0  0  0  0  0
    4.6445   51.6966   30.5001 H   0  0  0  0  0  0
    2.9918   51.6971   31.1570 H   0  0  0  0  0  0
    5.1386   54.3610   28.4967 H   0  0  0  0  0  0
    0.6151   52.8815   27.1621 H   0  0  0  0  0  0
   -0.5756   51.7383   30.4235 H   0  0  0  0  0  0
   -0.7581   52.8425   29.0676 H   0  0  0  0  0  0
   -0.0153   51.2437   28.8333 H   0  0  0  0  0  0
    4.0822   54.8378   24.9727 H   0  0  0  0  0  0
    5.9852   56.2942   24.3952 H   0  0  0  0  0  0
    7.5034   55.7285   24.5824 H   0  0  0  0  0  0
    7.0600   54.8816   22.3550 H   0  0  0  0  0  0
    6.7932   53.6497   23.3909 H   0  0  0  0  0  0
    4.2922   54.9244   22.6429 H   0  0  0  0  0  0
    2.9589   53.8743   21.4673 H   0  0  0  0  0  0
    0.7658   52.9855   21.2398 H   0  0  0  0  0  0
    1.5406   52.9376   19.6751 H   0  0  0  0  0  0
   -0.5351   51.5874   19.6529 H   0  0  0  0  0  0
    0.4799   49.5029   18.6960 H   0  0  0  0  0  0
    1.3628   50.9106   18.1673 H   0  0  0  0  0  0
    2.9457   49.1396   18.9387 H   0  0  0  0  0  0
    3.6144   51.5180   19.2724 H   0  0  0  0  0  0
    4.2529   50.4981   20.5238 H   0  0  0  0  0  0
    1.4032   48.0402   20.5780 H   0  0  0  0  0  0
    2.9185   48.4172   21.3493 H   0  0  0  0  0  0
    1.0448   49.1150   22.8166 H   0  0  0  0  0  0
   -0.5400   50.9025   22.0638 H   0  0  0  0  0  0
   -0.6648   49.5002   21.0334 H   0  0  0  0  0  0
    3.1044   50.4672   22.8713 H   0  0  0  0  0  0
    1.7201   51.4709   23.1742 H   0  0  0  0  0  0
  1  2  1  0  0  0
  1 31  1  0  0  0
  1 32  1  0  0  0
  1 33  1  0  0  0
  2  3  1  0  0  0
  3  8  2  0  0  0
  3  4  1  0  0  0
  4  5  2  0  0  0
  4 34  1  0  0  0
  5  6  1  0  0  0
  5 12  1  0  0  0
  6  7  2  0  0  0
  6 11  1  0  0  0
  7  8  1  0  0  0
  7 35  1  0  0  0
  8  9  1  0  0  0
  9 10  1  0  0  0
 10 36  1  0  0  0
 10 37  1  0  0  0
 10 38  1  0  0  0
 12 13  1  0  0  0
 12 39  1  0  0  0
 13 14  2  0  0  0
 13 15  1  0  0  0
 15 16  1  0  0  0
 15 40  1  0  0  0
 15 41  1  0  0  0
 16 17  1  0  0  0
 16 42  1  0  0  0
 16 43  1  0  0  0
 17 18  1  0  0  0
 17 44  1  0  0  0
 18 19  2  0  0  0
 18 20  1  0  0  0
 20 21  1  0  0  0
 20 45  1  0  0  0
 21 26  1  0  0  0
 21 30  1  0  0  0
 21 22  1  0  0  0
 22 23  1  0  0  0
 22 46  1  0  0  0
 22 47  1  0  0  0
 23 29  1  0  0  0
 23 24  1  0  0  0
 23 48  1  0  0  0
 24 25  1  0  0  0
 24 49  1  0  0  0
 24 50  1  0  0  0
 25 26  1  0  0  0
 25 27  1  0  0  0
 25 51  1  0  0  0
 26 52  1  0  0  0
 26 53  1  0  0  0
 27 28  1  0  0  0
 27 54  1  0  0  0
 27 55  1  0  0  0
 28 29  1  0  0  0
 28 30  1  0  0  0
 28 56  1  0  0  0
 29 57  1  0  0  0
 29 58  1  0  0  0
 30 59  1  0  0  0
 30 60  1  0  0  0
M  END
> <i_i_glide_confnum>
41

> <i_i_glide_lignum>
458

> <i_i_glide_posenum>
351

> <i_i_glide_rotatable_bonds>
10

> <i_m_Source_File_Index>
4022

> <b_m_subgroup_collapsed>
0

> <r_i_docking_score>
-5.84924

> <r_i_glide_ecoul>
-4.56546

> <r_i_glide_eff_state_penalty>
0

> <r_i_glide_einternal>
11.3052

> <r_i_glide_emodel>
-60.9096

> <r_i_glide_energy>
-48.5823

> <r_i_glide_erotb>
0.615094

> <r_i_glide_esite>
0

> <r_i_glide_evdw>
-44.0168

> <r_i_glide_gscore>
-5.84924

> <r_i_glide_hbond>
-0.32

> <r_i_glide_ligand_efficiency>
-0.194975

> <r_i_glide_ligand_efficiency_ln>
-1.32901

> <r_i_glide_ligand_efficiency_sa>
-0.605832

> <r_i_glide_lipo>
-2.44623

> <r_i_glide_metal>
0

> <r_i_glide_rewards>
-0.81245

> <s_i_glide_gridfile>
wee1_glide-grid

> <s_m_Source_File>
wee1_decoys_glide_SP.sdf

> <s_m_Source_Path>
/Users/zhangxujun/Desktop

> <s_m_entry_id>
4297

> <s_m_entry_name>
wee1_decoys_glide_SP.4022

> <s_m_subgroup_title>
wee1_decoys_glide_SP

> <s_m_subgroupid>
wee1_decoys_glide_SP


$$$$
