ZINC13880442_3955
                    3D
 Schrodinger Suite 2024-2.
 39 42  0  0  1  0            999 V2000
    4.3762   54.4234   24.7589 C   0  0  0  0  0  0
    3.1034   54.0958   25.2284 C   0  0  0  0  0  0
    2.9252   53.6666   26.5502 C   0  0  0  0  0  0
    4.0384   53.5544   27.3864 C   0  0  0  0  0  0
    5.3055   53.8769   26.9151 C   0  0  0  0  0  0
    5.4806   54.3171   25.6038 C   0  0  0  0  0  0
    6.7854   53.6970   28.0810 Br  0  0  0  0  0  0
    1.5277   53.3524   27.0872 C   0  0  1  0  0  0
    0.8154   53.6967   26.3503 H   0  0  0  0  0  0
    1.2669   51.8527   27.3626 C   0  0  0  0  0  0
   -0.0976   51.5587   28.0512 C   0  0  1  0  0  0
   -0.0964   50.5053   28.3294 H   0  0  0  0  0  0
   -0.1472   52.3227   29.3140 N   0  0  0  0  0  0
    0.4385   53.5757   29.3768 C   0  0  0  0  0  0
    1.2067   54.0469   28.3373 N   0  0  0  0  0  0
    1.6452   55.2684   28.6608 N   0  0  0  0  0  0
    1.1674   55.4248   29.8707 C   0  0  0  0  0  0
    0.4231   54.4427   30.3575 N   0  0  0  0  0  0
    1.4380   56.5519   30.5757 N   0  0  0  0  0  0
   -1.3541   51.6972   27.1506 C   0  0  0  0  0  0
   -1.2506   52.0401   25.7890 C   0  0  0  0  0  0
   -2.3776   52.1552   24.9784 C   0  0  0  0  0  0
   -3.6398   51.9007   25.5016 C   0  0  0  0  0  0
   -3.7675   51.5117   26.8311 C   0  0  0  0  0  0
   -2.6413   51.3974   27.6492 C   0  0  0  0  0  0
   -2.9093   50.8967   29.2814 Cl  0  0  0  0  0  0
   -5.0368   52.0531   24.4998 Cl  0  0  0  0  0  0
    4.5056   54.7568   23.7397 H   0  0  0  0  0  0
    2.2571   54.1903   24.5634 H   0  0  0  0  0  0
    3.9214   53.2229   28.4080 H   0  0  0  0  0  0
    6.4672   54.5632   25.2399 H   0  0  0  0  0  0
    1.3491   51.2960   26.4332 H   0  0  0  0  0  0
    2.0701   51.4522   27.9836 H   0  0  0  0  0  0
   -0.8275   52.0044   29.9919 H   0  0  0  0  0  0
    1.9859   57.3059   30.1843 H   0  0  0  0  0  0
    1.1027   56.6761   31.5200 H   0  0  0  0  0  0
   -0.3000   52.2133   25.3135 H   0  0  0  0  0  0
   -2.2685   52.4323   23.9401 H   0  0  0  0  0  0
   -4.7457   51.2910   27.2321 H   0  0  0  0  0  0
  1  6  2  0  0  0
  1  2  1  0  0  0
  1 28  1  0  0  0
  2  3  2  0  0  0
  2 29  1  0  0  0
  3  4  1  0  0  0
  3  8  1  0  0  0
  4  5  2  0  0  0
  4 30  1  0  0  0
  5  6  1  0  0  0
  5  7  1  0  0  0
  6 31  1  0  0  0
  8  9  1  0  0  0
  8 15  1  0  0  0
  8 10  1  0  0  0
 10 11  1  0  0  0
 10 32  1  0  0  0
 10 33  1  0  0  0
 11 12  1  0  0  0
 11 13  1  0  0  0
 11 20  1  0  0  0
 13 14  1  0  0  0
 13 34  1  0  0  0
 14 18  2  0  0  0
 14 15  1  0  0  0
 15 16  1  0  0  0
 16 17  2  0  0  0
 17 18  1  0  0  0
 17 19  1  0  0  0
 19 35  1  0  0  0
 19 36  1  0  0  0
 20 25  2  0  0  0
 20 21  1  0  0  0
 21 22  2  0  0  0
 21 37  1  0  0  0
 22 23  1  0  0  0
 22 38  1  0  0  0
 23 24  2  0  0  0
 23 27  1  0  0  0
 24 25  1  0  0  0
 24 39  1  0  0  0
 25 26  1  0  0  0
M  END
> <i_i_glide_confnum>
6

> <i_i_glide_lignum>
3956

> <i_i_glide_posenum>
354

> <i_i_glide_rotatable_bonds>
2

> <i_m_Source_File_Index>
1066

> <b_m_subgroup_collapsed>
0

> <r_i_docking_score>
-5.5703

> <r_i_glide_ecoul>
-1.20018

> <r_i_glide_eff_state_penalty>
0

> <r_i_glide_einternal>
7.60538

> <r_i_glide_emodel>
-49.9942

> <r_i_glide_energy>
-42.0006

> <r_i_glide_erotb>
0.206966

> <r_i_glide_esite>
-0.00463642

> <r_i_glide_evdw>
-40.8005

> <r_i_glide_gscore>
-5.5703

> <r_i_glide_hbond>
-0.0870153

> <r_i_glide_ligand_efficiency>
-0.222812

> <r_i_glide_ligand_efficiency_ln>
-1.32033

> <r_i_glide_ligand_efficiency_sa>
-0.651507

> <r_i_glide_lipo>
-1.98492

> <r_i_glide_metal>
0

> <r_i_glide_rewards>
-1.48065

> <s_i_glide_gridfile>
wee1_glide-grid

> <s_m_Source_File>
wee1_decoys_glide_SP.sdf

> <s_m_Source_Path>
/Users/zhangxujun/Desktop

> <s_m_entry_id>
1341

> <s_m_entry_name>
wee1_decoys_glide_SP.1066

> <s_m_subgroup_title>
wee1_decoys_glide_SP

> <s_m_subgroupid>
wee1_decoys_glide_SP


$$$$
