ZINC14012043_2247
                    3D
 Schrodinger Suite 2024-2.
 36 37  0  0  1  0            999 V2000
    2.5884   53.6503   27.7327 C   0  0  0  0  0  0
    3.9129   54.0720   27.4266 O   0  0  0  0  0  0
    4.2986   54.1937   26.1057 C   0  0  0  0  0  0
    3.4457   53.9579   25.0164 C   0  0  0  0  0  0
    3.9091   54.0972   23.7089 C   0  0  0  0  0  0
    5.2334   54.4964   23.4504 C   0  0  0  0  0  0
    6.0787   54.7323   24.5423 C   0  0  0  0  0  0
    5.6203   54.5769   25.8500 C   0  0  0  0  0  0
    6.8327   54.8944   27.2822 Br  0  0  0  0  0  0
    5.7544   54.6916   22.0417 C   0  0  0  0  0  0
    6.7927   55.3338   21.8613 O   0  0  0  0  0  0
    5.0204   54.0972   21.0671 N   0  0  0  0  0  0
    5.1485   54.0445   19.7013 C   0  0  0  0  0  0
    6.2134   54.8964   18.7359 S   0  0  0  0  0  0
    4.2752   53.2225   19.0517 N   0  0  0  0  0  0
    3.2785   52.3686   19.5646 C   0  0  0  0  0  0
    3.6118   51.4784   20.5997 C   0  0  0  0  0  0
    2.6561   50.6214   21.1404 C   0  0  0  0  0  0
    1.3593   50.6326   20.6442 C   0  0  0  0  0  0
    1.0214   51.4935   19.6021 C   0  0  0  0  0  0
    1.9661   52.3681   19.0304 C   0  0  0  0  0  0
    1.5343   53.2458   17.8997 N   0  3  0  0  0  0
    2.3591   53.9043   17.2758 O   0  0  0  0  0  0
    0.3368   53.2780   17.6202 O   0  5  0  0  0  0
    0.1734   49.5649   21.3081 Cl  0  0  0  0  0  0
    2.4693   53.6055   28.8142 H   0  0  0  0  0  0
    2.3861   52.6523   27.3399 H   0  0  0  0  0  0
    1.8431   54.3492   27.3505 H   0  0  0  0  0  0
    2.4167   53.6654   25.1643 H   0  0  0  0  0  0
    3.2058   53.9172   22.9099 H   0  0  0  0  0  0
    7.1047   55.0352   24.3870 H   0  0  0  0  0  0
    4.2157   53.6006   21.4130 H   0  0  0  0  0  0
    4.3123   53.2575   18.0425 H   0  0  0  0  0  0
    4.6197   51.4343   20.9817 H   0  0  0  0  0  0
    2.9204   49.9437   21.9405 H   0  0  0  0  0  0
    0.0075   51.4628   19.2303 H   0  0  0  0  0  0
  1  2  1  0  0  0
  1 26  1  0  0  0
  1 27  1  0  0  0
  1 28  1  0  0  0
  2  3  1  0  0  0
  3  8  2  0  0  0
  3  4  1  0  0  0
  4  5  2  0  0  0
  4 29  1  0  0  0
  5  6  1  0  0  0
  5 30  1  0  0  0
  6  7  2  0  0  0
  6 10  1  0  0  0
  7  8  1  0  0  0
  7 31  1  0  0  0
  8  9  1  0  0  0
 10 11  2  0  0  0
 10 12  1  0  0  0
 12 13  1  0  0  0
 12 32  1  0  0  0
 13 14  2  0  0  0
 13 15  1  0  0  0
 15 16  1  0  0  0
 15 33  1  0  0  0
 16 21  2  0  0  0
 16 17  1  0  0  0
 17 18  2  0  0  0
 17 34  1  0  0  0
 18 19  1  0  0  0
 18 35  1  0  0  0
 19 20  2  0  0  0
 19 25  1  0  0  0
 20 21  1  0  0  0
 20 36  1  0  0  0
 21 22  1  0  0  0
 22 23  2  0  0  0
 22 24  1  0  0  0
M  CHG  2  22   1  24  -1
M  END
> <i_i_glide_confnum>
10

> <i_i_glide_lignum>
2248

> <i_i_glide_posenum>
108

> <i_i_glide_rotatable_bonds>
7

> <i_m_Source_File_Index>
2902

> <b_m_subgroup_collapsed>
0

> <r_i_docking_score>
-4.24419

> <r_i_glide_ecoul>
-0.512614

> <r_i_glide_eff_state_penalty>
0

> <r_i_glide_einternal>
4.76571

> <r_i_glide_emodel>
-46.739

> <r_i_glide_energy>
-37.9074

> <r_i_glide_erotb>
0.505746

> <r_i_glide_esite>
-0.0966961

> <r_i_glide_evdw>
-37.3948

> <r_i_glide_gscore>
-4.24419

> <r_i_glide_hbond>
0

> <r_i_glide_ligand_efficiency>
-0.169768

> <r_i_glide_ligand_efficiency_ln>
-1.006

> <r_i_glide_ligand_efficiency_sa>
-0.496404

> <r_i_glide_lipo>
-1.8991

> <r_i_glide_metal>
0

> <r_i_glide_rewards>
-0.807509

> <s_i_glide_gridfile>
wee1_glide-grid

> <s_m_Source_File>
wee1_decoys_glide_SP.sdf

> <s_m_Source_Path>
/Users/zhangxujun/Desktop

> <s_m_entry_id>
3177

> <s_m_entry_name>
wee1_decoys_glide_SP.2902

> <s_m_subgroup_title>
wee1_decoys_glide_SP

> <s_m_subgroupid>
wee1_decoys_glide_SP


$$$$
