ZINC10246272_6091
                    3D
 Schrodinger Suite 2024-2.
 55 60  0  0  1  0            999 V2000
    6.5839   55.0657   24.4089 C   0  0  0  0  0  0
    5.6622   54.8853   25.4407 C   0  0  0  0  0  0
    4.4121   54.3164   25.1958 C   0  0  0  0  0  0
    4.1315   53.9532   23.8737 C   0  0  0  0  0  0
    5.0353   54.1373   22.7998 C   0  0  0  0  0  0
    6.2991   54.6887   23.0941 C   0  0  0  0  0  0
    4.3152   53.6764   21.6333 C   0  0  0  0  0  0
    3.1069   53.1482   22.1108 C   0  0  0  0  0  0
    2.9826   53.3538   23.4588 O   0  0  0  0  0  0
    2.0170   52.4959   21.4117 C   0  0  0  0  0  0
    2.1134   52.2234   20.2155 O   0  0  0  0  0  0
    0.9404   52.2488   22.1909 N   0  0  0  0  0  0
   -0.3096   51.6966   21.8549 C   0  0  0  0  0  0
   -1.2231   51.5499   22.9065 C   0  0  0  0  0  0
   -2.4912   51.0131   22.6773 C   0  0  0  0  0  0
   -2.8606   50.6193   21.3916 C   0  0  0  0  0  0
   -1.9600   50.7640   20.3334 C   0  0  0  0  0  0
   -0.6913   51.2996   20.5616 C   0  0  0  0  0  0
   -2.3172   50.3933   19.0828 F   0  0  0  0  0  0
   -4.0902   50.1003   21.1732 F   0  0  0  0  0  0
    4.6784   53.7472   20.2867 N   0  0  0  0  0  0
    5.4178   54.7141   19.7011 C   0  0  0  0  0  0
    5.9361   55.6494   20.3206 O   0  0  0  0  0  0
    5.5334   54.6483   18.1569 C   0  0  0  0  0  0
    7.0118   54.5323   17.7690 C   0  0  0  0  0  0
    7.6579   53.3006   17.6042 C   0  0  0  0  0  0
    9.0152   53.2453   17.2817 C   0  0  0  0  0  0
    9.7491   54.4213   17.1224 C   0  0  0  0  0  0
    9.1164   55.6568   17.2525 C   0  0  0  0  0  0
    7.7604   55.7083   17.5686 C   0  0  0  0  0  0
    7.1703   56.9531   17.6137 O   0  0  0  0  0  0
    5.8149   57.0417   17.3579 C   0  0  0  0  0  0
    4.9553   55.9486   17.5756 C   0  0  0  0  0  0
    3.6004   56.0993   17.2548 C   0  0  0  0  0  0
    3.1236   57.2967   16.7134 C   0  0  0  0  0  0
    3.9929   58.3660   16.5010 C   0  0  0  0  0  0
    5.3420   58.2417   16.8276 C   0  0  0  0  0  0
    7.5349   55.5182   24.6270 H   0  0  0  0  0  0
    5.9234   55.1826   26.4451 H   0  0  0  0  0  0
    3.6986   54.1509   25.9921 H   0  0  0  0  0  0
    7.0348   54.8470   22.3182 H   0  0  0  0  0  0
    1.0482   52.5160   23.1573 H   0  0  0  0  0  0
   -0.9575   51.8438   23.9120 H   0  0  0  0  0  0
   -3.1878   50.9003   23.4943 H   0  0  0  0  0  0
   -0.0292   51.3901   19.7140 H   0  0  0  0  0  0
    4.2227   53.0776   19.6791 H   0  0  0  0  0  0
    4.9829   53.7957   17.7537 H   0  0  0  0  0  0
    7.1029   52.3811   17.7313 H   0  0  0  0  0  0
    9.5044   52.2854   17.1732 H   0  0  0  0  0  0
   10.8029   54.3739   16.8902 H   0  0  0  0  0  0
    9.6733   56.5710   17.1066 H   0  0  0  0  0  0
    2.9111   55.2836   17.4238 H   0  0  0  0  0  0
    2.0772   57.4010   16.4661 H   0  0  0  0  0  0
    3.6251   59.2968   16.0937 H   0  0  0  0  0  0
    6.0112   59.0764   16.6651 H   0  0  0  0  0  0
  1  6  2  0  0  0
  1  2  1  0  0  0
  1 38  1  0  0  0
  2  3  2  0  0  0
  2 39  1  0  0  0
  3  4  1  0  0  0
  3 40  1  0  0  0
  4  9  1  0  0  0
  4  5  2  0  0  0
  5  6  1  0  0  0
  5  7  1  0  0  0
  6 41  1  0  0  0
  7  8  2  0  0  0
  7 21  1  0  0  0
  8  9  1  0  0  0
  8 10  1  0  0  0
 10 11  2  0  0  0
 10 12  1  0  0  0
 12 13  1  0  0  0
 12 42  1  0  0  0
 13 18  2  0  0  0
 13 14  1  0  0  0
 14 15  2  0  0  0
 14 43  1  0  0  0
 15 16  1  0  0  0
 15 44  1  0  0  0
 16 17  2  0  0  0
 16 20  1  0  0  0
 17 18  1  0  0  0
 17 19  1  0  0  0
 18 45  1  0  0  0
 21 22  1  0  0  0
 21 46  1  0  0  0
 22 23  2  0  0  0
 22 24  1  0  0  0
 24 33  1  0  0  0
 24 25  1  0  0  0
 24 47  1  0  0  0
 25 30  2  0  0  0
 25 26  1  0  0  0
 26 27  2  0  0  0
 26 48  1  0  0  0
 27 28  1  0  0  0
 27 49  1  0  0  0
 28 29  2  0  0  0
 28 50  1  0  0  0
 29 30  1  0  0  0
 29 51  1  0  0  0
 30 31  1  0  0  0
 31 32  1  0  0  0
 32 37  2  0  0  0
 32 33  1  0  0  0
 33 34  2  0  0  0
 34 35  1  0  0  0
 34 52  1  0  0  0
 35 36  2  0  0  0
 35 53  1  0  0  0
 36 37  1  0  0  0
 36 54  1  0  0  0
 37 55  1  0  0  0
M  END
> <i_i_glide_confnum>
6

> <i_i_glide_lignum>
6092

> <i_i_glide_posenum>
303

> <i_i_glide_rotatable_bonds>
6

> <i_m_Source_File_Index>
4896

> <b_m_subgroup_collapsed>
0

> <r_i_docking_score>
-4.29548

> <r_i_glide_ecoul>
-3.0423

> <r_i_glide_eff_state_penalty>
0

> <r_i_glide_einternal>
0.460927

> <r_i_glide_emodel>
-55.5626

> <r_i_glide_energy>
-42.7593

> <r_i_glide_erotb>
0.496421

> <r_i_glide_esite>
-0.00859762

> <r_i_glide_evdw>
-39.717

> <r_i_glide_gscore>
-4.29548

> <r_i_glide_hbond>
0

> <r_i_glide_ligand_efficiency>
-0.116094

> <r_i_glide_ligand_efficiency_ln>
-0.931589

> <r_i_glide_ligand_efficiency_sa>
-0.386851

> <r_i_glide_lipo>
-2.2446

> <r_i_glide_metal>
0

> <r_i_glide_rewards>
-0.0965043

> <s_i_glide_gridfile>
wee1_glide-grid

> <s_m_Source_File>
wee1_decoys_glide_SP.sdf

> <s_m_Source_Path>
/Users/zhangxujun/Desktop

> <s_m_entry_id>
5171

> <s_m_entry_name>
wee1_decoys_glide_SP.4896

> <s_m_subgroup_title>
wee1_decoys_glide_SP

> <s_m_subgroupid>
wee1_decoys_glide_SP


$$$$
