ZINC39555278_2420
                    3D
 Schrodinger Suite 2024-2.
 50 53  0  0  1  0            999 V2000
   -0.4955   52.0962   30.3137 C   0  0  0  0  0  0
   -1.1560   51.6286   29.1835 C   0  0  0  0  0  0
   -0.7018   51.9778   27.9121 C   0  0  0  0  0  0
    0.4186   52.8036   27.8008 C   0  0  0  0  0  0
    1.0991   53.2658   28.9358 C   0  0  0  0  0  0
    0.6269   52.9072   30.1993 C   0  0  0  0  0  0
    2.4959   54.3927   28.8278 S   0  0  0  0  0  0
    3.2455   54.2610   30.0815 O   0  0  0  0  0  0
    1.9322   55.6961   28.4680 O   0  0  0  0  0  0
    3.5586   53.8496   27.5057 N   0  0  0  0  0  0
    5.0123   53.5966   27.7326 C   0  0  0  0  0  0
    5.9203   54.3764   26.7465 C   0  0  0  0  0  0
    5.4145   54.1659   25.2966 C   0  0  0  0  0  0
    3.9215   54.5033   25.1117 C   0  0  0  0  0  0
    3.0463   53.7694   26.1188 C   0  0  0  0  0  0
    6.2229   54.8800   24.1954 C   0  0  0  0  0  0
    7.0932   55.6966   24.4944 O   0  0  0  0  0  0
    5.8911   54.4966   22.9389 N   0  0  0  0  0  0
    6.3114   54.9704   21.6852 C   0  0  0  0  0  0
    7.5078   55.6659   21.4647 C   0  0  0  0  0  0
    7.9354   56.0184   20.1844 C   0  0  0  0  0  0
    7.1636   55.7373   19.0604 C   0  0  0  0  0  0
    5.9440   55.0726   19.2373 C   0  0  0  0  0  0
    5.5336   54.7009   20.5435 C   0  0  0  0  0  0
    4.3138   54.0711   20.3588 N   0  0  0  0  0  0
    3.7015   53.6758   21.0562 H   0  0  0  0  0  0
    3.9548   54.0183   19.0646 N   0  0  0  0  0  0
    4.8995   54.6106   18.3848 C   0  0  0  0  0  0
   -1.4142   51.4881   26.6524 C   0  0  0  0  0  0
   -2.6192   50.9782   26.9157 F   0  0  0  0  0  0
   -1.5796   52.4956   25.7944 F   0  0  0  0  0  0
   -0.6733   50.5505   26.0634 F   0  0  0  0  0  0
   -0.8560   51.8063   31.2817 H   0  0  0  0  0  0
   -2.0098   50.9729   29.3065 H   0  0  0  0  0  0
    0.7135   53.0680   26.8072 H   0  0  0  0  0  0
    1.1106   53.2628   31.0959 H   0  0  0  0  0  0
    5.1761   52.5223   27.6445 H   0  0  0  0  0  0
    5.2658   53.8525   28.7627 H   0  0  0  0  0  0
    6.9300   53.9860   26.8785 H   0  0  0  0  0  0
    5.8698   55.4246   27.0369 H   0  0  0  0  0  0
    5.5073   53.1232   25.0198 H   0  0  0  0  0  0
    3.7546   55.5598   25.3254 H   0  0  0  0  0  0
    3.5329   54.2384   24.1264 H   0  0  0  0  0  0
    2.9203   52.7167   25.8570 H   0  0  0  0  0  0
    2.0694   54.2460   26.0756 H   0  0  0  0  0  0
    5.1702   53.7940   22.8880 H   0  0  0  0  0  0
    8.1596   55.9147   22.2873 H   0  0  0  0  0  0
    8.8946   56.5027   20.0631 H   0  0  0  0  0  0
    7.5033   56.0144   18.0714 H   0  0  0  0  0  0
    4.8363   54.6914   17.3100 H   0  0  0  0  0  0
  1  6  2  0  0  0
  1  2  1  0  0  0
  1 33  1  0  0  0
  2  3  2  0  0  0
  2 34  1  0  0  0
  3  4  1  0  0  0
  3 29  1  0  0  0
  4  5  2  0  0  0
  4 35  1  0  0  0
  5  6  1  0  0  0
  5  7  1  0  0  0
  6 36  1  0  0  0
  7  8  2  0  0  0
  7  9  2  0  0  0
  7 10  1  0  0  0
 10 15  1  0  0  0
 10 11  1  0  0  0
 11 12  1  0  0  0
 11 37  1  0  0  0
 11 38  1  0  0  0
 12 13  1  0  0  0
 12 39  1  0  0  0
 12 40  1  0  0  0
 13 14  1  0  0  0
 13 16  1  0  0  0
 13 41  1  0  0  0
 14 15  1  0  0  0
 14 42  1  0  0  0
 14 43  1  0  0  0
 15 44  1  0  0  0
 15 45  1  0  0  0
 16 17  2  0  0  0
 16 18  1  0  0  0
 18 19  1  0  0  0
 18 46  1  0  0  0
 19 24  2  0  0  0
 19 20  1  0  0  0
 20 21  2  0  0  0
 20 47  1  0  0  0
 21 22  1  0  0  0
 21 48  1  0  0  0
 22 23  2  0  0  0
 22 49  1  0  0  0
 23 28  1  0  0  0
 23 24  1  0  0  0
 24 25  1  0  0  0
 25 26  1  0  0  0
 25 27  1  0  0  0
 27 28  2  0  0  0
 28 50  1  0  0  0
 29 30  1  0  0  0
 29 31  1  0  0  0
 29 32  1  0  0  0
M  END
> <i_i_glide_confnum>
170

> <i_i_glide_lignum>
2421

> <i_i_glide_posenum>
370

> <i_i_glide_rotatable_bonds>
6

> <i_m_Source_File_Index>
2730

> <b_m_subgroup_collapsed>
0

> <r_i_docking_score>
-6.22713

> <r_i_glide_ecoul>
-7.18226

> <r_i_glide_eff_state_penalty>
0

> <r_i_glide_einternal>
6.22673

> <r_i_glide_emodel>
-66.0269

> <r_i_glide_energy>
-50.8282

> <r_i_glide_erotb>
0.490084

> <r_i_glide_esite>
-0.196434

> <r_i_glide_evdw>
-43.6459

> <r_i_glide_gscore>
-6.22713

> <r_i_glide_hbond>
-0.126616

> <r_i_glide_ligand_efficiency>
-0.200875

> <r_i_glide_ligand_efficiency_ln>
-1.40441

> <r_i_glide_ligand_efficiency_sa>
-0.631025

> <r_i_glide_lipo>
-2.50002

> <r_i_glide_metal>
0

> <r_i_glide_rewards>
-0.634503

> <s_i_glide_gridfile>
wee1_glide-grid

> <s_m_Source_File>
wee1_decoys_glide_SP.sdf

> <s_m_Source_Path>
/Users/zhangxujun/Desktop

> <s_m_entry_id>
3005

> <s_m_entry_name>
wee1_decoys_glide_SP.2730

> <s_m_subgroup_title>
wee1_decoys_glide_SP

> <s_m_subgroupid>
wee1_decoys_glide_SP


$$$$
