ZINC60364016_2276
                    3D
 Schrodinger Suite 2024-2.
 58 61  0  0  1  0            999 V2000
    2.7708   52.7753   29.0599 C   0  0  0  0  0  0
    2.4891   54.1747   28.4547 C   0  0  0  0  0  0
    0.9566   54.3286   28.2954 C   0  0  0  0  0  0
    2.9306   55.2593   29.4685 C   0  0  0  0  0  0
    3.2347   54.3922   27.0808 C   0  0  1  0  0  0
    3.1405   55.4558   26.8731 H   0  0  0  0  0  0
    4.7552   54.0628   27.1447 C   0  0  0  0  0  0
    5.5226   54.6071   25.9253 C   0  0  0  0  0  0
    4.8060   54.1268   24.6783 C   0  0  0  0  0  0
    3.4732   53.6968   24.6409 C   0  0  0  0  0  0
    3.0684   53.3808   23.3372 C   0  0  0  0  0  0
    4.1028   53.4495   22.4010 C   0  0  0  0  0  0
    5.5494   54.0965   23.1112 S   0  0  0  0  0  0
    4.0586   53.1686   20.9928 C   0  0  0  0  0  0
    4.7565   53.7805   20.1852 O   0  0  0  0  0  0
    3.2166   52.1729   20.6727 N   0  0  0  0  0  0
    2.9413   51.6937   19.3200 C   0  0  0  0  0  0
    1.4634   51.9799   19.0371 C   0  0  0  0  0  0
    0.5969   51.3704   19.6699 O   0  0  0  0  0  0
    1.2080   52.8959   18.0811 N   0  0  0  0  0  0
   -0.0449   53.3243   17.6118 C   0  0  0  0  0  0
   -0.1293   54.6354   17.1398 C   0  0  0  0  0  0
   -1.3304   55.1176   16.6250 C   0  0  0  0  0  0
   -2.4566   54.2854   16.5605 C   0  0  0  0  0  0
   -2.3669   52.9701   17.0399 C   0  0  0  0  0  0
   -1.1693   52.4907   17.5594 C   0  0  0  0  0  0
   -3.6660   54.7661   15.9923 N   0  0  0  0  0  0
   -3.9100   55.9178   15.2823 C   0  0  0  0  0  0
   -5.1665   55.9957   14.9300 N   0  0  0  0  0  0
   -5.6583   54.8793   15.4365 C   0  0  0  0  0  0
   -4.8245   54.0937   16.0813 N   0  0  0  0  0  0
    2.5849   53.6267   25.8841 C   0  0  0  0  0  0
    2.1943   52.6125   29.9719 H   0  0  0  0  0  0
    3.8196   52.6485   29.3266 H   0  0  0  0  0  0
    2.5090   51.9734   28.3696 H   0  0  0  0  0  0
    0.7043   55.2880   27.8429 H   0  0  0  0  0  0
    0.5233   53.5389   27.6810 H   0  0  0  0  0  0
    0.4441   54.2837   29.2570 H   0  0  0  0  0  0
    2.7206   56.2633   29.0982 H   0  0  0  0  0  0
    2.4030   55.1604   30.4176 H   0  0  0  0  0  0
    3.9968   55.2108   29.6824 H   0  0  0  0  0  0
    5.2054   54.5275   28.0198 H   0  0  0  0  0  0
    4.9184   52.9928   27.2879 H   0  0  0  0  0  0
    5.5406   55.6961   25.9481 H   0  0  0  0  0  0
    6.5592   54.2705   25.9446 H   0  0  0  0  0  0
    2.0636   53.0642   23.0986 H   0  0  0  0  0  0
    2.6737   51.7437   21.4048 H   0  0  0  0  0  0
    3.5990   52.1463   18.5754 H   0  0  0  0  0  0
    3.1089   50.6170   19.2734 H   0  0  0  0  0  0
    2.0062   53.3940   17.7157 H   0  0  0  0  0  0
    0.7325   55.2874   17.1723 H   0  0  0  0  0  0
   -1.3599   56.1372   16.2730 H   0  0  0  0  0  0
   -3.2150   52.3014   16.9952 H   0  0  0  0  0  0
   -1.1196   51.4651   17.8940 H   0  0  0  0  0  0
   -3.1278   56.6269   15.0622 H   0  0  0  0  0  0
   -6.7029   54.6227   15.3255 H   0  0  0  0  0  0
    2.4222   52.5808   26.1430 H   0  0  0  0  0  0
    1.6049   54.0447   25.6520 H   0  0  0  0  0  0
  1  2  1  0  0  0
  1 33  1  0  0  0
  1 34  1  0  0  0
  1 35  1  0  0  0
  2  3  1  0  0  0
  2  4  1  0  0  0
  2  5  1  0  0  0
  3 36  1  0  0  0
  3 37  1  0  0  0
  3 38  1  0  0  0
  4 39  1  0  0  0
  4 40  1  0  0  0
  4 41  1  0  0  0
  5  6  1  0  0  0
  5 32  1  0  0  0
  5  7  1  0  0  0
  7  8  1  0  0  0
  7 42  1  0  0  0
  7 43  1  0  0  0
  8  9  1  0  0  0
  8 44  1  0  0  0
  8 45  1  0  0  0
  9 13  1  0  0  0
  9 10  2  0  0  0
 10 11  1  0  0  0
 10 32  1  0  0  0
 11 12  2  0  0  0
 11 46  1  0  0  0
 12 13  1  0  0  0
 12 14  1  0  0  0
 14 15  2  0  0  0
 14 16  1  0  0  0
 16 17  1  0  0  0
 16 47  1  0  0  0
 17 18  1  0  0  0
 17 48  1  0  0  0
 17 49  1  0  0  0
 18 19  2  0  0  0
 18 20  1  0  0  0
 20 21  1  0  0  0
 20 50  1  0  0  0
 21 26  2  0  0  0
 21 22  1  0  0  0
 22 23  2  0  0  0
 22 51  1  0  0  0
 23 24  1  0  0  0
 23 52  1  0  0  0
 24 25  2  0  0  0
 24 27  1  0  0  0
 25 26  1  0  0  0
 25 53  1  0  0  0
 26 54  1  0  0  0
 27 31  1  0  0  0
 27 28  1  0  0  0
 28 29  2  0  0  0
 28 55  1  0  0  0
 29 30  1  0  0  0
 30 31  2  0  0  0
 30 56  1  0  0  0
 32 57  1  0  0  0
 32 58  1  0  0  0
M  END
> <i_i_glide_confnum>
25

> <i_i_glide_lignum>
2277

> <i_i_glide_posenum>
280

> <i_i_glide_rotatable_bonds>
8

> <i_m_Source_File_Index>
1343

> <b_m_subgroup_collapsed>
0

> <r_i_docking_score>
-4.50635

> <r_i_glide_ecoul>
-1.46139

> <r_i_glide_eff_state_penalty>
0

> <r_i_glide_einternal>
6.50918

> <r_i_glide_emodel>
-48.3272

> <r_i_glide_energy>
-37.534

> <r_i_glide_erotb>
0.729125

> <r_i_glide_esite>
-0.0425743

> <r_i_glide_evdw>
-36.0726

> <r_i_glide_gscore>
-4.50635

> <r_i_glide_hbond>
0

> <r_i_glide_ligand_efficiency>
-0.145366

> <r_i_glide_ligand_efficiency_ln>
-1.01632

> <r_i_glide_ligand_efficiency_sa>
-0.456651

> <r_i_glide_lipo>
-2.66597

> <r_i_glide_metal>
0

> <r_i_glide_rewards>
-0.504091

> <s_i_glide_gridfile>
wee1_glide-grid

> <s_m_Source_File>
wee1_decoys_glide_SP.sdf

> <s_m_Source_Path>
/Users/zhangxujun/Desktop

> <s_m_entry_id>
1618

> <s_m_entry_name>
wee1_decoys_glide_SP.1343

> <s_m_subgroup_title>
wee1_decoys_glide_SP

> <s_m_subgroupid>
wee1_decoys_glide_SP


$$$$
