ZINC45526868_995
                    3D
 Schrodinger Suite 2024-2.
 41 44  0  0  1  0            999 V2000
    3.0795   52.4993   16.6370 C   0  0  0  0  0  0
    3.8626   54.1382   16.7606 S   0  0  0  0  0  0
    4.4319   54.1461   18.4343 C   0  0  0  0  0  0
    5.2333   55.0716   18.8888 N   0  0  0  0  0  0
    5.5703   54.8638   20.1887 C   0  0  0  0  0  0
    6.4463   55.6599   20.9418 C   0  0  0  0  0  0
    6.7038   55.2959   22.2696 C   0  0  0  0  0  0
    6.1090   54.1712   22.8679 C   0  0  0  0  0  0
    5.2445   53.3771   22.1081 C   0  0  0  0  0  0
    4.9768   53.7281   20.7836 C   0  0  0  0  0  0
    3.9517   52.9297   19.6093 S   0  0  0  0  0  0
    6.3761   53.7641   24.1445 N   0  5  0  0  0  0
    6.1725   54.6989   25.3857 S   0  0  0  0  0  0
    7.1045   54.4453   26.4858 O   0  0  0  0  0  0
    5.9178   56.0970   25.0501 O   0  0  0  0  0  0
    4.5869   54.1003   25.9796 C   0  0  0  0  0  0
    3.4631   54.1989   25.1635 C   0  0  0  0  0  0
    2.2425   53.6967   25.5999 C   0  0  0  0  0  0
    2.1121   53.0816   26.8615 C   0  0  0  0  0  0
    3.2592   53.0213   27.6796 C   0  0  0  0  0  0
    4.4771   53.5395   27.2510 C   0  0  0  0  0  0
    0.8596   52.4919   27.2561 N   0  0  0  0  0  0
    0.4769   52.3955   28.5901 C   0  0  0  0  0  0
    1.0802   52.8608   29.5618 O   0  0  0  0  0  0
   -0.7982   51.6969   28.7482 C   0  0  0  0  0  0
   -1.5634   51.3303   27.6874 C   0  0  0  0  0  0
   -1.0856   51.5364   26.3539 C   0  0  0  0  0  0
    0.0661   52.0715   26.1667 N   0  0  0  0  0  0
   -3.1454   50.5634   27.8901 Cl  0  0  0  0  0  0
   -1.2961   51.2969   30.3989 Cl  0  0  0  0  0  0
    2.7405   52.3369   15.6134 H   0  0  0  0  0  0
    2.2090   52.4306   17.2873 H   0  0  0  0  0  0
    3.7825   51.7019   16.8821 H   0  0  0  0  0  0
    6.9211   56.5193   20.4986 H   0  0  0  0  0  0
    7.3962   55.8913   22.8503 H   0  0  0  0  0  0
    4.7933   52.4972   22.5332 H   0  0  0  0  0  0
    3.5375   54.6563   24.1863 H   0  0  0  0  0  0
    1.3997   53.7889   24.9307 H   0  0  0  0  0  0
    3.2500   52.5322   28.6401 H   0  0  0  0  0  0
    5.3436   53.4575   27.8915 H   0  0  0  0  0  0
   -1.6672   51.2392   25.4853 H   0  0  0  0  0  0
  1  2  1  0  0  0
  1 31  1  0  0  0
  1 32  1  0  0  0
  1 33  1  0  0  0
  2  3  1  0  0  0
  3 11  1  0  0  0
  3  4  2  0  0  0
  4  5  1  0  0  0
  5 10  2  0  0  0
  5  6  1  0  0  0
  6  7  2  0  0  0
  6 34  1  0  0  0
  7  8  1  0  0  0
  7 35  1  0  0  0
  8  9  2  0  0  0
  8 12  1  0  0  0
  9 10  1  0  0  0
  9 36  1  0  0  0
 10 11  1  0  0  0
 12 13  1  0  0  0
 13 14  2  0  0  0
 13 15  2  0  0  0
 13 16  1  0  0  0
 16 21  2  0  0  0
 16 17  1  0  0  0
 17 18  2  0  0  0
 17 37  1  0  0  0
 18 19  1  0  0  0
 18 38  1  0  0  0
 19 20  2  0  0  0
 19 22  1  0  0  0
 20 21  1  0  0  0
 20 39  1  0  0  0
 21 40  1  0  0  0
 22 28  1  0  0  0
 22 23  1  0  0  0
 23 24  2  0  0  0
 23 25  1  0  0  0
 25 26  2  0  0  0
 25 30  1  0  0  0
 26 27  1  0  0  0
 26 29  1  0  0  0
 27 28  2  0  0  0
 27 41  1  0  0  0
M  CHG  1  12  -1
M  END
> <i_i_glide_confnum>
34

> <i_i_glide_lignum>
996

> <i_i_glide_posenum>
151

> <i_i_glide_rotatable_bonds>
5

> <i_m_Source_File_Index>
2948

> <b_m_subgroup_collapsed>
0

> <r_i_docking_score>
-4.60234

> <r_i_glide_ecoul>
-3.27183

> <r_i_glide_eff_state_penalty>
0

> <r_i_glide_einternal>
9.41582

> <r_i_glide_emodel>
-53.7611

> <r_i_glide_energy>
-47.5214

> <r_i_glide_erotb>
0.328582

> <r_i_glide_esite>
0

> <r_i_glide_evdw>
-44.2495

> <r_i_glide_gscore>
-4.60234

> <r_i_glide_hbond>
0

> <r_i_glide_ligand_efficiency>
-0.153411

> <r_i_glide_ligand_efficiency_ln>
-1.0457

> <r_i_glide_ligand_efficiency_sa>
-0.476685

> <r_i_glide_lipo>
-2.33537

> <r_i_glide_metal>
0

> <r_i_glide_rewards>
0.107701

> <s_i_glide_gridfile>
wee1_glide-grid

> <s_m_Source_File>
wee1_decoys_glide_SP.sdf

> <s_m_Source_Path>
/Users/zhangxujun/Desktop

> <s_m_entry_id>
3223

> <s_m_entry_name>
wee1_decoys_glide_SP.2948

> <s_m_subgroup_title>
wee1_decoys_glide_SP

> <s_m_subgroupid>
wee1_decoys_glide_SP


$$$$
