ZINC31675196_3269
                    3D
 Schrodinger Suite 2024-2.
 53 56  0  0  1  0            999 V2000
   -2.4291   43.9386   18.2421 C   0  0  0  0  0  0
   -0.7418   43.6892   19.0245 S   0  0  0  0  0  0
   -0.1273   42.4961   18.4306 O   0  0  0  0  0  0
   -0.8957   43.7735   20.4810 O   0  0  0  0  0  0
    0.1801   45.1221   18.4649 C   0  0  0  0  0  0
    0.7969   45.1153   17.2121 C   0  0  0  0  0  0
    1.5481   46.2164   16.8002 C   0  0  0  0  0  0
    1.6937   47.3242   17.6367 C   0  0  0  0  0  0
    1.0657   47.3562   18.8929 C   0  0  0  0  0  0
    0.2927   46.2500   19.2817 C   0  0  0  0  0  0
    1.2133   48.5260   19.8421 C   0  0  0  0  0  0
    0.3920   48.6754   20.7530 O   0  0  0  0  0  0
    2.3054   49.3151   19.6833 N   0  0  0  0  0  0
    2.5849   50.3151   20.6343 N   0  0  0  0  0  0
    1.9024   51.4805   20.6406 C   0  0  0  0  0  0
    1.1444   51.8768   19.7533 O   0  0  0  0  0  0
    2.1104   52.2449   21.8365 C   0  0  0  0  0  0
    1.4958   52.0116   23.0576 C   0  0  0  0  0  0
    2.0645   52.8937   23.9778 C   0  0  0  0  0  0
    2.9626   53.6423   23.3743 N   0  0  0  0  0  0
    3.0047   53.2873   22.0681 N   0  0  0  0  0  0
    4.0680   53.8075   21.2599 C   0  0  0  0  0  0
    3.9768   53.8096   19.8593 C   0  0  0  0  0  0
    4.9982   54.3490   19.0819 C   0  0  0  0  0  0
    6.1216   54.8964   19.6940 C   0  0  0  0  0  0
    6.2380   54.8983   21.0804 C   0  0  0  0  0  0
    5.2237   54.3460   21.8580 C   0  0  0  0  0  0
    1.8029   52.9832   25.4539 C   0  0  0  0  0  0
    0.7023   52.3205   26.0141 C   0  0  0  0  0  0
    0.4713   52.3689   27.3873 C   0  0  0  0  0  0
    1.3360   53.0875   28.2090 C   0  0  0  0  0  0
    2.4332   53.7526   27.6671 C   0  0  0  0  0  0
    2.6674   53.6967   26.2956 C   0  0  0  0  0  0
    1.0492   53.1510   29.9101 Cl  0  0  0  0  0  0
   -3.0748   43.1165   18.5454 H   0  0  0  0  0  0
   -2.8370   44.8865   18.5914 H   0  0  0  0  0  0
   -2.3137   43.9532   17.1595 H   0  0  0  0  0  0
    0.7133   44.2536   16.5652 H   0  0  0  0  0  0
    2.0391   46.2086   15.8381 H   0  0  0  0  0  0
    2.3035   48.1477   17.2892 H   0  0  0  0  0  0
   -0.2008   46.2473   20.2447 H   0  0  0  0  0  0
    2.8074   49.4432   18.8130 H   0  0  0  0  0  0
    3.1497   49.9845   21.4026 H   0  0  0  0  0  0
    0.7520   51.2541   23.2612 H   0  0  0  0  0  0
    3.1031   53.4418   19.3459 H   0  0  0  0  0  0
    4.9114   54.3528   18.0050 H   0  0  0  0  0  0
    6.9100   55.3172   19.0869 H   0  0  0  0  0  0
    7.1171   55.3142   21.5514 H   0  0  0  0  0  0
    5.3456   54.3563   22.9316 H   0  0  0  0  0  0
    0.0215   51.7571   25.3935 H   0  0  0  0  0  0
   -0.3743   51.8463   27.8117 H   0  0  0  0  0  0
    3.1050   54.3053   28.3073 H   0  0  0  0  0  0
    3.5288   54.2075   25.8913 H   0  0  0  0  0  0
  1  2  1  0  0  0
  1 35  1  0  0  0
  1 36  1  0  0  0
  1 37  1  0  0  0
  2  3  2  0  0  0
  2  4  2  0  0  0
  2  5  1  0  0  0
  5 10  2  0  0  0
  5  6  1  0  0  0
  6  7  2  0  0  0
  6 38  1  0  0  0
  7  8  1  0  0  0
  7 39  1  0  0  0
  8  9  2  0  0  0
  8 40  1  0  0  0
  9 10  1  0  0  0
  9 11  1  0  0  0
 10 41  1  0  0  0
 11 12  2  0  0  0
 11 13  1  0  0  0
 13 14  1  0  0  0
 13 42  1  0  0  0
 14 15  1  0  0  0
 14 43  1  0  0  0
 15 16  2  0  0  0
 15 17  1  0  0  0
 17 21  1  0  0  0
 17 18  2  0  0  0
 18 19  1  0  0  0
 18 44  1  0  0  0
 19 20  2  0  0  0
 19 28  1  0  0  0
 20 21  1  0  0  0
 21 22  1  0  0  0
 22 27  2  0  0  0
 22 23  1  0  0  0
 23 24  2  0  0  0
 23 45  1  0  0  0
 24 25  1  0  0  0
 24 46  1  0  0  0
 25 26  2  0  0  0
 25 47  1  0  0  0
 26 27  1  0  0  0
 26 48  1  0  0  0
 27 49  1  0  0  0
 28 33  2  0  0  0
 28 29  1  0  0  0
 29 30  2  0  0  0
 29 50  1  0  0  0
 30 31  1  0  0  0
 30 51  1  0  0  0
 31 32  2  0  0  0
 31 34  1  0  0  0
 32 33  1  0  0  0
 32 52  1  0  0  0
 33 53  1  0  0  0
M  END
> <i_i_glide_confnum>
180

> <i_i_glide_lignum>
3270

> <i_i_glide_posenum>
380

> <i_i_glide_rotatable_bonds>
8

> <i_m_Source_File_Index>
4135

> <b_m_subgroup_collapsed>
0

> <r_i_docking_score>
-4.69992

> <r_i_glide_ecoul>
-6.29426

> <r_i_glide_eff_state_penalty>
0

> <r_i_glide_einternal>
5.8318

> <r_i_glide_emodel>
-62.1741

> <r_i_glide_energy>
-48.0138

> <r_i_glide_erotb>
0.5824

> <r_i_glide_esite>
-0.257281

> <r_i_glide_evdw>
-41.7195

> <r_i_glide_gscore>
-4.69992

> <r_i_glide_hbond>
0

> <r_i_glide_ligand_efficiency>
-0.138233

> <r_i_glide_ligand_efficiency_ln>
-1.03834

> <r_i_glide_ligand_efficiency_sa>
-0.447821

> <r_i_glide_lipo>
-1.88388

> <r_i_glide_metal>
0

> <r_i_glide_rewards>
-0.111041

> <s_i_glide_gridfile>
wee1_glide-grid

> <s_m_Source_File>
wee1_decoys_glide_SP.sdf

> <s_m_Source_Path>
/Users/zhangxujun/Desktop

> <s_m_entry_id>
4410

> <s_m_entry_name>
wee1_decoys_glide_SP.4135

> <s_m_subgroup_title>
wee1_decoys_glide_SP

> <s_m_subgroupid>
wee1_decoys_glide_SP


$$$$
