ZINC34780423_4003
                    3D
 Schrodinger Suite 2024-2.
 40 41  0  0  1  0            999 V2000
    1.8316   54.6620   28.0871 C   0  0  0  0  0  0
    1.9870   53.4257   27.1858 C   0  0  0  0  0  0
    2.5470   53.7231   25.7764 C   0  0  0  0  0  0
    4.0256   54.0906   25.6633 C   0  0  0  0  0  0
    4.9111   54.1555   26.6860 C   0  0  0  0  0  0
    6.3039   54.4174   26.4191 C   0  0  0  0  0  0
    6.5726   54.5639   25.1013 N   0  0  0  0  0  0
    5.6604   54.4960   24.0834 C   0  0  0  0  0  0
    4.4162   54.2882   24.3662 N   0  0  0  0  0  0
    6.2035   54.6990   22.3736 S   0  0  0  0  0  0
    4.6417   54.4969   21.4394 C   0  0  0  0  0  0
    4.2229   53.0483   21.1593 C   0  0  0  0  0  0
    5.0016   52.1119   21.3508 O   0  0  0  0  0  0
    2.9724   52.8967   20.6802 N   0  0  0  0  0  0
    2.4479   51.6748   20.2505 C   0  0  0  0  0  0
    1.9355   50.7429   21.1656 C   0  0  0  0  0  0
    1.4322   49.5254   20.7051 C   0  0  0  0  0  0
    1.4176   49.2168   19.3381 C   0  0  0  0  0  0
    1.9045   50.1725   18.4367 C   0  0  0  0  0  0
    2.4147   51.3902   18.8792 C   0  0  0  0  0  0
    3.0669   52.6339   17.5836 Br  0  0  0  0  0  0
    0.9004   47.9153   18.8540 N   0  3  0  0  0  0
    0.5172   47.0926   19.6814 O   0  0  0  0  0  0
    0.8627   47.7080   17.6443 O   0  5  0  0  0  0
    1.9026   51.0780   23.0430 Br  0  0  0  0  0  0
    7.1684   54.4967   27.2774 O   0  0  0  0  0  0
    1.4972   54.3760   29.0851 H   0  0  0  0  0  0
    2.7696   55.2074   28.1986 H   0  0  0  0  0  0
    1.0875   55.3475   27.6819 H   0  0  0  0  0  0
    1.0025   52.9621   27.0845 H   0  0  0  0  0  0
    2.6074   52.6769   27.6789 H   0  0  0  0  0  0
    1.9540   54.4965   25.2904 H   0  0  0  0  0  0
    2.4099   52.8249   25.1773 H   0  0  0  0  0  0
    4.6295   53.9631   27.7068 H   0  0  0  0  0  0
    4.7832   54.9784   20.4724 H   0  0  0  0  0  0
    3.8259   55.0205   21.9425 H   0  0  0  0  0  0
    2.4084   53.7229   20.5107 H   0  0  0  0  0  0
    1.0501   48.8231   21.4305 H   0  0  0  0  0  0
    1.9046   49.9678   17.3744 H   0  0  0  0  0  0
    7.5413   54.7117   24.8725 H   0  0  0  0  0  0
  1  2  1  0  0  0
  1 27  1  0  0  0
  1 28  1  0  0  0
  1 29  1  0  0  0
  2  3  1  0  0  0
  2 30  1  0  0  0
  2 31  1  0  0  0
  3 32  1  0  0  0
  3 33  1  0  0  0
  3  4  1  0  0  0
  4  5  2  0  0  0
  4  9  1  0  0  0
  5  6  1  0  0  0
  5 34  1  0  0  0
  6  7  1  0  0  0
  6 26  2  0  0  0
  7  8  1  0  0  0
  7 40  1  0  0  0
  8 10  1  0  0  0
  8  9  2  0  0  0
 10 11  1  0  0  0
 11 12  1  0  0  0
 11 35  1  0  0  0
 11 36  1  0  0  0
 12 13  2  0  0  0
 12 14  1  0  0  0
 14 15  1  0  0  0
 14 37  1  0  0  0
 15 20  2  0  0  0
 15 16  1  0  0  0
 16 17  2  0  0  0
 16 25  1  0  0  0
 17 18  1  0  0  0
 17 38  1  0  0  0
 18 19  2  0  0  0
 18 22  1  0  0  0
 19 20  1  0  0  0
 19 39  1  0  0  0
 20 21  1  0  0  0
 22 23  2  0  0  0
 22 24  1  0  0  0
M  CHG  2  22   1  24  -1
M  END
> <i_i_glide_confnum>
17

> <i_i_glide_lignum>
4004

> <i_i_glide_posenum>
173

> <i_i_glide_rotatable_bonds>
8

> <i_m_Source_File_Index>
5360

> <b_m_subgroup_collapsed>
0

> <r_i_docking_score>
-5.39029

> <r_i_glide_ecoul>
-5.78229

> <r_i_glide_eff_state_penalty>
0

> <r_i_glide_einternal>
2.49099

> <r_i_glide_emodel>
-60.1664

> <r_i_glide_energy>
-45.7933

> <r_i_glide_erotb>
0.4791

> <r_i_glide_esite>
-0.076952

> <r_i_glide_evdw>
-40.011

> <r_i_glide_gscore>
-5.39029

> <r_i_glide_hbond>
-0.437378

> <r_i_glide_ligand_efficiency>
-0.207319

> <r_i_glide_ligand_efficiency_ln>
-1.26589

> <r_i_glide_ligand_efficiency_sa>
-0.614182

> <r_i_glide_lipo>
-1.95477

> <r_i_glide_metal>
0

> <r_i_glide_rewards>
-0.532397

> <s_i_glide_gridfile>
wee1_glide-grid

> <s_m_Source_File>
wee1_decoys_glide_SP.sdf

> <s_m_Source_Path>
/Users/zhangxujun/Desktop

> <s_m_entry_id>
5635

> <s_m_entry_name>
wee1_decoys_glide_SP.5360

> <s_m_subgroup_title>
wee1_decoys_glide_SP

> <s_m_subgroupid>
wee1_decoys_glide_SP


$$$$
