ZINC13881913_5386
                    3D
 Schrodinger Suite 2024-2.
 70 73  0  0  1  0            999 V2000
   -4.1966   46.9506   29.9222 C   0  0  0  0  0  0
   -4.3271   46.0732   28.8001 O   0  0  0  0  0  0
   -4.6734   46.6103   27.5715 C   0  0  0  0  0  0
   -5.1136   47.9320   27.4304 C   0  0  0  0  0  0
   -5.3480   48.4836   26.1789 C   0  0  0  0  0  0
   -5.2232   47.6908   25.0392 C   0  0  0  0  0  0
   -4.8161   46.3505   25.1445 C   0  0  0  0  0  0
   -4.5496   45.8160   26.4145 C   0  0  0  0  0  0
   -4.0956   44.5180   26.4818 O   0  0  0  0  0  0
   -5.0346   43.5743   26.9772 C   0  0  0  0  0  0
   -4.6235   45.5154   24.0561 O   0  0  0  0  0  0
   -4.8466   46.0232   22.7446 C   0  0  0  0  0  0
   -5.6590   49.9142   26.1074 C   0  0  0  0  0  0
   -4.8247   50.9222   25.7555 C   0  0  0  0  0  0
   -5.3606   52.3546   25.7870 C   0  0  0  0  0  0
   -4.7625   53.1594   24.6224 C   0  0  0  0  0  0
   -3.2232   53.1598   24.6762 C   0  0  0  0  0  0
   -2.6713   51.7422   24.7833 C   0  0  0  0  0  0
   -3.4188   50.7450   25.3348 C   0  0  0  0  0  0
   -2.8944   49.5003   25.5304 O   0  0  0  0  0  0
   -1.7415   49.1293   24.9259 C   0  0  0  0  0  0
   -0.9348   50.0002   24.2928 C   0  0  0  0  0  0
   -1.1999   51.4996   24.3891 C   0  0  2  0  0  0
   -1.0752   51.9187   23.3891 H   0  0  0  0  0  0
   -0.1680   52.1676   25.3003 C   0  0  0  0  0  0
   -0.2662   52.0472   26.6891 C   0  0  0  0  0  0
    0.6997   52.6094   27.5379 C   0  0  0  0  0  0
    1.7821   53.2971   26.9685 C   0  0  0  0  0  0
    1.9045   53.4185   25.5745 C   0  0  0  0  0  0
    0.9187   52.8513   24.7518 C   0  0  0  0  0  0
    3.0075   54.0988   25.0902 O   0  0  0  0  0  0
    3.1820   54.2426   23.6845 C   0  0  0  0  0  0
    2.7194   53.8795   27.7925 O   0  0  0  0  0  0
    3.8620   53.0708   28.0366 C   0  0  0  0  0  0
    0.6504   52.5225   28.9190 O   0  0  0  0  0  0
   -0.3558   51.7164   29.5271 C   0  0  0  0  0  0
    0.2043   49.5765   23.5496 C   0  0  0  0  0  0
    1.1049   49.2968   22.8819 N   0  0  0  0  0  0
   -1.5883   47.7784   25.0605 N   0  0  0  0  0  0
   -5.1727   47.1869   30.3458 H   0  0  0  0  0  0
   -3.5908   46.4969   30.7017 H   0  0  0  0  0  0
   -3.6955   47.8849   29.6697 H   0  0  0  0  0  0
   -5.2230   48.5737   28.2908 H   0  0  0  0  0  0
   -5.4029   48.1465   24.0774 H   0  0  0  0  0  0
   -4.5946   42.5767   26.9317 H   0  0  0  0  0  0
   -5.2974   43.7696   28.0174 H   0  0  0  0  0  0
   -5.9478   43.5655   26.3792 H   0  0  0  0  0  0
   -4.6587   45.2369   22.0142 H   0  0  0  0  0  0
   -5.8787   46.3511   22.6124 H   0  0  0  0  0  0
   -4.1731   46.8514   22.5173 H   0  0  0  0  0  0
   -6.6731   50.1595   26.3867 H   0  0  0  0  0  0
   -6.4476   52.3699   25.6909 H   0  0  0  0  0  0
   -5.1280   52.8280   26.7417 H   0  0  0  0  0  0
   -5.0948   52.7206   23.6820 H   0  0  0  0  0  0
   -5.1390   54.1831   24.6388 H   0  0  0  0  0  0
   -2.7966   53.6888   23.8230 H   0  0  0  0  0  0
   -2.8957   53.6958   25.5643 H   0  0  0  0  0  0
   -1.0998   51.4943   27.0942 H   0  0  0  0  0  0
    0.9940   52.9209   23.6776 H   0  0  0  0  0  0
    2.3625   54.8041   23.2336 H   0  0  0  0  0  0
    4.1038   54.7910   23.4932 H   0  0  0  0  0  0
    3.2695   53.2732   23.1915 H   0  0  0  0  0  0
    4.5196   53.5768   28.7427 H   0  0  0  0  0  0
    3.5909   52.1051   28.4680 H   0  0  0  0  0  0
    4.4325   52.8966   27.1230 H   0  0  0  0  0  0
   -1.3577   52.0978   29.3302 H   0  0  0  0  0  0
   -0.2962   50.6923   29.1659 H   0  0  0  0  0  0
   -0.2162   51.6980   30.6083 H   0  0  0  0  0  0
   -2.0035   47.3544   25.8804 H   0  0  0  0  0  0
   -0.7262   47.3548   24.7543 H   0  0  0  0  0  0
  1  2  1  0  0  0
  1 40  1  0  0  0
  1 41  1  0  0  0
  1 42  1  0  0  0
  2  3  1  0  0  0
  3  8  2  0  0  0
  3  4  1  0  0  0
  4  5  2  0  0  0
  4 43  1  0  0  0
  5  6  1  0  0  0
  5 13  1  0  0  0
  6  7  2  0  0  0
  6 44  1  0  0  0
  7  8  1  0  0  0
  7 11  1  0  0  0
  8  9  1  0  0  0
  9 10  1  0  0  0
 10 45  1  0  0  0
 10 46  1  0  0  0
 10 47  1  0  0  0
 11 12  1  0  0  0
 12 48  1  0  0  0
 12 49  1  0  0  0
 12 50  1  0  0  0
 13 14  2  0  0  0
 13 51  1  0  0  0
 14 19  1  0  0  0
 14 15  1  0  0  0
 15 16  1  0  0  0
 15 52  1  0  0  0
 15 53  1  0  0  0
 16 17  1  0  0  0
 16 54  1  0  0  0
 16 55  1  0  0  0
 17 18  1  0  0  0
 17 56  1  0  0  0
 17 57  1  0  0  0
 18 23  1  0  0  0
 18 19  2  0  0  0
 19 20  1  0  0  0
 20 21  1  0  0  0
 21 22  2  0  0  0
 21 39  1  0  0  0
 22 23  1  0  0  0
 22 37  1  0  0  0
 23 24  1  0  0  0
 23 25  1  0  0  0
 25 30  2  0  0  0
 25 26  1  0  0  0
 26 27  2  0  0  0
 26 58  1  0  0  0
 27 28  1  0  0  0
 27 35  1  0  0  0
 28 29  2  0  0  0
 28 33  1  0  0  0
 29 30  1  0  0  0
 29 31  1  0  0  0
 30 59  1  0  0  0
 31 32  1  0  0  0
 32 60  1  0  0  0
 32 61  1  0  0  0
 32 62  1  0  0  0
 33 34  1  0  0  0
 34 63  1  0  0  0
 34 64  1  0  0  0
 34 65  1  0  0  0
 35 36  1  0  0  0
 36 66  1  0  0  0
 36 67  1  0  0  0
 36 68  1  0  0  0
 37 38  3  0  0  0
 39 69  1  0  0  0
 39 70  1  0  0  0
M  END
> <i_i_glide_confnum>
4

> <i_i_glide_lignum>
5387

> <i_i_glide_posenum>
350

> <i_i_glide_rotatable_bonds>
9

> <i_m_Source_File_Index>
947

> <b_m_subgroup_collapsed>
0

> <r_i_docking_score>
-3.86818

> <r_i_glide_ecoul>
-4.18995

> <r_i_glide_eff_state_penalty>
0

> <r_i_glide_einternal>
2.38903

> <r_i_glide_emodel>
-46.319

> <r_i_glide_energy>
-39.1232

> <r_i_glide_erotb>
0.151677

> <r_i_glide_esite>
-0.0784583

> <r_i_glide_evdw>
-34.9333

> <r_i_glide_gscore>
-3.86818

> <r_i_glide_hbond>
-0.300447

> <r_i_glide_ligand_efficiency>
-0.101794

> <r_i_glide_ligand_efficiency_ln>
-0.834093

> <r_i_glide_ligand_efficiency_sa>
-0.342229

> <r_i_glide_lipo>
-1.24572

> <r_i_glide_metal>
0

> <r_i_glide_rewards>
-0.020071

> <s_i_glide_gridfile>
wee1_glide-grid

> <s_m_Source_File>
wee1_decoys_glide_SP.sdf

> <s_m_Source_Path>
/Users/zhangxujun/Desktop

> <s_m_entry_id>
1222

> <s_m_entry_name>
wee1_decoys_glide_SP.947

> <s_m_subgroup_title>
wee1_decoys_glide_SP

> <s_m_subgroupid>
wee1_decoys_glide_SP


$$$$
