ZINC17304046_3953
                    3D
 Schrodinger Suite 2024-2.
 59 63  0  0  1  0            999 V2000
    0.5962   48.3240   20.1769 C   0  0  0  0  0  0
    1.7781   49.3183   20.1951 C   0  0  0  0  0  0
    2.5616   49.1403   18.8822 C   0  0  0  0  0  0
    1.3255   50.7979   20.4883 C   0  0  2  0  0  0
    2.5470   51.7589   20.6051 C   0  0  0  0  0  0
    3.0596   52.0094   21.7067 O   0  0  0  0  0  0
    2.9470   52.2941   19.3823 N   0  0  0  0  0  0
    3.9156   53.1208   19.2738 C   0  0  0  0  0  0
    4.7842   53.6945   20.2393 N   0  0  0  0  0  0
    4.7144   53.4824   21.2248 H   0  0  0  0  0  0
    5.7178   54.5481   19.6580 C   0  0  0  0  0  0
    6.7632   55.3065   20.1876 C   0  0  0  0  0  0
    7.5602   56.0686   19.3226 C   0  0  0  0  0  0
    7.2985   56.0790   17.9483 C   0  0  0  0  0  0
    6.2466   55.3207   17.4271 C   0  0  0  0  0  0
    5.4644   54.5520   18.2918 C   0  0  0  0  0  0
    4.3857   53.6993   18.0726 N   0  0  0  0  0  0
    0.3765   50.9120   21.6089 N   0  0  0  0  0  0
    0.5519   50.5219   22.8848 C   0  0  0  0  0  0
    1.6071   50.0275   23.2815 O   0  0  0  0  0  0
   -0.6376   50.6856   23.8746 C   0  0  0  0  0  0
   -1.9598   51.1562   23.1727 C   0  0  0  0  0  0
   -3.1007   51.2899   24.2163 C   0  0  2  0  0  0
   -2.6880   52.3310   25.2875 C   0  0  0  0  0  0
   -1.3881   51.8755   25.9986 C   0  0  2  0  0  0
   -0.2454   51.7384   24.9572 C   0  0  0  0  0  0
   -1.6282   50.4988   26.6716 C   0  0  0  0  0  0
   -2.0431   49.4503   25.6048 C   0  0  1  0  0  0
   -3.3425   49.9191   24.8999 C   0  0  0  0  0  0
   -0.9063   49.3076   24.5632 C   0  0  0  0  0  0
   -0.1400   48.6030   19.4223 H   0  0  0  0  0  0
    0.9340   47.3129   19.9505 H   0  0  0  0  0  0
    0.0846   48.2749   21.1374 H   0  0  0  0  0  0
    2.4422   48.9955   20.9995 H   0  0  0  0  0  0
    1.9870   49.4904   18.0253 H   0  0  0  0  0  0
    3.5033   49.6824   18.8825 H   0  0  0  0  0  0
    2.8128   48.0944   18.7031 H   0  0  0  0  0  0
    0.7328   51.1496   19.6436 H   0  0  0  0  0  0
    3.9909   53.4873   17.1690 H   0  0  0  0  0  0
    6.9744   55.3041   21.2474 H   0  0  0  0  0  0
    8.3878   56.6444   19.7100 H   0  0  0  0  0  0
    7.9145   56.6703   17.2852 H   0  0  0  0  0  0
    6.0530   55.3323   16.3641 H   0  0  0  0  0  0
   -0.5119   51.3172   21.3650 H   0  0  0  0  0  0
   -1.8170   52.1180   22.6748 H   0  0  0  0  0  0
   -2.2603   50.4477   22.3984 H   0  0  0  0  0  0
   -4.0151   51.6166   23.7215 H   0  0  0  0  0  0
   -2.5365   53.2979   24.8125 H   0  0  0  0  0  0
   -3.4912   52.4701   26.0128 H   0  0  0  0  0  0
   -1.1102   52.6078   26.7569 H   0  0  0  0  0  0
    0.6745   51.4483   25.4679 H   0  0  0  0  0  0
   -0.0414   52.7092   24.5033 H   0  0  0  0  0  0
   -0.7242   50.1717   27.1863 H   0  0  0  0  0  0
   -2.3948   50.5756   27.4431 H   0  0  0  0  0  0
   -2.2149   48.4867   26.0828 H   0  0  0  0  0  0
   -4.1555   49.9978   25.6257 H   0  0  0  0  0  0
   -3.6627   49.1806   24.1652 H   0  0  0  0  0  0
   -1.1741   48.5493   23.8259 H   0  0  0  0  0  0
   -0.0092   48.9345   25.0663 H   0  0  0  0  0  0
  1  2  1  0  0  0
  1 31  1  0  0  0
  1 32  1  0  0  0
  1 33  1  0  0  0
  2  3  1  0  0  0
  2  4  1  0  0  0
  2 34  1  0  0  0
  3 35  1  0  0  0
  3 36  1  0  0  0
  3 37  1  0  0  0
  4  5  1  0  0  0
  4 18  1  0  0  0
  4 38  1  0  0  0
  5  6  2  0  0  0
  5  7  1  0  0  0
  7  8  2  0  0  0
  8 17  1  0  0  0
  8  9  1  0  0  0
  9 11  1  0  0  0
  9 10  1  0  0  0
 11 12  2  0  0  0
 11 16  1  0  0  0
 12 13  1  0  0  0
 12 40  1  0  0  0
 13 14  2  0  0  0
 13 41  1  0  0  0
 14 15  1  0  0  0
 14 42  1  0  0  0
 15 16  2  0  0  0
 15 43  1  0  0  0
 16 17  1  0  0  0
 17 39  1  0  0  0
 18 19  1  0  0  0
 18 44  1  0  0  0
 19 20  2  0  0  0
 19 21  1  0  0  0
 21 26  1  0  0  0
 21 30  1  0  0  0
 21 22  1  0  0  0
 22 23  1  0  0  0
 22 45  1  0  0  0
 22 46  1  0  0  0
 23 29  1  0  0  0
 23 24  1  0  0  0
 23 47  1  0  0  0
 24 25  1  0  0  0
 24 48  1  0  0  0
 24 49  1  0  0  0
 25 26  1  0  0  0
 25 27  1  0  0  0
 25 50  1  0  0  0
 26 51  1  0  0  0
 26 52  1  0  0  0
 27 28  1  0  0  0
 27 53  1  0  0  0
 27 54  1  0  0  0
 28 29  1  0  0  0
 28 30  1  0  0  0
 28 55  1  0  0  0
 29 56  1  0  0  0
 29 57  1  0  0  0
 30 58  1  0  0  0
 30 59  1  0  0  0
M  END
> <i_i_glide_confnum>
19

> <i_i_glide_lignum>
3954

> <i_i_glide_posenum>
381

> <i_i_glide_rotatable_bonds>
6

> <i_m_Source_File_Index>
1149

> <b_m_subgroup_collapsed>
0

> <r_i_docking_score>
-1.85346

> <r_i_glide_ecoul>
1.15557

> <r_i_glide_eff_state_penalty>
0

> <r_i_glide_einternal>
2.41662

> <r_i_glide_emodel>
-29.6781

> <r_i_glide_energy>
-26.5972

> <r_i_glide_erotb>
0.502335

> <r_i_glide_esite>
-0.0776792

> <r_i_glide_evdw>
-27.7528

> <r_i_glide_gscore>
-1.85346

> <r_i_glide_hbond>
0

> <r_i_glide_ligand_efficiency>
-0.0639126

> <r_i_glide_ligand_efficiency_ln>
-0.424396

> <r_i_glide_ligand_efficiency_sa>
-0.19636

> <r_i_glide_lipo>
-0.289255

> <r_i_glide_metal>
0

> <r_i_glide_rewards>
-0.774561

> <s_i_glide_gridfile>
wee1_glide-grid

> <s_m_Source_File>
wee1_decoys_glide_SP.sdf

> <s_m_Source_Path>
/Users/zhangxujun/Desktop

> <s_m_entry_id>
1424

> <s_m_entry_name>
wee1_decoys_glide_SP.1149

> <s_m_subgroup_title>
wee1_decoys_glide_SP

> <s_m_subgroupid>
wee1_decoys_glide_SP


$$$$
