ZINC46718438_3284
                    3D
 Schrodinger Suite 2024-2.
 60 63  0  0  1  0            999 V2000
    7.1817   55.9089   18.6929 C   0  0  0  0  0  0
    5.9681   55.5307   19.2605 C   0  0  0  0  0  0
    5.9029   55.2290   20.6183 C   0  0  0  0  0  0
    7.0582   55.3038   21.4149 C   0  0  0  0  0  0
    8.2639   55.6967   20.8309 C   0  0  0  0  0  0
    8.3315   55.9912   19.4724 C   0  0  0  0  0  0
    7.1044   55.0325   22.7978 N   0  0  0  0  0  0
    6.1576   54.4942   23.5869 C   0  0  0  0  0  0
    5.0783   54.0580   23.1848 O   0  0  0  0  0  0
    6.5119   54.5251   24.8908 N   0  0  0  0  0  0
    5.6275   54.3284   25.9703 C   0  0  0  0  0  0
    6.0765   53.6878   27.1289 C   0  0  0  0  0  0
    5.1666   53.3566   28.1406 C   0  0  0  0  0  0
    3.8148   53.7077   28.0185 C   0  0  0  0  0  0
    3.4274   54.4983   26.9361 C   0  0  0  0  0  0
    4.3043   54.7712   25.9040 C   0  0  0  0  0  0
    2.7796   53.2938   29.0485 C   0  0  0  0  0  0
    3.0917   53.3289   30.2414 O   0  0  0  0  0  0
    1.5148   52.9855   28.6177 N   0  0  0  0  0  0
    1.2138   52.6123   27.2094 C   0  0  0  0  0  0
    0.3287   51.3503   27.1413 C   0  0  0  0  0  0
   -0.8484   51.5604   27.9917 N   0  0  0  0  0  0
   -0.4953   51.7412   29.4054 C   0  0  0  0  0  0
    0.3726   53.0099   29.5627 C   0  0  0  0  0  0
   -2.1339   51.3582   27.5866 C   0  0  0  0  0  0
   -3.0841   51.2968   28.3702 O   0  0  0  0  0  0
   -2.4187   51.2987   26.1031 C   0  0  0  0  0  0
   -2.1034   52.4028   25.2971 C   0  0  0  0  0  0
   -2.3400   52.3719   23.9248 C   0  0  0  0  0  0
   -2.9024   51.2389   23.3441 C   0  0  0  0  0  0
   -3.2361   50.1419   24.1368 C   0  0  0  0  0  0
   -3.0007   50.1564   25.5211 C   0  0  0  0  0  0
   -3.3367   49.0966   26.3406 O   0  0  0  0  0  0
   -3.2620   47.7603   25.8517 C   0  0  0  0  0  0
   -4.3069   47.4398   25.0865 F   0  0  0  0  0  0
   -2.1133   47.4903   25.2252 F   0  0  0  0  0  0
    7.2319   56.1397   17.6386 H   0  0  0  0  0  0
    5.0788   55.4700   18.6499 H   0  0  0  0  0  0
    4.9424   54.9477   21.0186 H   0  0  0  0  0  0
    9.1617   55.7658   21.4238 H   0  0  0  0  0  0
    9.2733   56.2817   19.0288 H   0  0  0  0  0  0
    7.9910   55.2532   23.2389 H   0  0  0  0  0  0
    7.4956   54.5528   25.1032 H   0  0  0  0  0  0
    7.1039   53.3660   27.2163 H   0  0  0  0  0  0
    5.5067   52.7906   28.9947 H   0  0  0  0  0  0
    2.4218   54.8820   26.8764 H   0  0  0  0  0  0
    3.9343   55.2990   25.0406 H   0  0  0  0  0  0
    0.7043   53.4409   26.7241 H   0  0  0  0  0  0
    2.1180   52.3643   26.6524 H   0  0  0  0  0  0
    0.8741   50.4972   27.5481 H   0  0  0  0  0  0
    0.0874   51.0774   26.1139 H   0  0  0  0  0  0
   -1.3563   51.7318   30.0747 H   0  0  0  0  0  0
    0.1074   50.8872   29.6815 H   0  0  0  0  0  0
   -0.2392   53.8826   29.3323 H   0  0  0  0  0  0
    0.6984   53.0705   30.6028 H   0  0  0  0  0  0
   -1.6780   53.2955   25.7332 H   0  0  0  0  0  0
   -2.0905   53.2272   23.3138 H   0  0  0  0  0  0
   -3.0889   51.2102   22.2806 H   0  0  0  0  0  0
   -3.6864   49.2845   23.6625 H   0  0  0  0  0  0
   -3.2976   47.0910   26.7118 H   0  0  0  0  0  0
  1  6  2  0  0  0
  1  2  1  0  0  0
  1 37  1  0  0  0
  2  3  2  0  0  0
  2 38  1  0  0  0
  3  4  1  0  0  0
  3 39  1  0  0  0
  4  5  2  0  0  0
  4  7  1  0  0  0
  5  6  1  0  0  0
  5 40  1  0  0  0
  6 41  1  0  0  0
  7  8  1  0  0  0
  7 42  1  0  0  0
  8  9  2  0  0  0
  8 10  1  0  0  0
 10 11  1  0  0  0
 10 43  1  0  0  0
 11 16  2  0  0  0
 11 12  1  0  0  0
 12 13  2  0  0  0
 12 44  1  0  0  0
 13 14  1  0  0  0
 13 45  1  0  0  0
 14 15  2  0  0  0
 14 17  1  0  0  0
 15 16  1  0  0  0
 15 46  1  0  0  0
 16 47  1  0  0  0
 17 18  2  0  0  0
 17 19  1  0  0  0
 19 24  1  0  0  0
 19 20  1  0  0  0
 20 21  1  0  0  0
 20 48  1  0  0  0
 20 49  1  0  0  0
 21 22  1  0  0  0
 21 50  1  0  0  0
 21 51  1  0  0  0
 22 23  1  0  0  0
 22 25  1  0  0  0
 23 24  1  0  0  0
 23 52  1  0  0  0
 23 53  1  0  0  0
 24 54  1  0  0  0
 24 55  1  0  0  0
 25 26  2  0  0  0
 25 27  1  0  0  0
 27 32  2  0  0  0
 27 28  1  0  0  0
 28 29  2  0  0  0
 28 56  1  0  0  0
 29 30  1  0  0  0
 29 57  1  0  0  0
 30 31  2  0  0  0
 30 58  1  0  0  0
 31 32  1  0  0  0
 31 59  1  0  0  0
 32 33  1  0  0  0
 33 34  1  0  0  0
 34 35  1  0  0  0
 34 36  1  0  0  0
 34 60  1  0  0  0
M  END
> <i_i_glide_confnum>
248

> <i_i_glide_lignum>
3285

> <i_i_glide_posenum>
91

> <i_i_glide_rotatable_bonds>
10

> <i_m_Source_File_Index>
1762

> <b_m_subgroup_collapsed>
0

> <r_i_docking_score>
-7.02398

> <r_i_glide_ecoul>
-4.7015

> <r_i_glide_eff_state_penalty>
0

> <r_i_glide_einternal>
12.5442

> <r_i_glide_emodel>
-72.6376

> <r_i_glide_energy>
-55.3253

> <r_i_glide_erotb>
0.666736

> <r_i_glide_esite>
-0.261682

> <r_i_glide_evdw>
-50.6238

> <r_i_glide_gscore>
-7.02398

> <r_i_glide_hbond>
-0.608

> <r_i_glide_ligand_efficiency>
-0.19511

> <r_i_glide_ligand_efficiency_ln>
-1.53244

> <r_i_glide_ligand_efficiency_sa>
-0.644241

> <r_i_glide_lipo>
-2.71326

> <r_i_glide_metal>
0

> <r_i_glide_rewards>
-0.871355

> <s_i_glide_gridfile>
wee1_glide-grid

> <s_m_Source_File>
wee1_decoys_glide_SP.sdf

> <s_m_Source_Path>
/Users/zhangxujun/Desktop

> <s_m_entry_id>
2037

> <s_m_entry_name>
wee1_decoys_glide_SP.1762

> <s_m_subgroup_title>
wee1_decoys_glide_SP

> <s_m_subgroupid>
wee1_decoys_glide_SP


$$$$
