ZINC66096428_3043
                    3D
 Schrodinger Suite 2024-2.
 71 74  0  0  1  0            999 V2000
    5.5597   53.7814   28.2857 C   0  0  0  0  0  0
    4.5066   54.2362   27.2547 C   0  0  1  0  0  0
    4.3491   55.2949   27.4377 H   0  0  0  0  0  0
    4.9463   54.1909   25.7795 C   0  0  0  0  0  0
    6.3049   54.1711   25.4305 C   0  0  0  0  0  0
    6.6923   54.1121   24.0944 C   0  0  0  0  0  0
    5.7235   54.0765   23.0962 C   0  0  0  0  0  0
    4.3702   54.0983   23.4220 C   0  0  0  0  0  0
    3.9835   54.1550   24.7582 C   0  0  0  0  0  0
    3.2238   53.5799   27.5052 N   0  0  0  0  0  0
    2.3697   53.8792   28.5015 C   0  0  0  0  0  0
    2.5821   54.7803   29.3192 O   0  0  0  0  0  0
    1.1504   52.9955   28.6133 C   0  0  0  0  0  0
    0.4435   52.9367   29.8220 C   0  0  0  0  0  0
   -0.6502   52.0858   29.9606 C   0  0  0  0  0  0
   -1.0667   51.2966   28.8999 C   0  0  0  0  0  0
   -0.3998   51.3610   27.6793 C   0  0  0  0  0  0
    0.7058   52.2085   27.5341 C   0  0  0  0  0  0
   -0.8661   50.4995   26.6840 N   0  0  0  0  0  0
   -0.8361   50.6652   25.3498 C   0  0  0  0  0  0
   -0.3725   51.6619   24.7880 O   0  0  0  0  0  0
   -1.4442   49.5053   24.5309 C   0  0  0  0  0  0
   -2.0884   49.9761   23.3242 N   0  0  0  0  0  0
   -1.4848   49.9464   22.0594 C   0  0  0  0  0  0
   -0.5984   48.9322   21.6794 C   0  0  0  0  0  0
   -0.0250   48.9369   20.4094 C   0  0  0  0  0  0
   -0.3339   49.9567   19.5117 C   0  0  0  0  0  0
   -1.2133   50.9906   19.8772 C   0  0  0  0  0  0
   -1.7983   50.9612   21.1531 C   0  0  0  0  0  0
   -1.5848   52.0880   18.9049 C   0  0  0  0  0  0
   -2.7516   52.4943   18.8866 O   0  0  0  0  0  0
   -0.6339   52.5613   18.0553 N   0  0  0  0  0  0
    0.8045   52.5786   18.3677 C   0  0  0  0  0  0
   -0.9948   53.1723   16.7688 C   0  0  0  0  0  0
   -1.2572   54.6738   16.7819 C   0  0  0  0  0  0
   -0.2099   55.5847   16.9578 C   0  0  0  0  0  0
   -0.4612   56.9518   16.8895 C   0  0  0  0  0  0
   -1.7508   57.4084   16.6363 C   0  0  0  0  0  0
   -2.7962   56.5082   16.4547 C   0  0  0  0  0  0
   -2.5487   55.1402   16.5274 C   0  0  0  0  0  0
    6.4004   54.4773   28.3382 H   0  0  0  0  0  0
    5.1150   53.7473   29.2802 H   0  0  0  0  0  0
    5.9385   52.7832   28.0626 H   0  0  0  0  0  0
    7.0773   54.1919   26.1836 H   0  0  0  0  0  0
    7.7397   54.0909   23.8365 H   0  0  0  0  0  0
    6.0229   54.0366   22.0593 H   0  0  0  0  0  0
    3.6214   54.0729   22.6429 H   0  0  0  0  0  0
    2.9292   54.1752   24.9908 H   0  0  0  0  0  0
    3.0189   52.7846   26.9178 H   0  0  0  0  0  0
    0.7431   53.5361   30.6687 H   0  0  0  0  0  0
   -1.2049   52.0274   30.8831 H   0  0  0  0  0  0
   -1.9112   50.6341   29.0351 H   0  0  0  0  0  0
    1.2250   52.2332   26.5886 H   0  0  0  0  0  0
   -1.2929   49.6484   27.0526 H   0  0  0  0  0  0
   -0.6592   48.7600   24.3974 H   0  0  0  0  0  0
   -2.1892   49.0224   25.1661 H   0  0  0  0  0  0
   -2.7609   50.7182   23.4500 H   0  0  0  0  0  0
   -0.3609   48.1243   22.3534 H   0  0  0  0  0  0
    0.6521   48.1471   20.1155 H   0  0  0  0  0  0
    0.1065   49.9250   18.5208 H   0  0  0  0  0  0
   -2.4871   51.7441   21.4462 H   0  0  0  0  0  0
    1.3660   52.0166   17.6198 H   0  0  0  0  0  0
    1.1868   53.5986   18.3632 H   0  0  0  0  0  0
    1.0444   52.1684   19.3478 H   0  0  0  0  0  0
   -0.2072   52.9709   16.0428 H   0  0  0  0  0  0
   -1.8778   52.6688   16.3722 H   0  0  0  0  0  0
    0.7999   55.2435   17.1259 H   0  0  0  0  0  0
    0.3398   57.6611   17.0257 H   0  0  0  0  0  0
   -1.9382   58.4702   16.5754 H   0  0  0  0  0  0
   -3.7942   56.8663   16.2505 H   0  0  0  0  0  0
   -3.3604   54.4427   16.3676 H   0  0  0  0  0  0
  1  2  1  0  0  0
  1 41  1  0  0  0
  1 42  1  0  0  0
  1 43  1  0  0  0
  2  3  1  0  0  0
  2  4  1  0  0  0
  2 10  1  0  0  0
  4  9  2  0  0  0
  4  5  1  0  0  0
  5  6  2  0  0  0
  5 44  1  0  0  0
  6  7  1  0  0  0
  6 45  1  0  0  0
  7  8  2  0  0  0
  7 46  1  0  0  0
  8  9  1  0  0  0
  8 47  1  0  0  0
  9 48  1  0  0  0
 10 11  1  0  0  0
 10 49  1  0  0  0
 11 12  2  0  0  0
 11 13  1  0  0  0
 13 18  2  0  0  0
 13 14  1  0  0  0
 14 15  2  0  0  0
 14 50  1  0  0  0
 15 16  1  0  0  0
 15 51  1  0  0  0
 16 17  2  0  0  0
 16 52  1  0  0  0
 17 18  1  0  0  0
 17 19  1  0  0  0
 18 53  1  0  0  0
 19 20  1  0  0  0
 19 54  1  0  0  0
 20 21  2  0  0  0
 20 22  1  0  0  0
 22 23  1  0  0  0
 22 55  1  0  0  0
 22 56  1  0  0  0
 23 24  1  0  0  0
 23 57  1  0  0  0
 24 29  2  0  0  0
 24 25  1  0  0  0
 25 26  2  0  0  0
 25 58  1  0  0  0
 26 27  1  0  0  0
 26 59  1  0  0  0
 27 28  2  0  0  0
 27 60  1  0  0  0
 28 29  1  0  0  0
 28 30  1  0  0  0
 29 61  1  0  0  0
 30 31  2  0  0  0
 30 32  1  0  0  0
 32 33  1  0  0  0
 32 34  1  0  0  0
 33 62  1  0  0  0
 33 63  1  0  0  0
 33 64  1  0  0  0
 34 35  1  0  0  0
 34 65  1  0  0  0
 34 66  1  0  0  0
 35 40  2  0  0  0
 35 36  1  0  0  0
 36 37  2  0  0  0
 36 67  1  0  0  0
 37 38  1  0  0  0
 37 68  1  0  0  0
 38 39  2  0  0  0
 38 69  1  0  0  0
 39 40  1  0  0  0
 39 70  1  0  0  0
 40 71  1  0  0  0
M  END
> <i_i_glide_confnum>
73

> <i_i_glide_lignum>
3044

> <i_i_glide_posenum>
337

> <i_i_glide_rotatable_bonds>
13

> <i_m_Source_File_Index>
4298

> <b_m_subgroup_collapsed>
0

> <r_i_docking_score>
-6.63791

> <r_i_glide_ecoul>
-11.7504

> <r_i_glide_eff_state_penalty>
0

> <r_i_glide_einternal>
9.68009

> <r_i_glide_emodel>
-77.9827

> <r_i_glide_energy>
-56.7544

> <r_i_glide_erotb>
0.834084

> <r_i_glide_esite>
-0.166312

> <r_i_glide_evdw>
-45.0039

> <r_i_glide_gscore>
-6.63791

> <r_i_glide_hbond>
-0.456

> <r_i_glide_ligand_efficiency>
-0.170203

> <r_i_glide_ligand_efficiency_ln>
-1.42336

> <r_i_glide_ligand_efficiency_sa>
-0.577193

> <r_i_glide_lipo>
-2.84376

> <r_i_glide_metal>
0

> <r_i_glide_rewards>
0.00684387

> <s_i_glide_gridfile>
wee1_glide-grid

> <s_m_Source_File>
wee1_decoys_glide_SP.sdf

> <s_m_Source_Path>
/Users/zhangxujun/Desktop

> <s_m_entry_id>
4573

> <s_m_entry_name>
wee1_decoys_glide_SP.4298

> <s_m_subgroup_title>
wee1_decoys_glide_SP

> <s_m_subgroupid>
wee1_decoys_glide_SP


$$$$
