ZINC13689030_3228
                    3D
 Schrodinger Suite 2024-2.
 45 48  0  0  1  0            999 V2000
    8.1456   56.9868   16.2547 C   0  0  0  0  0  0
    8.2281   58.2592   16.8186 C   0  0  0  0  0  0
    9.2312   58.5400   17.7453 C   0  0  0  0  0  0
   10.1654   57.5676   18.0964 C   0  0  0  0  0  0
   10.0804   56.2945   17.5433 C   0  0  0  0  0  0
    9.0550   55.9953   16.6395 C   0  0  0  0  0  0
    8.9060   54.3319   15.9669 S   0  0  0  0  0  0
   10.2138   53.7179   16.2212 O   0  0  0  0  0  0
    8.6460   54.6180   14.5520 O   0  0  0  0  0  0
    7.5358   53.5673   16.8173 N   0  0  0  0  0  0
    6.9376   53.9513   17.8749 C   0  0  0  0  0  0
    5.8504   53.2967   18.4187 N   0  0  0  0  0  0
    5.6011   52.3696   18.0804 H   0  0  0  0  0  0
    5.2174   53.8643   19.4985 C   0  0  0  0  0  0
    5.8397   54.9628   19.9473 C   0  0  0  0  0  0
    7.2820   55.2994   19.0173 S   0  0  0  0  0  0
    3.9881   53.1963   20.0999 C   0  0  0  0  0  0
    4.1201   53.0796   21.6215 C   0  0  0  0  0  0
    5.1052   52.5008   22.0816 O   0  0  0  0  0  0
    3.1449   53.6394   22.3705 N   0  0  0  0  0  0
    3.1261   53.6901   23.7741 C   0  0  0  0  0  0
    1.9531   53.3140   24.4389 C   0  0  0  0  0  0
    1.9050   53.3033   25.8360 C   0  0  0  0  0  0
    3.0229   53.6974   26.5724 C   0  0  0  0  0  0
    4.1937   54.0966   25.9137 C   0  0  0  0  0  0
    4.2469   54.0966   24.5174 C   0  0  0  0  0  0
    5.3272   54.4819   26.7547 C   0  0  0  0  0  0
    5.2427   54.4619   28.0985 C   0  0  0  0  0  0
    4.0011   54.0556   28.7773 C   0  0  0  0  0  0
    3.8015   54.0147   29.9913 O   0  0  0  0  0  0
    2.9310   53.6849   27.9606 O   0  0  0  0  0  0
    9.3113   60.0970   18.4814 Cl  0  0  0  0  0  0
    7.3618   56.7610   15.5461 H   0  0  0  0  0  0
    7.5085   59.0210   16.5508 H   0  0  0  0  0  0
   10.9415   57.7865   18.8162 H   0  0  0  0  0  0
   10.7934   55.5411   17.8463 H   0  0  0  0  0  0
    5.5624   55.5748   20.7931 H   0  0  0  0  0  0
    3.8598   52.1918   19.6922 H   0  0  0  0  0  0
    3.1040   53.7652   19.8171 H   0  0  0  0  0  0
    2.3315   53.9978   21.8887 H   0  0  0  0  0  0
    1.0862   53.0002   23.8766 H   0  0  0  0  0  0
    1.0044   52.9915   26.3429 H   0  0  0  0  0  0
    5.1568   54.3920   24.0130 H   0  0  0  0  0  0
    6.2551   54.7821   26.2921 H   0  0  0  0  0  0
    6.1022   54.7513   28.6860 H   0  0  0  0  0  0
  1  6  2  0  0  0
  1  2  1  0  0  0
  1 33  1  0  0  0
  2  3  2  0  0  0
  2 34  1  0  0  0
  3  4  1  0  0  0
  3 32  1  0  0  0
  4  5  2  0  0  0
  4 35  1  0  0  0
  5  6  1  0  0  0
  5 36  1  0  0  0
  6  7  1  0  0  0
  7  8  2  0  0  0
  7  9  2  0  0  0
  7 10  1  0  0  0
 10 11  2  0  0  0
 11 16  1  0  0  0
 11 12  1  0  0  0
 12 13  1  0  0  0
 12 14  1  0  0  0
 14 15  2  0  0  0
 14 17  1  0  0  0
 15 16  1  0  0  0
 15 37  1  0  0  0
 17 18  1  0  0  0
 17 38  1  0  0  0
 17 39  1  0  0  0
 18 19  2  0  0  0
 18 20  1  0  0  0
 20 21  1  0  0  0
 20 40  1  0  0  0
 21 26  2  0  0  0
 21 22  1  0  0  0
 22 23  2  0  0  0
 22 41  1  0  0  0
 23 24  1  0  0  0
 23 42  1  0  0  0
 24 31  1  0  0  0
 24 25  2  0  0  0
 25 26  1  0  0  0
 25 27  1  0  0  0
 26 43  1  0  0  0
 27 28  2  0  0  0
 27 44  1  0  0  0
 28 29  1  0  0  0
 28 45  1  0  0  0
 29 30  2  0  0  0
 29 31  1  0  0  0
M  END
> <i_i_glide_confnum>
38

> <i_i_glide_lignum>
3229

> <i_i_glide_posenum>
383

> <i_i_glide_rotatable_bonds>
6

> <i_m_Source_File_Index>
1825

> <b_m_subgroup_collapsed>
0

> <r_i_docking_score>
-5.83916

> <r_i_glide_ecoul>
-9.0256

> <r_i_glide_eff_state_penalty>
0

> <r_i_glide_einternal>
5.5695

> <r_i_glide_emodel>
-65.2104

> <r_i_glide_energy>
-49.6163

> <r_i_glide_erotb>
0.357535

> <r_i_glide_esite>
-0.0785408

> <r_i_glide_evdw>
-40.5907

> <r_i_glide_gscore>
-5.83916

> <r_i_glide_hbond>
-0.513645

> <r_i_glide_ligand_efficiency>
-0.18836

> <r_i_glide_ligand_efficiency_ln>
-1.31691

> <r_i_glide_ligand_efficiency_sa>
-0.59171

> <r_i_glide_lipo>
-2.30653

> <r_i_glide_metal>
0

> <r_i_glide_rewards>
0.0853941

> <s_i_glide_gridfile>
wee1_glide-grid

> <s_m_Source_File>
wee1_decoys_glide_SP.sdf

> <s_m_Source_Path>
/Users/zhangxujun/Desktop

> <s_m_entry_id>
2100

> <s_m_entry_name>
wee1_decoys_glide_SP.1825

> <s_m_subgroup_title>
wee1_decoys_glide_SP

> <s_m_subgroupid>
wee1_decoys_glide_SP


$$$$
