ZINC50696124_4696
                    3D
 Schrodinger Suite 2024-2.
 29 30  0  0  1  0            999 V2000
    6.9064   54.9062   21.9796 C   0  0  0  0  0  0
    6.0400   54.5993   23.1868 C   0  0  0  0  0  0
    6.5011   54.8695   24.4780 C   0  0  0  0  0  0
    5.6528   54.6678   25.5697 C   0  0  0  0  0  0
    4.3537   54.1966   25.3430 C   0  0  0  0  0  0
    3.9010   53.9223   24.0848 N   0  0  0  0  0  0
    4.7433   54.0989   23.0360 C   0  0  0  0  0  0
    3.5225   54.0674   26.4703 N   0  0  0  0  0  0
    2.3050   53.4823   26.5572 C   0  0  0  0  0  0
    1.7377   52.8998   25.6316 O   0  0  0  0  0  0
    1.6393   53.5789   27.9128 C   0  0  0  0  0  0
    1.7306   54.7677   28.6573 C   0  0  0  0  0  0
    1.1049   54.8719   29.8979 C   0  0  0  0  0  0
    0.4005   53.7711   30.3824 C   0  0  0  0  0  0
    0.2784   52.6169   29.6821 N   0  0  0  0  0  0
    0.8762   52.5255   28.4677 C   0  0  0  0  0  0
    0.6775   51.3105   27.8132 N   0  0  0  0  0  0
    1.1964   56.4970   30.8816 Br  0  0  0  0  0  0
    6.4838   54.4971   21.0623 H   0  0  0  0  0  0
    7.9076   54.4968   22.0993 H   0  0  0  0  0  0
    7.0165   55.9830   21.8622 H   0  0  0  0  0  0
    7.5026   55.2488   24.6249 H   0  0  0  0  0  0
    6.0038   54.8870   26.5679 H   0  0  0  0  0  0
    4.3339   53.8797   22.0588 H   0  0  0  0  0  0
    3.9117   54.4221   27.3274 H   0  0  0  0  0  0
    2.2683   55.6236   28.2742 H   0  0  0  0  0  0
   -0.0942   53.8011   31.3432 H   0  0  0  0  0  0
    0.9697   51.2446   26.8467 H   0  0  0  0  0  0
    0.0249   50.6441   28.2046 H   0  0  0  0  0  0
  1  2  1  0  0  0
  1 19  1  0  0  0
  1 20  1  0  0  0
  1 21  1  0  0  0
  2  7  2  0  0  0
  2  3  1  0  0  0
  3  4  2  0  0  0
  3 22  1  0  0  0
  4  5  1  0  0  0
  4 23  1  0  0  0
  5  6  2  0  0  0
  5  8  1  0  0  0
  6  7  1  0  0  0
  7 24  1  0  0  0
  8  9  1  0  0  0
  8 25  1  0  0  0
  9 10  2  0  0  0
  9 11  1  0  0  0
 11 16  2  0  0  0
 11 12  1  0  0  0
 12 13  2  0  0  0
 12 26  1  0  0  0
 13 14  1  0  0  0
 13 18  1  0  0  0
 14 15  2  0  0  0
 14 27  1  0  0  0
 15 16  1  0  0  0
 16 17  1  0  0  0
 17 28  1  0  0  0
 17 29  1  0  0  0
M  END
> <i_i_glide_confnum>
1

> <i_i_glide_lignum>
4697

> <i_i_glide_posenum>
248

> <i_i_glide_rotatable_bonds>
3

> <i_m_Source_File_Index>
3437

> <b_m_subgroup_collapsed>
0

> <r_i_docking_score>
-5.73315

> <r_i_glide_ecoul>
-0.269826

> <r_i_glide_eff_state_penalty>
0

> <r_i_glide_einternal>
0.945645

> <r_i_glide_emodel>
-48.8049

> <r_i_glide_energy>
-36.2636

> <r_i_glide_erotb>
0.58775

> <r_i_glide_esite>
-0.0113197

> <r_i_glide_evdw>
-35.9938

> <r_i_glide_gscore>
-5.73315

> <r_i_glide_hbond>
0

> <r_i_glide_ligand_efficiency>
-0.318508

> <r_i_glide_ligand_efficiency_ln>
-1.47368

> <r_i_glide_ligand_efficiency_sa>
-0.834728

> <r_i_glide_lipo>
-2.85113

> <r_i_glide_metal>
0

> <r_i_glide_rewards>
-1.61829

> <s_i_glide_gridfile>
wee1_glide-grid

> <s_m_Source_File>
wee1_decoys_glide_SP.sdf

> <s_m_Source_Path>
/Users/zhangxujun/Desktop

> <s_m_entry_id>
3712

> <s_m_entry_name>
wee1_decoys_glide_SP.3437

> <s_m_subgroup_title>
wee1_decoys_glide_SP

> <s_m_subgroupid>
wee1_decoys_glide_SP


$$$$
