ZINC22193025_2104
                    3D
 Schrodinger Suite 2024-2.
 58 61  0  0  1  0            999 V2000
   -0.2564   52.6531   17.0102 C   0  0  0  0  0  0
   -0.9122   53.8396   17.3306 C   0  0  0  0  0  0
   -0.6049   55.0293   16.6593 C   0  0  0  0  0  0
    0.3579   55.0064   15.6422 C   0  0  0  0  0  0
    0.9948   53.8100   15.2972 C   0  0  0  0  0  0
    0.6983   52.6384   15.9975 C   0  0  0  0  0  0
    2.1869   53.7655   13.9638 S   0  0  0  0  0  0
    1.9050   54.9231   13.1065 O   0  0  0  0  0  0
    2.1644   52.3959   13.4376 O   0  0  0  0  0  0
    3.7552   54.0184   14.7533 N   0  0  0  0  0  0
    4.3360   52.9321   15.5922 C   0  0  0  0  0  0
    4.4254   53.3192   17.0839 C   0  0  0  0  0  0
    5.1572   54.6865   17.2089 C   0  0  0  0  0  0
    4.3751   55.7884   16.4424 C   0  0  0  0  0  0
    4.2732   55.3990   14.9533 C   0  0  0  0  0  0
    5.4281   55.1519   18.6634 C   0  0  0  0  0  0
    5.8456   56.2952   18.8587 O   0  0  0  0  0  0
    5.1837   54.2763   19.6624 N   0  0  0  0  0  0
    5.4322   54.4463   21.0326 C   0  0  0  0  0  0
    6.4846   55.2249   21.5318 C   0  0  0  0  0  0
    6.7038   55.2926   22.9028 C   0  0  0  0  0  0
    5.8724   54.6074   23.8009 C   0  0  0  0  0  0
    4.8197   53.8372   23.2843 C   0  0  0  0  0  0
    4.6111   53.7450   21.9126 C   0  0  0  0  0  0
    6.1198   54.7425   25.2887 C   0  0  0  0  0  0
    7.1027   55.3596   25.7005 O   0  0  0  0  0  0
    5.2248   54.1810   26.1229 N   0  0  0  0  0  0
    5.2666   54.3328   27.5745 C   0  0  0  0  0  0
    4.9824   53.1516   28.4665 C   0  0  0  0  0  0
    6.3928   53.6825   28.3329 C   0  0  0  0  0  0
   -1.3079   56.3400   17.0111 C   0  0  0  0  0  0
   -0.4140   57.2936   17.2673 F   0  0  0  0  0  0
   -2.0634   56.7297   15.9838 F   0  0  0  0  0  0
   -2.0955   56.2170   18.0817 F   0  0  0  0  0  0
   -0.4922   51.7412   17.5409 H   0  0  0  0  0  0
   -1.6605   53.8249   18.1056 H   0  0  0  0  0  0
    0.5979   55.9161   15.1097 H   0  0  0  0  0  0
    1.1953   51.7112   15.7483 H   0  0  0  0  0  0
    5.3118   52.6670   15.1778 H   0  0  0  0  0  0
    3.7222   52.0357   15.4866 H   0  0  0  0  0  0
    4.9765   52.4975   17.5565 H   0  0  0  0  0  0
    3.4019   53.3743   17.4617 H   0  0  0  0  0  0
    6.1672   54.6525   16.7938 H   0  0  0  0  0  0
    3.3481   55.8794   16.8084 H   0  0  0  0  0  0
    4.8854   56.7554   16.4616 H   0  0  0  0  0  0
    5.2348   55.4730   14.4417 H   0  0  0  0  0  0
    3.6148   56.1018   14.4396 H   0  0  0  0  0  0
    4.6997   53.4299   19.4055 H   0  0  0  0  0  0
    7.1557   55.7491   20.8703 H   0  0  0  0  0  0
    7.5133   55.9076   23.2621 H   0  0  0  0  0  0
    4.1460   53.3019   23.9338 H   0  0  0  0  0  0
    3.7972   53.1369   21.5423 H   0  0  0  0  0  0
    4.3588   53.8429   25.7300 H   0  0  0  0  0  0
    4.9102   55.2970   27.9229 H   0  0  0  0  0  0
    4.7279   52.1972   28.0123 H   0  0  0  0  0  0
    4.4345   53.3267   29.3908 H   0  0  0  0  0  0
    6.8358   54.2042   29.1760 H   0  0  0  0  0  0
    7.1277   53.0960   27.7785 H   0  0  0  0  0  0
  1  6  2  0  0  0
  1  2  1  0  0  0
  1 35  1  0  0  0
  2  3  2  0  0  0
  2 36  1  0  0  0
  3  4  1  0  0  0
  3 31  1  0  0  0
  4  5  2  0  0  0
  4 37  1  0  0  0
  5  6  1  0  0  0
  5  7  1  0  0  0
  6 38  1  0  0  0
  7  8  2  0  0  0
  7  9  2  0  0  0
  7 10  1  0  0  0
 10 15  1  0  0  0
 10 11  1  0  0  0
 11 12  1  0  0  0
 11 39  1  0  0  0
 11 40  1  0  0  0
 12 13  1  0  0  0
 12 41  1  0  0  0
 12 42  1  0  0  0
 13 14  1  0  0  0
 13 16  1  0  0  0
 13 43  1  0  0  0
 14 15  1  0  0  0
 14 44  1  0  0  0
 14 45  1  0  0  0
 15 46  1  0  0  0
 15 47  1  0  0  0
 16 17  2  0  0  0
 16 18  1  0  0  0
 18 19  1  0  0  0
 18 48  1  0  0  0
 19 24  2  0  0  0
 19 20  1  0  0  0
 20 21  2  0  0  0
 20 49  1  0  0  0
 21 22  1  0  0  0
 21 50  1  0  0  0
 22 23  2  0  0  0
 22 25  1  0  0  0
 23 24  1  0  0  0
 23 51  1  0  0  0
 24 52  1  0  0  0
 25 26  2  0  0  0
 25 27  1  0  0  0
 27 28  1  0  0  0
 27 53  1  0  0  0
 28 30  1  0  0  0
 28 29  1  0  0  0
 28 54  1  0  0  0
 29 30  1  0  0  0
 29 55  1  0  0  0
 29 56  1  0  0  0
 30 57  1  0  0  0
 30 58  1  0  0  0
 31 32  1  0  0  0
 31 33  1  0  0  0
 31 34  1  0  0  0
M  END
> <i_i_glide_confnum>
230

> <i_i_glide_lignum>
2105

> <i_i_glide_posenum>
314

> <i_i_glide_rotatable_bonds>
9

> <i_m_Source_File_Index>
5727

> <b_m_subgroup_collapsed>
0

> <r_i_docking_score>
-5.25776

> <r_i_glide_ecoul>
-6.81064

> <r_i_glide_eff_state_penalty>
0

> <r_i_glide_einternal>
6.63035

> <r_i_glide_emodel>
-54.9117

> <r_i_glide_energy>
-43.135

> <r_i_glide_erotb>
0.66421

> <r_i_glide_esite>
-0.0811517

> <r_i_glide_evdw>
-36.3244

> <r_i_glide_gscore>
-5.25776

> <r_i_glide_hbond>
-0.32

> <r_i_glide_ligand_efficiency>
-0.15464

> <r_i_glide_ligand_efficiency_ln>
-1.16159

> <r_i_glide_ligand_efficiency_sa>
-0.500974

> <r_i_glide_lipo>
-2.17007

> <r_i_glide_metal>
0

> <r_i_glide_rewards>
-0.512934

> <s_i_glide_gridfile>
wee1_glide-grid

> <s_m_Source_File>
wee1_decoys_glide_SP.sdf

> <s_m_Source_Path>
/Users/zhangxujun/Desktop

> <s_m_entry_id>
6002

> <s_m_entry_name>
wee1_decoys_glide_SP.5727

> <s_m_subgroup_title>
wee1_decoys_glide_SP

> <s_m_subgroupid>
wee1_decoys_glide_SP


$$$$
