CHEMBL472208_0
                    3D
 Schrodinger Suite 2024-2.
 51 56  0  0  1  0            999 V2000
    0.1705   51.8828   29.4882 C   0  0  0  0  0  0
   -0.0997   52.8496   30.4496 C   0  0  0  0  0  0
    0.4080   54.1376   30.3089 C   0  0  0  0  0  0
    1.2217   54.4552   29.2210 C   0  0  0  0  0  0
    1.5743   53.4562   28.2918 C   0  0  0  0  0  0
    1.0178   52.1786   28.4266 C   0  0  0  0  0  0
    2.5309   53.6959   27.1820 C   0  0  0  0  0  0
    2.0772   53.5734   25.8651 C   0  0  0  0  0  0
    2.9849   53.7762   24.8111 C   0  0  0  0  0  0
    4.3447   54.1195   25.0604 C   0  0  0  0  0  0
    4.9752   54.3121   23.8101 C   0  0  0  0  0  0
    6.2769   54.6966   23.4230 C   0  0  0  0  0  0
    6.5568   54.8967   22.0737 C   0  0  0  0  0  0
    5.5859   54.6594   21.1078 C   0  0  0  0  0  0
    4.3039   54.2251   21.4401 C   0  0  0  0  0  0
    3.9978   54.0754   22.8029 C   0  0  0  0  0  0
    2.8057   53.7252   23.4323 N   0  0  0  0  0  0
    1.5318   53.5043   22.7290 C   0  0  0  0  0  0
    0.7074   52.2587   23.1432 C   0  0  0  0  0  0
    1.7105   50.6978   23.1694 S   0  0  2  0  0  0
    1.6836   50.1433   21.7442 O   0  0  0  0  0  0
    0.4961   49.6827   24.1110 C   0  0  0  0  0  0
   -0.2204   48.7228   23.5370 N   0  0  0  0  0  0
   -0.9306   48.7044   26.6237 H   0  0  0  0  0  0
   -0.8956   48.2243   24.5391 C   0  0  0  0  0  0
   -0.5840   48.8969   25.6817 N   0  0  0  0  0  0
    0.3045   49.8491   25.4065 N   0  0  0  0  0  0
    7.8072   55.3043   21.6817 O   0  0  0  0  0  0
    4.7616   54.2226   26.4023 C   0  0  0  0  0  0
    3.8728   54.0043   27.4226 C   0  0  0  0  0  0
    4.6233   54.1620   28.7037 C   0  0  0  0  0  0
    4.2176   54.0393   29.8572 O   0  0  0  0  0  0
    5.8737   54.4965   28.3473 N   0  0  0  0  0  0
    6.0628   54.5726   27.0211 C   0  0  0  0  0  0
    7.1044   54.8965   26.4739 O   0  0  0  0  0  0
    1.7541   56.0960   29.0501 Cl  0  0  0  0  0  0
   -0.2620   50.8967   29.5786 H   0  0  0  0  0  0
   -0.7414   52.6032   31.2816 H   0  0  0  0  0  0
    0.1586   54.8940   31.0385 H   0  0  0  0  0  0
    1.2541   51.4019   27.7127 H   0  0  0  0  0  0
    1.0401   53.3458   25.6969 H   0  0  0  0  0  0
    7.0528   54.8817   24.1432 H   0  0  0  0  0  0
    5.8348   54.8048   20.0664 H   0  0  0  0  0  0
    3.5770   54.0531   20.6595 H   0  0  0  0  0  0
    1.7215   53.4382   21.6598 H   0  0  0  0  0  0
    0.9483   54.4095   22.8819 H   0  0  0  0  0  0
   -0.0938   52.1068   22.4195 H   0  0  0  0  0  0
    0.1977   52.3903   24.0923 H   0  0  0  0  0  0
   -1.5959   47.4028   24.5440 H   0  0  0  0  0  0
    8.4560   55.2973   22.3993 H   0  0  0  0  0  0
    6.5969   54.7298   29.0135 H   0  0  0  0  0  0
  1  6  2  0  0  0
  1  2  1  0  0  0
  1 37  1  0  0  0
  2  3  2  0  0  0
  2 38  1  0  0  0
  3  4  1  0  0  0
  3 39  1  0  0  0
  4  5  2  0  0  0
  4 36  1  0  0  0
  5  6  1  0  0  0
  5  7  1  0  0  0
  6 40  1  0  0  0
  7 30  2  0  0  0
  7  8  1  0  0  0
  8  9  2  0  0  0
  8 41  1  0  0  0
  9 17  1  0  0  0
  9 10  1  0  0  0
 10 11  1  0  0  0
 10 29  2  0  0  0
 11 16  2  0  0  0
 11 12  1  0  0  0
 12 13  2  0  0  0
 12 42  1  0  0  0
 13 14  1  0  0  0
 13 28  1  0  0  0
 14 15  2  0  0  0
 14 43  1  0  0  0
 15 16  1  0  0  0
 15 44  1  0  0  0
 16 17  1  0  0  0
 17 18  1  0  0  0
 18 19  1  0  0  0
 18 45  1  0  0  0
 18 46  1  0  0  0
 19 20  1  0  0  0
 19 47  1  0  0  0
 19 48  1  0  0  0
 20 21  2  0  0  0
 20 22  1  0  0  0
 22 23  1  0  0  0
 22 27  2  0  0  0
 23 25  2  0  0  0
 24 26  1  0  0  0
 25 49  1  0  0  0
 25 26  1  0  0  0
 26 27  1  0  0  0
 28 50  1  0  0  0
 29 34  1  0  0  0
 29 30  1  0  0  0
 30 31  1  0  0  0
 31 32  2  0  0  0
 31 33  1  0  0  0
 33 34  1  0  0  0
 33 51  1  0  0  0
 34 35  2  0  0  0
M  END
> <i_i_glide_confnum>
69

> <i_i_glide_lignum>
1

> <i_i_glide_posenum>
56

> <i_i_glide_rotatable_bonds>
6

> <i_m_Source_File_Index>
63

> <b_m_subgroup_collapsed>
0

> <r_i_docking_score>
-12.4906

> <r_i_glide_ecoul>
-16.6346

> <r_i_glide_eff_state_penalty>
0

> <r_i_glide_einternal>
3.46544

> <r_i_glide_emodel>
-131.542

> <r_i_glide_energy>
-74.3474

> <r_i_glide_erotb>
0.223772

> <r_i_glide_esite>
-0.150318

> <r_i_glide_evdw>
-57.7128

> <r_i_glide_gscore>
-12.4906

> <r_i_glide_hbond>
-1.16238

> <r_i_glide_ligand_efficiency>
-0.356875

> <r_i_glide_ligand_efficiency_ln>
-2.74197

> <r_i_glide_ligand_efficiency_sa>
-1.16736

> <r_i_glide_lipo>
-3.88495

> <r_i_glide_metal>
0

> <r_i_glide_rewards>
-2.13592

> <s_i_glide_gridfile>
wee1_glide-grid

> <s_m_Source_File>
wee1_actives_glide_SP.sdf

> <s_m_Source_Path>
/Users/zhangxujun/Desktop

> <s_m_entry_id>
201

> <s_m_entry_name>
wee1_actives_glide_SP.63

> <s_m_subgroup_title>
wee1_actives_glide_SP

> <s_m_subgroupid>
wee1_actives_glide_SP


$$$$
