CHEMBL270866_29
                    3D
 Schrodinger Suite 2024-2.
 64 69  0  0  1  0            999 V2000
    1.2422   53.7157   23.2183 C   0  0  0  0  0  0
    2.5679   53.9190   23.7843 N   0  0  0  0  0  0
    2.8475   53.8494   25.1309 C   0  0  0  0  0  0
    1.9959   53.5678   26.2050 C   0  0  0  0  0  0
    2.5054   53.7032   27.4963 C   0  0  0  0  0  0
    3.8623   54.0022   27.6743 C   0  0  0  0  0  0
    4.7160   54.2113   26.6217 C   0  0  0  0  0  0
    4.2226   54.1641   25.3093 C   0  0  0  0  0  0
    4.7794   54.3808   24.0344 C   0  0  0  0  0  0
    3.7193   54.2656   23.1000 C   0  0  0  0  0  0
    3.9204   54.4947   21.7437 C   0  0  0  0  0  0
    5.2198   54.7199   21.2982 C   0  0  0  0  0  0
    6.2746   54.8965   22.2038 C   0  0  0  0  0  0
    6.0669   54.7078   23.5689 C   0  0  0  0  0  0
    7.5232   55.2811   21.8002 O   0  0  0  0  0  0
    5.4074   54.7438   19.4745 S   0  0  1  0  0  0
    6.8243   55.2150   19.1476 O   0  0  0  0  0  0
    5.3895   52.8969   19.1977 C   0  0  0  0  0  0
    4.1468   52.1594   19.7595 C   0  0  0  0  0  0
    2.8325   52.5535   19.0675 C   0  0  0  0  0  0
    2.6340   51.6596   17.8273 N   0  3  0  0  0  0
    1.6832   52.2387   16.7665 C   0  0  0  0  0  0
    1.3530   51.0261   15.8991 C   0  0  0  0  0  0
    1.3598   49.8178   16.8418 C   0  0  0  0  0  0
    2.0454   50.2651   18.1404 C   0  0  0  0  0  0
    6.0611   54.5091   27.1772 C   0  0  0  0  0  0
    7.1044   54.7758   26.5907 O   0  0  0  0  0  0
    5.9046   54.4712   28.5075 N   0  0  0  0  0  0
    4.6597   54.1763   28.9153 C   0  0  0  0  0  0
    4.2811   54.0957   30.0812 O   0  0  0  0  0  0
    1.5757   53.5367   28.6392 C   0  0  0  0  0  0
    0.9493   52.2987   28.8312 C   0  0  0  0  0  0
    0.0970   52.0966   29.9111 C   0  0  0  0  0  0
   -0.0952   53.1148   30.8358 C   0  0  0  0  0  0
    0.4809   54.3649   30.6383 C   0  0  0  0  0  0
    1.2895   54.5929   29.5270 C   0  0  0  0  0  0
    1.8869   56.2006   29.2739 Cl  0  0  0  0  0  0
    0.8656   52.7380   23.5220 H   0  0  0  0  0  0
    0.5822   54.4949   23.6048 H   0  0  0  0  0  0
    1.2642   53.7607   22.1293 H   0  0  0  0  0  0
    0.9564   53.3179   26.0480 H   0  0  0  0  0  0
    3.1059   54.4193   21.0440 H   0  0  0  0  0  0
    6.8922   54.8347   24.2462 H   0  0  0  0  0  0
    8.1719   55.3019   22.5145 H   0  0  0  0  0  0
    6.2912   52.4694   19.6228 H   0  0  0  0  0  0
    5.4659   52.7244   18.1239 H   0  0  0  0  0  0
    4.0622   52.2539   20.8365 H   0  0  0  0  0  0
    4.3013   51.0870   19.6817 H   0  0  0  0  0  0
    2.8440   53.5863   18.7142 H   0  0  0  0  0  0
    1.9534   52.4160   19.6970 H   0  0  0  0  0  0
    2.1885   53.0594   16.2516 H   0  0  0  0  0  0
    0.8183   52.6307   17.3073 H   0  0  0  0  0  0
    2.1192   50.9068   15.1292 H   0  0  0  0  0  0
    0.3940   51.1393   15.3899 H   0  0  0  0  0  0
    0.3433   49.4771   17.0526 H   0  0  0  0  0  0
    1.8934   48.9768   16.3939 H   0  0  0  0  0  0
    1.3225   50.3843   18.9503 H   0  0  0  0  0  0
    2.8636   49.6262   18.4813 H   0  0  0  0  0  0
    6.6526   54.7073   29.1462 H   0  0  0  0  0  0
    1.1228   51.4855   28.1389 H   0  0  0  0  0  0
   -0.4152   51.1536   30.0403 H   0  0  0  0  0  0
   -0.7376   52.9410   31.6815 H   0  0  0  0  0  0
    0.2901   55.1625   31.3400 H   0  0  0  0  0  0
    3.5467   51.5072   17.4030 H   0  0  0  0  0  0
  1  2  1  0  0  0
  1 38  1  0  0  0
  1 39  1  0  0  0
  1 40  1  0  0  0
  2 10  1  0  0  0
  2  3  1  0  0  0
  3  8  2  0  0  0
  3  4  1  0  0  0
  4  5  2  0  0  0
  4 41  1  0  0  0
  5  6  1  0  0  0
  5 31  1  0  0  0
  6 29  1  0  0  0
  6  7  2  0  0  0
  7  8  1  0  0  0
  7 26  1  0  0  0
  8  9  1  0  0  0
  9 14  2  0  0  0
  9 10  1  0  0  0
 10 11  2  0  0  0
 11 12  1  0  0  0
 11 42  1  0  0  0
 12 13  2  0  0  0
 12 16  1  0  0  0
 13 14  1  0  0  0
 13 15  1  0  0  0
 14 43  1  0  0  0
 15 44  1  0  0  0
 16 17  2  0  0  0
 16 18  1  0  0  0
 18 19  1  0  0  0
 18 45  1  0  0  0
 18 46  1  0  0  0
 19 20  1  0  0  0
 19 47  1  0  0  0
 19 48  1  0  0  0
 20 21  1  0  0  0
 20 49  1  0  0  0
 20 50  1  0  0  0
 21 25  1  0  0  0
 21 22  1  0  0  0
 21 64  1  0  0  0
 22 23  1  0  0  0
 22 51  1  0  0  0
 22 52  1  0  0  0
 23 24  1  0  0  0
 23 53  1  0  0  0
 23 54  1  0  0  0
 24 25  1  0  0  0
 24 55  1  0  0  0
 24 56  1  0  0  0
 25 57  1  0  0  0
 25 58  1  0  0  0
 26 27  2  0  0  0
 26 28  1  0  0  0
 28 29  1  0  0  0
 28 59  1  0  0  0
 29 30  2  0  0  0
 31 36  2  0  0  0
 31 32  1  0  0  0
 32 33  2  0  0  0
 32 60  1  0  0  0
 33 34  1  0  0  0
 33 61  1  0  0  0
 34 35  2  0  0  0
 34 62  1  0  0  0
 35 36  1  0  0  0
 35 63  1  0  0  0
 36 37  1  0  0  0
M  CHG  1  21   1
M  END
> <i_i_glide_confnum>
95

> <i_i_glide_lignum>
30

> <i_i_glide_posenum>
81

> <i_i_glide_rotatable_bonds>
7

> <i_m_Source_File_Index>
107

> <b_m_subgroup_collapsed>
0

> <r_i_docking_score>
-11.2069

> <r_i_glide_ecoul>
-15.1069

> <r_i_glide_eff_state_penalty>
0

> <r_i_glide_einternal>
7.91064

> <r_i_glide_emodel>
-114.397

> <r_i_glide_energy>
-65.8523

> <r_i_glide_erotb>
0.358053

> <r_i_glide_esite>
-0.0857837

> <r_i_glide_evdw>
-50.7454

> <r_i_glide_gscore>
-11.2069

> <r_i_glide_hbond>
-0.730049

> <r_i_glide_ligand_efficiency>
-0.30289

> <r_i_glide_ligand_efficiency_ln>
-2.43052

> <r_i_glide_ligand_efficiency_sa>
-1.0093

> <r_i_glide_lipo>
-3.73271

> <r_i_glide_metal>
0

> <r_i_glide_rewards>
-2.21313

> <s_i_glide_gridfile>
wee1_glide-grid

> <s_m_Source_File>
wee1_actives_glide_SP.sdf

> <s_m_Source_Path>
/Users/zhangxujun/Desktop

> <s_m_entry_id>
245

> <s_m_entry_name>
wee1_actives_glide_SP.107

> <s_m_subgroup_title>
wee1_actives_glide_SP

> <s_m_subgroupid>
wee1_actives_glide_SP


$$$$
