CHEMBL270021_36
                    3D
 Schrodinger Suite 2024-2.
 67 72  0  0  1  0            999 V2000
    0.0993   51.8694   29.4971 C   0  0  0  0  0  0
   -0.1686   52.8115   30.4815 C   0  0  0  0  0  0
    0.3946   54.0824   30.4085 C   0  0  0  0  0  0
    1.2522   54.4100   29.3581 C   0  0  0  0  0  0
    1.5883   53.4368   28.3935 C   0  0  0  0  0  0
    0.9872   52.1739   28.4723 C   0  0  0  0  0  0
    2.5445   53.6894   27.2833 C   0  0  0  0  0  0
    2.0848   53.5540   25.9692 C   0  0  0  0  0  0
    2.9785   53.7945   24.9145 C   0  0  0  0  0  0
    4.3350   54.1529   25.1392 C   0  0  0  0  0  0
    4.9452   54.3465   23.8732 C   0  0  0  0  0  0
    6.2349   54.7248   23.4456 C   0  0  0  0  0  0
    6.4848   54.8968   22.0824 C   0  0  0  0  0  0
    5.4944   54.6468   21.1238 C   0  0  0  0  0  0
    4.2157   54.2245   21.5250 C   0  0  0  0  0  0
    3.9520   54.0964   22.8926 C   0  0  0  0  0  0
    2.7765   53.7545   23.5470 N   0  0  0  0  0  0
    1.5200   53.3946   22.8938 C   0  0  0  0  0  0
    1.5794   51.9430   22.3943 C   0  0  0  0  0  0
    0.3859   51.6272   21.7091 O   0  0  0  0  0  0
    5.8392   54.8374   19.7929 O   0  0  0  0  0  0
    4.8534   54.7493   18.7627 C   0  0  0  0  0  0
    4.5260   53.2881   18.4003 C   0  0  0  0  0  0
    3.2818   53.1727   17.5030 C   0  0  0  0  0  0
    2.8457   51.6968   17.3829 N   0  3  0  0  0  0
    1.7816   51.4482   16.3022 C   0  0  0  0  0  0
    1.2235   50.0852   16.6915 C   0  0  0  0  0  0
    1.1594   50.1222   18.2157 C   0  0  0  0  0  0
    2.2706   51.0764   18.6754 C   0  0  0  0  0  0
    7.7391   55.2984   21.6821 O   0  0  0  0  0  0
    4.7638   54.2423   26.4763 C   0  0  0  0  0  0
    3.8885   54.0097   27.5075 C   0  0  0  0  0  0
    4.6587   54.1587   28.7771 C   0  0  0  0  0  0
    4.2682   54.0295   29.9349 O   0  0  0  0  0  0
    5.9041   54.4967   28.4033 N   0  0  0  0  0  0
    6.0738   54.5801   27.0742 C   0  0  0  0  0  0
    7.1044   54.8970   26.5029 O   0  0  0  0  0  0
    1.8477   56.0364   29.2808 Cl  0  0  0  0  0  0
   -0.3714   50.8975   29.5399 H   0  0  0  0  0  0
   -0.8467   52.5567   31.2815 H   0  0  0  0  0  0
    0.1527   54.8193   31.1604 H   0  0  0  0  0  0
    1.2102   51.4152   27.7352 H   0  0  0  0  0  0
    1.0555   53.2841   25.7875 H   0  0  0  0  0  0
    7.0266   54.9192   24.1482 H   0  0  0  0  0  0
    3.4306   54.0400   20.8103 H   0  0  0  0  0  0
    0.7124   53.5310   23.6123 H   0  0  0  0  0  0
    1.3942   54.0991   22.0811 H   0  0  0  0  0  0
    2.4411   51.7925   21.7422 H   0  0  0  0  0  0
    1.7457   51.2566   23.2260 H   0  0  0  0  0  0
    0.3088   52.1998   20.9434 H   0  0  0  0  0  0
    5.2510   55.2576   17.8832 H   0  0  0  0  0  0
    3.9575   55.3069   19.0414 H   0  0  0  0  0  0
    4.3969   52.6898   19.3001 H   0  0  0  0  0  0
    5.3860   52.8493   17.8919 H   0  0  0  0  0  0
    3.4892   53.5133   16.4869 H   0  0  0  0  0  0
    2.4183   53.7138   17.8962 H   0  0  0  0  0  0
    2.2650   51.4932   15.3246 H   0  0  0  0  0  0
    1.0478   52.2529   16.3840 H   0  0  0  0  0  0
    1.9038   49.2989   16.3547 H   0  0  0  0  0  0
    0.2491   49.8939   16.2395 H   0  0  0  0  0  0
    0.1896   50.4911   18.5518 H   0  0  0  0  0  0
    1.2913   49.1263   18.6409 H   0  0  0  0  0  0
    1.8750   51.8798   19.2972 H   0  0  0  0  0  0
    3.1050   50.5622   19.1571 H   0  0  0  0  0  0
    8.3910   55.3099   22.3952 H   0  0  0  0  0  0
    6.6377   54.7276   29.0597 H   0  0  0  0  0  0
    3.6554   51.1266   17.1332 H   0  0  0  0  0  0
  1  6  2  0  0  0
  1  2  1  0  0  0
  1 39  1  0  0  0
  2  3  2  0  0  0
  2 40  1  0  0  0
  3  4  1  0  0  0
  3 41  1  0  0  0
  4  5  2  0  0  0
  4 38  1  0  0  0
  5  6  1  0  0  0
  5  7  1  0  0  0
  6 42  1  0  0  0
  7 32  2  0  0  0
  7  8  1  0  0  0
  8  9  2  0  0  0
  8 43  1  0  0  0
  9 17  1  0  0  0
  9 10  1  0  0  0
 10 11  1  0  0  0
 10 31  2  0  0  0
 11 16  2  0  0  0
 11 12  1  0  0  0
 12 13  2  0  0  0
 12 44  1  0  0  0
 13 14  1  0  0  0
 13 30  1  0  0  0
 14 15  2  0  0  0
 14 21  1  0  0  0
 15 16  1  0  0  0
 15 45  1  0  0  0
 16 17  1  0  0  0
 17 18  1  0  0  0
 18 19  1  0  0  0
 18 46  1  0  0  0
 18 47  1  0  0  0
 19 20  1  0  0  0
 19 48  1  0  0  0
 19 49  1  0  0  0
 20 50  1  0  0  0
 21 22  1  0  0  0
 22 23  1  0  0  0
 22 51  1  0  0  0
 22 52  1  0  0  0
 23 24  1  0  0  0
 23 53  1  0  0  0
 23 54  1  0  0  0
 24 25  1  0  0  0
 24 55  1  0  0  0
 24 56  1  0  0  0
 25 29  1  0  0  0
 25 26  1  0  0  0
 25 67  1  0  0  0
 26 27  1  0  0  0
 26 57  1  0  0  0
 26 58  1  0  0  0
 27 28  1  0  0  0
 27 59  1  0  0  0
 27 60  1  0  0  0
 28 29  1  0  0  0
 28 61  1  0  0  0
 28 62  1  0  0  0
 29 63  1  0  0  0
 29 64  1  0  0  0
 30 65  1  0  0  0
 31 36  1  0  0  0
 31 32  1  0  0  0
 32 33  1  0  0  0
 33 34  2  0  0  0
 33 35  1  0  0  0
 35 36  1  0  0  0
 35 66  1  0  0  0
 36 37  2  0  0  0
M  CHG  1  25   1
M  END
> <i_i_glide_confnum>
57

> <i_i_glide_lignum>
37

> <i_i_glide_posenum>
155

> <i_i_glide_rotatable_bonds>
10

> <i_m_Source_File_Index>
41

> <b_m_subgroup_collapsed>
0

> <r_i_docking_score>
-11.7481

> <r_i_glide_ecoul>
-16.0761

> <r_i_glide_eff_state_penalty>
0

> <r_i_glide_einternal>
5.08906

> <r_i_glide_emodel>
-126.896

> <r_i_glide_energy>
-71.3679

> <r_i_glide_erotb>
0.353361

> <r_i_glide_esite>
-0.0931787

> <r_i_glide_evdw>
-55.2918

> <r_i_glide_gscore>
-11.7481

> <r_i_glide_hbond>
-0.917308

> <r_i_glide_ligand_efficiency>
-0.309161

> <r_i_glide_ligand_efficiency_ln>
-2.53324

> <r_i_glide_ligand_efficiency_sa>
-1.03939

> <r_i_glide_lipo>
-3.92442

> <r_i_glide_metal>
0

> <r_i_glide_rewards>
-1.99055

> <s_i_glide_gridfile>
wee1_glide-grid

> <s_m_Source_File>
wee1_actives_glide_SP.sdf

> <s_m_Source_Path>
/Users/zhangxujun/Desktop

> <s_m_entry_id>
179

> <s_m_entry_name>
wee1_actives_glide_SP.41

> <s_m_subgroup_title>
wee1_actives_glide_SP

> <s_m_subgroupid>
wee1_actives_glide_SP


$$$$
