CHEMBL181233_65
                    3D
 Schrodinger Suite 2024-2.
 42 45  0  0  1  0            999 V2000
    6.7863   54.2195   27.5437 C   0  0  0  0  0  0
    5.3723   54.1840   27.1125 N   0  0  0  0  0  0
    5.1121   54.2791   25.7127 C   0  0  0  0  0  0
    3.7884   54.1767   25.2643 C   0  0  0  0  0  0
    2.7275   54.0792   26.2675 C   0  0  0  0  0  0
    3.0209   54.0006   27.5846 C   0  0  0  0  0  0
    4.4080   54.0138   28.0795 C   0  0  0  0  0  0
    4.6600   53.8903   29.2817 O   0  0  0  0  0  0
    1.9213   53.8562   28.5756 C   0  0  0  0  0  0
    1.5982   54.9138   29.4510 C   0  0  0  0  0  0
    0.6835   54.7171   30.4818 C   0  0  0  0  0  0
   -0.0030   53.5108   30.5897 C   0  0  0  0  0  0
    0.1944   52.5140   29.6454 C   0  0  0  0  0  0
    1.1915   52.6529   28.6751 C   0  0  0  0  0  0
    1.5045   51.3138   27.6206 Cl  0  0  0  0  0  0
   -0.6265   51.4199   29.6818 O   0  0  0  0  0  0
    2.3043   56.4848   29.2983 Cl  0  0  0  0  0  0
    3.5733   54.1391   23.8887 C   0  0  0  0  0  0
    4.5905   54.2938   23.0068 N   0  0  0  0  0  0
    5.8340   54.5001   23.5188 C   0  0  0  0  0  0
    6.1454   54.4604   24.8390 N   0  0  0  0  0  0
    6.8848   54.8972   22.6812 N   0  0  0  0  0  0
    6.9792   55.2970   21.3331 C   0  0  0  0  0  0
    8.2396   55.6966   20.8815 C   0  0  0  0  0  0
    8.4305   56.0936   19.5610 C   0  0  0  0  0  0
    7.3520   56.0971   18.6826 C   0  0  0  0  0  0
    6.0888   55.7025   19.1150 C   0  0  0  0  0  0
    5.9040   55.3009   20.4361 C   0  0  0  0  0  0
    7.3565   53.4392   27.0356 H   0  0  0  0  0  0
    7.2291   55.1824   27.2879 H   0  0  0  0  0  0
    6.9320   54.0778   28.6167 H   0  0  0  0  0  0
    1.6951   54.0511   25.9487 H   0  0  0  0  0  0
    0.4883   55.5100   31.1876 H   0  0  0  0  0  0
   -0.7116   53.3394   31.3878 H   0  0  0  0  0  0
   -0.4726   50.7707   28.9882 H   0  0  0  0  0  0
    2.5836   54.0201   23.4709 H   0  0  0  0  0  0
    7.7504   55.0043   23.1952 H   0  0  0  0  0  0
    9.0867   55.6968   21.5527 H   0  0  0  0  0  0
    9.4142   56.3906   19.2254 H   0  0  0  0  0  0
    7.4944   56.4037   17.6566 H   0  0  0  0  0  0
    5.2552   55.7034   18.4296 H   0  0  0  0  0  0
    4.9134   54.9957   20.7265 H   0  0  0  0  0  0
  1  2  1  0  0  0
  1 29  1  0  0  0
  1 30  1  0  0  0
  1 31  1  0  0  0
  2  7  1  0  0  0
  2  3  1  0  0  0
  3 21  2  0  0  0
  3  4  1  0  0  0
  4  5  1  0  0  0
  4 18  2  0  0  0
  5  6  2  0  0  0
  5 32  1  0  0  0
  6  7  1  0  0  0
  6  9  1  0  0  0
  7  8  2  0  0  0
  9 14  2  0  0  0
  9 10  1  0  0  0
 10 11  2  0  0  0
 10 17  1  0  0  0
 11 12  1  0  0  0
 11 33  1  0  0  0
 12 13  2  0  0  0
 12 34  1  0  0  0
 13 14  1  0  0  0
 13 16  1  0  0  0
 14 15  1  0  0  0
 16 35  1  0  0  0
 18 19  1  0  0  0
 18 36  1  0  0  0
 19 20  2  0  0  0
 20 21  1  0  0  0
 20 22  1  0  0  0
 22 23  1  0  0  0
 22 37  1  0  0  0
 23 28  2  0  0  0
 23 24  1  0  0  0
 24 25  2  0  0  0
 24 38  1  0  0  0
 25 26  1  0  0  0
 25 39  1  0  0  0
 26 27  2  0  0  0
 26 40  1  0  0  0
 27 28  1  0  0  0
 27 41  1  0  0  0
 28 42  1  0  0  0
M  END
> <i_i_glide_confnum>
14

> <i_i_glide_lignum>
66

> <i_i_glide_posenum>
232

> <i_i_glide_rotatable_bonds>
4

> <i_m_Source_File_Index>
114

> <b_m_subgroup_collapsed>
0

> <r_i_docking_score>
-8.28492

> <r_i_glide_ecoul>
-4.84146

> <r_i_glide_eff_state_penalty>
0

> <r_i_glide_einternal>
3.35884

> <r_i_glide_emodel>
-77.191

> <r_i_glide_energy>
-53.1195

> <r_i_glide_erotb>
0.346524

> <r_i_glide_esite>
0

> <r_i_glide_evdw>
-48.2781

> <r_i_glide_gscore>
-8.28492

> <r_i_glide_hbond>
-0.32

> <r_i_glide_ligand_efficiency>
-0.29589

> <r_i_glide_ligand_efficiency_ln>
-1.9124

> <r_i_glide_ligand_efficiency_sa>
-0.898496

> <r_i_glide_lipo>
-3.38414

> <r_i_glide_metal>
0

> <r_i_glide_rewards>
-1.78718

> <s_i_glide_gridfile>
wee1_glide-grid

> <s_m_Source_File>
wee1_actives_glide_SP.sdf

> <s_m_Source_Path>
/Users/zhangxujun/Desktop

> <s_m_entry_id>
252

> <s_m_entry_name>
wee1_actives_glide_SP.114

> <s_m_subgroup_title>
wee1_actives_glide_SP

> <s_m_subgroupid>
wee1_actives_glide_SP


$$$$
