CHEMBL521051_20
                    3D
 Schrodinger Suite 2024-2.
 56 61  0  0  1  0            999 V2000
   -0.1484   52.7736   30.4725 C   0  0  0  0  0  0
    0.0278   51.8331   29.4645 C   0  0  0  0  0  0
    0.9173   52.0960   28.4306 C   0  0  0  0  0  0
    1.6094   53.3113   28.3870 C   0  0  0  0  0  0
    1.3729   54.2725   29.3771 C   0  0  0  0  0  0
    0.5064   53.9996   30.4305 C   0  0  0  0  0  0
    2.5695   53.5735   27.2830 C   0  0  0  0  0  0
    2.1164   53.4382   25.9655 C   0  0  0  0  0  0
    3.0018   53.7244   24.9159 C   0  0  0  0  0  0
    4.3514   54.0994   25.1449 C   0  0  0  0  0  0
    4.9590   54.3139   23.8812 C   0  0  0  0  0  0
    6.2483   54.7096   23.4632 C   0  0  0  0  0  0
    6.4974   54.8965   22.1046 C   0  0  0  0  0  0
    5.5096   54.6373   21.1603 C   0  0  0  0  0  0
    4.2375   54.2011   21.5240 C   0  0  0  0  0  0
    3.9658   54.0704   22.8933 C   0  0  0  0  0  0
    2.7911   53.7341   23.5496 N   0  0  0  0  0  0
    1.5202   53.4327   22.9070 C   0  0  0  0  0  0
    1.4610   51.9543   22.4570 C   0  0  0  0  0  0
    0.2783   51.6086   21.6597 N   0  0  0  0  0  0
    0.2803   52.2123   20.3197 C   0  0  0  0  0  0
   -0.9751   51.8286   19.5071 C   0  0  0  0  0  0
   -2.1656   52.0962   20.2478 O   0  0  0  0  0  0
   -2.2016   51.3952   21.4904 C   0  0  0  0  0  0
   -0.9954   51.7830   22.3709 C   0  0  0  0  0  0
    7.7346   55.3133   21.6816 O   0  0  0  0  0  0
    4.7767   54.1922   26.4822 C   0  0  0  0  0  0
    3.9026   53.9434   27.5135 C   0  0  0  0  0  0
    4.6634   54.1496   28.7832 C   0  0  0  0  0  0
    4.2813   54.0534   29.9459 O   0  0  0  0  0  0
    5.9042   54.4965   28.4074 N   0  0  0  0  0  0
    6.0771   54.5630   27.0798 C   0  0  0  0  0  0
    7.1044   54.8969   26.5101 O   0  0  0  0  0  0
   -0.8262   52.5494   31.2816 H   0  0  0  0  0  0
   -0.5104   50.8967   29.4966 H   0  0  0  0  0  0
    1.0724   51.3468   27.6674 H   0  0  0  0  0  0
    1.8808   55.2257   29.3437 H   0  0  0  0  0  0
    0.3425   54.7311   31.2081 H   0  0  0  0  0  0
    1.0933   53.1514   25.7729 H   0  0  0  0  0  0
    7.0384   54.9037   24.1659 H   0  0  0  0  0  0
    5.7362   54.7722   20.1124 H   0  0  0  0  0  0
    3.4867   54.0136   20.7692 H   0  0  0  0  0  0
    1.4124   54.1240   22.0816 H   0  0  0  0  0  0
    0.7117   53.6762   23.5945 H   0  0  0  0  0  0
    1.4820   51.3018   23.3318 H   0  0  0  0  0  0
    2.3496   51.6986   21.8773 H   0  0  0  0  0  0
    1.1795   51.9027   19.7861 H   0  0  0  0  0  0
    0.3395   53.2960   20.3919 H   0  0  0  0  0  0
   -1.0031   52.3815   18.5678 H   0  0  0  0  0  0
   -0.9267   50.7682   19.2509 H   0  0  0  0  0  0
   -3.1346   51.6149   22.0093 H   0  0  0  0  0  0
   -2.1866   50.3183   21.3108 H   0  0  0  0  0  0
   -1.1146   52.8142   22.7004 H   0  0  0  0  0  0
   -0.9854   51.1776   23.2785 H   0  0  0  0  0  0
    8.3981   55.3274   22.3851 H   0  0  0  0  0  0
    6.6313   54.7511   29.0628 H   0  0  0  0  0  0
  1  6  2  0  0  0
  1  2  1  0  0  0
  1 34  1  0  0  0
  2  3  2  0  0  0
  2 35  1  0  0  0
  3  4  1  0  0  0
  3 36  1  0  0  0
  4  5  2  0  0  0
  4  7  1  0  0  0
  5  6  1  0  0  0
  5 37  1  0  0  0
  6 38  1  0  0  0
  7 28  2  0  0  0
  7  8  1  0  0  0
  8  9  2  0  0  0
  8 39  1  0  0  0
  9 17  1  0  0  0
  9 10  1  0  0  0
 10 11  1  0  0  0
 10 27  2  0  0  0
 11 16  2  0  0  0
 11 12  1  0  0  0
 12 13  2  0  0  0
 12 40  1  0  0  0
 13 14  1  0  0  0
 13 26  1  0  0  0
 14 15  2  0  0  0
 14 41  1  0  0  0
 15 16  1  0  0  0
 15 42  1  0  0  0
 16 17  1  0  0  0
 17 18  1  0  0  0
 18 19  1  0  0  0
 18 43  1  0  0  0
 18 44  1  0  0  0
 19 20  1  0  0  0
 19 45  1  0  0  0
 19 46  1  0  0  0
 20 25  1  0  0  0
 20 21  1  0  0  0
 21 22  1  0  0  0
 21 47  1  0  0  0
 21 48  1  0  0  0
 22 23  1  0  0  0
 22 49  1  0  0  0
 22 50  1  0  0  0
 23 24  1  0  0  0
 24 25  1  0  0  0
 24 51  1  0  0  0
 24 52  1  0  0  0
 25 53  1  0  0  0
 25 54  1  0  0  0
 26 55  1  0  0  0
 27 32  1  0  0  0
 27 28  1  0  0  0
 28 29  1  0  0  0
 29 30  2  0  0  0
 29 31  1  0  0  0
 31 32  1  0  0  0
 31 56  1  0  0  0
 32 33  2  0  0  0
M  END
> <i_i_glide_confnum>
142

> <i_i_glide_lignum>
21

> <i_i_glide_posenum>
59

> <i_i_glide_rotatable_bonds>
5

> <i_m_Source_File_Index>
115

> <b_m_subgroup_collapsed>
0

> <r_i_docking_score>
-12.113

> <r_i_glide_ecoul>
-16.448

> <r_i_glide_eff_state_penalty>
0

> <r_i_glide_einternal>
5.3918

> <r_i_glide_emodel>
-109.414

> <r_i_glide_energy>
-65.019

> <r_i_glide_erotb>
0.409954

> <r_i_glide_esite>
0

> <r_i_glide_evdw>
-48.571

> <r_i_glide_gscore>
-12.113

> <r_i_glide_hbond>
-1.35973

> <r_i_glide_ligand_efficiency>
-0.367059

> <r_i_glide_ligand_efficiency_ln>
-2.69386

> <r_i_glide_ligand_efficiency_sa>
-1.17736

> <r_i_glide_lipo>
-3.5922

> <r_i_glide_metal>
0

> <r_i_glide_rewards>
-2.67523

> <s_i_glide_gridfile>
wee1_glide-grid

> <s_m_Source_File>
wee1_actives_glide_SP.sdf

> <s_m_Source_Path>
/Users/zhangxujun/Desktop

> <s_m_entry_id>
253

> <s_m_entry_name>
wee1_actives_glide_SP.115

> <s_m_subgroup_title>
wee1_actives_glide_SP

> <s_m_subgroupid>
wee1_actives_glide_SP


$$$$
