CHEMBL209907_88
                    3D
 Schrodinger Suite 2024-2.
 27 30  0  0  1  0            999 V2000
    5.3261   54.5001   21.1757 C   0  0  0  0  0  0
    4.0558   54.0614   21.5448 C   0  0  0  0  0  0
    3.7832   53.9729   22.9116 C   0  0  0  0  0  0
    4.7543   54.2813   23.9065 C   0  0  0  0  0  0
    6.0325   54.7052   23.4883 C   0  0  0  0  0  0
    6.2901   54.8368   22.1215 C   0  0  0  0  0  0
    7.5043   55.2999   21.6924 O   0  0  0  0  0  0
    4.1433   54.0718   25.1684 C   0  0  0  0  0  0
    2.8065   53.6341   24.9217 C   0  0  0  0  0  0
    2.6248   53.5982   23.5575 N   0  0  0  0  0  0
    1.7727   53.3203   23.0932 H   0  0  0  0  0  0
    1.9191   53.3009   25.9579 C   0  0  0  0  0  0
    2.3731   53.4522   27.2698 C   0  0  0  0  0  0
    3.6722   53.8811   27.5212 C   0  0  0  0  0  0
    4.5575   54.1747   26.5134 C   0  0  0  0  0  0
    5.8443   54.5598   27.1548 C   0  0  0  0  0  0
    6.9026   54.8946   26.6275 O   0  0  0  0  0  0
    5.6114   54.4942   28.4811 N   0  0  0  0  0  0
    4.3613   54.1148   28.8149 C   0  0  0  0  0  0
    3.9041   54.0070   29.9523 O   0  0  0  0  0  0
    5.5525   54.5954   20.1227 H   0  0  0  0  0  0
    3.3143   53.8188   20.7970 H   0  0  0  0  0  0
    6.8068   54.9576   24.1941 H   0  0  0  0  0  0
    7.5988   55.2944   20.7374 H   0  0  0  0  0  0
    0.9142   52.9579   25.7580 H   0  0  0  0  0  0
    1.7039   53.2206   28.0877 H   0  0  0  0  0  0
    6.3140   54.7476   29.1611 H   0  0  0  0  0  0
  1  6  2  0  0  0
  1  2  1  0  0  0
  1 21  1  0  0  0
  2  3  2  0  0  0
  2 22  1  0  0  0
  3 10  1  0  0  0
  3  4  1  0  0  0
  4  5  2  0  0  0
  4  8  1  0  0  0
  5  6  1  0  0  0
  5 23  1  0  0  0
  6  7  1  0  0  0
  7 24  1  0  0  0
  8 15  2  0  0  0
  8  9  1  0  0  0
  9 10  1  0  0  0
  9 12  2  0  0  0
 10 11  1  0  0  0
 12 13  1  0  0  0
 12 25  1  0  0  0
 13 14  2  0  0  0
 13 26  1  0  0  0
 14 19  1  0  0  0
 14 15  1  0  0  0
 15 16  1  0  0  0
 16 17  2  0  0  0
 16 18  1  0  0  0
 18 19  1  0  0  0
 18 27  1  0  0  0
 19 20  2  0  0  0
M  END
> <i_i_glide_confnum>
1

> <i_i_glide_lignum>
89

> <i_i_glide_posenum>
398

> <i_i_glide_rotatable_bonds>
1

> <i_m_Source_File_Index>
124

> <b_m_subgroup_collapsed>
0

> <r_i_docking_score>
-9.231

> <r_i_glide_ecoul>
-7.0943

> <r_i_glide_eff_state_penalty>
0

> <r_i_glide_einternal>
1.30277

> <r_i_glide_emodel>
-65.1387

> <r_i_glide_energy>
-40.6904

> <r_i_glide_erotb>
0

> <r_i_glide_esite>
0

> <r_i_glide_evdw>
-33.5961

> <r_i_glide_gscore>
-9.231

> <r_i_glide_hbond>
-0.736053

> <r_i_glide_ligand_efficiency>
-0.485842

> <r_i_glide_ligand_efficiency_ln>
-2.34026

> <r_i_glide_ligand_efficiency_sa>
-1.29642

> <r_i_glide_lipo>
-2.38738

> <r_i_glide_metal>
0

> <r_i_glide_rewards>
-3.36362

> <s_i_glide_gridfile>
wee1_glide-grid

> <s_m_Source_File>
wee1_actives_glide_SP.sdf

> <s_m_Source_Path>
/Users/zhangxujun/Desktop

> <s_m_entry_id>
262

> <s_m_entry_name>
wee1_actives_glide_SP.124

> <s_m_subgroup_title>
wee1_actives_glide_SP

> <s_m_subgroupid>
wee1_actives_glide_SP


$$$$
