CHEMBL272351_68
                    3D
 Schrodinger Suite 2024-2.
 63 68  0  0  1  0            999 V2000
    1.6401   53.3594   22.6653 C   0  0  0  0  0  0
    2.8731   53.7291   23.3387 N   0  0  0  0  0  0
    3.0191   53.7952   24.7157 C   0  0  0  0  0  0
    2.0887   53.5620   25.7424 C   0  0  0  0  0  0
    2.5094   53.6925   27.0741 C   0  0  0  0  0  0
    3.8494   54.0083   27.3398 C   0  0  0  0  0  0
    4.7554   54.2497   26.3373 C   0  0  0  0  0  0
    4.3651   54.1583   24.9880 C   0  0  0  0  0  0
    5.0151   54.3512   23.7438 C   0  0  0  0  0  0
    4.0600   54.0964   22.7204 C   0  0  0  0  0  0
    4.3847   54.2315   21.3612 C   0  0  0  0  0  0
    5.6744   54.6587   21.0362 C   0  0  0  0  0  0
    6.6327   54.8968   22.0266 C   0  0  0  0  0  0
    6.3189   54.7313   23.3743 C   0  0  0  0  0  0
    7.9041   55.2971   21.6817 O   0  0  0  0  0  0
    6.0219   54.7976   19.7132 O   0  0  0  0  0  0
    5.4759   55.9398   19.0633 C   0  0  0  0  0  0
    5.9930   56.0117   17.6176 C   0  0  0  0  0  0
    7.5283   56.0551   17.4669 C   0  0  0  0  0  0
    8.1781   57.2029   18.1132 N   0  0  0  0  0  0
    9.6366   57.0315   18.0406 C   0  0  0  0  0  0
   10.4153   58.2407   18.6013 C   0  0  0  0  0  0
    9.9675   59.4713   18.0352 O   0  0  0  0  0  0
    8.5621   59.6732   18.1488 C   0  0  0  0  0  0
    7.7678   58.4950   17.5423 C   0  0  0  0  0  0
    6.0479   54.5861   26.9797 C   0  0  0  0  0  0
    7.1044   54.8982   26.4518 O   0  0  0  0  0  0
    5.8382   54.4963   28.2994 N   0  0  0  0  0  0
    4.5904   54.1325   28.6323 C   0  0  0  0  0  0
    4.1820   53.9619   29.7796 O   0  0  0  0  0  0
    1.5335   53.4417   28.1702 C   0  0  0  0  0  0
    0.9212   52.1846   28.2406 C   0  0  0  0  0  0
    0.0570   51.8671   29.2833 C   0  0  0  0  0  0
   -0.1813   52.7917   30.2943 C   0  0  0  0  0  0
    0.3830   54.0617   30.2231 C   0  0  0  0  0  0
    1.2169   54.4019   29.1566 C   0  0  0  0  0  0
    1.8192   56.0262   29.0964 Cl  0  0  0  0  0  0
    1.3060   52.3885   23.0310 H   0  0  0  0  0  0
    0.8822   54.1084   22.8832 H   0  0  0  0  0  0
    1.7827   53.2962   21.5880 H   0  0  0  0  0  0
    1.0667   53.2927   25.5179 H   0  0  0  0  0  0
    3.6671   54.0401   20.5766 H   0  0  0  0  0  0
    7.0792   54.9268   24.1084 H   0  0  0  0  0  0
    8.5212   55.2989   22.4266 H   0  0  0  0  0  0
    5.7348   56.8537   19.6028 H   0  0  0  0  0  0
    4.3880   55.8698   19.0394 H   0  0  0  0  0  0
    5.5298   56.8429   17.0855 H   0  0  0  0  0  0
    5.6350   55.1250   17.0923 H   0  0  0  0  0  0
    7.7936   56.0201   16.4085 H   0  0  0  0  0  0
    7.9288   55.1421   17.9148 H   0  0  0  0  0  0
    9.9401   56.8647   17.0050 H   0  0  0  0  0  0
    9.9140   56.1261   18.5831 H   0  0  0  0  0  0
   10.3048   58.2677   19.6817 H   0  0  0  0  0  0
   11.4813   58.1239   18.3999 H   0  0  0  0  0  0
    8.2829   59.7873   19.1979 H   0  0  0  0  0  0
    8.3049   60.6024   17.6404 H   0  0  0  0  0  0
    6.7015   58.6581   17.7007 H   0  0  0  0  0  0
    7.9112   58.4805   16.4608 H   0  0  0  0  0  0
    6.5535   54.7192   28.9789 H   0  0  0  0  0  0
    1.1257   51.4338   27.4908 H   0  0  0  0  0  0
   -0.4154   50.8965   29.3213 H   0  0  0  0  0  0
   -0.8275   52.5275   31.1208 H   0  0  0  0  0  0
    0.1669   54.7864   30.9952 H   0  0  0  0  0  0
  1  2  1  0  0  0
  1 38  1  0  0  0
  1 39  1  0  0  0
  1 40  1  0  0  0
  2 10  1  0  0  0
  2  3  1  0  0  0
  3  8  2  0  0  0
  3  4  1  0  0  0
  4  5  2  0  0  0
  4 41  1  0  0  0
  5  6  1  0  0  0
  5 31  1  0  0  0
  6 29  1  0  0  0
  6  7  2  0  0  0
  7  8  1  0  0  0
  7 26  1  0  0  0
  8  9  1  0  0  0
  9 14  2  0  0  0
  9 10  1  0  0  0
 10 11  2  0  0  0
 11 12  1  0  0  0
 11 42  1  0  0  0
 12 13  2  0  0  0
 12 16  1  0  0  0
 13 14  1  0  0  0
 13 15  1  0  0  0
 14 43  1  0  0  0
 15 44  1  0  0  0
 16 17  1  0  0  0
 17 18  1  0  0  0
 17 45  1  0  0  0
 17 46  1  0  0  0
 18 19  1  0  0  0
 18 47  1  0  0  0
 18 48  1  0  0  0
 19 20  1  0  0  0
 19 49  1  0  0  0
 19 50  1  0  0  0
 20 25  1  0  0  0
 20 21  1  0  0  0
 21 22  1  0  0  0
 21 51  1  0  0  0
 21 52  1  0  0  0
 22 23  1  0  0  0
 22 53  1  0  0  0
 22 54  1  0  0  0
 23 24  1  0  0  0
 24 25  1  0  0  0
 24 55  1  0  0  0
 24 56  1  0  0  0
 25 57  1  0  0  0
 25 58  1  0  0  0
 26 27  2  0  0  0
 26 28  1  0  0  0
 28 29  1  0  0  0
 28 59  1  0  0  0
 29 30  2  0  0  0
 31 36  2  0  0  0
 31 32  1  0  0  0
 32 33  2  0  0  0
 32 60  1  0  0  0
 33 34  1  0  0  0
 33 61  1  0  0  0
 34 35  2  0  0  0
 34 62  1  0  0  0
 35 36  1  0  0  0
 35 63  1  0  0  0
 36 37  1  0  0  0
M  END
> <i_i_glide_confnum>
430

> <i_i_glide_lignum>
69

> <i_i_glide_posenum>
198

> <i_i_glide_rotatable_bonds>
7

> <i_m_Source_File_Index>
10

> <b_m_subgroup_collapsed>
0

> <r_i_docking_score>
-11.2323

> <r_i_glide_ecoul>
-15.5504

> <r_i_glide_eff_state_penalty>
0

> <r_i_glide_einternal>
5.82866

> <r_i_glide_emodel>
-116.833

> <r_i_glide_energy>
-71.1805

> <r_i_glide_erotb>
0.265997

> <r_i_glide_esite>
0

> <r_i_glide_evdw>
-55.6301

> <r_i_glide_gscore>
-11.2323

> <r_i_glide_hbond>
-0.56534

> <r_i_glide_ligand_efficiency>
-0.303574

> <r_i_glide_ligand_efficiency_ln>
-2.43601

> <r_i_glide_ligand_efficiency_sa>
-1.01158

> <r_i_glide_lipo>
-3.82655

> <r_i_glide_metal>
0

> <r_i_glide_rewards>
-1.9923

> <s_i_glide_gridfile>
wee1_glide-grid

> <s_m_Source_File>
wee1_actives_glide_SP.sdf

> <s_m_Source_Path>
/Users/zhangxujun/Desktop

> <s_m_entry_id>
148

> <s_m_entry_name>
wee1_actives_glide_SP.10

> <s_m_subgroup_title>
wee1_actives_glide_SP

> <s_m_subgroupid>
wee1_actives_glide_SP


$$$$
