CHEMBL403679_23
                    3D
 Schrodinger Suite 2024-2.
 63 68  0  0  1  0            999 V2000
    0.1105   51.8410   29.2818 C   0  0  0  0  0  0
   -0.1882   52.8030   30.2403 C   0  0  0  0  0  0
    0.3074   54.0966   30.1044 C   0  0  0  0  0  0
    1.1401   54.4212   29.0308 C   0  0  0  0  0  0
    1.5189   53.4276   28.1044 C   0  0  0  0  0  0
    0.9700   52.1453   28.2311 C   0  0  0  0  0  0
    2.4979   53.6783   27.0121 C   0  0  0  0  0  0
    2.0821   53.5473   25.6780 C   0  0  0  0  0  0
    3.0175   53.7922   24.6629 C   0  0  0  0  0  0
    4.3654   54.1476   24.9446 C   0  0  0  0  0  0
    5.0192   54.3383   23.7036 C   0  0  0  0  0  0
    6.3222   54.7150   23.3400 C   0  0  0  0  0  0
    6.6339   54.8977   21.9960 C   0  0  0  0  0  0
    5.6791   54.6671   20.9929 C   0  0  0  0  0  0
    4.3865   54.2344   21.3201 C   0  0  0  0  0  0
    4.0709   54.0966   22.6767 C   0  0  0  0  0  0
    2.8822   53.7564   23.2888 N   0  0  0  0  0  0
    2.0291   53.5346   22.7955 H   0  0  0  0  0  0
    6.0260   54.8853   19.5187 C   0  0  0  0  0  0
    5.4998   56.2296   18.9768 C   0  0  0  0  0  0
    6.1319   56.6408   17.6327 C   0  0  0  0  0  0
    5.4848   57.8914   16.9982 C   0  0  0  0  0  0
    4.0345   57.5968   16.5316 N   0  3  0  0  0  0
    4.0062   56.7023   15.2652 C   0  0  0  0  0  0
    2.5538   56.5319   14.7812 C   0  0  0  0  0  0
    1.9339   57.7962   14.5715 O   0  0  0  0  0  0
    1.8642   58.6229   15.7292 C   0  0  0  0  0  0
    3.2646   58.9210   16.3052 C   0  0  0  0  0  0
    7.9041   55.3202   21.6817 O   0  0  0  0  0  0
    4.7500   54.2403   26.2953 C   0  0  0  0  0  0
    3.8340   54.0017   27.2898 C   0  0  0  0  0  0
    4.5582   54.1477   28.5889 C   0  0  0  0  0  0
    4.1316   54.0032   29.7322 O   0  0  0  0  0  0
    5.8160   54.4946   28.2666 N   0  0  0  0  0  0
    6.0409   54.5798   26.9472 C   0  0  0  0  0  0
    7.1044   54.8961   26.4309 O   0  0  0  0  0  0
    1.6665   56.0654   28.8816 Cl  0  0  0  0  0  0
   -0.3181   50.8551   29.3625 H   0  0  0  0  0  0
   -0.8288   52.5471   31.0734 H   0  0  0  0  0  0
    0.0407   54.8503   30.8310 H   0  0  0  0  0  0
    1.2249   51.3693   27.5237 H   0  0  0  0  0  0
    1.0617   53.2788   25.4487 H   0  0  0  0  0  0
    7.0795   54.9043   24.0808 H   0  0  0  0  0  0
    3.6482   54.0571   20.5503 H   0  0  0  0  0  0
    5.6209   54.0621   18.9276 H   0  0  0  0  0  0
    7.1056   54.8264   19.3790 H   0  0  0  0  0  0
    5.6999   57.0177   19.7053 H   0  0  0  0  0  0
    4.4147   56.1690   18.8812 H   0  0  0  0  0  0
    6.1149   55.8034   16.9364 H   0  0  0  0  0  0
    7.1911   56.8486   17.7951 H   0  0  0  0  0  0
    6.0243   58.2460   16.1173 H   0  0  0  0  0  0
    5.4337   58.7152   17.7150 H   0  0  0  0  0  0
    4.4184   55.7296   15.5369 H   0  0  0  0  0  0
    4.6359   57.1742   14.5076 H   0  0  0  0  0  0
    2.5252   55.9651   13.8496 H   0  0  0  0  0  0
    1.9854   55.9582   15.5165 H   0  0  0  0  0  0
    1.3553   59.5548   15.4778 H   0  0  0  0  0  0
    1.2533   58.1230   16.4817 H   0  0  0  0  0  0
    3.8589   59.5469   15.6350 H   0  0  0  0  0  0
    3.1765   59.4124   17.2798 H   0  0  0  0  0  0
    8.5145   55.2990   22.4330 H   0  0  0  0  0  0
    6.5252   54.7148   28.9527 H   0  0  0  0  0  0
    3.5415   57.1021   17.2625 H   0  0  0  0  0  0
  1  6  2  0  0  0
  1  2  1  0  0  0
  1 38  1  0  0  0
  2  3  2  0  0  0
  2 39  1  0  0  0
  3  4  1  0  0  0
  3 40  1  0  0  0
  4  5  2  0  0  0
  4 37  1  0  0  0
  5  6  1  0  0  0
  5  7  1  0  0  0
  6 41  1  0  0  0
  7 31  2  0  0  0
  7  8  1  0  0  0
  8  9  2  0  0  0
  8 42  1  0  0  0
  9 17  1  0  0  0
  9 10  1  0  0  0
 10 11  1  0  0  0
 10 30  2  0  0  0
 11 16  2  0  0  0
 11 12  1  0  0  0
 12 13  2  0  0  0
 12 43  1  0  0  0
 13 14  1  0  0  0
 13 29  1  0  0  0
 14 15  2  0  0  0
 14 19  1  0  0  0
 15 16  1  0  0  0
 15 44  1  0  0  0
 16 17  1  0  0  0
 17 18  1  0  0  0
 19 20  1  0  0  0
 19 45  1  0  0  0
 19 46  1  0  0  0
 20 21  1  0  0  0
 20 47  1  0  0  0
 20 48  1  0  0  0
 21 22  1  0  0  0
 21 49  1  0  0  0
 21 50  1  0  0  0
 22 23  1  0  0  0
 22 51  1  0  0  0
 22 52  1  0  0  0
 23 28  1  0  0  0
 23 24  1  0  0  0
 23 63  1  0  0  0
 24 25  1  0  0  0
 24 53  1  0  0  0
 24 54  1  0  0  0
 25 26  1  0  0  0
 25 55  1  0  0  0
 25 56  1  0  0  0
 26 27  1  0  0  0
 27 28  1  0  0  0
 27 57  1  0  0  0
 27 58  1  0  0  0
 28 59  1  0  0  0
 28 60  1  0  0  0
 29 61  1  0  0  0
 30 35  1  0  0  0
 30 31  1  0  0  0
 31 32  1  0  0  0
 32 33  2  0  0  0
 32 34  1  0  0  0
 34 35  1  0  0  0
 34 62  1  0  0  0
 35 36  2  0  0  0
M  CHG  1  23   1
M  END
> <i_i_glide_confnum>
148

> <i_i_glide_lignum>
24

> <i_i_glide_posenum>
375

> <i_i_glide_rotatable_bonds>
7

> <i_m_Source_File_Index>
47

> <b_m_subgroup_collapsed>
0

> <r_i_docking_score>
-11.2085

> <r_i_glide_ecoul>
-17.2373

> <r_i_glide_eff_state_penalty>
0

> <r_i_glide_einternal>
3.06588

> <r_i_glide_emodel>
-120.153

> <r_i_glide_energy>
-69.0293

> <r_i_glide_erotb>
0.28068

> <r_i_glide_esite>
-0.0182675

> <r_i_glide_evdw>
-51.792

> <r_i_glide_gscore>
-11.2085

> <r_i_glide_hbond>
-0.836123

> <r_i_glide_ligand_efficiency>
-0.311347

> <r_i_glide_ligand_efficiency_ln>
-2.44539

> <r_i_glide_ligand_efficiency_sa>
-1.02804

> <r_i_glide_lipo>
-3.75578

> <r_i_glide_metal>
0

> <r_i_glide_rewards>
-1.70379

> <s_i_glide_gridfile>
wee1_glide-grid

> <s_m_Source_File>
wee1_actives_glide_SP.sdf

> <s_m_Source_Path>
/Users/zhangxujun/Desktop

> <s_m_entry_id>
185

> <s_m_entry_name>
wee1_actives_glide_SP.47

> <s_m_subgroup_title>
wee1_actives_glide_SP

> <s_m_subgroupid>
wee1_actives_glide_SP


$$$$
