CHEMBL471329_118
                    3D
 Schrodinger Suite 2024-2.
 50 55  0  0  1  0            999 V2000
    0.6028   54.2977   30.6473 C   0  0  0  0  0  0
   -0.0950   53.1052   30.7943 C   0  0  0  0  0  0
   -0.0526   52.1459   29.7874 C   0  0  0  0  0  0
    0.7438   52.3439   28.6620 C   0  0  0  0  0  0
    1.5313   53.5095   28.5399 C   0  0  0  0  0  0
    1.3996   54.5005   29.5241 C   0  0  0  0  0  0
    2.4809   53.7231   27.4043 C   0  0  0  0  0  0
    1.9905   53.6149   26.0998 C   0  0  0  0  0  0
    2.8706   53.8192   25.0296 C   0  0  0  0  0  0
    4.2381   54.1388   25.2236 C   0  0  0  0  0  0
    4.8141   54.3132   23.9437 C   0  0  0  0  0  0
    6.0933   54.6904   23.4955 C   0  0  0  0  0  0
    6.3166   54.8347   22.1289 C   0  0  0  0  0  0
    5.3235   54.5194   21.2071 C   0  0  0  0  0  0
    4.0553   54.0974   21.6043 C   0  0  0  0  0  0
    3.7992   54.0429   22.9802 C   0  0  0  0  0  0
    2.6266   53.7722   23.6697 N   0  0  0  0  0  0
    1.3212   53.4758   23.0879 C   0  0  0  0  0  0
    1.0212   51.9616   23.1045 C   0  0  0  0  0  0
   -0.4323   51.6195   22.7101 C   0  0  0  0  0  0
   -1.4916   52.1453   23.6750 C   0  0  0  0  0  0
   -1.4966   51.8712   24.9586 N   0  5  0  0  0  0
   -2.6156   52.4965   25.4571 N   0  0  0  0  0  0
   -3.2448   53.1203   24.4111 N   0  0  0  0  0  0
   -2.4959   52.8912   23.2816 N   0  0  0  0  0  0
    7.5273   55.2969   21.6835 O   0  0  0  0  0  0
    4.7083   54.2255   26.5484 C   0  0  0  0  0  0
    3.8419   54.0240   27.5994 C   0  0  0  0  0  0
    4.6456   54.1861   28.8488 C   0  0  0  0  0  0
    4.2819   54.0965   30.0185 O   0  0  0  0  0  0
    5.8947   54.4761   28.4459 N   0  0  0  0  0  0
    6.0527   54.5200   27.1146 C   0  0  0  0  0  0
    7.1044   54.7777   26.5358 O   0  0  0  0  0  0
    0.7247   51.1041   27.4542 Cl  0  0  0  0  0  0
    0.5466   55.0560   31.4152 H   0  0  0  0  0  0
   -0.6808   52.9195   31.6813 H   0  0  0  0  0  0
   -0.6346   51.2407   29.8873 H   0  0  0  0  0  0
    1.9536   55.4262   29.4380 H   0  0  0  0  0  0
    0.9529   53.3727   25.9222 H   0  0  0  0  0  0
    6.8887   54.9284   24.1817 H   0  0  0  0  0  0
    5.5340   54.6202   20.1514 H   0  0  0  0  0  0
    3.2910   53.8872   20.8700 H   0  0  0  0  0  0
    1.2711   53.8785   22.0810 H   0  0  0  0  0  0
    0.5737   54.0257   23.6626 H   0  0  0  0  0  0
    1.2245   51.5378   24.0908 H   0  0  0  0  0  0
    1.7061   51.4554   22.4233 H   0  0  0  0  0  0
   -0.5297   50.5358   22.6304 H   0  0  0  0  0  0
   -0.6099   51.9901   21.6982 H   0  0  0  0  0  0
    8.1925   55.3598   22.3811 H   0  0  0  0  0  0
    6.6450   54.6938   29.0875 H   0  0  0  0  0  0
  1  6  2  0  0  0
  1  2  1  0  0  0
  1 35  1  0  0  0
  2  3  2  0  0  0
  2 36  1  0  0  0
  3  4  1  0  0  0
  3 37  1  0  0  0
  4  5  2  0  0  0
  4 34  1  0  0  0
  5  6  1  0  0  0
  5  7  1  0  0  0
  6 38  1  0  0  0
  7 28  2  0  0  0
  7  8  1  0  0  0
  8  9  2  0  0  0
  8 39  1  0  0  0
  9 17  1  0  0  0
  9 10  1  0  0  0
 10 11  1  0  0  0
 10 27  2  0  0  0
 11 16  2  0  0  0
 11 12  1  0  0  0
 12 13  2  0  0  0
 12 40  1  0  0  0
 13 14  1  0  0  0
 13 26  1  0  0  0
 14 15  2  0  0  0
 14 41  1  0  0  0
 15 16  1  0  0  0
 15 42  1  0  0  0
 16 17  1  0  0  0
 17 18  1  0  0  0
 18 19  1  0  0  0
 18 43  1  0  0  0
 18 44  1  0  0  0
 19 20  1  0  0  0
 19 45  1  0  0  0
 19 46  1  0  0  0
 20 21  1  0  0  0
 20 47  1  0  0  0
 20 48  1  0  0  0
 21 25  2  0  0  0
 21 22  1  0  0  0
 22 23  1  0  0  0
 23 24  2  0  0  0
 24 25  1  0  0  0
 26 49  1  0  0  0
 27 32  1  0  0  0
 27 28  1  0  0  0
 28 29  1  0  0  0
 29 30  2  0  0  0
 29 31  1  0  0  0
 31 32  1  0  0  0
 31 50  1  0  0  0
 32 33  2  0  0  0
M  CHG  1  22  -1
M  END
> <i_i_glide_confnum>
60

> <i_i_glide_lignum>
119

> <i_i_glide_posenum>
94

> <i_i_glide_rotatable_bonds>
6

> <i_m_Source_File_Index>
57

> <b_m_subgroup_collapsed>
0

> <r_i_docking_score>
-11.2684

> <r_i_glide_ecoul>
-14.1509

> <r_i_glide_eff_state_penalty>
0

> <r_i_glide_einternal>
2.47864

> <r_i_glide_emodel>
-114.214

> <r_i_glide_energy>
-66.6083

> <r_i_glide_erotb>
0.36316

> <r_i_glide_esite>
-0.00585993

> <r_i_glide_evdw>
-52.4575

> <r_i_glide_gscore>
-11.2684

> <r_i_glide_hbond>
-0.939746

> <r_i_glide_ligand_efficiency>
-0.331422

> <r_i_glide_ligand_efficiency_ln>
-2.4895

> <r_i_glide_ligand_efficiency_sa>
-1.07368

> <r_i_glide_lipo>
-3.58251

> <r_i_glide_metal>
0

> <r_i_glide_rewards>
-2.3579

> <s_i_glide_gridfile>
wee1_glide-grid

> <s_m_Source_File>
wee1_actives_glide_SP.sdf

> <s_m_Source_Path>
/Users/zhangxujun/Desktop

> <s_m_entry_id>
195

> <s_m_entry_name>
wee1_actives_glide_SP.57

> <s_m_subgroup_title>
wee1_actives_glide_SP

> <s_m_subgroupid>
wee1_actives_glide_SP


$$$$
