CHEMBL520071_12
                    3D
 Schrodinger Suite 2024-2.
 56 61  0  0  1  0            999 V2000
   -0.0950   53.0843   30.5610 C   0  0  0  0  0  0
    0.4741   54.3324   30.3360 C   0  0  0  0  0  0
    1.2559   54.5530   29.2027 C   0  0  0  0  0  0
    1.5386   53.4973   28.3085 C   0  0  0  0  0  0
    0.9010   52.2577   28.5222 C   0  0  0  0  0  0
    0.0803   52.0695   29.6310 C   0  0  0  0  0  0
    1.1043   50.9102   27.4560 Cl  0  0  0  0  0  0
    2.5105   53.6852   27.1871 C   0  0  0  0  0  0
    2.0699   53.5616   25.8627 C   0  0  0  0  0  0
    2.9878   53.7865   24.8215 C   0  0  0  0  0  0
    4.3478   54.1240   25.0749 C   0  0  0  0  0  0
    4.9839   54.3212   23.8252 C   0  0  0  0  0  0
    6.2869   54.6995   23.4344 C   0  0  0  0  0  0
    6.5647   54.8965   22.0820 C   0  0  0  0  0  0
    5.5894   54.6656   21.1184 C   0  0  0  0  0  0
    4.3047   54.2443   21.4546 C   0  0  0  0  0  0
    4.0070   54.0961   22.8173 C   0  0  0  0  0  0
    2.8133   53.7678   23.4455 N   0  0  0  0  0  0
    1.5514   53.5339   22.7465 C   0  0  0  0  0  0
    1.5345   52.2263   21.9202 C   0  0  0  0  0  0
    0.7499   51.1703   22.5659 N   0  0  0  0  0  0
    0.2969   50.1664   21.5968 C   0  0  0  0  0  0
   -0.5956   49.1038   22.2747 C   0  0  0  0  0  0
    0.0800   48.4978   23.3735 O   0  0  0  0  0  0
    0.5504   49.4342   24.3422 C   0  0  0  0  0  0
    1.4383   50.5213   23.6892 C   0  0  0  0  0  0
    7.8147   55.2983   21.6818 O   0  0  0  0  0  0
    4.7570   54.2150   26.4186 C   0  0  0  0  0  0
    3.8577   53.9916   27.4317 C   0  0  0  0  0  0
    4.6039   54.1556   28.7158 C   0  0  0  0  0  0
    4.1903   54.0377   29.8680 O   0  0  0  0  0  0
    5.8569   54.4943   28.3667 N   0  0  0  0  0  0
    6.0567   54.5680   27.0422 C   0  0  0  0  0  0
    7.1044   54.8945   26.5000 O   0  0  0  0  0  0
    1.8424   56.1637   28.9386 Cl  0  0  0  0  0  0
   -0.7002   52.9001   31.4375 H   0  0  0  0  0  0
    0.2975   55.1358   31.0365 H   0  0  0  0  0  0
   -0.4116   51.1179   29.7834 H   0  0  0  0  0  0
    1.0391   53.3120   25.6604 H   0  0  0  0  0  0
    7.0666   54.8769   24.1546 H   0  0  0  0  0  0
    5.8370   54.8111   20.0766 H   0  0  0  0  0  0
    3.5619   54.0861   20.6862 H   0  0  0  0  0  0
    1.4185   54.3836   22.0821 H   0  0  0  0  0  0
    0.7149   53.5887   23.4433 H   0  0  0  0  0  0
    2.5427   51.8745   21.6939 H   0  0  0  0  0  0
    1.0780   52.4625   20.9569 H   0  0  0  0  0  0
    1.1532   49.7016   21.1049 H   0  0  0  0  0  0
   -0.2756   50.6569   20.8074 H   0  0  0  0  0  0
   -1.5179   49.5730   22.6225 H   0  0  0  0  0  0
   -0.8744   48.3308   21.5579 H   0  0  0  0  0  0
   -0.3020   49.9101   24.8300 H   0  0  0  0  0  0
    1.1045   48.8981   25.1138 H   0  0  0  0  0  0
    1.6980   51.2700   24.4346 H   0  0  0  0  0  0
    2.3833   50.0894   23.3530 H   0  0  0  0  0  0
    8.4645   55.2987   22.3979 H   0  0  0  0  0  0
    6.5750   54.7321   29.0380 H   0  0  0  0  0  0
  1  6  2  0  0  0
  1  2  1  0  0  0
  1 36  1  0  0  0
  2  3  2  0  0  0
  2 37  1  0  0  0
  3  4  1  0  0  0
  3 35  1  0  0  0
  4  5  2  0  0  0
  4  8  1  0  0  0
  5  6  1  0  0  0
  5  7  1  0  0  0
  6 38  1  0  0  0
  8 29  2  0  0  0
  8  9  1  0  0  0
  9 10  2  0  0  0
  9 39  1  0  0  0
 10 18  1  0  0  0
 10 11  1  0  0  0
 11 12  1  0  0  0
 11 28  2  0  0  0
 12 17  2  0  0  0
 12 13  1  0  0  0
 13 14  2  0  0  0
 13 40  1  0  0  0
 14 15  1  0  0  0
 14 27  1  0  0  0
 15 16  2  0  0  0
 15 41  1  0  0  0
 16 17  1  0  0  0
 16 42  1  0  0  0
 17 18  1  0  0  0
 18 19  1  0  0  0
 19 20  1  0  0  0
 19 43  1  0  0  0
 19 44  1  0  0  0
 20 21  1  0  0  0
 20 45  1  0  0  0
 20 46  1  0  0  0
 21 26  1  0  0  0
 21 22  1  0  0  0
 22 23  1  0  0  0
 22 47  1  0  0  0
 22 48  1  0  0  0
 23 24  1  0  0  0
 23 49  1  0  0  0
 23 50  1  0  0  0
 24 25  1  0  0  0
 25 26  1  0  0  0
 25 51  1  0  0  0
 25 52  1  0  0  0
 26 53  1  0  0  0
 26 54  1  0  0  0
 27 55  1  0  0  0
 28 33  1  0  0  0
 28 29  1  0  0  0
 29 30  1  0  0  0
 30 31  2  0  0  0
 30 32  1  0  0  0
 32 33  1  0  0  0
 32 56  1  0  0  0
 33 34  2  0  0  0
M  END
> <i_i_glide_confnum>
59

> <i_i_glide_lignum>
13

> <i_i_glide_posenum>
296

> <i_i_glide_rotatable_bonds>
5

> <i_m_Source_File_Index>
82

> <b_m_subgroup_collapsed>
0

> <r_i_docking_score>
-11.4133

> <r_i_glide_ecoul>
-13.8324

> <r_i_glide_eff_state_penalty>
0

> <r_i_glide_einternal>
5.05531

> <r_i_glide_emodel>
-111.191

> <r_i_glide_energy>
-67.6344

> <r_i_glide_erotb>
0.220216

> <r_i_glide_esite>
0

> <r_i_glide_evdw>
-53.802

> <r_i_glide_gscore>
-11.4133

> <r_i_glide_hbond>
-0.908159

> <r_i_glide_ligand_efficiency>
-0.326095

> <r_i_glide_ligand_efficiency_ln>
-2.50548

> <r_i_glide_ligand_efficiency_sa>
-1.06668

> <r_i_glide_lipo>
-3.96329

> <r_i_glide_metal>
0

> <r_i_glide_rewards>
-1.99714

> <s_i_glide_gridfile>
wee1_glide-grid

> <s_m_Source_File>
wee1_actives_glide_SP.sdf

> <s_m_Source_Path>
/Users/zhangxujun/Desktop

> <s_m_entry_id>
220

> <s_m_entry_name>
wee1_actives_glide_SP.82

> <s_m_subgroup_title>
wee1_actives_glide_SP

> <s_m_subgroupid>
wee1_actives_glide_SP


$$$$
