CHEMBL483611_56
                    3D
 Schrodinger Suite 2024-2.
 61 66  0  0  1  0            999 V2000
   -0.0246   53.2532   30.7490 C   0  0  0  0  0  0
    0.4978   54.5105   30.4739 C   0  0  0  0  0  0
    1.2711   54.7189   29.3330 C   0  0  0  0  0  0
    1.5952   53.6380   28.4888 C   0  0  0  0  0  0
    1.0731   52.3683   28.7886 C   0  0  0  0  0  0
    0.2312   52.1963   29.8843 C   0  0  0  0  0  0
    1.4915   50.9732   27.8521 Cl  0  0  0  0  0  0
    2.5193   53.8129   27.3361 C   0  0  0  0  0  0
    2.0319   53.6966   26.0295 C   0  0  0  0  0  0
    2.9273   53.8419   24.9575 C   0  0  0  0  0  0
    4.2979   54.1629   25.1691 C   0  0  0  0  0  0
    4.8988   54.3302   23.9009 C   0  0  0  0  0  0
    6.1859   54.7227   23.4759 C   0  0  0  0  0  0
    6.4375   54.8705   22.1133 C   0  0  0  0  0  0
    5.4630   54.5485   21.1762 C   0  0  0  0  0  0
    4.1936   54.1073   21.5500 C   0  0  0  0  0  0
    3.9057   54.0388   22.9220 C   0  0  0  0  0  0
    2.7206   53.7397   23.5887 N   0  0  0  0  0  0
    1.4377   53.4273   22.9445 C   0  0  0  0  0  0
    1.0184   51.9317   23.0191 C   0  0  0  0  0  0
    0.0597   51.5041   24.1700 C   0  0  0  0  0  0
   -1.2899   52.2667   24.2577 C   0  0  0  0  0  0
   -1.6687   52.8953   23.2658 O   0  0  0  0  0  0
   -2.0516   52.1946   25.3860 N   0  0  0  0  0  0
   -3.3091   52.9700   25.4673 C   0  0  0  0  0  0
   -4.3865   52.0643   26.0871 C   0  0  0  0  0  0
   -3.9568   51.6005   27.3570 O   0  0  0  0  0  0
   -2.7758   50.8096   27.2865 C   0  0  0  0  0  0
   -1.5862   51.5507   26.6336 C   0  0  0  0  0  0
    7.6671   55.2995   21.6818 O   0  0  0  0  0  0
    4.7467   54.2651   26.5001 C   0  0  0  0  0  0
    3.8751   54.0733   27.5402 C   0  0  0  0  0  0
    4.6528   54.2052   28.8041 C   0  0  0  0  0  0
    4.2622   54.0969   29.9641 O   0  0  0  0  0  0
    5.9042   54.4967   28.4194 N   0  0  0  0  0  0
    6.0693   54.5817   27.0888 C   0  0  0  0  0  0
    7.1044   54.8917   26.5173 O   0  0  0  0  0  0
    1.8189   56.3314   29.0102 Cl  0  0  0  0  0  0
   -0.6238   53.0919   31.6339 H   0  0  0  0  0  0
    0.2959   55.3342   31.1415 H   0  0  0  0  0  0
   -0.2116   51.2350   30.0818 H   0  0  0  0  0  0
    0.9863   53.5064   25.8628 H   0  0  0  0  0  0
    6.9664   54.9613   24.1758 H   0  0  0  0  0  0
    5.6936   54.6439   20.1254 H   0  0  0  0  0  0
    3.4555   53.8828   20.7939 H   0  0  0  0  0  0
    1.5076   53.6975   21.8930 H   0  0  0  0  0  0
    0.6870   54.0975   23.3587 H   0  0  0  0  0  0
    1.9082   51.3007   23.0394 H   0  0  0  0  0  0
    0.5351   51.6725   22.0751 H   0  0  0  0  0  0
    0.6042   51.5565   25.1064 H   0  0  0  0  0  0
   -0.1838   50.4496   24.0348 H   0  0  0  0  0  0
   -3.6685   53.3473   24.5082 H   0  0  0  0  0  0
   -3.1163   53.7900   26.1586 H   0  0  0  0  0  0
   -5.3239   52.6092   26.1977 H   0  0  0  0  0  0
   -4.5903   51.2211   25.4232 H   0  0  0  0  0  0
   -2.5011   50.4971   28.2940 H   0  0  0  0  0  0
   -2.9816   49.8985   26.7220 H   0  0  0  0  0  0
   -1.2399   52.3488   27.2908 H   0  0  0  0  0  0
   -0.8464   50.7743   26.4397 H   0  0  0  0  0  0
    8.3352   55.3238   22.3794 H   0  0  0  0  0  0
    6.6460   54.7128   29.0715 H   0  0  0  0  0  0
  1  6  2  0  0  0
  1  2  1  0  0  0
  1 39  1  0  0  0
  2  3  2  0  0  0
  2 40  1  0  0  0
  3  4  1  0  0  0
  3 38  1  0  0  0
  4  5  2  0  0  0
  4  8  1  0  0  0
  5  6  1  0  0  0
  5  7  1  0  0  0
  6 41  1  0  0  0
  8 32  2  0  0  0
  8  9  1  0  0  0
  9 10  2  0  0  0
  9 42  1  0  0  0
 10 18  1  0  0  0
 10 11  1  0  0  0
 11 12  1  0  0  0
 11 31  2  0  0  0
 12 17  2  0  0  0
 12 13  1  0  0  0
 13 14  2  0  0  0
 13 43  1  0  0  0
 14 15  1  0  0  0
 14 30  1  0  0  0
 15 16  2  0  0  0
 15 44  1  0  0  0
 16 17  1  0  0  0
 16 45  1  0  0  0
 17 18  1  0  0  0
 18 19  1  0  0  0
 19 20  1  0  0  0
 19 46  1  0  0  0
 19 47  1  0  0  0
 20 21  1  0  0  0
 20 48  1  0  0  0
 20 49  1  0  0  0
 21 22  1  0  0  0
 21 50  1  0  0  0
 21 51  1  0  0  0
 22 23  2  0  0  0
 22 24  1  0  0  0
 24 29  1  0  0  0
 24 25  1  0  0  0
 25 26  1  0  0  0
 25 52  1  0  0  0
 25 53  1  0  0  0
 26 27  1  0  0  0
 26 54  1  0  0  0
 26 55  1  0  0  0
 27 28  1  0  0  0
 28 29  1  0  0  0
 28 56  1  0  0  0
 28 57  1  0  0  0
 29 58  1  0  0  0
 29 59  1  0  0  0
 30 60  1  0  0  0
 31 36  1  0  0  0
 31 32  1  0  0  0
 32 33  1  0  0  0
 33 34  2  0  0  0
 33 35  1  0  0  0
 35 36  1  0  0  0
 35 61  1  0  0  0
 36 37  2  0  0  0
M  END
> <i_i_glide_confnum>
163

> <i_i_glide_lignum>
57

> <i_i_glide_posenum>
70

> <i_i_glide_rotatable_bonds>
7

> <i_m_Source_File_Index>
4

> <b_m_subgroup_collapsed>
0

> <r_i_docking_score>
-12.2323

> <r_i_glide_ecoul>
-15.0609

> <r_i_glide_eff_state_penalty>
0

> <r_i_glide_einternal>
3.57613

> <r_i_glide_emodel>
-122.844

> <r_i_glide_energy>
-71.9909

> <r_i_glide_erotb>
0.268657

> <r_i_glide_esite>
-0.00247578

> <r_i_glide_evdw>
-56.93

> <r_i_glide_gscore>
-12.2323

> <r_i_glide_hbond>
-0.928492

> <r_i_glide_ligand_efficiency>
-0.321904

> <r_i_glide_ligand_efficiency_ln>
-2.63765

> <r_i_glide_ligand_efficiency_sa>
-1.08223

> <r_i_glide_lipo>
-4.26679

> <r_i_glide_metal>
0

> <r_i_glide_rewards>
-2.1976

> <s_i_glide_gridfile>
wee1_glide-grid

> <s_m_Source_File>
wee1_actives_glide_SP.sdf

> <s_m_Source_Path>
/Users/zhangxujun/Desktop

> <s_m_entry_id>
142

> <s_m_entry_name>
wee1_actives_glide_SP.4

> <s_m_subgroup_title>
wee1_actives_glide_SP

> <s_m_subgroupid>
wee1_actives_glide_SP


$$$$
