CHEMBL520984_61
                    3D
 Schrodinger Suite 2024-2.
 59 64  0  0  1  0            999 V2000
    1.4332   53.4561   22.9391 C   0  0  0  0  0  0
    2.7189   53.7601   23.5404 N   0  0  0  0  0  0
    2.9396   53.8084   24.9025 C   0  0  0  0  0  0
    2.0560   53.5747   25.9637 C   0  0  0  0  0  0
    2.5315   53.7086   27.2725 C   0  0  0  0  0  0
    3.8796   54.0287   27.4815 C   0  0  0  0  0  0
    4.7467   54.2598   26.4419 C   0  0  0  0  0  0
    4.2983   54.1636   25.1104 C   0  0  0  0  0  0
    4.8848   54.3473   23.8341 C   0  0  0  0  0  0
    3.8909   54.0510   22.8664 C   0  0  0  0  0  0
    4.1552   54.0985   21.4955 C   0  0  0  0  0  0
    5.4190   54.5241   21.0799 C   0  0  0  0  0  0
    6.3914   54.8966   22.0204 C   0  0  0  0  0  0
    6.1539   54.7565   23.3873 C   0  0  0  0  0  0
    7.5042   55.4023   21.6817 O   0  5  0  0  0  0
    5.6842   54.6192   19.2967 S   0  0  0  0  0  0
    7.1173   54.4966   19.0162 O   0  0  0  0  0  0
    4.9406   55.7937   18.8273 O   0  0  0  0  0  0
    4.8575   53.0505   18.6156 C   0  0  0  0  0  0
    3.4680   53.3433   18.0100 C   0  0  0  0  0  0
    2.6348   52.0814   17.6974 C   0  0  0  0  0  0
    2.1652   51.4117   18.9057 N   0  0  0  0  0  0
    1.1447   51.8394   19.7262 C   0  0  0  0  0  0
    0.9758   50.9287   20.7581 C   0  0  0  0  0  0
    1.9438   49.9331   20.5944 C   0  0  0  0  0  0
    2.6596   50.2464   19.4495 C   0  0  0  0  0  0
    6.0678   54.5854   27.0306 C   0  0  0  0  0  0
    7.1043   54.8962   26.4603 O   0  0  0  0  0  0
    5.9041   54.4968   28.3602 N   0  0  0  0  0  0
    4.6587   54.1728   28.7449 C   0  0  0  0  0  0
    4.2753   54.0499   29.9075 O   0  0  0  0  0  0
    1.5871   53.4520   28.3904 C   0  0  0  0  0  0
    0.9985   52.1832   28.4764 C   0  0  0  0  0  0
    0.1184   51.8746   29.5048 C   0  0  0  0  0  0
   -0.1598   52.8210   30.4814 C   0  0  0  0  0  0
    0.3939   54.0955   30.4040 C   0  0  0  0  0  0
    1.2499   54.4241   29.3542 C   0  0  0  0  0  0
    1.8422   56.0516   29.2811 Cl  0  0  0  0  0  0
    0.6956   54.1527   23.3299 H   0  0  0  0  0  0
    1.4719   53.5637   21.8588 H   0  0  0  0  0  0
    1.1518   52.4383   23.1998 H   0  0  0  0  0  0
    1.0277   53.2997   25.7800 H   0  0  0  0  0  0
    3.3908   53.8519   20.7765 H   0  0  0  0  0  0
    6.9372   55.0264   24.0783 H   0  0  0  0  0  0
    4.8350   52.3031   19.4071 H   0  0  0  0  0  0
    5.5216   52.6657   17.8411 H   0  0  0  0  0  0
    3.6126   53.9049   17.0876 H   0  0  0  0  0  0
    2.8956   54.0102   18.6542 H   0  0  0  0  0  0
    3.2134   51.3681   17.1093 H   0  0  0  0  0  0
    1.7630   52.3380   17.0947 H   0  0  0  0  0  0
    0.6239   52.7589   19.4985 H   0  0  0  0  0  0
    0.2430   50.9800   21.5490 H   0  0  0  0  0  0
    2.1019   49.0760   21.2332 H   0  0  0  0  0  0
    3.4772   49.7342   18.9583 H   0  0  0  0  0  0
    6.6445   54.7152   29.0129 H   0  0  0  0  0  0
    1.2266   51.4258   27.7387 H   0  0  0  0  0  0
   -0.3420   50.8981   29.5526 H   0  0  0  0  0  0
   -0.8361   52.5683   31.2817 H   0  0  0  0  0  0
    0.1462   54.8330   31.1524 H   0  0  0  0  0  0
  1  2  1  0  0  0
  1 39  1  0  0  0
  1 40  1  0  0  0
  1 41  1  0  0  0
  2 10  1  0  0  0
  2  3  1  0  0  0
  3  8  2  0  0  0
  3  4  1  0  0  0
  4  5  2  0  0  0
  4 42  1  0  0  0
  5  6  1  0  0  0
  5 32  1  0  0  0
  6 30  1  0  0  0
  6  7  2  0  0  0
  7  8  1  0  0  0
  7 27  1  0  0  0
  8  9  1  0  0  0
  9 14  2  0  0  0
  9 10  1  0  0  0
 10 11  2  0  0  0
 11 12  1  0  0  0
 11 43  1  0  0  0
 12 13  2  0  0  0
 12 16  1  0  0  0
 13 14  1  0  0  0
 13 15  1  0  0  0
 14 44  1  0  0  0
 16 17  2  0  0  0
 16 18  2  0  0  0
 16 19  1  0  0  0
 19 20  1  0  0  0
 19 45  1  0  0  0
 19 46  1  0  0  0
 20 21  1  0  0  0
 20 47  1  0  0  0
 20 48  1  0  0  0
 21 22  1  0  0  0
 21 49  1  0  0  0
 21 50  1  0  0  0
 22 26  1  0  0  0
 22 23  1  0  0  0
 23 24  2  0  0  0
 23 51  1  0  0  0
 24 25  1  0  0  0
 24 52  1  0  0  0
 25 26  2  0  0  0
 25 53  1  0  0  0
 26 54  1  0  0  0
 27 28  2  0  0  0
 27 29  1  0  0  0
 29 30  1  0  0  0
 29 55  1  0  0  0
 30 31  2  0  0  0
 32 37  2  0  0  0
 32 33  1  0  0  0
 33 34  2  0  0  0
 33 56  1  0  0  0
 34 35  1  0  0  0
 34 57  1  0  0  0
 35 36  2  0  0  0
 35 58  1  0  0  0
 36 37  1  0  0  0
 36 59  1  0  0  0
 37 38  1  0  0  0
M  CHG  1  15  -1
M  END
> <i_i_glide_confnum>
180

> <i_i_glide_lignum>
62

> <i_i_glide_posenum>
206

> <i_i_glide_rotatable_bonds>
6

> <i_m_Source_File_Index>
30

> <b_m_subgroup_collapsed>
0

> <r_i_docking_score>
-10.7368

> <r_i_glide_ecoul>
-10.6475

> <r_i_glide_eff_state_penalty>
0

> <r_i_glide_einternal>
6.71042

> <r_i_glide_emodel>
-111.285

> <r_i_glide_energy>
-68.6448

> <r_i_glide_erotb>
0.242292

> <r_i_glide_esite>
-0.0518232

> <r_i_glide_evdw>
-57.9973

> <r_i_glide_gscore>
-10.7368

> <r_i_glide_hbond>
-0.646638

> <r_i_glide_ligand_efficiency>
-0.282547

> <r_i_glide_ligand_efficiency_ln>
-2.31516

> <r_i_glide_ligand_efficiency_sa>
-0.949915

> <r_i_glide_lipo>
-3.7503

> <r_i_glide_metal>
0

> <r_i_glide_rewards>
-2.03331

> <s_i_glide_gridfile>
wee1_glide-grid

> <s_m_Source_File>
wee1_actives_glide_SP.sdf

> <s_m_Source_Path>
/Users/zhangxujun/Desktop

> <s_m_entry_id>
168

> <s_m_entry_name>
wee1_actives_glide_SP.30

> <s_m_subgroup_title>
wee1_actives_glide_SP

> <s_m_subgroupid>
wee1_actives_glide_SP


$$$$
