CHEMBL508294_95
                    3D
 Schrodinger Suite 2024-2.
 50 55  0  0  1  0            999 V2000
   -0.1924   52.8922   30.4642 C   0  0  0  0  0  0
    0.3871   54.1485   30.3363 C   0  0  0  0  0  0
    1.2226   54.4277   29.2557 C   0  0  0  0  0  0
    1.5376   53.4198   28.3188 C   0  0  0  0  0  0
    0.8889   52.1716   28.4365 C   0  0  0  0  0  0
    0.0263   51.9215   29.4985 C   0  0  0  0  0  0
    1.1044   50.8966   27.2853 Cl  0  0  0  0  0  0
    2.5209   53.6642   27.2227 C   0  0  0  0  0  0
    2.0818   53.5709   25.8996 C   0  0  0  0  0  0
    2.9985   53.8092   24.8663 C   0  0  0  0  0  0
    4.3564   54.1426   25.1159 C   0  0  0  0  0  0
    4.9862   54.3387   23.8598 C   0  0  0  0  0  0
    6.2863   54.7169   23.4563 C   0  0  0  0  0  0
    6.5534   54.8967   22.0979 C   0  0  0  0  0  0
    5.5743   54.6434   21.1430 C   0  0  0  0  0  0
    4.2940   54.2180   21.4918 C   0  0  0  0  0  0
    4.0031   54.0972   22.8574 C   0  0  0  0  0  0
    2.8102   53.7985   23.4985 N   0  0  0  0  0  0
    1.5380   53.5320   22.8437 C   0  0  0  0  0  0
    1.4932   52.1060   22.2649 C   0  0  0  0  0  0
    0.1973   51.8720   21.6510 N   0  0  0  0  0  0
   -0.9874   51.5901   22.2806 C   0  0  0  0  0  0
   -1.9281   51.4849   21.2672 C   0  0  0  0  0  0
   -1.3960   51.6967   20.0761 N   0  0  0  0  0  0
   -0.1265   51.9282   20.3175 C   0  0  0  0  0  0
    7.7987   55.2967   21.6818 O   0  0  0  0  0  0
    4.7623   54.2212   26.4612 C   0  0  0  0  0  0
    3.8650   53.9782   27.4733 C   0  0  0  0  0  0
    4.6105   54.1224   28.7588 C   0  0  0  0  0  0
    4.1970   53.9798   29.9076 O   0  0  0  0  0  0
    5.8617   54.4728   28.4127 N   0  0  0  0  0  0
    6.0605   54.5647   27.0876 C   0  0  0  0  0  0
    7.1044   54.8966   26.5430 O   0  0  0  0  0  0
    1.8103   56.0521   29.0958 Cl  0  0  0  0  0  0
   -0.8607   52.6754   31.2817 H   0  0  0  0  0  0
    0.1700   54.9145   31.0668 H   0  0  0  0  0  0
   -0.4716   50.9648   29.5827 H   0  0  0  0  0  0
    1.0526   53.3193   25.6945 H   0  0  0  0  0  0
    7.0679   54.9050   24.1720 H   0  0  0  0  0  0
    5.8138   54.7754   20.0975 H   0  0  0  0  0  0
    3.5472   54.0434   20.7296 H   0  0  0  0  0  0
    0.7247   53.6944   23.5512 H   0  0  0  0  0  0
    1.4130   54.2917   22.0817 H   0  0  0  0  0  0
    2.2649   51.9558   21.5081 H   0  0  0  0  0  0
    1.6410   51.3525   23.0405 H   0  0  0  0  0  0
   -1.0455   51.4847   23.3546 H   0  0  0  0  0  0
   -2.9770   51.2565   21.3905 H   0  0  0  0  0  0
    0.6357   52.1556   19.5859 H   0  0  0  0  0  0
    8.4571   55.2980   22.3901 H   0  0  0  0  0  0
    6.5790   54.7058   29.0852 H   0  0  0  0  0  0
  1  6  2  0  0  0
  1  2  1  0  0  0
  1 35  1  0  0  0
  2  3  2  0  0  0
  2 36  1  0  0  0
  3  4  1  0  0  0
  3 34  1  0  0  0
  4  5  2  0  0  0
  4  8  1  0  0  0
  5  6  1  0  0  0
  5  7  1  0  0  0
  6 37  1  0  0  0
  8 28  2  0  0  0
  8  9  1  0  0  0
  9 10  2  0  0  0
  9 38  1  0  0  0
 10 18  1  0  0  0
 10 11  1  0  0  0
 11 12  1  0  0  0
 11 27  2  0  0  0
 12 17  2  0  0  0
 12 13  1  0  0  0
 13 14  2  0  0  0
 13 39  1  0  0  0
 14 15  1  0  0  0
 14 26  1  0  0  0
 15 16  2  0  0  0
 15 40  1  0  0  0
 16 17  1  0  0  0
 16 41  1  0  0  0
 17 18  1  0  0  0
 18 19  1  0  0  0
 19 20  1  0  0  0
 19 42  1  0  0  0
 19 43  1  0  0  0
 20 21  1  0  0  0
 20 44  1  0  0  0
 20 45  1  0  0  0
 21 25  1  0  0  0
 21 22  1  0  0  0
 22 23  2  0  0  0
 22 46  1  0  0  0
 23 24  1  0  0  0
 23 47  1  0  0  0
 24 25  2  0  0  0
 25 48  1  0  0  0
 26 49  1  0  0  0
 27 32  1  0  0  0
 27 28  1  0  0  0
 28 29  1  0  0  0
 29 30  2  0  0  0
 29 31  1  0  0  0
 31 32  1  0  0  0
 31 50  1  0  0  0
 32 33  2  0  0  0
M  END
> <i_i_glide_confnum>
30

> <i_i_glide_lignum>
96

> <i_i_glide_posenum>
323

> <i_i_glide_rotatable_bonds>
5

> <i_m_Source_File_Index>
117

> <b_m_subgroup_collapsed>
0

> <r_i_docking_score>
-11.5969

> <r_i_glide_ecoul>
-14.5928

> <r_i_glide_eff_state_penalty>
0

> <r_i_glide_einternal>
2.77011

> <r_i_glide_emodel>
-112.825

> <r_i_glide_energy>
-67.8702

> <r_i_glide_erotb>
0.337311

> <r_i_glide_esite>
-0.0152397

> <r_i_glide_evdw>
-53.2774

> <r_i_glide_gscore>
-11.5969

> <r_i_glide_hbond>
-0.910976

> <r_i_glide_ligand_efficiency>
-0.341085

> <r_i_glide_ligand_efficiency_ln>
-2.56208

> <r_i_glide_ligand_efficiency_sa>
-1.10498

> <r_i_glide_lipo>
-3.88835

> <r_i_glide_metal>
0

> <r_i_glide_rewards>
-2.26683

> <s_i_glide_gridfile>
wee1_glide-grid

> <s_m_Source_File>
wee1_actives_glide_SP.sdf

> <s_m_Source_Path>
/Users/zhangxujun/Desktop

> <s_m_entry_id>
255

> <s_m_entry_name>
wee1_actives_glide_SP.117

> <s_m_subgroup_title>
wee1_actives_glide_SP

> <s_m_subgroupid>
wee1_actives_glide_SP


$$$$
