CHEMBL270866_30
                    3D
 Schrodinger Suite 2024-2.
 63 68  0  0  1  0            999 V2000
    1.5224   53.3352   22.7913 C   0  0  0  0  0  0
    2.7818   53.7061   23.4226 N   0  0  0  0  0  0
    2.9710   53.7733   24.7932 C   0  0  0  0  0  0
    2.0712   53.5444   25.8481 C   0  0  0  0  0  0
    2.5278   53.6908   27.1658 C   0  0  0  0  0  0
    3.8734   54.0098   27.3913 C   0  0  0  0  0  0
    4.7531   54.2381   26.3617 C   0  0  0  0  0  0
    4.3239   54.1375   25.0246 C   0  0  0  0  0  0
    4.9352   54.3249   23.7628 C   0  0  0  0  0  0
    3.9525   54.0636   22.7686 C   0  0  0  0  0  0
    4.2347   54.1896   21.4004 C   0  0  0  0  0  0
    5.5033   54.6459   21.0338 C   0  0  0  0  0  0
    6.4848   54.8989   21.9982 C   0  0  0  0  0  0
    6.2253   54.7104   23.3528 C   0  0  0  0  0  0
    7.6303   55.3279   21.6698 O   0  5  0  0  0  0
    5.8304   54.8953   19.2367 S   0  0  1  0  0  0
    4.4886   54.7101   18.5252 O   0  0  0  0  0  0
    6.1680   56.7265   19.3105 C   0  0  0  0  0  0
    6.0545   57.4261   17.9434 C   0  0  0  0  0  0
    4.6677   57.3021   17.2878 C   0  0  0  0  0  0
    4.4108   58.4994   16.3498 N   0  3  0  0  0  0
    2.9893   58.5445   15.7647 C   0  0  0  0  0  0
    3.1073   59.4827   14.5624 C   0  0  0  0  0  0
    4.5865   59.5114   14.1623 C   0  0  0  0  0  0
    5.3244   58.5689   15.1151 C   0  0  0  0  0  0
    6.0639   54.5799   26.9657 C   0  0  0  0  0  0
    7.1044   54.8964   26.4104 O   0  0  0  0  0  0
    5.8880   54.4965   28.2933 N   0  0  0  0  0  0
    4.6442   54.1494   28.6629 C   0  0  0  0  0  0
    4.2576   54.0017   29.8203 O   0  0  0  0  0  0
    1.5806   53.4478   28.2882 C   0  0  0  0  0  0
    0.9886   52.1828   28.3949 C   0  0  0  0  0  0
    0.1429   51.8770   29.4558 C   0  0  0  0  0  0
   -0.0967   52.8215   30.4465 C   0  0  0  0  0  0
    0.4480   54.0977   30.3401 C   0  0  0  0  0  0
    1.2669   54.4250   29.2582 C   0  0  0  0  0  0
    1.8556   56.0518   29.1602 Cl  0  0  0  0  0  0
    1.2529   52.3249   23.1005 H   0  0  0  0  0  0
    0.7452   54.0291   23.1135 H   0  0  0  0  0  0
    1.6037   53.3602   21.7045 H   0  0  0  0  0  0
    1.0438   53.2735   25.6537 H   0  0  0  0  0  0
    3.4887   53.9908   20.6458 H   0  0  0  0  0  0
    7.0095   54.9152   24.0605 H   0  0  0  0  0  0
    7.1807   56.8692   19.6849 H   0  0  0  0  0  0
    5.5045   57.1903   20.0344 H   0  0  0  0  0  0
    6.8029   57.0123   17.2655 H   0  0  0  0  0  0
    6.3155   58.4791   18.0686 H   0  0  0  0  0  0
    3.8720   57.3402   18.0323 H   0  0  0  0  0  0
    4.5547   56.3914   16.6952 H   0  0  0  0  0  0
    2.3044   58.8788   16.5453 H   0  0  0  0  0  0
    2.7371   57.5207   15.4779 H   0  0  0  0  0  0
    2.7666   60.4825   14.8385 H   0  0  0  0  0  0
    2.4759   59.1438   13.7401 H   0  0  0  0  0  0
    4.7285   59.2060   13.1245 H   0  0  0  0  0  0
    4.9864   60.5232   14.2599 H   0  0  0  0  0  0
    5.4028   57.5499   14.7305 H   0  0  0  0  0  0
    6.3108   58.9106   15.4359 H   0  0  0  0  0  0
    6.6187   54.7236   28.9534 H   0  0  0  0  0  0
    1.1958   51.4205   27.6569 H   0  0  0  0  0  0
   -0.3082   50.8967   29.5237 H   0  0  0  0  0  0
   -0.7317   52.5648   31.2812 H   0  0  0  0  0  0
    0.2299   54.8364   31.0976 H   0  0  0  0  0  0
    4.5480   59.3592   16.8782 H   0  0  0  0  0  0
  1  2  1  0  0  0
  1 38  1  0  0  0
  1 39  1  0  0  0
  1 40  1  0  0  0
  2 10  1  0  0  0
  2  3  1  0  0  0
  3  8  2  0  0  0
  3  4  1  0  0  0
  4  5  2  0  0  0
  4 41  1  0  0  0
  5  6  1  0  0  0
  5 31  1  0  0  0
  6 29  1  0  0  0
  6  7  2  0  0  0
  7  8  1  0  0  0
  7 26  1  0  0  0
  8  9  1  0  0  0
  9 14  2  0  0  0
  9 10  1  0  0  0
 10 11  2  0  0  0
 11 12  1  0  0  0
 11 42  1  0  0  0
 12 13  2  0  0  0
 12 16  1  0  0  0
 13 14  1  0  0  0
 13 15  1  0  0  0
 14 43  1  0  0  0
 16 17  2  0  0  0
 16 18  1  0  0  0
 18 19  1  0  0  0
 18 44  1  0  0  0
 18 45  1  0  0  0
 19 20  1  0  0  0
 19 46  1  0  0  0
 19 47  1  0  0  0
 20 21  1  0  0  0
 20 48  1  0  0  0
 20 49  1  0  0  0
 21 25  1  0  0  0
 21 22  1  0  0  0
 21 63  1  0  0  0
 22 23  1  0  0  0
 22 50  1  0  0  0
 22 51  1  0  0  0
 23 24  1  0  0  0
 23 52  1  0  0  0
 23 53  1  0  0  0
 24 25  1  0  0  0
 24 54  1  0  0  0
 24 55  1  0  0  0
 25 56  1  0  0  0
 25 57  1  0  0  0
 26 27  2  0  0  0
 26 28  1  0  0  0
 28 29  1  0  0  0
 28 58  1  0  0  0
 29 30  2  0  0  0
 31 36  2  0  0  0
 31 32  1  0  0  0
 32 33  2  0  0  0
 32 59  1  0  0  0
 33 34  1  0  0  0
 33 60  1  0  0  0
 34 35  2  0  0  0
 34 61  1  0  0  0
 35 36  1  0  0  0
 35 62  1  0  0  0
 36 37  1  0  0  0
M  CHG  2  15  -1  21   1
M  END
> <i_i_glide_confnum>
1

> <i_i_glide_lignum>
31

> <i_i_glide_posenum>
332

> <i_i_glide_rotatable_bonds>
6

> <i_m_Source_File_Index>
81

> <b_m_subgroup_collapsed>
0

> <r_i_docking_score>
-10.4418

> <r_i_glide_ecoul>
-8.35113

> <r_i_glide_eff_state_penalty>
0

> <r_i_glide_einternal>
5.29408

> <r_i_glide_emodel>
-109.855

> <r_i_glide_energy>
-64.5008

> <r_i_glide_erotb>
0.251506

> <r_i_glide_esite>
-0.0798428

> <r_i_glide_evdw>
-56.1497

> <r_i_glide_gscore>
-10.4418

> <r_i_glide_hbond>
-0.671679

> <r_i_glide_ligand_efficiency>
-0.28221

> <r_i_glide_ligand_efficiency_ln>
-2.26457

> <r_i_glide_ligand_efficiency_sa>
-0.940385

> <r_i_glide_lipo>
-3.81355

> <r_i_glide_metal>
0

> <r_i_glide_rewards>
-2.06804

> <s_i_glide_gridfile>
wee1_glide-grid

> <s_m_Source_File>
wee1_actives_glide_SP.sdf

> <s_m_Source_Path>
/Users/zhangxujun/Desktop

> <s_m_entry_id>
219

> <s_m_entry_name>
wee1_actives_glide_SP.81

> <s_m_subgroup_title>
wee1_actives_glide_SP

> <s_m_subgroupid>
wee1_actives_glide_SP


$$$$
