CHEMBL256480_16
                    3D
 Schrodinger Suite 2024-2.
 61 66  0  0  1  0            999 V2000
    0.6104   54.2851   30.6445 C   0  0  0  0  0  0
   -0.0933   53.0950   30.7885 C   0  0  0  0  0  0
   -0.0641   52.1415   29.7767 C   0  0  0  0  0  0
    0.7298   52.3393   28.6463 C   0  0  0  0  0  0
    1.5195   53.5034   28.5262 C   0  0  0  0  0  0
    1.3946   54.4926   29.5132 C   0  0  0  0  0  0
    2.4796   53.7108   27.3977 C   0  0  0  0  0  0
    2.0076   53.6000   26.0821 C   0  0  0  0  0  0
    2.9006   53.8176   25.0311 C   0  0  0  0  0  0
    4.2673   54.1422   25.2396 C   0  0  0  0  0  0
    4.8540   54.3321   23.9622 C   0  0  0  0  0  0
    6.1333   54.7045   23.5094 C   0  0  0  0  0  0
    6.3468   54.8825   22.1406 C   0  0  0  0  0  0
    5.3377   54.6234   21.2016 C   0  0  0  0  0  0
    4.0625   54.2221   21.6328 C   0  0  0  0  0  0
    3.8405   54.0975   23.0006 C   0  0  0  0  0  0
    2.6853   53.7783   23.6737 N   0  0  0  0  0  0
    1.7996   53.5737   23.2339 H   0  0  0  0  0  0
    5.6515   54.7960   19.8598 O   0  0  0  0  0  0
    4.6991   54.4728   18.8428 C   0  0  0  0  0  0
    4.4278   52.9542   18.7506 C   0  0  0  0  0  0
    3.0378   52.6167   18.1764 C   0  0  0  0  0  0
    2.7044   51.1292   18.4438 N   0  3  0  0  0  0
    1.7487   50.5530   17.3773 C   0  0  0  0  0  0
    1.4108   49.0885   17.7197 C   0  0  0  0  0  0
    0.9198   48.9658   19.0511 O   0  0  0  0  0  0
    1.8312   49.3925   20.0576 C   0  0  0  0  0  0
    2.1995   50.8783   19.8866 C   0  0  0  0  0  0
    7.5837   55.3029   21.7208 O   0  0  0  0  0  0
    4.7176   54.2242   26.5702 C   0  0  0  0  0  0
    3.8382   54.0184   27.6108 C   0  0  0  0  0  0
    4.6239   54.1881   28.8750 C   0  0  0  0  0  0
    4.2474   54.0965   30.0422 O   0  0  0  0  0  0
    5.8751   54.4921   28.4818 N   0  0  0  0  0  0
    6.0496   54.5326   27.1520 C   0  0  0  0  0  0
    7.1044   54.7935   26.5785 O   0  0  0  0  0  0
    0.7046   51.1096   27.4282 Cl  0  0  0  0  0  0
    0.5667   55.0387   31.4180 H   0  0  0  0  0  0
   -0.6732   52.9140   31.6816 H   0  0  0  0  0  0
   -0.6469   51.2358   29.8807 H   0  0  0  0  0  0
    1.9537   55.4146   29.4312 H   0  0  0  0  0  0
    0.9738   53.3612   25.8860 H   0  0  0  0  0  0
    6.9379   54.8986   24.2003 H   0  0  0  0  0  0
    3.2541   54.0469   20.9404 H   0  0  0  0  0  0
    5.0905   54.8320   17.8899 H   0  0  0  0  0  0
    3.7840   55.0430   19.0110 H   0  0  0  0  0  0
    4.5655   52.4822   19.7198 H   0  0  0  0  0  0
    5.1976   52.5037   18.1194 H   0  0  0  0  0  0
    3.0334   52.7618   17.0932 H   0  0  0  0  0  0
    2.2287   53.2029   18.6182 H   0  0  0  0  0  0
    2.2966   50.5965   16.4322 H   0  0  0  0  0  0
    0.8646   51.1899   17.3378 H   0  0  0  0  0  0
    0.6696   48.6934   17.0256 H   0  0  0  0  0  0
    2.3040   48.4716   17.6087 H   0  0  0  0  0  0
    1.3883   49.2168   21.0382 H   0  0  0  0  0  0
    2.7314   48.7810   20.0072 H   0  0  0  0  0  0
    1.3444   51.5351   20.0551 H   0  0  0  0  0  0
    3.0088   51.1431   20.5662 H   0  0  0  0  0  0
    8.2431   55.3342   22.4246 H   0  0  0  0  0  0
    6.6155   54.7217   29.1310 H   0  0  0  0  0  0
    3.5788   50.6061   18.3248 H   0  0  0  0  0  0
  1  6  2  0  0  0
  1  2  1  0  0  0
  1 38  1  0  0  0
  2  3  2  0  0  0
  2 39  1  0  0  0
  3  4  1  0  0  0
  3 40  1  0  0  0
  4  5  2  0  0  0
  4 37  1  0  0  0
  5  6  1  0  0  0
  5  7  1  0  0  0
  6 41  1  0  0  0
  7 31  2  0  0  0
  7  8  1  0  0  0
  8  9  2  0  0  0
  8 42  1  0  0  0
  9 17  1  0  0  0
  9 10  1  0  0  0
 10 11  1  0  0  0
 10 30  2  0  0  0
 11 16  2  0  0  0
 11 12  1  0  0  0
 12 13  2  0  0  0
 12 43  1  0  0  0
 13 14  1  0  0  0
 13 29  1  0  0  0
 14 15  2  0  0  0
 14 19  1  0  0  0
 15 16  1  0  0  0
 15 44  1  0  0  0
 16 17  1  0  0  0
 17 18  1  0  0  0
 19 20  1  0  0  0
 20 21  1  0  0  0
 20 45  1  0  0  0
 20 46  1  0  0  0
 21 22  1  0  0  0
 21 47  1  0  0  0
 21 48  1  0  0  0
 22 23  1  0  0  0
 22 49  1  0  0  0
 22 50  1  0  0  0
 23 28  1  0  0  0
 23 24  1  0  0  0
 23 61  1  0  0  0
 24 25  1  0  0  0
 24 51  1  0  0  0
 24 52  1  0  0  0
 25 26  1  0  0  0
 25 53  1  0  0  0
 25 54  1  0  0  0
 26 27  1  0  0  0
 27 28  1  0  0  0
 27 55  1  0  0  0
 27 56  1  0  0  0
 28 57  1  0  0  0
 28 58  1  0  0  0
 29 59  1  0  0  0
 30 35  1  0  0  0
 30 31  1  0  0  0
 31 32  1  0  0  0
 32 33  2  0  0  0
 32 34  1  0  0  0
 34 35  1  0  0  0
 34 60  1  0  0  0
 35 36  2  0  0  0
M  CHG  1  23   1
M  END
> <i_i_glide_confnum>
99

> <i_i_glide_lignum>
17

> <i_i_glide_posenum>
16

> <i_i_glide_rotatable_bonds>
7

> <i_m_Source_File_Index>
36

> <b_m_subgroup_collapsed>
0

> <r_i_docking_score>
-10.7108

> <r_i_glide_ecoul>
-16.3701

> <r_i_glide_eff_state_penalty>
0

> <r_i_glide_einternal>
2.56688

> <r_i_glide_emodel>
-117.473

> <r_i_glide_energy>
-66.7044

> <r_i_glide_erotb>
0.398113

> <r_i_glide_esite>
-0.0976505

> <r_i_glide_evdw>
-50.3343

> <r_i_glide_gscore>
-10.7108

> <r_i_glide_hbond>
-0.931866

> <r_i_glide_ligand_efficiency>
-0.297521

> <r_i_glide_ligand_efficiency_ln>
-2.3368

> <r_i_glide_ligand_efficiency_sa>
-0.982392

> <r_i_glide_lipo>
-3.28034

> <r_i_glide_metal>
0

> <r_i_glide_rewards>
-1.82678

> <s_i_glide_gridfile>
wee1_glide-grid

> <s_m_Source_File>
wee1_actives_glide_SP.sdf

> <s_m_Source_Path>
/Users/zhangxujun/Desktop

> <s_m_entry_id>
174

> <s_m_entry_name>
wee1_actives_glide_SP.36

> <s_m_subgroup_title>
wee1_actives_glide_SP

> <s_m_subgroupid>
wee1_actives_glide_SP


$$$$
