CHEMBL441695_37
                    3D
 Schrodinger Suite 2024-2.
 36 40  0  0  1  0            999 V2000
    0.5402   52.8631   30.8155 C   0  0  0  0  0  0
    1.7411   52.2012   30.5939 C   0  0  0  0  0  0
    2.4055   52.3613   29.3799 C   0  0  0  0  0  0
    1.9109   53.2409   28.4060 C   0  0  0  0  0  0
    0.7030   53.8996   28.6465 C   0  0  0  0  0  0
    0.0190   53.7054   29.8423 C   0  0  0  0  0  0
    2.7170   53.5518   27.1895 C   0  0  0  0  0  0
    2.1985   53.3485   25.8972 C   0  0  0  0  0  0
    3.0275   53.6536   24.7986 C   0  0  0  0  0  0
    4.3506   54.1311   24.9414 C   0  0  0  0  0  0
    4.8717   54.2998   23.6529 C   0  0  0  0  0  0
    6.0957   54.7523   23.1242 C   0  0  0  0  0  0
    6.2219   54.8855   21.7414 C   0  0  0  0  0  0
    5.1880   54.4971   20.8836 C   0  0  0  0  0  0
    3.9774   53.9976   21.3754 C   0  0  0  0  0  0
    3.8379   53.9292   22.7656 C   0  0  0  0  0  0
    2.7220   53.5265   23.4643 O   0  0  0  0  0  0
    7.3875   55.3893   21.2267 O   0  0  0  0  0  0
    4.8237   54.3436   26.2395 C   0  0  0  0  0  0
    4.0162   54.0745   27.3169 C   0  0  0  0  0  0
    4.7811   54.4883   28.5259 C   0  0  0  0  0  0
    4.4181   54.4966   29.6959 O   0  0  0  0  0  0
    5.9774   54.8964   28.0802 N   0  0  0  0  0  0
    6.1159   54.8587   26.7463 C   0  0  0  0  0  0
    7.1014   55.2091   26.1132 O   0  0  0  0  0  0
    0.0131   52.7315   31.7502 H   0  0  0  0  0  0
    2.1523   51.5838   31.3764 H   0  0  0  0  0  0
    3.3466   51.8555   29.2204 H   0  0  0  0  0  0
    0.3104   54.6022   27.9323 H   0  0  0  0  0  0
   -0.8943   54.2394   30.0327 H   0  0  0  0  0  0
    1.2007   52.9614   25.7518 H   0  0  0  0  0  0
    6.9132   55.0450   23.7607 H   0  0  0  0  0  0
    5.3234   54.5917   19.8158 H   0  0  0  0  0  0
    3.1730   53.7054   20.7148 H   0  0  0  0  0  0
    8.0675   55.5322   21.8918 H   0  0  0  0  0  0
    6.7002   55.2541   28.6961 H   0  0  0  0  0  0
  1  6  2  0  0  0
  1  2  1  0  0  0
  1 26  1  0  0  0
  2  3  2  0  0  0
  2 27  1  0  0  0
  3  4  1  0  0  0
  3 28  1  0  0  0
  4  5  2  0  0  0
  4  7  1  0  0  0
  5  6  1  0  0  0
  5 29  1  0  0  0
  6 30  1  0  0  0
  7 20  2  0  0  0
  7  8  1  0  0  0
  8  9  2  0  0  0
  8 31  1  0  0  0
  9 17  1  0  0  0
  9 10  1  0  0  0
 10 11  1  0  0  0
 10 19  2  0  0  0
 11 16  2  0  0  0
 11 12  1  0  0  0
 12 13  2  0  0  0
 12 32  1  0  0  0
 13 14  1  0  0  0
 13 18  1  0  0  0
 14 15  2  0  0  0
 14 33  1  0  0  0
 15 16  1  0  0  0
 15 34  1  0  0  0
 16 17  1  0  0  0
 18 35  1  0  0  0
 19 24  1  0  0  0
 19 20  1  0  0  0
 20 21  1  0  0  0
 21 22  2  0  0  0
 21 23  1  0  0  0
 23 24  1  0  0  0
 23 36  1  0  0  0
 24 25  2  0  0  0
M  END
> <i_i_glide_confnum>
3

> <i_i_glide_lignum>
38

> <i_i_glide_posenum>
266

> <i_i_glide_rotatable_bonds>
2

> <i_m_Source_File_Index>
15

> <b_m_subgroup_collapsed>
0

> <r_i_docking_score>
-9.70337

> <r_i_glide_ecoul>
-10.4881

> <r_i_glide_eff_state_penalty>
0

> <r_i_glide_einternal>
0.766982

> <r_i_glide_emodel>
-80.1988

> <r_i_glide_energy>
-48.1913

> <r_i_glide_erotb>
0.12131

> <r_i_glide_esite>
0

> <r_i_glide_evdw>
-37.7032

> <r_i_glide_gscore>
-9.70337

> <r_i_glide_hbond>
-0.610092

> <r_i_glide_ligand_efficiency>
-0.388135

> <r_i_glide_ligand_efficiency_ln>
-2.29999

> <r_i_glide_ligand_efficiency_sa>
-1.13491

> <r_i_glide_lipo>
-2.90063

> <r_i_glide_metal>
0

> <r_i_glide_rewards>
-2.85558

> <s_i_glide_gridfile>
wee1_glide-grid

> <s_m_Source_File>
wee1_actives_glide_SP.sdf

> <s_m_Source_Path>
/Users/zhangxujun/Desktop

> <s_m_entry_id>
153

> <s_m_entry_name>
wee1_actives_glide_SP.15

> <s_m_subgroup_title>
wee1_actives_glide_SP

> <s_m_subgroupid>
wee1_actives_glide_SP


$$$$
