CHEMBL486828_86
                    3D
 Schrodinger Suite 2024-2.
 59 64  0  0  1  0            999 V2000
   -0.1928   53.0675   30.4794 C   0  0  0  0  0  0
    0.3788   54.3206   30.2881 C   0  0  0  0  0  0
    1.2147   54.5514   29.1946 C   0  0  0  0  0  0
    1.5390   53.5000   28.3102 C   0  0  0  0  0  0
    0.9239   52.2474   28.5097 C   0  0  0  0  0  0
    0.0501   52.0478   29.5716 C   0  0  0  0  0  0
    1.2093   50.8969   27.4749 Cl  0  0  0  0  0  0
    2.5130   53.7050   27.1985 C   0  0  0  0  0  0
    2.0705   53.5967   25.8744 C   0  0  0  0  0  0
    2.9892   53.8111   24.8348 C   0  0  0  0  0  0
    4.3454   54.1482   25.0842 C   0  0  0  0  0  0
    4.9728   54.3423   23.8301 C   0  0  0  0  0  0
    6.2752   54.7211   23.4359 C   0  0  0  0  0  0
    6.5522   54.8970   22.0814 C   0  0  0  0  0  0
    5.5801   54.6439   21.1199 C   0  0  0  0  0  0
    4.2977   54.2152   21.4593 C   0  0  0  0  0  0
    3.9942   54.0946   22.8240 C   0  0  0  0  0  0
    2.8070   53.7611   23.4620 N   0  0  0  0  0  0
    1.5353   53.4318   22.8180 C   0  0  0  0  0  0
    1.1769   51.9355   22.9768 C   0  0  0  0  0  0
   -0.3047   51.6273   22.6675 C   0  0  0  0  0  0
   -1.2250   52.2704   23.6150 N   0  0  0  0  0  0
   -1.2415   51.6019   24.9239 C   0  0  0  0  0  0
   -2.2073   52.2961   25.9087 C   0  0  0  0  0  0
   -3.5167   52.3861   25.3555 O   0  0  0  0  0  0
   -3.5546   53.0243   24.0811 C   0  0  0  0  0  0
   -2.5907   52.3413   23.0820 C   0  0  0  0  0  0
    7.8039   55.2969   21.6816 O   0  0  0  0  0  0
    4.7556   54.2356   26.4278 C   0  0  0  0  0  0
    3.8594   54.0089   27.4432 C   0  0  0  0  0  0
    4.6036   54.1725   28.7267 C   0  0  0  0  0  0
    4.1871   54.0656   29.8781 O   0  0  0  0  0  0
    5.8600   54.4963   28.3754 N   0  0  0  0  0  0
    6.0573   54.5746   27.0501 C   0  0  0  0  0  0
    7.1044   54.8957   26.5061 O   0  0  0  0  0  0
    1.8012   56.1665   28.9598 Cl  0  0  0  0  0  0
   -0.8885   52.8955   31.2863 H   0  0  0  0  0  0
    0.1479   55.1244   30.9713 H   0  0  0  0  0  0
   -0.4367   51.0900   29.6923 H   0  0  0  0  0  0
    1.0382   53.3632   25.6648 H   0  0  0  0  0  0
    7.0525   54.9103   24.1553 H   0  0  0  0  0  0
    5.8278   54.7749   20.0771 H   0  0  0  0  0  0
    3.5629   54.0293   20.6881 H   0  0  0  0  0  0
    1.5632   53.6970   21.7628 H   0  0  0  0  0  0
    0.7763   54.0662   23.2797 H   0  0  0  0  0  0
    1.4352   51.5590   23.9666 H   0  0  0  0  0  0
    1.8006   51.3567   22.2951 H   0  0  0  0  0  0
   -0.4770   50.5493   22.6252 H   0  0  0  0  0  0
   -0.5147   52.0120   21.6671 H   0  0  0  0  0  0
   -0.2430   51.5952   25.3464 H   0  0  0  0  0  0
   -1.5150   50.5519   24.8078 H   0  0  0  0  0  0
   -2.2490   51.7436   26.8481 H   0  0  0  0  0  0
   -1.8360   53.2966   26.1381 H   0  0  0  0  0  0
   -4.5743   52.9793   23.7022 H   0  0  0  0  0  0
   -3.2946   54.0794   24.1821 H   0  0  0  0  0  0
   -2.9503   51.3416   22.8310 H   0  0  0  0  0  0
   -2.5731   52.8966   22.1445 H   0  0  0  0  0  0
    8.4538   55.3025   22.3984 H   0  0  0  0  0  0
    6.5817   54.7276   29.0439 H   0  0  0  0  0  0
  1  6  2  0  0  0
  1  2  1  0  0  0
  1 37  1  0  0  0
  2  3  2  0  0  0
  2 38  1  0  0  0
  3  4  1  0  0  0
  3 36  1  0  0  0
  4  5  2  0  0  0
  4  8  1  0  0  0
  5  6  1  0  0  0
  5  7  1  0  0  0
  6 39  1  0  0  0
  8 30  2  0  0  0
  8  9  1  0  0  0
  9 10  2  0  0  0
  9 40  1  0  0  0
 10 18  1  0  0  0
 10 11  1  0  0  0
 11 12  1  0  0  0
 11 29  2  0  0  0
 12 17  2  0  0  0
 12 13  1  0  0  0
 13 14  2  0  0  0
 13 41  1  0  0  0
 14 15  1  0  0  0
 14 28  1  0  0  0
 15 16  2  0  0  0
 15 42  1  0  0  0
 16 17  1  0  0  0
 16 43  1  0  0  0
 17 18  1  0  0  0
 18 19  1  0  0  0
 19 20  1  0  0  0
 19 44  1  0  0  0
 19 45  1  0  0  0
 20 21  1  0  0  0
 20 46  1  0  0  0
 20 47  1  0  0  0
 21 22  1  0  0  0
 21 48  1  0  0  0
 21 49  1  0  0  0
 22 27  1  0  0  0
 22 23  1  0  0  0
 23 24  1  0  0  0
 23 50  1  0  0  0
 23 51  1  0  0  0
 24 25  1  0  0  0
 24 52  1  0  0  0
 24 53  1  0  0  0
 25 26  1  0  0  0
 26 27  1  0  0  0
 26 54  1  0  0  0
 26 55  1  0  0  0
 27 56  1  0  0  0
 27 57  1  0  0  0
 28 58  1  0  0  0
 29 34  1  0  0  0
 29 30  1  0  0  0
 30 31  1  0  0  0
 31 32  2  0  0  0
 31 33  1  0  0  0
 33 34  1  0  0  0
 33 59  1  0  0  0
 34 35  2  0  0  0
M  END
> <i_i_glide_confnum>
24

> <i_i_glide_lignum>
87

> <i_i_glide_posenum>
378

> <i_i_glide_rotatable_bonds>
6

> <i_m_Source_File_Index>
11

> <b_m_subgroup_collapsed>
0

> <r_i_docking_score>
-11.5216

> <r_i_glide_ecoul>
-12.6955

> <r_i_glide_eff_state_penalty>
0

> <r_i_glide_einternal>
3.58006

> <r_i_glide_emodel>
-113.503

> <r_i_glide_energy>
-67.1671

> <r_i_glide_erotb>
0.209511

> <r_i_glide_esite>
0

> <r_i_glide_evdw>
-54.4716

> <r_i_glide_gscore>
-11.5216

> <r_i_glide_hbond>
-0.914658

> <r_i_glide_ligand_efficiency>
-0.320046

> <r_i_glide_ligand_efficiency_ln>
-2.51371

> <r_i_glide_ligand_efficiency_sa>
-1.05677

> <r_i_glide_lipo>
-4.19172

> <r_i_glide_metal>
0

> <r_i_glide_rewards>
-1.99687

> <s_i_glide_gridfile>
wee1_glide-grid

> <s_m_Source_File>
wee1_actives_glide_SP.sdf

> <s_m_Source_Path>
/Users/zhangxujun/Desktop

> <s_m_entry_id>
149

> <s_m_entry_name>
wee1_actives_glide_SP.11

> <s_m_subgroup_title>
wee1_actives_glide_SP

> <s_m_subgroupid>
wee1_actives_glide_SP


$$$$
