CHEMBL255427_136
                    3D
 Schrodinger Suite 2024-2.
 63 68  0  0  1  0            999 V2000
    1.3144   53.7001   23.1130 C   0  0  0  0  0  0
    2.6118   53.9765   23.7175 N   0  0  0  0  0  0
    2.8723   53.9381   25.0699 C   0  0  0  0  0  0
    2.0013   53.6955   26.1373 C   0  0  0  0  0  0
    2.4962   53.7900   27.4406 C   0  0  0  0  0  0
    3.8581   54.0666   27.6320 C   0  0  0  0  0  0
    4.7223   54.2732   26.5831 C   0  0  0  0  0  0
    4.2498   54.2247   25.2609 C   0  0  0  0  0  0
    4.8263   54.4138   23.9836 C   0  0  0  0  0  0
    3.7766   54.2888   23.0415 C   0  0  0  0  0  0
    3.9858   54.4901   21.6822 C   0  0  0  0  0  0
    5.2846   54.7277   21.2239 C   0  0  0  0  0  0
    6.3262   54.8972   22.1456 C   0  0  0  0  0  0
    6.1206   54.7183   23.5163 C   0  0  0  0  0  0
    7.5686   55.2963   21.7148 O   0  0  0  0  0  0
    5.5774   54.8229   19.8726 O   0  0  0  0  0  0
    4.5928   54.5338   18.8681 C   0  0  0  0  0  0
    4.2925   53.0302   18.6319 C   0  0  0  0  0  0
    3.4174   52.3232   19.6905 C   0  0  0  0  0  0
    3.1044   50.8780   19.2799 N   0  3  0  0  0  0
    2.1209   50.7330   18.1019 C   0  0  0  0  0  0
    1.5260   49.3284   18.2513 C   0  0  0  0  0  0
    1.9368   48.8071   19.6326 C   0  0  0  0  0  0
    2.4980   50.0065   20.3921 C   0  0  0  0  0  0
    6.0618   54.5623   27.1499 C   0  0  0  0  0  0
    7.1044   54.8341   26.5658 O   0  0  0  0  0  0
    5.9043   54.4966   28.4811 N   0  0  0  0  0  0
    4.6595   54.2038   28.8816 C   0  0  0  0  0  0
    4.2956   54.0969   30.0503 O   0  0  0  0  0  0
    1.5514   53.6230   28.5810 C   0  0  0  0  0  0
    1.4476   54.6422   29.5389 C   0  0  0  0  0  0
    0.6402   54.4917   30.6605 C   0  0  0  0  0  0
   -0.0955   53.3234   30.8258 C   0  0  0  0  0  0
   -0.0633   52.3290   29.8561 C   0  0  0  0  0  0
    0.7474   52.4758   28.7333 C   0  0  0  0  0  0
    0.7223   51.2136   27.5543 Cl  0  0  0  0  0  0
    0.5304   54.2025   23.6809 H   0  0  0  0  0  0
    1.2808   54.0547   22.0841 H   0  0  0  0  0  0
    1.1375   52.6238   23.1255 H   0  0  0  0  0  0
    0.9603   53.4759   25.9625 H   0  0  0  0  0  0
    3.1500   54.4659   21.0123 H   0  0  0  0  0  0
    6.9456   54.8522   24.1946 H   0  0  0  0  0  0
    8.2350   55.3102   22.4127 H   0  0  0  0  0  0
    5.0119   54.9306   17.9422 H   0  0  0  0  0  0
    3.6801   55.1123   19.0158 H   0  0  0  0  0  0
    5.2394   52.4989   18.5336 H   0  0  0  0  0  0
    3.8068   52.9415   17.6608 H   0  0  0  0  0  0
    2.4481   52.7999   19.8544 H   0  0  0  0  0  0
    3.9555   52.1921   20.6293 H   0  0  0  0  0  0
    2.6853   50.8968   17.1809 H   0  0  0  0  0  0
    1.3649   51.5105   18.2169 H   0  0  0  0  0  0
    1.8983   48.6739   17.4612 H   0  0  0  0  0  0
    0.4407   49.3674   18.1513 H   0  0  0  0  0  0
    1.0983   48.3554   20.1628 H   0  0  0  0  0  0
    2.7065   48.0409   19.5355 H   0  0  0  0  0  0
    1.7227   50.6121   20.8643 H   0  0  0  0  0  0
    3.2659   49.7839   21.1336 H   0  0  0  0  0  0
    6.6558   54.7097   29.1226 H   0  0  0  0  0  0
    2.0264   55.5492   29.4321 H   0  0  0  0  0  0
    0.5976   55.2743   31.4043 H   0  0  0  0  0  0
   -0.7151   53.1922   31.6962 H   0  0  0  0  0  0
   -0.6659   51.4391   29.9849 H   0  0  0  0  0  0
    4.0036   50.4966   18.9544 H   0  0  0  0  0  0
  1  2  1  0  0  0
  1 37  1  0  0  0
  1 38  1  0  0  0
  1 39  1  0  0  0
  2 10  1  0  0  0
  2  3  1  0  0  0
  3  8  2  0  0  0
  3  4  1  0  0  0
  4  5  2  0  0  0
  4 40  1  0  0  0
  5  6  1  0  0  0
  5 30  1  0  0  0
  6 28  1  0  0  0
  6  7  2  0  0  0
  7  8  1  0  0  0
  7 25  1  0  0  0
  8  9  1  0  0  0
  9 14  2  0  0  0
  9 10  1  0  0  0
 10 11  2  0  0  0
 11 12  1  0  0  0
 11 41  1  0  0  0
 12 13  2  0  0  0
 12 16  1  0  0  0
 13 14  1  0  0  0
 13 15  1  0  0  0
 14 42  1  0  0  0
 15 43  1  0  0  0
 16 17  1  0  0  0
 17 18  1  0  0  0
 17 44  1  0  0  0
 17 45  1  0  0  0
 18 19  1  0  0  0
 18 46  1  0  0  0
 18 47  1  0  0  0
 19 20  1  0  0  0
 19 48  1  0  0  0
 19 49  1  0  0  0
 20 24  1  0  0  0
 20 21  1  0  0  0
 20 63  1  0  0  0
 21 22  1  0  0  0
 21 50  1  0  0  0
 21 51  1  0  0  0
 22 23  1  0  0  0
 22 52  1  0  0  0
 22 53  1  0  0  0
 23 24  1  0  0  0
 23 54  1  0  0  0
 23 55  1  0  0  0
 24 56  1  0  0  0
 24 57  1  0  0  0
 25 26  2  0  0  0
 25 27  1  0  0  0
 27 28  1  0  0  0
 27 58  1  0  0  0
 28 29  2  0  0  0
 30 35  2  0  0  0
 30 31  1  0  0  0
 31 32  2  0  0  0
 31 59  1  0  0  0
 32 33  1  0  0  0
 32 60  1  0  0  0
 33 34  2  0  0  0
 33 61  1  0  0  0
 34 35  1  0  0  0
 34 62  1  0  0  0
 35 36  1  0  0  0
M  CHG  1  20   1
M  END
> <i_i_glide_confnum>
37

> <i_i_glide_lignum>
137

> <i_i_glide_posenum>
198

> <i_i_glide_rotatable_bonds>
7

> <i_m_Source_File_Index>
20

> <b_m_subgroup_collapsed>
0

> <r_i_docking_score>
-11.1169

> <r_i_glide_ecoul>
-16.731

> <r_i_glide_eff_state_penalty>
0

> <r_i_glide_einternal>
2.18221

> <r_i_glide_emodel>
-119.046

> <r_i_glide_energy>
-66.6906

> <r_i_glide_erotb>
0.400972

> <r_i_glide_esite>
-0.1

> <r_i_glide_evdw>
-49.9596

> <r_i_glide_gscore>
-11.1169

> <r_i_glide_hbond>
-0.863394

> <r_i_glide_ligand_efficiency>
-0.308802

> <r_i_glide_ligand_efficiency_ln>
-2.4254

> <r_i_glide_ligand_efficiency_sa>
-1.01964

> <r_i_glide_lipo>
-3.448

> <r_i_glide_metal>
0

> <r_i_glide_rewards>
-2.09883

> <s_i_glide_gridfile>
wee1_glide-grid

> <s_m_Source_File>
wee1_actives_glide_SP.sdf

> <s_m_Source_Path>
/Users/zhangxujun/Desktop

> <s_m_entry_id>
158

> <s_m_entry_name>
wee1_actives_glide_SP.20

> <s_m_subgroup_title>
wee1_actives_glide_SP

> <s_m_subgroupid>
wee1_actives_glide_SP


$$$$
