CHEMBL270866_28
                    3D
 Schrodinger Suite 2024-2.
 63 68  0  0  1  0            999 V2000
    1.2826   53.8689   23.1622 C   0  0  0  0  0  0
    2.6113   54.0617   23.7221 N   0  0  0  0  0  0
    2.8847   53.9738   25.0657 C   0  0  0  0  0  0
    2.0226   53.6815   26.1218 C   0  0  0  0  0  0
    2.5242   53.7510   27.4192 C   0  0  0  0  0  0
    3.8727   54.0555   27.6263 C   0  0  0  0  0  0
    4.7323   54.2997   26.5855 C   0  0  0  0  0  0
    4.2576   54.2674   25.2638 C   0  0  0  0  0  0
    4.8281   54.4705   23.9927 C   0  0  0  0  0  0
    3.7800   54.3485   23.0393 C   0  0  0  0  0  0
    4.0092   54.5243   21.6761 C   0  0  0  0  0  0
    5.3169   54.8015   21.2592 C   0  0  0  0  0  0
    6.3476   54.9546   22.1844 C   0  0  0  0  0  0
    6.1260   54.7726   23.5450 C   0  0  0  0  0  0
    7.5044   55.2967   21.8056 O   0  5  0  0  0  0
    5.7219   54.8926   19.4611 S   0  0  2  0  0  0
    5.1044   56.1924   18.9447 O   0  0  0  0  0  0
    4.6523   53.5227   18.8085 C   0  0  0  0  0  0
    4.5908   52.2661   19.7029 C   0  0  0  0  0  0
    3.3298   51.4639   19.3627 C   0  0  0  0  0  0
    3.0456   50.4763   20.5037 N   0  3  0  0  0  0
    1.9781   49.4376   20.1523 C   0  0  0  0  0  0
    1.6025   48.8943   21.5221 C   0  0  0  0  0  0
    1.7554   50.0298   22.5260 C   0  0  0  0  0  0
    2.5079   51.1315   21.7891 C   0  0  0  0  0  0
    6.0659   54.5920   27.1623 C   0  0  0  0  0  0
    7.1044   54.8958   26.5902 O   0  0  0  0  0  0
    5.9044   54.4966   28.4907 N   0  0  0  0  0  0
    4.6572   54.1876   28.8818 C   0  0  0  0  0  0
    4.2724   54.0728   30.0435 O   0  0  0  0  0  0
    1.5843   53.4644   28.5195 C   0  0  0  0  0  0
    1.0096   52.1895   28.5663 C   0  0  0  0  0  0
    0.0877   51.8702   29.5501 C   0  0  0  0  0  0
   -0.2284   52.8067   30.5211 C   0  0  0  0  0  0
    0.3188   54.0856   30.4867 C   0  0  0  0  0  0
    1.2090   54.4301   29.4726 C   0  0  0  0  0  0
    1.7810   56.0654   29.4033 Cl  0  0  0  0  0  0
    0.9678   52.8398   23.3282 H   0  0  0  0  0  0
    0.5768   54.5130   23.6816 H   0  0  0  0  0  0
    1.2706   54.0966   22.0989 H   0  0  0  0  0  0
    0.9865   53.4355   25.9453 H   0  0  0  0  0  0
    3.2134   54.4278   20.9556 H   0  0  0  0  0  0
    6.9516   54.8931   24.2252 H   0  0  0  0  0  0
    5.0148   53.2463   17.8178 H   0  0  0  0  0  0
    3.6643   53.9618   18.6635 H   0  0  0  0  0  0
    4.5701   52.4554   20.7577 H   0  0  0  0  0  0
    5.5168   51.6967   19.6817 H   0  0  0  0  0  0
    3.4299   50.8955   18.4401 H   0  0  0  0  0  0
    2.4372   52.0858   19.2768 H   0  0  0  0  0  0
    2.4145   48.7172   19.4565 H   0  0  0  0  0  0
    1.1644   49.9695   19.6546 H   0  0  0  0  0  0
    2.3044   48.0969   21.7730 H   0  0  0  0  0  0
    0.5877   48.4967   21.5253 H   0  0  0  0  0  0
    0.7834   50.3917   22.8640 H   0  0  0  0  0  0
    2.3031   49.7013   23.4121 H   0  0  0  0  0  0
    1.8322   51.9110   21.4401 H   0  0  0  0  0  0
    3.3272   51.5854   22.3433 H   0  0  0  0  0  0
    6.6478   54.7142   29.1405 H   0  0  0  0  0  0
    1.2665   51.4439   27.8272 H   0  0  0  0  0  0
   -0.3784   50.8967   29.5703 H   0  0  0  0  0  0
   -0.9323   52.5308   31.2817 H   0  0  0  0  0  0
    0.0354   54.8127   31.2337 H   0  0  0  0  0  0
    3.9038   49.9849   20.7080 H   0  0  0  0  0  0
  1  2  1  0  0  0
  1 38  1  0  0  0
  1 39  1  0  0  0
  1 40  1  0  0  0
  2 10  1  0  0  0
  2  3  1  0  0  0
  3  8  2  0  0  0
  3  4  1  0  0  0
  4  5  2  0  0  0
  4 41  1  0  0  0
  5  6  1  0  0  0
  5 31  1  0  0  0
  6 29  1  0  0  0
  6  7  2  0  0  0
  7  8  1  0  0  0
  7 26  1  0  0  0
  8  9  1  0  0  0
  9 14  2  0  0  0
  9 10  1  0  0  0
 10 11  2  0  0  0
 11 12  1  0  0  0
 11 42  1  0  0  0
 12 13  2  0  0  0
 12 16  1  0  0  0
 13 14  1  0  0  0
 13 15  1  0  0  0
 14 43  1  0  0  0
 16 17  2  0  0  0
 16 18  1  0  0  0
 18 19  1  0  0  0
 18 44  1  0  0  0
 18 45  1  0  0  0
 19 20  1  0  0  0
 19 46  1  0  0  0
 19 47  1  0  0  0
 20 21  1  0  0  0
 20 48  1  0  0  0
 20 49  1  0  0  0
 21 25  1  0  0  0
 21 22  1  0  0  0
 21 63  1  0  0  0
 22 23  1  0  0  0
 22 50  1  0  0  0
 22 51  1  0  0  0
 23 24  1  0  0  0
 23 52  1  0  0  0
 23 53  1  0  0  0
 24 25  1  0  0  0
 24 54  1  0  0  0
 24 55  1  0  0  0
 25 56  1  0  0  0
 25 57  1  0  0  0
 26 27  2  0  0  0
 26 28  1  0  0  0
 28 29  1  0  0  0
 28 58  1  0  0  0
 29 30  2  0  0  0
 31 36  2  0  0  0
 31 32  1  0  0  0
 32 33  2  0  0  0
 32 59  1  0  0  0
 33 34  1  0  0  0
 33 60  1  0  0  0
 34 35  2  0  0  0
 34 61  1  0  0  0
 35 36  1  0  0  0
 35 62  1  0  0  0
 36 37  1  0  0  0
M  CHG  2  15  -1  21   1
M  END
> <i_i_glide_confnum>
104

> <i_i_glide_lignum>
29

> <i_i_glide_posenum>
244

> <i_i_glide_rotatable_bonds>
6

> <i_m_Source_File_Index>
42

> <b_m_subgroup_collapsed>
0

> <r_i_docking_score>
-10.4595

> <r_i_glide_ecoul>
-9.6401

> <r_i_glide_eff_state_penalty>
0

> <r_i_glide_einternal>
8.57955

> <r_i_glide_emodel>
-103.613

> <r_i_glide_energy>
-59.9346

> <r_i_glide_erotb>
0.359295

> <r_i_glide_esite>
-0.0243607

> <r_i_glide_evdw>
-50.2945

> <r_i_glide_gscore>
-10.4595

> <r_i_glide_hbond>
-0.706568

> <r_i_glide_ligand_efficiency>
-0.28269

> <r_i_glide_ligand_efficiency_ln>
-2.26843

> <r_i_glide_ligand_efficiency_sa>
-0.941986

> <r_i_glide_lipo>
-3.93281

> <r_i_glide_metal>
0

> <r_i_glide_rewards>
-2.19435

> <s_i_glide_gridfile>
wee1_glide-grid

> <s_m_Source_File>
wee1_actives_glide_SP.sdf

> <s_m_Source_Path>
/Users/zhangxujun/Desktop

> <s_m_entry_id>
180

> <s_m_entry_name>
wee1_actives_glide_SP.42

> <s_m_subgroup_title>
wee1_actives_glide_SP

> <s_m_subgroupid>
wee1_actives_glide_SP


$$$$
