CHEMBL404335_113
                    3D
 Schrodinger Suite 2024-2.
 63 68  0  0  1  0            999 V2000
    1.5484   53.3861   22.7762 C   0  0  0  0  0  0
    2.7953   53.7650   23.4289 N   0  0  0  0  0  0
    2.9792   53.8085   24.8003 C   0  0  0  0  0  0
    2.0733   53.5624   25.8456 C   0  0  0  0  0  0
    2.5236   53.6963   27.1647 C   0  0  0  0  0  0
    3.8663   54.0171   27.4044 C   0  0  0  0  0  0
    4.7527   54.2543   26.3853 C   0  0  0  0  0  0
    4.3327   54.1688   25.0442 C   0  0  0  0  0  0
    4.9557   54.3617   23.7888 C   0  0  0  0  0  0
    3.9818   54.0965   22.7897 C   0  0  0  0  0  0
    4.2824   54.1900   21.4266 C   0  0  0  0  0  0
    5.5578   54.6254   21.0620 C   0  0  0  0  0  0
    6.5331   54.8967   22.0333 C   0  0  0  0  0  0
    6.2516   54.7413   23.3889 C   0  0  0  0  0  0
    7.8012   55.2973   21.6814 O   0  0  0  0  0  0
    5.9581   54.7756   19.3332 S   0  0  0  0  0  0
    4.4914   55.2920   18.3819 C   0  0  0  0  0  0
    4.2269   54.4737   17.1014 C   0  0  0  0  0  0
    4.0225   52.9585   17.3169 C   0  0  0  0  0  0
    2.8611   52.6887   18.2980 N   0  3  0  0  0  0
    2.6844   51.1984   18.6363 C   0  0  0  0  0  0
    1.2902   51.1245   19.2520 C   0  0  0  0  0  0
    0.4907   52.2841   18.6494 C   0  0  0  0  0  0
    1.4653   53.1149   17.8086 C   0  0  0  0  0  0
    6.0601   54.5840   27.0007 C   0  0  0  0  0  0
    7.1044   54.8968   26.4501 O   0  0  0  0  0  0
    5.8744   54.4965   28.3255 N   0  0  0  0  0  0
    4.6248   54.1605   28.6836 C   0  0  0  0  0  0
    4.2270   54.0234   29.8381 O   0  0  0  0  0  0
    1.5700   53.4537   28.2781 C   0  0  0  0  0  0
    1.0092   52.1776   28.4134 C   0  0  0  0  0  0
    0.1670   51.8813   29.4793 C   0  0  0  0  0  0
   -0.0960   52.8462   30.4450 C   0  0  0  0  0  0
    0.4149   54.1329   30.3038 C   0  0  0  0  0  0
    1.2242   54.4511   29.2124 C   0  0  0  0  0  0
    1.7601   56.0917   29.0442 Cl  0  0  0  0  0  0
    1.4316   52.3036   22.8311 H   0  0  0  0  0  0
    0.7099   53.8669   23.2821 H   0  0  0  0  0  0
    1.5472   53.6967   21.7328 H   0  0  0  0  0  0
    1.0467   53.2930   25.6468 H   0  0  0  0  0  0
    3.5380   53.9600   20.6847 H   0  0  0  0  0  0
    7.0261   54.9464   24.1071 H   0  0  0  0  0  0
    8.4292   55.2971   22.4168 H   0  0  0  0  0  0
    4.6457   56.3365   18.1097 H   0  0  0  0  0  0
    3.6046   55.2970   19.0111 H   0  0  0  0  0  0
    5.0716   54.6094   16.4237 H   0  0  0  0  0  0
    3.3673   54.8902   16.5751 H   0  0  0  0  0  0
    4.8999   52.4967   17.7719 H   0  0  0  0  0  0
    3.7920   52.4243   16.3931 H   0  0  0  0  0  0
    3.5043   50.8797   19.2817 H   0  0  0  0  0  0
    2.7474   50.6523   17.6915 H   0  0  0  0  0  0
    1.3561   51.2172   20.3372 H   0  0  0  0  0  0
    0.8241   50.1601   19.0411 H   0  0  0  0  0  0
   -0.3296   51.9193   18.0290 H   0  0  0  0  0  0
    0.0505   52.8962   19.4371 H   0  0  0  0  0  0
    1.4205   52.8567   16.7481 H   0  0  0  0  0  0
    1.3733   54.1964   17.9169 H   0  0  0  0  0  0
    6.6019   54.7169   28.9923 H   0  0  0  0  0  0
    1.2397   51.4010   27.6969 H   0  0  0  0  0  0
   -0.2695   50.8968   29.5696 H   0  0  0  0  0  0
   -0.7321   52.5977   31.2816 H   0  0  0  0  0  0
    0.1725   54.8892   31.0366 H   0  0  0  0  0  0
    3.0752   53.1828   19.1506 H   0  0  0  0  0  0
  1  2  1  0  0  0
  1 37  1  0  0  0
  1 38  1  0  0  0
  1 39  1  0  0  0
  2 10  1  0  0  0
  2  3  1  0  0  0
  3  8  2  0  0  0
  3  4  1  0  0  0
  4  5  2  0  0  0
  4 40  1  0  0  0
  5  6  1  0  0  0
  5 30  1  0  0  0
  6 28  1  0  0  0
  6  7  2  0  0  0
  7  8  1  0  0  0
  7 25  1  0  0  0
  8  9  1  0  0  0
  9 14  2  0  0  0
  9 10  1  0  0  0
 10 11  2  0  0  0
 11 12  1  0  0  0
 11 41  1  0  0  0
 12 13  2  0  0  0
 12 16  1  0  0  0
 13 14  1  0  0  0
 13 15  1  0  0  0
 14 42  1  0  0  0
 15 43  1  0  0  0
 16 17  1  0  0  0
 17 18  1  0  0  0
 17 44  1  0  0  0
 17 45  1  0  0  0
 18 19  1  0  0  0
 18 46  1  0  0  0
 18 47  1  0  0  0
 19 20  1  0  0  0
 19 48  1  0  0  0
 19 49  1  0  0  0
 20 24  1  0  0  0
 20 21  1  0  0  0
 20 63  1  0  0  0
 21 22  1  0  0  0
 21 50  1  0  0  0
 21 51  1  0  0  0
 22 23  1  0  0  0
 22 52  1  0  0  0
 22 53  1  0  0  0
 23 24  1  0  0  0
 23 54  1  0  0  0
 23 55  1  0  0  0
 24 56  1  0  0  0
 24 57  1  0  0  0
 25 26  2  0  0  0
 25 27  1  0  0  0
 27 28  1  0  0  0
 27 58  1  0  0  0
 28 29  2  0  0  0
 30 35  2  0  0  0
 30 31  1  0  0  0
 31 32  2  0  0  0
 31 59  1  0  0  0
 32 33  1  0  0  0
 32 60  1  0  0  0
 33 34  2  0  0  0
 33 61  1  0  0  0
 34 35  1  0  0  0
 34 62  1  0  0  0
 35 36  1  0  0  0
M  CHG  1  20   1
M  END
> <i_i_glide_confnum>
319

> <i_i_glide_lignum>
114

> <i_i_glide_posenum>
203

> <i_i_glide_rotatable_bonds>
7

> <i_m_Source_File_Index>
14

> <b_m_subgroup_collapsed>
0

> <r_i_docking_score>
-11.4974

> <r_i_glide_ecoul>
-15.0278

> <r_i_glide_eff_state_penalty>
0

> <r_i_glide_einternal>
3.90777

> <r_i_glide_emodel>
-122.751

> <r_i_glide_energy>
-69.0274

> <r_i_glide_erotb>
0.264988

> <r_i_glide_esite>
-0.0377058

> <r_i_glide_evdw>
-53.9996

> <r_i_glide_gscore>
-11.4974

> <r_i_glide_hbond>
-0.878767

> <r_i_glide_ligand_efficiency>
-0.319371

> <r_i_glide_ligand_efficiency_ln>
-2.50841

> <r_i_glide_ligand_efficiency_sa>
-1.05454

> <r_i_glide_lipo>
-3.89098

> <r_i_glide_metal>
0

> <r_i_glide_rewards>
-2.00073

> <s_i_glide_gridfile>
wee1_glide-grid

> <s_m_Source_File>
wee1_actives_glide_SP.sdf

> <s_m_Source_Path>
/Users/zhangxujun/Desktop

> <s_m_entry_id>
152

> <s_m_entry_name>
wee1_actives_glide_SP.14

> <s_m_subgroup_title>
wee1_actives_glide_SP

> <s_m_subgroupid>
wee1_actives_glide_SP


$$$$
