CHEMBL488899_14
                    3D
 Schrodinger Suite 2024-2.
 51 56  0  0  1  0            999 V2000
   -0.0950   53.1228   30.8170 C   0  0  0  0  0  0
    0.0388   52.0979   29.8858 C   0  0  0  0  0  0
    0.8882   52.2647   28.7966 C   0  0  0  0  0  0
    1.5887   53.4642   28.6273 C   0  0  0  0  0  0
    1.3938   54.5080   29.5396 C   0  0  0  0  0  0
    0.5635   54.3360   30.6408 C   0  0  0  0  0  0
    2.5221   53.6322   27.4823 C   0  0  0  0  0  0
    2.0313   53.4330   26.1903 C   0  0  0  0  0  0
    2.8900   53.6603   25.1018 C   0  0  0  0  0  0
    4.2372   54.0699   25.2798 C   0  0  0  0  0  0
    4.7906   54.2462   23.9995 C   0  0  0  0  0  0
    6.0664   54.6450   23.5586 C   0  0  0  0  0  0
    6.2862   54.8463   22.2030 C   0  0  0  0  0  0
    5.2721   54.6205   21.2817 C   0  0  0  0  0  0
    4.0041   54.1921   21.6732 C   0  0  0  0  0  0
    3.7639   53.9798   23.0408 C   0  0  0  0  0  0
    2.6423   53.5219   23.7456 N   0  0  0  0  0  0
    1.3249   53.0180   23.3019 C   0  0  0  0  0  0
    1.0654   52.7691   21.8046 C   0  0  0  0  0  0
    1.8533   51.7140   21.1735 N   0  0  0  0  0  0
    1.9572   50.3967   21.5981 C   0  0  0  0  0  0
    2.7044   49.6978   20.6575 C   0  0  0  0  0  0
    3.1041   50.5989   19.6822 N   0  3  0  0  0  0
    2.5346   51.8162   19.9708 C   0  0  0  0  0  0
    7.5044   55.2970   21.7681 O   0  0  0  0  0  0
    4.7181   54.1901   26.5952 C   0  0  0  0  0  0
    3.8683   53.9792   27.6545 C   0  0  0  0  0  0
    4.6662   54.1822   28.8931 C   0  0  0  0  0  0
    4.3033   54.0969   30.0638 O   0  0  0  0  0  0
    5.9043   54.4961   28.4813 N   0  0  0  0  0  0
    6.0587   54.5254   27.1487 C   0  0  0  0  0  0
    7.1025   54.7956   26.5638 O   0  0  0  0  0  0
   -0.7229   52.9758   31.6815 H   0  0  0  0  0  0
   -0.5032   51.1723   30.0199 H   0  0  0  0  0  0
    1.0060   51.4530   28.0935 H   0  0  0  0  0  0
    1.9109   55.4484   29.4114 H   0  0  0  0  0  0
    0.4409   55.1323   31.3618 H   0  0  0  0  0  0
    1.0024   53.1376   26.0436 H   0  0  0  0  0  0
    6.8663   54.8481   24.2474 H   0  0  0  0  0  0
    5.4665   54.8036   20.2349 H   0  0  0  0  0  0
    3.2419   54.0922   20.9253 H   0  0  0  0  0  0
    0.5889   53.7473   23.6509 H   0  0  0  0  0  0
    1.1163   52.1022   23.8581 H   0  0  0  0  0  0
    1.2026   53.6965   21.2819 H   0  0  0  0  0  0
    0.0177   52.5028   21.6570 H   0  0  0  0  0  0
    1.4753   50.0696   22.5103 H   0  0  0  0  0  0
    3.0118   48.6614   20.6095 H   0  0  0  0  0  0
    2.6195   52.7042   19.3611 H   0  0  0  0  0  0
    8.1853   55.3117   22.4527 H   0  0  0  0  0  0
    6.6497   54.7408   29.1191 H   0  0  0  0  0  0
    3.7165   50.4061   18.8821 H   0  0  0  0  0  0
  1  6  2  0  0  0
  1  2  1  0  0  0
  1 33  1  0  0  0
  2  3  2  0  0  0
  2 34  1  0  0  0
  3  4  1  0  0  0
  3 35  1  0  0  0
  4  5  2  0  0  0
  4  7  1  0  0  0
  5  6  1  0  0  0
  5 36  1  0  0  0
  6 37  1  0  0  0
  7 27  2  0  0  0
  7  8  1  0  0  0
  8  9  2  0  0  0
  8 38  1  0  0  0
  9 17  1  0  0  0
  9 10  1  0  0  0
 10 11  1  0  0  0
 10 26  2  0  0  0
 11 16  2  0  0  0
 11 12  1  0  0  0
 12 13  2  0  0  0
 12 39  1  0  0  0
 13 14  1  0  0  0
 13 25  1  0  0  0
 14 15  2  0  0  0
 14 40  1  0  0  0
 15 16  1  0  0  0
 15 41  1  0  0  0
 16 17  1  0  0  0
 17 18  1  0  0  0
 18 19  1  0  0  0
 18 42  1  0  0  0
 18 43  1  0  0  0
 19 20  1  0  0  0
 19 44  1  0  0  0
 19 45  1  0  0  0
 20 24  1  0  0  0
 20 21  1  0  0  0
 21 22  2  0  0  0
 21 46  1  0  0  0
 22 23  1  0  0  0
 22 47  1  0  0  0
 23 24  2  0  0  0
 23 51  1  0  0  0
 24 48  1  0  0  0
 25 49  1  0  0  0
 26 31  1  0  0  0
 26 27  1  0  0  0
 27 28  1  0  0  0
 28 29  2  0  0  0
 28 30  1  0  0  0
 30 31  1  0  0  0
 30 50  1  0  0  0
 31 32  2  0  0  0
M  CHG  1  23   1
M  END
> <i_i_glide_confnum>
5

> <i_i_glide_lignum>
15

> <i_i_glide_posenum>
250

> <i_i_glide_rotatable_bonds>
5

> <i_m_Source_File_Index>
53

> <b_m_subgroup_collapsed>
0

> <r_i_docking_score>
-12.031

> <r_i_glide_ecoul>
-17.8732

> <r_i_glide_eff_state_penalty>
0

> <r_i_glide_einternal>
7.36634

> <r_i_glide_emodel>
-112.772

> <r_i_glide_energy>
-62.5117

> <r_i_glide_erotb>
0.442141

> <r_i_glide_esite>
-0.114443

> <r_i_glide_evdw>
-44.6385

> <r_i_glide_gscore>
-12.031

> <r_i_glide_hbond>
-1.15693

> <r_i_glide_ligand_efficiency>
-0.375968

> <r_i_glide_ligand_efficiency_ln>
-2.69406

> <r_i_glide_ligand_efficiency_sa>
-1.19362

> <r_i_glide_lipo>
-3.5841

> <r_i_glide_metal>
0

> <r_i_glide_rewards>
-2.70474

> <s_i_glide_gridfile>
wee1_glide-grid

> <s_m_Source_File>
wee1_actives_glide_SP.sdf

> <s_m_Source_Path>
/Users/zhangxujun/Desktop

> <s_m_entry_id>
191

> <s_m_entry_name>
wee1_actives_glide_SP.53

> <s_m_subgroup_title>
wee1_actives_glide_SP

> <s_m_subgroupid>
wee1_actives_glide_SP


$$$$
