CHEMBL488899_13
                    3D
 Schrodinger Suite 2024-2.
 50 55  0  0  1  0            999 V2000
   -0.1516   52.7813   30.4649 C   0  0  0  0  0  0
    0.0299   51.8417   29.4566 C   0  0  0  0  0  0
    0.9088   52.1149   28.4157 C   0  0  0  0  0  0
    1.5857   53.3390   28.3654 C   0  0  0  0  0  0
    1.3380   54.3009   29.3533 C   0  0  0  0  0  0
    0.4826   54.0179   30.4132 C   0  0  0  0  0  0
    2.5493   53.6044   27.2652 C   0  0  0  0  0  0
    2.1024   53.4773   25.9449 C   0  0  0  0  0  0
    2.9970   53.7595   24.9007 C   0  0  0  0  0  0
    4.3503   54.1216   25.1390 C   0  0  0  0  0  0
    4.9679   54.3288   23.8786 C   0  0  0  0  0  0
    6.2643   54.7118   23.4662 C   0  0  0  0  0  0
    6.5212   54.8967   22.1066 C   0  0  0  0  0  0
    5.5334   54.6507   21.1588 C   0  0  0  0  0  0
    4.2549   54.2284   21.5171 C   0  0  0  0  0  0
    3.9768   54.0969   22.8844 C   0  0  0  0  0  0
    2.7920   53.7795   23.5335 N   0  0  0  0  0  0
    1.5176   53.5112   22.8818 C   0  0  0  0  0  0
    1.4514   52.0666   22.3549 C   0  0  0  0  0  0
    0.1647   51.8430   21.7182 N   0  0  0  0  0  0
   -1.0318   51.5623   22.3256 C   0  0  0  0  0  0
   -1.9565   51.4731   21.2958 C   0  0  0  0  0  0
   -1.4044   51.6967   20.1162 N   0  0  0  0  0  0
   -0.1381   51.9172   20.3807 C   0  0  0  0  0  0
    7.7634   55.2968   21.6817 O   0  0  0  0  0  0
    4.7676   54.2083   26.4800 C   0  0  0  0  0  0
    3.8833   53.9650   27.5033 C   0  0  0  0  0  0
    4.6329   54.1667   28.7801 C   0  0  0  0  0  0
    4.2291   54.0803   29.9372 O   0  0  0  0  0  0
    5.8830   54.4954   28.4162 N   0  0  0  0  0  0
    6.0692   54.5670   27.0890 C   0  0  0  0  0  0
    7.1044   54.8967   26.5305 O   0  0  0  0  0  0
   -0.8184   52.5505   31.2817 H   0  0  0  0  0  0
   -0.4945   50.8966   29.4957 H   0  0  0  0  0  0
    1.0712   51.3652   27.6543 H   0  0  0  0  0  0
    1.8335   55.2603   29.3163 H   0  0  0  0  0  0
    0.3141   54.7490   31.1906 H   0  0  0  0  0  0
    1.0780   53.1986   25.7476 H   0  0  0  0  0  0
    7.0519   54.8970   24.1753 H   0  0  0  0  0  0
    5.7644   54.7855   20.1122 H   0  0  0  0  0  0
    3.5044   54.0545   20.7592 H   0  0  0  0  0  0
    0.7072   53.7184   23.5809 H   0  0  0  0  0  0
    1.4108   54.2343   22.0817 H   0  0  0  0  0  0
    2.2363   51.8735   21.6214 H   0  0  0  0  0  0
    1.5658   51.3374   23.1586 H   0  0  0  0  0  0
   -1.1096   51.4479   23.3975 H   0  0  0  0  0  0
   -3.0080   51.2483   21.3990 H   0  0  0  0  0  0
    0.6367   52.1509   19.6640 H   0  0  0  0  0  0
    8.4268   55.3032   22.3850 H   0  0  0  0  0  0
    6.6058   54.7442   29.0787 H   0  0  0  0  0  0
  1  6  2  0  0  0
  1  2  1  0  0  0
  1 33  1  0  0  0
  2  3  2  0  0  0
  2 34  1  0  0  0
  3  4  1  0  0  0
  3 35  1  0  0  0
  4  5  2  0  0  0
  4  7  1  0  0  0
  5  6  1  0  0  0
  5 36  1  0  0  0
  6 37  1  0  0  0
  7 27  2  0  0  0
  7  8  1  0  0  0
  8  9  2  0  0  0
  8 38  1  0  0  0
  9 17  1  0  0  0
  9 10  1  0  0  0
 10 11  1  0  0  0
 10 26  2  0  0  0
 11 16  2  0  0  0
 11 12  1  0  0  0
 12 13  2  0  0  0
 12 39  1  0  0  0
 13 14  1  0  0  0
 13 25  1  0  0  0
 14 15  2  0  0  0
 14 40  1  0  0  0
 15 16  1  0  0  0
 15 41  1  0  0  0
 16 17  1  0  0  0
 17 18  1  0  0  0
 18 19  1  0  0  0
 18 42  1  0  0  0
 18 43  1  0  0  0
 19 20  1  0  0  0
 19 44  1  0  0  0
 19 45  1  0  0  0
 20 24  1  0  0  0
 20 21  1  0  0  0
 21 22  2  0  0  0
 21 46  1  0  0  0
 22 23  1  0  0  0
 22 47  1  0  0  0
 23 24  2  0  0  0
 24 48  1  0  0  0
 25 49  1  0  0  0
 26 31  1  0  0  0
 26 27  1  0  0  0
 27 28  1  0  0  0
 28 29  2  0  0  0
 28 30  1  0  0  0
 30 31  1  0  0  0
 30 50  1  0  0  0
 31 32  2  0  0  0
M  END
> <i_i_glide_confnum>
54

> <i_i_glide_lignum>
14

> <i_i_glide_posenum>
29

> <i_i_glide_rotatable_bonds>
5

> <i_m_Source_File_Index>
23

> <b_m_subgroup_collapsed>
0

> <r_i_docking_score>
-11.6147

> <r_i_glide_ecoul>
-14.9858

> <r_i_glide_eff_state_penalty>
0

> <r_i_glide_einternal>
1.72857

> <r_i_glide_emodel>
-108.351

> <r_i_glide_energy>
-64.4262

> <r_i_glide_erotb>
0.444051

> <r_i_glide_esite>
-0.0148759

> <r_i_glide_evdw>
-49.4405

> <r_i_glide_gscore>
-11.6147

> <r_i_glide_hbond>
-0.934508

> <r_i_glide_ligand_efficiency>
-0.362961

> <r_i_glide_ligand_efficiency_ln>
-2.60086

> <r_i_glide_ligand_efficiency_sa>
-1.15233

> <r_i_glide_lipo>
-3.57807

> <r_i_glide_metal>
0

> <r_i_glide_rewards>
-2.81145

> <s_i_glide_gridfile>
wee1_glide-grid

> <s_m_Source_File>
wee1_actives_glide_SP.sdf

> <s_m_Source_Path>
/Users/zhangxujun/Desktop

> <s_m_entry_id>
161

> <s_m_entry_name>
wee1_actives_glide_SP.23

> <s_m_subgroup_title>
wee1_actives_glide_SP

> <s_m_subgroupid>
wee1_actives_glide_SP


$$$$
