CHEMBL469822_120
                    3D
 Schrodinger Suite 2024-2.
 65 70  0  0  1  0            999 V2000
    0.9113   54.9990   30.0811 C   0  0  0  0  0  0
    0.7086   53.8678   30.8676 C   0  0  0  0  0  0
    1.0143   52.6116   30.3520 C   0  0  0  0  0  0
    1.4677   52.4786   29.0377 C   0  0  0  0  0  0
    1.5769   53.6044   28.1998 C   0  0  0  0  0  0
    1.3335   54.8673   28.7576 C   0  0  0  0  0  0
    1.9031   53.4818   26.7450 C   0  0  0  0  0  0
    3.0470   54.0970   26.2170 C   0  0  0  0  0  0
    3.3553   53.9891   24.8521 C   0  0  0  0  0  0
    2.5384   53.2553   23.9926 C   0  0  0  0  0  0
    3.2241   53.2338   22.6865 C   0  0  0  0  0  0
    2.9828   52.5609   21.5448 C   0  0  0  0  0  0
    3.9668   52.5199   20.3781 C   0  0  0  0  0  0
    4.9651   53.7491   20.3819 C   0  0  2  0  0  0
    5.2289   54.3055   21.7907 C   0  0  0  0  0  0
    4.4002   54.0645   22.8273 C   0  0  0  0  0  0
    4.4470   54.4886   24.1336 N   0  0  0  0  0  0
    5.5746   55.1264   24.8081 C   0  0  0  0  0  0
    6.4271   54.1988   25.6897 C   0  0  0  0  0  0
    7.1036   54.8967   26.7092 O   0  0  0  0  0  0
    4.4858   54.8002   19.5403 O   0  0  0  0  0  0
    5.4515   55.6768   18.9734 C   0  0  0  0  0  0
    4.7250   56.5718   17.9572 C   0  0  0  0  0  0
    4.0378   55.7868   16.8179 C   0  0  0  0  0  0
    3.0177   56.6044   16.1806 N   0  0  0  0  0  0
    1.6723   56.5879   16.4692 C   0  0  0  0  0  0
    1.0330   57.5445   15.6943 C   0  0  0  0  0  0
    2.0122   58.1763   14.9272 C   0  0  0  0  0  0
    3.2275   57.5898   15.2462 C   0  0  0  0  0  0
    3.2443   52.4169   19.1699 O   0  0  0  0  0  0
    4.7041   51.3216   20.4817 O   0  0  0  0  0  0
    1.3740   52.6723   24.5077 C   0  0  0  0  0  0
    1.0711   52.7844   25.8467 C   0  0  0  0  0  0
   -0.2388   52.0961   26.0551 C   0  0  0  0  0  0
   -0.9148   52.0162   27.0777 O   0  0  0  0  0  0
   -0.5761   51.5916   24.8572 N   0  0  0  0  0  0
    0.2807   51.8872   23.8647 C   0  0  0  0  0  0
    0.1320   51.5685   22.6887 O   0  0  0  0  0  0
    1.9044   50.9034   28.4810 Cl  0  0  0  0  0  0
    0.7064   55.9801   30.4857 H   0  0  0  0  0  0
    0.3494   53.9609   31.8833 H   0  0  0  0  0  0
    0.8944   51.7402   30.9787 H   0  0  0  0  0  0
    1.4332   55.7566   28.1537 H   0  0  0  0  0  0
    3.6944   54.6503   26.8814 H   0  0  0  0  0  0
    2.1418   51.8940   21.4875 H   0  0  0  0  0  0
    5.9055   53.4095   19.9456 H   0  0  0  0  0  0
    6.0848   54.9453   21.9382 H   0  0  0  0  0  0
    6.2171   55.7154   24.1543 H   0  0  0  0  0  0
    5.1991   55.9332   25.4383 H   0  0  0  0  0  0
    5.7290   53.5588   26.2283 H   0  0  0  0  0  0
    6.9193   53.3828   25.1591 H   0  0  0  0  0  0
    7.1685   54.3323   27.4862 H   0  0  0  0  0  0
    5.9123   56.2828   19.7552 H   0  0  0  0  0  0
    6.2429   55.1186   18.4714 H   0  0  0  0  0  0
    3.9776   57.1644   18.4819 H   0  0  0  0  0  0
    5.4270   57.2937   17.5359 H   0  0  0  0  0  0
    4.7561   55.4561   16.0659 H   0  0  0  0  0  0
    3.5481   54.8862   17.1921 H   0  0  0  0  0  0
    1.2879   55.9003   17.2086 H   0  0  0  0  0  0
   -0.0228   57.7741   15.6998 H   0  0  0  0  0  0
    1.8568   58.9854   14.2283 H   0  0  0  0  0  0
    4.2270   57.7991   14.8934 H   0  0  0  0  0  0
    3.8582   52.1978   18.4637 H   0  0  0  0  0  0
    4.9389   51.0346   19.5776 H   0  0  0  0  0  0
   -1.4187   51.0598   24.7134 H   0  0  0  0  0  0
  1  6  2  0  0  0
  1  2  1  0  0  0
  1 40  1  0  0  0
  2  3  2  0  0  0
  2 41  1  0  0  0
  3  4  1  0  0  0
  3 42  1  0  0  0
  4  5  2  0  0  0
  4 39  1  0  0  0
  5  6  1  0  0  0
  5  7  1  0  0  0
  6 43  1  0  0  0
  7 33  2  0  0  0
  7  8  1  0  0  0
  8  9  2  0  0  0
  8 44  1  0  0  0
  9 17  1  0  0  0
  9 10  1  0  0  0
 10 11  1  0  0  0
 10 32  2  0  0  0
 11 16  1  0  0  0
 11 12  2  0  0  0
 12 13  1  0  0  0
 12 45  1  0  0  0
 13 14  1  0  0  0
 13 30  1  0  0  0
 13 31  1  0  0  0
 14 15  1  0  0  0
 14 21  1  0  0  0
 14 46  1  0  0  0
 15 16  2  0  0  0
 15 47  1  0  0  0
 16 17  1  0  0  0
 17 18  1  0  0  0
 18 19  1  0  0  0
 18 48  1  0  0  0
 18 49  1  0  0  0
 19 20  1  0  0  0
 19 50  1  0  0  0
 19 51  1  0  0  0
 20 52  1  0  0  0
 21 22  1  0  0  0
 22 23  1  0  0  0
 22 53  1  0  0  0
 22 54  1  0  0  0
 23 24  1  0  0  0
 23 55  1  0  0  0
 23 56  1  0  0  0
 24 25  1  0  0  0
 24 57  1  0  0  0
 24 58  1  0  0  0
 25 29  1  0  0  0
 25 26  1  0  0  0
 26 27  2  0  0  0
 26 59  1  0  0  0
 27 28  1  0  0  0
 27 60  1  0  0  0
 28 29  2  0  0  0
 28 61  1  0  0  0
 29 62  1  0  0  0
 30 63  1  0  0  0
 31 64  1  0  0  0
 32 37  1  0  0  0
 32 33  1  0  0  0
 33 34  1  0  0  0
 34 35  2  0  0  0
 34 36  1  0  0  0
 36 37  1  0  0  0
 36 65  1  0  0  0
 37 38  2  0  0  0
M  END
> <i_i_glide_confnum>
125

> <i_i_glide_lignum>
121

> <i_i_glide_posenum>
313

> <i_i_glide_rotatable_bonds>
11

> <i_m_Source_File_Index>
122

> <b_m_subgroup_collapsed>
0

> <r_i_docking_score>
-7.65715

> <r_i_glide_ecoul>
-7.42309

> <r_i_glide_eff_state_penalty>
0

> <r_i_glide_einternal>
9.3233

> <r_i_glide_emodel>
-75.4031

> <r_i_glide_energy>
-54.791

> <r_i_glide_erotb>
0.48298

> <r_i_glide_esite>
-0.0223419

> <r_i_glide_evdw>
-47.3679

> <r_i_glide_gscore>
-7.65715

> <r_i_glide_hbond>
-0.278349

> <r_i_glide_ligand_efficiency>
-0.196337

> <r_i_glide_ligand_efficiency_ln>
-1.64191

> <r_i_glide_ligand_efficiency_sa>
-0.665821

> <r_i_glide_lipo>
-3.58609

> <r_i_glide_metal>
0

> <r_i_glide_rewards>
-0.771486

> <s_i_glide_gridfile>
wee1_glide-grid

> <s_m_Source_File>
wee1_actives_glide_SP.sdf

> <s_m_Source_Path>
/Users/zhangxujun/Desktop

> <s_m_entry_id>
260

> <s_m_entry_name>
wee1_actives_glide_SP.122

> <s_m_subgroup_title>
wee1_actives_glide_SP

> <s_m_subgroupid>
wee1_actives_glide_SP


$$$$
