CHEMBL452078_51
                    3D
 Schrodinger Suite 2024-2.
 64 69  0  0  1  0            999 V2000
    1.0425   47.1820   18.0183 C   0  0  0  0  0  0
    1.0979   48.3344   18.9144 N   0  0  0  0  0  0
    1.3001   49.5590   18.1290 C   0  0  0  0  0  0
    1.3465   50.8095   19.0343 C   0  0  0  0  0  0
    2.4705   50.6249   20.0791 N   0  3  0  0  0  0
    2.2439   49.3288   20.8877 C   0  0  0  0  0  0
    2.1669   48.1455   19.9010 C   0  0  0  0  0  0
    2.6737   51.8853   20.9586 C   0  0  0  0  0  0
    1.6182   52.0751   22.0775 C   0  0  0  0  0  0
    1.6250   53.4631   22.7751 C   0  0  0  0  0  0
    2.8753   53.7727   23.4744 N   0  0  0  0  0  0
    4.0590   54.1948   22.8832 C   0  0  0  0  0  0
    4.3587   54.4967   21.5463 C   0  0  0  0  0  0
    5.6600   54.8856   21.2432 C   0  0  0  0  0  0
    6.6435   54.9656   22.2186 C   0  0  0  0  0  0
    6.3502   54.6856   23.5523 C   0  0  0  0  0  0
    5.0334   54.3300   23.9100 C   0  0  0  0  0  0
    4.3786   54.1003   25.1434 C   0  0  0  0  0  0
    3.0287   53.7618   24.8514 C   0  0  0  0  0  0
    2.0918   53.5074   25.8665 C   0  0  0  0  0  0
    2.4982   53.6080   27.2018 C   0  0  0  0  0  0
    3.8365   53.9174   27.4863 C   0  0  0  0  0  0
    4.7585   54.1601   26.4971 C   0  0  0  0  0  0
    6.0436   54.5049   27.1584 C   0  0  0  0  0  0
    7.1044   54.8432   26.6474 O   0  0  0  0  0  0
    5.8086   54.4080   28.4767 N   0  0  0  0  0  0
    4.5482   54.0606   28.7913 C   0  0  0  0  0  0
    4.1057   53.9181   29.9299 O   0  0  0  0  0  0
    1.4953   53.3748   28.2846 C   0  0  0  0  0  0
    0.8579   52.1237   28.4167 C   0  0  0  0  0  0
   -0.0010   51.8762   29.4842 C   0  0  0  0  0  0
   -0.2208   52.8514   30.4454 C   0  0  0  0  0  0
    0.3405   54.1145   30.2966 C   0  0  0  0  0  0
    1.1693   54.3905   29.2097 C   0  0  0  0  0  0
    1.7520   56.0151   29.0382 Cl  0  0  0  0  0  0
    1.1043   50.8408   27.2820 Cl  0  0  0  0  0  0
    7.9044   55.3503   21.8484 O   0  0  0  0  0  0
    0.2346   47.2914   17.2929 H   0  0  0  0  0  0
    0.8526   46.2642   18.5761 H   0  0  0  0  0  0
    1.9759   47.0551   17.4653 H   0  0  0  0  0  0
    2.2555   49.4711   17.6067 H   0  0  0  0  0  0
    0.5096   49.6801   17.3867 H   0  0  0  0  0  0
    0.4073   50.9887   19.5594 H   0  0  0  0  0  0
    1.6224   51.6805   18.4376 H   0  0  0  0  0  0
    1.3318   49.4368   21.4762 H   0  0  0  0  0  0
    3.1043   49.2219   21.5475 H   0  0  0  0  0  0
    2.0169   47.2240   20.4596 H   0  0  0  0  0  0
    3.1044   48.0755   19.3504 H   0  0  0  0  0  0
    3.6833   51.7842   21.3595 H   0  0  0  0  0  0
    2.6655   52.7038   20.2398 H   0  0  0  0  0  0
    0.6210   51.9089   21.6712 H   0  0  0  0  0  0
    1.7582   51.3102   22.8428 H   0  0  0  0  0  0
    1.4574   54.2768   22.0817 H   0  0  0  0  0  0
    0.7923   53.5260   23.4757 H   0  0  0  0  0  0
    3.6108   54.4865   20.7710 H   0  0  0  0  0  0
    5.9107   55.1335   20.2218 H   0  0  0  0  0  0
    7.1297   54.7803   24.2875 H   0  0  0  0  0  0
    1.0663   53.2582   25.6401 H   0  0  0  0  0  0
    6.5106   54.6344   29.1676 H   0  0  0  0  0  0
   -0.4869   50.9154   29.5802 H   0  0  0  0  0  0
   -0.8691   52.6366   31.2817 H   0  0  0  0  0  0
    0.1230   54.8857   31.0221 H   0  0  0  0  0  0
    8.5480   55.2969   22.5761 H   0  0  0  0  0  0
    3.3234   50.4994   19.5442 H   0  0  0  0  0  0
  1  2  1  0  0  0
  1 38  1  0  0  0
  1 39  1  0  0  0
  1 40  1  0  0  0
  2  7  1  0  0  0
  2  3  1  0  0  0
  3  4  1  0  0  0
  3 41  1  0  0  0
  3 42  1  0  0  0
  4  5  1  0  0  0
  4 43  1  0  0  0
  4 44  1  0  0  0
  5  6  1  0  0  0
  5  8  1  0  0  0
  5 64  1  0  0  0
  6  7  1  0  0  0
  6 45  1  0  0  0
  6 46  1  0  0  0
  7 47  1  0  0  0
  7 48  1  0  0  0
  8  9  1  0  0  0
  8 49  1  0  0  0
  8 50  1  0  0  0
  9 10  1  0  0  0
  9 51  1  0  0  0
  9 52  1  0  0  0
 10 11  1  0  0  0
 10 53  1  0  0  0
 10 54  1  0  0  0
 11 19  1  0  0  0
 11 12  1  0  0  0
 12 17  2  0  0  0
 12 13  1  0  0  0
 13 14  2  0  0  0
 13 55  1  0  0  0
 14 15  1  0  0  0
 14 56  1  0  0  0
 15 16  2  0  0  0
 15 37  1  0  0  0
 16 17  1  0  0  0
 16 57  1  0  0  0
 17 18  1  0  0  0
 18 23  2  0  0  0
 18 19  1  0  0  0
 19 20  2  0  0  0
 20 21  1  0  0  0
 20 58  1  0  0  0
 21 22  2  0  0  0
 21 29  1  0  0  0
 22 27  1  0  0  0
 22 23  1  0  0  0
 23 24  1  0  0  0
 24 25  2  0  0  0
 24 26  1  0  0  0
 26 27  1  0  0  0
 26 59  1  0  0  0
 27 28  2  0  0  0
 29 34  2  0  0  0
 29 30  1  0  0  0
 30 31  2  0  0  0
 30 36  1  0  0  0
 31 32  1  0  0  0
 31 60  1  0  0  0
 32 33  2  0  0  0
 32 61  1  0  0  0
 33 34  1  0  0  0
 33 62  1  0  0  0
 34 35  1  0  0  0
 37 63  1  0  0  0
M  CHG  1   5   1
M  END
> <i_i_glide_confnum>
174

> <i_i_glide_lignum>
52

> <i_i_glide_posenum>
357

> <i_i_glide_rotatable_bonds>
6

> <i_m_Source_File_Index>
75

> <b_m_subgroup_collapsed>
0

> <r_i_docking_score>
-11.2184

> <r_i_glide_ecoul>
-16.2483

> <r_i_glide_eff_state_penalty>
0

> <r_i_glide_einternal>
6.05091

> <r_i_glide_emodel>
-116.181

> <r_i_glide_energy>
-68.8454

> <r_i_glide_erotb>
0.356346

> <r_i_glide_esite>
-0.0375675

> <r_i_glide_evdw>
-52.5971

> <r_i_glide_gscore>
-11.2184

> <r_i_glide_hbond>
-0.890943

> <r_i_glide_ligand_efficiency>
-0.303199

> <r_i_glide_ligand_efficiency_ln>
-2.433

> <r_i_glide_ligand_efficiency_sa>
-1.01033

> <r_i_glide_lipo>
-3.7586

> <r_i_glide_metal>
0

> <r_i_glide_rewards>
-1.82051

> <s_i_glide_gridfile>
wee1_glide-grid

> <s_m_Source_File>
wee1_actives_glide_SP.sdf

> <s_m_Source_Path>
/Users/zhangxujun/Desktop

> <s_m_entry_id>
213

> <s_m_entry_name>
wee1_actives_glide_SP.75

> <s_m_subgroup_title>
wee1_actives_glide_SP

> <s_m_subgroupid>
wee1_actives_glide_SP


$$$$
