CHEMBL362692_72
                    3D
 Schrodinger Suite 2024-2.
 75 79  0  0  1  0            999 V2000
    2.3453   53.5288   24.0129 C   0  0  0  0  0  0
    2.9130   53.7316   25.3611 N   0  0  0  0  0  0
    4.2859   54.1069   25.4456 C   0  0  0  0  0  0
    4.8856   54.2288   26.7058 C   0  0  0  0  0  0
    4.0364   54.0699   27.8816 C   0  0  0  0  0  0
    2.7267   53.7614   27.7474 C   0  0  0  0  0  0
    2.1233   53.4343   26.4456 C   0  0  0  0  0  0
    1.0131   52.9010   26.3519 O   0  0  0  0  0  0
    1.8723   53.7756   28.9564 C   0  0  0  0  0  0
    1.4725   54.9943   29.5406 C   0  0  0  0  0  0
    0.7047   54.9970   30.7005 C   0  0  0  0  0  0
    0.3060   53.8037   31.2847 C   0  0  0  0  0  0
    0.6724   52.5963   30.7082 C   0  0  0  0  0  0
    1.4617   52.5719   29.5568 C   0  0  0  0  0  0
    1.9033   51.0405   28.8809 Cl  0  0  0  0  0  0
    1.9062   56.5306   28.8787 Cl  0  0  0  0  0  0
    6.2495   54.5067   26.7556 C   0  0  0  0  0  0
    6.9816   54.6743   25.6245 N   0  0  0  0  0  0
    6.3212   54.5632   24.4415 C   0  0  0  0  0  0
    4.9993   54.2955   24.3014 N   0  0  0  0  0  0
    7.1021   54.7912   23.3083 N   0  0  0  0  0  0
    6.8047   54.9950   21.9535 C   0  0  0  0  0  0
    7.7614   55.6980   21.2235 C   0  0  0  0  0  0
    7.5757   55.9517   19.8745 C   0  0  0  0  0  0
    6.4474   55.4592   19.2176 C   0  0  0  0  0  0
    5.4829   54.7474   19.9418 C   0  0  0  0  0  0
    5.6516   54.5294   21.3090 C   0  0  0  0  0  0
    6.2208   55.7673   17.7385 C   0  0  0  0  0  0
    7.4803   55.6463   16.8264 C   0  0  0  0  0  0
    7.3712   56.3851   15.4683 C   0  0  0  0  0  0
    7.2794   57.9118   15.5879 C   0  0  0  0  0  0
    7.5746   58.5068   16.6293 O   0  0  0  0  0  0
    6.7568   58.4791   14.4754 O   0  0  0  0  0  0
    6.4150   59.8651   14.4535 C   0  0  0  0  0  0
    5.1588   60.0664   13.5940 C   0  0  0  0  0  0
    3.8923   60.0953   14.4824 N   0  3  0  0  0  0
    2.6894   60.6693   13.6945 C   0  0  0  0  0  0
    1.4939   60.8023   14.6550 C   0  0  0  0  0  0
    1.1486   59.4730   15.3483 C   0  0  0  0  0  0
    2.3787   58.8642   16.0427 C   0  0  0  0  0  0
    3.5688   58.7071   15.0867 C   0  0  0  0  0  0
    1.3099   53.1878   24.0112 H   0  0  0  0  0  0
    2.3842   54.4514   23.4402 H   0  0  0  0  0  0
    2.9336   52.7860   23.4752 H   0  0  0  0  0  0
    4.4436   54.3022   28.8568 H   0  0  0  0  0  0
    0.4262   55.9341   31.1549 H   0  0  0  0  0  0
   -0.3012   53.8056   32.1762 H   0  0  0  0  0  0
    0.3214   51.6943   31.1809 H   0  0  0  0  0  0
    6.7635   54.6018   27.7035 H   0  0  0  0  0  0
    8.0965   54.8967   23.5209 H   0  0  0  0  0  0
    8.6549   56.0924   21.6910 H   0  0  0  0  0  0
    8.3207   56.5519   19.3692 H   0  0  0  0  0  0
    4.5928   54.3770   19.4536 H   0  0  0  0  0  0
    4.8901   53.9838   21.8399 H   0  0  0  0  0  0
    5.7982   56.7725   17.7046 H   0  0  0  0  0  0
    5.4484   55.1046   17.3425 H   0  0  0  0  0  0
    7.6905   54.5908   16.6563 H   0  0  0  0  0  0
    8.3752   56.0229   17.3210 H   0  0  0  0  0  0
    6.4965   56.0299   14.9203 H   0  0  0  0  0  0
    8.2393   56.1601   14.8427 H   0  0  0  0  0  0
    7.2513   60.3995   14.0077 H   0  0  0  0  0  0
    6.2672   60.2904   15.4512 H   0  0  0  0  0  0
    5.0095   59.2734   12.8595 H   0  0  0  0  0  0
    5.1952   61.0207   13.0711 H   0  0  0  0  0  0
    2.4858   60.0144   12.8485 H   0  0  0  0  0  0
    2.9931   61.6551   13.3421 H   0  0  0  0  0  0
    0.6206   61.1673   14.1074 H   0  0  0  0  0  0
    1.7260   61.5629   15.4052 H   0  0  0  0  0  0
    0.3488   59.6244   16.0811 H   0  0  0  0  0  0
    0.7587   58.7666   14.6108 H   0  0  0  0  0  0
    2.6965   59.4873   16.8791 H   0  0  0  0  0  0
    2.1136   57.8971   16.4683 H   0  0  0  0  0  0
    3.3689   58.0183   14.2636 H   0  0  0  0  0  0
    4.4374   58.3704   15.6532 H   0  0  0  0  0  0
    4.0828   60.7420   15.2570 H   0  0  0  0  0  0
  1  2  1  0  0  0
  1 42  1  0  0  0
  1 43  1  0  0  0
  1 44  1  0  0  0
  2  7  1  0  0  0
  2  3  1  0  0  0
  3 20  2  0  0  0
  3  4  1  0  0  0
  4  5  1  0  0  0
  4 17  2  0  0  0
  5  6  2  0  0  0
  5 45  1  0  0  0
  6  7  1  0  0  0
  6  9  1  0  0  0
  7  8  2  0  0  0
  9 14  2  0  0  0
  9 10  1  0  0  0
 10 11  2  0  0  0
 10 16  1  0  0  0
 11 12  1  0  0  0
 11 46  1  0  0  0
 12 13  2  0  0  0
 12 47  1  0  0  0
 13 14  1  0  0  0
 13 48  1  0  0  0
 14 15  1  0  0  0
 17 18  1  0  0  0
 17 49  1  0  0  0
 18 19  2  0  0  0
 19 20  1  0  0  0
 19 21  1  0  0  0
 21 22  1  0  0  0
 21 50  1  0  0  0
 22 27  2  0  0  0
 22 23  1  0  0  0
 23 24  2  0  0  0
 23 51  1  0  0  0
 24 25  1  0  0  0
 24 52  1  0  0  0
 25 26  2  0  0  0
 25 28  1  0  0  0
 26 27  1  0  0  0
 26 53  1  0  0  0
 27 54  1  0  0  0
 28 29  1  0  0  0
 28 55  1  0  0  0
 28 56  1  0  0  0
 29 30  1  0  0  0
 29 57  1  0  0  0
 29 58  1  0  0  0
 30 31  1  0  0  0
 30 59  1  0  0  0
 30 60  1  0  0  0
 31 32  2  0  0  0
 31 33  1  0  0  0
 33 34  1  0  0  0
 34 35  1  0  0  0
 34 61  1  0  0  0
 34 62  1  0  0  0
 35 36  1  0  0  0
 35 63  1  0  0  0
 35 64  1  0  0  0
 36 41  1  0  0  0
 36 37  1  0  0  0
 36 75  1  0  0  0
 37 38  1  0  0  0
 37 65  1  0  0  0
 37 66  1  0  0  0
 38 39  1  0  0  0
 38 67  1  0  0  0
 38 68  1  0  0  0
 39 40  1  0  0  0
 39 69  1  0  0  0
 39 70  1  0  0  0
 40 41  1  0  0  0
 40 71  1  0  0  0
 40 72  1  0  0  0
 41 73  1  0  0  0
 41 74  1  0  0  0
M  CHG  1  36   1
M  END
> <i_i_glide_confnum>
98

> <i_i_glide_lignum>
73

> <i_i_glide_posenum>
299

> <i_i_glide_rotatable_bonds>
11

> <i_m_Source_File_Index>
29

> <b_m_subgroup_collapsed>
0

> <r_i_docking_score>
-10.4474

> <r_i_glide_ecoul>
-12.6429

> <r_i_glide_eff_state_penalty>
0

> <r_i_glide_einternal>
7.07936

> <r_i_glide_emodel>
-104.174

> <r_i_glide_energy>
-62.5862

> <r_i_glide_erotb>
0.334919

> <r_i_glide_esite>
-0.103544

> <r_i_glide_evdw>
-49.9434

> <r_i_glide_gscore>
-10.4474

> <r_i_glide_hbond>
-0.796391

> <r_i_glide_ligand_efficiency>
-0.254815

> <r_i_glide_ligand_efficiency_ln>
-2.21646

> <r_i_glide_ligand_efficiency_sa>
-0.878659

> <r_i_glide_lipo>
-3.54252

> <r_i_glide_metal>
0

> <r_i_glide_rewards>
-1.94629

> <s_i_glide_gridfile>
wee1_glide-grid

> <s_m_Source_File>
wee1_actives_glide_SP.sdf

> <s_m_Source_Path>
/Users/zhangxujun/Desktop

> <s_m_entry_id>
167

> <s_m_entry_name>
wee1_actives_glide_SP.29

> <s_m_subgroup_title>
wee1_actives_glide_SP

> <s_m_subgroupid>
wee1_actives_glide_SP


$$$$
