CHEMBL486517_46
                    3D
 Schrodinger Suite 2024-2.
 51 56  0  0  1  0            999 V2000
    0.1319   51.8768   29.4340 C   0  0  0  0  0  0
   -0.0957   52.8165   30.4334 C   0  0  0  0  0  0
    0.4381   54.0967   30.3202 C   0  0  0  0  0  0
    1.2431   54.4281   29.2297 C   0  0  0  0  0  0
    1.5555   53.4528   28.2576 C   0  0  0  0  0  0
    0.9638   52.1877   28.3627 C   0  0  0  0  0  0
    2.5176   53.6979   27.1469 C   0  0  0  0  0  0
    2.0851   53.5665   25.8186 C   0  0  0  0  0  0
    3.0057   53.8065   24.7819 C   0  0  0  0  0  0
    4.3528   54.1753   25.0442 C   0  0  0  0  0  0
    4.9961   54.3688   23.7982 C   0  0  0  0  0  0
    6.3002   54.7526   23.4185 C   0  0  0  0  0  0
    6.6007   54.8968   22.0667 C   0  0  0  0  0  0
    5.6462   54.6214   21.0924 C   0  0  0  0  0  0
    4.3607   54.1919   21.4189 C   0  0  0  0  0  0
    4.0396   54.0924   22.7807 C   0  0  0  0  0  0
    2.8518   53.7332   23.4047 N   0  0  0  0  0  0
    1.6439   53.2717   22.7231 C   0  0  0  0  0  0
    1.5595   51.7329   22.8046 C   0  0  0  0  0  0
    0.1603   51.0833   21.7678 S   0  0  1  0  0  0
   -0.9830   52.0967   21.8626 O   0  0  0  0  0  0
    0.9742   51.2871   20.2157 N   0  0  0  0  0  0
    2.1137   50.6579   19.7823 C   0  0  0  0  0  0
    2.3044   51.1559   18.5042 C   0  0  0  0  0  0
    1.3487   52.0132   18.1953 N   0  0  0  0  0  0
    0.4861   52.0988   19.2742 N   0  0  0  0  0  0
    7.8556   55.2968   21.6817 O   0  0  0  0  0  0
    4.7542   54.2607   26.3904 C   0  0  0  0  0  0
    3.8583   54.0160   27.3999 C   0  0  0  0  0  0
    4.6082   54.1403   28.6871 C   0  0  0  0  0  0
    4.2041   53.9767   29.8359 O   0  0  0  0  0  0
    5.8577   54.4927   28.3438 N   0  0  0  0  0  0
    6.0552   54.5861   27.0209 C   0  0  0  0  0  0
    7.1044   54.8968   26.4812 O   0  0  0  0  0  0
    1.8293   56.0564   29.1307 Cl  0  0  0  0  0  0
   -0.3189   50.8967   29.5036 H   0  0  0  0  0  0
   -0.7144   52.5568   31.2813 H   0  0  0  0  0  0
    0.2261   54.8334   31.0812 H   0  0  0  0  0  0
    1.1674   51.4267   27.6221 H   0  0  0  0  0  0
    1.0613   53.2950   25.6051 H   0  0  0  0  0  0
    7.0638   54.9646   24.1448 H   0  0  0  0  0  0
    5.9115   54.7295   20.0505 H   0  0  0  0  0  0
    3.6431   53.9795   20.6385 H   0  0  0  0  0  0
    1.6652   53.6156   21.6880 H   0  0  0  0  0  0
    0.7816   53.7419   23.1966 H   0  0  0  0  0  0
    1.3921   51.4096   23.8316 H   0  0  0  0  0  0
    2.4895   51.2707   22.4729 H   0  0  0  0  0  0
    2.6557   49.9441   20.3845 H   0  0  0  0  0  0
    3.1043   50.8975   17.8215 H   0  0  0  0  0  0
    8.4960   55.3031   22.4080 H   0  0  0  0  0  0
    6.5792   54.7091   29.0179 H   0  0  0  0  0  0
  1  6  2  0  0  0
  1  2  1  0  0  0
  1 36  1  0  0  0
  2  3  2  0  0  0
  2 37  1  0  0  0
  3  4  1  0  0  0
  3 38  1  0  0  0
  4  5  2  0  0  0
  4 35  1  0  0  0
  5  6  1  0  0  0
  5  7  1  0  0  0
  6 39  1  0  0  0
  7 29  2  0  0  0
  7  8  1  0  0  0
  8  9  2  0  0  0
  8 40  1  0  0  0
  9 17  1  0  0  0
  9 10  1  0  0  0
 10 11  1  0  0  0
 10 28  2  0  0  0
 11 16  2  0  0  0
 11 12  1  0  0  0
 12 13  2  0  0  0
 12 41  1  0  0  0
 13 14  1  0  0  0
 13 27  1  0  0  0
 14 15  2  0  0  0
 14 42  1  0  0  0
 15 16  1  0  0  0
 15 43  1  0  0  0
 16 17  1  0  0  0
 17 18  1  0  0  0
 18 19  1  0  0  0
 18 44  1  0  0  0
 18 45  1  0  0  0
 19 20  1  0  0  0
 19 46  1  0  0  0
 19 47  1  0  0  0
 20 21  2  0  0  0
 20 22  1  0  0  0
 22 26  1  0  0  0
 22 23  1  0  0  0
 23 24  2  0  0  0
 23 48  1  0  0  0
 24 25  1  0  0  0
 24 49  1  0  0  0
 25 26  2  0  0  0
 27 50  1  0  0  0
 28 33  1  0  0  0
 28 29  1  0  0  0
 29 30  1  0  0  0
 30 31  2  0  0  0
 30 32  1  0  0  0
 32 33  1  0  0  0
 32 51  1  0  0  0
 33 34  2  0  0  0
M  END
> <i_i_glide_confnum>
16

> <i_i_glide_lignum>
47

> <i_i_glide_posenum>
394

> <i_i_glide_rotatable_bonds>
6

> <i_m_Source_File_Index>
118

> <b_m_subgroup_collapsed>
0

> <r_i_docking_score>
-11.8992

> <r_i_glide_ecoul>
-16.3863

> <r_i_glide_eff_state_penalty>
0

> <r_i_glide_einternal>
4.13718

> <r_i_glide_emodel>
-126.039

> <r_i_glide_energy>
-73.3848

> <r_i_glide_erotb>
0.223772

> <r_i_glide_esite>
-0.047433

> <r_i_glide_evdw>
-56.9986

> <r_i_glide_gscore>
-11.8992

> <r_i_glide_hbond>
-0.875206

> <r_i_glide_ligand_efficiency>
-0.339976

> <r_i_glide_ligand_efficiency_ln>
-2.61213

> <r_i_glide_ligand_efficiency_sa>
-1.11208

> <r_i_glide_lipo>
-3.87315

> <r_i_glide_metal>
0

> <r_i_glide_rewards>
-2.01927

> <s_i_glide_gridfile>
wee1_glide-grid

> <s_m_Source_File>
wee1_actives_glide_SP.sdf

> <s_m_Source_Path>
/Users/zhangxujun/Desktop

> <s_m_entry_id>
256

> <s_m_entry_name>
wee1_actives_glide_SP.118

> <s_m_subgroup_title>
wee1_actives_glide_SP

> <s_m_subgroupid>
wee1_actives_glide_SP


$$$$
