CHEMBL486665_110
                    3D
 Schrodinger Suite 2024-2.
 53 58  0  0  1  0            999 V2000
    0.0960   51.8726   29.3983 C   0  0  0  0  0  0
   -0.1816   52.8220   30.3745 C   0  0  0  0  0  0
    0.3563   54.1004   30.2710 C   0  0  0  0  0  0
    1.2003   54.4262   29.2069 C   0  0  0  0  0  0
    1.5467   53.4467   28.2516 C   0  0  0  0  0  0
    0.9698   52.1743   28.3592 C   0  0  0  0  0  0
    2.5151   53.6943   27.1469 C   0  0  0  0  0  0
    2.0850   53.5648   25.8179 C   0  0  0  0  0  0
    3.0104   53.7811   24.7824 C   0  0  0  0  0  0
    4.3585   54.1502   25.0487 C   0  0  0  0  0  0
    5.0057   54.3417   23.8041 C   0  0  0  0  0  0
    6.3036   54.7462   23.4262 C   0  0  0  0  0  0
    6.6040   54.8968   22.0737 C   0  0  0  0  0  0
    5.6572   54.5994   21.0994 C   0  0  0  0  0  0
    4.3802   54.1462   21.4243 C   0  0  0  0  0  0
    4.0562   54.0490   22.7858 C   0  0  0  0  0  0
    2.8642   53.6962   23.4042 N   0  0  0  0  0  0
    1.6537   53.2785   22.6937 C   0  0  0  0  0  0
    1.5462   51.7403   22.5482 C   0  0  0  0  0  0
    0.8685   50.9912   23.7207 C   0  0  0  0  0  0
   -0.4720   51.4983   24.0181 N   0  0  0  0  0  0
   -1.4347   51.9452   23.1441 C   0  0  0  0  0  0
   -2.5141   52.3169   23.9321 C   0  0  0  0  0  0
   -2.2827   52.1027   25.2150 N   0  0  0  0  0  0
   -1.0747   51.5945   25.2514 C   0  0  0  0  0  0
    7.8462   55.3306   21.6817 O   0  0  0  0  0  0
    4.7550   54.2488   26.3960 C   0  0  0  0  0  0
    3.8536   54.0131   27.4031 C   0  0  0  0  0  0
    4.5955   54.1488   28.6935 C   0  0  0  0  0  0
    4.1856   53.9975   29.8418 O   0  0  0  0  0  0
    5.8474   54.4947   28.3531 N   0  0  0  0  0  0
    6.0522   54.5841   27.0301 C   0  0  0  0  0  0
    7.1044   54.8972   26.4949 O   0  0  0  0  0  0
    1.7867   56.0550   29.1160 Cl  0  0  0  0  0  0
   -0.3584   50.8964   29.4616 H   0  0  0  0  0  0
   -0.8411   52.5707   31.1950 H   0  0  0  0  0  0
    0.1131   54.8438   31.0157 H   0  0  0  0  0  0
    1.2111   51.4045   27.6406 H   0  0  0  0  0  0
    1.0602   53.3073   25.6020 H   0  0  0  0  0  0
    7.0598   54.9784   24.1538 H   0  0  0  0  0  0
    5.9205   54.7140   20.0581 H   0  0  0  0  0  0
    3.6680   53.9229   20.6428 H   0  0  0  0  0  0
    1.6665   53.7118   21.6964 H   0  0  0  0  0  0
    0.7858   53.7178   23.1853 H   0  0  0  0  0  0
    2.5371   51.3169   22.3761 H   0  0  0  0  0  0
    0.9958   51.5147   21.6335 H   0  0  0  0  0  0
    1.4778   51.0825   24.6189 H   0  0  0  0  0  0
    0.7802   49.9276   23.4963 H   0  0  0  0  0  0
   -1.2651   51.9646   22.0764 H   0  0  0  0  0  0
   -3.4537   52.7227   23.5882 H   0  0  0  0  0  0
   -0.5545   51.2611   26.1368 H   0  0  0  0  0  0
    8.4891   55.3553   22.4040 H   0  0  0  0  0  0
    6.5659   54.7151   29.0287 H   0  0  0  0  0  0
  1  6  2  0  0  0
  1  2  1  0  0  0
  1 35  1  0  0  0
  2  3  2  0  0  0
  2 36  1  0  0  0
  3  4  1  0  0  0
  3 37  1  0  0  0
  4  5  2  0  0  0
  4 34  1  0  0  0
  5  6  1  0  0  0
  5  7  1  0  0  0
  6 38  1  0  0  0
  7 28  2  0  0  0
  7  8  1  0  0  0
  8  9  2  0  0  0
  8 39  1  0  0  0
  9 17  1  0  0  0
  9 10  1  0  0  0
 10 11  1  0  0  0
 10 27  2  0  0  0
 11 16  2  0  0  0
 11 12  1  0  0  0
 12 13  2  0  0  0
 12 40  1  0  0  0
 13 14  1  0  0  0
 13 26  1  0  0  0
 14 15  2  0  0  0
 14 41  1  0  0  0
 15 16  1  0  0  0
 15 42  1  0  0  0
 16 17  1  0  0  0
 17 18  1  0  0  0
 18 19  1  0  0  0
 18 43  1  0  0  0
 18 44  1  0  0  0
 19 20  1  0  0  0
 19 45  1  0  0  0
 19 46  1  0  0  0
 20 21  1  0  0  0
 20 47  1  0  0  0
 20 48  1  0  0  0
 21 25  1  0  0  0
 21 22  1  0  0  0
 22 23  2  0  0  0
 22 49  1  0  0  0
 23 24  1  0  0  0
 23 50  1  0  0  0
 24 25  2  0  0  0
 25 51  1  0  0  0
 26 52  1  0  0  0
 27 32  1  0  0  0
 27 28  1  0  0  0
 28 29  1  0  0  0
 29 30  2  0  0  0
 29 31  1  0  0  0
 31 32  1  0  0  0
 31 53  1  0  0  0
 32 33  2  0  0  0
M  END
> <i_i_glide_confnum>
36

> <i_i_glide_lignum>
111

> <i_i_glide_posenum>
213

> <i_i_glide_rotatable_bonds>
6

> <i_m_Source_File_Index>
34

> <b_m_subgroup_collapsed>
0

> <r_i_docking_score>
-11.6327

> <r_i_glide_ecoul>
-13.5234

> <r_i_glide_eff_state_penalty>
0

> <r_i_glide_einternal>
2.20333

> <r_i_glide_emodel>
-115.777

> <r_i_glide_energy>
-68.5308

> <r_i_glide_erotb>
0.255167

> <r_i_glide_esite>
-0.0093337

> <r_i_glide_evdw>
-55.0074

> <r_i_glide_gscore>
-11.6327

> <r_i_glide_hbond>
-0.886979

> <r_i_glide_ligand_efficiency>
-0.342137

> <r_i_glide_ligand_efficiency_ln>
-2.56998

> <r_i_glide_ligand_efficiency_sa>
-1.10839

> <r_i_glide_lipo>
-3.99313

> <r_i_glide_metal>
0

> <r_i_glide_rewards>
-2.21951

> <s_i_glide_gridfile>
wee1_glide-grid

> <s_m_Source_File>
wee1_actives_glide_SP.sdf

> <s_m_Source_Path>
/Users/zhangxujun/Desktop

> <s_m_entry_id>
172

> <s_m_entry_name>
wee1_actives_glide_SP.34

> <s_m_subgroup_title>
wee1_actives_glide_SP

> <s_m_subgroupid>
wee1_actives_glide_SP


$$$$
