CHEMBL362862_125
                    3D
 Schrodinger Suite 2024-2.
 73 77  0  0  1  0            999 V2000
    6.6719   54.2359   27.6307 C   0  0  0  0  0  0
    5.2606   54.1159   27.2052 N   0  0  0  0  0  0
    4.9804   54.2077   25.8101 C   0  0  0  0  0  0
    3.6556   54.0599   25.3732 C   0  0  0  0  0  0
    2.6161   53.8604   26.3827 C   0  0  0  0  0  0
    2.9236   53.8062   27.6986 C   0  0  0  0  0  0
    4.3118   53.9009   28.1770 C   0  0  0  0  0  0
    4.5742   53.8055   29.3764 O   0  0  0  0  0  0
    1.8388   53.6427   28.6996 C   0  0  0  0  0  0
    1.4755   54.7074   29.5487 C   0  0  0  0  0  0
    0.5399   54.5088   30.5636 C   0  0  0  0  0  0
   -0.0829   53.2747   30.7183 C   0  0  0  0  0  0
    0.2115   52.2395   29.8414 C   0  0  0  0  0  0
    1.1734   52.4078   28.8464 C   0  0  0  0  0  0
    1.5052   51.0615   27.8155 Cl  0  0  0  0  0  0
    2.1697   56.2881   29.3891 Cl  0  0  0  0  0  0
    3.4145   54.0957   24.0025 C   0  0  0  0  0  0
    4.4153   54.3014   23.1121 N   0  0  0  0  0  0
    5.6643   54.4967   23.6133 C   0  0  0  0  0  0
    5.9963   54.4390   24.9264 N   0  0  0  0  0  0
    6.7049   54.8987   22.7662 N   0  0  0  0  0  0
    6.7864   55.2858   21.4165 C   0  0  0  0  0  0
    8.0367   55.6970   20.9506 C   0  0  0  0  0  0
    8.2152   56.0857   19.6267 C   0  0  0  0  0  0
    7.1295   56.0749   18.7494 C   0  0  0  0  0  0
    5.8780   55.6527   19.1991 C   0  0  0  0  0  0
    5.7101   55.2519   20.5219 C   0  0  0  0  0  0
    7.2972   56.5216   17.3039 C   0  0  0  0  0  0
    7.1413   55.3764   16.2839 C   0  0  0  0  0  0
    8.2861   54.3430   16.3482 C   0  0  0  0  0  0
    8.0743   53.1287   15.4421 C   0  0  0  0  0  0
    6.9707   52.5942   15.3137 O   0  0  0  0  0  0
    9.2135   52.7414   14.8243 O   0  0  0  0  0  0
    9.2510   51.5726   14.0060 C   0  0  0  0  0  0
    9.3983   50.3087   14.8793 C   0  0  0  0  0  0
   10.8831   50.1295   15.2710 N   0  3  0  0  0  0
   11.6702   49.3812   14.1685 C   0  0  0  0  0  0
   13.1255   49.1583   14.6255 C   0  0  0  0  0  0
   13.1858   48.5610   15.9206 O   0  0  0  0  0  0
   12.5408   49.2964   16.9575 C   0  0  0  0  0  0
   11.0378   49.4633   16.6539 C   0  0  0  0  0  0
    6.8324   54.0961   28.7009 H   0  0  0  0  0  0
    7.2830   53.4921   27.1181 H   0  0  0  0  0  0
    7.0562   55.2229   27.3725 H   0  0  0  0  0  0
    1.5820   53.7800   26.0740 H   0  0  0  0  0  0
    0.3013   55.3150   31.2390 H   0  0  0  0  0  0
   -0.7963   53.1167   31.5158 H   0  0  0  0  0  0
   -0.3049   51.2964   29.9507 H   0  0  0  0  0  0
    2.4217   53.9622   23.5969 H   0  0  0  0  0  0
    7.5847   54.9800   23.2632 H   0  0  0  0  0  0
    8.8844   55.7175   21.6209 H   0  0  0  0  0  0
    9.1935   56.4005   19.2928 H   0  0  0  0  0  0
    5.0332   55.6320   18.5272 H   0  0  0  0  0  0
    4.7275   54.9199   20.8131 H   0  0  0  0  0  0
    8.2609   57.0169   17.1672 H   0  0  0  0  0  0
    6.5485   57.2890   17.1036 H   0  0  0  0  0  0
    7.1016   55.8031   15.2796 H   0  0  0  0  0  0
    6.1745   54.8889   16.4326 H   0  0  0  0  0  0
    8.3865   53.9668   17.3666 H   0  0  0  0  0  0
    9.2357   54.8227   16.1074 H   0  0  0  0  0  0
   10.0796   51.6620   13.3028 H   0  0  0  0  0  0
    8.3433   51.5118   13.4008 H   0  0  0  0  0  0
    9.0426   49.3928   14.4015 H   0  0  0  0  0  0
    8.8533   50.4291   15.8189 H   0  0  0  0  0  0
   11.6527   50.0129   13.2826 H   0  0  0  0  0  0
   11.1589   48.4402   13.9589 H   0  0  0  0  0  0
   13.6493   48.5195   13.9102 H   0  0  0  0  0  0
   13.6501   50.1163   14.6394 H   0  0  0  0  0  0
   12.7042   48.7891   17.9082 H   0  0  0  0  0  0
   13.0049   50.2801   17.0518 H   0  0  0  0  0  0
   10.4996   48.5185   16.6238 H   0  0  0  0  0  0
   10.5773   50.1334   17.3860 H   0  0  0  0  0  0
   11.2983   51.0494   15.3596 H   0  0  0  0  0  0
  1  2  1  0  0  0
  1 42  1  0  0  0
  1 43  1  0  0  0
  1 44  1  0  0  0
  2  7  1  0  0  0
  2  3  1  0  0  0
  3 20  2  0  0  0
  3  4  1  0  0  0
  4  5  1  0  0  0
  4 17  2  0  0  0
  5  6  2  0  0  0
  5 45  1  0  0  0
  6  7  1  0  0  0
  6  9  1  0  0  0
  7  8  2  0  0  0
  9 14  2  0  0  0
  9 10  1  0  0  0
 10 11  2  0  0  0
 10 16  1  0  0  0
 11 12  1  0  0  0
 11 46  1  0  0  0
 12 13  2  0  0  0
 12 47  1  0  0  0
 13 14  1  0  0  0
 13 48  1  0  0  0
 14 15  1  0  0  0
 17 18  1  0  0  0
 17 49  1  0  0  0
 18 19  2  0  0  0
 19 20  1  0  0  0
 19 21  1  0  0  0
 21 22  1  0  0  0
 21 50  1  0  0  0
 22 27  2  0  0  0
 22 23  1  0  0  0
 23 24  2  0  0  0
 23 51  1  0  0  0
 24 25  1  0  0  0
 24 52  1  0  0  0
 25 26  2  0  0  0
 25 28  1  0  0  0
 26 27  1  0  0  0
 26 53  1  0  0  0
 27 54  1  0  0  0
 28 29  1  0  0  0
 28 55  1  0  0  0
 28 56  1  0  0  0
 29 30  1  0  0  0
 29 57  1  0  0  0
 29 58  1  0  0  0
 30 31  1  0  0  0
 30 59  1  0  0  0
 30 60  1  0  0  0
 31 32  2  0  0  0
 31 33  1  0  0  0
 33 34  1  0  0  0
 34 35  1  0  0  0
 34 61  1  0  0  0
 34 62  1  0  0  0
 35 36  1  0  0  0
 35 63  1  0  0  0
 35 64  1  0  0  0
 36 41  1  0  0  0
 36 37  1  0  0  0
 36 73  1  0  0  0
 37 38  1  0  0  0
 37 65  1  0  0  0
 37 66  1  0  0  0
 38 39  1  0  0  0
 38 67  1  0  0  0
 38 68  1  0  0  0
 39 40  1  0  0  0
 40 41  1  0  0  0
 40 69  1  0  0  0
 40 70  1  0  0  0
 41 71  1  0  0  0
 41 72  1  0  0  0
M  CHG  1  36   1
M  END
> <i_i_glide_confnum>
151

> <i_i_glide_lignum>
126

> <i_i_glide_posenum>
230

> <i_i_glide_rotatable_bonds>
11

> <i_m_Source_File_Index>
102

> <b_m_subgroup_collapsed>
0

> <r_i_docking_score>
-9.00509

> <r_i_glide_ecoul>
-9.30726

> <r_i_glide_eff_state_penalty>
0

> <r_i_glide_einternal>
4.5555

> <r_i_glide_emodel>
-104.543

> <r_i_glide_energy>
-66.4663

> <r_i_glide_erotb>
0.473208

> <r_i_glide_esite>
-0.000165011

> <r_i_glide_evdw>
-57.1591

> <r_i_glide_gscore>
-9.00509

> <r_i_glide_hbond>
-0.242111

> <r_i_glide_ligand_efficiency>
-0.219636

> <r_i_glide_ligand_efficiency_ln>
-1.91046

> <r_i_glide_ligand_efficiency_sa>
-0.757354

> <r_i_glide_lipo>
-3.8412

> <r_i_glide_metal>
0

> <r_i_glide_rewards>
-1.14078

> <s_i_glide_gridfile>
wee1_glide-grid

> <s_m_Source_File>
wee1_actives_glide_SP.sdf

> <s_m_Source_Path>
/Users/zhangxujun/Desktop

> <s_m_entry_id>
240

> <s_m_entry_name>
wee1_actives_glide_SP.102

> <s_m_subgroup_title>
wee1_actives_glide_SP

> <s_m_subgroupid>
wee1_actives_glide_SP


$$$$
