CHEMBL530112_122
                    3D
 Schrodinger Suite 2024-2.
 55 60  0  0  1  0            999 V2000
    0.0900   51.8672   29.4922 C   0  0  0  0  0  0
   -0.1639   52.8176   30.4731 C   0  0  0  0  0  0
    0.4010   54.0862   30.3846 C   0  0  0  0  0  0
    1.2529   54.4008   29.3254 C   0  0  0  0  0  0
    1.5794   53.4187   28.3663 C   0  0  0  0  0  0
    0.9703   52.1604   28.4566 C   0  0  0  0  0  0
    2.5429   53.6564   27.2582 C   0  0  0  0  0  0
    2.0887   53.5312   25.9402 C   0  0  0  0  0  0
    2.9899   53.7762   24.8921 C   0  0  0  0  0  0
    4.3493   54.1155   25.1278 C   0  0  0  0  0  0
    4.9680   54.3211   23.8686 C   0  0  0  0  0  0
    6.2647   54.7023   23.4581 C   0  0  0  0  0  0
    6.5220   54.8967   22.1009 C   0  0  0  0  0  0
    5.5347   54.6562   21.1518 C   0  0  0  0  0  0
    4.2552   54.2343   21.5076 C   0  0  0  0  0  0
    3.9760   54.0966   22.8749 C   0  0  0  0  0  0
    2.7890   53.7831   23.5228 N   0  0  0  0  0  0
    1.5132   53.5411   22.8579 C   0  0  0  0  0  0
    1.3960   52.1178   22.2720 C   0  0  0  0  0  0
    1.1793   51.0008   23.3253 C   0  0  0  0  0  0
    0.5564   49.7177   22.7362 C   0  0  0  0  0  0
    0.7106   49.4149   21.5511 O   0  0  0  0  0  0
   -0.2466   48.9098   23.5926 N   0  0  0  0  0  0
   -0.3746   48.9479   24.9608 C   0  0  0  0  0  0
   -1.2916   47.9579   25.2817 C   0  0  0  0  0  0
   -1.7269   47.3185   24.2127 N   0  0  0  0  0  0
   -1.1035   47.8979   23.2151 C   0  0  0  0  0  0
    7.7650   55.2982   21.6818 O   0  0  0  0  0  0
    4.7711   54.2040   26.4676 C   0  0  0  0  0  0
    3.8873   53.9710   27.4913 C   0  0  0  0  0  0
    4.6474   54.1206   28.7669 C   0  0  0  0  0  0
    4.2493   53.9828   29.9212 O   0  0  0  0  0  0
    5.8931   54.4726   28.4045 N   0  0  0  0  0  0
    6.0729   54.5588   27.0771 C   0  0  0  0  0  0
    7.1044   54.8963   26.5181 O   0  0  0  0  0  0
    1.8580   56.0229   29.2371 Cl  0  0  0  0  0  0
   -0.3836   50.8967   29.5458 H   0  0  0  0  0  0
   -0.8350   52.5738   31.2817 H   0  0  0  0  0  0
    0.1688   54.8286   31.1344 H   0  0  0  0  0  0
    1.1848   51.3951   27.7243 H   0  0  0  0  0  0
    1.0566   53.2816   25.7476 H   0  0  0  0  0  0
    7.0534   54.8822   24.1669 H   0  0  0  0  0  0
    5.7671   54.7959   20.1064 H   0  0  0  0  0  0
    3.5044   54.0660   20.7489 H   0  0  0  0  0  0
    1.4130   54.2922   22.0817 H   0  0  0  0  0  0
    0.6985   53.7466   23.5525 H   0  0  0  0  0  0
    2.2710   51.8902   21.6591 H   0  0  0  0  0  0
    0.5557   52.1330   21.5741 H   0  0  0  0  0  0
    0.5060   51.3831   24.0926 H   0  0  0  0  0  0
    2.1191   50.7487   23.8159 H   0  0  0  0  0  0
    0.1861   49.6324   25.5807 H   0  0  0  0  0  0
   -1.6188   47.6969   26.2794 H   0  0  0  0  0  0
   -1.2119   47.6450   22.1697 H   0  0  0  0  0  0
    8.4266   55.2987   22.3875 H   0  0  0  0  0  0
    6.6174   54.7093   29.0675 H   0  0  0  0  0  0
  1  6  2  0  0  0
  1  2  1  0  0  0
  1 37  1  0  0  0
  2  3  2  0  0  0
  2 38  1  0  0  0
  3  4  1  0  0  0
  3 39  1  0  0  0
  4  5  2  0  0  0
  4 36  1  0  0  0
  5  6  1  0  0  0
  5  7  1  0  0  0
  6 40  1  0  0  0
  7 30  2  0  0  0
  7  8  1  0  0  0
  8  9  2  0  0  0
  8 41  1  0  0  0
  9 17  1  0  0  0
  9 10  1  0  0  0
 10 11  1  0  0  0
 10 29  2  0  0  0
 11 16  2  0  0  0
 11 12  1  0  0  0
 12 13  2  0  0  0
 12 42  1  0  0  0
 13 14  1  0  0  0
 13 28  1  0  0  0
 14 15  2  0  0  0
 14 43  1  0  0  0
 15 16  1  0  0  0
 15 44  1  0  0  0
 16 17  1  0  0  0
 17 18  1  0  0  0
 18 19  1  0  0  0
 18 45  1  0  0  0
 18 46  1  0  0  0
 19 20  1  0  0  0
 19 47  1  0  0  0
 19 48  1  0  0  0
 20 21  1  0  0  0
 20 49  1  0  0  0
 20 50  1  0  0  0
 21 22  2  0  0  0
 21 23  1  0  0  0
 23 27  1  0  0  0
 23 24  1  0  0  0
 24 25  2  0  0  0
 24 51  1  0  0  0
 25 26  1  0  0  0
 25 52  1  0  0  0
 26 27  2  0  0  0
 27 53  1  0  0  0
 28 54  1  0  0  0
 29 34  1  0  0  0
 29 30  1  0  0  0
 30 31  1  0  0  0
 31 32  2  0  0  0
 31 33  1  0  0  0
 33 34  1  0  0  0
 33 55  1  0  0  0
 34 35  2  0  0  0
M  END
> <i_i_glide_confnum>
86

> <i_i_glide_lignum>
123

> <i_i_glide_posenum>
367

> <i_i_glide_rotatable_bonds>
7

> <i_m_Source_File_Index>
137

> <b_m_subgroup_collapsed>
0

> <r_i_docking_score>
-11.815

> <r_i_glide_ecoul>
-14.3813

> <r_i_glide_eff_state_penalty>
0

> <r_i_glide_einternal>
6.79578

> <r_i_glide_emodel>
-121.07

> <r_i_glide_energy>
-72.2797

> <r_i_glide_erotb>
0.40996

> <r_i_glide_esite>
-0.0160167

> <r_i_glide_evdw>
-57.8985

> <r_i_glide_gscore>
-11.815

> <r_i_glide_hbond>
-0.904354

> <r_i_glide_ligand_efficiency>
-0.328194

> <r_i_glide_ligand_efficiency_ln>
-2.57771

> <r_i_glide_ligand_efficiency_sa>
-1.08367

> <r_i_glide_lipo>
-3.98221

> <r_i_glide_metal>
0

> <r_i_glide_rewards>
-2.27026

> <s_i_glide_gridfile>
wee1_glide-grid

> <s_m_Source_File>
wee1_actives_glide_SP.sdf

> <s_m_Source_Path>
/Users/zhangxujun/Desktop

> <s_m_entry_id>
275

> <s_m_entry_name>
wee1_actives_glide_SP.137

> <s_m_subgroup_title>
wee1_actives_glide_SP

> <s_m_subgroupid>
wee1_actives_glide_SP


$$$$
