CHEMBL472208_3
                    3D
 Schrodinger Suite 2024-2.
 51 56  0  0  1  0            999 V2000
    0.1608   51.8829   29.4615 C   0  0  0  0  0  0
   -0.0964   52.8443   30.4329 C   0  0  0  0  0  0
    0.4072   54.1335   30.2873 C   0  0  0  0  0  0
    1.2085   54.4546   29.1910 C   0  0  0  0  0  0
    1.5564   53.4584   28.2564 C   0  0  0  0  0  0
    0.9960   52.1823   28.3899 C   0  0  0  0  0  0
    2.5213   53.7008   27.1524 C   0  0  0  0  0  0
    2.0847   53.5848   25.8280 C   0  0  0  0  0  0
    3.0050   53.8177   24.7919 C   0  0  0  0  0  0
    4.3593   54.1582   25.0515 C   0  0  0  0  0  0
    4.9999   54.3475   23.8032 C   0  0  0  0  0  0
    6.3043   54.7256   23.4213 C   0  0  0  0  0  0
    6.5969   54.8967   22.0703 C   0  0  0  0  0  0
    5.6347   54.6413   21.0990 C   0  0  0  0  0  0
    4.3485   54.2152   21.4262 C   0  0  0  0  0  0
    4.0326   54.0972   22.7883 C   0  0  0  0  0  0
    2.8347   53.7840   23.4164 N   0  0  0  0  0  0
    1.5702   53.4901   22.7453 C   0  0  0  0  0  0
    1.1293   52.0257   22.9639 C   0  0  0  0  0  0
   -0.5594   51.9771   23.7325 S   0  0  1  0  0  0
   -1.5616   52.0734   22.5793 O   0  0  0  0  0  0
   -0.5004   50.2054   24.2077 C   0  0  0  0  0  0
   -0.9886   49.2431   23.4340 N   0  0  0  0  0  0
    0.2075   47.8629   26.0176 H   0  0  0  0  0  0
   -0.7360   48.1637   24.1259 C   0  0  0  0  0  0
   -0.0958   48.4968   25.2818 N   0  0  0  0  0  0
    0.0655   49.8164   25.3346 N   0  0  0  0  0  0
    7.8506   55.2985   21.6817 O   0  0  0  0  0  0
    4.7603   54.2460   26.3978 C   0  0  0  0  0  0
    3.8612   54.0147   27.4076 C   0  0  0  0  0  0
    4.6023   54.1596   28.6964 C   0  0  0  0  0  0
    4.1877   54.0243   29.8456 O   0  0  0  0  0  0
    5.8563   54.4965   28.3528 N   0  0  0  0  0  0
    6.0569   54.5823   27.0287 C   0  0  0  0  0  0
    7.1044   54.8968   26.4871 O   0  0  0  0  0  0
    1.7382   56.0967   29.0208 Cl  0  0  0  0  0  0
   -0.2707   50.8968   29.5530 H   0  0  0  0  0  0
   -0.7189   52.5940   31.2802 H   0  0  0  0  0  0
    0.1674   54.8879   31.0223 H   0  0  0  0  0  0
    1.2245   51.4070   27.6719 H   0  0  0  0  0  0
    1.0565   53.3341   25.6224 H   0  0  0  0  0  0
    7.0736   54.9225   24.1461 H   0  0  0  0  0  0
    5.8941   54.7673   20.0577 H   0  0  0  0  0  0
    3.6239   54.0319   20.6459 H   0  0  0  0  0  0
    1.6682   53.6966   21.6818 H   0  0  0  0  0  0
    0.8403   54.2047   23.1268 H   0  0  0  0  0  0
    1.8254   51.4692   23.5944 H   0  0  0  0  0  0
    1.0777   51.4963   22.0120 H   0  0  0  0  0  0
   -0.9734   47.1394   23.8843 H   0  0  0  0  0  0
    8.4931   55.3010   22.4054 H   0  0  0  0  0  0
    6.5758   54.7187   29.0269 H   0  0  0  0  0  0
  1  6  2  0  0  0
  1  2  1  0  0  0
  1 37  1  0  0  0
  2  3  2  0  0  0
  2 38  1  0  0  0
  3  4  1  0  0  0
  3 39  1  0  0  0
  4  5  2  0  0  0
  4 36  1  0  0  0
  5  6  1  0  0  0
  5  7  1  0  0  0
  6 40  1  0  0  0
  7 30  2  0  0  0
  7  8  1  0  0  0
  8  9  2  0  0  0
  8 41  1  0  0  0
  9 17  1  0  0  0
  9 10  1  0  0  0
 10 11  1  0  0  0
 10 29  2  0  0  0
 11 16  2  0  0  0
 11 12  1  0  0  0
 12 13  2  0  0  0
 12 42  1  0  0  0
 13 14  1  0  0  0
 13 28  1  0  0  0
 14 15  2  0  0  0
 14 43  1  0  0  0
 15 16  1  0  0  0
 15 44  1  0  0  0
 16 17  1  0  0  0
 17 18  1  0  0  0
 18 19  1  0  0  0
 18 45  1  0  0  0
 18 46  1  0  0  0
 19 20  1  0  0  0
 19 47  1  0  0  0
 19 48  1  0  0  0
 20 21  2  0  0  0
 20 22  1  0  0  0
 22 23  1  0  0  0
 22 27  2  0  0  0
 23 25  2  0  0  0
 24 26  1  0  0  0
 25 49  1  0  0  0
 25 26  1  0  0  0
 26 27  1  0  0  0
 28 50  1  0  0  0
 29 34  1  0  0  0
 29 30  1  0  0  0
 30 31  1  0  0  0
 31 32  2  0  0  0
 31 33  1  0  0  0
 33 34  1  0  0  0
 33 51  1  0  0  0
 34 35  2  0  0  0
M  END
> <i_i_glide_confnum>
58

> <i_i_glide_lignum>
4

> <i_i_glide_posenum>
231

> <i_i_glide_rotatable_bonds>
6

> <i_m_Source_File_Index>
68

> <b_m_subgroup_collapsed>
0

> <r_i_docking_score>
-12.8019

> <r_i_glide_ecoul>
-18.6532

> <r_i_glide_eff_state_penalty>
0

> <r_i_glide_einternal>
3.11939

> <r_i_glide_emodel>
-134.611

> <r_i_glide_energy>
-76.0627

> <r_i_glide_erotb>
0.223772

> <r_i_glide_esite>
-0.113299

> <r_i_glide_evdw>
-57.4095

> <r_i_glide_gscore>
-12.8019

> <r_i_glide_hbond>
-1.31773

> <r_i_glide_ligand_efficiency>
-0.36577

> <r_i_glide_ligand_efficiency_ln>
-2.81031

> <r_i_glide_ligand_efficiency_sa>
-1.19646

> <r_i_glide_lipo>
-3.876

> <r_i_glide_metal>
0

> <r_i_glide_rewards>
-2.05023

> <s_i_glide_gridfile>
wee1_glide-grid

> <s_m_Source_File>
wee1_actives_glide_SP.sdf

> <s_m_Source_Path>
/Users/zhangxujun/Desktop

> <s_m_entry_id>
206

> <s_m_entry_name>
wee1_actives_glide_SP.68

> <s_m_subgroup_title>
wee1_actives_glide_SP

> <s_m_subgroupid>
wee1_actives_glide_SP


$$$$
