CHEMBL209486_101
                    3D
 Schrodinger Suite 2024-2.
 34 38  0  0  1  0            999 V2000
    6.0281   54.4967   21.9987 C   0  0  0  0  0  0
    5.8383   54.1894   23.3462 C   0  0  0  0  0  0
    4.4974   54.0800   23.7283 C   0  0  0  0  0  0
    3.5036   54.1116   22.2835 S   0  0  0  0  0  0
    4.8565   54.4610   21.2724 C   0  0  0  0  0  0
    3.8563   53.8791   25.0864 C   0  0  0  0  0  0
    2.5708   53.2969   25.0948 C   0  0  0  0  0  0
    1.9408   53.0562   26.3188 C   0  0  0  0  0  0
    2.5481   53.3743   27.5554 C   0  0  0  0  0  0
    1.6569   52.9693   28.5799 C   0  0  0  0  0  0
    1.7118   52.9813   29.9855 C   0  0  0  0  0  0
    0.6332   52.4960   30.7161 C   0  0  0  0  0  0
   -0.4944   51.9977   30.0736 C   0  0  0  0  0  0
   -0.5846   51.9400   28.6829 C   0  0  0  0  0  0
    0.5018   52.4323   27.9520 C   0  0  0  0  0  0
    0.7114   52.4922   26.5915 N   0  0  0  0  0  0
    0.0607   52.1572   25.8959 H   0  0  0  0  0  0
    0.7041   52.4487   32.0828 O   0  0  0  0  0  0
    3.8215   53.9702   27.5213 C   0  0  0  0  0  0
    4.4601   54.2084   26.3213 C   0  0  0  0  0  0
    5.7726   54.8515   26.6775 C   0  0  0  0  0  0
    6.6648   55.3013   25.9653 O   0  0  0  0  0  0
    5.8097   54.8965   28.0187 N   0  0  0  0  0  0
    4.6933   54.4603   28.6147 C   0  0  0  0  0  0
    4.4668   54.4965   29.8161 O   0  0  0  0  0  0
    6.9975   54.6884   21.5626 H   0  0  0  0  0  0
    6.6778   54.0874   24.0114 H   0  0  0  0  0  0
    4.7209   54.6149   20.2115 H   0  0  0  0  0  0
    2.0696   53.0071   24.1849 H   0  0  0  0  0  0
    2.5778   53.3253   30.5156 H   0  0  0  0  0  0
   -1.2974   51.5883   30.6688 H   0  0  0  0  0  0
   -1.4515   51.5073   28.2037 H   0  0  0  0  0  0
   -0.1482   52.1638   32.4788 H   0  0  0  0  0  0
    6.5789   55.3007   28.5393 H   0  0  0  0  0  0
  1  5  2  0  0  0
  1  2  1  0  0  0
  1 26  1  0  0  0
  2  3  2  0  0  0
  2 27  1  0  0  0
  3  4  1  0  0  0
  3  6  1  0  0  0
  4  5  1  0  0  0
  5 28  1  0  0  0
  6 20  2  0  0  0
  6  7  1  0  0  0
  7  8  2  0  0  0
  7 29  1  0  0  0
  8 16  1  0  0  0
  8  9  1  0  0  0
  9 10  1  0  0  0
  9 19  2  0  0  0
 10 15  2  0  0  0
 10 11  1  0  0  0
 11 12  2  0  0  0
 11 30  1  0  0  0
 12 13  1  0  0  0
 12 18  1  0  0  0
 13 14  2  0  0  0
 13 31  1  0  0  0
 14 15  1  0  0  0
 14 32  1  0  0  0
 15 16  1  0  0  0
 16 17  1  0  0  0
 18 33  1  0  0  0
 19 24  1  0  0  0
 19 20  1  0  0  0
 20 21  1  0  0  0
 21 22  2  0  0  0
 21 23  1  0  0  0
 23 24  1  0  0  0
 23 34  1  0  0  0
 24 25  2  0  0  0
M  END
> <i_i_glide_confnum>
3

> <i_i_glide_lignum>
102

> <i_i_glide_posenum>
91

> <i_i_glide_rotatable_bonds>
2

> <i_m_Source_File_Index>
7

> <b_m_subgroup_collapsed>
0

> <r_i_docking_score>
-9.65933

> <r_i_glide_ecoul>
-11.8641

> <r_i_glide_eff_state_penalty>
0

> <r_i_glide_einternal>
1.33869

> <r_i_glide_emodel>
-83.265

> <r_i_glide_energy>
-50.977

> <r_i_glide_erotb>
0.118093

> <r_i_glide_esite>
0

> <r_i_glide_evdw>
-39.1129

> <r_i_glide_gscore>
-9.65933

> <r_i_glide_hbond>
-0.72

> <r_i_glide_ligand_efficiency>
-0.402472

> <r_i_glide_ligand_efficiency_ln>
-2.31192

> <r_i_glide_ligand_efficiency_sa>
-1.16093

> <r_i_glide_lipo>
-2.54872

> <r_i_glide_metal>
0

> <r_i_glide_rewards>
-2.77345

> <s_i_glide_gridfile>
wee1_glide-grid

> <s_m_Source_File>
wee1_actives_glide_SP.sdf

> <s_m_Source_Path>
/Users/zhangxujun/Desktop

> <s_m_entry_id>
145

> <s_m_entry_name>
wee1_actives_glide_SP.7

> <s_m_subgroup_title>
wee1_actives_glide_SP

> <s_m_subgroupid>
wee1_actives_glide_SP


$$$$
