CHEMBL520182_134
                    3D
 Schrodinger Suite 2024-2.
 35 38  0  0  1  0            999 V2000
   -0.6171   51.7849   29.6125 C   0  0  0  0  0  0
   -0.6002   51.6973   28.2181 C   0  0  0  0  0  0
    0.4433   52.3462   27.5360 C   0  0  0  0  0  0
    1.4848   53.0104   28.2381 C   0  0  0  0  0  0
    1.4176   53.0846   29.6429 C   0  0  0  0  0  0
    0.3571   52.4840   30.3130 C   0  0  0  0  0  0
    0.3052   52.5608   31.6815 O   0  0  0  0  0  0
    2.4346   53.4455   27.2857 C   0  0  0  0  0  0
    1.9036   53.1579   25.9917 C   0  0  0  0  0  0
    0.6914   52.4953   26.1747 N   0  0  0  0  0  0
   -0.1675   51.9692   25.1020 C   0  0  0  0  0  0
   -1.6398   52.4730   25.2117 C   0  0  0  0  0  0
   -2.2819   52.8965   23.8815 C   0  0  0  0  0  0
   -1.7871   52.4968   22.8052 O   0  0  0  0  0  0
   -3.2951   53.6240   23.9698 O   0  5  0  0  0  0
    2.5976   53.5115   24.8162 C   0  0  0  0  0  0
    3.8618   54.0966   24.9506 C   0  0  0  0  0  0
    4.4041   54.3291   26.2108 C   0  0  0  0  0  0
    3.7115   54.0441   27.3589 C   0  0  0  0  0  0
    4.5702   54.4537   28.4998 C   0  0  0  0  0  0
    4.3213   54.4179   29.6988 O   0  0  0  0  0  0
    5.7196   54.8910   27.9505 N   0  0  0  0  0  0
    5.7360   54.8726   26.6041 C   0  0  0  0  0  0
    6.6697   55.2418   25.8911 O   0  0  0  0  0  0
   -1.4093   51.2888   30.1565 H   0  0  0  0  0  0
   -1.3735   51.1448   27.7029 H   0  0  0  0  0  0
    2.1672   53.5945   30.2180 H   0  0  0  0  0  0
   -0.4406   52.1086   32.1264 H   0  0  0  0  0  0
    0.2831   52.2129   24.1417 H   0  0  0  0  0  0
   -0.1416   50.8817   25.1696 H   0  0  0  0  0  0
   -2.2633   51.6769   25.6166 H   0  0  0  0  0  0
   -1.7306   53.2961   25.9193 H   0  0  0  0  0  0
    2.1989   53.3117   23.8324 H   0  0  0  0  0  0
    4.4230   54.3434   24.0602 H   0  0  0  0  0  0
    6.4911   55.2373   28.5072 H   0  0  0  0  0  0
  1  6  2  0  0  0
  1  2  1  0  0  0
  1 25  1  0  0  0
  2  3  2  0  0  0
  2 26  1  0  0  0
  3 10  1  0  0  0
  3  4  1  0  0  0
  4  5  2  0  0  0
  4  8  1  0  0  0
  5  6  1  0  0  0
  5 27  1  0  0  0
  6  7  1  0  0  0
  7 28  1  0  0  0
  8 19  2  0  0  0
  8  9  1  0  0  0
  9 10  1  0  0  0
  9 16  2  0  0  0
 10 11  1  0  0  0
 11 12  1  0  0  0
 11 29  1  0  0  0
 11 30  1  0  0  0
 12 13  1  0  0  0
 12 31  1  0  0  0
 12 32  1  0  0  0
 13 14  2  0  0  0
 13 15  1  0  0  0
 16 17  1  0  0  0
 16 33  1  0  0  0
 17 18  2  0  0  0
 17 34  1  0  0  0
 18 23  1  0  0  0
 18 19  1  0  0  0
 19 20  1  0  0  0
 20 21  2  0  0  0
 20 22  1  0  0  0
 22 23  1  0  0  0
 22 35  1  0  0  0
 23 24  2  0  0  0
M  CHG  1  15  -1
M  END
> <i_i_glide_confnum>
4

> <i_i_glide_lignum>
135

> <i_i_glide_posenum>
348

> <i_i_glide_rotatable_bonds>
4

> <i_m_Source_File_Index>
95

> <b_m_subgroup_collapsed>
0

> <r_i_docking_score>
-9.19464

> <r_i_glide_ecoul>
-14.4065

> <r_i_glide_eff_state_penalty>
0

> <r_i_glide_einternal>
6.9448

> <r_i_glide_emodel>
-77.4671

> <r_i_glide_energy>
-49.4906

> <r_i_glide_erotb>
0.250662

> <r_i_glide_esite>
0

> <r_i_glide_evdw>
-35.0841

> <r_i_glide_gscore>
-9.19464

> <r_i_glide_hbond>
-0.710311

> <r_i_glide_ligand_efficiency>
-0.38311

> <r_i_glide_ligand_efficiency_ln>
-2.2007

> <r_i_glide_ligand_efficiency_sa>
-1.10508

> <r_i_glide_lipo>
-1.68563

> <r_i_glide_metal>
0

> <r_i_glide_rewards>
-3.13418

> <s_i_glide_gridfile>
wee1_glide-grid

> <s_m_Source_File>
wee1_actives_glide_SP.sdf

> <s_m_Source_Path>
/Users/zhangxujun/Desktop

> <s_m_entry_id>
233

> <s_m_entry_name>
wee1_actives_glide_SP.95

> <s_m_subgroup_title>
wee1_actives_glide_SP

> <s_m_subgroupid>
wee1_actives_glide_SP


$$$$
