CHEMBL379346_64
                    3D
 Schrodinger Suite 2024-2.
 47 52  0  0  1  0            999 V2000
   -0.8222   50.0328   25.0905 C   0  0  0  0  0  0
    0.3040   49.6962   25.8363 C   0  0  0  0  0  0
    0.7044   50.5235   26.8817 C   0  0  0  0  0  0
    0.0023   51.6880   27.1803 C   0  0  0  0  0  0
   -1.1405   52.0039   26.4361 C   0  0  0  0  0  0
   -1.5500   51.1826   25.3882 C   0  0  0  0  0  0
    0.4173   52.5742   28.2977 C   0  0  0  0  0  0
   -0.2903   52.4258   29.4972 C   0  0  0  0  0  0
   -0.0953   53.2984   30.5609 C   0  0  0  0  0  0
    0.7586   54.3807   30.4118 C   0  0  0  0  0  0
    1.4961   54.5173   29.2396 C   0  0  0  0  0  0
    1.4244   53.5741   28.1987 C   0  0  0  0  0  0
    2.4045   53.6984   27.0541 C   0  0  0  0  0  0
    1.9441   53.5999   25.7295 C   0  0  0  0  0  0
    2.8485   53.7836   24.6776 C   0  0  0  0  0  0
    4.2133   54.1069   24.8906 C   0  0  0  0  0  0
    4.8065   54.2975   23.6169 C   0  0  0  0  0  0
    6.0839   54.6971   23.1752 C   0  0  0  0  0  0
    6.3043   54.8632   21.8090 C   0  0  0  0  0  0
    5.3218   54.5398   20.8784 C   0  0  0  0  0  0
    4.0601   54.0969   21.2698 C   0  0  0  0  0  0
    3.8082   54.0221   22.6427 C   0  0  0  0  0  0
    2.6470   53.7139   23.3156 N   0  0  0  0  0  0
    1.7707   53.4885   22.8681 H   0  0  0  0  0  0
    7.5172   55.3193   21.3704 O   0  0  0  0  0  0
    4.6618   54.1854   26.2210 C   0  0  0  0  0  0
    3.7827   53.9603   27.2610 C   0  0  0  0  0  0
    4.6032   54.0510   28.5137 C   0  0  0  0  0  0
    4.2680   53.8704   29.6816 O   0  0  0  0  0  0
    5.8431   54.3918   28.1254 N   0  0  0  0  0  0
    5.9997   54.4968   26.7990 C   0  0  0  0  0  0
    7.0478   54.7984   26.2340 O   0  0  0  0  0  0
   -1.1408   49.3882   24.2848 H   0  0  0  0  0  0
    0.8551   48.7920   25.6184 H   0  0  0  0  0  0
    1.5707   50.2574   27.4672 H   0  0  0  0  0  0
   -1.7085   52.8927   26.6691 H   0  0  0  0  0  0
   -2.4316   51.4301   24.8155 H   0  0  0  0  0  0
   -1.0147   51.6286   29.6023 H   0  0  0  0  0  0
   -0.6340   53.1558   31.4866 H   0  0  0  0  0  0
    0.8725   55.0960   31.2134 H   0  0  0  0  0  0
    2.1777   55.3521   29.1677 H   0  0  0  0  0  0
    0.9075   53.4091   25.5097 H   0  0  0  0  0  0
    6.8802   54.9312   23.8616 H   0  0  0  0  0  0
    5.5274   54.6437   19.8228 H   0  0  0  0  0  0
    3.3013   53.8696   20.5347 H   0  0  0  0  0  0
    7.6058   55.2961   20.4148 H   0  0  0  0  0  0
    6.5908   54.5795   28.7777 H   0  0  0  0  0  0
  1  6  2  0  0  0
  1  2  1  0  0  0
  1 33  1  0  0  0
  2  3  2  0  0  0
  2 34  1  0  0  0
  3  4  1  0  0  0
  3 35  1  0  0  0
  4  5  2  0  0  0
  4  7  1  0  0  0
  5  6  1  0  0  0
  5 36  1  0  0  0
  6 37  1  0  0  0
  7 12  2  0  0  0
  7  8  1  0  0  0
  8  9  2  0  0  0
  8 38  1  0  0  0
  9 10  1  0  0  0
  9 39  1  0  0  0
 10 11  2  0  0  0
 10 40  1  0  0  0
 11 12  1  0  0  0
 11 41  1  0  0  0
 12 13  1  0  0  0
 13 27  2  0  0  0
 13 14  1  0  0  0
 14 15  2  0  0  0
 14 42  1  0  0  0
 15 23  1  0  0  0
 15 16  1  0  0  0
 16 17  1  0  0  0
 16 26  2  0  0  0
 17 22  2  0  0  0
 17 18  1  0  0  0
 18 19  2  0  0  0
 18 43  1  0  0  0
 19 20  1  0  0  0
 19 25  1  0  0  0
 20 21  2  0  0  0
 20 44  1  0  0  0
 21 22  1  0  0  0
 21 45  1  0  0  0
 22 23  1  0  0  0
 23 24  1  0  0  0
 25 46  1  0  0  0
 26 31  1  0  0  0
 26 27  1  0  0  0
 27 28  1  0  0  0
 28 29  2  0  0  0
 28 30  1  0  0  0
 30 31  1  0  0  0
 30 47  1  0  0  0
 31 32  2  0  0  0
M  END
> <i_i_glide_confnum>
1

> <i_i_glide_lignum>
65

> <i_i_glide_posenum>
280

> <i_i_glide_rotatable_bonds>
3

> <i_m_Source_File_Index>
52

> <b_m_subgroup_collapsed>
0

> <r_i_docking_score>
-9.34171

> <r_i_glide_ecoul>
-7.42609

> <r_i_glide_eff_state_penalty>
0

> <r_i_glide_einternal>
11.2452

> <r_i_glide_emodel>
-83.0098

> <r_i_glide_energy>
-56.5259

> <r_i_glide_erotb>
0.168142

> <r_i_glide_esite>
0

> <r_i_glide_evdw>
-49.0999

> <r_i_glide_gscore>
-9.34171

> <r_i_glide_hbond>
-0.47766

> <r_i_glide_ligand_efficiency>
-0.301345

> <r_i_glide_ligand_efficiency_ln>
-2.10684

> <r_i_glide_ligand_efficiency_sa>
-0.946641

> <r_i_glide_lipo>
-3.11548

> <r_i_glide_metal>
0

> <r_i_glide_rewards>
-2.3478

> <s_i_glide_gridfile>
wee1_glide-grid

> <s_m_Source_File>
wee1_actives_glide_SP.sdf

> <s_m_Source_Path>
/Users/zhangxujun/Desktop

> <s_m_entry_id>
190

> <s_m_entry_name>
wee1_actives_glide_SP.52

> <s_m_subgroup_title>
wee1_actives_glide_SP

> <s_m_subgroupid>
wee1_actives_glide_SP


$$$$
