CHEMBL270866_27
                    3D
 Schrodinger Suite 2024-2.
 64 69  0  0  1  0            999 V2000
    1.4395   53.7206   22.9790 C   0  0  0  0  0  0
    2.7384   53.9490   23.5943 N   0  0  0  0  0  0
    2.9615   53.9175   24.9523 C   0  0  0  0  0  0
    2.0640   53.6652   25.9969 C   0  0  0  0  0  0
    2.5302   53.7418   27.3109 C   0  0  0  0  0  0
    3.8777   54.0410   27.5437 C   0  0  0  0  0  0
    4.7594   54.2714   26.5174 C   0  0  0  0  0  0
    4.3318   54.2173   25.1792 C   0  0  0  0  0  0
    4.9451   54.4047   23.9132 C   0  0  0  0  0  0
    3.9134   54.2801   22.9450 C   0  0  0  0  0  0
    4.1525   54.4960   21.5905 C   0  0  0  0  0  0
    5.4560   54.7581   21.1833 C   0  0  0  0  0  0
    6.4925   54.9053   22.1071 C   0  0  0  0  0  0
    6.2544   54.7109   23.4725 C   0  0  0  0  0  0
    7.7426   55.2959   21.6870 O   0  0  0  0  0  0
    5.7338   54.9785   19.3891 S   0  0  2  0  0  0
    4.4921   55.6969   18.8606 O   0  0  0  0  0  0
    5.5734   53.2004   18.8480 C   0  0  0  0  0  0
    4.1410   52.6144   18.9635 C   0  0  0  0  0  0
    3.9681   51.6133   20.1297 C   0  0  0  0  0  0
    2.5375   51.0384   20.1443 N   0  3  0  0  0  0
    2.2211   50.2204   21.4086 C   0  0  0  0  0  0
    0.9699   49.4362   21.0215 C   0  0  0  0  0  0
    1.0612   49.2022   19.5111 C   0  0  0  0  0  0
    2.2306   50.0494   19.0008 C   0  0  0  0  0  0
    6.0710   54.5845   27.1221 C   0  0  0  0  0  0
    7.1044   54.8968   26.5536 O   0  0  0  0  0  0
    5.8954   54.4963   28.4511 N   0  0  0  0  0  0
    4.6406   54.1785   28.8179 C   0  0  0  0  0  0
    4.2367   54.0629   29.9726 O   0  0  0  0  0  0
    1.5710   53.4698   28.4092 C   0  0  0  0  0  0
    0.9973   52.1957   28.4859 C   0  0  0  0  0  0
    0.1070   51.8778   29.5031 C   0  0  0  0  0  0
   -0.1857   52.8174   30.4829 C   0  0  0  0  0  0
    0.3514   54.1002   30.4103 C   0  0  0  0  0  0
    1.2058   54.4417   29.3624 C   0  0  0  0  0  0
    1.7584   56.0824   29.2589 Cl  0  0  0  0  0  0
    1.0375   52.7681   23.3229 H   0  0  0  0  0  0
    0.7622   54.5184   23.2819 H   0  0  0  0  0  0
    1.5143   53.6956   21.8938 H   0  0  0  0  0  0
    1.0298   53.4250   25.7991 H   0  0  0  0  0  0
    3.3562   54.4563   20.8680 H   0  0  0  0  0  0
    7.0655   54.8329   24.1697 H   0  0  0  0  0  0
    8.4029   55.3002   22.3937 H   0  0  0  0  0  0
    6.3045   52.5756   19.3517 H   0  0  0  0  0  0
    5.8774   53.1805   17.8009 H   0  0  0  0  0  0
    3.9183   52.0964   18.0309 H   0  0  0  0  0  0
    3.3909   53.4027   18.9956 H   0  0  0  0  0  0
    4.1031   52.0569   21.1103 H   0  0  0  0  0  0
    4.6449   50.7628   20.0820 H   0  0  0  0  0  0
    2.1120   50.8972   22.2565 H   0  0  0  0  0  0
    3.0881   49.5784   21.5888 H   0  0  0  0  0  0
    0.0766   50.0121   21.2705 H   0  0  0  0  0  0
    0.9048   48.4970   21.5721 H   0  0  0  0  0  0
    1.2404   48.1489   19.2847 H   0  0  0  0  0  0
    0.1330   49.4811   19.0094 H   0  0  0  0  0  0
    3.1258   49.4393   18.8738 H   0  0  0  0  0  0
    2.0555   50.6022   18.0760 H   0  0  0  0  0  0
    6.6271   54.7235   29.1114 H   0  0  0  0  0  0
    1.2437   51.4390   27.7553 H   0  0  0  0  0  0
   -0.3438   50.8967   29.5456 H   0  0  0  0  0  0
   -0.8640   52.5556   31.2816 H   0  0  0  0  0  0
    0.0885   54.8351   31.1572 H   0  0  0  0  0  0
    1.8950   51.8175   20.0856 H   0  0  0  0  0  0
  1  2  1  0  0  0
  1 38  1  0  0  0
  1 39  1  0  0  0
  1 40  1  0  0  0
  2 10  1  0  0  0
  2  3  1  0  0  0
  3  8  2  0  0  0
  3  4  1  0  0  0
  4  5  2  0  0  0
  4 41  1  0  0  0
  5  6  1  0  0  0
  5 31  1  0  0  0
  6 29  1  0  0  0
  6  7  2  0  0  0
  7  8  1  0  0  0
  7 26  1  0  0  0
  8  9  1  0  0  0
  9 14  2  0  0  0
  9 10  1  0  0  0
 10 11  2  0  0  0
 11 12  1  0  0  0
 11 42  1  0  0  0
 12 13  2  0  0  0
 12 16  1  0  0  0
 13 14  1  0  0  0
 13 15  1  0  0  0
 14 43  1  0  0  0
 15 44  1  0  0  0
 16 17  2  0  0  0
 16 18  1  0  0  0
 18 19  1  0  0  0
 18 45  1  0  0  0
 18 46  1  0  0  0
 19 20  1  0  0  0
 19 47  1  0  0  0
 19 48  1  0  0  0
 20 21  1  0  0  0
 20 49  1  0  0  0
 20 50  1  0  0  0
 21 25  1  0  0  0
 21 22  1  0  0  0
 21 64  1  0  0  0
 22 23  1  0  0  0
 22 51  1  0  0  0
 22 52  1  0  0  0
 23 24  1  0  0  0
 23 53  1  0  0  0
 23 54  1  0  0  0
 24 25  1  0  0  0
 24 55  1  0  0  0
 24 56  1  0  0  0
 25 57  1  0  0  0
 25 58  1  0  0  0
 26 27  2  0  0  0
 26 28  1  0  0  0
 28 29  1  0  0  0
 28 59  1  0  0  0
 29 30  2  0  0  0
 31 36  2  0  0  0
 31 32  1  0  0  0
 32 33  2  0  0  0
 32 60  1  0  0  0
 33 34  1  0  0  0
 33 61  1  0  0  0
 34 35  2  0  0  0
 34 62  1  0  0  0
 35 36  1  0  0  0
 35 63  1  0  0  0
 36 37  1  0  0  0
M  CHG  1  21   1
M  END
> <i_i_glide_confnum>
104

> <i_i_glide_lignum>
28

> <i_i_glide_posenum>
379

> <i_i_glide_rotatable_bonds>
7

> <i_m_Source_File_Index>
105

> <b_m_subgroup_collapsed>
0

> <r_i_docking_score>
-11.4918

> <r_i_glide_ecoul>
-13.2988

> <r_i_glide_eff_state_penalty>
0

> <r_i_glide_einternal>
3.70784

> <r_i_glide_emodel>
-120.598

> <r_i_glide_energy>
-67.5534

> <r_i_glide_erotb>
0.358053

> <r_i_glide_esite>
-0.0321737

> <r_i_glide_evdw>
-54.2546

> <r_i_glide_gscore>
-11.4918

> <r_i_glide_hbond>
-0.936827

> <r_i_glide_ligand_efficiency>
-0.310589

> <r_i_glide_ligand_efficiency_ln>
-2.4923

> <r_i_glide_ligand_efficiency_sa>
-1.03495

> <r_i_glide_lipo>
-3.92789

> <r_i_glide_metal>
0

> <r_i_glide_rewards>
-2.24541

> <s_i_glide_gridfile>
wee1_glide-grid

> <s_m_Source_File>
wee1_actives_glide_SP.sdf

> <s_m_Source_Path>
/Users/zhangxujun/Desktop

> <s_m_entry_id>
243

> <s_m_entry_name>
wee1_actives_glide_SP.105

> <s_m_subgroup_title>
wee1_actives_glide_SP

> <s_m_subgroupid>
wee1_actives_glide_SP


$$$$
