CHEMBL474111_117
                    3D
 Schrodinger Suite 2024-2.
 62 67  0  0  1  0            999 V2000
    0.1152   51.8677   29.4363 C   0  0  0  0  0  0
   -0.1083   52.7889   30.4524 C   0  0  0  0  0  0
    0.4471   54.0629   30.3710 C   0  0  0  0  0  0
    1.2635   54.4058   29.2932 C   0  0  0  0  0  0
    1.5689   53.4470   28.3035 C   0  0  0  0  0  0
    0.9613   52.1876   28.3800 C   0  0  0  0  0  0
    2.5214   53.7005   27.1871 C   0  0  0  0  0  0
    2.0736   53.5510   25.8659 C   0  0  0  0  0  0
    2.9786   53.7841   24.8179 C   0  0  0  0  0  0
    4.3253   54.1713   25.0600 C   0  0  0  0  0  0
    4.9466   54.3670   23.8050 C   0  0  0  0  0  0
    6.2296   54.7906   23.4068 C   0  0  0  0  0  0
    6.5260   54.8914   22.0499 C   0  0  0  0  0  0
    5.5915   54.5157   21.0759 C   0  0  0  0  0  0
    4.3043   54.0964   21.4427 C   0  0  0  0  0  0
    3.9912   54.0402   22.8064 C   0  0  0  0  0  0
    2.8108   53.6859   23.4444 N   0  0  0  0  0  0
    1.5918   53.2212   22.7739 C   0  0  0  0  0  0
    1.5873   51.6996   22.5339 C   0  0  0  0  0  0
    1.5044   50.9888   23.7514 O   0  0  0  0  0  0
    5.9940   54.5649   19.7558 O   0  0  0  0  0  0
    5.3662   53.7091   18.8015 C   0  0  0  0  0  0
    6.3197   53.4493   17.6206 C   0  0  0  0  0  0
    6.6669   54.6854   16.7557 C   0  0  0  0  0  0
    7.3985   55.7071   17.4994 N   0  0  0  0  0  0
    6.9950   57.0059   17.7145 C   0  0  0  0  0  0
    7.9642   57.6684   18.4510 C   0  0  0  0  0  0
    8.9914   56.7537   18.6981 C   0  0  0  0  0  0
    8.6273   55.5575   18.1017 C   0  0  0  0  0  0
    7.7826   55.3140   21.6816 O   0  0  0  0  0  0
    4.7468   54.2660   26.3982 C   0  0  0  0  0  0
    3.8649   54.0219   27.4214 C   0  0  0  0  0  0
    4.6355   54.1445   28.6956 C   0  0  0  0  0  0
    4.2503   53.9803   29.8512 O   0  0  0  0  0  0
    5.8795   54.4964   28.3335 N   0  0  0  0  0  0
    6.0583   54.5899   27.0081 C   0  0  0  0  0  0
    7.1044   54.8971   26.4582 O   0  0  0  0  0  0
    1.8605   56.0315   29.2261 Cl  0  0  0  0  0  0
   -0.3547   50.8970   29.4818 H   0  0  0  0  0  0
   -0.7445   52.5122   31.2809 H   0  0  0  0  0  0
    0.2358   54.7869   31.1435 H   0  0  0  0  0  0
    1.1560   51.4396   27.6254 H   0  0  0  0  0  0
    1.0544   53.2562   25.6640 H   0  0  0  0  0  0
    6.9841   55.0609   24.1250 H   0  0  0  0  0  0
    3.5719   53.8398   20.6923 H   0  0  0  0  0  0
    0.6935   53.5738   23.2780 H   0  0  0  0  0  0
    1.5675   53.6967   21.7961 H   0  0  0  0  0  0
    0.7902   51.4035   21.8507 H   0  0  0  0  0  0
    2.5255   51.4007   22.0625 H   0  0  0  0  0  0
    1.6242   50.0495   23.5798 H   0  0  0  0  0  0
    4.4330   54.1560   18.4533 H   0  0  0  0  0  0
    5.1176   52.7449   19.2518 H   0  0  0  0  0  0
    5.8637   52.6939   16.9774 H   0  0  0  0  0  0
    7.2343   52.9878   17.9952 H   0  0  0  0  0  0
    5.7547   55.1366   16.3586 H   0  0  0  0  0  0
    7.2784   54.3954   15.9002 H   0  0  0  0  0  0
    6.0510   57.3546   17.3226 H   0  0  0  0  0  0
    7.9299   58.6993   18.7684 H   0  0  0  0  0  0
    9.9011   56.9378   19.2522 H   0  0  0  0  0  0
    9.1387   54.6068   18.0615 H   0  0  0  0  0  0
    8.4098   55.3576   22.4147 H   0  0  0  0  0  0
    6.6111   54.7075   28.9959 H   0  0  0  0  0  0
  1  6  2  0  0  0
  1  2  1  0  0  0
  1 39  1  0  0  0
  2  3  2  0  0  0
  2 40  1  0  0  0
  3  4  1  0  0  0
  3 41  1  0  0  0
  4  5  2  0  0  0
  4 38  1  0  0  0
  5  6  1  0  0  0
  5  7  1  0  0  0
  6 42  1  0  0  0
  7 32  2  0  0  0
  7  8  1  0  0  0
  8  9  2  0  0  0
  8 43  1  0  0  0
  9 17  1  0  0  0
  9 10  1  0  0  0
 10 11  1  0  0  0
 10 31  2  0  0  0
 11 16  2  0  0  0
 11 12  1  0  0  0
 12 13  2  0  0  0
 12 44  1  0  0  0
 13 14  1  0  0  0
 13 30  1  0  0  0
 14 15  2  0  0  0
 14 21  1  0  0  0
 15 16  1  0  0  0
 15 45  1  0  0  0
 16 17  1  0  0  0
 17 18  1  0  0  0
 18 19  1  0  0  0
 18 46  1  0  0  0
 18 47  1  0  0  0
 19 20  1  0  0  0
 19 48  1  0  0  0
 19 49  1  0  0  0
 20 50  1  0  0  0
 21 22  1  0  0  0
 22 23  1  0  0  0
 22 51  1  0  0  0
 22 52  1  0  0  0
 23 24  1  0  0  0
 23 53  1  0  0  0
 23 54  1  0  0  0
 24 25  1  0  0  0
 24 55  1  0  0  0
 24 56  1  0  0  0
 25 29  1  0  0  0
 25 26  1  0  0  0
 26 27  2  0  0  0
 26 57  1  0  0  0
 27 28  1  0  0  0
 27 58  1  0  0  0
 28 29  2  0  0  0
 28 59  1  0  0  0
 29 60  1  0  0  0
 30 61  1  0  0  0
 31 36  1  0  0  0
 31 32  1  0  0  0
 32 33  1  0  0  0
 33 34  2  0  0  0
 33 35  1  0  0  0
 35 36  1  0  0  0
 35 62  1  0  0  0
 36 37  2  0  0  0
M  END
> <i_i_glide_confnum>
74

> <i_i_glide_lignum>
118

> <i_i_glide_posenum>
50

> <i_i_glide_rotatable_bonds>
10

> <i_m_Source_File_Index>
2

> <b_m_subgroup_collapsed>
0

> <r_i_docking_score>
-11.3382

> <r_i_glide_ecoul>
-15.1587

> <r_i_glide_eff_state_penalty>
0

> <r_i_glide_einternal>
2.40826

> <r_i_glide_emodel>
-121.06

> <r_i_glide_energy>
-72.8874

> <r_i_glide_erotb>
0.359575

> <r_i_glide_esite>
0

> <r_i_glide_evdw>
-57.7287

> <r_i_glide_gscore>
-11.3382

> <r_i_glide_hbond>
-0.58205

> <r_i_glide_ligand_efficiency>
-0.298374

> <r_i_glide_ligand_efficiency_ln>
-2.44485

> <r_i_glide_ligand_efficiency_sa>
-1.00313

> <r_i_glide_lipo>
-3.93849

> <r_i_glide_metal>
0

> <r_i_glide_rewards>
-2.017

> <s_i_glide_gridfile>
wee1_glide-grid

> <s_m_Source_File>
wee1_actives_glide_SP.sdf

> <s_m_Source_Path>
/Users/zhangxujun/Desktop

> <s_m_entry_id>
140

> <s_m_entry_name>
wee1_actives_glide_SP.2

> <s_m_subgroup_title>
wee1_actives_glide_SP

> <s_m_subgroupid>
wee1_actives_glide_SP


$$$$
