CHEMBL471163_135
                    3D
 Schrodinger Suite 2024-2.
 47 51  0  0  1  0            999 V2000
   -0.0954   53.2492   30.7934 C   0  0  0  0  0  0
    0.0868   52.2122   29.8868 C   0  0  0  0  0  0
    0.9074   52.3848   28.7725 C   0  0  0  0  0  0
    1.5423   53.6209   28.5372 C   0  0  0  0  0  0
    1.2739   54.6911   29.4186 C   0  0  0  0  0  0
    0.4810   54.4906   30.5478 C   0  0  0  0  0  0
    1.8921   56.2882   29.1466 Cl  0  0  0  0  0  0
    2.4885   53.7877   27.3934 C   0  0  0  0  0  0
    2.0044   53.6633   26.0866 C   0  0  0  0  0  0
    2.8908   53.8538   25.0155 C   0  0  0  0  0  0
    4.2635   54.1638   25.2222 C   0  0  0  0  0  0
    4.8557   54.3365   23.9471 C   0  0  0  0  0  0
    6.1430   54.7081   23.5082 C   0  0  0  0  0  0
    6.3746   54.8574   22.1423 C   0  0  0  0  0  0
    5.3892   54.5495   21.2125 C   0  0  0  0  0  0
    4.1176   54.1349   21.6000 C   0  0  0  0  0  0
    3.8495   54.0749   22.9755 C   0  0  0  0  0  0
    2.6660   53.8089   23.6493 N   0  0  0  0  0  0
    1.3811   53.5292   23.0080 C   0  0  0  0  0  0
    1.1751   52.0237   22.7182 C   0  0  0  0  0  0
    0.8369   51.1563   23.9427 C   0  0  0  0  0  0
   -0.3852   51.5614   24.5250 O   0  0  0  0  0  0
    7.5930   55.3004   21.6951 O   0  0  0  0  0  0
    4.7218   54.2498   26.5506 C   0  0  0  0  0  0
    3.8496   54.0594   27.5924 C   0  0  0  0  0  0
    4.6363   54.2011   28.8510 C   0  0  0  0  0  0
    4.2480   54.0971   30.0133 O   0  0  0  0  0  0
    5.8895   54.4940   28.4628 N   0  0  0  0  0  0
    6.0573   54.5420   27.1317 C   0  0  0  0  0  0
    7.1044   54.8031   26.5533 O   0  0  0  0  0  0
    1.1318   51.0297   27.7181 Cl  0  0  0  0  0  0
   -0.6907   53.0921   31.6813 H   0  0  0  0  0  0
   -0.4075   51.2681   30.0645 H   0  0  0  0  0  0
    0.3094   55.3007   31.2414 H   0  0  0  0  0  0
    0.9655   53.4311   25.9134 H   0  0  0  0  0  0
    6.9352   54.9299   24.2008 H   0  0  0  0  0  0
    5.6094   54.6527   20.1592 H   0  0  0  0  0  0
    3.3615   53.9271   20.8578 H   0  0  0  0  0  0
    0.5804   53.9298   23.6327 H   0  0  0  0  0  0
    1.3365   54.0970   22.0818 H   0  0  0  0  0  0
    0.3793   51.9082   21.9795 H   0  0  0  0  0  0
    2.0663   51.6230   22.2339 H   0  0  0  0  0  0
    0.8104   50.0943   23.6892 H   0  0  0  0  0  0
    1.5956   51.2935   24.7097 H   0  0  0  0  0  0
   -0.5659   50.9913   25.2792 H   0  0  0  0  0  0
    8.2559   55.3658   22.3929 H   0  0  0  0  0  0
    6.6331   54.7122   29.1103 H   0  0  0  0  0  0
  1  6  2  0  0  0
  1  2  1  0  0  0
  1 32  1  0  0  0
  2  3  2  0  0  0
  2 33  1  0  0  0
  3  4  1  0  0  0
  3 31  1  0  0  0
  4  5  2  0  0  0
  4  8  1  0  0  0
  5  6  1  0  0  0
  5  7  1  0  0  0
  6 34  1  0  0  0
  8 25  2  0  0  0
  8  9  1  0  0  0
  9 10  2  0  0  0
  9 35  1  0  0  0
 10 18  1  0  0  0
 10 11  1  0  0  0
 11 12  1  0  0  0
 11 24  2  0  0  0
 12 17  2  0  0  0
 12 13  1  0  0  0
 13 14  2  0  0  0
 13 36  1  0  0  0
 14 15  1  0  0  0
 14 23  1  0  0  0
 15 16  2  0  0  0
 15 37  1  0  0  0
 16 17  1  0  0  0
 16 38  1  0  0  0
 17 18  1  0  0  0
 18 19  1  0  0  0
 19 20  1  0  0  0
 19 39  1  0  0  0
 19 40  1  0  0  0
 20 21  1  0  0  0
 20 41  1  0  0  0
 20 42  1  0  0  0
 21 22  1  0  0  0
 21 43  1  0  0  0
 21 44  1  0  0  0
 22 45  1  0  0  0
 23 46  1  0  0  0
 24 29  1  0  0  0
 24 25  1  0  0  0
 25 26  1  0  0  0
 26 27  2  0  0  0
 26 28  1  0  0  0
 28 29  1  0  0  0
 28 47  1  0  0  0
 29 30  2  0  0  0
M  END
> <i_i_glide_confnum>
36

> <i_i_glide_lignum>
136

> <i_i_glide_posenum>
241

> <i_i_glide_rotatable_bonds>
6

> <i_m_Source_File_Index>
90

> <b_m_subgroup_collapsed>
0

> <r_i_docking_score>
-11.4808

> <r_i_glide_ecoul>
-12.7636

> <r_i_glide_eff_state_penalty>
0

> <r_i_glide_einternal>
0.888804

> <r_i_glide_emodel>
-107.277

> <r_i_glide_energy>
-63.1606

> <r_i_glide_erotb>
0.387631

> <r_i_glide_esite>
0

> <r_i_glide_evdw>
-50.3969

> <r_i_glide_gscore>
-11.4808

> <r_i_glide_hbond>
-0.948077

> <r_i_glide_ligand_efficiency>
-0.370348

> <r_i_glide_ligand_efficiency_ln>
-2.58927

> <r_i_glide_ligand_efficiency_sa>
-1.16341

> <r_i_glide_lipo>
-4.04589

> <r_i_glide_metal>
0

> <r_i_glide_rewards>
-2.44007

> <s_i_glide_gridfile>
wee1_glide-grid

> <s_m_Source_File>
wee1_actives_glide_SP.sdf

> <s_m_Source_Path>
/Users/zhangxujun/Desktop

> <s_m_entry_id>
228

> <s_m_entry_name>
wee1_actives_glide_SP.90

> <s_m_subgroup_title>
wee1_actives_glide_SP

> <s_m_subgroupid>
wee1_actives_glide_SP


$$$$
