CHEMBL607707_71
                    3D
 Schrodinger Suite 2024-2.
 56 58  0  0  1  0            999 V2000
    4.5226   52.0587   29.6309 C   0  0  0  0  0  0
    3.8914   53.4150   29.9780 C   0  0  0  0  0  0
    2.8438   53.8491   29.1101 O   0  0  0  0  0  0
    3.0115   53.7522   27.7448 C   0  0  0  0  0  0
    4.2155   54.1394   27.1502 C   0  0  0  0  0  0
    4.3829   54.1019   25.7492 C   0  0  0  0  0  0
    3.2979   53.6988   24.9093 C   0  0  0  0  0  0
    2.0713   53.3556   25.5434 C   0  0  0  0  0  0
    1.9438   53.3305   26.9322 C   0  0  0  0  0  0
    0.6911   52.8969   27.4082 N   0  0  0  0  0  0
    0.4164   52.1205   28.4779 C   0  0  0  0  0  0
    1.2435   51.6960   29.2797 O   0  0  0  0  0  0
   -0.9825   51.8243   28.6362 C   0  0  0  0  0  0
   -1.7360   51.3018   27.6424 C   0  0  0  0  0  0
   -3.2171   50.9417   27.6856 C   0  0  0  0  0  0
   -4.0016   51.2954   28.8735 N   0  0  0  0  0  0
   -5.4270   51.2109   28.5668 C   0  0  0  0  0  0
   -3.6957   50.3768   29.9740 C   0  0  0  0  0  0
    3.5105   53.6978   23.4831 C   0  0  0  0  0  0
    4.7736   54.1131   23.0066 C   0  0  0  0  0  0
    5.7637   54.4785   23.9164 C   0  0  0  0  0  0
    5.5889   54.4829   25.2542 N   0  0  0  0  0  0
    5.0972   54.2093   21.5839 C   0  0  0  0  0  0
    5.3472   54.2908   20.4586 N   0  0  0  0  0  0
    2.5153   53.3540   22.5395 N   0  0  0  0  0  0
    1.5680   52.3238   22.4531 C   0  0  0  0  0  0
    1.5635   51.1960   23.2824 C   0  0  0  0  0  0
    0.5858   50.2101   23.1325 C   0  0  0  0  0  0
   -0.3963   50.3445   22.1507 C   0  0  0  0  0  0
   -0.3877   51.4600   21.3074 C   0  0  0  0  0  0
    0.6062   52.4289   21.4502 C   0  0  0  0  0  0
   -1.6033   51.6680   20.0968 Cl  0  0  0  0  0  0
   -1.3501   49.3922   22.0255 F   0  0  0  0  0  0
    5.1040   51.6903   30.4734 H   0  0  0  0  0  0
    3.7646   51.3088   29.4085 H   0  0  0  0  0  0
    5.1846   52.1299   28.7686 H   0  0  0  0  0  0
    4.6507   54.1936   30.0667 H   0  0  0  0  0  0
    3.4393   53.3023   30.9598 H   0  0  0  0  0  0
    5.0375   54.4830   27.7604 H   0  0  0  0  0  0
    1.2165   53.1024   24.9379 H   0  0  0  0  0  0
   -0.0917   53.1016   26.8094 H   0  0  0  0  0  0
   -1.3828   52.0433   29.6130 H   0  0  0  0  0  0
   -1.2761   51.0838   26.6880 H   0  0  0  0  0  0
   -3.3385   49.8922   27.4075 H   0  0  0  0  0  0
   -3.6191   51.4855   26.8288 H   0  0  0  0  0  0
   -5.6930   51.9047   27.7680 H   0  0  0  0  0  0
   -6.0277   51.4749   29.4374 H   0  0  0  0  0  0
   -5.7142   50.2056   28.2513 H   0  0  0  0  0  0
   -2.6717   50.4975   30.3262 H   0  0  0  0  0  0
   -4.3418   50.5564   30.8346 H   0  0  0  0  0  0
   -3.8056   49.3314   29.6773 H   0  0  0  0  0  0
    6.7435   54.7967   23.5825 H   0  0  0  0  0  0
    2.6276   53.8369   21.6551 H   0  0  0  0  0  0
    2.3064   51.0762   24.0522 H   0  0  0  0  0  0
    0.5889   49.3462   23.7815 H   0  0  0  0  0  0
    0.6238   53.2865   20.7906 H   0  0  0  0  0  0
  1  2  1  0  0  0
  1 34  1  0  0  0
  1 35  1  0  0  0
  1 36  1  0  0  0
  2  3  1  0  0  0
  2 37  1  0  0  0
  2 38  1  0  0  0
  3  4  1  0  0  0
  4  9  2  0  0  0
  4  5  1  0  0  0
  5  6  2  0  0  0
  5 39  1  0  0  0
  6 22  1  0  0  0
  6  7  1  0  0  0
  7  8  2  0  0  0
  7 19  1  0  0  0
  8  9  1  0  0  0
  8 40  1  0  0  0
  9 10  1  0  0  0
 10 11  1  0  0  0
 10 41  1  0  0  0
 11 12  2  0  0  0
 11 13  1  0  0  0
 13 14  2  0  0  0
 13 42  1  0  0  0
 14 15  1  0  0  0
 14 43  1  0  0  0
 15 16  1  0  0  0
 15 44  1  0  0  0
 15 45  1  0  0  0
 16 17  1  0  0  0
 16 18  1  0  0  0
 17 46  1  0  0  0
 17 47  1  0  0  0
 17 48  1  0  0  0
 18 49  1  0  0  0
 18 50  1  0  0  0
 18 51  1  0  0  0
 19 20  2  0  0  0
 19 25  1  0  0  0
 20 21  1  0  0  0
 20 23  1  0  0  0
 21 22  2  0  0  0
 21 52  1  0  0  0
 23 24  3  0  0  0
 25 26  1  0  0  0
 25 53  1  0  0  0
 26 31  2  0  0  0
 26 27  1  0  0  0
 27 28  2  0  0  0
 27 54  1  0  0  0
 28 29  1  0  0  0
 28 55  1  0  0  0
 29 30  2  0  0  0
 29 33  1  0  0  0
 30 31  1  0  0  0
 30 32  1  0  0  0
 31 56  1  0  0  0
M  END
> <i_i_glide_confnum>
31

> <i_i_glide_lignum>
72

> <i_i_glide_posenum>
194

> <i_i_glide_rotatable_bonds>
10

> <i_m_Source_File_Index>
128

> <b_m_subgroup_collapsed>
0

> <r_i_docking_score>
-5.18781

> <r_i_glide_ecoul>
-4.88891

> <r_i_glide_eff_state_penalty>
0

> <r_i_glide_einternal>
13.3654

> <r_i_glide_emodel>
-57.3559

> <r_i_glide_energy>
-48.5826

> <r_i_glide_erotb>
0.645358

> <r_i_glide_esite>
0

> <r_i_glide_evdw>
-43.6937

> <r_i_glide_gscore>
-5.18781

> <r_i_glide_hbond>
-0.0106972

> <r_i_glide_ligand_efficiency>
-0.157206

> <r_i_glide_ligand_efficiency_ln>
-1.15374

> <r_i_glide_ligand_efficiency_sa>
-0.504245

> <r_i_glide_lipo>
-2.35339

> <r_i_glide_metal>
0

> <r_i_glide_rewards>
-0.55106

> <s_i_glide_gridfile>
wee1_glide-grid

> <s_m_Source_File>
wee1_actives_glide_SP.sdf

> <s_m_Source_Path>
/Users/zhangxujun/Desktop

> <s_m_entry_id>
266

> <s_m_entry_name>
wee1_actives_glide_SP.128

> <s_m_subgroup_title>
wee1_actives_glide_SP

> <s_m_subgroupid>
wee1_actives_glide_SP


$$$$
