CHEMBL438566_19
                    3D
 Schrodinger Suite 2024-2.
 66 71  0  0  1  0            999 V2000
    1.5266   53.4605   22.8177 C   0  0  0  0  0  0
    2.7959   53.7756   23.4605 N   0  0  0  0  0  0
    3.9773   54.1165   22.8204 C   0  0  0  0  0  0
    4.2446   54.3054   21.4633 C   0  0  0  0  0  0
    5.5224   54.7222   21.0785 C   0  0  0  0  0  0
    6.5293   54.8963   22.0434 C   0  0  0  0  0  0
    6.2743   54.6678   23.3971 C   0  0  0  0  0  0
    4.9736   54.3149   23.8100 C   0  0  0  0  0  0
    4.3503   54.1270   25.0694 C   0  0  0  0  0  0
    2.9914   53.7857   24.8285 C   0  0  0  0  0  0
    2.0848   53.5397   25.8710 C   0  0  0  0  0  0
    2.5340   53.6710   27.1900 C   0  0  0  0  0  0
    3.8752   53.9928   27.4303 C   0  0  0  0  0  0
    4.7660   54.2196   26.4113 C   0  0  0  0  0  0
    6.0667   54.5703   27.0283 C   0  0  0  0  0  0
    7.1044   54.8965   26.4758 O   0  0  0  0  0  0
    5.8768   54.4943   28.3545 N   0  0  0  0  0  0
    4.6262   54.1566   28.7107 C   0  0  0  0  0  0
    4.2171   54.0385   29.8636 O   0  0  0  0  0  0
    1.5739   53.4371   28.2994 C   0  0  0  0  0  0
    1.0083   52.1637   28.4366 C   0  0  0  0  0  0
    0.1528   51.8780   29.4945 C   0  0  0  0  0  0
   -0.1152   52.8486   30.4519 C   0  0  0  0  0  0
    0.4023   54.1326   30.3093 C   0  0  0  0  0  0
    1.2222   54.4415   29.2234 C   0  0  0  0  0  0
    1.7594   56.0805   29.0468 Cl  0  0  0  0  0  0
    7.7935   55.2974   21.6817 O   0  0  0  0  0  0
    5.7554   55.0665   19.5979 C   0  0  0  0  0  0
    5.6189   53.9086   18.5746 C   0  0  0  0  0  0
    4.2066   53.2947   18.4386 C   0  0  0  0  0  0
    3.9078   52.6965   17.0517 C   0  0  0  0  0  0
    2.7197   51.6972   17.0831 N   0  3  0  0  0  0
    2.3618   51.2868   15.6386 C   0  0  0  0  0  0
    1.2489   50.2246   15.6920 C   0  0  0  0  0  0
    0.1173   50.7135   16.4115 O   0  0  0  0  0  0
    0.3756   51.1069   17.7581 C   0  0  0  0  0  0
    1.4660   52.1967   17.8384 C   0  0  0  0  0  0
    1.3169   52.3975   22.9443 H   0  0  0  0  0  0
    0.7313   54.0466   23.2814 H   0  0  0  0  0  0
    1.5544   53.6948   21.7550 H   0  0  0  0  0  0
    3.4567   54.2068   20.7401 H   0  0  0  0  0  0
    7.0663   54.8167   24.1099 H   0  0  0  0  0  0
    1.0550   53.2843   25.6692 H   0  0  0  0  0  0
    6.5992   54.7334   29.0200 H   0  0  0  0  0  0
    1.2404   51.3828   27.7256 H   0  0  0  0  0  0
   -0.2909   50.8971   29.5846 H   0  0  0  0  0  0
   -0.7636   52.6076   31.2816 H   0  0  0  0  0  0
    0.1543   54.8931   31.0350 H   0  0  0  0  0  0
    8.4243   55.2967   22.4155 H   0  0  0  0  0  0
    6.7423   55.5113   19.4672 H   0  0  0  0  0  0
    5.0629   55.8648   19.3261 H   0  0  0  0  0  0
    6.3359   53.1190   18.8074 H   0  0  0  0  0  0
    5.9262   54.3012   17.6036 H   0  0  0  0  0  0
    3.4600   54.0724   18.6077 H   0  0  0  0  0  0
    4.0748   52.5352   19.2120 H   0  0  0  0  0  0
    4.7466   52.0969   16.6928 H   0  0  0  0  0  0
    3.6748   53.4716   16.3187 H   0  0  0  0  0  0
    3.2727   50.8792   15.1981 H   0  0  0  0  0  0
    2.0569   52.1841   15.0958 H   0  0  0  0  0  0
    0.9400   49.9461   14.6847 H   0  0  0  0  0  0
    1.6324   49.3201   16.1701 H   0  0  0  0  0  0
   -0.5521   51.4633   18.2075 H   0  0  0  0  0  0
    0.6928   50.2335   18.3323 H   0  0  0  0  0  0
    1.1579   53.1410   17.3862 H   0  0  0  0  0  0
    1.7496   52.3565   18.8798 H   0  0  0  0  0  0
    3.0653   50.8517   17.5330 H   0  0  0  0  0  0
  1  2  1  0  0  0
  1 38  1  0  0  0
  1 39  1  0  0  0
  1 40  1  0  0  0
  2 10  1  0  0  0
  2  3  1  0  0  0
  3  8  2  0  0  0
  3  4  1  0  0  0
  4  5  2  0  0  0
  4 41  1  0  0  0
  5  6  1  0  0  0
  5 28  1  0  0  0
  6  7  2  0  0  0
  6 27  1  0  0  0
  7  8  1  0  0  0
  7 42  1  0  0  0
  8  9  1  0  0  0
  9 14  2  0  0  0
  9 10  1  0  0  0
 10 11  2  0  0  0
 11 12  1  0  0  0
 11 43  1  0  0  0
 12 13  2  0  0  0
 12 20  1  0  0  0
 13 18  1  0  0  0
 13 14  1  0  0  0
 14 15  1  0  0  0
 15 16  2  0  0  0
 15 17  1  0  0  0
 17 18  1  0  0  0
 17 44  1  0  0  0
 18 19  2  0  0  0
 20 25  2  0  0  0
 20 21  1  0  0  0
 21 22  2  0  0  0
 21 45  1  0  0  0
 22 23  1  0  0  0
 22 46  1  0  0  0
 23 24  2  0  0  0
 23 47  1  0  0  0
 24 25  1  0  0  0
 24 48  1  0  0  0
 25 26  1  0  0  0
 27 49  1  0  0  0
 28 29  1  0  0  0
 28 50  1  0  0  0
 28 51  1  0  0  0
 29 30  1  0  0  0
 29 52  1  0  0  0
 29 53  1  0  0  0
 30 31  1  0  0  0
 30 54  1  0  0  0
 30 55  1  0  0  0
 31 32  1  0  0  0
 31 56  1  0  0  0
 31 57  1  0  0  0
 32 37  1  0  0  0
 32 33  1  0  0  0
 32 66  1  0  0  0
 33 34  1  0  0  0
 33 58  1  0  0  0
 33 59  1  0  0  0
 34 35  1  0  0  0
 34 60  1  0  0  0
 34 61  1  0  0  0
 35 36  1  0  0  0
 36 37  1  0  0  0
 36 62  1  0  0  0
 36 63  1  0  0  0
 37 64  1  0  0  0
 37 65  1  0  0  0
M  CHG  1  32   1
M  END
> <i_i_glide_confnum>
213

> <i_i_glide_lignum>
20

> <i_i_glide_posenum>
251

> <i_i_glide_rotatable_bonds>
7

> <i_m_Source_File_Index>
121

> <b_m_subgroup_collapsed>
0

> <r_i_docking_score>
-11.7106

> <r_i_glide_ecoul>
-16.3472

> <r_i_glide_eff_state_penalty>
0

> <r_i_glide_einternal>
6.72125

> <r_i_glide_emodel>
-121.39

> <r_i_glide_energy>
-68.217

> <r_i_glide_erotb>
0.266907

> <r_i_glide_esite>
-0.0907247

> <r_i_glide_evdw>
-51.8697

> <r_i_glide_gscore>
-11.7106

> <r_i_glide_hbond>
-0.972568

> <r_i_glide_ligand_efficiency>
-0.316502

> <r_i_glide_ligand_efficiency_ln>
-2.53975

> <r_i_glide_ligand_efficiency_sa>
-1.05466

> <r_i_glide_lipo>
-3.87283

> <r_i_glide_metal>
0

> <r_i_glide_rewards>
-1.99579

> <s_i_glide_gridfile>
wee1_glide-grid

> <s_m_Source_File>
wee1_actives_glide_SP.sdf

> <s_m_Source_Path>
/Users/zhangxujun/Desktop

> <s_m_entry_id>
259

> <s_m_entry_name>
wee1_actives_glide_SP.121

> <s_m_subgroup_title>
wee1_actives_glide_SP

> <s_m_subgroupid>
wee1_actives_glide_SP


$$$$
