CHEMBL485638_100
                    3D
 Schrodinger Suite 2024-2.
 55 60  0  0  1  0            999 V2000
    0.0972   51.8781   29.5178 C   0  0  0  0  0  0
   -0.2030   52.8263   30.4838 C   0  0  0  0  0  0
    0.3511   54.1047   30.4032 C   0  0  0  0  0  0
    1.2197   54.4230   29.3611 C   0  0  0  0  0  0
    1.5720   53.4462   28.4115 C   0  0  0  0  0  0
    0.9901   52.1745   28.4995 C   0  0  0  0  0  0
    2.5249   53.7037   27.3033 C   0  0  0  0  0  0
    2.0544   53.6093   25.9885 C   0  0  0  0  0  0
    2.9541   53.8620   24.9493 C   0  0  0  0  0  0
    4.3200   54.1917   25.1805 C   0  0  0  0  0  0
    4.9264   54.3808   23.9084 C   0  0  0  0  0  0
    6.2118   54.7424   23.4621 C   0  0  0  0  0  0
    6.4419   54.8953   22.0943 C   0  0  0  0  0  0
    5.4445   54.6281   21.1420 C   0  0  0  0  0  0
    4.1664   54.2543   21.5726 C   0  0  0  0  0  0
    3.9217   54.1465   22.9356 C   0  0  0  0  0  0
    2.7532   53.8363   23.5921 N   0  0  0  0  0  0
    1.8741   53.6371   23.1405 H   0  0  0  0  0  0
    5.7493   54.7601   19.7930 O   0  0  0  0  0  0
    4.7707   54.4276   18.7945 C   0  0  0  0  0  0
    4.5253   52.9008   18.6854 C   0  0  0  0  0  0
    3.1417   52.4989   18.0988 C   0  0  0  0  0  0
    2.3884   51.6261   19.0019 N   0  0  0  0  0  0
    2.2528   50.2623   18.8995 C   0  0  0  0  0  0
    1.4840   49.7875   19.9488 C   0  0  0  0  0  0
    1.1306   50.8905   20.7274 C   0  0  0  0  0  0
    1.6799   52.0076   20.1198 C   0  0  0  0  0  0
    7.6921   55.2954   21.6857 O   0  0  0  0  0  0
    4.7502   54.2611   26.5187 C   0  0  0  0  0  0
    3.8687   54.0157   27.5379 C   0  0  0  0  0  0
    4.6347   54.1331   28.8146 C   0  0  0  0  0  0
    4.2354   53.9636   29.9645 O   0  0  0  0  0  0
    5.8823   54.4761   28.4568 N   0  0  0  0  0  0
    6.0656   54.5737   27.1269 C   0  0  0  0  0  0
    7.1044   54.8790   26.5628 O   0  0  0  0  0  0
    1.8208   56.0471   29.2804 Cl  0  0  0  0  0  0
   -0.3570   50.8973   29.5753 H   0  0  0  0  0  0
   -0.8916   52.5750   31.2798 H   0  0  0  0  0  0
    0.0965   54.8457   31.1457 H   0  0  0  0  0  0
    1.2354   51.4105   27.7754 H   0  0  0  0  0  0
    1.0284   53.3471   25.7804 H   0  0  0  0  0  0
    7.0175   54.9313   24.1554 H   0  0  0  0  0  0
    3.3680   54.0570   20.8800 H   0  0  0  0  0  0
    5.1458   54.7987   17.8420 H   0  0  0  0  0  0
    3.8532   54.9917   18.9755 H   0  0  0  0  0  0
    4.6888   52.4091   19.6481 H   0  0  0  0  0  0
    5.3130   52.4965   18.0444 H   0  0  0  0  0  0
    3.2851   51.9472   17.1633 H   0  0  0  0  0  0
    2.5115   53.3615   17.8656 H   0  0  0  0  0  0
    2.7049   49.7323   18.0771 H   0  0  0  0  0  0
    1.2028   48.7588   20.1233 H   0  0  0  0  0  0
    0.5290   50.8797   21.6239 H   0  0  0  0  0  0
    1.6109   53.0477   20.3778 H   0  0  0  0  0  0
    8.3640   55.2926   22.3799 H   0  0  0  0  0  0
    6.6133   54.6913   29.1230 H   0  0  0  0  0  0
  1  6  2  0  0  0
  1  2  1  0  0  0
  1 37  1  0  0  0
  2  3  2  0  0  0
  2 38  1  0  0  0
  3  4  1  0  0  0
  3 39  1  0  0  0
  4  5  2  0  0  0
  4 36  1  0  0  0
  5  6  1  0  0  0
  5  7  1  0  0  0
  6 40  1  0  0  0
  7 30  2  0  0  0
  7  8  1  0  0  0
  8  9  2  0  0  0
  8 41  1  0  0  0
  9 17  1  0  0  0
  9 10  1  0  0  0
 10 11  1  0  0  0
 10 29  2  0  0  0
 11 16  2  0  0  0
 11 12  1  0  0  0
 12 13  2  0  0  0
 12 42  1  0  0  0
 13 14  1  0  0  0
 13 28  1  0  0  0
 14 15  2  0  0  0
 14 19  1  0  0  0
 15 16  1  0  0  0
 15 43  1  0  0  0
 16 17  1  0  0  0
 17 18  1  0  0  0
 19 20  1  0  0  0
 20 21  1  0  0  0
 20 44  1  0  0  0
 20 45  1  0  0  0
 21 22  1  0  0  0
 21 46  1  0  0  0
 21 47  1  0  0  0
 22 23  1  0  0  0
 22 48  1  0  0  0
 22 49  1  0  0  0
 23 27  1  0  0  0
 23 24  1  0  0  0
 24 25  2  0  0  0
 24 50  1  0  0  0
 25 26  1  0  0  0
 25 51  1  0  0  0
 26 27  2  0  0  0
 26 52  1  0  0  0
 27 53  1  0  0  0
 28 54  1  0  0  0
 29 34  1  0  0  0
 29 30  1  0  0  0
 30 31  1  0  0  0
 31 32  2  0  0  0
 31 33  1  0  0  0
 33 34  1  0  0  0
 33 55  1  0  0  0
 34 35  2  0  0  0
M  END
> <i_i_glide_confnum>
181

> <i_i_glide_lignum>
101

> <i_i_glide_posenum>
313

> <i_i_glide_rotatable_bonds>
7

> <i_m_Source_File_Index>
8

> <b_m_subgroup_collapsed>
0

> <r_i_docking_score>
-10.6803

> <r_i_glide_ecoul>
-15.3212

> <r_i_glide_eff_state_penalty>
0

> <r_i_glide_einternal>
5.17161

> <r_i_glide_emodel>
-111.355

> <r_i_glide_energy>
-68.9095

> <r_i_glide_erotb>
0.430265

> <r_i_glide_esite>
-0.0495198

> <r_i_glide_evdw>
-53.5882

> <r_i_glide_gscore>
-10.6803

> <r_i_glide_hbond>
-0.628712

> <r_i_glide_ligand_efficiency>
-0.305152

> <r_i_glide_ligand_efficiency_ln>
-2.34456

> <r_i_glide_ligand_efficiency_sa>
-0.998171

> <r_i_glide_lipo>
-3.60384

> <r_i_glide_metal>
0

> <r_i_glide_rewards>
-1.8509

> <s_i_glide_gridfile>
wee1_glide-grid

> <s_m_Source_File>
wee1_actives_glide_SP.sdf

> <s_m_Source_Path>
/Users/zhangxujun/Desktop

> <s_m_entry_id>
146

> <s_m_entry_name>
wee1_actives_glide_SP.8

> <s_m_subgroup_title>
wee1_actives_glide_SP

> <s_m_subgroupid>
wee1_actives_glide_SP


$$$$
