CHEMBL472687_119
                    3D
 Schrodinger Suite 2024-2.
 58 63  0  0  1  0            999 V2000
    1.5547   53.4126   22.7953 C   0  0  0  0  0  0
    2.8074   53.7715   23.4461 N   0  0  0  0  0  0
    2.9882   53.8103   24.8176 C   0  0  0  0  0  0
    2.0789   53.5659   25.8612 C   0  0  0  0  0  0
    2.5242   53.6962   27.1840 C   0  0  0  0  0  0
    3.8677   54.0131   27.4252 C   0  0  0  0  0  0
    4.7565   54.2502   26.4064 C   0  0  0  0  0  0
    4.3429   54.1652   25.0638 C   0  0  0  0  0  0
    4.9690   54.3561   23.8074 C   0  0  0  0  0  0
    3.9952   54.0966   22.8067 C   0  0  0  0  0  0
    4.2932   54.2046   21.4423 C   0  0  0  0  0  0
    5.5779   54.6349   21.0747 C   0  0  0  0  0  0
    6.5452   54.8966   22.0522 C   0  0  0  0  0  0
    6.2658   54.7351   23.4080 C   0  0  0  0  0  0
    7.8084   55.2974   21.6819 O   0  0  0  0  0  0
    5.9522   54.8256   19.7569 O   0  0  0  0  0  0
    5.1443   54.2991   18.7088 C   0  0  0  0  0  0
    5.8919   54.4671   17.3755 C   0  0  0  0  0  0
    6.1328   55.9343   16.9365 C   0  0  0  0  0  0
    4.9054   56.7080   16.7404 N   0  0  0  0  0  0
    4.7894   58.0733   16.8812 C   0  0  0  0  0  0
    3.5034   58.4632   16.5424 C   0  0  0  0  0  0
    2.8071   57.3136   16.1686 C   0  0  0  0  0  0
    3.6907   56.2520   16.2708 C   0  0  0  0  0  0
    6.0608   54.5824   27.0264 C   0  0  0  0  0  0
    7.1043   54.8973   26.4770 O   0  0  0  0  0  0
    5.8744   54.4892   28.3509 N   0  0  0  0  0  0
    4.6264   54.1462   28.7055 C   0  0  0  0  0  0
    4.2286   53.9981   29.8595 O   0  0  0  0  0  0
    1.5683   53.4486   28.2994 C   0  0  0  0  0  0
    0.9748   52.1832   28.3978 C   0  0  0  0  0  0
    0.1263   51.8750   29.4564 C   0  0  0  0  0  0
   -0.1137   52.8173   30.4492 C   0  0  0  0  0  0
    0.4286   54.0938   30.3470 C   0  0  0  0  0  0
    1.2483   54.4238   29.2677 C   0  0  0  0  0  0
    1.8349   56.0518   29.1741 Cl  0  0  0  0  0  0
    0.7274   53.9307   23.2830 H   0  0  0  0  0  0
    1.5697   53.6962   21.7447 H   0  0  0  0  0  0
    1.4045   52.3363   22.8729 H   0  0  0  0  0  0
    1.0517   53.2970   25.6566 H   0  0  0  0  0  0
    3.5360   54.0123   20.6984 H   0  0  0  0  0  0
    7.0404   54.9366   24.1258 H   0  0  0  0  0  0
    8.4415   55.2985   22.4124 H   0  0  0  0  0  0
    4.1787   54.8052   18.6772 H   0  0  0  0  0  0
    4.9554   53.2367   18.8795 H   0  0  0  0  0  0
    5.3600   53.9269   16.5920 H   0  0  0  0  0  0
    6.8561   53.9637   17.4562 H   0  0  0  0  0  0
    6.6969   55.9681   16.0028 H   0  0  0  0  0  0
    6.7274   56.4479   17.6943 H   0  0  0  0  0  0
    5.6307   58.6678   17.2095 H   0  0  0  0  0  0
    3.1141   59.4733   16.5657 H   0  0  0  0  0  0
    1.7767   57.2669   15.8450 H   0  0  0  0  0  0
    3.5496   55.2049   16.0499 H   0  0  0  0  0  0
    6.6003   54.7075   29.0195 H   0  0  0  0  0  0
    1.1840   51.4197   27.6610 H   0  0  0  0  0  0
   -0.3295   50.8969   29.5191 H   0  0  0  0  0  0
   -0.7549   52.5636   31.2815 H   0  0  0  0  0  0
    0.2078   54.8316   31.1049 H   0  0  0  0  0  0
  1  2  1  0  0  0
  1 37  1  0  0  0
  1 38  1  0  0  0
  1 39  1  0  0  0
  2 10  1  0  0  0
  2  3  1  0  0  0
  3  8  2  0  0  0
  3  4  1  0  0  0
  4  5  2  0  0  0
  4 40  1  0  0  0
  5  6  1  0  0  0
  5 30  1  0  0  0
  6 28  1  0  0  0
  6  7  2  0  0  0
  7  8  1  0  0  0
  7 25  1  0  0  0
  8  9  1  0  0  0
  9 14  2  0  0  0
  9 10  1  0  0  0
 10 11  2  0  0  0
 11 12  1  0  0  0
 11 41  1  0  0  0
 12 13  2  0  0  0
 12 16  1  0  0  0
 13 14  1  0  0  0
 13 15  1  0  0  0
 14 42  1  0  0  0
 15 43  1  0  0  0
 16 17  1  0  0  0
 17 18  1  0  0  0
 17 44  1  0  0  0
 17 45  1  0  0  0
 18 19  1  0  0  0
 18 46  1  0  0  0
 18 47  1  0  0  0
 19 20  1  0  0  0
 19 48  1  0  0  0
 19 49  1  0  0  0
 20 24  1  0  0  0
 20 21  1  0  0  0
 21 22  2  0  0  0
 21 50  1  0  0  0
 22 23  1  0  0  0
 22 51  1  0  0  0
 23 24  2  0  0  0
 23 52  1  0  0  0
 24 53  1  0  0  0
 25 26  2  0  0  0
 25 27  1  0  0  0
 27 28  1  0  0  0
 27 54  1  0  0  0
 28 29  2  0  0  0
 30 35  2  0  0  0
 30 31  1  0  0  0
 31 32  2  0  0  0
 31 55  1  0  0  0
 32 33  1  0  0  0
 32 56  1  0  0  0
 33 34  2  0  0  0
 33 57  1  0  0  0
 34 35  1  0  0  0
 34 58  1  0  0  0
 35 36  1  0  0  0
M  END
> <i_i_glide_confnum>
11

> <i_i_glide_lignum>
120

> <i_i_glide_posenum>
34

> <i_i_glide_rotatable_bonds>
7

> <i_m_Source_File_Index>
109

> <b_m_subgroup_collapsed>
0

> <r_i_docking_score>
-11.0628

> <r_i_glide_ecoul>
-14.1969

> <r_i_glide_eff_state_penalty>
0

> <r_i_glide_einternal>
2.446

> <r_i_glide_emodel>
-115.818

> <r_i_glide_energy>
-69.8738

> <r_i_glide_erotb>
0.285891

> <r_i_glide_esite>
0

> <r_i_glide_evdw>
-55.6769

> <r_i_glide_gscore>
-11.0628

> <r_i_glide_hbond>
-0.595459

> <r_i_glide_ligand_efficiency>
-0.3073

> <r_i_glide_ligand_efficiency_ln>
-2.41361

> <r_i_glide_ligand_efficiency_sa>
-1.01468

> <r_i_glide_lipo>
-3.81135

> <r_i_glide_metal>
0

> <r_i_glide_rewards>
-2.02852

> <s_i_glide_gridfile>
wee1_glide-grid

> <s_m_Source_File>
wee1_actives_glide_SP.sdf

> <s_m_Source_Path>
/Users/zhangxujun/Desktop

> <s_m_entry_id>
247

> <s_m_entry_name>
wee1_actives_glide_SP.109

> <s_m_subgroup_title>
wee1_actives_glide_SP

> <s_m_subgroupid>
wee1_actives_glide_SP


$$$$
