CHEMBL486661_130
                    3D
 Schrodinger Suite 2024-2.
 60 65  0  0  1  0            999 V2000
    0.0880   51.8465   29.3204 C   0  0  0  0  0  0
   -0.2070   52.8083   30.2803 C   0  0  0  0  0  0
    0.3092   54.0955   30.1563 C   0  0  0  0  0  0
    1.1544   54.4137   29.0925 C   0  0  0  0  0  0
    1.5310   53.4185   28.1679 C   0  0  0  0  0  0
    0.9671   52.1428   28.2847 C   0  0  0  0  0  0
    2.5152   53.6652   27.0807 C   0  0  0  0  0  0
    2.0916   53.5488   25.7535 C   0  0  0  0  0  0
    3.0204   53.7927   24.7234 C   0  0  0  0  0  0
    4.3724   54.1328   25.0031 C   0  0  0  0  0  0
    5.0242   54.3306   23.7630 C   0  0  0  0  0  0
    6.3373   54.6939   23.3996 C   0  0  0  0  0  0
    6.6432   54.9043   22.0568 C   0  0  0  0  0  0
    5.6772   54.7255   21.0756 C   0  0  0  0  0  0
    4.3780   54.3262   21.3830 C   0  0  0  0  0  0
    4.0573   54.1327   22.7353 C   0  0  0  0  0  0
    2.8596   53.7734   23.3449 N   0  0  0  0  0  0
    1.5870   53.5074   22.6648 C   0  0  0  0  0  0
    1.6540   52.4167   21.5723 C   0  0  0  0  0  0
    2.5192   51.1838   21.9247 C   0  0  0  0  0  0
    2.3192   49.9951   20.9507 N   0  3  0  0  0  0
    2.4906   50.3759   19.4592 C   0  0  0  0  0  0
    2.2851   49.1203   18.5931 C   0  0  0  0  0  0
    1.0414   48.4850   18.8863 O   0  0  0  0  0  0
    0.8816   48.0697   20.2369 C   0  0  0  0  0  0
    0.9857   49.2586   21.2082 C   0  0  0  0  0  0
    7.9031   55.2983   21.6817 O   0  0  0  0  0  0
    4.7619   54.2167   26.3541 C   0  0  0  0  0  0
    3.8509   53.9818   27.3528 C   0  0  0  0  0  0
    4.5747   54.1263   28.6507 C   0  0  0  0  0  0
    4.1468   53.9821   29.7932 O   0  0  0  0  0  0
    5.8300   54.4763   28.3249 N   0  0  0  0  0  0
    6.0498   54.5619   27.0038 C   0  0  0  0  0  0
    7.1044   54.8910   26.4814 O   0  0  0  0  0  0
    1.6960   56.0542   28.9412 Cl  0  0  0  0  0  0
   -0.3527   50.8661   29.3977 H   0  0  0  0  0  0
   -0.8622   52.5561   31.1031 H   0  0  0  0  0  0
    0.0444   54.8503   30.8825 H   0  0  0  0  0  0
    1.2209   51.3669   27.5765 H   0  0  0  0  0  0
    1.0637   53.2958   25.5446 H   0  0  0  0  0  0
    7.1063   54.8471   24.1366 H   0  0  0  0  0  0
    5.9401   54.9001   20.0414 H   0  0  0  0  0  0
    3.6542   54.2186   20.5912 H   0  0  0  0  0  0
    1.2451   54.4550   22.2560 H   0  0  0  0  0  0
    0.8462   53.2060   23.4029 H   0  0  0  0  0  0
    2.0198   52.8663   20.6509 H   0  0  0  0  0  0
    0.6334   52.1171   21.3419 H   0  0  0  0  0  0
    2.3048   50.7911   22.9208 H   0  0  0  0  0  0
    3.5860   51.4092   21.8740 H   0  0  0  0  0  0
    3.5027   50.7633   19.3337 H   0  0  0  0  0  0
    1.7659   51.1486   19.2053 H   0  0  0  0  0  0
    2.2972   49.3947   17.5387 H   0  0  0  0  0  0
    3.1046   48.4173   18.7508 H   0  0  0  0  0  0
   -0.0806   47.5677   20.3450 H   0  0  0  0  0  0
    1.6569   47.3403   20.4784 H   0  0  0  0  0  0
    0.1647   49.9623   21.0769 H   0  0  0  0  0  0
    1.0113   48.9035   22.2413 H   0  0  0  0  0  0
    8.5397   55.2992   22.4116 H   0  0  0  0  0  0
    6.5377   54.7050   29.0091 H   0  0  0  0  0  0
    3.0494   49.3225   21.1462 H   0  0  0  0  0  0
  1  6  2  0  0  0
  1  2  1  0  0  0
  1 36  1  0  0  0
  2  3  2  0  0  0
  2 37  1  0  0  0
  3  4  1  0  0  0
  3 38  1  0  0  0
  4  5  2  0  0  0
  4 35  1  0  0  0
  5  6  1  0  0  0
  5  7  1  0  0  0
  6 39  1  0  0  0
  7 29  2  0  0  0
  7  8  1  0  0  0
  8  9  2  0  0  0
  8 40  1  0  0  0
  9 17  1  0  0  0
  9 10  1  0  0  0
 10 11  1  0  0  0
 10 28  2  0  0  0
 11 16  2  0  0  0
 11 12  1  0  0  0
 12 13  2  0  0  0
 12 41  1  0  0  0
 13 14  1  0  0  0
 13 27  1  0  0  0
 14 15  2  0  0  0
 14 42  1  0  0  0
 15 16  1  0  0  0
 15 43  1  0  0  0
 16 17  1  0  0  0
 17 18  1  0  0  0
 18 19  1  0  0  0
 18 44  1  0  0  0
 18 45  1  0  0  0
 19 20  1  0  0  0
 19 46  1  0  0  0
 19 47  1  0  0  0
 20 21  1  0  0  0
 20 48  1  0  0  0
 20 49  1  0  0  0
 21 26  1  0  0  0
 21 22  1  0  0  0
 21 60  1  0  0  0
 22 23  1  0  0  0
 22 50  1  0  0  0
 22 51  1  0  0  0
 23 24  1  0  0  0
 23 52  1  0  0  0
 23 53  1  0  0  0
 24 25  1  0  0  0
 25 26  1  0  0  0
 25 54  1  0  0  0
 25 55  1  0  0  0
 26 56  1  0  0  0
 26 57  1  0  0  0
 27 58  1  0  0  0
 28 33  1  0  0  0
 28 29  1  0  0  0
 29 30  1  0  0  0
 30 31  2  0  0  0
 30 32  1  0  0  0
 32 33  1  0  0  0
 32 59  1  0  0  0
 33 34  2  0  0  0
M  CHG  1  21   1
M  END
> <i_i_glide_confnum>
18

> <i_i_glide_lignum>
131

> <i_i_glide_posenum>
192

> <i_i_glide_rotatable_bonds>
6

> <i_m_Source_File_Index>
3

> <b_m_subgroup_collapsed>
0

> <r_i_docking_score>
-11.4198

> <r_i_glide_ecoul>
-15.1855

> <r_i_glide_eff_state_penalty>
0

> <r_i_glide_einternal>
7.24106

> <r_i_glide_emodel>
-114.767

> <r_i_glide_energy>
-67.2548

> <r_i_glide_erotb>
0.236441

> <r_i_glide_esite>
0

> <r_i_glide_evdw>
-52.0693

> <r_i_glide_gscore>
-11.4198

> <r_i_glide_hbond>
-0.865596

> <r_i_glide_ligand_efficiency>
-0.326279

> <r_i_glide_ligand_efficiency_ln>
-2.50689

> <r_i_glide_ligand_efficiency_sa>
-1.06728

> <r_i_glide_lipo>
-3.84393

> <r_i_glide_metal>
0

> <r_i_glide_rewards>
-2.06539

> <s_i_glide_gridfile>
wee1_glide-grid

> <s_m_Source_File>
wee1_actives_glide_SP.sdf

> <s_m_Source_Path>
/Users/zhangxujun/Desktop

> <s_m_entry_id>
141

> <s_m_entry_name>
wee1_actives_glide_SP.3

> <s_m_subgroup_title>
wee1_actives_glide_SP

> <s_m_subgroupid>
wee1_actives_glide_SP


$$$$
