CHEMBL452079_97
                    3D
 Schrodinger Suite 2024-2.
 58 63  0  0  1  0            999 V2000
   -0.0957   52.8515   30.4236 C   0  0  0  0  0  0
    0.0494   51.9192   29.4010 C   0  0  0  0  0  0
    0.8788   52.2046   28.3218 C   0  0  0  0  0  0
    1.5483   53.4313   28.2515 C   0  0  0  0  0  0
    1.3225   54.3919   29.2458 C   0  0  0  0  0  0
    0.5174   54.0966   30.3414 C   0  0  0  0  0  0
    2.5155   53.6864   27.1496 C   0  0  0  0  0  0
    2.0827   53.5689   25.8218 C   0  0  0  0  0  0
    3.0086   53.7819   24.7858 C   0  0  0  0  0  0
    4.3594   54.1406   25.0489 C   0  0  0  0  0  0
    5.0042   54.3345   23.8030 C   0  0  0  0  0  0
    6.3041   54.7330   23.4231 C   0  0  0  0  0  0
    6.6004   54.8968   22.0714 C   0  0  0  0  0  0
    5.6471   54.6192   21.0986 C   0  0  0  0  0  0
    4.3677   54.1732   21.4246 C   0  0  0  0  0  0
    4.0475   54.0596   22.7865 C   0  0  0  0  0  0
    2.8549   53.7114   23.4083 N   0  0  0  0  0  0
    1.6218   53.3520   22.7083 C   0  0  0  0  0  0
    1.3384   51.8264   22.6864 C   0  0  0  0  0  0
    0.4054   51.3108   23.7971 C   0  0  0  0  0  0
   -0.8474   52.0595   23.8386 N   0  0  0  0  0  0
   -1.8073   51.8762   24.8438 C   0  0  0  0  0  0
   -1.6302   50.9969   25.9179 C   0  0  0  0  0  0
   -2.6264   50.8695   26.8818 C   0  0  0  0  0  0
   -3.7923   51.6242   26.7796 C   0  0  0  0  0  0
   -3.9755   52.5025   25.7145 C   0  0  0  0  0  0
   -2.9831   52.6234   24.7452 C   0  0  0  0  0  0
    7.8501   55.3098   21.6817 O   0  0  0  0  0  0
    4.7568   54.2394   26.3956 C   0  0  0  0  0  0
    3.8554   54.0113   27.4061 C   0  0  0  0  0  0
    4.5981   54.1746   28.6940 C   0  0  0  0  0  0
    4.1883   54.0648   29.8475 O   0  0  0  0  0  0
    5.8549   54.4965   28.3476 N   0  0  0  0  0  0
    6.0551   54.5805   27.0243 C   0  0  0  0  0  0
    7.1044   54.8964   26.4849 O   0  0  0  0  0  0
   -0.7109   52.6106   31.2797 H   0  0  0  0  0  0
   -0.4591   50.9673   29.4604 H   0  0  0  0  0  0
    1.0229   51.4565   27.5555 H   0  0  0  0  0  0
    1.8141   55.3528   29.1958 H   0  0  0  0  0  0
    0.3789   54.8235   31.1286 H   0  0  0  0  0  0
    1.0509   53.3318   25.6122 H   0  0  0  0  0  0
    7.0671   54.9485   24.1490 H   0  0  0  0  0  0
    5.9091   54.7392   20.0572 H   0  0  0  0  0  0
    3.6517   53.9656   20.6424 H   0  0  0  0  0  0
    1.6963   53.6968   21.6817 H   0  0  0  0  0  0
    0.8050   53.9309   23.1384 H   0  0  0  0  0  0
    2.2728   51.2625   22.6962 H   0  0  0  0  0  0
    0.8738   51.5855   21.7288 H   0  0  0  0  0  0
    0.8914   51.3798   24.7687 H   0  0  0  0  0  0
    0.1833   50.2520   23.6538 H   0  0  0  0  0  0
   -1.2058   52.3745   22.9505 H   0  0  0  0  0  0
   -0.7387   50.3964   26.0154 H   0  0  0  0  0  0
   -2.4962   50.1710   27.6975 H   0  0  0  0  0  0
   -4.5631   51.5179   27.5289 H   0  0  0  0  0  0
   -4.8836   53.0821   25.6374 H   0  0  0  0  0  0
   -3.1299   53.3085   23.9233 H   0  0  0  0  0  0
    8.4926   55.3187   22.4054 H   0  0  0  0  0  0
    6.5754   54.7200   29.0202 H   0  0  0  0  0  0
  1  6  2  0  0  0
  1  2  1  0  0  0
  1 36  1  0  0  0
  2  3  2  0  0  0
  2 37  1  0  0  0
  3  4  1  0  0  0
  3 38  1  0  0  0
  4  5  2  0  0  0
  4  7  1  0  0  0
  5  6  1  0  0  0
  5 39  1  0  0  0
  6 40  1  0  0  0
  7 30  2  0  0  0
  7  8  1  0  0  0
  8  9  2  0  0  0
  8 41  1  0  0  0
  9 17  1  0  0  0
  9 10  1  0  0  0
 10 11  1  0  0  0
 10 29  2  0  0  0
 11 16  2  0  0  0
 11 12  1  0  0  0
 12 13  2  0  0  0
 12 42  1  0  0  0
 13 14  1  0  0  0
 13 28  1  0  0  0
 14 15  2  0  0  0
 14 43  1  0  0  0
 15 16  1  0  0  0
 15 44  1  0  0  0
 16 17  1  0  0  0
 17 18  1  0  0  0
 18 19  1  0  0  0
 18 45  1  0  0  0
 18 46  1  0  0  0
 19 20  1  0  0  0
 19 47  1  0  0  0
 19 48  1  0  0  0
 20 21  1  0  0  0
 20 49  1  0  0  0
 20 50  1  0  0  0
 21 22  1  0  0  0
 21 51  1  0  0  0
 22 27  2  0  0  0
 22 23  1  0  0  0
 23 24  2  0  0  0
 23 52  1  0  0  0
 24 25  1  0  0  0
 24 53  1  0  0  0
 25 26  2  0  0  0
 25 54  1  0  0  0
 26 27  1  0  0  0
 26 55  1  0  0  0
 27 56  1  0  0  0
 28 57  1  0  0  0
 29 34  1  0  0  0
 29 30  1  0  0  0
 30 31  1  0  0  0
 31 32  2  0  0  0
 31 33  1  0  0  0
 33 34  1  0  0  0
 33 58  1  0  0  0
 34 35  2  0  0  0
M  END
> <i_i_glide_confnum>
85

> <i_i_glide_lignum>
98

> <i_i_glide_posenum>
226

> <i_i_glide_rotatable_bonds>
7

> <i_m_Source_File_Index>
104

> <b_m_subgroup_collapsed>
0

> <r_i_docking_score>
-11.3053

> <r_i_glide_ecoul>
-13.9583

> <r_i_glide_eff_state_penalty>
0

> <r_i_glide_einternal>
3.70096

> <r_i_glide_emodel>
-110.673

> <r_i_glide_energy>
-66.7032

> <r_i_glide_erotb>
0.330897

> <r_i_glide_esite>
0

> <r_i_glide_evdw>
-52.7449

> <r_i_glide_gscore>
-11.3053

> <r_i_glide_hbond>
-0.898544

> <r_i_glide_ligand_efficiency>
-0.323009

> <r_i_glide_ligand_efficiency_ln>
-2.48177

> <r_i_glide_ligand_efficiency_sa>
-1.05659

> <r_i_glide_lipo>
-3.74988

> <r_i_glide_metal>
0

> <r_i_glide_rewards>
-2.2568

> <s_i_glide_gridfile>
wee1_glide-grid

> <s_m_Source_File>
wee1_actives_glide_SP.sdf

> <s_m_Source_Path>
/Users/zhangxujun/Desktop

> <s_m_entry_id>
242

> <s_m_entry_name>
wee1_actives_glide_SP.104

> <s_m_subgroup_title>
wee1_actives_glide_SP

> <s_m_subgroupid>
wee1_actives_glide_SP


$$$$
