CHEMBL519212_55
                    3D
 Schrodinger Suite 2024-2.
 61 66  0  0  1  0            999 V2000
    0.0923   51.8664   29.5105 C   0  0  0  0  0  0
   -0.1755   52.8242   30.4803 C   0  0  0  0  0  0
    0.3887   54.0930   30.3880 C   0  0  0  0  0  0
    1.2507   54.4007   29.3350 C   0  0  0  0  0  0
    1.5899   53.4104   28.3879 C   0  0  0  0  0  0
    0.9838   52.1508   28.4835 C   0  0  0  0  0  0
    2.5548   53.6445   27.2807 C   0  0  0  0  0  0
    2.1032   53.5034   25.9641 C   0  0  0  0  0  0
    3.0001   53.7567   24.9144 C   0  0  0  0  0  0
    4.3561   54.1076   25.1463 C   0  0  0  0  0  0
    4.9693   54.3155   23.8843 C   0  0  0  0  0  0
    6.2676   54.6917   23.4684 C   0  0  0  0  0  0
    6.5190   54.8969   22.1111 C   0  0  0  0  0  0
    5.5212   54.6854   21.1679 C   0  0  0  0  0  0
    4.2407   54.2741   21.5282 C   0  0  0  0  0  0
    3.9694   54.1012   22.8938 C   0  0  0  0  0  0
    2.7932   53.7528   23.5476 N   0  0  0  0  0  0
    1.5162   53.4257   22.9193 C   0  0  0  0  0  0
    1.4174   51.9298   22.5483 C   0  0  0  0  0  0
    2.3880   51.5016   21.4226 C   0  0  0  0  0  0
    2.1176   50.0947   20.8601 C   0  0  0  0  0  0
    1.8614   49.1963   21.6645 O   0  0  0  0  0  0
    2.3163   49.8461   19.5373 N   0  0  0  0  0  0
    2.2870   50.8901   18.4989 C   0  0  0  0  0  0
    0.8307   50.9501   17.9838 C   0  0  0  0  0  0
    0.4062   49.6652   17.5118 O   0  0  0  0  0  0
    0.5631   48.5918   18.4486 C   0  0  0  0  0  0
    2.0149   48.5166   18.9843 C   0  0  0  0  0  0
    7.7602   55.2974   21.6818 O   0  0  0  0  0  0
    4.7772   54.2005   26.4865 C   0  0  0  0  0  0
    3.8958   53.9718   27.5133 C   0  0  0  0  0  0
    4.6537   54.1427   28.7874 C   0  0  0  0  0  0
    4.2555   54.0244   29.9439 O   0  0  0  0  0  0
    5.8975   54.4919   28.4204 N   0  0  0  0  0  0
    6.0757   54.5660   27.0922 C   0  0  0  0  0  0
    7.1044   54.8975   26.5267 O   0  0  0  0  0  0
    1.8482   56.0253   29.2357 Cl  0  0  0  0  0  0
   -0.3814   50.8966   29.5656 H   0  0  0  0  0  0
   -0.8580   52.5884   31.2816 H   0  0  0  0  0  0
    0.1450   54.8421   31.1263 H   0  0  0  0  0  0
    1.2063   51.3797   27.7588 H   0  0  0  0  0  0
    1.0740   53.2390   25.7736 H   0  0  0  0  0  0
    7.0619   54.8587   24.1737 H   0  0  0  0  0  0
    5.7438   54.8447   20.1226 H   0  0  0  0  0  0
    3.4854   54.1378   20.7691 H   0  0  0  0  0  0
    1.4025   54.0683   22.0536 H   0  0  0  0  0  0
    0.7045   53.7118   23.5877 H   0  0  0  0  0  0
    0.3909   51.7307   22.2339 H   0  0  0  0  0  0
    1.5808   51.3177   23.4387 H   0  0  0  0  0  0
    3.4164   51.5155   21.7835 H   0  0  0  0  0  0
    2.3122   52.2490   20.6387 H   0  0  0  0  0  0
    2.9099   50.4970   17.6962 H   0  0  0  0  0  0
    2.7963   51.8300   18.7058 H   0  0  0  0  0  0
    0.1738   51.2801   18.7913 H   0  0  0  0  0  0
    0.7389   51.6927   17.1910 H   0  0  0  0  0  0
   -0.1207   48.7395   19.2865 H   0  0  0  0  0  0
    0.2848   47.6478   17.9803 H   0  0  0  0  0  0
    2.2516   47.6897   19.6538 H   0  0  0  0  0  0
    2.7049   48.3971   18.1475 H   0  0  0  0  0  0
    8.4267   55.2973   22.3834 H   0  0  0  0  0  0
    6.6217   54.7399   29.0813 H   0  0  0  0  0  0
  1  6  2  0  0  0
  1  2  1  0  0  0
  1 38  1  0  0  0
  2  3  2  0  0  0
  2 39  1  0  0  0
  3  4  1  0  0  0
  3 40  1  0  0  0
  4  5  2  0  0  0
  4 37  1  0  0  0
  5  6  1  0  0  0
  5  7  1  0  0  0
  6 41  1  0  0  0
  7 31  2  0  0  0
  7  8  1  0  0  0
  8  9  2  0  0  0
  8 42  1  0  0  0
  9 17  1  0  0  0
  9 10  1  0  0  0
 10 11  1  0  0  0
 10 30  2  0  0  0
 11 16  2  0  0  0
 11 12  1  0  0  0
 12 13  2  0  0  0
 12 43  1  0  0  0
 13 14  1  0  0  0
 13 29  1  0  0  0
 14 15  2  0  0  0
 14 44  1  0  0  0
 15 16  1  0  0  0
 15 45  1  0  0  0
 16 17  1  0  0  0
 17 18  1  0  0  0
 18 19  1  0  0  0
 18 46  1  0  0  0
 18 47  1  0  0  0
 19 20  1  0  0  0
 19 48  1  0  0  0
 19 49  1  0  0  0
 20 21  1  0  0  0
 20 50  1  0  0  0
 20 51  1  0  0  0
 21 22  2  0  0  0
 21 23  1  0  0  0
 23 28  1  0  0  0
 23 24  1  0  0  0
 24 25  1  0  0  0
 24 52  1  0  0  0
 24 53  1  0  0  0
 25 26  1  0  0  0
 25 54  1  0  0  0
 25 55  1  0  0  0
 26 27  1  0  0  0
 27 28  1  0  0  0
 27 56  1  0  0  0
 27 57  1  0  0  0
 28 58  1  0  0  0
 28 59  1  0  0  0
 29 60  1  0  0  0
 30 35  1  0  0  0
 30 31  1  0  0  0
 31 32  1  0  0  0
 32 33  2  0  0  0
 32 34  1  0  0  0
 34 35  1  0  0  0
 34 61  1  0  0  0
 35 36  2  0  0  0
M  END
> <i_i_glide_confnum>
118

> <i_i_glide_lignum>
56

> <i_i_glide_posenum>
302

> <i_i_glide_rotatable_bonds>
7

> <i_m_Source_File_Index>
78

> <b_m_subgroup_collapsed>
0

> <r_i_docking_score>
-11.8586

> <r_i_glide_ecoul>
-14.4034

> <r_i_glide_eff_state_penalty>
0

> <r_i_glide_einternal>
3.99497

> <r_i_glide_emodel>
-121.588

> <r_i_glide_energy>
-71.127

> <r_i_glide_erotb>
0.382719

> <r_i_glide_esite>
-0.0665785

> <r_i_glide_evdw>
-56.7236

> <r_i_glide_gscore>
-11.8586

> <r_i_glide_hbond>
-0.922227

> <r_i_glide_ligand_efficiency>
-0.320501

> <r_i_glide_ligand_efficiency_ln>
-2.57184

> <r_i_glide_ligand_efficiency_sa>
-1.06798

> <r_i_glide_lipo>
-3.98033

> <r_i_glide_metal>
0

> <r_i_glide_rewards>
-2.27545

> <s_i_glide_gridfile>
wee1_glide-grid

> <s_m_Source_File>
wee1_actives_glide_SP.sdf

> <s_m_Source_Path>
/Users/zhangxujun/Desktop

> <s_m_entry_id>
216

> <s_m_entry_name>
wee1_actives_glide_SP.78

> <s_m_subgroup_title>
wee1_actives_glide_SP

> <s_m_subgroupid>
wee1_actives_glide_SP


$$$$
