CHEMBL256480_15
                    3D
 Schrodinger Suite 2024-2.
 60 65  0  0  1  0            999 V2000
    0.1306   51.8759   29.4480 C   0  0  0  0  0  0
   -0.1044   52.8177   30.4435 C   0  0  0  0  0  0
    0.4332   54.0964   30.3356 C   0  0  0  0  0  0
    1.2455   54.4269   29.2505 C   0  0  0  0  0  0
    1.5615   53.4518   28.2801 C   0  0  0  0  0  0
    0.9706   52.1861   28.3833 C   0  0  0  0  0  0
    2.5219   53.6966   27.1691 C   0  0  0  0  0  0
    2.0831   53.5645   25.8421 C   0  0  0  0  0  0
    3.0031   53.8043   24.8111 C   0  0  0  0  0  0
    4.3563   54.1584   25.0631 C   0  0  0  0  0  0
    4.9918   54.3502   23.8098 C   0  0  0  0  0  0
    6.2891   54.7270   23.4088 C   0  0  0  0  0  0
    6.5612   54.8967   22.0515 C   0  0  0  0  0  0
    5.5878   54.6415   21.0748 C   0  0  0  0  0  0
    4.3036   54.2113   21.4475 C   0  0  0  0  0  0
    4.0207   54.0967   22.8089 C   0  0  0  0  0  0
    2.8427   53.7624   23.4427 N   0  0  0  0  0  0
    1.9819   53.5358   22.9659 H   0  0  0  0  0  0
    5.9478   54.8426   19.7534 O   0  0  0  0  0  0
    5.1685   54.2441   18.7201 C   0  0  0  0  0  0
    5.8248   54.5251   17.3596 C   0  0  0  0  0  0
    5.8055   56.0073   16.9165 C   0  0  0  0  0  0
    4.4648   56.6058   16.8445 N   0  0  0  0  0  0
    3.5426   55.8799   15.9578 C   0  0  0  0  0  0
    2.1726   56.5826   15.8535 C   0  0  0  0  0  0
    2.3336   57.9325   15.4336 O   0  0  0  0  0  0
    3.1725   58.6890   16.3030 C   0  0  0  0  0  0
    4.5589   58.0264   16.4692 C   0  0  0  0  0  0
    7.8245   55.2972   21.6817 O   0  0  0  0  0  0
    4.7605   54.2471   26.4066 C   0  0  0  0  0  0
    3.8647   54.0126   27.4192 C   0  0  0  0  0  0
    4.6175   54.1469   28.7034 C   0  0  0  0  0  0
    4.2151   53.9938   29.8546 O   0  0  0  0  0  0
    5.8668   54.4959   28.3543 N   0  0  0  0  0  0
    6.0600   54.5834   27.0297 C   0  0  0  0  0  0
    7.1044   54.8967   26.4818 O   0  0  0  0  0  0
    1.8305   56.0555   29.1541 Cl  0  0  0  0  0  0
   -0.3218   50.8967   29.5148 H   0  0  0  0  0  0
   -0.7351   52.5603   31.2817 H   0  0  0  0  0  0
    0.2157   54.8338   31.0944 H   0  0  0  0  0  0
    1.1780   51.4247   27.6443 H   0  0  0  0  0  0
    1.0590   53.2968   25.6267 H   0  0  0  0  0  0
    7.0669   54.9235   24.1255 H   0  0  0  0  0  0
    3.5305   54.0206   20.7189 H   0  0  0  0  0  0
    4.1481   54.6300   18.7205 H   0  0  0  0  0  0
    5.1135   53.1651   18.8796 H   0  0  0  0  0  0
    5.3903   53.8927   16.5856 H   0  0  0  0  0  0
    6.8637   54.1983   17.4108 H   0  0  0  0  0  0
    6.3058   56.1029   15.9509 H   0  0  0  0  0  0
    6.3932   56.5828   17.6344 H   0  0  0  0  0  0
    3.3935   54.8625   16.3189 H   0  0  0  0  0  0
    3.9866   55.7865   14.9651 H   0  0  0  0  0  0
    1.5294   56.0613   15.1446 H   0  0  0  0  0  0
    1.6743   56.5535   16.8248 H   0  0  0  0  0  0
    3.2743   59.6967   15.9015 H   0  0  0  0  0  0
    2.7044   58.7799   17.2817 H   0  0  0  0  0  0
    5.1153   58.1257   15.5355 H   0  0  0  0  0  0
    5.1396   58.5677   17.2184 H   0  0  0  0  0  0
    8.4579   55.2989   22.4118 H   0  0  0  0  0  0
    6.5896   54.7170   29.0249 H   0  0  0  0  0  0
  1  6  2  0  0  0
  1  2  1  0  0  0
  1 38  1  0  0  0
  2  3  2  0  0  0
  2 39  1  0  0  0
  3  4  1  0  0  0
  3 40  1  0  0  0
  4  5  2  0  0  0
  4 37  1  0  0  0
  5  6  1  0  0  0
  5  7  1  0  0  0
  6 41  1  0  0  0
  7 31  2  0  0  0
  7  8  1  0  0  0
  8  9  2  0  0  0
  8 42  1  0  0  0
  9 17  1  0  0  0
  9 10  1  0  0  0
 10 11  1  0  0  0
 10 30  2  0  0  0
 11 16  2  0  0  0
 11 12  1  0  0  0
 12 13  2  0  0  0
 12 43  1  0  0  0
 13 14  1  0  0  0
 13 29  1  0  0  0
 14 15  2  0  0  0
 14 19  1  0  0  0
 15 16  1  0  0  0
 15 44  1  0  0  0
 16 17  1  0  0  0
 17 18  1  0  0  0
 19 20  1  0  0  0
 20 21  1  0  0  0
 20 45  1  0  0  0
 20 46  1  0  0  0
 21 22  1  0  0  0
 21 47  1  0  0  0
 21 48  1  0  0  0
 22 23  1  0  0  0
 22 49  1  0  0  0
 22 50  1  0  0  0
 23 28  1  0  0  0
 23 24  1  0  0  0
 24 25  1  0  0  0
 24 51  1  0  0  0
 24 52  1  0  0  0
 25 26  1  0  0  0
 25 53  1  0  0  0
 25 54  1  0  0  0
 26 27  1  0  0  0
 27 28  1  0  0  0
 27 55  1  0  0  0
 27 56  1  0  0  0
 28 57  1  0  0  0
 28 58  1  0  0  0
 29 59  1  0  0  0
 30 35  1  0  0  0
 30 31  1  0  0  0
 31 32  1  0  0  0
 32 33  2  0  0  0
 32 34  1  0  0  0
 34 35  1  0  0  0
 34 60  1  0  0  0
 35 36  2  0  0  0
M  END
> <i_i_glide_confnum>
12

> <i_i_glide_lignum>
16

> <i_i_glide_posenum>
55

> <i_i_glide_rotatable_bonds>
7

> <i_m_Source_File_Index>
132

> <b_m_subgroup_collapsed>
0

> <r_i_docking_score>
-10.5376

> <r_i_glide_ecoul>
-14.4346

> <r_i_glide_eff_state_penalty>
0

> <r_i_glide_einternal>
1.74566

> <r_i_glide_emodel>
-111.645

> <r_i_glide_energy>
-68.1169

> <r_i_glide_erotb>
0.279699

> <r_i_glide_esite>
0

> <r_i_glide_evdw>
-53.6824

> <r_i_glide_gscore>
-10.5376

> <r_i_glide_hbond>
-0.597879

> <r_i_glide_ligand_efficiency>
-0.292711

> <r_i_glide_ligand_efficiency_ln>
-2.29902

> <r_i_glide_ligand_efficiency_sa>
-0.966512

> <r_i_glide_lipo>
-3.68051

> <r_i_glide_metal>
0

> <r_i_glide_rewards>
-1.68962

> <s_i_glide_gridfile>
wee1_glide-grid

> <s_m_Source_File>
wee1_actives_glide_SP.sdf

> <s_m_Source_Path>
/Users/zhangxujun/Desktop

> <s_m_entry_id>
270

> <s_m_entry_name>
wee1_actives_glide_SP.132

> <s_m_subgroup_title>
wee1_actives_glide_SP

> <s_m_subgroupid>
wee1_actives_glide_SP


$$$$
