CHEMBL461134_131
                    3D
 Schrodinger Suite 2024-2.
 58 63  0  0  1  0            999 V2000
    0.5965   48.1972   18.8978 C   0  0  0  0  0  0
   -0.0509   48.3854   20.1157 C   0  0  0  0  0  0
    0.5034   49.2371   21.0675 C   0  0  0  0  0  0
    1.7029   49.9100   20.7959 C   0  0  0  0  0  0
    2.3284   49.7296   19.5635 C   0  0  0  0  0  0
    1.7853   48.8671   18.6189 C   0  0  0  0  0  0
    2.3307   50.7663   21.7140 N   0  0  0  0  0  0
    1.8300   50.9564   23.0684 C   0  0  0  0  0  0
    0.8585   52.1406   23.2106 C   0  0  0  0  0  0
    1.4333   53.5500   22.9133 C   0  0  0  0  0  0
    2.7259   53.8155   23.5548 N   0  0  0  0  0  0
    3.9184   54.0965   22.8965 C   0  0  0  0  0  0
    4.2134   54.1774   21.5266 C   0  0  0  0  0  0
    5.4930   54.5951   21.1640 C   0  0  0  0  0  0
    6.4704   54.8847   22.1087 C   0  0  0  0  0  0
    6.2096   54.7246   23.4692 C   0  0  0  0  0  0
    4.9116   54.3549   23.8856 C   0  0  0  0  0  0
    4.2982   54.1810   25.1505 C   0  0  0  0  0  0
    2.9286   53.8767   24.9256 C   0  0  0  0  0  0
    2.0255   53.6963   25.9858 C   0  0  0  0  0  0
    2.4946   53.7893   27.3002 C   0  0  0  0  0  0
    3.8523   54.0621   27.5192 C   0  0  0  0  0  0
    4.7348   54.2643   26.4860 C   0  0  0  0  0  0
    6.0590   54.5665   27.0834 C   0  0  0  0  0  0
    7.1043   54.8527   26.5196 O   0  0  0  0  0  0
    5.8854   54.4958   28.4125 N   0  0  0  0  0  0
    4.6294   54.1979   28.7864 C   0  0  0  0  0  0
    4.2382   54.0895   29.9462 O   0  0  0  0  0  0
    1.5385   53.5782   28.4306 C   0  0  0  0  0  0
    0.9002   52.3326   28.6106 C   0  0  0  0  0  0
    0.0814   52.1095   29.7149 C   0  0  0  0  0  0
   -0.0956   53.1042   30.6685 C   0  0  0  0  0  0
    0.4788   54.3556   30.4798 C   0  0  0  0  0  0
    1.2629   54.6075   29.3550 C   0  0  0  0  0  0
    1.8615   56.2219   29.1409 Cl  0  0  0  0  0  0
    1.1046   51.0214   27.5000 Cl  0  0  0  0  0  0
    7.7079   55.2969   21.6817 O   0  0  0  0  0  0
    0.1741   47.5295   18.1622 H   0  0  0  0  0  0
   -0.9757   47.8675   20.3250 H   0  0  0  0  0  0
   -0.0138   49.3670   22.0059 H   0  0  0  0  0  0
    3.2514   50.2403   19.3280 H   0  0  0  0  0  0
    2.2986   48.7190   17.6792 H   0  0  0  0  0  0
    3.0034   51.4284   21.3542 H   0  0  0  0  0  0
    1.3882   50.0434   23.4692 H   0  0  0  0  0  0
    2.7003   51.1241   23.6940 H   0  0  0  0  0  0
    0.0085   51.9738   22.5493 H   0  0  0  0  0  0
    0.4304   52.1097   24.2111 H   0  0  0  0  0  0
    1.5405   53.6820   21.8376 H   0  0  0  0  0  0
    0.7409   54.3157   23.2674 H   0  0  0  0  0  0
    3.4728   53.9799   20.7648 H   0  0  0  0  0  0
    5.7313   54.7043   20.1150 H   0  0  0  0  0  0
    6.9924   54.9375   24.1753 H   0  0  0  0  0  0
    0.9854   53.4809   25.8063 H   0  0  0  0  0  0
    6.6244   54.7101   29.0683 H   0  0  0  0  0  0
   -0.4131   51.1561   29.8416 H   0  0  0  0  0  0
   -0.6993   52.9044   31.5429 H   0  0  0  0  0  0
    0.3038   55.1377   31.2037 H   0  0  0  0  0  0
    8.3742   55.3143   22.3830 H   0  0  0  0  0  0
  1  6  2  0  0  0
  1  2  1  0  0  0
  1 38  1  0  0  0
  2  3  2  0  0  0
  2 39  1  0  0  0
  3  4  1  0  0  0
  3 40  1  0  0  0
  4  5  2  0  0  0
  4  7  1  0  0  0
  5  6  1  0  0  0
  5 41  1  0  0  0
  6 42  1  0  0  0
  7  8  1  0  0  0
  7 43  1  0  0  0
  8  9  1  0  0  0
  8 44  1  0  0  0
  8 45  1  0  0  0
  9 10  1  0  0  0
  9 46  1  0  0  0
  9 47  1  0  0  0
 10 11  1  0  0  0
 10 48  1  0  0  0
 10 49  1  0  0  0
 11 19  1  0  0  0
 11 12  1  0  0  0
 12 17  2  0  0  0
 12 13  1  0  0  0
 13 14  2  0  0  0
 13 50  1  0  0  0
 14 15  1  0  0  0
 14 51  1  0  0  0
 15 16  2  0  0  0
 15 37  1  0  0  0
 16 17  1  0  0  0
 16 52  1  0  0  0
 17 18  1  0  0  0
 18 23  2  0  0  0
 18 19  1  0  0  0
 19 20  2  0  0  0
 20 21  1  0  0  0
 20 53  1  0  0  0
 21 22  2  0  0  0
 21 29  1  0  0  0
 22 27  1  0  0  0
 22 23  1  0  0  0
 23 24  1  0  0  0
 24 25  2  0  0  0
 24 26  1  0  0  0
 26 27  1  0  0  0
 26 54  1  0  0  0
 27 28  2  0  0  0
 29 34  2  0  0  0
 29 30  1  0  0  0
 30 31  2  0  0  0
 30 36  1  0  0  0
 31 32  1  0  0  0
 31 55  1  0  0  0
 32 33  2  0  0  0
 32 56  1  0  0  0
 33 34  1  0  0  0
 33 57  1  0  0  0
 34 35  1  0  0  0
 37 58  1  0  0  0
M  END
> <i_i_glide_confnum>
288

> <i_i_glide_lignum>
132

> <i_i_glide_posenum>
57

> <i_i_glide_rotatable_bonds>
7

> <i_m_Source_File_Index>
69

> <b_m_subgroup_collapsed>
0

> <r_i_docking_score>
-11.633

> <r_i_glide_ecoul>
-13.3684

> <r_i_glide_eff_state_penalty>
0

> <r_i_glide_einternal>
2.74075

> <r_i_glide_emodel>
-116.831

> <r_i_glide_energy>
-69.2762

> <r_i_glide_erotb>
0.366366

> <r_i_glide_esite>
0

> <r_i_glide_evdw>
-55.9078

> <r_i_glide_gscore>
-11.633

> <r_i_glide_hbond>
-0.926988

> <r_i_glide_ligand_efficiency>
-0.314407

> <r_i_glide_ligand_efficiency_ln>
-2.52294

> <r_i_glide_ligand_efficiency_sa>
-1.04767

> <r_i_glide_lipo>
-4.11473

> <r_i_glide_metal>
0

> <r_i_glide_rewards>
-2.15705

> <s_i_glide_gridfile>
wee1_glide-grid

> <s_m_Source_File>
wee1_actives_glide_SP.sdf

> <s_m_Source_Path>
/Users/zhangxujun/Desktop

> <s_m_entry_id>
207

> <s_m_entry_name>
wee1_actives_glide_SP.69

> <s_m_subgroup_title>
wee1_actives_glide_SP

> <s_m_subgroupid>
wee1_actives_glide_SP


$$$$
