CHEMBL488783_92
                    3D
 Schrodinger Suite 2024-2.
 60 65  0  0  1  0            999 V2000
    1.6319   53.3754   22.6690 C   0  0  0  0  0  0
    2.8724   53.7292   23.3400 N   0  0  0  0  0  0
    4.0611   54.0965   22.7227 C   0  0  0  0  0  0
    4.3795   54.2451   21.3647 C   0  0  0  0  0  0
    5.6721   54.6648   21.0335 C   0  0  0  0  0  0
    6.6323   54.8974   22.0272 C   0  0  0  0  0  0
    6.3201   54.7246   23.3751 C   0  0  0  0  0  0
    5.0173   54.3430   23.7463 C   0  0  0  0  0  0
    4.3687   54.1451   24.9895 C   0  0  0  0  0  0
    3.0233   53.7807   24.7173 C   0  0  0  0  0  0
    2.0928   53.5361   25.7416 C   0  0  0  0  0  0
    2.5099   53.6657   27.0751 C   0  0  0  0  0  0
    3.8485   53.9884   27.3412 C   0  0  0  0  0  0
    4.7566   54.2329   26.3421 C   0  0  0  0  0  0
    6.0479   54.5736   26.9868 C   0  0  0  0  0  0
    7.1044   54.8967   26.4641 O   0  0  0  0  0  0
    5.8319   54.4779   28.3079 N   0  0  0  0  0  0
    4.5824   54.1171   28.6365 C   0  0  0  0  0  0
    4.1659   53.9542   29.7814 O   0  0  0  0  0  0
    1.5277   53.4097   28.1674 C   0  0  0  0  0  0
    0.9319   52.1434   28.2498 C   0  0  0  0  0  0
    0.0508   51.8324   29.2818 C   0  0  0  0  0  0
   -0.2275   52.7723   30.2663 C   0  0  0  0  0  0
    0.3162   54.0494   30.1812 C   0  0  0  0  0  0
    1.1768   54.3796   29.1321 C   0  0  0  0  0  0
    1.7746   56.0061   29.0686 Cl  0  0  0  0  0  0
    7.9044   55.2969   21.6818 O   0  0  0  0  0  0
    6.0334   54.8358   19.5573 C   0  0  0  0  0  0
    6.1839   56.3130   19.1396 C   0  0  0  0  0  0
    6.7966   56.4973   17.7346 C   0  0  0  0  0  0
    5.9057   56.0332   16.5587 C   0  0  0  0  0  0
    4.6305   56.7401   16.5328 N   0  0  0  0  0  0
    4.4569   58.1040   16.4857 C   0  0  0  0  0  0
    3.1043   58.3913   16.4674 C   0  0  0  0  0  0
    2.4225   57.1726   16.4815 C   0  0  0  0  0  0
    3.3777   56.1686   16.5265 C   0  0  0  0  0  0
    0.8923   54.1442   22.8819 H   0  0  0  0  0  0
    1.7752   53.2971   21.5918 H   0  0  0  0  0  0
    1.2797   52.4166   23.0488 H   0  0  0  0  0  0
    3.6477   54.0669   20.5891 H   0  0  0  0  0  0
    7.0825   54.9134   24.1097 H   0  0  0  0  0  0
    1.0723   53.2602   25.5155 H   0  0  0  0  0  0
    6.5433   54.6991   28.9904 H   0  0  0  0  0  0
    1.1640   51.3826   27.5170 H   0  0  0  0  0  0
   -0.4115   50.8601   29.3256 H   0  0  0  0  0  0
   -0.8879   52.5109   31.0827 H   0  0  0  0  0  0
    0.0748   54.7853   30.9358 H   0  0  0  0  0  0
    8.5252   55.2971   22.4235 H   0  0  0  0  0  0
    5.2898   54.3431   18.9284 H   0  0  0  0  0  0
    6.9680   54.3034   19.3721 H   0  0  0  0  0  0
    6.8306   56.8288   19.8486 H   0  0  0  0  0  0
    5.2194   56.8198   19.2074 H   0  0  0  0  0  0
    7.7479   55.9663   17.6896 H   0  0  0  0  0  0
    7.0542   57.5489   17.5978 H   0  0  0  0  0  0
    5.7075   54.9634   16.6263 H   0  0  0  0  0  0
    6.4005   56.2092   15.6022 H   0  0  0  0  0  0
    5.3085   58.7686   16.4825 H   0  0  0  0  0  0
    2.6656   59.3799   16.4480 H   0  0  0  0  0  0
    1.3497   57.0464   16.4736 H   0  0  0  0  0  0
    3.2702   55.0939   16.5551 H   0  0  0  0  0  0
  1  2  1  0  0  0
  1 37  1  0  0  0
  1 38  1  0  0  0
  1 39  1  0  0  0
  2 10  1  0  0  0
  2  3  1  0  0  0
  3  8  2  0  0  0
  3  4  1  0  0  0
  4  5  2  0  0  0
  4 40  1  0  0  0
  5  6  1  0  0  0
  5 28  1  0  0  0
  6  7  2  0  0  0
  6 27  1  0  0  0
  7  8  1  0  0  0
  7 41  1  0  0  0
  8  9  1  0  0  0
  9 14  2  0  0  0
  9 10  1  0  0  0
 10 11  2  0  0  0
 11 12  1  0  0  0
 11 42  1  0  0  0
 12 13  2  0  0  0
 12 20  1  0  0  0
 13 18  1  0  0  0
 13 14  1  0  0  0
 14 15  1  0  0  0
 15 16  2  0  0  0
 15 17  1  0  0  0
 17 18  1  0  0  0
 17 43  1  0  0  0
 18 19  2  0  0  0
 20 25  2  0  0  0
 20 21  1  0  0  0
 21 22  2  0  0  0
 21 44  1  0  0  0
 22 23  1  0  0  0
 22 45  1  0  0  0
 23 24  2  0  0  0
 23 46  1  0  0  0
 24 25  1  0  0  0
 24 47  1  0  0  0
 25 26  1  0  0  0
 27 48  1  0  0  0
 28 29  1  0  0  0
 28 49  1  0  0  0
 28 50  1  0  0  0
 29 30  1  0  0  0
 29 51  1  0  0  0
 29 52  1  0  0  0
 30 31  1  0  0  0
 30 53  1  0  0  0
 30 54  1  0  0  0
 31 32  1  0  0  0
 31 55  1  0  0  0
 31 56  1  0  0  0
 32 36  1  0  0  0
 32 33  1  0  0  0
 33 34  2  0  0  0
 33 57  1  0  0  0
 34 35  1  0  0  0
 34 58  1  0  0  0
 35 36  2  0  0  0
 35 59  1  0  0  0
 36 60  1  0  0  0
M  END
> <i_i_glide_confnum>
314

> <i_i_glide_lignum>
93

> <i_i_glide_posenum>
167

> <i_i_glide_rotatable_bonds>
7

> <i_m_Source_File_Index>
65

> <b_m_subgroup_collapsed>
0

> <r_i_docking_score>
-11.3297

> <r_i_glide_ecoul>
-14.0709

> <r_i_glide_eff_state_penalty>
0

> <r_i_glide_einternal>
1.97283

> <r_i_glide_emodel>
-116.503

> <r_i_glide_energy>
-69.2986

> <r_i_glide_erotb>
0.287971

> <r_i_glide_esite>
0

> <r_i_glide_evdw>
-55.2277

> <r_i_glide_gscore>
-11.3297

> <r_i_glide_hbond>
-0.846814

> <r_i_glide_ligand_efficiency>
-0.314715

> <r_i_glide_ligand_efficiency_ln>
-2.47185

> <r_i_glide_ligand_efficiency_sa>
-1.03917

> <r_i_glide_lipo>
-3.86766

> <r_i_glide_metal>
0

> <r_i_glide_rewards>
-2.03123

> <s_i_glide_gridfile>
wee1_glide-grid

> <s_m_Source_File>
wee1_actives_glide_SP.sdf

> <s_m_Source_Path>
/Users/zhangxujun/Desktop

> <s_m_entry_id>
203

> <s_m_entry_name>
wee1_actives_glide_SP.65

> <s_m_subgroup_title>
wee1_actives_glide_SP

> <s_m_subgroupid>
wee1_actives_glide_SP


$$$$
