CHEMBL469612_6
                    3D
 Schrodinger Suite 2024-2.
 64 69  0  0  1  0            999 V2000
    0.0986   51.7052   29.2818 C   0  0  0  0  0  0
   -0.2135   52.6337   30.2703 C   0  0  0  0  0  0
    0.3251   53.9169   30.2135 C   0  0  0  0  0  0
    1.1950   54.2712   29.1807 C   0  0  0  0  0  0
    1.5699   53.3161   28.2128 C   0  0  0  0  0  0
    0.9948   52.0401   28.2722 C   0  0  0  0  0  0
    2.5478   53.6008   27.1246 C   0  0  0  0  0  0
    2.1201   53.4906   25.7958 C   0  0  0  0  0  0
    3.0375   53.7583   24.7653 C   0  0  0  0  0  0
    4.3891   54.1074   25.0305 C   0  0  0  0  0  0
    5.0313   54.3241   23.7824 C   0  0  0  0  0  0
    6.3306   54.7182   23.3969 C   0  0  0  0  0  0
    6.6300   54.8968   22.0439 C   0  0  0  0  0  0
    5.6647   54.6421   21.0609 C   0  0  0  0  0  0
    4.3714   54.2440   21.4082 C   0  0  0  0  0  0
    4.0650   54.0975   22.7687 C   0  0  0  0  0  0
    2.8649   53.7805   23.3917 N   0  0  0  0  0  0
    1.5991   53.5731   22.6963 C   0  0  0  0  0  0
    1.6058   52.2655   21.8846 C   0  0  0  0  0  0
    0.5196   52.2793   20.9851 O   0  0  0  0  0  0
    6.0071   54.7616   19.5745 C   0  0  0  0  0  0
    5.5149   56.0738   18.9383 C   0  0  0  0  0  0
    6.1136   56.3052   17.5354 C   0  0  0  0  0  0
    5.4663   57.4634   16.7409 C   0  0  0  0  0  0
    4.0410   57.2611   16.4789 N   0  0  0  0  0  0
    3.1030   58.2597   16.3721 C   0  0  0  0  0  0
    1.8689   57.6987   16.0787 C   0  0  0  0  0  0
    2.0499   56.3200   15.9807 C   0  0  0  0  0  0
    3.3947   56.0728   16.2068 C   0  0  0  0  0  0
    7.8987   55.2976   21.6819 O   0  0  0  0  0  0
    4.7804   54.1915   26.3801 C   0  0  0  0  0  0
    3.8804   53.9391   27.3860 C   0  0  0  0  0  0
    4.6144   54.0919   28.6771 C   0  0  0  0  0  0
    4.2006   53.9391   29.8239 O   0  0  0  0  0  0
    5.8601   54.4641   28.3408 N   0  0  0  0  0  0
    6.0650   54.5549   27.0177 C   0  0  0  0  0  0
    7.1044   54.8977   26.4796 O   0  0  0  0  0  0
    1.7595   55.9097   29.1290 Cl  0  0  0  0  0  0
   -0.3504   50.7250   29.3004 H   0  0  0  0  0  0
   -0.8938   52.3639   31.0661 H   0  0  0  0  0  0
    0.0550   54.6431   30.9680 H   0  0  0  0  0  0
    1.2494   51.2920   27.5349 H   0  0  0  0  0  0
    1.0962   53.2219   25.5851 H   0  0  0  0  0  0
    7.0994   54.9052   24.1250 H   0  0  0  0  0  0
    3.6304   54.0789   20.6395 H   0  0  0  0  0  0
    0.7960   53.5506   23.4321 H   0  0  0  0  0  0
    1.4626   54.4575   22.0818 H   0  0  0  0  0  0
    2.5216   52.1591   21.3024 H   0  0  0  0  0  0
    1.5894   51.3945   22.5418 H   0  0  0  0  0  0
    0.7043   52.9430   20.3109 H   0  0  0  0  0  0
    5.5729   53.9131   19.0429 H   0  0  0  0  0  0
    7.0828   54.6604   19.4290 H   0  0  0  0  0  0
    5.7744   56.9193   19.5769 H   0  0  0  0  0  0
    4.4263   56.0532   18.8817 H   0  0  0  0  0  0
    6.0584   55.3871   16.9492 H   0  0  0  0  0  0
    7.1798   56.5094   17.6412 H   0  0  0  0  0  0
    5.9634   57.6018   15.7803 H   0  0  0  0  0  0
    5.5731   58.3959   17.2990 H   0  0  0  0  0  0
    3.3905   59.2934   16.5176 H   0  0  0  0  0  0
    0.9403   58.2366   15.9525 H   0  0  0  0  0  0
    1.2874   55.5864   15.7604 H   0  0  0  0  0  0
    3.9409   55.1411   16.2033 H   0  0  0  0  0  0
    8.5261   55.2969   22.4195 H   0  0  0  0  0  0
    6.5692   54.7020   29.0201 H   0  0  0  0  0  0
  1  6  2  0  0  0
  1  2  1  0  0  0
  1 39  1  0  0  0
  2  3  2  0  0  0
  2 40  1  0  0  0
  3  4  1  0  0  0
  3 41  1  0  0  0
  4  5  2  0  0  0
  4 38  1  0  0  0
  5  6  1  0  0  0
  5  7  1  0  0  0
  6 42  1  0  0  0
  7 32  2  0  0  0
  7  8  1  0  0  0
  8  9  2  0  0  0
  8 43  1  0  0  0
  9 17  1  0  0  0
  9 10  1  0  0  0
 10 11  1  0  0  0
 10 31  2  0  0  0
 11 16  2  0  0  0
 11 12  1  0  0  0
 12 13  2  0  0  0
 12 44  1  0  0  0
 13 14  1  0  0  0
 13 30  1  0  0  0
 14 15  2  0  0  0
 14 21  1  0  0  0
 15 16  1  0  0  0
 15 45  1  0  0  0
 16 17  1  0  0  0
 17 18  1  0  0  0
 18 19  1  0  0  0
 18 46  1  0  0  0
 18 47  1  0  0  0
 19 20  1  0  0  0
 19 48  1  0  0  0
 19 49  1  0  0  0
 20 50  1  0  0  0
 21 22  1  0  0  0
 21 51  1  0  0  0
 21 52  1  0  0  0
 22 23  1  0  0  0
 22 53  1  0  0  0
 22 54  1  0  0  0
 23 24  1  0  0  0
 23 55  1  0  0  0
 23 56  1  0  0  0
 24 25  1  0  0  0
 24 57  1  0  0  0
 24 58  1  0  0  0
 25 29  1  0  0  0
 25 26  1  0  0  0
 26 27  2  0  0  0
 26 59  1  0  0  0
 27 28  1  0  0  0
 27 60  1  0  0  0
 28 29  2  0  0  0
 28 61  1  0  0  0
 29 62  1  0  0  0
 30 63  1  0  0  0
 31 36  1  0  0  0
 31 32  1  0  0  0
 32 33  1  0  0  0
 33 34  2  0  0  0
 33 35  1  0  0  0
 35 36  1  0  0  0
 35 64  1  0  0  0
 36 37  2  0  0  0
M  END
> <i_i_glide_confnum>
42

> <i_i_glide_lignum>
7

> <i_i_glide_posenum>
267

> <i_i_glide_rotatable_bonds>
10

> <i_m_Source_File_Index>
64

> <b_m_subgroup_collapsed>
0

> <r_i_docking_score>
-11.7081

> <r_i_glide_ecoul>
-16.2344

> <r_i_glide_eff_state_penalty>
0

> <r_i_glide_einternal>
7.7164

> <r_i_glide_emodel>
-121.902

> <r_i_glide_energy>
-72.5699

> <r_i_glide_erotb>
0.362053

> <r_i_glide_esite>
-0.00529904

> <r_i_glide_evdw>
-56.3355

> <r_i_glide_gscore>
-11.7081

> <r_i_glide_hbond>
-0.894292

> <r_i_glide_ligand_efficiency>
-0.308108

> <r_i_glide_ligand_efficiency_ln>
-2.52461

> <r_i_glide_ligand_efficiency_sa>
-1.03585

> <r_i_glide_lipo>
-3.91119

> <r_i_glide_metal>
0

> <r_i_glide_rewards>
-2.00745

> <s_i_glide_gridfile>
wee1_glide-grid

> <s_m_Source_File>
wee1_actives_glide_SP.sdf

> <s_m_Source_Path>
/Users/zhangxujun/Desktop

> <s_m_entry_id>
202

> <s_m_entry_name>
wee1_actives_glide_SP.64

> <s_m_subgroup_title>
wee1_actives_glide_SP

> <s_m_subgroupid>
wee1_actives_glide_SP


$$$$
