CHEMBL472208_2
                    3D
 Schrodinger Suite 2024-2.
 50 55  0  0  1  0            999 V2000
    0.0892   51.8680   29.4471 C   0  0  0  0  0  0
   -0.1452   52.7942   30.4571 C   0  0  0  0  0  0
    0.4171   54.0654   30.3847 C   0  0  0  0  0  0
    1.2524   54.4033   29.3195 C   0  0  0  0  0  0
    1.5667   53.4413   28.3367 C   0  0  0  0  0  0
    0.9511   52.1848   28.4028 C   0  0  0  0  0  0
    2.5332   53.6973   27.2355 C   0  0  0  0  0  0
    2.0849   53.6098   25.9134 C   0  0  0  0  0  0
    2.9969   53.8553   24.8751 C   0  0  0  0  0  0
    4.3616   54.1646   25.1212 C   0  0  0  0  0  0
    4.9951   54.3584   23.8651 C   0  0  0  0  0  0
    6.3038   54.7089   23.4592 C   0  0  0  0  0  0
    6.5682   54.8970   22.1010 C   0  0  0  0  0  0
    5.5806   54.6727   21.1485 C   0  0  0  0  0  0
    4.2916   54.2777   21.4995 C   0  0  0  0  0  0
    4.0030   54.1532   22.8658 C   0  0  0  0  0  0
    2.8024   53.8866   23.5076 N   0  0  0  0  0  0
    1.5199   53.7083   22.8407 C   0  0  0  0  0  0
    1.3656   52.3063   22.2169 C   0  0  0  0  0  0
    0.8689   51.0397   23.4826 S   0  0  2  0  0  0
    0.5818   49.7583   22.6976 O   0  0  0  0  0  0
   -0.7896   51.7473   23.8805 C   0  0  0  0  0  0
   -1.1675   52.0014   25.1089 N   0  0  0  0  0  0
   -2.3630   52.4951   24.9230 C   0  0  0  0  0  0
   -2.7456   52.5751   23.6802 N   0  5  0  0  0  0
   -1.6845   52.0610   22.9759 N   0  0  0  0  0  0
    7.8131   55.2976   21.6820 O   0  0  0  0  0  0
    4.7721   54.2264   26.4654 C   0  0  0  0  0  0
    3.8803   53.9878   27.4812 C   0  0  0  0  0  0
    4.6378   54.0967   28.7624 C   0  0  0  0  0  0
    4.2346   53.9366   29.9123 O   0  0  0  0  0  0
    5.8890   54.4373   28.4114 N   0  0  0  0  0  0
    6.0723   54.5552   27.0871 C   0  0  0  0  0  0
    7.1044   54.8988   26.5353 O   0  0  0  0  0  0
    1.8585   56.0265   29.2532 Cl  0  0  0  0  0  0
   -0.3839   50.8967   29.4840 H   0  0  0  0  0  0
   -0.7966   52.5310   31.2773 H   0  0  0  0  0  0
    0.1971   54.7921   31.1530 H   0  0  0  0  0  0
    1.1492   51.4381   27.6461 H   0  0  0  0  0  0
    1.0521   53.3738   25.7085 H   0  0  0  0  0  0
    7.0911   54.8775   24.1728 H   0  0  0  0  0  0
    5.8180   54.8102   20.1035 H   0  0  0  0  0  0
    3.5373   54.1280   20.7395 H   0  0  0  0  0  0
    1.4704   54.4784   22.0817 H   0  0  0  0  0  0
    0.7052   53.9523   23.5229 H   0  0  0  0  0  0
    2.2765   51.9818   21.7132 H   0  0  0  0  0  0
    0.5904   52.3241   21.4506 H   0  0  0  0  0  0
   -2.9866   52.8204   25.7430 H   0  0  0  0  0  0
    8.4695   55.2998   22.3927 H   0  0  0  0  0  0
    6.6139   54.6533   29.0815 H   0  0  0  0  0  0
  1  6  2  0  0  0
  1  2  1  0  0  0
  1 36  1  0  0  0
  2  3  2  0  0  0
  2 37  1  0  0  0
  3  4  1  0  0  0
  3 38  1  0  0  0
  4  5  2  0  0  0
  4 35  1  0  0  0
  5  6  1  0  0  0
  5  7  1  0  0  0
  6 39  1  0  0  0
  7 29  2  0  0  0
  7  8  1  0  0  0
  8  9  2  0  0  0
  8 40  1  0  0  0
  9 17  1  0  0  0
  9 10  1  0  0  0
 10 11  1  0  0  0
 10 28  2  0  0  0
 11 16  2  0  0  0
 11 12  1  0  0  0
 12 13  2  0  0  0
 12 41  1  0  0  0
 13 14  1  0  0  0
 13 27  1  0  0  0
 14 15  2  0  0  0
 14 42  1  0  0  0
 15 16  1  0  0  0
 15 43  1  0  0  0
 16 17  1  0  0  0
 17 18  1  0  0  0
 18 19  1  0  0  0
 18 44  1  0  0  0
 18 45  1  0  0  0
 19 20  1  0  0  0
 19 46  1  0  0  0
 19 47  1  0  0  0
 20 21  2  0  0  0
 20 22  1  0  0  0
 22 23  1  0  0  0
 22 26  2  0  0  0
 23 24  2  0  0  0
 24 48  1  0  0  0
 24 25  1  0  0  0
 25 26  1  0  0  0
 27 49  1  0  0  0
 28 33  1  0  0  0
 28 29  1  0  0  0
 29 30  1  0  0  0
 30 31  2  0  0  0
 30 32  1  0  0  0
 32 33  1  0  0  0
 32 50  1  0  0  0
 33 34  2  0  0  0
M  CHG  1  25  -1
M  END
> <i_i_glide_confnum>
19

> <i_i_glide_lignum>
3

> <i_i_glide_posenum>
156

> <i_i_glide_rotatable_bonds>
6

> <i_m_Source_File_Index>
39

> <b_m_subgroup_collapsed>
0

> <r_i_docking_score>
-11.4978

> <r_i_glide_ecoul>
-12.953

> <r_i_glide_eff_state_penalty>
0

> <r_i_glide_einternal>
3.24354

> <r_i_glide_emodel>
-119.328

> <r_i_glide_energy>
-69.7036

> <r_i_glide_erotb>
0.320846

> <r_i_glide_esite>
0

> <r_i_glide_evdw>
-56.7505

> <r_i_glide_gscore>
-11.4978

> <r_i_glide_hbond>
-0.887425

> <r_i_glide_ligand_efficiency>
-0.328508

> <r_i_glide_ligand_efficiency_ln>
-2.52401

> <r_i_glide_ligand_efficiency_sa>
-1.07457

> <r_i_glide_lipo>
-3.87261

> <r_i_glide_metal>
0

> <r_i_glide_rewards>
-2.27809

> <s_i_glide_gridfile>
wee1_glide-grid

> <s_m_Source_File>
wee1_actives_glide_SP.sdf

> <s_m_Source_Path>
/Users/zhangxujun/Desktop

> <s_m_entry_id>
177

> <s_m_entry_name>
wee1_actives_glide_SP.39

> <s_m_subgroup_title>
wee1_actives_glide_SP

> <s_m_subgroupid>
wee1_actives_glide_SP


$$$$
