CHEMBL471157_132
                    3D
 Schrodinger Suite 2024-2.
 44 48  0  0  1  0            999 V2000
   -0.2119   52.8970   30.4817 C   0  0  0  0  0  0
    0.3733   54.1511   30.3643 C   0  0  0  0  0  0
    1.2217   54.4282   29.2941 C   0  0  0  0  0  0
    1.5421   53.4193   28.3600 C   0  0  0  0  0  0
    0.8881   52.1729   28.4700 C   0  0  0  0  0  0
    0.0138   51.9255   29.5210 C   0  0  0  0  0  0
    1.1044   50.8967   27.3222 Cl  0  0  0  0  0  0
    2.5256   53.6656   27.2662 C   0  0  0  0  0  0
    2.0843   53.5603   25.9460 C   0  0  0  0  0  0
    2.9952   53.7999   24.9099 C   0  0  0  0  0  0
    4.3496   54.1494   25.1509 C   0  0  0  0  0  0
    4.9699   54.3468   23.8897 C   0  0  0  0  0  0
    6.2659   54.7275   23.4753 C   0  0  0  0  0  0
    6.5229   54.8967   22.1130 C   0  0  0  0  0  0
    5.5361   54.6402   21.1673 C   0  0  0  0  0  0
    4.2587   54.2187   21.5279 C   0  0  0  0  0  0
    3.9808   54.0965   22.8958 C   0  0  0  0  0  0
    2.8013   53.7658   23.5452 N   0  0  0  0  0  0
    1.5376   53.4212   22.9035 C   0  0  0  0  0  0
    1.4164   51.9197   22.5704 C   0  0  0  0  0  0
    2.4260   51.4844   21.6818 O   0  0  0  0  0  0
    7.7622   55.3005   21.6817 O   0  0  0  0  0  0
    4.7609   54.2317   26.4947 C   0  0  0  0  0  0
    3.8682   53.9887   27.5117 C   0  0  0  0  0  0
    4.6164   54.1436   28.7936 C   0  0  0  0  0  0
    4.2057   54.0097   29.9445 O   0  0  0  0  0  0
    5.8663   54.4917   28.4409 N   0  0  0  0  0  0
    6.0617   54.5742   27.1146 C   0  0  0  0  0  0
    7.1044   54.8970   26.5640 O   0  0  0  0  0  0
    1.8109   56.0525   29.1396 Cl  0  0  0  0  0  0
   -0.8953   52.6799   31.2821 H   0  0  0  0  0  0
    0.1474   54.9170   31.0917 H   0  0  0  0  0  0
   -0.4903   50.9712   29.5984 H   0  0  0  0  0  0
    1.0569   53.2975   25.7441 H   0  0  0  0  0  0
    7.0503   54.9234   24.1856 H   0  0  0  0  0  0
    5.7674   54.7660   20.1194 H   0  0  0  0  0  0
    3.5075   54.0358   20.7730 H   0  0  0  0  0  0
    0.7339   53.6757   23.5932 H   0  0  0  0  0  0
    1.3405   54.0908   22.0801 H   0  0  0  0  0  0
    1.5644   51.3378   23.4821 H   0  0  0  0  0  0
    0.4253   51.6739   22.1869 H   0  0  0  0  0  0
    2.2711   51.8634   20.8121 H   0  0  0  0  0  0
    8.4273   55.3088   22.3835 H   0  0  0  0  0  0
    6.5873   54.7254   29.1098 H   0  0  0  0  0  0
  1  6  2  0  0  0
  1  2  1  0  0  0
  1 31  1  0  0  0
  2  3  2  0  0  0
  2 32  1  0  0  0
  3  4  1  0  0  0
  3 30  1  0  0  0
  4  5  2  0  0  0
  4  8  1  0  0  0
  5  6  1  0  0  0
  5  7  1  0  0  0
  6 33  1  0  0  0
  8 24  2  0  0  0
  8  9  1  0  0  0
  9 10  2  0  0  0
  9 34  1  0  0  0
 10 18  1  0  0  0
 10 11  1  0  0  0
 11 12  1  0  0  0
 11 23  2  0  0  0
 12 17  2  0  0  0
 12 13  1  0  0  0
 13 14  2  0  0  0
 13 35  1  0  0  0
 14 15  1  0  0  0
 14 22  1  0  0  0
 15 16  2  0  0  0
 15 36  1  0  0  0
 16 17  1  0  0  0
 16 37  1  0  0  0
 17 18  1  0  0  0
 18 19  1  0  0  0
 19 20  1  0  0  0
 19 38  1  0  0  0
 19 39  1  0  0  0
 20 21  1  0  0  0
 20 40  1  0  0  0
 20 41  1  0  0  0
 21 42  1  0  0  0
 22 43  1  0  0  0
 23 28  1  0  0  0
 23 24  1  0  0  0
 24 25  1  0  0  0
 25 26  2  0  0  0
 25 27  1  0  0  0
 27 28  1  0  0  0
 27 44  1  0  0  0
 28 29  2  0  0  0
M  END
> <i_i_glide_confnum>
7

> <i_i_glide_lignum>
133

> <i_i_glide_posenum>
229

> <i_i_glide_rotatable_bonds>
5

> <i_m_Source_File_Index>
93

> <b_m_subgroup_collapsed>
0

> <r_i_docking_score>
-11.6078

> <r_i_glide_ecoul>
-13.4191

> <r_i_glide_eff_state_penalty>
0

> <r_i_glide_einternal>
2.06604

> <r_i_glide_emodel>
-105.186

> <r_i_glide_energy>
-63.0345

> <r_i_glide_erotb>
0.307738

> <r_i_glide_esite>
0

> <r_i_glide_evdw>
-49.6153

> <r_i_glide_gscore>
-11.6078

> <r_i_glide_hbond>
-0.928648

> <r_i_glide_ligand_efficiency>
-0.386925

> <r_i_glide_ligand_efficiency_ln>
-2.63741

> <r_i_glide_ligand_efficiency_sa>
-1.20227

> <r_i_glide_lipo>
-3.91537

> <r_i_glide_metal>
0

> <r_i_glide_rewards>
-2.57784

> <s_i_glide_gridfile>
wee1_glide-grid

> <s_m_Source_File>
wee1_actives_glide_SP.sdf

> <s_m_Source_Path>
/Users/zhangxujun/Desktop

> <s_m_entry_id>
231

> <s_m_entry_name>
wee1_actives_glide_SP.93

> <s_m_subgroup_title>
wee1_actives_glide_SP

> <s_m_subgroupid>
wee1_actives_glide_SP


$$$$
