CHEMBL518903_93
                    3D
 Schrodinger Suite 2024-2.
 57 62  0  0  1  0            999 V2000
    0.0650   51.8716   29.4268 C   0  0  0  0  0  0
   -0.2079   52.8147   30.4112 C   0  0  0  0  0  0
    0.3529   54.0856   30.3305 C   0  0  0  0  0  0
    1.2101   54.4142   29.2782 C   0  0  0  0  0  0
    1.5457   53.4434   28.3095 C   0  0  0  0  0  0
    0.9464   52.1788   28.3939 C   0  0  0  0  0  0
    2.5131   53.6967   27.2020 C   0  0  0  0  0  0
    2.0700   53.5681   25.8769 C   0  0  0  0  0  0
    2.9835   53.8087   24.8411 C   0  0  0  0  0  0
    4.3372   54.1692   25.0850 C   0  0  0  0  0  0
    4.9610   54.3629   23.8252 C   0  0  0  0  0  0
    6.2499   54.7547   23.4126 C   0  0  0  0  0  0
    6.5218   54.8970   22.0506 C   0  0  0  0  0  0
    5.5434   54.5997   21.0861 C   0  0  0  0  0  0
    4.2699   54.1658   21.4678 C   0  0  0  0  0  0
    3.9878   54.0855   22.8316 C   0  0  0  0  0  0
    2.8147   53.7553   23.4744 N   0  0  0  0  0  0
    1.9533   53.5184   23.0044 H   0  0  0  0  0  0
    5.8406   54.6957   19.5861 C   0  0  0  0  0  0
    4.9534   55.7221   18.8452 C   0  0  0  0  0  0
    5.1529   55.7517   17.3102 C   0  0  0  0  0  0
    6.1787   56.7776   16.7769 C   0  0  0  0  0  0
    7.5124   56.5788   17.3293 N   0  0  0  0  0  0
    8.3282   55.4865   17.1244 C   0  0  0  0  0  0
    9.5030   55.6613   17.8396 C   0  0  0  0  0  0
    9.4155   56.8992   18.4820 C   0  0  0  0  0  0
    8.1860   57.4500   18.1546 C   0  0  0  0  0  0
    7.7839   55.2995   21.6816 O   0  0  0  0  0  0
    4.7499   54.2553   26.4262 C   0  0  0  0  0  0
    3.8584   54.0169   27.4435 C   0  0  0  0  0  0
    4.6163   54.1537   28.7225 C   0  0  0  0  0  0
    4.2145   54.0101   29.8753 O   0  0  0  0  0  0
    5.8666   54.4967   28.3683 N   0  0  0  0  0  0
    6.0578   54.5849   27.0420 C   0  0  0  0  0  0
    7.1044   54.8965   26.4894 O   0  0  0  0  0  0
    1.8109   56.0382   29.2101 Cl  0  0  0  0  0  0
   -0.3988   50.8965   29.4737 H   0  0  0  0  0  0
   -0.8847   52.5648   31.2201 H   0  0  0  0  0  0
    0.1126   54.8242   31.0817 H   0  0  0  0  0  0
    1.1705   51.4178   27.6598 H   0  0  0  0  0  0
    1.0460   53.2961   25.6632 H   0  0  0  0  0  0
    7.0242   54.9770   24.1261 H   0  0  0  0  0  0
    3.5186   53.9305   20.7268 H   0  0  0  0  0  0
    5.6899   53.7053   19.1530 H   0  0  0  0  0  0
    6.8901   54.9229   19.4190 H   0  0  0  0  0  0
    5.1048   56.7197   19.2605 H   0  0  0  0  0  0
    3.9065   55.4779   19.0293 H   0  0  0  0  0  0
    4.1945   55.9924   16.8482 H   0  0  0  0  0  0
    5.3948   54.7523   16.9422 H   0  0  0  0  0  0
    5.8575   57.7938   17.0179 H   0  0  0  0  0  0
    6.2556   56.7210   15.6899 H   0  0  0  0  0  0
    7.9922   54.6706   16.5013 H   0  0  0  0  0  0
   10.3335   54.9704   17.8975 H   0  0  0  0  0  0
   10.1659   57.3358   19.1269 H   0  0  0  0  0  0
    7.7297   58.3879   18.4385 H   0  0  0  0  0  0
    8.4205   55.3024   22.4087 H   0  0  0  0  0  0
    6.5919   54.7153   29.0388 H   0  0  0  0  0  0
  1  6  2  0  0  0
  1  2  1  0  0  0
  1 37  1  0  0  0
  2  3  2  0  0  0
  2 38  1  0  0  0
  3  4  1  0  0  0
  3 39  1  0  0  0
  4  5  2  0  0  0
  4 36  1  0  0  0
  5  6  1  0  0  0
  5  7  1  0  0  0
  6 40  1  0  0  0
  7 30  2  0  0  0
  7  8  1  0  0  0
  8  9  2  0  0  0
  8 41  1  0  0  0
  9 17  1  0  0  0
  9 10  1  0  0  0
 10 11  1  0  0  0
 10 29  2  0  0  0
 11 16  2  0  0  0
 11 12  1  0  0  0
 12 13  2  0  0  0
 12 42  1  0  0  0
 13 14  1  0  0  0
 13 28  1  0  0  0
 14 15  2  0  0  0
 14 19  1  0  0  0
 15 16  1  0  0  0
 15 43  1  0  0  0
 16 17  1  0  0  0
 17 18  1  0  0  0
 19 20  1  0  0  0
 19 44  1  0  0  0
 19 45  1  0  0  0
 20 21  1  0  0  0
 20 46  1  0  0  0
 20 47  1  0  0  0
 21 22  1  0  0  0
 21 48  1  0  0  0
 21 49  1  0  0  0
 22 23  1  0  0  0
 22 50  1  0  0  0
 22 51  1  0  0  0
 23 27  1  0  0  0
 23 24  1  0  0  0
 24 25  2  0  0  0
 24 52  1  0  0  0
 25 26  1  0  0  0
 25 53  1  0  0  0
 26 27  2  0  0  0
 26 54  1  0  0  0
 27 55  1  0  0  0
 28 56  1  0  0  0
 29 34  1  0  0  0
 29 30  1  0  0  0
 30 31  1  0  0  0
 31 32  2  0  0  0
 31 33  1  0  0  0
 33 34  1  0  0  0
 33 57  1  0  0  0
 34 35  2  0  0  0
M  END
> <i_i_glide_confnum>
278

> <i_i_glide_lignum>
94

> <i_i_glide_posenum>
151

> <i_i_glide_rotatable_bonds>
7

> <i_m_Source_File_Index>
76

> <b_m_subgroup_collapsed>
0

> <r_i_docking_score>
-10.9623

> <r_i_glide_ecoul>
-13.9451

> <r_i_glide_eff_state_penalty>
0

> <r_i_glide_einternal>
3.71927

> <r_i_glide_emodel>
-112.748

> <r_i_glide_energy>
-67.492

> <r_i_glide_erotb>
0.303435

> <r_i_glide_esite>
0

> <r_i_glide_evdw>
-53.5469

> <r_i_glide_gscore>
-10.9623

> <r_i_glide_hbond>
-0.894898

> <r_i_glide_ligand_efficiency>
-0.313208

> <r_i_glide_ligand_efficiency_ln>
-2.40647

> <r_i_glide_ligand_efficiency_sa>
-1.02453

> <r_i_glide_lipo>
-3.80063

> <r_i_glide_metal>
0

> <r_i_glide_rewards>
-1.80109

> <s_i_glide_gridfile>
wee1_glide-grid

> <s_m_Source_File>
wee1_actives_glide_SP.sdf

> <s_m_Source_Path>
/Users/zhangxujun/Desktop

> <s_m_entry_id>
214

> <s_m_entry_name>
wee1_actives_glide_SP.76

> <s_m_subgroup_title>
wee1_actives_glide_SP

> <s_m_subgroupid>
wee1_actives_glide_SP


$$$$
