CHEMBL508412_49
                    3D
 Schrodinger Suite 2024-2.
 64 69  0  0  1  0            999 V2000
    1.0385   52.9755   15.8187 C   0  0  0  0  0  0
    1.3428   52.2678   17.0600 N   0  0  0  0  0  0
    0.3873   52.6299   18.1104 C   0  0  0  0  0  0
    0.6598   51.8206   19.3958 C   0  0  0  0  0  0
    2.1045   52.0964   19.8732 N   0  3  0  0  0  0
    3.1044   51.7512   18.7424 C   0  0  0  0  0  0
    2.7338   52.5214   17.4576 C   0  0  0  0  0  0
    2.4769   51.3315   21.1706 C   0  0  0  0  0  0
    1.6130   51.7838   22.3696 C   0  0  0  0  0  0
    1.6522   53.2992   22.6771 C   0  0  0  0  0  0
    2.8857   53.6971   23.3548 N   0  0  0  0  0  0
    4.0686   54.0948   22.7433 C   0  0  0  0  0  0
    4.3813   54.2889   21.3900 C   0  0  0  0  0  0
    5.6745   54.7053   21.0784 C   0  0  0  0  0  0
    6.6420   54.8988   22.0581 C   0  0  0  0  0  0
    6.3390   54.6943   23.4027 C   0  0  0  0  0  0
    5.0322   54.3108   23.7684 C   0  0  0  0  0  0
    4.3845   54.0971   25.0087 C   0  0  0  0  0  0
    3.0428   53.7187   24.7320 C   0  0  0  0  0  0
    2.1190   53.4511   25.7569 C   0  0  0  0  0  0
    2.5302   53.6060   27.0871 C   0  0  0  0  0  0
    3.8608   53.9506   27.3582 C   0  0  0  0  0  0
    4.7703   54.1927   26.3594 C   0  0  0  0  0  0
    6.0526   54.5631   27.0066 C   0  0  0  0  0  0
    7.1044   54.8967   26.4813 O   0  0  0  0  0  0
    5.8306   54.4902   28.3283 N   0  0  0  0  0  0
    4.5794   54.1260   28.6561 C   0  0  0  0  0  0
    4.1511   53.9912   29.8004 O   0  0  0  0  0  0
    1.5416   53.3790   28.1754 C   0  0  0  0  0  0
    0.9672   52.1093   28.3108 C   0  0  0  0  0  0
    0.0781   51.8381   29.3459 C   0  0  0  0  0  0
   -0.2187   52.8174   30.2861 C   0  0  0  0  0  0
    0.3098   54.0970   30.1444 C   0  0  0  0  0  0
    1.1634   54.3923   29.0801 C   0  0  0  0  0  0
    1.7057   56.0295   28.9023 Cl  0  0  0  0  0  0
    7.9022   55.2970   21.6817 O   0  0  0  0  0  0
    0.0239   52.7530   15.4840 H   0  0  0  0  0  0
    1.7151   52.6624   15.0216 H   0  0  0  0  0  0
    1.1291   54.0570   15.9345 H   0  0  0  0  0  0
    0.4967   53.6963   18.3218 H   0  0  0  0  0  0
   -0.6342   52.4403   17.7766 H   0  0  0  0  0  0
    0.5509   50.7435   19.2537 H   0  0  0  0  0  0
   -0.0079   52.1710   20.1818 H   0  0  0  0  0  0
    3.1043   50.6685   18.5932 H   0  0  0  0  0  0
    4.0855   52.0846   19.0877 H   0  0  0  0  0  0
    3.4272   52.2354   16.6639 H   0  0  0  0  0  0
    2.8335   53.5917   17.6499 H   0  0  0  0  0  0
    2.3604   50.2678   20.9515 H   0  0  0  0  0  0
    3.5338   51.5380   21.3480 H   0  0  0  0  0  0
    0.5805   51.4739   22.2129 H   0  0  0  0  0  0
    1.9245   51.2276   23.2559 H   0  0  0  0  0  0
    1.5501   53.8876   21.7726 H   0  0  0  0  0  0
    0.8031   53.5862   23.2982 H   0  0  0  0  0  0
    3.6519   54.1605   20.6065 H   0  0  0  0  0  0
    5.9355   54.8765   20.0438 H   0  0  0  0  0  0
    7.1077   54.8586   24.1367 H   0  0  0  0  0  0
    1.1001   53.1690   25.5373 H   0  0  0  0  0  0
    6.5352   54.7344   29.0113 H   0  0  0  0  0  0
    1.2162   51.3194   27.6161 H   0  0  0  0  0  0
   -0.3743   50.8638   29.4317 H   0  0  0  0  0  0
   -0.8881   52.5889   31.1057 H   0  0  0  0  0  0
    0.0439   54.8663   30.8541 H   0  0  0  0  0  0
    8.5403   55.2984   22.4104 H   0  0  0  0  0  0
    2.1767   53.0916   20.0451 H   0  0  0  0  0  0
  1  2  1  0  0  0
  1 37  1  0  0  0
  1 38  1  0  0  0
  1 39  1  0  0  0
  2  7  1  0  0  0
  2  3  1  0  0  0
  3  4  1  0  0  0
  3 40  1  0  0  0
  3 41  1  0  0  0
  4  5  1  0  0  0
  4 42  1  0  0  0
  4 43  1  0  0  0
  5  6  1  0  0  0
  5  8  1  0  0  0
  5 64  1  0  0  0
  6  7  1  0  0  0
  6 44  1  0  0  0
  6 45  1  0  0  0
  7 46  1  0  0  0
  7 47  1  0  0  0
  8  9  1  0  0  0
  8 48  1  0  0  0
  8 49  1  0  0  0
  9 10  1  0  0  0
  9 50  1  0  0  0
  9 51  1  0  0  0
 10 11  1  0  0  0
 10 52  1  0  0  0
 10 53  1  0  0  0
 11 19  1  0  0  0
 11 12  1  0  0  0
 12 17  2  0  0  0
 12 13  1  0  0  0
 13 14  2  0  0  0
 13 54  1  0  0  0
 14 15  1  0  0  0
 14 55  1  0  0  0
 15 16  2  0  0  0
 15 36  1  0  0  0
 16 17  1  0  0  0
 16 56  1  0  0  0
 17 18  1  0  0  0
 18 23  2  0  0  0
 18 19  1  0  0  0
 19 20  2  0  0  0
 20 21  1  0  0  0
 20 57  1  0  0  0
 21 22  2  0  0  0
 21 29  1  0  0  0
 22 27  1  0  0  0
 22 23  1  0  0  0
 23 24  1  0  0  0
 24 25  2  0  0  0
 24 26  1  0  0  0
 26 27  1  0  0  0
 26 58  1  0  0  0
 27 28  2  0  0  0
 29 34  2  0  0  0
 29 30  1  0  0  0
 30 31  2  0  0  0
 30 59  1  0  0  0
 31 32  1  0  0  0
 31 60  1  0  0  0
 32 33  2  0  0  0
 32 61  1  0  0  0
 33 34  1  0  0  0
 33 62  1  0  0  0
 34 35  1  0  0  0
 36 63  1  0  0  0
M  CHG  1   5   1
M  END
> <i_i_glide_confnum>
128

> <i_i_glide_lignum>
50

> <i_i_glide_posenum>
333

> <i_i_glide_rotatable_bonds>
6

> <i_m_Source_File_Index>
49

> <b_m_subgroup_collapsed>
0

> <r_i_docking_score>
-11.3115

> <r_i_glide_ecoul>
-15.4281

> <r_i_glide_eff_state_penalty>
0

> <r_i_glide_einternal>
2.78889

> <r_i_glide_emodel>
-116.646

> <r_i_glide_energy>
-66.7439

> <r_i_glide_erotb>
0.281687

> <r_i_glide_esite>
-0.0231763

> <r_i_glide_evdw>
-51.3158

> <r_i_glide_gscore>
-11.3115

> <r_i_glide_hbond>
-0.884242

> <r_i_glide_ligand_efficiency>
-0.314207

> <r_i_glide_ligand_efficiency_ln>
-2.46785

> <r_i_glide_ligand_efficiency_sa>
-1.03749

> <r_i_glide_lipo>
-3.817

> <r_i_glide_metal>
0

> <r_i_glide_rewards>
-1.98872

> <s_i_glide_gridfile>
wee1_glide-grid

> <s_m_Source_File>
wee1_actives_glide_SP.sdf

> <s_m_Source_Path>
/Users/zhangxujun/Desktop

> <s_m_entry_id>
187

> <s_m_entry_name>
wee1_actives_glide_SP.49

> <s_m_subgroup_title>
wee1_actives_glide_SP

> <s_m_subgroupid>
wee1_actives_glide_SP


$$$$
