CHEMBL472209_94
                    3D
 Schrodinger Suite 2024-2.
 51 56  0  0  1  0            999 V2000
    0.1030   51.8694   29.4279 C   0  0  0  0  0  0
   -0.1180   52.7834   30.4516 C   0  0  0  0  0  0
    0.4380   54.0570   30.3840 C   0  0  0  0  0  0
    1.2568   54.4092   29.3110 C   0  0  0  0  0  0
    1.5610   53.4581   28.3118 C   0  0  0  0  0  0
    0.9485   52.1995   28.3746 C   0  0  0  0  0  0
    2.5202   53.7172   27.2028 C   0  0  0  0  0  0
    2.0745   53.5970   25.8792 C   0  0  0  0  0  0
    2.9885   53.8268   24.8365 C   0  0  0  0  0  0
    4.3431   54.1722   25.0838 C   0  0  0  0  0  0
    4.9738   54.3578   23.8294 C   0  0  0  0  0  0
    6.2749   54.7370   23.4353 C   0  0  0  0  0  0
    6.5564   54.8967   22.0806 C   0  0  0  0  0  0
    5.5885   54.6279   21.1180 C   0  0  0  0  0  0
    4.3056   54.2015   21.4580 C   0  0  0  0  0  0
    4.0000   54.0966   22.8231 C   0  0  0  0  0  0
    2.8100   53.7763   23.4624 N   0  0  0  0  0  0
    1.5448   53.4452   22.8117 C   0  0  0  0  0  0
    1.1820   51.9594   23.0063 C   0  0  0  0  0  0
   -0.6888   51.7589   23.0923 S   0  0  0  0  0  0
   -1.2378   51.8280   21.7326 O   0  0  0  0  0  0
   -1.2045   52.6300   24.1555 O   0  0  0  0  0  0
   -0.8391   50.0470   23.6688 C   0  0  0  0  0  0
   -0.7892   49.7402   24.9400 N   0  0  0  0  0  0
   -0.8902   48.4383   24.8812 C   0  0  0  0  0  0
   -0.9843   47.9373   23.6792 N   0  5  0  0  0  0
   -0.9424   49.0339   22.8500 N   0  0  0  0  0  0
    7.8065   55.2984   21.6817 O   0  0  0  0  0  0
    4.7554   54.2583   26.4266 C   0  0  0  0  0  0
    3.8655   54.0246   27.4449 C   0  0  0  0  0  0
    4.6275   54.1448   28.7243 C   0  0  0  0  0  0
    4.2326   53.9849   29.8769 O   0  0  0  0  0  0
    5.8758   54.4894   28.3690 N   0  0  0  0  0  0
    6.0615   54.5831   27.0439 C   0  0  0  0  0  0
    7.1044   54.8970   26.4928 O   0  0  0  0  0  0
    1.8583   56.0348   29.2679 Cl  0  0  0  0  0  0
   -0.3670   50.8969   29.4616 H   0  0  0  0  0  0
   -0.7523   52.5078   31.2801 H   0  0  0  0  0  0
    0.2282   54.7736   31.1648 H   0  0  0  0  0  0
    1.1390   51.4589   27.6099 H   0  0  0  0  0  0
    1.0468   53.3309   25.6733 H   0  0  0  0  0  0
    7.0484   54.9429   24.1531 H   0  0  0  0  0  0
    5.8406   54.7447   20.0738 H   0  0  0  0  0  0
    3.5735   54.0066   20.6869 H   0  0  0  0  0  0
    1.5766   53.6966   21.7536 H   0  0  0  0  0  0
    0.7938   54.0968   23.2607 H   0  0  0  0  0  0
    1.5602   51.5463   23.9410 H   0  0  0  0  0  0
    1.5513   51.3222   22.2034 H   0  0  0  0  0  0
   -0.8934   47.8238   25.7715 H   0  0  0  0  0  0
    8.4531   55.3082   22.4010 H   0  0  0  0  0  0
    6.6029   54.7074   29.0363 H   0  0  0  0  0  0
  1  6  2  0  0  0
  1  2  1  0  0  0
  1 37  1  0  0  0
  2  3  2  0  0  0
  2 38  1  0  0  0
  3  4  1  0  0  0
  3 39  1  0  0  0
  4  5  2  0  0  0
  4 36  1  0  0  0
  5  6  1  0  0  0
  5  7  1  0  0  0
  6 40  1  0  0  0
  7 30  2  0  0  0
  7  8  1  0  0  0
  8  9  2  0  0  0
  8 41  1  0  0  0
  9 17  1  0  0  0
  9 10  1  0  0  0
 10 11  1  0  0  0
 10 29  2  0  0  0
 11 16  2  0  0  0
 11 12  1  0  0  0
 12 13  2  0  0  0
 12 42  1  0  0  0
 13 14  1  0  0  0
 13 28  1  0  0  0
 14 15  2  0  0  0
 14 43  1  0  0  0
 15 16  1  0  0  0
 15 44  1  0  0  0
 16 17  1  0  0  0
 17 18  1  0  0  0
 18 19  1  0  0  0
 18 45  1  0  0  0
 18 46  1  0  0  0
 19 20  1  0  0  0
 19 47  1  0  0  0
 19 48  1  0  0  0
 20 21  2  0  0  0
 20 22  2  0  0  0
 20 23  1  0  0  0
 23 24  1  0  0  0
 23 27  2  0  0  0
 24 25  2  0  0  0
 25 49  1  0  0  0
 25 26  1  0  0  0
 26 27  1  0  0  0
 28 50  1  0  0  0
 29 34  1  0  0  0
 29 30  1  0  0  0
 30 31  1  0  0  0
 31 32  2  0  0  0
 31 33  1  0  0  0
 33 34  1  0  0  0
 33 51  1  0  0  0
 34 35  2  0  0  0
M  CHG  1  26  -1
M  END
> <i_i_glide_confnum>
42

> <i_i_glide_lignum>
95

> <i_i_glide_posenum>
383

> <i_i_glide_rotatable_bonds>
6

> <i_m_Source_File_Index>
106

> <b_m_subgroup_collapsed>
0

> <r_i_docking_score>
-12.0348

> <r_i_glide_ecoul>
-16.1836

> <r_i_glide_eff_state_penalty>
0

> <r_i_glide_einternal>
4.07199

> <r_i_glide_emodel>
-125.885

> <r_i_glide_energy>
-73.9832

> <r_i_glide_erotb>
0.212085

> <r_i_glide_esite>
-0.0979014

> <r_i_glide_evdw>
-57.7996

> <r_i_glide_gscore>
-12.0348

> <r_i_glide_hbond>
-0.886445

> <r_i_glide_ligand_efficiency>
-0.334301

> <r_i_glide_ligand_efficiency_ln>
-2.62567

> <r_i_glide_ligand_efficiency_sa>
-1.10384

> <r_i_glide_lipo>
-3.90416

> <r_i_glide_metal>
0

> <r_i_glide_rewards>
-2.04089

> <s_i_glide_gridfile>
wee1_glide-grid

> <s_m_Source_File>
wee1_actives_glide_SP.sdf

> <s_m_Source_Path>
/Users/zhangxujun/Desktop

> <s_m_entry_id>
244

> <s_m_entry_name>
wee1_actives_glide_SP.106

> <s_m_subgroup_title>
wee1_actives_glide_SP

> <s_m_subgroupid>
wee1_actives_glide_SP


$$$$
