CHEMBL513079_91
                    3D
 Schrodinger Suite 2024-2.
 50 55  0  0  1  0            999 V2000
    0.0868   51.8677   29.4852 C   0  0  0  0  0  0
   -0.1743   52.8035   30.4784 C   0  0  0  0  0  0
    0.3863   54.0755   30.4082 C   0  0  0  0  0  0
    1.2398   54.4078   29.3560 C   0  0  0  0  0  0
    1.5744   53.4386   28.3868 C   0  0  0  0  0  0
    0.9694   52.1772   28.4567 C   0  0  0  0  0  0
    2.5346   53.6968   27.2821 C   0  0  0  0  0  0
    2.0766   53.5864   25.9654 C   0  0  0  0  0  0
    2.9730   53.8495   24.9187 C   0  0  0  0  0  0
    4.3328   54.1797   25.1486 C   0  0  0  0  0  0
    4.9446   54.3690   23.8837 C   0  0  0  0  0  0
    6.2435   54.7300   23.4659 C   0  0  0  0  0  0
    6.4990   54.8967   22.1052 C   0  0  0  0  0  0
    5.5099   54.6405   21.1604 C   0  0  0  0  0  0
    4.2274   54.2349   21.5243 C   0  0  0  0  0  0
    3.9463   54.1369   22.8937 C   0  0  0  0  0  0
    2.7579   53.8673   23.5539 N   0  0  0  0  0  0
    1.4617   53.6090   22.9409 C   0  0  0  0  0  0
    1.1836   52.1021   22.8450 C   0  0  0  0  0  0
   -0.5800   51.6719   23.0150 S   0  0  0  0  0  0
   -0.4268   50.4937   24.3172 C   0  0  0  0  0  0
    0.4990   49.5434   24.2919 N   0  0  0  0  0  0
   -1.1271   49.1650   26.9845 H   0  0  0  0  0  0
    0.3044   48.9234   25.4202 C   0  0  0  0  0  0
   -0.7482   49.4784   26.0816 N   0  0  0  0  0  0
   -1.2290   50.4979   25.3668 N   0  0  0  0  0  0
    7.7419   55.2967   21.6817 O   0  0  0  0  0  0
    4.7593   54.2532   26.4876 C   0  0  0  0  0  0
    3.8786   54.0154   27.5140 C   0  0  0  0  0  0
    4.6431   54.1581   28.7876 C   0  0  0  0  0  0
    4.2477   54.0205   29.9430 O   0  0  0  0  0  0
    5.8908   54.4967   28.4214 N   0  0  0  0  0  0
    6.0686   54.5817   27.0935 C   0  0  0  0  0  0
    7.1044   54.8967   26.5294 O   0  0  0  0  0  0
    1.8319   56.0355   29.2817 Cl  0  0  0  0  0  0
   -0.3851   50.8967   29.5241 H   0  0  0  0  0  0
   -0.8474   52.5463   31.2817 H   0  0  0  0  0  0
    0.1464   54.8086   31.1645 H   0  0  0  0  0  0
    1.1867   51.4254   27.7104 H   0  0  0  0  0  0
    1.0475   53.3224   25.7683 H   0  0  0  0  0  0
    7.0329   54.9187   24.1717 H   0  0  0  0  0  0
    5.7427   54.7590   20.1119 H   0  0  0  0  0  0
    3.4754   54.0578   20.7690 H   0  0  0  0  0  0
    1.4036   54.0967   21.9764 H   0  0  0  0  0  0
    0.7174   54.0972   23.5719 H   0  0  0  0  0  0
    1.8358   51.5370   23.5123 H   0  0  0  0  0  0
    1.4841   51.7667   21.8516 H   0  0  0  0  0  0
    0.8630   48.0967   25.8258 H   0  0  0  0  0  0
    8.4045   55.3072   22.3857 H   0  0  0  0  0  0
    6.6210   54.7234   29.0828 H   0  0  0  0  0  0
  1  6  2  0  0  0
  1  2  1  0  0  0
  1 36  1  0  0  0
  2  3  2  0  0  0
  2 37  1  0  0  0
  3  4  1  0  0  0
  3 38  1  0  0  0
  4  5  2  0  0  0
  4 35  1  0  0  0
  5  6  1  0  0  0
  5  7  1  0  0  0
  6 39  1  0  0  0
  7 29  2  0  0  0
  7  8  1  0  0  0
  8  9  2  0  0  0
  8 40  1  0  0  0
  9 17  1  0  0  0
  9 10  1  0  0  0
 10 11  1  0  0  0
 10 28  2  0  0  0
 11 16  2  0  0  0
 11 12  1  0  0  0
 12 13  2  0  0  0
 12 41  1  0  0  0
 13 14  1  0  0  0
 13 27  1  0  0  0
 14 15  2  0  0  0
 14 42  1  0  0  0
 15 16  1  0  0  0
 15 43  1  0  0  0
 16 17  1  0  0  0
 17 18  1  0  0  0
 18 19  1  0  0  0
 18 44  1  0  0  0
 18 45  1  0  0  0
 19 46  1  0  0  0
 19 47  1  0  0  0
 19 20  1  0  0  0
 20 21  1  0  0  0
 21 22  1  0  0  0
 21 26  2  0  0  0
 22 24  2  0  0  0
 23 25  1  0  0  0
 24 48  1  0  0  0
 24 25  1  0  0  0
 25 26  1  0  0  0
 27 49  1  0  0  0
 28 33  1  0  0  0
 28 29  1  0  0  0
 29 30  1  0  0  0
 30 31  2  0  0  0
 30 32  1  0  0  0
 32 33  1  0  0  0
 32 50  1  0  0  0
 33 34  2  0  0  0
M  END
> <i_i_glide_confnum>
50

> <i_i_glide_lignum>
92

> <i_i_glide_posenum>
366

> <i_i_glide_rotatable_bonds>
6

> <i_m_Source_File_Index>
133

> <b_m_subgroup_collapsed>
0

> <r_i_docking_score>
-13.0472

> <r_i_glide_ecoul>
-20.7064

> <r_i_glide_eff_state_penalty>
0

> <r_i_glide_einternal>
8.1944

> <r_i_glide_emodel>
-131.047

> <r_i_glide_energy>
-74.9413

> <r_i_glide_erotb>
0.339066

> <r_i_glide_esite>
-0.173619

> <r_i_glide_evdw>
-54.2349

> <r_i_glide_gscore>
-13.0472

> <r_i_glide_hbond>
-1.19209

> <r_i_glide_ligand_efficiency>
-0.383742

> <r_i_glide_ligand_efficiency_ln>
-2.8825

> <r_i_glide_ligand_efficiency_sa>
-1.24318

> <r_i_glide_lipo>
-3.94708

> <r_i_glide_metal>
0

> <r_i_glide_rewards>
-2.25581

> <s_i_glide_gridfile>
wee1_glide-grid

> <s_m_Source_File>
wee1_actives_glide_SP.sdf

> <s_m_Source_Path>
/Users/zhangxujun/Desktop

> <s_m_entry_id>
271

> <s_m_entry_name>
wee1_actives_glide_SP.133

> <s_m_subgroup_title>
wee1_actives_glide_SP

> <s_m_subgroupid>
wee1_actives_glide_SP


$$$$
