CHEMBL515352_9
                    3D
 Schrodinger Suite 2024-2.
 59 64  0  0  1  0            999 V2000
   -3.5544   46.4013   24.4735 C   0  0  0  0  0  0
   -2.7909   46.9056   25.5254 C   0  0  0  0  0  0
   -1.7495   47.7895   25.2608 C   0  0  0  0  0  0
   -1.4675   48.1566   23.9421 C   0  0  0  0  0  0
   -2.2292   47.6393   22.8894 C   0  0  0  0  0  0
   -3.2718   46.7558   23.1549 C   0  0  0  0  0  0
   -0.1703   49.3501   23.5958 S   0  0  0  0  0  0
    0.7042   49.3327   24.7730 O   0  0  0  0  0  0
    0.3901   48.9148   22.3102 O   0  0  0  0  0  0
   -1.0482   50.6430   23.4872 N   0  5  0  0  0  0
   -0.5229   51.8286   23.3089 C   0  0  0  0  0  0
   -1.2387   52.8294   23.2824 O   0  0  0  0  0  0
    1.0068   52.0349   23.1271 C   0  0  0  0  0  0
    1.4663   53.5012   22.8805 C   0  0  0  0  0  0
    2.7581   53.7848   23.5103 N   0  0  0  0  0  0
    3.9426   54.0967   22.8570 C   0  0  0  0  0  0
    4.2346   54.2046   21.4884 C   0  0  0  0  0  0
    5.5137   54.6308   21.1352 C   0  0  0  0  0  0
    6.4937   54.8958   22.0875 C   0  0  0  0  0  0
    6.2280   54.7269   23.4445 C   0  0  0  0  0  0
    4.9318   54.3487   23.8518 C   0  0  0  0  0  0
    4.3222   54.1590   25.1133 C   0  0  0  0  0  0
    2.9620   53.8200   24.8804 C   0  0  0  0  0  0
    2.0628   53.5884   25.9320 C   0  0  0  0  0  0
    2.5242   53.7037   27.2491 C   0  0  0  0  0  0
    3.8707   54.0165   27.4781 C   0  0  0  0  0  0
    4.7520   54.2470   26.4512 C   0  0  0  0  0  0
    6.0631   54.5813   27.0581 C   0  0  0  0  0  0
    7.1044   54.8949   26.5003 O   0  0  0  0  0  0
    5.8841   54.4965   28.3863 N   0  0  0  0  0  0
    4.6360   54.1554   28.7509 C   0  0  0  0  0  0
    4.2375   54.0164   29.9058 O   0  0  0  0  0  0
    1.5682   53.4452   28.3609 C   0  0  0  0  0  0
    0.9639   52.1826   28.4332 C   0  0  0  0  0  0
    0.0912   51.8680   29.4683 C   0  0  0  0  0  0
   -0.1589   52.8001   30.4693 C   0  0  0  0  0  0
    0.3972   54.0734   30.3961 C   0  0  0  0  0  0
    1.2401   54.4103   29.3377 C   0  0  0  0  0  0
    1.8319   56.0394   29.2721 Cl  0  0  0  0  0  0
    7.7397   55.3001   21.6818 O   0  0  0  0  0  0
   -4.3767   45.7346   24.6824 H   0  0  0  0  0  0
   -3.0101   46.6323   26.5487 H   0  0  0  0  0  0
   -1.1714   48.1935   26.0815 H   0  0  0  0  0  0
   -2.0185   47.9365   21.8714 H   0  0  0  0  0  0
   -3.8684   46.3631   22.3444 H   0  0  0  0  0  0
    1.4933   51.6308   24.0141 H   0  0  0  0  0  0
    1.3440   51.4194   22.2919 H   0  0  0  0  0  0
    1.5342   53.6965   21.8107 H   0  0  0  0  0  0
    0.7701   54.2389   23.2819 H   0  0  0  0  0  0
    3.4957   54.0152   20.7214 H   0  0  0  0  0  0
    5.7517   54.7526   20.0900 H   0  0  0  0  0  0
    7.0125   54.9259   24.1539 H   0  0  0  0  0  0
    1.0315   53.3293   25.7397 H   0  0  0  0  0  0
    6.6110   54.7245   29.0489 H   0  0  0  0  0  0
    1.1735   51.4321   27.6829 H   0  0  0  0  0  0
   -0.3819   50.8976   29.5044 H   0  0  0  0  0  0
   -0.8199   52.5377   31.2816 H   0  0  0  0  0  0
    0.1628   54.8032   31.1579 H   0  0  0  0  0  0
    8.3983   55.2978   22.3909 H   0  0  0  0  0  0
  1  6  2  0  0  0
  1  2  1  0  0  0
  1 41  1  0  0  0
  2  3  2  0  0  0
  2 42  1  0  0  0
  3  4  1  0  0  0
  3 43  1  0  0  0
  4  5  2  0  0  0
  4  7  1  0  0  0
  5  6  1  0  0  0
  5 44  1  0  0  0
  6 45  1  0  0  0
  7  8  2  0  0  0
  7  9  2  0  0  0
  7 10  1  0  0  0
 10 11  1  0  0  0
 11 12  2  0  0  0
 11 13  1  0  0  0
 13 14  1  0  0  0
 13 46  1  0  0  0
 13 47  1  0  0  0
 14 15  1  0  0  0
 14 48  1  0  0  0
 14 49  1  0  0  0
 15 23  1  0  0  0
 15 16  1  0  0  0
 16 21  2  0  0  0
 16 17  1  0  0  0
 17 18  2  0  0  0
 17 50  1  0  0  0
 18 19  1  0  0  0
 18 51  1  0  0  0
 19 20  2  0  0  0
 19 40  1  0  0  0
 20 21  1  0  0  0
 20 52  1  0  0  0
 21 22  1  0  0  0
 22 27  2  0  0  0
 22 23  1  0  0  0
 23 24  2  0  0  0
 24 25  1  0  0  0
 24 53  1  0  0  0
 25 26  2  0  0  0
 25 33  1  0  0  0
 26 31  1  0  0  0
 26 27  1  0  0  0
 27 28  1  0  0  0
 28 29  2  0  0  0
 28 30  1  0  0  0
 30 31  1  0  0  0
 30 54  1  0  0  0
 31 32  2  0  0  0
 33 38  2  0  0  0
 33 34  1  0  0  0
 34 35  2  0  0  0
 34 55  1  0  0  0
 35 36  1  0  0  0
 35 56  1  0  0  0
 36 37  2  0  0  0
 36 57  1  0  0  0
 37 38  1  0  0  0
 37 58  1  0  0  0
 38 39  1  0  0  0
 40 59  1  0  0  0
M  CHG  1  10  -1
M  END
> <i_i_glide_confnum>
61

> <i_i_glide_lignum>
10

> <i_i_glide_posenum>
31

> <i_i_glide_rotatable_bonds>
8

> <i_m_Source_File_Index>
136

> <b_m_subgroup_collapsed>
0

> <r_i_docking_score>
-9.22067

> <r_i_glide_ecoul>
-15.2623

> <r_i_glide_eff_state_penalty>
0

> <r_i_glide_einternal>
5.80386

> <r_i_glide_emodel>
-108.067

> <r_i_glide_energy>
-76.0389

> <r_i_glide_erotb>
0.201912

> <r_i_glide_esite>
-0.0318218

> <r_i_glide_evdw>
-60.7766

> <r_i_glide_gscore>
-9.22067

> <r_i_glide_hbond>
-0.905676

> <r_i_glide_ligand_efficiency>
-0.230517

> <r_i_glide_ligand_efficiency_ln>
-1.9665

> <r_i_glide_ligand_efficiency_sa>
-0.788356

> <r_i_glide_lipo>
-3.90538

> <r_i_glide_metal>
0

> <r_i_glide_rewards>
0.748479

> <s_i_glide_gridfile>
wee1_glide-grid

> <s_m_Source_File>
wee1_actives_glide_SP.sdf

> <s_m_Source_Path>
/Users/zhangxujun/Desktop

> <s_m_entry_id>
274

> <s_m_entry_name>
wee1_actives_glide_SP.136

> <s_m_subgroup_title>
wee1_actives_glide_SP

> <s_m_subgroupid>
wee1_actives_glide_SP


$$$$
