CHEMBL379975_47
                    3D
 Schrodinger Suite 2024-2.
 37 41  0  0  1  0            999 V2000
    0.0352   53.9686   30.0215 C   0  0  0  0  0  0
    0.4825   53.1700   31.0666 C   0  0  0  0  0  0
    1.6879   52.4947   30.9360 C   0  0  0  0  0  0
    2.4359   52.5986   29.7629 C   0  0  0  0  0  0
    1.9945   53.4118   28.6987 C   0  0  0  0  0  0
    0.7857   54.0950   28.8587 C   0  0  0  0  0  0
    2.7490   53.5856   27.4192 C   0  0  0  0  0  0
    2.1007   53.3059   26.2034 C   0  0  0  0  0  0
    2.8018   53.5281   25.0070 C   0  0  0  0  0  0
    4.1472   53.9891   24.9907 C   0  0  0  0  0  0
    4.5454   54.0965   23.6394 C   0  0  0  0  0  0
    5.7332   54.4995   23.0058 C   0  0  0  0  0  0
    5.7588   54.5978   21.6182 C   0  0  0  0  0  0
    4.6781   54.1727   20.8528 C   0  0  0  0  0  0
    3.5076   53.6906   21.4410 C   0  0  0  0  0  0
    3.4435   53.6967   22.8391 C   0  0  0  0  0  0
    2.4141   53.3569   23.6934 N   0  0  0  0  0  0
    1.5071   53.0275   23.3964 H   0  0  0  0  0  0
    6.8512   55.1496   21.0026 O   0  0  0  0  0  0
    4.7749   54.2238   26.2243 C   0  0  0  0  0  0
    4.0730   54.0486   27.3913 C   0  0  0  0  0  0
    4.9673   54.4968   28.4919 C   0  0  0  0  0  0
    4.7043   54.6418   29.6814 O   0  0  0  0  0  0
    6.1439   54.7784   27.9177 N   0  0  0  0  0  0
    6.1479   54.6677   26.5820 C   0  0  0  0  0  0
    7.1037   54.9164   25.8572 O   0  0  0  0  0  0
    3.9028   51.6986   29.6849 Cl  0  0  0  0  0  0
   -0.8955   54.4971   30.0909 H   0  0  0  0  0  0
   -0.0957   53.0668   31.9739 H   0  0  0  0  0  0
    2.0323   51.8777   31.7537 H   0  0  0  0  0  0
    0.4178   54.7431   28.0804 H   0  0  0  0  0  0
    1.0828   52.9449   26.1935 H   0  0  0  0  0  0
    6.5906   54.8212   23.5706 H   0  0  0  0  0  0
    4.7366   54.2350   19.7749 H   0  0  0  0  0  0
    2.6778   53.3714   20.8295 H   0  0  0  0  0  0
    7.5830   55.3197   21.6014 H   0  0  0  0  0  0
    6.9307   55.1273   28.4515 H   0  0  0  0  0  0
  1  6  2  0  0  0
  1  2  1  0  0  0
  1 28  1  0  0  0
  2  3  2  0  0  0
  2 29  1  0  0  0
  3  4  1  0  0  0
  3 30  1  0  0  0
  4  5  2  0  0  0
  4 27  1  0  0  0
  5  6  1  0  0  0
  5  7  1  0  0  0
  6 31  1  0  0  0
  7 21  2  0  0  0
  7  8  1  0  0  0
  8  9  2  0  0  0
  8 32  1  0  0  0
  9 17  1  0  0  0
  9 10  1  0  0  0
 10 11  1  0  0  0
 10 20  2  0  0  0
 11 16  2  0  0  0
 11 12  1  0  0  0
 12 13  2  0  0  0
 12 33  1  0  0  0
 13 14  1  0  0  0
 13 19  1  0  0  0
 14 15  2  0  0  0
 14 34  1  0  0  0
 15 16  1  0  0  0
 15 35  1  0  0  0
 16 17  1  0  0  0
 17 18  1  0  0  0
 19 36  1  0  0  0
 20 25  1  0  0  0
 20 21  1  0  0  0
 21 22  1  0  0  0
 22 23  2  0  0  0
 22 24  1  0  0  0
 24 25  1  0  0  0
 24 37  1  0  0  0
 25 26  2  0  0  0
M  END
> <i_i_glide_confnum>
2

> <i_i_glide_lignum>
48

> <i_i_glide_posenum>
346

> <i_i_glide_rotatable_bonds>
2

> <i_m_Source_File_Index>
86

> <b_m_subgroup_collapsed>
0

> <r_i_docking_score>
-9.13165

> <r_i_glide_ecoul>
-8.42068

> <r_i_glide_eff_state_penalty>
0

> <r_i_glide_einternal>
2.37274

> <r_i_glide_emodel>
-79.5988

> <r_i_glide_energy>
-47.9244

> <r_i_glide_erotb>
0.102159

> <r_i_glide_esite>
0

> <r_i_glide_evdw>
-39.5037

> <r_i_glide_gscore>
-9.13165

> <r_i_glide_hbond>
-0.608

> <r_i_glide_ligand_efficiency>
-0.351217

> <r_i_glide_ligand_efficiency_ln>
-2.14454

> <r_i_glide_ligand_efficiency_sa>
-1.04048

> <r_i_glide_lipo>
-2.8118

> <r_i_glide_metal>
0

> <r_i_glide_rewards>
-2.57572

> <s_i_glide_gridfile>
wee1_glide-grid

> <s_m_Source_File>
wee1_actives_glide_SP.sdf

> <s_m_Source_Path>
/Users/zhangxujun/Desktop

> <s_m_entry_id>
224

> <s_m_entry_name>
wee1_actives_glide_SP.86

> <s_m_subgroup_title>
wee1_actives_glide_SP

> <s_m_subgroupid>
wee1_actives_glide_SP


$$$$
