CHEMBL519238_126
                    3D
 Schrodinger Suite 2024-2.
 54 59  0  0  1  0            999 V2000
   -0.1054   52.7904   30.4470 C   0  0  0  0  0  0
    0.5188   54.0312   30.3736 C   0  0  0  0  0  0
    1.3531   54.3115   29.2966 C   0  0  0  0  0  0
    1.5920   53.3432   28.3127 C   0  0  0  0  0  0
    0.9208   52.1173   28.3810 C   0  0  0  0  0  0
    0.0629   51.8457   29.4400 C   0  0  0  0  0  0
    2.5501   53.6020   27.2051 C   0  0  0  0  0  0
    2.0980   53.4763   25.8860 C   0  0  0  0  0  0
    2.9914   53.7420   24.8324 C   0  0  0  0  0  0
    4.3465   54.0967   25.0746 C   0  0  0  0  0  0
    4.9677   54.2962   23.8196 C   0  0  0  0  0  0
    6.2736   54.6628   23.4275 C   0  0  0  0  0  0
    6.5421   54.8967   22.0813 C   0  0  0  0  0  0
    5.5523   54.7198   21.1232 C   0  0  0  0  0  0
    4.2636   54.3106   21.4591 C   0  0  0  0  0  0
    3.9726   54.1040   22.8173 C   0  0  0  0  0  0
    2.7863   53.7497   23.4579 N   0  0  0  0  0  0
    1.4741   53.5422   22.8260 C   0  0  0  0  0  0
    1.4470   52.4907   21.6918 C   0  0  0  0  0  0
    2.0821   51.1289   22.0427 C   0  0  0  0  0  0
    2.1284   50.2681   20.8693 N   0  0  0  0  0  0
    1.3716   49.1235   20.6464 C   0  0  0  0  0  0
    1.7332   48.5898   19.4105 C   0  0  0  0  0  0
    2.7044   49.4217   18.8817 N   0  3  0  0  0  0
    2.9344   50.4524   19.7636 C   0  0  0  0  0  0
    7.7931   55.2967   21.6817 O   0  0  0  0  0  0
    4.7679   54.1928   26.4155 C   0  0  0  0  0  0
    3.8852   53.9564   27.4405 C   0  0  0  0  0  0
    4.6374   54.1545   28.7168 C   0  0  0  0  0  0
    4.2403   54.0560   29.8750 O   0  0  0  0  0  0
    5.8834   54.4967   28.3524 N   0  0  0  0  0  0
    6.0680   54.5629   27.0258 C   0  0  0  0  0  0
    7.1044   54.8967   26.4725 O   0  0  0  0  0  0
   -0.7513   52.5602   31.2817 H   0  0  0  0  0  0
    0.3611   54.7664   31.1494 H   0  0  0  0  0  0
    1.8449   55.2724   29.2463 H   0  0  0  0  0  0
    1.0757   51.3625   27.6231 H   0  0  0  0  0  0
   -0.4531   50.8968   29.4948 H   0  0  0  0  0  0
    1.0685   53.2072   25.7063 H   0  0  0  0  0  0
    7.0622   54.8085   24.1431 H   0  0  0  0  0  0
    5.7877   54.9074   20.0854 H   0  0  0  0  0  0
    3.5220   54.2178   20.6826 H   0  0  0  0  0  0
    1.1338   54.5170   22.4816 H   0  0  0  0  0  0
    0.7612   53.2265   23.5852 H   0  0  0  0  0  0
    1.9058   52.8967   20.7936 H   0  0  0  0  0  0
    0.4055   52.3292   21.4086 H   0  0  0  0  0  0
    1.5428   50.6287   22.8491 H   0  0  0  0  0  0
    3.1044   51.2517   22.3979 H   0  0  0  0  0  0
    0.6553   48.7931   21.3854 H   0  0  0  0  0  0
    1.4040   47.7134   18.8685 H   0  0  0  0  0  0
    3.6547   51.2472   19.6162 H   0  0  0  0  0  0
    8.4475   55.2967   22.3942 H   0  0  0  0  0  0
    6.6053   54.7486   29.0140 H   0  0  0  0  0  0
    3.2055   49.2967   17.9863 H   0  0  0  0  0  0
  1  6  2  0  0  0
  1  2  1  0  0  0
  1 34  1  0  0  0
  2  3  2  0  0  0
  2 35  1  0  0  0
  3  4  1  0  0  0
  3 36  1  0  0  0
  4  5  2  0  0  0
  4  7  1  0  0  0
  5  6  1  0  0  0
  5 37  1  0  0  0
  6 38  1  0  0  0
  7 28  2  0  0  0
  7  8  1  0  0  0
  8  9  2  0  0  0
  8 39  1  0  0  0
  9 17  1  0  0  0
  9 10  1  0  0  0
 10 11  1  0  0  0
 10 27  2  0  0  0
 11 16  2  0  0  0
 11 12  1  0  0  0
 12 13  2  0  0  0
 12 40  1  0  0  0
 13 14  1  0  0  0
 13 26  1  0  0  0
 14 15  2  0  0  0
 14 41  1  0  0  0
 15 16  1  0  0  0
 15 42  1  0  0  0
 16 17  1  0  0  0
 17 18  1  0  0  0
 18 19  1  0  0  0
 18 43  1  0  0  0
 18 44  1  0  0  0
 19 20  1  0  0  0
 19 45  1  0  0  0
 19 46  1  0  0  0
 20 21  1  0  0  0
 20 47  1  0  0  0
 20 48  1  0  0  0
 21 25  1  0  0  0
 21 22  1  0  0  0
 22 23  2  0  0  0
 22 49  1  0  0  0
 23 24  1  0  0  0
 23 50  1  0  0  0
 24 25  2  0  0  0
 24 54  1  0  0  0
 25 51  1  0  0  0
 26 52  1  0  0  0
 27 32  1  0  0  0
 27 28  1  0  0  0
 28 29  1  0  0  0
 29 30  2  0  0  0
 29 31  1  0  0  0
 31 32  1  0  0  0
 31 53  1  0  0  0
 32 33  2  0  0  0
M  CHG  1  24   1
M  END
> <i_i_glide_confnum>
23

> <i_i_glide_lignum>
127

> <i_i_glide_posenum>
372

> <i_i_glide_rotatable_bonds>
6

> <i_m_Source_File_Index>
27

> <b_m_subgroup_collapsed>
0

> <r_i_docking_score>
-12.0765

> <r_i_glide_ecoul>
-16.782

> <r_i_glide_eff_state_penalty>
0

> <r_i_glide_einternal>
4.32262

> <r_i_glide_emodel>
-119.846

> <r_i_glide_energy>
-66.6149

> <r_i_glide_erotb>
0.291757

> <r_i_glide_esite>
-0.176156

> <r_i_glide_evdw>
-49.8329

> <r_i_glide_gscore>
-12.0765

> <r_i_glide_hbond>
-1.11087

> <r_i_glide_ligand_efficiency>
-0.365954

> <r_i_glide_ligand_efficiency_ln>
-2.68575

> <r_i_glide_ligand_efficiency_sa>
-1.17381

> <r_i_glide_lipo>
-3.6017

> <r_i_glide_metal>
0

> <r_i_glide_rewards>
-2.47058

> <s_i_glide_gridfile>
wee1_glide-grid

> <s_m_Source_File>
wee1_actives_glide_SP.sdf

> <s_m_Source_Path>
/Users/zhangxujun/Desktop

> <s_m_entry_id>
165

> <s_m_entry_name>
wee1_actives_glide_SP.27

> <s_m_subgroup_title>
wee1_actives_glide_SP

> <s_m_subgroupid>
wee1_actives_glide_SP


$$$$
