CHEMBL453347_53
                    3D
 Schrodinger Suite 2024-2.
 64 69  0  0  1  0            999 V2000
    2.0982   51.3016   16.0380 C   0  0  0  0  0  0
    2.3986   51.2968   17.5499 N   0  3  0  0  0  0
    1.8747   50.0132   18.2306 C   0  0  0  0  0  0
    2.3527   50.0275   19.7017 C   0  0  0  0  0  0
    1.8288   51.2069   20.4100 N   0  0  0  0  0  0
    2.2329   52.4524   19.7435 C   0  0  0  0  0  0
    1.8151   52.5262   18.2640 C   0  0  0  0  0  0
    2.2405   51.2005   21.8246 C   0  0  0  0  0  0
    1.2770   51.9938   22.7482 C   0  0  0  0  0  0
    1.5288   53.5117   22.9596 C   0  0  0  0  0  0
    2.8134   53.7952   23.5938 N   0  0  0  0  0  0
    3.9880   54.1940   22.9630 C   0  0  0  0  0  0
    4.2626   54.4925   21.6197 C   0  0  0  0  0  0
    5.5642   54.8505   21.2809 C   0  0  0  0  0  0
    6.5714   54.9251   22.2318 C   0  0  0  0  0  0
    6.3049   54.6566   23.5733 C   0  0  0  0  0  0
    4.9924   54.3162   23.9631 C   0  0  0  0  0  0
    4.3657   54.0971   25.2125 C   0  0  0  0  0  0
    3.0170   53.7386   24.9600 C   0  0  0  0  0  0
    2.1170   53.4374   25.9938 C   0  0  0  0  0  0
    2.5504   53.5659   27.3180 C   0  0  0  0  0  0
    3.8803   53.9333   27.5697 C   0  0  0  0  0  0
    4.7737   54.1786   26.5548 C   0  0  0  0  0  0
    6.0653   54.5555   27.1724 C   0  0  0  0  0  0
    7.1044   54.8956   26.6257 O   0  0  0  0  0  0
    5.8626   54.4967   28.4955 N   0  0  0  0  0  0
    4.6139   54.1512   28.8520 C   0  0  0  0  0  0
    4.1995   54.0707   30.0061 O   0  0  0  0  0  0
    1.5710   53.3082   28.4062 C   0  0  0  0  0  0
    1.3212   54.2715   29.3923 C   0  0  0  0  0  0
    0.4474   53.9980   30.4391 C   0  0  0  0  0  0
   -0.2069   52.7715   30.4763 C   0  0  0  0  0  0
   -0.0230   51.8326   29.4685 C   0  0  0  0  0  0
    0.8763   52.0943   28.4429 C   0  0  0  0  0  0
    7.8281   55.3008   21.8322 O   0  0  0  0  0  0
    1.0283   51.1437   15.8920 H   0  0  0  0  0  0
    2.4232   52.2640   15.6402 H   0  0  0  0  0  0
    2.6983   50.4975   15.6034 H   0  0  0  0  0  0
    2.3042   49.1678   17.6918 H   0  0  0  0  0  0
    0.7879   49.9903   18.1330 H   0  0  0  0  0  0
    2.0286   49.1077   20.1909 H   0  0  0  0  0  0
    3.4449   50.0676   19.7152 H   0  0  0  0  0  0
    3.3230   52.5106   19.7876 H   0  0  0  0  0  0
    1.7895   53.2966   20.2437 H   0  0  0  0  0  0
    2.2654   53.4021   17.7938 H   0  0  0  0  0  0
    0.7328   52.5282   18.1203 H   0  0  0  0  0  0
    2.2907   50.1766   22.2016 H   0  0  0  0  0  0
    3.2566   51.5904   21.9092 H   0  0  0  0  0  0
    0.2688   51.9116   22.3393 H   0  0  0  0  0  0
    1.2454   51.5042   23.7227 H   0  0  0  0  0  0
    1.4719   54.0977   22.0569 H   0  0  0  0  0  0
    0.7433   53.9282   23.5919 H   0  0  0  0  0  0
    3.5042   54.4813   20.8583 H   0  0  0  0  0  0
    5.7935   55.0862   20.2512 H   0  0  0  0  0  0
    7.1043   54.7417   24.2872 H   0  0  0  0  0  0
    1.0936   53.1640   25.7836 H   0  0  0  0  0  0
    6.5761   54.7604   29.1620 H   0  0  0  0  0  0
    1.8284   55.2252   29.3644 H   0  0  0  0  0  0
    0.2802   54.7289   31.2169 H   0  0  0  0  0  0
   -0.8900   52.5471   31.2816 H   0  0  0  0  0  0
   -0.5622   50.8970   29.4970 H   0  0  0  0  0  0
    1.0386   51.3437   27.6825 H   0  0  0  0  0  0
    8.4780   55.2965   22.5541 H   0  0  0  0  0  0
    3.4096   51.2769   17.6588 H   0  0  0  0  0  0
  1  2  1  0  0  0
  1 36  1  0  0  0
  1 37  1  0  0  0
  1 38  1  0  0  0
  2  7  1  0  0  0
  2  3  1  0  0  0
  2 64  1  0  0  0
  3  4  1  0  0  0
  3 39  1  0  0  0
  3 40  1  0  0  0
  4  5  1  0  0  0
  4 41  1  0  0  0
  4 42  1  0  0  0
  5  6  1  0  0  0
  5  8  1  0  0  0
  6  7  1  0  0  0
  6 43  1  0  0  0
  6 44  1  0  0  0
  7 45  1  0  0  0
  7 46  1  0  0  0
  8  9  1  0  0  0
  8 47  1  0  0  0
  8 48  1  0  0  0
  9 10  1  0  0  0
  9 49  1  0  0  0
  9 50  1  0  0  0
 10 11  1  0  0  0
 10 51  1  0  0  0
 10 52  1  0  0  0
 11 19  1  0  0  0
 11 12  1  0  0  0
 12 17  2  0  0  0
 12 13  1  0  0  0
 13 14  2  0  0  0
 13 53  1  0  0  0
 14 15  1  0  0  0
 14 54  1  0  0  0
 15 16  2  0  0  0
 15 35  1  0  0  0
 16 17  1  0  0  0
 16 55  1  0  0  0
 17 18  1  0  0  0
 18 23  2  0  0  0
 18 19  1  0  0  0
 19 20  2  0  0  0
 20 21  1  0  0  0
 20 56  1  0  0  0
 21 22  2  0  0  0
 21 29  1  0  0  0
 22 27  1  0  0  0
 22 23  1  0  0  0
 23 24  1  0  0  0
 24 25  2  0  0  0
 24 26  1  0  0  0
 26 27  1  0  0  0
 26 57  1  0  0  0
 27 28  2  0  0  0
 29 34  2  0  0  0
 29 30  1  0  0  0
 30 31  2  0  0  0
 30 58  1  0  0  0
 31 32  1  0  0  0
 31 59  1  0  0  0
 32 33  2  0  0  0
 32 60  1  0  0  0
 33 34  1  0  0  0
 33 61  1  0  0  0
 34 62  1  0  0  0
 35 63  1  0  0  0
M  CHG  1   2   1
M  END
> <i_i_glide_confnum>
107

> <i_i_glide_lignum>
54

> <i_i_glide_posenum>
310

> <i_i_glide_rotatable_bonds>
6

> <i_m_Source_File_Index>
12

> <b_m_subgroup_collapsed>
0

> <r_i_docking_score>
-11.8768

> <r_i_glide_ecoul>
-18.3003

> <r_i_glide_eff_state_penalty>
0

> <r_i_glide_einternal>
2.02572

> <r_i_glide_emodel>
-119.207

> <r_i_glide_energy>
-64.6579

> <r_i_glide_erotb>
0.458051

> <r_i_glide_esite>
-0.1

> <r_i_glide_evdw>
-46.3576

> <r_i_glide_gscore>
-11.8768

> <r_i_glide_hbond>
-1.07362

> <r_i_glide_ligand_efficiency>
-0.339337

> <r_i_glide_ligand_efficiency_ln>
-2.60722

> <r_i_glide_ligand_efficiency_sa>
-1.10999

> <r_i_glide_lipo>
-3.65

> <r_i_glide_metal>
0

> <r_i_glide_rewards>
-2.44831

> <s_i_glide_gridfile>
wee1_glide-grid

> <s_m_Source_File>
wee1_actives_glide_SP.sdf

> <s_m_Source_Path>
/Users/zhangxujun/Desktop

> <s_m_entry_id>
150

> <s_m_entry_name>
wee1_actives_glide_SP.12

> <s_m_subgroup_title>
wee1_actives_glide_SP

> <s_m_subgroupid>
wee1_actives_glide_SP


$$$$
