CHEMBL520984_60
                    3D
 Schrodinger Suite 2024-2.
 60 65  0  0  1  0            999 V2000
    1.5732   53.3811   22.7246 C   0  0  0  0  0  0
    2.8223   53.7454   23.3802 N   0  0  0  0  0  0
    3.0008   53.7713   24.7528 C   0  0  0  0  0  0
    2.0886   53.5226   25.7929 C   0  0  0  0  0  0
    2.5278   53.6643   27.1163 C   0  0  0  0  0  0
    3.8686   53.9905   27.3620 C   0  0  0  0  0  0
    4.7617   54.2248   26.3466 C   0  0  0  0  0  0
    4.3528   54.1308   25.0033 C   0  0  0  0  0  0
    4.9838   54.3227   23.7488 C   0  0  0  0  0  0
    4.0059   54.0967   22.7442 C   0  0  0  0  0  0
    4.2990   54.2551   21.3825 C   0  0  0  0  0  0
    5.5795   54.6929   21.0286 C   0  0  0  0  0  0
    6.5663   54.8971   22.0059 C   0  0  0  0  0  0
    6.2859   54.6905   23.3550 C   0  0  0  0  0  0
    7.8382   55.2990   21.6817 O   0  0  0  0  0  0
    5.8664   54.9522   19.2652 S   0  0  0  0  0  0
    7.2130   55.4942   19.0614 O   0  0  0  0  0  0
    4.7044   55.6831   18.7494 O   0  0  0  0  0  0
    5.7954   53.1955   18.5660 C   0  0  0  0  0  0
    6.3969   53.0915   17.1499 C   0  0  0  0  0  0
    7.9269   53.3226   17.0841 C   0  0  0  0  0  0
    8.5617   52.3946   16.1569 N   0  0  0  0  0  0
    8.4790   52.4283   14.7842 C   0  0  0  0  0  0
    9.1871   51.3566   14.2595 C   0  0  0  0  0  0
    9.7096   50.6397   15.3364 C   0  0  0  0  0  0
    9.3120   51.2904   16.4944 C   0  0  0  0  0  0
    6.0603   54.5741   26.9722 C   0  0  0  0  0  0
    7.1044   54.8967   26.4282 O   0  0  0  0  0  0
    5.8643   54.4946   28.2970 N   0  0  0  0  0  0
    4.6153   54.1464   28.6467 C   0  0  0  0  0  0
    4.2066   54.0143   29.7980 O   0  0  0  0  0  0
    1.5670   53.4361   28.2289 C   0  0  0  0  0  0
    1.0067   52.1626   28.3860 C   0  0  0  0  0  0
    0.1667   51.8818   29.4594 C   0  0  0  0  0  0
   -0.0955   52.8594   30.4141 C   0  0  0  0  0  0
    0.4142   54.1439   30.2487 C   0  0  0  0  0  0
    1.2187   54.4470   29.1482 C   0  0  0  0  0  0
    1.7488   56.0858   28.9522 Cl  0  0  0  0  0  0
    0.7386   53.8672   23.2324 H   0  0  0  0  0  0
    1.5788   53.6945   21.6827 H   0  0  0  0  0  0
    1.4466   52.2975   22.7730 H   0  0  0  0  0  0
    1.0620   53.2559   25.5867 H   0  0  0  0  0  0
    3.5468   54.0978   20.6224 H   0  0  0  0  0  0
    7.0639   54.8558   24.0794 H   0  0  0  0  0  0
    8.4522   55.2980   22.4279 H   0  0  0  0  0  0
    4.7484   52.8913   18.5645 H   0  0  0  0  0  0
    6.3046   52.5330   19.2627 H   0  0  0  0  0  0
    5.8875   53.7841   16.4776 H   0  0  0  0  0  0
    6.1534   52.0968   16.7709 H   0  0  0  0  0  0
    8.3996   53.1974   18.0587 H   0  0  0  0  0  0
    8.1544   54.3388   16.7565 H   0  0  0  0  0  0
    7.9213   53.2144   14.2961 H   0  0  0  0  0  0
    9.3109   51.1162   13.2123 H   0  0  0  0  0  0
   10.3093   49.7428   15.2778 H   0  0  0  0  0  0
    9.5024   51.0603   17.5327 H   0  0  0  0  0  0
    6.5833   54.7274   28.9677 H   0  0  0  0  0  0
    1.2385   51.3734   27.6840 H   0  0  0  0  0  0
   -0.2641   50.8967   29.5675 H   0  0  0  0  0  0
   -0.7162   52.6240   31.2688 H   0  0  0  0  0  0
    0.1756   54.9104   30.9713 H   0  0  0  0  0  0
  1  2  1  0  0  0
  1 39  1  0  0  0
  1 40  1  0  0  0
  1 41  1  0  0  0
  2 10  1  0  0  0
  2  3  1  0  0  0
  3  8  2  0  0  0
  3  4  1  0  0  0
  4  5  2  0  0  0
  4 42  1  0  0  0
  5  6  1  0  0  0
  5 32  1  0  0  0
  6 30  1  0  0  0
  6  7  2  0  0  0
  7  8  1  0  0  0
  7 27  1  0  0  0
  8  9  1  0  0  0
  9 14  2  0  0  0
  9 10  1  0  0  0
 10 11  2  0  0  0
 11 12  1  0  0  0
 11 43  1  0  0  0
 12 13  2  0  0  0
 12 16  1  0  0  0
 13 14  1  0  0  0
 13 15  1  0  0  0
 14 44  1  0  0  0
 15 45  1  0  0  0
 16 17  2  0  0  0
 16 18  2  0  0  0
 16 19  1  0  0  0
 19 20  1  0  0  0
 19 46  1  0  0  0
 19 47  1  0  0  0
 20 21  1  0  0  0
 20 48  1  0  0  0
 20 49  1  0  0  0
 21 22  1  0  0  0
 21 50  1  0  0  0
 21 51  1  0  0  0
 22 26  1  0  0  0
 22 23  1  0  0  0
 23 24  2  0  0  0
 23 52  1  0  0  0
 24 25  1  0  0  0
 24 53  1  0  0  0
 25 26  2  0  0  0
 25 54  1  0  0  0
 26 55  1  0  0  0
 27 28  2  0  0  0
 27 29  1  0  0  0
 29 30  1  0  0  0
 29 56  1  0  0  0
 30 31  2  0  0  0
 32 37  2  0  0  0
 32 33  1  0  0  0
 33 34  2  0  0  0
 33 57  1  0  0  0
 34 35  1  0  0  0
 34 58  1  0  0  0
 35 36  2  0  0  0
 35 59  1  0  0  0
 36 37  1  0  0  0
 36 60  1  0  0  0
 37 38  1  0  0  0
M  END
> <i_i_glide_confnum>
61

> <i_i_glide_lignum>
61

> <i_i_glide_posenum>
144

> <i_i_glide_rotatable_bonds>
7

> <i_m_Source_File_Index>
71

> <b_m_subgroup_collapsed>
0

> <r_i_docking_score>
-11.4951

> <r_i_glide_ecoul>
-13.7309

> <r_i_glide_eff_state_penalty>
0

> <r_i_glide_einternal>
5.48352

> <r_i_glide_emodel>
-122.024

> <r_i_glide_energy>
-72.4425

> <r_i_glide_erotb>
0.24147

> <r_i_glide_esite>
0

> <r_i_glide_evdw>
-58.7115

> <r_i_glide_gscore>
-11.4951

> <r_i_glide_hbond>
-0.582435

> <r_i_glide_ligand_efficiency>
-0.302502

> <r_i_glide_ligand_efficiency_ln>
-2.47868

> <r_i_glide_ligand_efficiency_sa>
-1.017

> <r_i_glide_lipo>
-3.99501

> <r_i_glide_metal>
0

> <r_i_glide_rewards>
-2.16388

> <s_i_glide_gridfile>
wee1_glide-grid

> <s_m_Source_File>
wee1_actives_glide_SP.sdf

> <s_m_Source_Path>
/Users/zhangxujun/Desktop

> <s_m_entry_id>
209

> <s_m_entry_name>
wee1_actives_glide_SP.71

> <s_m_subgroup_title>
wee1_actives_glide_SP

> <s_m_subgroupid>
wee1_actives_glide_SP


$$$$
