CHEMBL452829_79
                    3D
 Schrodinger Suite 2024-2.
 54 59  0  0  1  0            999 V2000
   -0.0198   53.3679   30.8335 C   0  0  0  0  0  0
    0.4616   54.6227   30.4811 C   0  0  0  0  0  0
    1.2420   54.7825   29.3385 C   0  0  0  0  0  0
    1.6126   53.6620   28.5718 C   0  0  0  0  0  0
    1.1654   52.3937   28.9727 C   0  0  0  0  0  0
    0.3065   52.2600   30.0614 C   0  0  0  0  0  0
    1.7349   50.9633   28.1922 Cl  0  0  0  0  0  0
    2.5177   53.8062   27.4009 C   0  0  0  0  0  0
    2.0134   53.6779   26.1015 C   0  0  0  0  0  0
    2.8871   53.8728   25.0174 C   0  0  0  0  0  0
    4.2628   54.1825   25.2116 C   0  0  0  0  0  0
    4.8463   54.3506   23.9352 C   0  0  0  0  0  0
    6.1349   54.7115   23.4926 C   0  0  0  0  0  0
    6.3645   54.8612   22.1261 C   0  0  0  0  0  0
    5.3712   54.5615   21.2005 C   0  0  0  0  0  0
    4.0972   54.1545   21.5932 C   0  0  0  0  0  0
    3.8331   54.0951   22.9687 C   0  0  0  0  0  0
    2.6514   53.8288   23.6484 N   0  0  0  0  0  0
    1.3565   53.5492   23.0156 C   0  0  0  0  0  0
    1.1501   52.0520   22.6748 C   0  0  0  0  0  0
    1.3340   51.0219   23.8171 C   0  0  0  0  0  0
    0.2220   50.8919   24.7667 N   0  0  0  0  0  0
   -0.8765   51.7278   24.9614 C   0  0  0  0  0  0
   -1.6266   51.2442   26.0325 C   0  0  0  0  0  0
   -0.9975   50.0966   26.4771 N   0  3  0  0  0  0
    0.1046   49.8640   25.6844 C   0  0  0  0  0  0
    7.5851   55.2977   21.6818 O   0  0  0  0  0  0
    4.7334   54.2678   26.5367 C   0  0  0  0  0  0
    3.8725   54.0734   27.5852 C   0  0  0  0  0  0
    4.6571   54.2076   28.8429 C   0  0  0  0  0  0
    4.2730   54.0972   30.0048 O   0  0  0  0  0  0
    5.9052   54.4967   28.4470 N   0  0  0  0  0  0
    6.0656   54.5720   27.1140 C   0  0  0  0  0  0
    7.1044   54.8635   26.5353 O   0  0  0  0  0  0
    1.7475   56.3858   28.9190 Cl  0  0  0  0  0  0
   -0.6450   53.2470   31.7053 H   0  0  0  0  0  0
    0.2173   55.4822   31.0852 H   0  0  0  0  0  0
   -0.0941   51.2969   30.3352 H   0  0  0  0  0  0
    0.9739   53.4458   25.9497 H   0  0  0  0  0  0
    6.9302   54.9287   24.1834 H   0  0  0  0  0  0
    5.5871   54.6616   20.1464 H   0  0  0  0  0  0
    3.3370   53.9516   20.8536 H   0  0  0  0  0  0
    1.2996   54.1308   22.0932 H   0  0  0  0  0  0
    0.5767   53.9381   23.6679 H   0  0  0  0  0  0
    1.8652   51.8001   21.8891 H   0  0  0  0  0  0
    0.1744   51.9131   22.2065 H   0  0  0  0  0  0
    2.2206   51.2860   24.3890 H   0  0  0  0  0  0
    1.5235   50.0339   23.3928 H   0  0  0  0  0  0
   -1.0297   52.5944   24.3388 H   0  0  0  0  0  0
   -2.5338   51.5931   26.5078 H   0  0  0  0  0  0
    0.7887   49.0332   25.8017 H   0  0  0  0  0  0
    8.2492   55.3575   22.3796 H   0  0  0  0  0  0
    6.6522   54.7146   29.0932 H   0  0  0  0  0  0
   -1.2961   49.4785   27.2475 H   0  0  0  0  0  0
  1  6  2  0  0  0
  1  2  1  0  0  0
  1 36  1  0  0  0
  2  3  2  0  0  0
  2 37  1  0  0  0
  3  4  1  0  0  0
  3 35  1  0  0  0
  4  5  2  0  0  0
  4  8  1  0  0  0
  5  6  1  0  0  0
  5  7  1  0  0  0
  6 38  1  0  0  0
  8 29  2  0  0  0
  8  9  1  0  0  0
  9 10  2  0  0  0
  9 39  1  0  0  0
 10 18  1  0  0  0
 10 11  1  0  0  0
 11 12  1  0  0  0
 11 28  2  0  0  0
 12 17  2  0  0  0
 12 13  1  0  0  0
 13 14  2  0  0  0
 13 40  1  0  0  0
 14 15  1  0  0  0
 14 27  1  0  0  0
 15 16  2  0  0  0
 15 41  1  0  0  0
 16 17  1  0  0  0
 16 42  1  0  0  0
 17 18  1  0  0  0
 18 19  1  0  0  0
 19 20  1  0  0  0
 19 43  1  0  0  0
 19 44  1  0  0  0
 20 21  1  0  0  0
 20 45  1  0  0  0
 20 46  1  0  0  0
 21 22  1  0  0  0
 21 47  1  0  0  0
 21 48  1  0  0  0
 22 26  1  0  0  0
 22 23  1  0  0  0
 23 24  2  0  0  0
 23 49  1  0  0  0
 24 25  1  0  0  0
 24 50  1  0  0  0
 25 26  2  0  0  0
 25 54  1  0  0  0
 26 51  1  0  0  0
 27 52  1  0  0  0
 28 33  1  0  0  0
 28 29  1  0  0  0
 29 30  1  0  0  0
 30 31  2  0  0  0
 30 32  1  0  0  0
 32 33  1  0  0  0
 32 53  1  0  0  0
 33 34  2  0  0  0
M  CHG  1  25   1
M  END
> <i_i_glide_confnum>
16

> <i_i_glide_lignum>
80

> <i_i_glide_posenum>
48

> <i_i_glide_rotatable_bonds>
6

> <i_m_Source_File_Index>
67

> <b_m_subgroup_collapsed>
0

> <r_i_docking_score>
-12.4415

> <r_i_glide_ecoul>
-16.9349

> <r_i_glide_eff_state_penalty>
0

> <r_i_glide_einternal>
4.70609

> <r_i_glide_emodel>
-125.262

> <r_i_glide_energy>
-69.476

> <r_i_glide_erotb>
0.319181

> <r_i_glide_esite>
-0.152596

> <r_i_glide_evdw>
-52.5411

> <r_i_glide_gscore>
-12.4415

> <r_i_glide_hbond>
-1.14308

> <r_i_glide_ligand_efficiency>
-0.355471

> <r_i_glide_ligand_efficiency_ln>
-2.73118

> <r_i_glide_ligand_efficiency_sa>
-1.16277

> <r_i_glide_lipo>
-4.13184

> <r_i_glide_metal>
0

> <r_i_glide_rewards>
-2.16584

> <s_i_glide_gridfile>
wee1_glide-grid

> <s_m_Source_File>
wee1_actives_glide_SP.sdf

> <s_m_Source_Path>
/Users/zhangxujun/Desktop

> <s_m_entry_id>
205

> <s_m_entry_name>
wee1_actives_glide_SP.67

> <s_m_subgroup_title>
wee1_actives_glide_SP

> <s_m_subgroupid>
wee1_actives_glide_SP


$$$$
