CHEMBL483801_85
                    3D
 Schrodinger Suite 2024-2.
 52 55  0  0  1  0            999 V2000
    4.2797   52.8960   18.4011 C   0  0  0  0  0  0
    2.7394   52.8375   18.3014 N   0  3  0  0  0  0
    2.2172   53.8726   17.2836 C   0  0  0  0  0  0
    2.2068   51.4131   17.9927 C   0  0  0  0  0  0
    2.4350   50.4421   19.1702 C   0  0  0  0  0  0
    1.7175   50.8462   20.3843 N   0  0  0  0  0  0
    2.3023   51.2495   21.5237 C   0  0  0  0  0  0
    3.5208   51.2820   21.6718 O   0  0  0  0  0  0
    1.3719   51.6838   22.6666 C   0  0  0  0  0  0
    1.3898   53.2049   22.9826 C   0  0  0  0  0  0
    2.6124   53.6367   23.6667 N   0  0  0  0  0  0
    3.7775   54.0678   23.0462 C   0  0  0  0  0  0
    4.0703   54.2636   21.6894 C   0  0  0  0  0  0
    5.3543   54.6901   21.3636 C   0  0  0  0  0  0
    6.3209   54.8965   22.3370 C   0  0  0  0  0  0
    6.0460   54.6907   23.6859 C   0  0  0  0  0  0
    4.7489   54.2993   24.0606 C   0  0  0  0  0  0
    4.1243   54.0729   25.3057 C   0  0  0  0  0  0
    2.7918   53.6401   25.0418 C   0  0  0  0  0  0
    1.9033   53.2966   26.0783 C   0  0  0  0  0  0
    2.3542   53.4275   27.3935 C   0  0  0  0  0  0
    3.6493   53.8608   27.6503 C   0  0  0  0  0  0
    4.5360   54.1643   26.6499 C   0  0  0  0  0  0
    5.8182   54.5547   27.2965 C   0  0  0  0  0  0
    6.8819   54.8951   26.7781 O   0  0  0  0  0  0
    5.5779   54.4942   28.6185 N   0  0  0  0  0  0
    4.3311   54.0969   28.9454 C   0  0  0  0  0  0
    3.8809   53.9772   30.0811 O   0  0  0  0  0  0
    7.5524   55.3377   21.9547 O   0  0  0  0  0  0
    4.6975   52.4987   17.4773 H   0  0  0  0  0  0
    4.5821   52.2956   19.2596 H   0  0  0  0  0  0
    4.5700   53.9362   18.5428 H   0  0  0  0  0  0
    2.6064   53.6067   16.2992 H   0  0  0  0  0  0
    1.1277   53.8387   17.3066 H   0  0  0  0  0  0
    2.5700   54.8545   17.6018 H   0  0  0  0  0  0
    1.1407   51.5251   17.7863 H   0  0  0  0  0  0
    2.7045   51.0806   17.0778 H   0  0  0  0  0  0
    2.0760   49.4537   18.8814 H   0  0  0  0  0  0
    3.5037   50.3015   19.3404 H   0  0  0  0  0  0
    0.7137   50.7543   20.3705 H   0  0  0  0  0  0
    0.3480   51.3814   22.4432 H   0  0  0  0  0  0
    1.6463   51.1168   23.5584 H   0  0  0  0  0  0
    1.2717   53.7999   22.0776 H   0  0  0  0  0  0
    0.5360   53.4735   23.6080 H   0  0  0  0  0  0
    3.3322   54.0989   20.9207 H   0  0  0  0  0  0
    5.6083   54.8718   20.3311 H   0  0  0  0  0  0
    6.8178   54.8683   24.4144 H   0  0  0  0  0  0
    0.8996   52.9576   25.8803 H   0  0  0  0  0  0
    1.6856   53.1848   28.2035 H   0  0  0  0  0  0
    6.2760   54.7559   29.2999 H   0  0  0  0  0  0
    8.2148   55.3029   22.6576 H   0  0  0  0  0  0
    2.3648   53.0997   19.2055 H   0  0  0  0  0  0
  1  2  1  0  0  0
  1 30  1  0  0  0
  1 31  1  0  0  0
  1 32  1  0  0  0
  2  3  1  0  0  0
  2  4  1  0  0  0
  2 52  1  0  0  0
  3 33  1  0  0  0
  3 34  1  0  0  0
  3 35  1  0  0  0
  4  5  1  0  0  0
  4 36  1  0  0  0
  4 37  1  0  0  0
  5  6  1  0  0  0
  5 38  1  0  0  0
  5 39  1  0  0  0
  6  7  1  0  0  0
  6 40  1  0  0  0
  7  8  2  0  0  0
  7  9  1  0  0  0
  9 10  1  0  0  0
  9 41  1  0  0  0
  9 42  1  0  0  0
 10 11  1  0  0  0
 10 43  1  0  0  0
 10 44  1  0  0  0
 11 19  1  0  0  0
 11 12  1  0  0  0
 12 17  2  0  0  0
 12 13  1  0  0  0
 13 14  2  0  0  0
 13 45  1  0  0  0
 14 15  1  0  0  0
 14 46  1  0  0  0
 15 16  2  0  0  0
 15 29  1  0  0  0
 16 17  1  0  0  0
 16 47  1  0  0  0
 17 18  1  0  0  0
 18 23  2  0  0  0
 18 19  1  0  0  0
 19 20  2  0  0  0
 20 21  1  0  0  0
 20 48  1  0  0  0
 21 22  2  0  0  0
 21 49  1  0  0  0
 22 27  1  0  0  0
 22 23  1  0  0  0
 23 24  1  0  0  0
 24 25  2  0  0  0
 24 26  1  0  0  0
 26 27  1  0  0  0
 26 50  1  0  0  0
 27 28  2  0  0  0
 29 51  1  0  0  0
M  CHG  1   2   1
M  END
> <i_i_glide_confnum>
8

> <i_i_glide_lignum>
86

> <i_i_glide_posenum>
200

> <i_i_glide_rotatable_bonds>
8

> <i_m_Source_File_Index>
1

> <b_m_subgroup_collapsed>
0

> <r_i_docking_score>
-10.022

> <r_i_glide_ecoul>
-15.3259

> <r_i_glide_eff_state_penalty>
0

> <r_i_glide_einternal>
1.90604

> <r_i_glide_emodel>
-98.2554

> <r_i_glide_energy>
-57.4846

> <r_i_glide_erotb>
0.750347

> <r_i_glide_esite>
-0.0349451

> <r_i_glide_evdw>
-42.1586

> <r_i_glide_gscore>
-10.022

> <r_i_glide_hbond>
-1.13284

> <r_i_glide_ligand_efficiency>
-0.345587

> <r_i_glide_ligand_efficiency_ln>
-2.29479

> <r_i_glide_ligand_efficiency_sa>
-1.06175

> <r_i_glide_lipo>
-2.65935

> <r_i_glide_metal>
0

> <r_i_glide_rewards>
-2.53841

> <s_i_glide_gridfile>
wee1_glide-grid

> <s_m_Source_File>
wee1_actives_glide_SP.sdf

> <s_m_Source_Path>
/Users/zhangxujun/Desktop

> <s_m_entry_id>
139

> <s_m_entry_name>
wee1_actives_glide_SP.1

> <s_m_subgroup_title>
wee1_actives_glide_SP

> <s_m_subgroupid>
wee1_actives_glide_SP


$$$$
