CHEMBL362862_124
                    3D
 Schrodinger Suite 2024-2.
 72 76  0  0  1  0            999 V2000
    2.4126   53.6615   24.3845 C   0  0  0  0  0  0
    3.0838   53.8619   25.6863 N   0  0  0  0  0  0
    4.4435   54.2859   25.6664 C   0  0  0  0  0  0
    5.1276   54.4504   26.8763 C   0  0  0  0  0  0
    4.3800   54.2509   28.1195 C   0  0  0  0  0  0
    3.0813   53.8714   28.0860 C   0  0  0  0  0  0
    2.3742   53.5799   26.8288 C   0  0  0  0  0  0
    1.2341   53.1100   26.8218 O   0  0  0  0  0  0
    2.3148   53.7282   29.3464 C   0  0  0  0  0  0
    2.4080   52.5524   30.1089 C   0  0  0  0  0  0
    1.6136   52.3771   31.2412 C   0  0  0  0  0  0
    0.7020   53.3540   31.6106 C   0  0  0  0  0  0
    0.6174   54.5365   30.8796 C   0  0  0  0  0  0
    1.4402   54.7430   29.7717 C   0  0  0  0  0  0
    1.3702   56.2704   28.9594 Cl  0  0  0  0  0  0
    3.5051   51.2967   29.6816 Cl  0  0  0  0  0  0
    6.4768   54.7877   26.8092 C   0  0  0  0  0  0
    7.1043   54.9807   25.6208 N   0  0  0  0  0  0
    6.3682   54.8377   24.4914 C   0  0  0  0  0  0
    5.0557   54.4963   24.4686 N   0  0  0  0  0  0
    7.0550   55.0960   23.2980 N   0  0  0  0  0  0
    6.6862   55.0811   21.9403 C   0  0  0  0  0  0
    7.5871   55.6436   21.0361 C   0  0  0  0  0  0
    7.3442   55.5801   19.6662 C   0  0  0  0  0  0
    6.1971   54.9508   19.1789 C   0  0  0  0  0  0
    5.2665   54.4285   20.0844 C   0  0  0  0  0  0
    5.5088   54.4930   21.4553 C   0  0  0  0  0  0
    6.0065   54.8441   17.6648 C   0  0  0  0  0  0
    5.0433   53.7395   17.1607 C   0  0  0  0  0  0
    4.9795   53.6020   15.6176 C   0  0  0  0  0  0
    6.2015   52.8898   14.9972 C   0  0  0  0  0  0
    7.3004   53.4393   15.0079 O   0  0  0  0  0  0
    6.0232   51.6527   14.4610 O   0  0  0  0  0  0
    4.7540   51.0461   14.2264 C   0  0  0  0  0  0
    4.8836   49.5716   13.7798 C   0  0  0  0  0  0
    5.3617   49.3479   12.4083 N   0  0  0  0  0  0
    5.2640   47.9162   12.0894 C   0  0  0  0  0  0
    5.7790   47.6020   10.6705 C   0  0  0  0  0  0
    7.1029   48.0969   10.4819 O   0  0  0  0  0  0
    7.2227   49.4934   10.7484 C   0  0  0  0  0  0
    6.7261   49.8402   12.1676 C   0  0  0  0  0  0
    1.3685   53.3584   24.4607 H   0  0  0  0  0  0
    2.4357   54.5853   23.8061 H   0  0  0  0  0  0
    2.9309   52.8967   23.8073 H   0  0  0  0  0  0
    4.8601   54.4476   29.0705 H   0  0  0  0  0  0
    1.6897   51.4817   31.8376 H   0  0  0  0  0  0
    0.0683   53.2016   32.4747 H   0  0  0  0  0  0
   -0.0804   55.2967   31.1900 H   0  0  0  0  0  0
    7.0691   54.9115   27.7047 H   0  0  0  0  0  0
    8.0526   55.2623   23.4404 H   0  0  0  0  0  0
    8.5037   56.0961   21.3879 H   0  0  0  0  0  0
    8.0680   55.9957   18.9814 H   0  0  0  0  0  0
    4.3631   53.9472   19.7449 H   0  0  0  0  0  0
    4.7837   54.0366   22.1080 H   0  0  0  0  0  0
    6.9921   54.6689   17.2353 H   0  0  0  0  0  0
    5.6778   55.8171   17.2980 H   0  0  0  0  0  0
    4.0338   53.9489   17.5183 H   0  0  0  0  0  0
    5.3154   52.7764   17.6028 H   0  0  0  0  0  0
    4.9082   54.5942   15.1712 H   0  0  0  0  0  0
    4.0495   53.1069   15.3486 H   0  0  0  0  0  0
    4.1974   51.6159   13.4807 H   0  0  0  0  0  0
    4.1729   51.0599   15.1493 H   0  0  0  0  0  0
    3.8880   49.1338   13.8669 H   0  0  0  0  0  0
    5.5042   49.0193   14.4807 H   0  0  0  0  0  0
    4.2220   47.6031   12.1765 H   0  0  0  0  0  0
    5.8201   47.3225   12.8192 H   0  0  0  0  0  0
    5.7723   46.5251   10.4989 H   0  0  0  0  0  0
    5.1084   48.0521    9.9356 H   0  0  0  0  0  0
    8.2639   49.7946   10.6337 H   0  0  0  0  0  0
    6.6396   50.0577   10.0179 H   0  0  0  0  0  0
    7.4057   49.4213   12.9134 H   0  0  0  0  0  0
    6.7654   50.9208   12.2929 H   0  0  0  0  0  0
  1  2  1  0  0  0
  1 42  1  0  0  0
  1 43  1  0  0  0
  1 44  1  0  0  0
  2  7  1  0  0  0
  2  3  1  0  0  0
  3 20  2  0  0  0
  3  4  1  0  0  0
  4  5  1  0  0  0
  4 17  2  0  0  0
  5  6  2  0  0  0
  5 45  1  0  0  0
  6  7  1  0  0  0
  6  9  1  0  0  0
  7  8  2  0  0  0
  9 14  2  0  0  0
  9 10  1  0  0  0
 10 11  2  0  0  0
 10 16  1  0  0  0
 11 12  1  0  0  0
 11 46  1  0  0  0
 12 13  2  0  0  0
 12 47  1  0  0  0
 13 14  1  0  0  0
 13 48  1  0  0  0
 14 15  1  0  0  0
 17 18  1  0  0  0
 17 49  1  0  0  0
 18 19  2  0  0  0
 19 20  1  0  0  0
 19 21  1  0  0  0
 21 22  1  0  0  0
 21 50  1  0  0  0
 22 27  2  0  0  0
 22 23  1  0  0  0
 23 24  2  0  0  0
 23 51  1  0  0  0
 24 25  1  0  0  0
 24 52  1  0  0  0
 25 26  2  0  0  0
 25 28  1  0  0  0
 26 27  1  0  0  0
 26 53  1  0  0  0
 27 54  1  0  0  0
 28 29  1  0  0  0
 28 55  1  0  0  0
 28 56  1  0  0  0
 29 30  1  0  0  0
 29 57  1  0  0  0
 29 58  1  0  0  0
 30 31  1  0  0  0
 30 59  1  0  0  0
 30 60  1  0  0  0
 31 32  2  0  0  0
 31 33  1  0  0  0
 33 34  1  0  0  0
 34 35  1  0  0  0
 34 61  1  0  0  0
 34 62  1  0  0  0
 35 36  1  0  0  0
 35 63  1  0  0  0
 35 64  1  0  0  0
 36 41  1  0  0  0
 36 37  1  0  0  0
 37 38  1  0  0  0
 37 65  1  0  0  0
 37 66  1  0  0  0
 38 39  1  0  0  0
 38 67  1  0  0  0
 38 68  1  0  0  0
 39 40  1  0  0  0
 40 41  1  0  0  0
 40 69  1  0  0  0
 40 70  1  0  0  0
 41 71  1  0  0  0
 41 72  1  0  0  0
M  END
> <i_i_glide_confnum>
156

> <i_i_glide_lignum>
125

> <i_i_glide_posenum>
372

> <i_i_glide_rotatable_bonds>
11

> <i_m_Source_File_Index>
56

> <b_m_subgroup_collapsed>
0

> <r_i_docking_score>
-7.61386

> <r_i_glide_ecoul>
-12.2869

> <r_i_glide_eff_state_penalty>
0

> <r_i_glide_einternal>
10.8923

> <r_i_glide_emodel>
-78.6731

> <r_i_glide_energy>
-63.4994

> <r_i_glide_erotb>
0.333117

> <r_i_glide_esite>
-0.00936639

> <r_i_glide_evdw>
-51.2124

> <r_i_glide_gscore>
-7.61386

> <r_i_glide_hbond>
-0.858324

> <r_i_glide_ligand_efficiency>
-0.185704

> <r_i_glide_ligand_efficiency_ln>
-1.61531

> <r_i_glide_ligand_efficiency_sa>
-0.640347

> <r_i_glide_lipo>
-3.52575

> <r_i_glide_metal>
0

> <r_i_glide_rewards>
0.850123

> <s_i_glide_gridfile>
wee1_glide-grid

> <s_m_Source_File>
wee1_actives_glide_SP.sdf

> <s_m_Source_Path>
/Users/zhangxujun/Desktop

> <s_m_entry_id>
194

> <s_m_entry_name>
wee1_actives_glide_SP.56

> <s_m_subgroup_title>
wee1_actives_glide_SP

> <s_m_subgroupid>
wee1_actives_glide_SP


$$$$
