CHEMBL484808_112
                    3D
 Schrodinger Suite 2024-2.
 37 40  0  0  1  0            999 V2000
    5.5860   54.6616   21.1346 C   0  0  0  0  0  0
    4.3045   54.2344   21.4741 C   0  0  0  0  0  0
    4.0125   54.0739   22.8361 C   0  0  0  0  0  0
    4.9893   54.3146   23.8442 C   0  0  0  0  0  0
    6.2890   54.7082   23.4527 C   0  0  0  0  0  0
    6.5624   54.8970   22.0956 C   0  0  0  0  0  0
    7.8091   55.2976   21.6817 O   0  0  0  0  0  0
    4.3596   54.0968   25.0951 C   0  0  0  0  0  0
    3.0125   53.6970   24.8360 C   0  0  0  0  0  0
    2.8322   53.6962   23.4614 N   0  0  0  0  0  0
    1.5810   53.3714   22.7722 C   0  0  0  0  0  0
    1.6228   52.0081   22.0324 C   0  0  0  0  0  0
    1.6615   50.7751   22.9435 C   0  0  0  0  0  0
    1.1045   50.7808   24.0368 O   0  0  0  0  0  0
    2.3041   49.6971   22.4980 N   0  0  0  0  0  0
    2.1103   53.3866   25.8705 C   0  0  0  0  0  0
    2.5599   53.5095   27.1846 C   0  0  0  0  0  0
    3.8646   53.9091   27.4444 C   0  0  0  0  0  0
    4.7619   54.1867   26.4447 C   0  0  0  0  0  0
    6.0417   54.5615   27.0995 C   0  0  0  0  0  0
    7.1016   54.8964   26.5813 O   0  0  0  0  0  0
    5.8009   54.4964   28.4237 N   0  0  0  0  0  0
    4.5426   54.1371   28.7437 C   0  0  0  0  0  0
    4.0711   54.0423   29.8754 O   0  0  0  0  0  0
    5.8294   54.8071   20.0925 H   0  0  0  0  0  0
    3.5640   54.0636   20.7057 H   0  0  0  0  0  0
    7.0641   54.8943   24.1773 H   0  0  0  0  0  0
    8.4665   55.2969   22.3902 H   0  0  0  0  0  0
    0.7533   53.4054   23.4831 H   0  0  0  0  0  0
    1.3857   54.1838   22.0816 H   0  0  0  0  0  0
    0.7280   51.9172   21.4161 H   0  0  0  0  0  0
    2.4627   51.9832   21.3368 H   0  0  0  0  0  0
    2.7283   49.6786   21.5831 H   0  0  0  0  0  0
    2.3706   48.8895   23.1070 H   0  0  0  0  0  0
    1.0967   53.0688   25.6755 H   0  0  0  0  0  0
    1.8798   53.2893   27.9961 H   0  0  0  0  0  0
    6.4954   54.7536   29.1112 H   0  0  0  0  0  0
  1  6  2  0  0  0
  1  2  1  0  0  0
  1 25  1  0  0  0
  2  3  2  0  0  0
  2 26  1  0  0  0
  3 10  1  0  0  0
  3  4  1  0  0  0
  4  5  2  0  0  0
  4  8  1  0  0  0
  5  6  1  0  0  0
  5 27  1  0  0  0
  6  7  1  0  0  0
  7 28  1  0  0  0
  8 19  2  0  0  0
  8  9  1  0  0  0
  9 10  1  0  0  0
  9 16  2  0  0  0
 10 11  1  0  0  0
 11 12  1  0  0  0
 11 29  1  0  0  0
 11 30  1  0  0  0
 12 13  1  0  0  0
 12 31  1  0  0  0
 12 32  1  0  0  0
 13 14  2  0  0  0
 13 15  1  0  0  0
 15 33  1  0  0  0
 15 34  1  0  0  0
 16 17  1  0  0  0
 16 35  1  0  0  0
 17 18  2  0  0  0
 17 36  1  0  0  0
 18 23  1  0  0  0
 18 19  1  0  0  0
 19 20  1  0  0  0
 20 21  2  0  0  0
 20 22  1  0  0  0
 22 23  1  0  0  0
 22 37  1  0  0  0
 23 24  2  0  0  0
M  END
> <i_i_glide_confnum>
1

> <i_i_glide_lignum>
113

> <i_i_glide_posenum>
367

> <i_i_glide_rotatable_bonds>
4

> <i_m_Source_File_Index>
129

> <b_m_subgroup_collapsed>
0

> <r_i_docking_score>
-11.4186

> <r_i_glide_ecoul>
-14.0576

> <r_i_glide_eff_state_penalty>
0

> <r_i_glide_einternal>
1.09627

> <r_i_glide_emodel>
-90.8912

> <r_i_glide_energy>
-53.0491

> <r_i_glide_erotb>
0.358043

> <r_i_glide_esite>
0

> <r_i_glide_evdw>
-38.9915

> <r_i_glide_gscore>
-11.4186

> <r_i_glide_hbond>
-1.38687

> <r_i_glide_ligand_efficiency>
-0.475774

> <r_i_glide_ligand_efficiency_ln>
-2.73299

> <r_i_glide_ligand_efficiency_sa>
-1.37237

> <r_i_glide_lipo>
-2.72027

> <r_i_glide_metal>
0

> <r_i_glide_rewards>
-3.61127

> <s_i_glide_gridfile>
wee1_glide-grid

> <s_m_Source_File>
wee1_actives_glide_SP.sdf

> <s_m_Source_Path>
/Users/zhangxujun/Desktop

> <s_m_entry_id>
267

> <s_m_entry_name>
wee1_actives_glide_SP.129

> <s_m_subgroup_title>
wee1_actives_glide_SP

> <s_m_subgroupid>
wee1_actives_glide_SP


$$$$
