CHEMBL475325_75
                    3D
 Schrodinger Suite 2024-2.
 34 37  0  0  1  0            999 V2000
    5.6581   54.6183   21.0876 C   0  0  0  0  0  0
    4.3806   54.1581   21.4036 C   0  0  0  0  0  0
    4.0584   54.0305   22.7627 C   0  0  0  0  0  0
    5.0080   54.3136   23.7871 C   0  0  0  0  0  0
    6.3049   54.7291   23.4183 C   0  0  0  0  0  0
    6.6060   54.8969   22.0669 C   0  0  0  0  0  0
    7.8544   55.3176   21.6819 O   0  0  0  0  0  0
    4.3655   54.0988   25.0294 C   0  0  0  0  0  0
    3.0241   53.6967   24.7518 C   0  0  0  0  0  0
    2.8724   53.6471   23.3746 N   0  0  0  0  0  0
    1.6570   53.2115   22.6813 C   0  0  0  0  0  0
    1.6223   51.6878   22.4454 C   0  0  0  0  0  0
    1.5049   50.9819   23.6650 O   0  0  0  0  0  0
    2.1030   53.4114   25.7759 C   0  0  0  0  0  0
    2.5331   53.5538   27.0962 C   0  0  0  0  0  0
    3.8393   53.9386   27.3730 C   0  0  0  0  0  0
    4.7538   54.1982   26.3830 C   0  0  0  0  0  0
    6.0325   54.5642   27.0503 C   0  0  0  0  0  0
    7.1042   54.8922   26.5479 O   0  0  0  0  0  0
    5.7758   54.4965   28.3718 N   0  0  0  0  0  0
    4.5065   54.1658   28.6800 C   0  0  0  0  0  0
    4.0215   54.0951   29.8078 O   0  0  0  0  0  0
    5.9267   54.7450   20.0480 H   0  0  0  0  0  0
    3.6696   53.9426   20.6193 H   0  0  0  0  0  0
    7.0585   54.9481   24.1567 H   0  0  0  0  0  0
    8.4976   55.3303   22.4038 H   0  0  0  0  0  0
    0.7579   53.5866   23.1706 H   0  0  0  0  0  0
    1.6627   53.6961   21.7068 H   0  0  0  0  0  0
    0.8276   51.4101   21.7522 H   0  0  0  0  0  0
    2.5600   51.3670   21.9871 H   0  0  0  0  0  0
    1.5929   50.0382   23.4981 H   0  0  0  0  0  0
    1.0938   53.0932   25.5564 H   0  0  0  0  0  0
    1.8400   53.3493   27.9005 H   0  0  0  0  0  0
    6.4682   54.7451   29.0653 H   0  0  0  0  0  0
  1  6  2  0  0  0
  1  2  1  0  0  0
  1 23  1  0  0  0
  2  3  2  0  0  0
  2 24  1  0  0  0
  3 10  1  0  0  0
  3  4  1  0  0  0
  4  5  2  0  0  0
  4  8  1  0  0  0
  5  6  1  0  0  0
  5 25  1  0  0  0
  6  7  1  0  0  0
  7 26  1  0  0  0
  8 17  2  0  0  0
  8  9  1  0  0  0
  9 10  1  0  0  0
  9 14  2  0  0  0
 10 11  1  0  0  0
 11 12  1  0  0  0
 11 27  1  0  0  0
 11 28  1  0  0  0
 12 13  1  0  0  0
 12 29  1  0  0  0
 12 30  1  0  0  0
 13 31  1  0  0  0
 14 15  1  0  0  0
 14 32  1  0  0  0
 15 16  2  0  0  0
 15 33  1  0  0  0
 16 21  1  0  0  0
 16 17  1  0  0  0
 17 18  1  0  0  0
 18 19  2  0  0  0
 18 20  1  0  0  0
 20 21  1  0  0  0
 20 34  1  0  0  0
 21 22  2  0  0  0
M  END
> <i_i_glide_confnum>
3

> <i_i_glide_lignum>
76

> <i_i_glide_posenum>
23

> <i_i_glide_rotatable_bonds>
4

> <i_m_Source_File_Index>
59

> <b_m_subgroup_collapsed>
0

> <r_i_docking_score>
-10.5276

> <r_i_glide_ecoul>
-13.316

> <r_i_glide_eff_state_penalty>
0

> <r_i_glide_einternal>
0.339101

> <r_i_glide_emodel>
-82.1788

> <r_i_glide_energy>
-49.1573

> <r_i_glide_erotb>
0.292143

> <r_i_glide_esite>
0

> <r_i_glide_evdw>
-35.8413

> <r_i_glide_gscore>
-10.5276

> <r_i_glide_hbond>
-0.922985

> <r_i_glide_ligand_efficiency>
-0.478529

> <r_i_glide_ligand_efficiency_ln>
-2.57334

> <r_i_glide_ligand_efficiency_sa>
-1.34086

> <r_i_glide_lipo>
-2.72531

> <r_i_glide_metal>
0

> <r_i_glide_rewards>
-3.38203

> <s_i_glide_gridfile>
wee1_glide-grid

> <s_m_Source_File>
wee1_actives_glide_SP.sdf

> <s_m_Source_Path>
/Users/zhangxujun/Desktop

> <s_m_entry_id>
197

> <s_m_entry_name>
wee1_actives_glide_SP.59

> <s_m_subgroup_title>
wee1_actives_glide_SP

> <s_m_subgroupid>
wee1_actives_glide_SP


$$$$
