CHEMBL272946_21
                    3D
 Schrodinger Suite 2024-2.
 62 67  0  0  1  0            999 V2000
    0.1433   51.8767   29.4470 C   0  0  0  0  0  0
   -0.0955   52.8329   30.4253 C   0  0  0  0  0  0
    0.4190   54.1164   30.2790 C   0  0  0  0  0  0
    1.2082   54.4390   29.1749 C   0  0  0  0  0  0
    1.5474   53.4426   28.2358 C   0  0  0  0  0  0
    0.9777   52.1700   28.3729 C   0  0  0  0  0  0
    2.5130   53.6796   27.1289 C   0  0  0  0  0  0
    2.0806   53.5481   25.8020 C   0  0  0  0  0  0
    3.0052   53.7877   24.7751 C   0  0  0  0  0  0
    4.3600   54.1350   25.0342 C   0  0  0  0  0  0
    5.0004   54.3254   23.7835 C   0  0  0  0  0  0
    6.2998   54.6947   23.3886 C   0  0  0  0  0  0
    6.5734   54.8969   22.0354 C   0  0  0  0  0  0
    5.5907   54.6872   21.0549 C   0  0  0  0  0  0
    4.3038   54.2641   21.4211 C   0  0  0  0  0  0
    4.0263   54.1016   22.7791 C   0  0  0  0  0  0
    2.8472   53.7597   23.4064 N   0  0  0  0  0  0
    1.9823   53.5507   22.9274 H   0  0  0  0  0  0
    5.9475   54.9446   19.5809 C   0  0  0  0  0  0
    4.8334   54.7679   18.5229 C   0  0  0  0  0  0
    4.4692   53.2996   18.2225 C   0  0  0  0  0  0
    3.2022   53.1774   17.3570 C   0  0  0  0  0  0
    2.7834   51.6968   17.2349 N   0  3  0  0  0  0
    1.6956   51.4398   16.1815 C   0  0  0  0  0  0
    1.2078   50.0435   16.5486 C   0  0  0  0  0  0
    1.2161   50.0152   18.0744 C   0  0  0  0  0  0
    2.2417   51.0603   18.5340 C   0  0  0  0  0  0
    7.8393   55.3044   21.6817 O   0  0  0  0  0  0
    4.7584   54.2295   26.3802 C   0  0  0  0  0  0
    3.8541   53.9998   27.3867 C   0  0  0  0  0  0
    4.5926   54.1522   28.6761 C   0  0  0  0  0  0
    4.1756   54.0196   29.8260 O   0  0  0  0  0  0
    5.8458   54.4966   28.3361 N   0  0  0  0  0  0
    6.0540   54.5754   27.0130 C   0  0  0  0  0  0
    7.1044   54.8958   26.4766 O   0  0  0  0  0  0
    1.7381   56.0808   29.0036 Cl  0  0  0  0  0  0
   -0.3002   50.8979   29.5400 H   0  0  0  0  0  0
   -0.7093   52.5847   31.2813 H   0  0  0  0  0  0
    0.1939   54.8711   31.0176 H   0  0  0  0  0  0
    1.1948   51.3921   27.6548 H   0  0  0  0  0  0
    1.0552   53.2874   25.5830 H   0  0  0  0  0  0
    7.0791   54.8672   24.1113 H   0  0  0  0  0  0
    3.5230   54.1143   20.6941 H   0  0  0  0  0  0
    6.8018   54.3211   19.3110 H   0  0  0  0  0  0
    6.3063   55.9740   19.5218 H   0  0  0  0  0  0
    5.1650   55.2344   17.5944 H   0  0  0  0  0  0
    3.9482   55.3326   18.8229 H   0  0  0  0  0  0
    4.3456   52.7358   19.1465 H   0  0  0  0  0  0
    5.3032   52.8231   17.7064 H   0  0  0  0  0  0
    3.3816   53.5262   16.3377 H   0  0  0  0  0  0
    2.3428   53.7086   17.7750 H   0  0  0  0  0  0
    2.1433   51.5330   15.1903 H   0  0  0  0  0  0
    0.9362   52.2156   16.3092 H   0  0  0  0  0  0
    1.9019   49.2990   16.1484 H   0  0  0  0  0  0
    0.2214   49.8308   16.1350 H   0  0  0  0  0  0
    0.2319   50.2667   18.4705 H   0  0  0  0  0  0
    1.4694   49.0223   18.4481 H   0  0  0  0  0  0
    1.7722   51.8471   19.1262 H   0  0  0  0  0  0
    3.1031   50.6352   19.0534 H   0  0  0  0  0  0
    8.4651   55.2983   22.4206 H   0  0  0  0  0  0
    6.5612   54.7261   29.0133 H   0  0  0  0  0  0
    3.5970   51.1431   16.9661 H   0  0  0  0  0  0
  1  6  2  0  0  0
  1  2  1  0  0  0
  1 37  1  0  0  0
  2  3  2  0  0  0
  2 38  1  0  0  0
  3  4  1  0  0  0
  3 39  1  0  0  0
  4  5  2  0  0  0
  4 36  1  0  0  0
  5  6  1  0  0  0
  5  7  1  0  0  0
  6 40  1  0  0  0
  7 30  2  0  0  0
  7  8  1  0  0  0
  8  9  2  0  0  0
  8 41  1  0  0  0
  9 17  1  0  0  0
  9 10  1  0  0  0
 10 11  1  0  0  0
 10 29  2  0  0  0
 11 16  2  0  0  0
 11 12  1  0  0  0
 12 13  2  0  0  0
 12 42  1  0  0  0
 13 14  1  0  0  0
 13 28  1  0  0  0
 14 15  2  0  0  0
 14 19  1  0  0  0
 15 16  1  0  0  0
 15 43  1  0  0  0
 16 17  1  0  0  0
 17 18  1  0  0  0
 19 20  1  0  0  0
 19 44  1  0  0  0
 19 45  1  0  0  0
 20 21  1  0  0  0
 20 46  1  0  0  0
 20 47  1  0  0  0
 21 22  1  0  0  0
 21 48  1  0  0  0
 21 49  1  0  0  0
 22 23  1  0  0  0
 22 50  1  0  0  0
 22 51  1  0  0  0
 23 27  1  0  0  0
 23 24  1  0  0  0
 23 62  1  0  0  0
 24 25  1  0  0  0
 24 52  1  0  0  0
 24 53  1  0  0  0
 25 26  1  0  0  0
 25 54  1  0  0  0
 25 55  1  0  0  0
 26 27  1  0  0  0
 26 56  1  0  0  0
 26 57  1  0  0  0
 27 58  1  0  0  0
 27 59  1  0  0  0
 28 60  1  0  0  0
 29 34  1  0  0  0
 29 30  1  0  0  0
 30 31  1  0  0  0
 31 32  2  0  0  0
 31 33  1  0  0  0
 33 34  1  0  0  0
 33 61  1  0  0  0
 34 35  2  0  0  0
M  CHG  1  23   1
M  END
> <i_i_glide_confnum>
143

> <i_i_glide_lignum>
22

> <i_i_glide_posenum>
323

> <i_i_glide_rotatable_bonds>
7

> <i_m_Source_File_Index>
91

> <b_m_subgroup_collapsed>
0

> <r_i_docking_score>
-11.3256

> <r_i_glide_ecoul>
-15.5435

> <r_i_glide_eff_state_penalty>
0

> <r_i_glide_einternal>
4.43254

> <r_i_glide_emodel>
-116.32

> <r_i_glide_energy>
-66.6198

> <r_i_glide_erotb>
0.297738

> <r_i_glide_esite>
-0.0915764

> <r_i_glide_evdw>
-51.0763

> <r_i_glide_gscore>
-11.3256

> <r_i_glide_hbond>
-1.12274

> <r_i_glide_ligand_efficiency>
-0.32359

> <r_i_glide_ligand_efficiency_ln>
-2.48623

> <r_i_glide_ligand_efficiency_sa>
-1.05848

> <r_i_glide_lipo>
-3.75632

> <r_i_glide_metal>
0

> <r_i_glide_rewards>
-1.76739

> <s_i_glide_gridfile>
wee1_glide-grid

> <s_m_Source_File>
wee1_actives_glide_SP.sdf

> <s_m_Source_Path>
/Users/zhangxujun/Desktop

> <s_m_entry_id>
229

> <s_m_entry_name>
wee1_actives_glide_SP.91

> <s_m_subgroup_title>
wee1_actives_glide_SP

> <s_m_subgroupid>
wee1_actives_glide_SP


$$$$
