CHEMBL472208_1
                    3D
 Schrodinger Suite 2024-2.
 51 56  0  0  1  0            999 V2000
    0.1334   51.8755   29.5092 C   0  0  0  0  0  0
   -0.1446   52.8514   30.4581 C   0  0  0  0  0  0
    0.3758   54.1339   30.3138 C   0  0  0  0  0  0
    1.2080   54.4354   29.2349 C   0  0  0  0  0  0
    1.5703   53.4256   28.3208 C   0  0  0  0  0  0
    1.0034   52.1538   28.4599 C   0  0  0  0  0  0
    2.5350   53.6569   27.2161 C   0  0  0  0  0  0
    2.0960   53.5024   25.8976 C   0  0  0  0  0  0
    3.0006   53.7622   24.8538 C   0  0  0  0  0  0
    4.3484   54.1403   25.0998 C   0  0  0  0  0  0
    4.9736   54.3440   23.8437 C   0  0  0  0  0  0
    6.2717   54.7293   23.4448 C   0  0  0  0  0  0
    6.5431   54.8992   22.0880 C   0  0  0  0  0  0
    5.5656   54.6516   21.1309 C   0  0  0  0  0  0
    4.2834   54.2284   21.4770 C   0  0  0  0  0  0
    3.9937   54.0935   22.8422 C   0  0  0  0  0  0
    2.8197   53.7188   23.4821 N   0  0  0  0  0  0
    1.5868   53.3034   22.8203 C   0  0  0  0  0  0
    1.7604   51.9032   22.1914 C   0  0  0  0  0  0
    0.1300   51.0307   22.0216 S   0  0  2  0  0  0
   -0.9401   52.0967   21.7762 O   0  0  0  0  0  0
   -0.0634   50.5463   23.7877 C   0  0  0  0  0  0
   -0.9266   50.9908   24.6676 N   0  0  0  0  0  0
    1.4455   49.0341   23.9093 H   0  0  0  0  0  0
   -0.6444   50.2454   25.7265 C   0  0  0  0  0  0
    0.3275   49.3666   25.6121 N   0  0  0  0  0  0
    0.7043   49.5636   24.3504 N   0  0  0  0  0  0
    7.7888   55.3062   21.6817 O   0  0  0  0  0  0
    4.7622   54.2306   26.4424 C   0  0  0  0  0  0
    3.8733   53.9924   27.4594 C   0  0  0  0  0  0
    4.6189   54.1596   28.7424 C   0  0  0  0  0  0
    4.2072   54.0401   29.8943 O   0  0  0  0  0  0
    5.8707   54.4967   28.3877 N   0  0  0  0  0  0
    6.0625   54.5768   27.0613 C   0  0  0  0  0  0
    7.1043   54.8966   26.5108 O   0  0  0  0  0  0
    1.7458   56.0740   29.0545 Cl  0  0  0  0  0  0
   -0.3126   50.8967   29.6006 H   0  0  0  0  0  0
   -0.8001   52.6164   31.2817 H   0  0  0  0  0  0
    0.1196   54.8990   31.0312 H   0  0  0  0  0  0
    1.2442   51.3683   27.7571 H   0  0  0  0  0  0
    1.0730   53.2175   25.7047 H   0  0  0  0  0  0
    7.0500   54.9250   24.1604 H   0  0  0  0  0  0
    5.8096   54.7832   20.0858 H   0  0  0  0  0  0
    3.5407   54.0459   20.7130 H   0  0  0  0  0  0
    1.3368   54.0578   22.0801 H   0  0  0  0  0  0
    0.7717   53.3174   23.5418 H   0  0  0  0  0  0
    2.4063   51.2715   22.8011 H   0  0  0  0  0  0
    2.2213   51.9765   21.2062 H   0  0  0  0  0  0
   -1.2011   50.3272   26.6516 H   0  0  0  0  0  0
    8.4437   55.3100   22.3936 H   0  0  0  0  0  0
    6.5928   54.7313   29.0546 H   0  0  0  0  0  0
  1  6  2  0  0  0
  1  2  1  0  0  0
  1 37  1  0  0  0
  2  3  2  0  0  0
  2 38  1  0  0  0
  3  4  1  0  0  0
  3 39  1  0  0  0
  4  5  2  0  0  0
  4 36  1  0  0  0
  5  6  1  0  0  0
  5  7  1  0  0  0
  6 40  1  0  0  0
  7 30  2  0  0  0
  7  8  1  0  0  0
  8  9  2  0  0  0
  8 41  1  0  0  0
  9 17  1  0  0  0
  9 10  1  0  0  0
 10 11  1  0  0  0
 10 29  2  0  0  0
 11 16  2  0  0  0
 11 12  1  0  0  0
 12 13  2  0  0  0
 12 42  1  0  0  0
 13 14  1  0  0  0
 13 28  1  0  0  0
 14 15  2  0  0  0
 14 43  1  0  0  0
 15 16  1  0  0  0
 15 44  1  0  0  0
 16 17  1  0  0  0
 17 18  1  0  0  0
 18 19  1  0  0  0
 18 45  1  0  0  0
 18 46  1  0  0  0
 19 20  1  0  0  0
 19 47  1  0  0  0
 19 48  1  0  0  0
 20 21  2  0  0  0
 20 22  1  0  0  0
 22 23  2  0  0  0
 22 27  1  0  0  0
 23 25  1  0  0  0
 24 27  1  0  0  0
 25 49  1  0  0  0
 25 26  2  0  0  0
 26 27  1  0  0  0
 28 50  1  0  0  0
 29 34  1  0  0  0
 29 30  1  0  0  0
 30 31  1  0  0  0
 31 32  2  0  0  0
 31 33  1  0  0  0
 33 34  1  0  0  0
 33 51  1  0  0  0
 34 35  2  0  0  0
M  END
> <i_i_glide_confnum>
53

> <i_i_glide_lignum>
2

> <i_i_glide_posenum>
340

> <i_i_glide_rotatable_bonds>
6

> <i_m_Source_File_Index>
48

> <b_m_subgroup_collapsed>
0

> <r_i_docking_score>
-12.2397

> <r_i_glide_ecoul>
-16.723

> <r_i_glide_eff_state_penalty>
0

> <r_i_glide_einternal>
5.73991

> <r_i_glide_emodel>
-124.527

> <r_i_glide_energy>
-73.5292

> <r_i_glide_erotb>
0.223772

> <r_i_glide_esite>
-0.0685581

> <r_i_glide_evdw>
-56.8062

> <r_i_glide_gscore>
-12.2397

> <r_i_glide_hbond>
-1.15203

> <r_i_glide_ligand_efficiency>
-0.349707

> <r_i_glide_ligand_efficiency_ln>
-2.6869

> <r_i_glide_ligand_efficiency_sa>
-1.14392

> <r_i_glide_lipo>
-3.86326

> <r_i_glide_metal>
0

> <r_i_glide_rewards>
-2.03091

> <s_i_glide_gridfile>
wee1_glide-grid

> <s_m_Source_File>
wee1_actives_glide_SP.sdf

> <s_m_Source_Path>
/Users/zhangxujun/Desktop

> <s_m_entry_id>
186

> <s_m_entry_name>
wee1_actives_glide_SP.48

> <s_m_subgroup_title>
wee1_actives_glide_SP

> <s_m_subgroupid>
wee1_actives_glide_SP


$$$$
