CHEMBL258067_43
                    3D
 Schrodinger Suite 2024-2.
 70 75  0  0  1  0            999 V2000
    0.6323   54.2509   30.5826 C   0  0  0  0  0  0
   -0.0925   53.0731   30.7036 C   0  0  0  0  0  0
   -0.0626   52.1272   29.6825 C   0  0  0  0  0  0
    0.7458   52.3250   28.5630 C   0  0  0  0  0  0
    1.5555   53.4789   28.4664 C   0  0  0  0  0  0
    1.4360   54.4557   29.4667 C   0  0  0  0  0  0
    2.5254   53.6981   27.3504 C   0  0  0  0  0  0
    2.0640   53.6113   26.0334 C   0  0  0  0  0  0
    2.9610   53.8510   24.9849 C   0  0  0  0  0  0
    4.3245   54.1765   25.2023 C   0  0  0  0  0  0
    4.9273   54.3664   23.9320 C   0  0  0  0  0  0
    6.2180   54.7258   23.4936 C   0  0  0  0  0  0
    6.4602   54.8965   22.1281 C   0  0  0  0  0  0
    5.4587   54.6542   21.1771 C   0  0  0  0  0  0
    4.1761   54.2639   21.5867 C   0  0  0  0  0  0
    3.9205   54.1414   22.9561 C   0  0  0  0  0  0
    2.7432   53.8394   23.6224 N   0  0  0  0  0  0
    1.4656   53.5200   22.9956 C   0  0  0  0  0  0
    1.2476   52.0030   22.8288 C   0  0  0  0  0  0
    2.2970   51.4211   22.0827 O   0  0  0  0  0  0
    5.7850   54.8549   19.6867 C   0  0  0  0  0  0
    4.6833   54.5309   18.6489 C   0  0  0  0  0  0
    4.3659   53.0300   18.4938 C   0  0  0  0  0  0
    3.0848   52.7954   17.6701 C   0  0  0  0  0  0
    2.7041   51.2969   17.5806 N   0  3  0  0  0  0
    1.5679   51.0979   16.5479 C   0  0  0  0  0  0
    1.1173   49.6249   16.5216 C   0  0  0  0  0  0
    0.7971   49.1541   17.8277 O   0  0  0  0  0  0
    1.8723   49.2199   18.7573 C   0  0  0  0  0  0
    2.3507   50.6693   18.9486 C   0  0  0  0  0  0
    7.7099   55.2977   21.7233 O   0  0  0  0  0  0
    4.7570   54.2472   26.5383 C   0  0  0  0  0  0
    3.8794   54.0118   27.5715 C   0  0  0  0  0  0
    4.6605   54.1686   28.8377 C   0  0  0  0  0  0
    4.2849   54.0554   30.0012 O   0  0  0  0  0  0
    5.9047   54.4966   28.4586 N   0  0  0  0  0  0
    6.0723   54.5783   27.1308 C   0  0  0  0  0  0
    7.1044   54.8963   26.5579 O   0  0  0  0  0  0
    0.7055   51.1120   27.3286 Cl  0  0  0  0  0  0
    0.5850   54.9990   31.3625 H   0  0  0  0  0  0
   -0.6966   52.8969   31.5823 H   0  0  0  0  0  0
   -0.6657   51.2321   29.7671 H   0  0  0  0  0  0
    2.0070   55.3716   29.4006 H   0  0  0  0  0  0
    1.0313   53.3758   25.8364 H   0  0  0  0  0  0
    7.0145   54.9071   24.1937 H   0  0  0  0  0  0
    3.3815   54.1010   20.8748 H   0  0  0  0  0  0
    0.6724   53.9223   23.6270 H   0  0  0  0  0  0
    1.3411   54.0746   22.0743 H   0  0  0  0  0  0
    1.2697   51.5104   23.8017 H   0  0  0  0  0  0
    0.2863   51.7903   22.3602 H   0  0  0  0  0  0
    2.4601   51.9668   21.3110 H   0  0  0  0  0  0
    6.6807   54.2806   19.4446 H   0  0  0  0  0  0
    6.0664   55.9029   19.5669 H   0  0  0  0  0  0
    5.0038   54.9130   17.6777 H   0  0  0  0  0  0
    3.7814   55.0960   18.8897 H   0  0  0  0  0  0
    4.2814   52.5705   19.4750 H   0  0  0  0  0  0
    5.2078   52.5317   18.0131 H   0  0  0  0  0  0
    3.2332   53.1278   16.6401 H   0  0  0  0  0  0
    2.2179   53.3081   18.0932 H   0  0  0  0  0  0
    1.9804   51.3782   15.5776 H   0  0  0  0  0  0
    0.7514   51.7684   16.8176 H   0  0  0  0  0  0
    0.2450   49.5067   15.8811 H   0  0  0  0  0  0
    1.9045   49.0040   16.0937 H   0  0  0  0  0  0
    1.5471   48.7993   19.7087 H   0  0  0  0  0  0
    2.7045   48.6027   18.4120 H   0  0  0  0  0  0
    1.5931   51.2984   19.4145 H   0  0  0  0  0  0
    3.2691   50.6587   19.5340 H   0  0  0  0  0  0
    8.3586   55.3096   22.4427 H   0  0  0  0  0  0
    6.6420   54.7263   29.1123 H   0  0  0  0  0  0
    3.4975   50.7458   17.2387 H   0  0  0  0  0  0
  1  6  2  0  0  0
  1  2  1  0  0  0
  1 40  1  0  0  0
  2  3  2  0  0  0
  2 41  1  0  0  0
  3  4  1  0  0  0
  3 42  1  0  0  0
  4  5  2  0  0  0
  4 39  1  0  0  0
  5  6  1  0  0  0
  5  7  1  0  0  0
  6 43  1  0  0  0
  7 33  2  0  0  0
  7  8  1  0  0  0
  8  9  2  0  0  0
  8 44  1  0  0  0
  9 17  1  0  0  0
  9 10  1  0  0  0
 10 11  1  0  0  0
 10 32  2  0  0  0
 11 16  2  0  0  0
 11 12  1  0  0  0
 12 13  2  0  0  0
 12 45  1  0  0  0
 13 14  1  0  0  0
 13 31  1  0  0  0
 14 15  2  0  0  0
 14 21  1  0  0  0
 15 16  1  0  0  0
 15 46  1  0  0  0
 16 17  1  0  0  0
 17 18  1  0  0  0
 18 19  1  0  0  0
 18 47  1  0  0  0
 18 48  1  0  0  0
 19 20  1  0  0  0
 19 49  1  0  0  0
 19 50  1  0  0  0
 20 51  1  0  0  0
 21 22  1  0  0  0
 21 52  1  0  0  0
 21 53  1  0  0  0
 22 23  1  0  0  0
 22 54  1  0  0  0
 22 55  1  0  0  0
 23 24  1  0  0  0
 23 56  1  0  0  0
 23 57  1  0  0  0
 24 25  1  0  0  0
 24 58  1  0  0  0
 24 59  1  0  0  0
 25 30  1  0  0  0
 25 26  1  0  0  0
 25 70  1  0  0  0
 26 27  1  0  0  0
 26 60  1  0  0  0
 26 61  1  0  0  0
 27 28  1  0  0  0
 27 62  1  0  0  0
 27 63  1  0  0  0
 28 29  1  0  0  0
 29 30  1  0  0  0
 29 64  1  0  0  0
 29 65  1  0  0  0
 30 66  1  0  0  0
 30 67  1  0  0  0
 31 68  1  0  0  0
 32 37  1  0  0  0
 32 33  1  0  0  0
 33 34  1  0  0  0
 34 35  2  0  0  0
 34 36  1  0  0  0
 36 37  1  0  0  0
 36 69  1  0  0  0
 37 38  2  0  0  0
M  CHG  1  25   1
M  END
> <i_i_glide_confnum>
69

> <i_i_glide_lignum>
44

> <i_i_glide_posenum>
236

> <i_i_glide_rotatable_bonds>
10

> <i_m_Source_File_Index>
13

> <b_m_subgroup_collapsed>
0

> <r_i_docking_score>
-11.9141

> <r_i_glide_ecoul>
-16.9261

> <r_i_glide_eff_state_penalty>
0

> <r_i_glide_einternal>
2.35823

> <r_i_glide_emodel>
-128.585

> <r_i_glide_energy>
-69.8654

> <r_i_glide_erotb>
0.481275

> <r_i_glide_esite>
-0.1

> <r_i_glide_evdw>
-52.9393

> <r_i_glide_gscore>
-11.9141

> <r_i_glide_hbond>
-1.23983

> <r_i_glide_ligand_efficiency>
-0.305491

> <r_i_glide_ligand_efficiency_ln>
-2.55473

> <r_i_glide_ligand_efficiency_sa>
-1.03598

> <r_i_glide_lipo>
-3.71171

> <r_i_glide_metal>
0

> <r_i_glide_rewards>
-2.158

> <s_i_glide_gridfile>
wee1_glide-grid

> <s_m_Source_File>
wee1_actives_glide_SP.sdf

> <s_m_Source_Path>
/Users/zhangxujun/Desktop

> <s_m_entry_id>
151

> <s_m_entry_name>
wee1_actives_glide_SP.13

> <s_m_subgroup_title>
wee1_actives_glide_SP

> <s_m_subgroupid>
wee1_actives_glide_SP


$$$$
