CHEMBL540206_123
                    3D
 Schrodinger Suite 2024-2.
 64 67  0  0  1  0            999 V2000
    1.9827   58.3071   15.6712 C   0  0  0  0  0  0
    3.2629   58.8963   16.2869 C   0  0  0  0  0  0
    4.4148   57.8587   16.3958 N   0  3  0  0  0  0
    5.7270   58.5598   16.8401 C   0  0  0  0  0  0
    6.3683   59.3136   15.6645 C   0  0  0  0  0  0
    4.0575   56.6145   17.2593 C   0  0  0  0  0  0
    4.9944   55.4151   16.9691 C   0  0  0  0  0  0
    6.2774   55.5107   17.5886 O   0  0  0  0  0  0
    6.3941   55.4070   18.9620 C   0  0  0  0  0  0
    5.3732   54.9486   19.8069 C   0  0  0  0  0  0
    5.5755   54.8812   21.1812 C   0  0  0  0  0  0
    6.8060   55.2533   21.7349 C   0  0  0  0  0  0
    7.8248   55.6967   20.8901 C   0  0  0  0  0  0
    7.6210   55.7698   19.5150 C   0  0  0  0  0  0
    7.1036   55.1730   23.1065 N   0  0  0  0  0  0
    6.3650   54.8843   24.2644 C   0  0  0  0  0  0
    7.0362   55.0530   25.4333 N   0  0  0  0  0  0
    6.3442   54.8530   26.5865 C   0  0  0  0  0  0
    5.0005   54.4819   26.5809 C   0  0  0  0  0  0
    4.1770   54.3089   27.7810 C   0  0  0  0  0  0
    2.8720   53.9567   27.6852 C   0  0  0  0  0  0
    2.2479   53.6237   26.3943 C   0  0  0  0  0  0
    1.1149   53.1392   26.3292 O   0  0  0  0  0  0
    3.0286   53.8670   25.2885 N   0  0  0  0  0  0
    4.3888   54.2915   25.3359 C   0  0  0  0  0  0
    5.0673   54.4968   24.1724 N   0  0  0  0  0  0
    2.4457   53.6037   23.9547 C   0  0  0  0  0  0
    2.0382   53.8998   28.9162 C   0  0  0  0  0  0
    1.5378   55.0732   29.5133 C   0  0  0  0  0  0
    0.7718   55.0029   30.6783 C   0  0  0  0  0  0
    0.5222   53.7755   31.2816 C   0  0  0  0  0  0
    0.9876   52.6191   30.6923 C   0  0  0  0  0  0
    1.7394   52.6678   29.5232 C   0  0  0  0  0  0
    2.3044   51.1733   28.8794 Cl  0  0  0  0  0  0
   -0.0968   53.6967   32.4966 O   0  0  0  0  0  0
    1.8948   56.6403   28.8817 Cl  0  0  0  0  0  0
    1.2885   59.1105   15.4214 H   0  0  0  0  0  0
    1.4526   57.6509   16.3600 H   0  0  0  0  0  0
    2.1883   57.7581   14.7516 H   0  0  0  0  0  0
    3.6359   59.6908   15.6429 H   0  0  0  0  0  0
    3.1043   59.3129   17.2823 H   0  0  0  0  0  0
    5.4814   59.2117   17.6813 H   0  0  0  0  0  0
    6.4169   57.8011   17.1947 H   0  0  0  0  0  0
    7.3133   59.7587   15.9758 H   0  0  0  0  0  0
    6.5765   58.6502   14.8255 H   0  0  0  0  0  0
    5.7496   60.1343   15.3049 H   0  0  0  0  0  0
    4.0549   56.9363   18.3010 H   0  0  0  0  0  0
    3.0460   56.3237   16.9863 H   0  0  0  0  0  0
    4.5155   54.4734   17.2430 H   0  0  0  0  0  0
    5.1547   55.3345   15.8939 H   0  0  0  0  0  0
    4.4143   54.6392   19.4214 H   0  0  0  0  0  0
    4.7633   54.5158   21.7850 H   0  0  0  0  0  0
    8.7888   55.9756   21.2927 H   0  0  0  0  0  0
    8.4207   56.1065   18.8713 H   0  0  0  0  0  0
    8.0927   55.3299   23.3069 H   0  0  0  0  0  0
    6.8754   55.0108   27.5157 H   0  0  0  0  0  0
    4.5973   54.5388   28.7514 H   0  0  0  0  0  0
    1.4374   53.1890   23.9786 H   0  0  0  0  0  0
    2.4042   54.5289   23.3783 H   0  0  0  0  0  0
    3.0687   52.8982   23.4039 H   0  0  0  0  0  0
    0.4317   55.9117   31.1459 H   0  0  0  0  0  0
    0.7870   51.6966   31.1915 H   0  0  0  0  0  0
   -0.5654   52.8546   32.6857 H   0  0  0  0  0  0
    4.5814   57.5128   15.4606 H   0  0  0  0  0  0
  1  2  1  0  0  0
  1 37  1  0  0  0
  1 38  1  0  0  0
  1 39  1  0  0  0
  2  3  1  0  0  0
  2 40  1  0  0  0
  2 41  1  0  0  0
  3  4  1  0  0  0
  3  6  1  0  0  0
  3 64  1  0  0  0
  4  5  1  0  0  0
  4 42  1  0  0  0
  4 43  1  0  0  0
  5 44  1  0  0  0
  5 45  1  0  0  0
  5 46  1  0  0  0
  6  7  1  0  0  0
  6 47  1  0  0  0
  6 48  1  0  0  0
  7  8  1  0  0  0
  7 49  1  0  0  0
  7 50  1  0  0  0
  8  9  1  0  0  0
  9 14  2  0  0  0
  9 10  1  0  0  0
 10 11  2  0  0  0
 10 51  1  0  0  0
 11 12  1  0  0  0
 11 52  1  0  0  0
 12 13  2  0  0  0
 12 15  1  0  0  0
 13 14  1  0  0  0
 13 53  1  0  0  0
 14 54  1  0  0  0
 15 16  1  0  0  0
 15 55  1  0  0  0
 16 26  2  0  0  0
 16 17  1  0  0  0
 17 18  2  0  0  0
 18 19  1  0  0  0
 18 56  1  0  0  0
 19 25  2  0  0  0
 19 20  1  0  0  0
 20 21  2  0  0  0
 20 57  1  0  0  0
 21 22  1  0  0  0
 21 28  1  0  0  0
 22 23  2  0  0  0
 22 24  1  0  0  0
 24 25  1  0  0  0
 24 27  1  0  0  0
 25 26  1  0  0  0
 27 58  1  0  0  0
 27 59  1  0  0  0
 27 60  1  0  0  0
 28 33  2  0  0  0
 28 29  1  0  0  0
 29 30  2  0  0  0
 29 36  1  0  0  0
 30 31  1  0  0  0
 30 61  1  0  0  0
 31 32  2  0  0  0
 31 35  1  0  0  0
 32 33  1  0  0  0
 32 62  1  0  0  0
 33 34  1  0  0  0
 35 63  1  0  0  0
M  CHG  1   3   1
M  END
> <i_i_glide_confnum>
120

> <i_i_glide_lignum>
124

> <i_i_glide_posenum>
232

> <i_i_glide_rotatable_bonds>
10

> <i_m_Source_File_Index>
17

> <b_m_subgroup_collapsed>
0

> <r_i_docking_score>
-11.0696

> <r_i_glide_ecoul>
-16.4164

> <r_i_glide_eff_state_penalty>
0

> <r_i_glide_einternal>
4.73721

> <r_i_glide_emodel>
-112.7

> <r_i_glide_energy>
-66.1353

> <r_i_glide_erotb>
0.360242

> <r_i_glide_esite>
-0.046481

> <r_i_glide_evdw>
-49.7189

> <r_i_glide_gscore>
-11.0696

> <r_i_glide_hbond>
-0.72

> <r_i_glide_ligand_efficiency>
-0.307488

> <r_i_glide_ligand_efficiency_ln>
-2.41508

> <r_i_glide_ligand_efficiency_sa>
-1.0153

> <r_i_glide_lipo>
-3.71519

> <r_i_glide_metal>
0

> <r_i_glide_rewards>
-1.99975

> <s_i_glide_gridfile>
wee1_glide-grid

> <s_m_Source_File>
wee1_actives_glide_SP.sdf

> <s_m_Source_Path>
/Users/zhangxujun/Desktop

> <s_m_entry_id>
155

> <s_m_entry_name>
wee1_actives_glide_SP.17

> <s_m_subgroup_title>
wee1_actives_glide_SP

> <s_m_subgroupid>
wee1_actives_glide_SP


$$$$
