CHEMBL529669_11
                    3D
 Schrodinger Suite 2024-2.
 56 61  0  0  1  0            999 V2000
    0.0869   51.8665   29.5173 C   0  0  0  0  0  0
   -0.1852   52.8285   30.4810 C   0  0  0  0  0  0
    0.3825   54.0952   30.3892 C   0  0  0  0  0  0
    1.2494   54.3992   29.3382 C   0  0  0  0  0  0
    1.5886   53.4073   28.3927 C   0  0  0  0  0  0
    0.9819   52.1490   28.4923 C   0  0  0  0  0  0
    2.5532   53.6376   27.2850 C   0  0  0  0  0  0
    2.1012   53.4878   25.9684 C   0  0  0  0  0  0
    2.9969   53.7391   24.9189 C   0  0  0  0  0  0
    4.3530   54.0998   25.1500 C   0  0  0  0  0  0
    4.9630   54.3088   23.8871 C   0  0  0  0  0  0
    6.2524   54.7063   23.4698 C   0  0  0  0  0  0
    6.5025   54.8964   22.1105 C   0  0  0  0  0  0
    5.5161   54.6348   21.1658 C   0  0  0  0  0  0
    4.2432   54.1933   21.5287 C   0  0  0  0  0  0
    3.9711   54.0625   22.8968 C   0  0  0  0  0  0
    2.7943   53.7250   23.5508 N   0  0  0  0  0  0
    1.5293   53.4113   22.9030 C   0  0  0  0  0  0
    1.4878   51.9359   22.4439 C   0  0  0  0  0  0
    0.3238   51.5906   21.6174 N   0  0  0  0  0  0
    0.3471   52.2132   20.2852 C   0  0  0  0  0  0
   -0.8970   51.8518   19.4428 C   0  0  0  0  0  0
   -2.1003   52.0963   20.1705 O   0  0  0  0  0  0
   -2.1541   51.3709   21.3977 C   0  0  0  0  0  0
   -0.9649   51.7443   22.3062 C   0  0  0  0  0  0
    7.7391   55.3143   21.6819 O   0  0  0  0  0  0
    4.7738   54.1980   26.4887 C   0  0  0  0  0  0
    3.8930   53.9706   27.5156 C   0  0  0  0  0  0
    4.6512   54.1474   28.7897 C   0  0  0  0  0  0
    4.2542   54.0275   29.9459 O   0  0  0  0  0  0
    5.8958   54.4939   28.4204 N   0  0  0  0  0  0
    6.0739   54.5646   27.0930 C   0  0  0  0  0  0
    7.1043   54.8963   26.5276 O   0  0  0  0  0  0
    1.8471   56.0233   29.2346 Cl  0  0  0  0  0  0
   -0.3875   50.8969   29.5750 H   0  0  0  0  0  0
   -0.8702   52.5924   31.2817 H   0  0  0  0  0  0
    0.1364   54.8469   31.1264 H   0  0  0  0  0  0
    1.2061   51.3773   27.7696 H   0  0  0  0  0  0
    1.0722   53.2167   25.7798 H   0  0  0  0  0  0
    7.0387   54.9018   24.1765 H   0  0  0  0  0  0
    5.7430   54.7703   20.1176 H   0  0  0  0  0  0
    3.4976   54.0052   20.7708 H   0  0  0  0  0  0
    1.4180   54.1066   22.0815 H   0  0  0  0  0  0
    0.7137   53.6419   23.5872 H   0  0  0  0  0  0
    1.4913   51.2767   23.3133 H   0  0  0  0  0  0
    2.3902   51.6909   21.8804 H   0  0  0  0  0  0
    1.2549   51.9096   19.7627 H   0  0  0  0  0  0
    0.4079   53.2961   20.3712 H   0  0  0  0  0  0
   -0.9126   52.4356   18.5212 H   0  0  0  0  0  0
   -0.8450   50.8008   19.1546 H   0  0  0  0  0  0
   -3.0964   51.5816   21.9037 H   0  0  0  0  0  0
   -2.1360   50.2981   21.1964 H   0  0  0  0  0  0
   -1.0926   52.7697   22.6521 H   0  0  0  0  0  0
   -0.9708   51.1235   23.2035 H   0  0  0  0  0  0
    8.4065   55.3295   22.3831 H   0  0  0  0  0  0
    6.6208   54.7422   29.0787 H   0  0  0  0  0  0
  1  6  2  0  0  0
  1  2  1  0  0  0
  1 35  1  0  0  0
  2  3  2  0  0  0
  2 36  1  0  0  0
  3  4  1  0  0  0
  3 37  1  0  0  0
  4  5  2  0  0  0
  4 34  1  0  0  0
  5  6  1  0  0  0
  5  7  1  0  0  0
  6 38  1  0  0  0
  7 28  2  0  0  0
  7  8  1  0  0  0
  8  9  2  0  0  0
  8 39  1  0  0  0
  9 17  1  0  0  0
  9 10  1  0  0  0
 10 11  1  0  0  0
 10 27  2  0  0  0
 11 16  2  0  0  0
 11 12  1  0  0  0
 12 13  2  0  0  0
 12 40  1  0  0  0
 13 14  1  0  0  0
 13 26  1  0  0  0
 14 15  2  0  0  0
 14 41  1  0  0  0
 15 16  1  0  0  0
 15 42  1  0  0  0
 16 17  1  0  0  0
 17 18  1  0  0  0
 18 19  1  0  0  0
 18 43  1  0  0  0
 18 44  1  0  0  0
 19 20  1  0  0  0
 19 45  1  0  0  0
 19 46  1  0  0  0
 20 25  1  0  0  0
 20 21  1  0  0  0
 21 22  1  0  0  0
 21 47  1  0  0  0
 21 48  1  0  0  0
 22 23  1  0  0  0
 22 49  1  0  0  0
 22 50  1  0  0  0
 23 24  1  0  0  0
 24 25  1  0  0  0
 24 51  1  0  0  0
 24 52  1  0  0  0
 25 53  1  0  0  0
 25 54  1  0  0  0
 26 55  1  0  0  0
 27 32  1  0  0  0
 27 28  1  0  0  0
 28 29  1  0  0  0
 29 30  2  0  0  0
 29 31  1  0  0  0
 31 32  1  0  0  0
 31 56  1  0  0  0
 32 33  2  0  0  0
M  END
> <i_i_glide_confnum>
18

> <i_i_glide_lignum>
12

> <i_i_glide_posenum>
301

> <i_i_glide_rotatable_bonds>
5

> <i_m_Source_File_Index>
88

> <b_m_subgroup_collapsed>
0

> <r_i_docking_score>
-12.4363

> <r_i_glide_ecoul>
-16.4138

> <r_i_glide_eff_state_penalty>
0

> <r_i_glide_einternal>
6.22148

> <r_i_glide_emodel>
-117.6

> <r_i_glide_energy>
-69.3233

> <r_i_glide_erotb>
0.35754

> <r_i_glide_esite>
0

> <r_i_glide_evdw>
-52.9095

> <r_i_glide_gscore>
-12.4363

> <r_i_glide_hbond>
-1.36244

> <r_i_glide_ligand_efficiency>
-0.365772

> <r_i_glide_ligand_efficiency_ln>
-2.74752

> <r_i_glide_ligand_efficiency_sa>
-1.18496

> <r_i_glide_lipo>
-3.92055

> <r_i_glide_metal>
0

> <r_i_glide_rewards>
-2.40325

> <s_i_glide_gridfile>
wee1_glide-grid

> <s_m_Source_File>
wee1_actives_glide_SP.sdf

> <s_m_Source_Path>
/Users/zhangxujun/Desktop

> <s_m_entry_id>
226

> <s_m_entry_name>
wee1_actives_glide_SP.88

> <s_m_subgroup_title>
wee1_actives_glide_SP

> <s_m_subgroupid>
wee1_actives_glide_SP


$$$$
