CHEMBL508294_96
                    3D
 Schrodinger Suite 2024-2.
 51 56  0  0  1  0            999 V2000
   -0.0954   53.2397   30.8229 C   0  0  0  0  0  0
    0.4890   54.4758   30.5769 C   0  0  0  0  0  0
    1.2964   54.6566   29.4569 C   0  0  0  0  0  0
    1.5792   53.5705   28.6030 C   0  0  0  0  0  0
    0.9503   52.3341   28.8490 C   0  0  0  0  0  0
    0.0976   52.1865   29.9389 C   0  0  0  0  0  0
    1.2111   50.9544   27.8329 Cl  0  0  0  0  0  0
    2.5142   53.7213   27.4566 C   0  0  0  0  0  0
    2.0219   53.5330   26.1650 C   0  0  0  0  0  0
    2.8937   53.7005   25.0802 C   0  0  0  0  0  0
    4.2444   54.0925   25.2573 C   0  0  0  0  0  0
    4.7977   54.2520   23.9728 C   0  0  0  0  0  0
    6.0713   54.6579   23.5310 C   0  0  0  0  0  0
    6.2955   54.8266   22.1704 C   0  0  0  0  0  0
    5.2969   54.5409   21.2494 C   0  0  0  0  0  0
    4.0348   54.0943   21.6404 C   0  0  0  0  0  0
    3.7793   53.9441   23.0136 C   0  0  0  0  0  0
    2.6490   53.5242   23.7283 N   0  0  0  0  0  0
    1.3206   53.0279   23.3068 C   0  0  0  0  0  0
    1.0251   52.7913   21.8167 C   0  0  0  0  0  0
    1.6871   51.6488   21.1951 N   0  0  0  0  0  0
    1.6914   50.3365   21.6571 C   0  0  0  0  0  0
    2.3110   49.5387   20.7003 C   0  0  0  0  0  0
    2.7163   50.3702   19.6684 N   0  3  0  0  0  0
    2.3106   51.6519   19.9593 C   0  0  0  0  0  0
    7.5050   55.2972   21.7316 O   0  0  0  0  0  0
    4.7225   54.2173   26.5769 C   0  0  0  0  0  0
    3.8677   54.0249   27.6338 C   0  0  0  0  0  0
    4.6610   54.1947   28.8809 C   0  0  0  0  0  0
    4.2851   54.0970   30.0472 O   0  0  0  0  0  0
    5.9041   54.4967   28.4748 N   0  0  0  0  0  0
    6.0604   54.5359   27.1407 C   0  0  0  0  0  0
    7.1044   54.8006   26.5555 O   0  0  0  0  0  0
    1.9034   56.2520   29.1529 Cl  0  0  0  0  0  0
   -0.7313   53.0994   31.6815 H   0  0  0  0  0  0
    0.3045   55.2996   31.2509 H   0  0  0  0  0  0
   -0.4143   51.2510   30.1052 H   0  0  0  0  0  0
    0.9859   53.2637   26.0196 H   0  0  0  0  0  0
    6.8608   54.8978   24.2213 H   0  0  0  0  0  0
    5.5001   54.6828   20.1972 H   0  0  0  0  0  0
    3.2973   53.9193   20.8818 H   0  0  0  0  0  0
    0.5981   53.7626   23.6669 H   0  0  0  0  0  0
    1.1138   52.1155   23.8682 H   0  0  0  0  0  0
    1.2468   53.6966   21.2818 H   0  0  0  0  0  0
   -0.0449   52.6271   21.6856 H   0  0  0  0  0  0
    1.2420   50.0843   22.6084 H   0  0  0  0  0  0
    2.5382   48.4810   20.6731 H   0  0  0  0  0  0
    2.4555   52.5134   19.3211 H   0  0  0  0  0  0
    8.1783   55.3378   22.4218 H   0  0  0  0  0  0
    6.6527   54.7297   29.1140 H   0  0  0  0  0  0
    3.2447   50.0960   18.8386 H   0  0  0  0  0  0
  1  6  2  0  0  0
  1  2  1  0  0  0
  1 35  1  0  0  0
  2  3  2  0  0  0
  2 36  1  0  0  0
  3  4  1  0  0  0
  3 34  1  0  0  0
  4  5  2  0  0  0
  4  8  1  0  0  0
  5  6  1  0  0  0
  5  7  1  0  0  0
  6 37  1  0  0  0
  8 28  2  0  0  0
  8  9  1  0  0  0
  9 10  2  0  0  0
  9 38  1  0  0  0
 10 18  1  0  0  0
 10 11  1  0  0  0
 11 12  1  0  0  0
 11 27  2  0  0  0
 12 17  2  0  0  0
 12 13  1  0  0  0
 13 14  2  0  0  0
 13 39  1  0  0  0
 14 15  1  0  0  0
 14 26  1  0  0  0
 15 16  2  0  0  0
 15 40  1  0  0  0
 16 17  1  0  0  0
 16 41  1  0  0  0
 17 18  1  0  0  0
 18 19  1  0  0  0
 19 20  1  0  0  0
 19 42  1  0  0  0
 19 43  1  0  0  0
 20 21  1  0  0  0
 20 44  1  0  0  0
 20 45  1  0  0  0
 21 25  1  0  0  0
 21 22  1  0  0  0
 22 23  2  0  0  0
 22 46  1  0  0  0
 23 24  1  0  0  0
 23 47  1  0  0  0
 24 25  2  0  0  0
 24 51  1  0  0  0
 25 48  1  0  0  0
 26 49  1  0  0  0
 27 32  1  0  0  0
 27 28  1  0  0  0
 28 29  1  0  0  0
 29 30  2  0  0  0
 29 31  1  0  0  0
 31 32  1  0  0  0
 31 50  1  0  0  0
 32 33  2  0  0  0
M  CHG  1  24   1
M  END
> <i_i_glide_confnum>
23

> <i_i_glide_lignum>
97

> <i_i_glide_posenum>
161

> <i_i_glide_rotatable_bonds>
5

> <i_m_Source_File_Index>
85

> <b_m_subgroup_collapsed>
0

> <r_i_docking_score>
-11.818

> <r_i_glide_ecoul>
-15.2113

> <r_i_glide_eff_state_penalty>
0

> <r_i_glide_einternal>
8.73211

> <r_i_glide_emodel>
-115.888

> <r_i_glide_energy>
-67.0241

> <r_i_glide_erotb>
0.336048

> <r_i_glide_esite>
-0.0947262

> <r_i_glide_evdw>
-51.8128

> <r_i_glide_gscore>
-11.818

> <r_i_glide_hbond>
-1.02362

> <r_i_glide_ligand_efficiency>
-0.34759

> <r_i_glide_ligand_efficiency_ln>
-2.61094

> <r_i_glide_ligand_efficiency_sa>
-1.12606

> <r_i_glide_lipo>
-3.97294

> <r_i_glide_metal>
0

> <r_i_glide_rewards>
-2.19047

> <s_i_glide_gridfile>
wee1_glide-grid

> <s_m_Source_File>
wee1_actives_glide_SP.sdf

> <s_m_Source_Path>
/Users/zhangxujun/Desktop

> <s_m_entry_id>
223

> <s_m_entry_name>
wee1_actives_glide_SP.85

> <s_m_subgroup_title>
wee1_actives_glide_SP

> <s_m_subgroupid>
wee1_actives_glide_SP


$$$$
