CHEMBL181314_52
                    3D
 Schrodinger Suite 2024-2.
 54 57  0  0  1  0            999 V2000
    2.4209   53.6121   23.8930 C   0  0  0  0  0  0
    3.0085   53.8770   25.2237 N   0  0  0  0  0  0
    4.3690   54.2995   25.2650 C   0  0  0  0  0  0
    4.9778   54.4967   26.5112 C   0  0  0  0  0  0
    4.1587   54.3335   27.7144 C   0  0  0  0  0  0
    2.8553   53.9807   27.6240 C   0  0  0  0  0  0
    2.2331   53.6356   26.3344 C   0  0  0  0  0  0
    1.1044   53.1421   26.2756 O   0  0  0  0  0  0
    2.0314   53.9187   28.8636 C   0  0  0  0  0  0
    1.5449   55.0874   29.4834 C   0  0  0  0  0  0
    0.7886   55.0082   30.6522 C   0  0  0  0  0  0
    0.5323   53.7774   31.2437 C   0  0  0  0  0  0
    0.9911   52.6247   30.6385 C   0  0  0  0  0  0
    1.7353   52.6813   29.4631 C   0  0  0  0  0  0
    2.3044   51.1961   28.7988 Cl  0  0  0  0  0  0
   -0.0956   53.6967   32.4551 O   0  0  0  0  0  0
    1.9044   56.6647   28.8817 Cl  0  0  0  0  0  0
    6.3179   54.8707   26.5210 C   0  0  0  0  0  0
    7.0124   55.0652   25.3710 N   0  0  0  0  0  0
    6.3461   54.8899   24.2004 C   0  0  0  0  0  0
    5.0500   54.4967   24.0984 N   0  0  0  0  0  0
    7.1044   55.1782   23.0584 N   0  0  0  0  0  0
    6.8624   55.2967   21.6815 C   0  0  0  0  0  0
    5.6363   55.0121   21.0733 C   0  0  0  0  0  0
    5.4903   55.1786   19.6978 C   0  0  0  0  0  0
    6.5572   55.6214   18.9187 C   0  0  0  0  0  0
    7.8065   55.8180   19.5155 C   0  0  0  0  0  0
    7.9445   55.6926   20.8927 C   0  0  0  0  0  0
    6.3139   55.8303   17.5784 O   0  0  0  0  0  0
    7.0124   56.8682   16.8803 C   0  0  0  0  0  0
    6.6319   58.3036   17.3360 C   0  0  0  0  0  0
    7.4758   58.9264   18.4817 C   0  0  0  0  0  0
    8.9053   59.3423   18.0817 C   0  0  0  0  0  0
    9.5044   60.0967   18.8817 O   0  0  0  0  0  0
    9.3950   58.9150   17.0133 O   0  5  0  0  0  0
    1.4069   53.2104   23.9214 H   0  0  0  0  0  0
    2.3893   54.5337   23.3105 H   0  0  0  0  0  0
    3.0354   52.8967   23.3452 H   0  0  0  0  0  0
    4.5834   54.5664   28.6819 H   0  0  0  0  0  0
    0.4577   55.9137   31.1324 H   0  0  0  0  0  0
    0.7874   51.6967   31.1268 H   0  0  0  0  0  0
   -0.5606   52.8524   32.6423 H   0  0  0  0  0  0
    6.8457   55.0380   27.4503 H   0  0  0  0  0  0
    8.0867   55.3352   23.2836 H   0  0  0  0  0  0
    4.7830   54.6831   21.6434 H   0  0  0  0  0  0
    4.5326   54.9906   19.2345 H   0  0  0  0  0  0
    8.6627   56.1192   18.9303 H   0  0  0  0  0  0
    8.9091   55.8916   21.3382 H   0  0  0  0  0  0
    6.7150   56.7598   15.8370 H   0  0  0  0  0  0
    8.0884   56.6968   16.8797 H   0  0  0  0  0  0
    5.5831   58.3008   17.6351 H   0  0  0  0  0  0
    6.6696   58.9766   16.4770 H   0  0  0  0  0  0
    7.5173   58.2634   19.3318 H   0  0  0  0  0  0
    6.9736   59.8027   18.8817 H   0  0  0  0  0  0
  1  2  1  0  0  0
  1 36  1  0  0  0
  1 37  1  0  0  0
  1 38  1  0  0  0
  2  7  1  0  0  0
  2  3  1  0  0  0
  3 21  2  0  0  0
  3  4  1  0  0  0
  4  5  1  0  0  0
  4 18  2  0  0  0
  5  6  2  0  0  0
  5 39  1  0  0  0
  6  7  1  0  0  0
  6  9  1  0  0  0
  7  8  2  0  0  0
  9 14  2  0  0  0
  9 10  1  0  0  0
 10 11  2  0  0  0
 10 17  1  0  0  0
 11 12  1  0  0  0
 11 40  1  0  0  0
 12 13  2  0  0  0
 12 16  1  0  0  0
 13 14  1  0  0  0
 13 41  1  0  0  0
 14 15  1  0  0  0
 16 42  1  0  0  0
 18 19  1  0  0  0
 18 43  1  0  0  0
 19 20  2  0  0  0
 20 21  1  0  0  0
 20 22  1  0  0  0
 22 23  1  0  0  0
 22 44  1  0  0  0
 23 28  2  0  0  0
 23 24  1  0  0  0
 24 25  2  0  0  0
 24 45  1  0  0  0
 25 26  1  0  0  0
 25 46  1  0  0  0
 26 27  2  0  0  0
 26 29  1  0  0  0
 27 28  1  0  0  0
 27 47  1  0  0  0
 28 48  1  0  0  0
 29 30  1  0  0  0
 30 31  1  0  0  0
 30 49  1  0  0  0
 30 50  1  0  0  0
 31 32  1  0  0  0
 31 51  1  0  0  0
 31 52  1  0  0  0
 32 33  1  0  0  0
 32 53  1  0  0  0
 32 54  1  0  0  0
 33 34  2  0  0  0
 33 35  1  0  0  0
M  CHG  1  35  -1
M  END
> <i_i_glide_confnum>
179

> <i_i_glide_lignum>
53

> <i_i_glide_posenum>
362

> <i_i_glide_rotatable_bonds>
9

> <i_m_Source_File_Index>
79

> <b_m_subgroup_collapsed>
0

> <r_i_docking_score>
-10.6969

> <r_i_glide_ecoul>
-15.2873

> <r_i_glide_eff_state_penalty>
0

> <r_i_glide_einternal>
11.6134

> <r_i_glide_emodel>
-103.417

> <r_i_glide_energy>
-62.8638

> <r_i_glide_erotb>
0.379934

> <r_i_glide_esite>
-0.0609114

> <r_i_glide_evdw>
-47.5765

> <r_i_glide_gscore>
-10.6969

> <r_i_glide_hbond>
-0.92

> <r_i_glide_ligand_efficiency>
-0.305626

> <r_i_glide_ligand_efficiency_ln>
-2.34821

> <r_i_glide_ligand_efficiency_sa>
-0.999724

> <r_i_glide_lipo>
-3.6155

> <r_i_glide_metal>
0

> <r_i_glide_rewards>
-1.80852

> <s_i_glide_gridfile>
wee1_glide-grid

> <s_m_Source_File>
wee1_actives_glide_SP.sdf

> <s_m_Source_Path>
/Users/zhangxujun/Desktop

> <s_m_entry_id>
217

> <s_m_entry_name>
wee1_actives_glide_SP.79

> <s_m_subgroup_title>
wee1_actives_glide_SP

> <s_m_subgroupid>
wee1_actives_glide_SP


$$$$
