CHEMBL366922_17
                    3D
 Schrodinger Suite 2024-2.
 54 57  0  0  1  0            999 V2000
    2.3505   53.8845   23.3797 C   0  0  0  0  0  0
    2.8645   53.9054   24.7706 N   0  0  0  0  0  0
    4.2434   54.1827   24.9542 C   0  0  0  0  0  0
    4.7878   54.1614   26.2435 C   0  0  0  0  0  0
    3.8780   53.8945   27.3609 C   0  0  0  0  0  0
    2.5503   53.7015   27.1564 C   0  0  0  0  0  0
    1.9964   53.6089   25.7891 C   0  0  0  0  0  0
    0.8369   53.2730   25.5621 O   0  0  0  0  0  0
    1.6391   53.6513   28.3484 C   0  0  0  0  0  0
    1.5254   54.7744   29.2023 C   0  0  0  0  0  0
    0.7777   54.7131   30.3737 C   0  0  0  0  0  0
    0.0658   53.5698   30.6882 C   0  0  0  0  0  0
    0.0555   52.4951   29.8090 C   0  0  0  0  0  0
    0.8893   52.4973   28.6771 C   0  0  0  0  0  0
    1.0025   51.0535   27.7183 Cl  0  0  0  0  0  0
   -0.7968   51.4610   30.0838 O   0  0  0  0  0  0
    2.3040   56.2812   28.8816 Cl  0  0  0  0  0  0
    6.1422   54.4724   26.3705 C   0  0  0  0  0  0
    6.9079   54.7834   25.2906 N   0  0  0  0  0  0
    6.2969   54.7758   24.0751 C   0  0  0  0  0  0
    4.9954   54.4833   23.8654 N   0  0  0  0  0  0
    7.1044   55.1189   22.9902 N   0  0  0  0  0  0
    6.9169   55.2966   21.6097 C   0  0  0  0  0  0
    5.7092   55.0822   20.9352 C   0  0  0  0  0  0
    5.6190   55.3311   19.5668 C   0  0  0  0  0  0
    6.7215   55.8103   18.8592 C   0  0  0  0  0  0
    7.9437   55.9665   19.5260 C   0  0  0  0  0  0
    8.0367   55.6977   20.8847 C   0  0  0  0  0  0
    6.5366   56.1048   17.5219 O   0  0  0  0  0  0
    7.4111   57.0380   16.8808 C   0  0  0  0  0  0
    7.2162   58.4780   17.4150 C   0  0  0  0  0  0
    8.3214   59.4831   17.0051 C   0  0  0  0  0  0
    9.5501   59.4281   17.9319 C   0  0  0  0  0  0
   10.1241   58.3286   18.0790 O   0  0  0  0  0  0
    9.9044   60.4965   18.4820 O   0  5  0  0  0  0
    1.2872   53.6557   23.2941 H   0  0  0  0  0  0
    2.5084   54.8540   22.9037 H   0  0  0  0  0  0
    2.8880   53.1403   22.7910 H   0  0  0  0  0  0
    4.2562   53.9647   28.3723 H   0  0  0  0  0  0
    0.7398   55.5631   31.0396 H   0  0  0  0  0  0
   -0.4972   53.5359   31.6077 H   0  0  0  0  0  0
   -1.1723   51.4821   30.9744 H   0  0  0  0  0  0
    6.6270   54.4933   27.3367 H   0  0  0  0  0  0
    8.0705   55.2661   23.2779 H   0  0  0  0  0  0
    4.8258   54.7383   21.4454 H   0  0  0  0  0  0
    4.6803   55.1813   19.0542 H   0  0  0  0  0  0
    8.8319   56.3049   19.0147 H   0  0  0  0  0  0
    8.9899   55.8406   21.3733 H   0  0  0  0  0  0
    7.1806   57.0239   15.8149 H   0  0  0  0  0  0
    8.4464   56.7058   16.9461 H   0  0  0  0  0  0
    7.0968   58.4833   18.5002 H   0  0  0  0  0  0
    6.2627   58.8465   17.0327 H   0  0  0  0  0  0
    7.9054   60.4914   17.0305 H   0  0  0  0  0  0
    8.6384   59.3168   15.9743 H   0  0  0  0  0  0
  1  2  1  0  0  0
  1 36  1  0  0  0
  1 37  1  0  0  0
  1 38  1  0  0  0
  2  7  1  0  0  0
  2  3  1  0  0  0
  3 21  2  0  0  0
  3  4  1  0  0  0
  4  5  1  0  0  0
  4 18  2  0  0  0
  5  6  2  0  0  0
  5 39  1  0  0  0
  6  7  1  0  0  0
  6  9  1  0  0  0
  7  8  2  0  0  0
  9 14  2  0  0  0
  9 10  1  0  0  0
 10 11  2  0  0  0
 10 17  1  0  0  0
 11 12  1  0  0  0
 11 40  1  0  0  0
 12 13  2  0  0  0
 12 41  1  0  0  0
 13 14  1  0  0  0
 13 16  1  0  0  0
 14 15  1  0  0  0
 16 42  1  0  0  0
 18 19  1  0  0  0
 18 43  1  0  0  0
 19 20  2  0  0  0
 20 21  1  0  0  0
 20 22  1  0  0  0
 22 23  1  0  0  0
 22 44  1  0  0  0
 23 28  2  0  0  0
 23 24  1  0  0  0
 24 25  2  0  0  0
 24 45  1  0  0  0
 25 26  1  0  0  0
 25 46  1  0  0  0
 26 27  2  0  0  0
 26 29  1  0  0  0
 27 28  1  0  0  0
 27 47  1  0  0  0
 28 48  1  0  0  0
 29 30  1  0  0  0
 30 31  1  0  0  0
 30 49  1  0  0  0
 30 50  1  0  0  0
 31 32  1  0  0  0
 31 51  1  0  0  0
 31 52  1  0  0  0
 32 33  1  0  0  0
 32 53  1  0  0  0
 32 54  1  0  0  0
 33 34  2  0  0  0
 33 35  1  0  0  0
M  CHG  1  35  -1
M  END
> <i_i_glide_confnum>
111

> <i_i_glide_lignum>
18

> <i_i_glide_posenum>
231

> <i_i_glide_rotatable_bonds>
9

> <i_m_Source_File_Index>
19

> <b_m_subgroup_collapsed>
0

> <r_i_docking_score>
-9.70331

> <r_i_glide_ecoul>
-11.1577

> <r_i_glide_eff_state_penalty>
0

> <r_i_glide_einternal>
14.4852

> <r_i_glide_emodel>
-86.025

> <r_i_glide_energy>
-55.9768

> <r_i_glide_erotb>
0.379934

> <r_i_glide_esite>
-0.0418082

> <r_i_glide_evdw>
-44.819

> <r_i_glide_gscore>
-9.70331

> <r_i_glide_hbond>
-0.7949

> <r_i_glide_ligand_efficiency>
-0.277237

> <r_i_glide_ligand_efficiency_ln>
-2.13009

> <r_i_glide_ligand_efficiency_sa>
-0.906862

> <r_i_glide_lipo>
-3.4052

> <r_i_glide_metal>
0

> <r_i_glide_rewards>
-1.92672

> <s_i_glide_gridfile>
wee1_glide-grid

> <s_m_Source_File>
wee1_actives_glide_SP.sdf

> <s_m_Source_Path>
/Users/zhangxujun/Desktop

> <s_m_entry_id>
157

> <s_m_entry_name>
wee1_actives_glide_SP.19

> <s_m_subgroup_title>
wee1_actives_glide_SP

> <s_m_subgroupid>
wee1_actives_glide_SP


$$$$
