ZINC39923351_222
                    3D
 Schrodinger Suite 2024-2.
 41 44  0  0  1  0            999 V2000
    0.5491   53.9718   30.2541 C   0  0  0  0  0  0
   -0.2438   52.8967   30.8298 C   0  0  0  0  0  0
   -0.7144   51.8650   30.0817 C   0  0  0  0  0  0
   -0.4280   51.7992   28.7119 C   0  0  0  0  0  0
   -0.7748   50.8967   27.8336 N   0  3  0  0  0  0
   -0.1874   51.2167   26.5304 C   0  0  0  0  0  0
    0.5887   52.4923   26.8115 C   0  0  0  0  0  0
    0.3634   52.7832   28.1113 C   0  0  0  0  0  0
    0.8433   53.9042   28.9407 C   0  0  0  0  0  0
    1.4320   53.2542   25.9039 C   0  0  0  0  0  0
    1.6863   52.9871   24.6019 C   0  0  0  0  0  0
    2.5646   53.8495   23.8437 C   0  0  0  0  0  0
    3.1044   54.8720   24.2770 O   0  0  0  0  0  0
    2.7179   53.3534   22.5884 N   0  0  0  0  0  0
    2.0377   52.2302   22.2110 C   0  0  0  0  0  0
    1.9873   51.4187   20.7542 S   0  0  0  0  0  0
    1.1125   51.6655   23.5750 S   0  0  0  0  0  0
    3.5044   54.0967   21.6817 N   0  0  0  0  0  0
    4.8375   53.8803   21.6052 C   0  0  0  0  0  0
    5.4579   53.1329   22.3665 O   0  0  0  0  0  0
    5.5586   54.6799   20.5476 C   0  0  0  0  0  0
    5.0335   54.7522   19.2473 C   0  0  0  0  0  0
    5.7073   55.4510   18.2468 C   0  0  0  0  0  0
    6.9198   56.0769   18.5262 C   0  0  0  0  0  0
    7.4546   56.0152   19.8112 C   0  0  0  0  0  0
    6.7763   55.3354   20.8238 C   0  0  0  0  0  0
    7.3234   55.3457   22.0817 O   0  0  0  0  0  0
    0.8836   54.7999   30.8629 H   0  0  0  0  0  0
   -0.4618   52.9194   31.8867 H   0  0  0  0  0  0
   -1.2956   51.0931   30.5733 H   0  0  0  0  0  0
    0.4377   50.3714   26.2371 H   0  0  0  0  0  0
   -1.0043   51.3412   25.8185 H   0  0  0  0  0  0
    1.4291   54.7096   28.5215 H   0  0  0  0  0  0
    1.9063   54.1224   26.3381 H   0  0  0  0  0  0
    2.9520   54.5692   20.9769 H   0  0  0  0  0  0
    4.1083   54.2529   18.9921 H   0  0  0  0  0  0
    5.2955   55.4945   17.2488 H   0  0  0  0  0  0
    7.4459   56.6070   17.7454 H   0  0  0  0  0  0
    8.4004   56.4967   20.0131 H   0  0  0  0  0  0
    8.2203   55.6857   22.1436 H   0  0  0  0  0  0
   -1.2951   50.0272   28.0364 H   0  0  0  0  0  0
  1  9  2  0  0  0
  1  2  1  0  0  0
  1 28  1  0  0  0
  2  3  2  0  0  0
  2 29  1  0  0  0
  3  4  1  0  0  0
  3 30  1  0  0  0
  4  8  1  0  0  0
  4  5  2  0  0  0
  5  6  1  0  0  0
  5 41  1  0  0  0
  6  7  1  0  0  0
  6 31  1  0  0  0
  6 32  1  0  0  0
  7  8  2  0  0  0
  7 10  1  0  0  0
  8  9  1  0  0  0
  9 33  1  0  0  0
 10 11  2  0  0  0
 10 34  1  0  0  0
 11 17  1  0  0  0
 11 12  1  0  0  0
 12 13  2  0  0  0
 12 14  1  0  0  0
 14 15  1  0  0  0
 14 18  1  0  0  0
 15 16  2  0  0  0
 15 17  1  0  0  0
 18 19  1  0  0  0
 18 35  1  0  0  0
 19 20  2  0  0  0
 19 21  1  0  0  0
 21 26  2  0  0  0
 21 22  1  0  0  0
 22 23  2  0  0  0
 22 36  1  0  0  0
 23 24  1  0  0  0
 23 37  1  0  0  0
 24 25  2  0  0  0
 24 38  1  0  0  0
 25 26  1  0  0  0
 25 39  1  0  0  0
 26 27  1  0  0  0
 27 40  1  0  0  0
M  CHG  1   5   1
M  END
> <i_i_glide_confnum>
1

> <i_i_glide_lignum>
223

> <i_i_glide_posenum>
302

> <i_i_glide_rotatable_bonds>
5

> <i_m_Source_File_Index>
3602

> <b_m_subgroup_collapsed>
0

> <r_i_docking_score>
-6.68949

> <r_i_glide_ecoul>
-10.1071

> <r_i_glide_eff_state_penalty>
0

> <r_i_glide_einternal>
3.66994

> <r_i_glide_emodel>
-67.7122

> <r_i_glide_energy>
-46.8284

> <r_i_glide_erotb>
0.373417

> <r_i_glide_esite>
-0.103308

> <r_i_glide_evdw>
-36.7214

> <r_i_glide_gscore>
-6.68949

> <r_i_glide_hbond>
-0.52

> <r_i_glide_ligand_efficiency>
-0.247759

> <r_i_glide_ligand_efficiency_ln>
-1.5572

> <r_i_glide_ligand_efficiency_sa>
-0.743276

> <r_i_glide_lipo>
-1.57318

> <r_i_glide_metal>
0

> <r_i_glide_rewards>
-1.51428

> <s_i_glide_gridfile>
wee1_glide-grid

> <s_m_Source_File>
wee1_decoys_glide_SP.sdf

> <s_m_Source_Path>
/Users/zhangxujun/Desktop

> <s_m_entry_id>
3877

> <s_m_entry_name>
wee1_decoys_glide_SP.3602

> <s_m_subgroup_title>
wee1_decoys_glide_SP

> <s_m_subgroupid>
wee1_decoys_glide_SP


$$$$
