ZINC39326702_700
                    3D
 Schrodinger Suite 2024-2.
 70 73  0  0  1  0            999 V2000
    4.2537   53.4052   21.3510 C   0  0  0  0  0  0
    5.2438   53.9183   22.4054 C   0  0  0  0  0  0
    6.2806   54.8953   21.7961 C   0  0  0  0  0  0
    4.4549   54.4967   23.4490 O   0  0  0  0  0  0
    4.9901   54.5140   24.7184 C   0  0  0  0  0  0
    6.1199   55.2847   24.9985 C   0  0  0  0  0  0
    6.6652   55.2871   26.2745 C   0  0  0  0  0  0
    6.1210   54.4987   27.2809 C   0  0  0  0  0  0
    4.9702   53.7628   27.0223 C   0  0  0  0  0  0
    4.3585   53.8195   25.7621 C   0  0  0  0  0  0
    3.0916   53.1090   25.5238 C   0  0  0  0  0  0
    1.9842   53.1044   26.3030 C   0  0  0  0  0  0
    1.8407   54.0237   27.5217 C   0  0  0  0  0  0
    1.1283   53.3084   28.5957 N   0  0  0  0  0  0
   -0.1289   52.5903   28.2895 C   0  0  0  0  0  0
   -0.1541   52.0124   26.8713 C   0  0  0  0  0  0
    0.8686   52.2138   26.0061 C   0  0  0  0  0  0
    0.9413   51.5610   24.8095 O   0  0  0  0  0  0
    0.1862   50.4567   24.6000 C   0  0  0  0  0  0
   -0.8762   50.1397   25.3654 C   0  0  0  0  0  0
   -1.3366   51.0992   26.4748 C   0  0  2  0  0  0
   -1.5696   50.4937   27.3492 H   0  0  0  0  0  0
   -2.5924   51.8899   26.0746 C   0  0  0  0  0  0
   -2.5913   52.5994   24.8645 C   0  0  0  0  0  0
   -3.7021   53.3414   24.4668 C   0  0  0  0  0  0
   -4.8308   53.3979   25.2771 C   0  0  0  0  0  0
   -4.8470   52.7007   26.4816 C   0  0  0  0  0  0
   -3.7466   51.9353   26.8794 C   0  0  0  0  0  0
   -3.8283   51.2848   28.0866 O   0  0  0  0  0  0
   -4.2529   49.9142   28.0734 C   0  0  0  0  0  0
   -4.5603   49.5449   29.5305 C   0  0  0  0  0  0
   -5.4665   49.6123   27.1672 C   0  0  0  0  0  0
   -1.6019   48.9314   25.1302 C   0  0  0  0  0  0
   -2.1799   47.9574   24.8832 N   0  0  0  0  0  0
    0.7313   49.7335   23.5759 N   0  0  0  0  0  0
    1.6809   53.2566   29.8363 C   0  0  0  0  0  0
    2.8046   53.7002   30.0822 O   0  0  0  0  0  0
    0.8444   52.7566   31.0189 C   0  0  0  0  0  0
    4.7671   52.9173   20.5221 H   0  0  0  0  0  0
    3.5639   52.6787   21.7831 H   0  0  0  0  0  0
    3.6547   54.2223   20.9448 H   0  0  0  0  0  0
    5.7795   53.0466   22.7914 H   0  0  0  0  0  0
    5.8908   55.9019   21.6761 H   0  0  0  0  0  0
    7.1814   54.9554   22.4059 H   0  0  0  0  0  0
    6.6041   54.5577   20.8113 H   0  0  0  0  0  0
    6.5636   55.9089   24.2397 H   0  0  0  0  0  0
    7.5036   55.9164   26.4816 H   0  0  0  0  0  0
    6.5641   54.4904   28.2672 H   0  0  0  0  0  0
    4.5410   53.1671   27.8159 H   0  0  0  0  0  0
    3.1044   52.4970   24.6371 H   0  0  0  0  0  0
    2.7846   54.4547   27.8482 H   0  0  0  0  0  0
    1.2239   54.8880   27.2811 H   0  0  0  0  0  0
   -0.4283   51.8426   29.0235 H   0  0  0  0  0  0
   -0.8956   53.3492   28.3322 H   0  0  0  0  0  0
   -1.7184   52.5857   24.2288 H   0  0  0  0  0  0
   -3.6786   53.8846   23.5342 H   0  0  0  0  0  0
   -5.6918   53.9739   24.9711 H   0  0  0  0  0  0
   -5.7216   52.7409   27.1136 H   0  0  0  0  0  0
   -3.4238   49.2976   27.7271 H   0  0  0  0  0  0
   -5.3843   50.1373   29.9276 H   0  0  0  0  0  0
   -4.8269   48.4922   29.6246 H   0  0  0  0  0  0
   -3.6941   49.7133   30.1692 H   0  0  0  0  0  0
   -5.2308   49.7810   26.1168 H   0  0  0  0  0  0
   -5.7738   48.5696   27.2598 H   0  0  0  0  0  0
   -6.3217   50.2379   27.4272 H   0  0  0  0  0  0
    1.7136   49.8267   23.3626 H   0  0  0  0  0  0
    0.2725   48.8979   23.2445 H   0  0  0  0  0  0
    0.6228   51.6969   30.9247 H   0  0  0  0  0  0
    1.3753   52.8960   31.9607 H   0  0  0  0  0  0
   -0.0982   53.3020   31.0844 H   0  0  0  0  0  0
  1  2  1  0  0  0
  1 39  1  0  0  0
  1 40  1  0  0  0
  1 41  1  0  0  0
  2  3  1  0  0  0
  2  4  1  0  0  0
  2 42  1  0  0  0
  3 43  1  0  0  0
  3 44  1  0  0  0
  3 45  1  0  0  0
  4  5  1  0  0  0
  5 10  2  0  0  0
  5  6  1  0  0  0
  6  7  2  0  0  0
  6 46  1  0  0  0
  7  8  1  0  0  0
  7 47  1  0  0  0
  8  9  2  0  0  0
  8 48  1  0  0  0
  9 10  1  0  0  0
  9 49  1  0  0  0
 10 11  1  0  0  0
 11 12  2  0  0  0
 11 50  1  0  0  0
 12 17  1  0  0  0
 12 13  1  0  0  0
 13 14  1  0  0  0
 13 51  1  0  0  0
 13 52  1  0  0  0
 14 15  1  0  0  0
 14 36  1  0  0  0
 15 16  1  0  0  0
 15 53  1  0  0  0
 15 54  1  0  0  0
 16 21  1  0  0  0
 16 17  2  0  0  0
 17 18  1  0  0  0
 18 19  1  0  0  0
 19 20  2  0  0  0
 19 35  1  0  0  0
 20 21  1  0  0  0
 20 33  1  0  0  0
 21 22  1  0  0  0
 21 23  1  0  0  0
 23 28  2  0  0  0
 23 24  1  0  0  0
 24 25  2  0  0  0
 24 55  1  0  0  0
 25 26  1  0  0  0
 25 56  1  0  0  0
 26 27  2  0  0  0
 26 57  1  0  0  0
 27 28  1  0  0  0
 27 58  1  0  0  0
 28 29  1  0  0  0
 29 30  1  0  0  0
 30 31  1  0  0  0
 30 32  1  0  0  0
 30 59  1  0  0  0
 31 60  1  0  0  0
 31 61  1  0  0  0
 31 62  1  0  0  0
 32 63  1  0  0  0
 32 64  1  0  0  0
 32 65  1  0  0  0
 33 34  3  0  0  0
 35 66  1  0  0  0
 35 67  1  0  0  0
 36 37  2  0  0  0
 36 38  1  0  0  0
 38 68  1  0  0  0
 38 69  1  0  0  0
 38 70  1  0  0  0
M  END
> <i_i_glide_confnum>
38

> <i_i_glide_lignum>
701

> <i_i_glide_posenum>
202

> <i_i_glide_rotatable_bonds>
8

> <i_m_Source_File_Index>
5988

> <b_m_subgroup_collapsed>
0

> <r_i_docking_score>
-6.13858

> <r_i_glide_ecoul>
-2.11166

> <r_i_glide_eff_state_penalty>
0

> <r_i_glide_einternal>
9.2841

> <r_i_glide_emodel>
-57.1831

> <r_i_glide_energy>
-47.2566

> <r_i_glide_erotb>
0.327145

> <r_i_glide_esite>
-0.0665369

> <r_i_glide_evdw>
-45.145

> <r_i_glide_gscore>
-6.13858

> <r_i_glide_hbond>
-0.32

> <r_i_glide_ligand_efficiency>
-0.165908

> <r_i_glide_ligand_efficiency_ln>
-1.33131

> <r_i_glide_ligand_efficiency_sa>
-0.552841

> <r_i_glide_lipo>
-3.03745

> <r_i_glide_metal>
0

> <r_i_glide_rewards>
-0.467743

> <s_i_glide_gridfile>
wee1_glide-grid

> <s_m_Source_File>
wee1_decoys_glide_SP.sdf

> <s_m_Source_Path>
/Users/zhangxujun/Desktop

> <s_m_entry_id>
6263

> <s_m_entry_name>
wee1_decoys_glide_SP.5988

> <s_m_subgroup_title>
wee1_decoys_glide_SP

> <s_m_subgroupid>
wee1_decoys_glide_SP


$$$$
