ZINC35300361_4392
                    3D
 Schrodinger Suite 2024-2.
 55 59  0  0  1  0            999 V2000
    5.1735   56.4944   18.0764 C   0  0  0  0  0  0
    6.0855   56.1319   19.0652 C   0  0  0  0  0  0
    5.9048   54.9428   19.7672 C   0  0  0  0  0  0
    4.8122   54.1210   19.4765 C   0  0  0  0  0  0
    3.9055   54.4862   18.4791 C   0  0  0  0  0  0
    4.0848   55.6767   17.7788 C   0  0  0  0  0  0
    4.6106   52.8172   20.2413 C   0  0  0  0  0  0
    3.6133   52.9446   21.2542 O   0  0  0  0  0  0
    3.8394   53.6132   22.4187 C   0  0  0  0  0  0
    4.9311   54.1099   22.7099 O   0  0  0  0  0  0
    2.6905   53.6626   23.2283 N   0  0  0  0  0  0
    1.4606   52.9056   22.9309 C   0  0  0  0  0  0
    1.3069   51.9227   24.0997 C   0  0  0  0  0  0
    0.9578   50.6281   23.9140 C   0  0  0  0  0  0
    0.7207   49.9320   22.6642 C   0  0  0  0  0  0
   -0.4370   49.2440   22.3147 C   0  0  0  0  0  0
   -0.3691   48.6754   21.0370 C   0  0  0  0  0  0
    0.8553   48.8973   20.4184 C   0  0  0  0  0  0
    1.9326   49.8161   21.4181 S   0  0  0  0  0  0
    1.5639   52.4618   25.4392 C   0  0  0  0  0  0
    2.1852   53.6564   25.6408 C   0  0  0  0  0  0
    2.7128   54.4849   24.4519 C   0  0  0  0  0  0
    2.5324   54.0969   27.0846 C   0  0  1  0  0  0
    2.3040   55.1467   27.2635 H   0  0  0  0  0  0
    1.6212   53.3594   28.0759 C   0  0  0  0  0  0
    1.0432   52.1947   27.7242 C   0  0  0  0  0  0
    1.1035   51.6949   26.4695 O   0  0  0  0  0  0
    0.1837   51.4223   28.4589 N   0  0  0  0  0  0
    1.3444   53.9488   29.3444 C   0  0  0  0  0  0
    1.0961   54.4453   30.3583 N   0  0  0  0  0  0
    4.0267   53.9902   27.3876 C   0  0  0  0  0  0
    5.1038   53.6966   26.5403 C   0  0  0  0  0  0
    6.3566   53.6982   27.1483 C   0  0  0  0  0  0
    6.2827   54.0210   28.4817 C   0  0  0  0  0  0
    4.6547   54.3189   28.9792 S   0  0  0  0  0  0
    5.3117   57.4186   17.5335 H   0  0  0  0  0  0
    6.9286   56.7701   19.2831 H   0  0  0  0  0  0
    6.6073   54.6667   20.5401 H   0  0  0  0  0  0
    3.0591   53.8523   18.2559 H   0  0  0  0  0  0
    3.3806   55.9647   17.0118 H   0  0  0  0  0  0
    4.2973   52.0478   19.5338 H   0  0  0  0  0  0
    5.5502   52.4648   20.6664 H   0  0  0  0  0  0
    0.6216   53.5994   22.9235 H   0  0  0  0  0  0
    1.4639   52.4157   21.9592 H   0  0  0  0  0  0
    0.8264   49.9834   24.7718 H   0  0  0  0  0  0
   -1.3028   49.1682   22.9581 H   0  0  0  0  0  0
   -1.1774   48.1162   20.5875 H   0  0  0  0  0  0
    1.1763   48.5665   19.4405 H   0  0  0  0  0  0
    3.6816   54.9390   24.6611 H   0  0  0  0  0  0
    2.0278   55.3057   24.2800 H   0  0  0  0  0  0
    0.0136   51.6095   29.4365 H   0  0  0  0  0  0
   -0.3741   50.6999   28.0225 H   0  0  0  0  0  0
    4.9902   53.4470   25.4971 H   0  0  0  0  0  0
    7.2741   53.4690   26.6302 H   0  0  0  0  0  0
    7.0950   54.0966   29.1899 H   0  0  0  0  0  0
  1  6  2  0  0  0
  1  2  1  0  0  0
  1 36  1  0  0  0
  2  3  2  0  0  0
  2 37  1  0  0  0
  3  4  1  0  0  0
  3 38  1  0  0  0
  4  5  2  0  0  0
  4  7  1  0  0  0
  5  6  1  0  0  0
  5 39  1  0  0  0
  6 40  1  0  0  0
  7  8  1  0  0  0
  7 41  1  0  0  0
  7 42  1  0  0  0
  8  9  1  0  0  0
  9 10  2  0  0  0
  9 11  1  0  0  0
 11 22  1  0  0  0
 11 12  1  0  0  0
 12 13  1  0  0  0
 12 43  1  0  0  0
 12 44  1  0  0  0
 13 14  2  0  0  0
 13 20  1  0  0  0
 14 15  1  0  0  0
 14 45  1  0  0  0
 15 19  1  0  0  0
 15 16  2  0  0  0
 16 17  1  0  0  0
 16 46  1  0  0  0
 17 18  2  0  0  0
 17 47  1  0  0  0
 18 19  1  0  0  0
 18 48  1  0  0  0
 20 27  1  0  0  0
 20 21  2  0  0  0
 21 22  1  0  0  0
 21 23  1  0  0  0
 22 49  1  0  0  0
 22 50  1  0  0  0
 23 24  1  0  0  0
 23 25  1  0  0  0
 23 31  1  0  0  0
 25 26  2  0  0  0
 25 29  1  0  0  0
 26 27  1  0  0  0
 26 28  1  0  0  0
 28 51  1  0  0  0
 28 52  1  0  0  0
 29 30  3  0  0  0
 31 35  1  0  0  0
 31 32  2  0  0  0
 32 33  1  0  0  0
 32 53  1  0  0  0
 33 34  2  0  0  0
 33 54  1  0  0  0
 34 35  1  0  0  0
 34 55  1  0  0  0
M  END
> <i_i_glide_confnum>
32

> <i_i_glide_lignum>
4393

> <i_i_glide_posenum>
331

> <i_i_glide_rotatable_bonds>
7

> <i_m_Source_File_Index>
961

> <b_m_subgroup_collapsed>
0

> <r_i_docking_score>
-6.43843

> <r_i_glide_ecoul>
-2.61698

> <r_i_glide_eff_state_penalty>
0

> <r_i_glide_einternal>
6.60221

> <r_i_glide_emodel>
-66.2228

> <r_i_glide_energy>
-49.3132

> <r_i_glide_erotb>
0.342049

> <r_i_glide_esite>
-0.0242593

> <r_i_glide_evdw>
-46.6962

> <r_i_glide_gscore>
-6.43843

> <r_i_glide_hbond>
-0.0134317

> <r_i_glide_ligand_efficiency>
-0.189366

> <r_i_glide_ligand_efficiency_ln>
-1.42243

> <r_i_glide_ligand_efficiency_sa>
-0.613471

> <r_i_glide_lipo>
-3.12564

> <r_i_glide_metal>
0

> <r_i_glide_rewards>
-0.889789

> <s_i_glide_gridfile>
wee1_glide-grid

> <s_m_Source_File>
wee1_decoys_glide_SP.sdf

> <s_m_Source_Path>
/Users/zhangxujun/Desktop

> <s_m_entry_id>
1236

> <s_m_entry_name>
wee1_decoys_glide_SP.961

> <s_m_subgroup_title>
wee1_decoys_glide_SP

> <s_m_subgroupid>
wee1_decoys_glide_SP


$$$$
