ZINC59167678_2018
                    3D
 Schrodinger Suite 2024-2.
 40 42  0  0  1  0            999 V2000
    4.3386   54.3780   25.6750 C   0  0  0  0  0  0
    3.6103   54.0387   26.8097 C   0  0  0  0  0  0
    4.2694   53.6167   27.9713 C   0  0  0  0  0  0
    5.6666   53.5961   27.9931 C   0  0  0  0  0  0
    6.3989   53.9440   26.8617 C   0  0  0  0  0  0
    5.7384   54.2980   25.6851 C   0  0  0  0  0  0
    6.5341   54.5775   24.5592 N   0  0  0  0  0  0
    6.1727   54.4980   23.2638 C   0  0  0  0  0  0
    5.1236   53.9989   22.8582 O   0  0  0  0  0  0
    7.1044   55.0744   22.4828 N   0  0  0  0  0  0
    7.0650   55.3432   21.1030 C   0  0  0  0  0  0
    5.9041   55.2959   20.3154 C   0  0  0  0  0  0
    5.9733   55.5907   18.9565 C   0  0  0  0  0  0
    7.1953   55.9325   18.3823 C   0  0  0  0  0  0
    8.3507   55.9858   19.1574 C   0  0  0  0  0  0
    8.2819   55.6967   20.5164 C   0  0  0  0  0  0
    7.2797   56.2942   16.6979 Cl  0  0  0  0  0  0
    3.4001   53.1094   29.4790 S   0  0  0  0  0  0
    3.7427   51.6972   29.6807 O   0  0  0  0  0  0
    3.9040   54.0516   30.4793 O   0  0  0  0  0  0
    1.8923   53.3811   29.1477 N   0  5  0  0  0  0
    1.0998   52.5688   28.3773 C   0  0  0  0  0  0
   -0.1696   53.0607   28.0816 C   0  0  0  0  0  0
   -0.9951   52.3641   27.2008 C   0  0  0  0  0  0
   -0.5177   51.1789   26.6576 C   0  0  0  0  0  0
    0.7044   50.6980   26.9858 N   0  0  0  0  0  0
    1.4999   51.3818   27.8318 N   0  0  0  0  0  0
   -1.4906   50.3104   25.5283 Cl  0  0  0  0  0  0
    3.7984   54.6930   24.7945 H   0  0  0  0  0  0
    2.5347   54.1010   26.7596 H   0  0  0  0  0  0
    6.1925   53.2959   28.8847 H   0  0  0  0  0  0
    7.4769   53.8943   26.9007 H   0  0  0  0  0  0
    7.5083   54.7573   24.7425 H   0  0  0  0  0  0
    7.9880   55.2973   22.9249 H   0  0  0  0  0  0
    4.9411   55.0412   20.7293 H   0  0  0  0  0  0
    5.0797   55.5515   18.3507 H   0  0  0  0  0  0
    9.2984   56.2489   18.7099 H   0  0  0  0  0  0
    9.1835   55.7427   21.1085 H   0  0  0  0  0  0
   -0.4956   54.0025   28.4969 H   0  0  0  0  0  0
   -1.9689   52.7407   26.9264 H   0  0  0  0  0  0
  1  6  2  0  0  0
  1  2  1  0  0  0
  1 29  1  0  0  0
  2  3  2  0  0  0
  2 30  1  0  0  0
  3  4  1  0  0  0
  3 18  1  0  0  0
  4  5  2  0  0  0
  4 31  1  0  0  0
  5  6  1  0  0  0
  5 32  1  0  0  0
  6  7  1  0  0  0
  7  8  1  0  0  0
  7 33  1  0  0  0
  8  9  2  0  0  0
  8 10  1  0  0  0
 10 11  1  0  0  0
 10 34  1  0  0  0
 11 16  2  0  0  0
 11 12  1  0  0  0
 12 13  2  0  0  0
 12 35  1  0  0  0
 13 14  1  0  0  0
 13 36  1  0  0  0
 14 15  2  0  0  0
 14 17  1  0  0  0
 15 16  1  0  0  0
 15 37  1  0  0  0
 16 38  1  0  0  0
 18 19  2  0  0  0
 18 20  2  0  0  0
 18 21  1  0  0  0
 21 22  1  0  0  0
 22 27  2  0  0  0
 22 23  1  0  0  0
 23 24  2  0  0  0
 23 39  1  0  0  0
 24 25  1  0  0  0
 24 40  1  0  0  0
 25 26  2  0  0  0
 25 28  1  0  0  0
 26 27  1  0  0  0
M  CHG  1  21  -1
M  END
> <i_i_glide_confnum>
32

> <i_i_glide_lignum>
2019

> <i_i_glide_posenum>
208

> <i_i_glide_rotatable_bonds>
7

> <i_m_Source_File_Index>
5201

> <b_m_subgroup_collapsed>
0

> <r_i_docking_score>
-4.73018

> <r_i_glide_ecoul>
-10.126

> <r_i_glide_eff_state_penalty>
0

> <r_i_glide_einternal>
4.93843

> <r_i_glide_emodel>
-59.3483

> <r_i_glide_energy>
-52.6477

> <r_i_glide_erotb>
0.625686

> <r_i_glide_esite>
-0.0695555

> <r_i_glide_evdw>
-42.5216

> <r_i_glide_gscore>
-4.73018

> <r_i_glide_hbond>
-0.336944

> <r_i_glide_ligand_efficiency>
-0.168935

> <r_i_glide_ligand_efficiency_ln>
-1.09186

> <r_i_glide_ligand_efficiency_sa>
-0.512986

> <r_i_glide_lipo>
-2.56621

> <r_i_glide_metal>
0

> <r_i_glide_rewards>
1.26183

> <s_i_glide_gridfile>
wee1_glide-grid

> <s_m_Source_File>
wee1_decoys_glide_SP.sdf

> <s_m_Source_Path>
/Users/zhangxujun/Desktop

> <s_m_entry_id>
5476

> <s_m_entry_name>
wee1_decoys_glide_SP.5201

> <s_m_subgroup_title>
wee1_decoys_glide_SP

> <s_m_subgroupid>
wee1_decoys_glide_SP


$$$$
