ZINC37055686_1889
                    3D
 Schrodinger Suite 2024-2.
 41 42  0  0  1  0            999 V2000
    7.1040   53.8073   23.6424 C   0  0  0  0  0  0
    6.0186   54.0984   24.6675 C   0  0  0  0  0  0
    6.3420   54.1042   26.0291 C   0  0  0  0  0  0
    5.3515   54.2891   26.9926 C   0  0  0  0  0  0
    4.0200   54.4602   26.6078 C   0  0  0  0  0  0
    3.7048   54.4964   25.2482 C   0  0  0  0  0  0
    4.6860   54.3035   24.2734 C   0  0  0  0  0  0
    4.2772   54.3266   22.8055 C   0  0  0  0  0  0
    3.0019   54.6262   27.5580 N   0  0  0  0  0  0
    2.7870   53.5492   28.9600 S   0  0  0  0  0  0
    3.8387   52.5273   28.9247 O   0  0  0  0  0  0
    2.7024   54.4897   30.0816 O   0  0  0  0  0  0
    1.1934   52.6465   28.8481 C   0  0  0  0  0  0
    0.4706   52.3727   30.0359 C   0  0  0  0  0  0
   -0.7532   51.7057   29.9755 C   0  0  0  0  0  0
   -1.2869   51.3052   28.7633 C   0  0  0  0  0  0
   -0.5994   51.5527   27.5852 C   0  0  0  0  0  0
    0.6401   52.2238   27.6099 C   0  0  0  0  0  0
    1.3852   52.4089   26.2955 C   0  0  0  0  0  0
   -1.1845   51.0808   26.4078 N   0  0  0  0  0  0
    0.9934   52.6896   31.4324 C   0  0  0  0  0  0
    7.9637   53.3037   24.0816 H   0  0  0  0  0  0
    6.7217   53.1279   22.8816 H   0  0  0  0  0  0
    7.4309   54.7232   23.1492 H   0  0  0  0  0  0
    7.3587   53.9425   26.3535 H   0  0  0  0  0  0
    5.6220   54.2794   28.0390 H   0  0  0  0  0  0
    2.6856   54.6627   24.9374 H   0  0  0  0  0  0
    3.3115   54.8123   22.6590 H   0  0  0  0  0  0
    4.2276   53.3133   22.4061 H   0  0  0  0  0  0
    4.9983   54.8896   22.2122 H   0  0  0  0  0  0
    2.6944   55.5731   27.7150 H   0  0  0  0  0  0
   -1.2941   51.4643   30.8811 H   0  0  0  0  0  0
   -2.2248   50.7667   28.7545 H   0  0  0  0  0  0
    1.1487   51.6407   25.5606 H   0  0  0  0  0  0
    1.1417   53.3777   25.8642 H   0  0  0  0  0  0
    2.4560   52.3179   26.4457 H   0  0  0  0  0  0
   -0.5782   50.9694   25.6099 H   0  0  0  0  0  0
   -1.9075   50.3876   26.5516 H   0  0  0  0  0  0
    0.5237   52.0655   32.1934 H   0  0  0  0  0  0
    2.0610   52.4887   31.5142 H   0  0  0  0  0  0
    0.8021   53.7328   31.6840 H   0  0  0  0  0  0
  1  2  1  0  0  0
  1 22  1  0  0  0
  1 23  1  0  0  0
  1 24  1  0  0  0
  2  7  2  0  0  0
  2  3  1  0  0  0
  3  4  2  0  0  0
  3 25  1  0  0  0
  4  5  1  0  0  0
  4 26  1  0  0  0
  5  6  2  0  0  0
  5  9  1  0  0  0
  6  7  1  0  0  0
  6 27  1  0  0  0
  7  8  1  0  0  0
  8 28  1  0  0  0
  8 29  1  0  0  0
  8 30  1  0  0  0
  9 10  1  0  0  0
  9 31  1  0  0  0
 10 11  2  0  0  0
 10 12  2  0  0  0
 10 13  1  0  0  0
 13 18  2  0  0  0
 13 14  1  0  0  0
 14 15  2  0  0  0
 14 21  1  0  0  0
 15 16  1  0  0  0
 15 32  1  0  0  0
 16 17  2  0  0  0
 16 33  1  0  0  0
 17 18  1  0  0  0
 17 20  1  0  0  0
 18 19  1  0  0  0
 19 34  1  0  0  0
 19 35  1  0  0  0
 19 36  1  0  0  0
 20 37  1  0  0  0
 20 38  1  0  0  0
 21 39  1  0  0  0
 21 40  1  0  0  0
 21 41  1  0  0  0
M  END
> <i_i_glide_confnum>
6

> <i_i_glide_lignum>
1890

> <i_i_glide_posenum>
349

> <i_i_glide_rotatable_bonds>
3

> <i_m_Source_File_Index>
5932

> <b_m_subgroup_collapsed>
0

> <r_i_docking_score>
-5.67727

> <r_i_glide_ecoul>
-5.14887

> <r_i_glide_eff_state_penalty>
0

> <r_i_glide_einternal>
12.072

> <r_i_glide_emodel>
-44.0156

> <r_i_glide_energy>
-37.7121

> <r_i_glide_erotb>
0.59705

> <r_i_glide_esite>
-0.115662

> <r_i_glide_evdw>
-32.5633

> <r_i_glide_gscore>
-5.67727

> <r_i_glide_hbond>
0

> <r_i_glide_ligand_efficiency>
-0.270346

> <r_i_glide_ligand_efficiency_ln>
-1.40369

> <r_i_glide_ligand_efficiency_sa>
-0.745865

> <r_i_glide_lipo>
-2.20012

> <r_i_glide_metal>
0

> <r_i_glide_rewards>
-1.55804

> <s_i_glide_gridfile>
wee1_glide-grid

> <s_m_Source_File>
wee1_decoys_glide_SP.sdf

> <s_m_Source_Path>
/Users/zhangxujun/Desktop

> <s_m_entry_id>
6207

> <s_m_entry_name>
wee1_decoys_glide_SP.5932

> <s_m_subgroup_title>
wee1_decoys_glide_SP

> <s_m_subgroupid>
wee1_decoys_glide_SP


$$$$
