ZINC40156281_4904
                    3D
 Schrodinger Suite 2024-2.
 60 63  0  0  1  0            999 V2000
    1.7258   52.3587   31.1432 C   0  0  0  0  0  0
    0.6423   53.2632   30.5191 C   0  0  0  0  0  0
    0.3036   54.4173   31.4753 C   0  0  0  0  0  0
    0.8839   53.7803   29.0528 C   0  0  1  0  0  0
    0.3143   54.7008   28.9326 H   0  0  0  0  0  0
    2.3545   54.2441   28.7875 C   0  0  0  0  0  0
    2.9775   54.8207   29.6813 O   0  0  0  0  0  0
    2.8390   54.0283   27.5446 N   0  0  0  0  0  0
    4.1320   54.2323   27.0385 C   0  0  0  0  0  0
    5.2851   54.3154   27.8331 C   0  0  0  0  0  0
    6.5363   54.4468   27.2354 C   0  0  0  0  0  0
    6.6469   54.5040   25.8466 C   0  0  0  0  0  0
    5.5089   54.4326   25.0387 C   0  0  0  0  0  0
    4.2559   54.2945   25.6468 C   0  0  0  0  0  0
    5.6065   54.4848   23.5490 C   0  0  0  0  0  0
    4.6973   54.0954   22.5637 C   0  0  0  0  0  0
    5.2305   54.3409   21.3082 N   0  0  0  0  0  0
    6.4645   54.9437   21.4960 C   0  0  0  0  0  0
    6.7046   54.9699   22.8523 N   0  3  0  0  0  0
    7.4114   55.3539   20.3798 C   0  0  0  0  0  0
    6.6173   55.3972   19.0541 C   0  0  0  0  0  0
    5.6736   54.1842   18.8952 C   0  0  0  0  0  0
    4.5962   54.1190   20.0053 C   0  0  0  0  0  0
    0.2706   52.9010   28.0344 N   0  0  0  0  0  0
    0.7114   51.6965   27.6168 C   0  0  0  0  0  0
    1.7235   51.1782   28.0819 O   0  0  0  0  0  0
   -0.0587   51.0266   26.4939 C   0  0  0  0  0  0
   -1.1184   51.6689   25.8288 C   0  0  0  0  0  0
   -1.7917   51.0339   24.7888 C   0  0  0  0  0  0
   -1.4156   49.7518   24.3970 C   0  0  0  0  0  0
   -0.3681   49.1001   25.0417 C   0  0  0  0  0  0
    0.3040   49.7328   26.0818 C   0  0  0  0  0  0
   -2.2490   48.9672   23.1085 Cl  0  0  0  0  0  0
    2.6803   52.8650   31.2796 H   0  0  0  0  0  0
    1.4088   51.9952   32.1208 H   0  0  0  0  0  0
    1.9035   51.4863   30.5235 H   0  0  0  0  0  0
   -0.2573   52.6437   30.5001 H   0  0  0  0  0  0
    1.1045   55.1400   31.5864 H   0  0  0  0  0  0
   -0.5136   54.9955   31.0713 H   0  0  0  0  0  0
    0.0183   54.0588   32.4656 H   0  0  0  0  0  0
    2.1909   53.6073   26.8970 H   0  0  0  0  0  0
    5.2315   54.2511   28.9103 H   0  0  0  0  0  0
    7.4200   54.4957   27.8558 H   0  0  0  0  0  0
    7.6187   54.5853   25.3904 H   0  0  0  0  0  0
    3.3683   54.2260   25.0339 H   0  0  0  0  0  0
    3.7120   53.6615   22.6504 H   0  0  0  0  0  0
    7.8719   56.3225   20.5789 H   0  0  0  0  0  0
    8.2368   54.6503   20.2843 H   0  0  0  0  0  0
    7.3059   55.4503   18.2100 H   0  0  0  0  0  0
    6.0270   56.3153   19.0085 H   0  0  0  0  0  0
    6.2579   53.2599   18.8934 H   0  0  0  0  0  0
    5.1872   54.2166   17.9188 H   0  0  0  0  0  0
    4.0724   53.1623   20.0029 H   0  0  0  0  0  0
    3.8484   54.8968   19.8566 H   0  0  0  0  0  0
   -0.5973   53.2362   27.6472 H   0  0  0  0  0  0
   -1.4419   52.6623   26.1001 H   0  0  0  0  0  0
   -2.6090   51.5339   24.2864 H   0  0  0  0  0  0
   -0.0762   48.1010   24.7484 H   0  0  0  0  0  0
    1.1082   49.1957   26.5654 H   0  0  0  0  0  0
    7.5662   55.2967   23.2763 H   0  0  0  0  0  0
  1  2  1  0  0  0
  1 34  1  0  0  0
  1 35  1  0  0  0
  1 36  1  0  0  0
  2  3  1  0  0  0
  2  4  1  0  0  0
  2 37  1  0  0  0
  3 38  1  0  0  0
  3 39  1  0  0  0
  3 40  1  0  0  0
  4  5  1  0  0  0
  4  6  1  0  0  0
  4 24  1  0  0  0
  6  7  2  0  0  0
  6  8  1  0  0  0
  8  9  1  0  0  0
  8 41  1  0  0  0
  9 14  2  0  0  0
  9 10  1  0  0  0
 10 11  2  0  0  0
 10 42  1  0  0  0
 11 12  1  0  0  0
 11 43  1  0  0  0
 12 13  2  0  0  0
 12 44  1  0  0  0
 13 14  1  0  0  0
 13 15  1  0  0  0
 14 45  1  0  0  0
 15 19  1  0  0  0
 15 16  2  0  0  0
 16 17  1  0  0  0
 16 46  1  0  0  0
 17 23  1  0  0  0
 17 18  1  0  0  0
 18 19  2  0  0  0
 18 20  1  0  0  0
 19 60  1  0  0  0
 20 21  1  0  0  0
 20 47  1  0  0  0
 20 48  1  0  0  0
 21 22  1  0  0  0
 21 49  1  0  0  0
 21 50  1  0  0  0
 22 23  1  0  0  0
 22 51  1  0  0  0
 22 52  1  0  0  0
 23 53  1  0  0  0
 23 54  1  0  0  0
 24 25  1  0  0  0
 24 55  1  0  0  0
 25 26  2  0  0  0
 25 27  1  0  0  0
 27 32  2  0  0  0
 27 28  1  0  0  0
 28 29  2  0  0  0
 28 56  1  0  0  0
 29 30  1  0  0  0
 29 57  1  0  0  0
 30 31  2  0  0  0
 30 33  1  0  0  0
 31 32  1  0  0  0
 31 58  1  0  0  0
 32 59  1  0  0  0
M  CHG  1  19   1
M  END
> <i_i_glide_confnum>
28

> <i_i_glide_lignum>
4905

> <i_i_glide_posenum>
372

> <i_i_glide_rotatable_bonds>
8

> <i_m_Source_File_Index>
1454

> <b_m_subgroup_collapsed>
0

> <r_i_docking_score>
-6.64572

> <r_i_glide_ecoul>
-4.4856

> <r_i_glide_eff_state_penalty>
0

> <r_i_glide_einternal>
6.42967

> <r_i_glide_emodel>
-70.6002

> <r_i_glide_energy>
-52.6059

> <r_i_glide_erotb>
0.589244

> <r_i_glide_esite>
0

> <r_i_glide_evdw>
-48.1203

> <r_i_glide_gscore>
-6.64572

> <r_i_glide_hbond>
-0.226613

> <r_i_glide_ligand_efficiency>
-0.207679

> <r_i_glide_ligand_efficiency_ln>
-1.48816

> <r_i_glide_ligand_efficiency_sa>
-0.659339

> <r_i_glide_lipo>
-2.67719

> <r_i_glide_metal>
0

> <r_i_glide_rewards>
-1.2523

> <s_i_glide_gridfile>
wee1_glide-grid

> <s_m_Source_File>
wee1_decoys_glide_SP.sdf

> <s_m_Source_Path>
/Users/zhangxujun/Desktop

> <s_m_entry_id>
1729

> <s_m_entry_name>
wee1_decoys_glide_SP.1454

> <s_m_subgroup_title>
wee1_decoys_glide_SP

> <s_m_subgroupid>
wee1_decoys_glide_SP


$$$$
