ZINC14467932_3918
                    3D
 Schrodinger Suite 2024-2.
 53 56  0  0  1  0            999 V2000
    7.7525   55.0980   17.9192 C   0  0  0  0  0  0
    8.5894   56.1029   18.7374 C   0  0  0  0  0  0
    8.2240   57.5619   18.3961 C   0  0  0  0  0  0
    8.6049   55.7864   20.2609 C   0  0  0  0  0  0
    7.2502   55.7035   20.9904 C   0  0  0  0  0  0
    6.2960   56.3673   20.5887 O   0  0  0  0  0  0
    7.2158   54.9329   22.0984 N   0  0  0  0  0  0
    6.0974   54.6138   22.8874 C   0  0  0  0  0  0
    4.8063   54.4963   22.3572 C   0  0  0  0  0  0
    3.7266   54.2663   23.2037 C   0  0  0  0  0  0
    3.9309   54.0968   24.5731 C   0  0  0  0  0  0
    5.2251   54.1145   25.1183 C   0  0  0  0  0  0
    6.2971   54.3897   24.2541 C   0  0  0  0  0  0
    5.4614   53.7562   26.5844 C   0  0  1  0  0  0
    6.1980   52.9502   26.5823 H   0  0  0  0  0  0
    5.9740   54.8651   27.4713 C   0  0  0  0  0  0
    5.5038   54.7105   28.7208 C   0  0  0  0  0  0
    4.5577   53.5461   28.8133 C   0  0  0  0  0  0
    4.2038   53.2904   27.3455 C   0  0  1  0  0  0
    4.0890   52.2169   27.2801 H   0  0  0  0  0  0
    2.8682   53.9340   26.8448 C   0  0  1  0  0  0
    2.8390   54.9808   27.1496 H   0  0  0  0  0  0
    2.7981   53.9218   25.3775 N   0  0  0  0  0  0
    1.6506   53.2314   27.4676 C   0  0  0  0  0  0
    1.0999   52.1160   26.8181 C   0  0  0  0  0  0
    0.0420   51.4076   27.3688 C   0  0  0  0  0  0
   -0.4490   51.7625   28.6229 C   0  0  0  0  0  0
    0.0830   52.8720   29.2852 C   0  0  0  0  0  0
    1.0887   53.6425   28.6878 C   0  0  0  0  0  0
    1.5088   54.7927   29.3117 O   0  0  0  0  0  0
   -0.4890   53.2684   30.8630 Cl  0  0  0  0  0  0
   -0.6347   50.0968   26.4759 Cl  0  0  0  0  0  0
    6.6875   55.1823   18.1384 H   0  0  0  0  0  0
    8.0532   54.0706   18.1286 H   0  0  0  0  0  0
    7.8770   55.2602   16.8479 H   0  0  0  0  0  0
    9.6208   55.9722   18.4024 H   0  0  0  0  0  0
    7.2050   57.8165   18.6874 H   0  0  0  0  0  0
    8.8996   58.2651   18.8819 H   0  0  0  0  0  0
    8.3024   57.7414   17.3231 H   0  0  0  0  0  0
    9.1287   54.8533   20.3893 H   0  0  0  0  0  0
    9.2285   56.4963   20.7911 H   0  0  0  0  0  0
    8.1090   54.6738   22.4942 H   0  0  0  0  0  0
    4.6213   54.6262   21.3006 H   0  0  0  0  0  0
    2.7312   54.2290   22.7848 H   0  0  0  0  0  0
    7.2995   54.4254   24.6563 H   0  0  0  0  0  0
    6.6994   55.5962   27.1473 H   0  0  0  0  0  0
    5.7566   55.3055   29.5846 H   0  0  0  0  0  0
    3.7018   53.7684   29.4389 H   0  0  0  0  0  0
    5.0467   52.6812   29.2645 H   0  0  0  0  0  0
    1.8787   54.0913   24.9976 H   0  0  0  0  0  0
    1.4898   51.7860   25.8666 H   0  0  0  0  0  0
   -1.2399   51.1785   29.0748 H   0  0  0  0  0  0
    0.9931   54.9734   30.1018 H   0  0  0  0  0  0
  1  2  1  0  0  0
  1 33  1  0  0  0
  1 34  1  0  0  0
  1 35  1  0  0  0
  2  3  1  0  0  0
  2  4  1  0  0  0
  2 36  1  0  0  0
  3 37  1  0  0  0
  3 38  1  0  0  0
  3 39  1  0  0  0
  4  5  1  0  0  0
  4 40  1  0  0  0
  4 41  1  0  0  0
  5  6  2  0  0  0
  5  7  1  0  0  0
  7  8  1  0  0  0
  7 42  1  0  0  0
  8 13  2  0  0  0
  8  9  1  0  0  0
  9 10  2  0  0  0
  9 43  1  0  0  0
 10 11  1  0  0  0
 10 44  1  0  0  0
 11 23  1  0  0  0
 11 12  2  0  0  0
 12 13  1  0  0  0
 12 14  1  0  0  0
 13 45  1  0  0  0
 14 15  1  0  0  0
 14 19  1  0  0  0
 14 16  1  0  0  0
 16 17  2  0  0  0
 16 46  1  0  0  0
 17 18  1  0  0  0
 17 47  1  0  0  0
 18 19  1  0  0  0
 18 48  1  0  0  0
 18 49  1  0  0  0
 19 20  1  0  0  0
 19 21  1  0  0  0
 21 22  1  0  0  0
 21 23  1  0  0  0
 21 24  1  0  0  0
 23 50  1  0  0  0
 24 29  2  0  0  0
 24 25  1  0  0  0
 25 26  2  0  0  0
 25 51  1  0  0  0
 26 27  1  0  0  0
 26 32  1  0  0  0
 27 28  2  0  0  0
 27 52  1  0  0  0
 28 29  1  0  0  0
 28 31  1  0  0  0
 29 30  1  0  0  0
 30 53  1  0  0  0
M  END
> <i_i_glide_confnum>
5

> <i_i_glide_lignum>
3919

> <i_i_glide_posenum>
94

> <i_i_glide_rotatable_bonds>
6

> <i_m_Source_File_Index>
130

> <b_m_subgroup_collapsed>
0

> <r_i_docking_score>
-6.23538

> <r_i_glide_ecoul>
-2.66523

> <r_i_glide_eff_state_penalty>
0

> <r_i_glide_einternal>
4.80186

> <r_i_glide_emodel>
-54.0263

> <r_i_glide_energy>
-40.2039

> <r_i_glide_erotb>
0.427571

> <r_i_glide_esite>
0

> <r_i_glide_evdw>
-37.5387

> <r_i_glide_gscore>
-6.23538

> <r_i_glide_hbond>
-0.313981

> <r_i_glide_ligand_efficiency>
-0.215013

> <r_i_glide_ligand_efficiency_ln>
-1.42774

> <r_i_glide_ligand_efficiency_sa>
-0.660589

> <r_i_glide_lipo>
-3.26772

> <r_i_glide_metal>
0

> <r_i_glide_rewards>
-0.804534

> <s_i_glide_gridfile>
wee1_glide-grid

> <s_m_Source_File>
wee1_decoys_glide_SP.sdf

> <s_m_Source_Path>
/Users/zhangxujun/Desktop

> <s_m_entry_id>
405

> <s_m_entry_name>
wee1_decoys_glide_SP.130

> <s_m_subgroup_title>
wee1_decoys_glide_SP

> <s_m_subgroupid>
wee1_decoys_glide_SP


$$$$
