ZINC09239229_4313
                    3D
 Schrodinger Suite 2024-2.
 51 54  0  0  1  0            999 V2000
   -4.5047   47.1177   29.7328 C   0  0  0  0  0  0
   -4.4954   48.4602   28.9909 C   0  0  0  0  0  0
   -4.3100   48.3017   27.4708 C   0  0  0  0  0  0
   -4.2519   49.6407   26.7564 C   0  0  0  0  0  0
   -5.2725   50.4550   26.6432 N   0  0  0  0  0  0
   -4.8334   51.5685   25.9369 N   0  0  0  0  0  0
   -3.5688   51.3840   25.6480 C   0  0  0  0  0  0
   -3.1330   50.1750   26.1540 N   0  0  0  0  0  0
   -1.8543   49.5920   26.0816 N   0  0  0  0  0  0
   -0.7583   50.5466   25.8412 C   0  0  1  0  0  0
    0.0962   49.9148   25.5897 H   0  0  0  0  0  0
   -1.1185   51.3786   24.5606 C   0  0  1  0  0  0
   -1.4351   50.7020   23.7641 H   0  0  0  0  0  0
   -2.5576   52.4967   24.7306 S   0  0  0  0  0  0
    0.0589   52.1524   23.9091 C   0  0  0  0  0  0
    0.1744   53.3657   24.0814 O   0  0  0  0  0  0
    0.9064   51.4243   23.1443 N   0  0  0  0  0  0
    2.0189   51.8594   22.3832 C   0  0  0  0  0  0
    2.7073   53.0558   22.6611 C   0  0  0  0  0  0
    3.7911   53.4556   21.8831 C   0  0  0  0  0  0
    4.2074   52.6706   20.8157 C   0  0  0  0  0  0
    3.5467   51.4787   20.5301 C   0  0  0  0  0  0
    2.4596   51.0517   21.3089 C   0  0  0  0  0  0
    1.7751   49.7187   20.9748 C   0  0  0  0  0  0
    2.3037   49.1065   19.9138 F   0  0  0  0  0  0
    1.8887   48.8983   22.0181 F   0  0  0  0  0  0
    0.4787   49.9148   20.7303 F   0  0  0  0  0  0
   -0.2768   51.3379   27.0834 C   0  0  0  0  0  0
    0.9310   52.0476   27.0315 C   0  0  0  0  0  0
    1.4099   52.7305   28.1465 C   0  0  0  0  0  0
    0.6960   52.6918   29.3390 C   0  0  0  0  0  0
   -0.4946   51.9788   29.4196 C   0  0  0  0  0  0
   -0.9795   51.3066   28.2993 C   0  0  0  0  0  0
    1.1728   53.3395   30.4279 F   0  0  0  0  0  0
   -4.6138   47.2708   30.8066 H   0  0  0  0  0  0
   -3.5746   46.5709   29.5726 H   0  0  0  0  0  0
   -5.3325   46.4931   29.3981 H   0  0  0  0  0  0
   -5.4256   48.9907   29.1984 H   0  0  0  0  0  0
   -3.6942   49.0834   29.3942 H   0  0  0  0  0  0
   -3.4143   47.7088   27.2798 H   0  0  0  0  0  0
   -5.1343   47.7109   27.0710 H   0  0  0  0  0  0
   -1.6954   49.1024   26.9754 H   0  0  0  0  0  0
    0.6816   50.4485   23.0232 H   0  0  0  0  0  0
    2.4333   53.6920   23.4870 H   0  0  0  0  0  0
    4.3033   54.3807   22.1063 H   0  0  0  0  0  0
    5.0379   52.9833   20.1990 H   0  0  0  0  0  0
    3.8993   50.8950   19.6891 H   0  0  0  0  0  0
    1.5262   52.0685   26.1320 H   0  0  0  0  0  0
    2.3382   53.2780   28.0917 H   0  0  0  0  0  0
   -1.0303   51.9291   30.3566 H   0  0  0  0  0  0
   -1.8981   50.7495   28.4082 H   0  0  0  0  0  0
  1  2  1  0  0  0
  1 35  1  0  0  0
  1 36  1  0  0  0
  1 37  1  0  0  0
  2  3  1  0  0  0
  2 38  1  0  0  0
  2 39  1  0  0  0
  3  4  1  0  0  0
  3 40  1  0  0  0
  3 41  1  0  0  0
  4  8  1  0  0  0
  4  5  2  0  0  0
  5  6  1  0  0  0
  6  7  2  0  0  0
  7 14  1  0  0  0
  7  8  1  0  0  0
  8  9  1  0  0  0
  9 10  1  0  0  0
  9 42  1  0  0  0
 10 11  1  0  0  0
 10 12  1  0  0  0
 10 28  1  0  0  0
 12 13  1  0  0  0
 12 14  1  0  0  0
 12 15  1  0  0  0
 15 16  2  0  0  0
 15 17  1  0  0  0
 17 18  1  0  0  0
 17 43  1  0  0  0
 18 23  2  0  0  0
 18 19  1  0  0  0
 19 20  2  0  0  0
 19 44  1  0  0  0
 20 21  1  0  0  0
 20 45  1  0  0  0
 21 22  2  0  0  0
 21 46  1  0  0  0
 22 23  1  0  0  0
 22 47  1  0  0  0
 23 24  1  0  0  0
 24 25  1  0  0  0
 24 26  1  0  0  0
 24 27  1  0  0  0
 28 33  2  0  0  0
 28 29  1  0  0  0
 29 30  2  0  0  0
 29 48  1  0  0  0
 30 31  1  0  0  0
 30 49  1  0  0  0
 31 32  2  0  0  0
 31 34  1  0  0  0
 32 33  1  0  0  0
 32 50  1  0  0  0
 33 51  1  0  0  0
M  END
> <i_i_glide_confnum>
337

> <i_i_glide_lignum>
4314

> <i_i_glide_posenum>
268

> <i_i_glide_rotatable_bonds>
7

> <i_m_Source_File_Index>
1644

> <b_m_subgroup_collapsed>
0

> <r_i_docking_score>
-4.32113

> <r_i_glide_ecoul>
-8.3495

> <r_i_glide_eff_state_penalty>
0

> <r_i_glide_einternal>
1.17615

> <r_i_glide_emodel>
-52.5262

> <r_i_glide_energy>
-41.2179

> <r_i_glide_erotb>
0.465413

> <r_i_glide_esite>
-0.268018

> <r_i_glide_evdw>
-32.8684

> <r_i_glide_gscore>
-4.32113

> <r_i_glide_hbond>
-0.16

> <r_i_glide_ligand_efficiency>
-0.135035

> <r_i_glide_ligand_efficiency_ln>
-0.967618

> <r_i_glide_ligand_efficiency_sa>
-0.42871

> <r_i_glide_lipo>
-0.887441

> <r_i_glide_metal>
0

> <r_i_glide_rewards>
-0.575236

> <s_i_glide_gridfile>
wee1_glide-grid

> <s_m_Source_File>
wee1_decoys_glide_SP.sdf

> <s_m_Source_Path>
/Users/zhangxujun/Desktop

> <s_m_entry_id>
1919

> <s_m_entry_name>
wee1_decoys_glide_SP.1644

> <s_m_subgroup_title>
wee1_decoys_glide_SP

> <s_m_subgroupid>
wee1_decoys_glide_SP


$$$$
