ZINC35692914_5649
                    3D
 Schrodinger Suite 2024-2.
 57 61  0  0  1  0            999 V2000
    2.3061   51.4059   18.8686 C   0  0  0  0  0  0
    1.6540   50.0236   18.7116 C   0  0  0  0  0  0
    0.6836   49.8214   19.7337 O   0  0  0  0  0  0
    1.0185   49.2689   20.9252 C   0  0  0  0  0  0
    2.1324   48.8220   21.2037 O   0  0  0  0  0  0
   -0.0742   49.3117   21.9077 C   0  0  0  0  0  0
   -1.3585   48.9328   21.6070 C   0  0  0  0  0  0
   -2.3880   49.0411   22.4986 N   0  0  0  0  0  0
   -2.1341   49.4034   23.6950 C   0  0  0  0  0  0
   -0.8893   49.7361   24.2322 N   0  0  0  0  0  0
    0.2824   49.8941   23.3137 C   0  0  2  0  0  0
    1.0706   49.2794   23.7501 H   0  0  0  0  0  0
    0.8445   51.3326   23.2791 C   0  0  0  0  0  0
    0.0701   52.4270   23.6781 C   0  0  0  0  0  0
    0.6257   53.6960   23.7252 C   0  0  0  0  0  0
    1.9345   53.9077   23.3152 C   0  0  0  0  0  0
    2.7044   52.8396   22.8750 C   0  0  0  0  0  0
    2.1668   51.5557   22.8796 C   0  0  0  0  0  0
   -0.9043   50.0409   25.5883 C   0  0  0  0  0  0
   -2.1571   50.0970   26.0769 C   0  0  0  0  0  0
   -3.3978   49.6652   24.9090 S   0  0  0  0  0  0
    0.2642   50.3446   26.4074 C   0  0  0  0  0  0
    0.3602   51.3431   27.3071 C   0  0  0  0  0  0
   -0.4855   52.2670   27.6085 O   0  5  0  0  0  0
    1.5044   51.4742   28.0651 N   0  0  0  0  0  0
    2.1160   52.6868   28.5917 C   0  0  0  0  0  0
    1.9682   52.9188   30.0802 C   0  0  0  0  0  0
    3.2995   52.5002   29.5164 C   0  0  0  0  0  0
   -1.7953   48.2822   20.3391 C   0  0  0  0  0  0
   -1.1501   47.1281   19.8712 C   0  0  0  0  0  0
   -1.5546   46.5228   18.6859 C   0  0  0  0  0  0
   -2.6115   47.0663   17.9612 C   0  0  0  0  0  0
   -3.2645   48.2122   18.4097 C   0  0  0  0  0  0
   -2.8560   48.8159   19.5959 C   0  0  0  0  0  0
    3.0752   51.5509   18.1077 H   0  0  0  0  0  0
    1.5718   52.2068   18.7707 H   0  0  0  0  0  0
    2.7897   51.5115   19.8417 H   0  0  0  0  0  0
    2.4115   49.2358   18.7083 H   0  0  0  0  0  0
    1.1493   49.9703   17.7456 H   0  0  0  0  0  0
   -0.9548   52.3026   23.9954 H   0  0  0  0  0  0
    0.0092   54.4966   24.0810 H   0  0  0  0  0  0
    2.3602   54.8977   23.3415 H   0  0  0  0  0  0
    3.7247   52.9991   22.5615 H   0  0  0  0  0  0
    2.7960   50.7330   22.5801 H   0  0  0  0  0  0
   -2.4192   50.3258   27.1011 H   0  0  0  0  0  0
    1.1041   49.6781   26.2914 H   0  0  0  0  0  0
    2.1618   50.7149   28.0019 H   0  0  0  0  0  0
    2.1020   53.5433   27.9142 H   0  0  0  0  0  0
    1.3786   52.2074   30.6593 H   0  0  0  0  0  0
    1.8163   53.9459   30.4116 H   0  0  0  0  0  0
    4.1081   53.2290   29.4616 H   0  0  0  0  0  0
    3.6689   51.4907   29.6909 H   0  0  0  0  0  0
   -0.3330   46.7000   20.4341 H   0  0  0  0  0  0
   -1.0485   45.6374   18.3313 H   0  0  0  0  0  0
   -2.9248   46.5981   17.0395 H   0  0  0  0  0  0
   -4.0802   48.6301   17.8411 H   0  0  0  0  0  0
   -3.3648   49.7033   19.9444 H   0  0  0  0  0  0
  1  2  1  0  0  0
  1 35  1  0  0  0
  1 36  1  0  0  0
  1 37  1  0  0  0
  2  3  1  0  0  0
  2 38  1  0  0  0
  2 39  1  0  0  0
  3  4  1  0  0  0
  4  5  2  0  0  0
  4  6  1  0  0  0
  6 11  1  0  0  0
  6  7  2  0  0  0
  7  8  1  0  0  0
  7 29  1  0  0  0
  8  9  2  0  0  0
  9 21  1  0  0  0
  9 10  1  0  0  0
 10 11  1  0  0  0
 10 19  1  0  0  0
 11 12  1  0  0  0
 11 13  1  0  0  0
 13 18  2  0  0  0
 13 14  1  0  0  0
 14 15  2  0  0  0
 14 40  1  0  0  0
 15 16  1  0  0  0
 15 41  1  0  0  0
 16 17  2  0  0  0
 16 42  1  0  0  0
 17 18  1  0  0  0
 17 43  1  0  0  0
 18 44  1  0  0  0
 19 20  2  0  0  0
 19 22  1  0  0  0
 20 21  1  0  0  0
 20 45  1  0  0  0
 22 23  2  0  0  0
 22 46  1  0  0  0
 23 24  1  0  0  0
 23 25  1  0  0  0
 25 26  1  0  0  0
 25 47  1  0  0  0
 26 28  1  0  0  0
 26 27  1  0  0  0
 26 48  1  0  0  0
 27 28  1  0  0  0
 27 49  1  0  0  0
 27 50  1  0  0  0
 28 51  1  0  0  0
 28 52  1  0  0  0
 29 34  2  0  0  0
 29 30  1  0  0  0
 30 31  2  0  0  0
 30 53  1  0  0  0
 31 32  1  0  0  0
 31 54  1  0  0  0
 32 33  2  0  0  0
 32 55  1  0  0  0
 33 34  1  0  0  0
 33 56  1  0  0  0
 34 57  1  0  0  0
M  CHG  1  24  -1
M  END
> <i_i_glide_confnum>
141

> <i_i_glide_lignum>
5650

> <i_i_glide_posenum>
188

> <i_i_glide_rotatable_bonds>
8

> <i_m_Source_File_Index>
3263

> <b_m_subgroup_collapsed>
0

> <r_i_docking_score>
-2.68322

> <r_i_glide_ecoul>
0.298592

> <r_i_glide_eff_state_penalty>
0

> <r_i_glide_einternal>
5.46054

> <r_i_glide_emodel>
-37.2222

> <r_i_glide_energy>
-32.1114

> <r_i_glide_erotb>
0.573936

> <r_i_glide_esite>
-0.0184643

> <r_i_glide_evdw>
-32.41

> <r_i_glide_gscore>
-2.68322

> <r_i_glide_hbond>
0

> <r_i_glide_ligand_efficiency>
-0.0813097

> <r_i_glide_ligand_efficiency_ln>
-0.596734

> <r_i_glide_ligand_efficiency_sa>
-0.260804

> <r_i_glide_lipo>
-1.33643

> <r_i_glide_metal>
0

> <r_i_glide_rewards>
-0.32655

> <s_i_glide_gridfile>
wee1_glide-grid

> <s_m_Source_File>
wee1_decoys_glide_SP.sdf

> <s_m_Source_Path>
/Users/zhangxujun/Desktop

> <s_m_entry_id>
3538

> <s_m_entry_name>
wee1_decoys_glide_SP.3263

> <s_m_subgroup_title>
wee1_decoys_glide_SP

> <s_m_subgroupid>
wee1_decoys_glide_SP


$$$$
