ZINC08299339_712
                    3D
 Schrodinger Suite 2024-2.
 70 74  0  0  1  0            999 V2000
    2.8699   55.0524   29.4378 C   0  0  0  0  0  0
    2.7471   53.7217   28.6553 C   0  0  0  0  0  0
    3.4593   52.5921   29.4369 C   0  0  0  0  0  0
    1.2373   53.3665   28.5949 C   0  0  0  0  0  0
    3.3999   53.8780   27.2584 C   0  0  0  0  0  0
    2.6777   53.6969   26.0693 C   0  0  0  0  0  0
    3.2851   53.8880   24.8316 C   0  0  0  0  0  0
    4.6332   54.2460   24.7494 C   0  0  0  0  0  0
    5.3657   54.4050   25.9300 C   0  0  0  0  0  0
    4.7557   54.2229   27.1678 C   0  0  0  0  0  0
    5.2537   54.4937   23.4074 C   0  0  0  0  0  0
    4.6600   54.4238   22.1468 C   0  0  0  0  0  0
    5.6040   54.8970   21.2744 N   0  0  0  0  0  0
    6.7386   55.1725   21.9260 N   0  0  0  0  0  0
    6.5081   54.8967   23.2609 N   0  0  0  0  0  0
    5.4591   55.1081   19.8342 C   0  0  0  0  0  0
    6.3330   56.2760   19.2887 C   0  0  1  0  0  0
    6.2341   57.1390   19.9525 H   0  0  0  0  0  0
    7.8414   55.9219   19.0683 C   0  0  0  0  0  0
    8.2807   56.1682   17.5961 C   0  0  2  0  0  0
    9.3356   55.9137   17.4622 H   0  0  0  0  0  0
    8.0400   57.6782   17.3195 C   0  0  0  0  0  0
    6.5339   58.0556   17.4939 C   0  0  0  0  0  0
    5.8585   55.7164   16.8321 C   0  0  0  0  0  0
    7.3689   55.3830   16.5918 C   0  0  2  0  0  0
    7.6295   55.6788   15.5723 H   0  0  0  0  0  0
    7.5622   53.8470   16.6167 C   0  0  0  0  0  0
    7.4968   53.2370   17.6809 O   0  0  0  0  0  0
    7.7119   53.2174   15.4377 N   0  0  0  0  0  0
    7.6872   51.7608   15.2654 C   0  0  0  0  0  0
    9.0515   51.0816   15.2857 C   0  0  0  0  0  0
    9.5510   50.4796   14.1261 C   0  0  0  0  0  0
   10.7483   49.7715   14.1716 C   0  0  0  0  0  0
   11.4462   49.6646   15.3710 C   0  0  0  0  0  0
   10.9538   50.2579   16.5295 C   0  0  0  0  0  0
    9.7550   50.9622   16.4884 C   0  0  0  0  0  0
   12.6004   48.9639   15.4170 F   0  0  0  0  0  0
    2.3331   55.0160   30.3860 H   0  0  0  0  0  0
    2.4567   55.8887   28.8705 H   0  0  0  0  0  0
    3.9078   55.2974   29.6651 H   0  0  0  0  0  0
    3.4106   51.6519   28.8858 H   0  0  0  0  0  0
    4.5144   52.8104   29.6102 H   0  0  0  0  0  0
    3.0042   52.4280   30.4143 H   0  0  0  0  0  0
    1.0644   52.4194   28.0817 H   0  0  0  0  0  0
    0.8072   53.2629   29.5923 H   0  0  0  0  0  0
    0.6601   54.1376   28.0818 H   0  0  0  0  0  0
    1.6343   53.4235   26.0787 H   0  0  0  0  0  0
    2.6948   53.7585   23.9368 H   0  0  0  0  0  0
    6.4098   54.6807   25.8974 H   0  0  0  0  0  0
    5.3471   54.3622   28.0600 H   0  0  0  0  0  0
    3.6677   54.1571   21.8122 H   0  0  0  0  0  0
    5.6946   54.1654   19.3401 H   0  0  0  0  0  0
    4.4019   55.2965   19.6459 H   0  0  0  0  0  0
    8.4611   56.5085   19.7471 H   0  0  0  0  0  0
    8.0503   54.8953   19.3707 H   0  0  0  0  0  0
    8.3677   57.9323   16.3097 H   0  0  0  0  0  0
    8.6517   58.2873   17.9865 H   0  0  0  0  0  0
    6.0813   58.4029   16.5623 H   0  0  0  0  0  0
    6.3774   58.8287   18.2494 H   0  0  0  0  0  0
    5.2328   54.8657   17.1129 H   0  0  0  0  0  0
    5.3948   56.1303   15.9343 H   0  0  0  0  0  0
    7.8607   53.7653   14.6047 H   0  0  0  0  0  0
    7.0759   51.2969   16.0452 H   0  0  0  0  0  0
    7.1727   51.5388   14.3278 H   0  0  0  0  0  0
    9.0073   50.5425   13.1942 H   0  0  0  0  0  0
   11.1351   49.2975   13.2819 H   0  0  0  0  0  0
   11.4941   50.1632   17.4602 H   0  0  0  0  0  0
    9.3661   51.3978   17.3979 H   0  0  0  0  0  0
    5.7337   56.7962   17.9449 N   0  3  1  0  0  0
    4.7608   57.0438   18.0738 H   0  0  0  0  0  0
  1  2  1  0  0  0
  1 38  1  0  0  0
  1 39  1  0  0  0
  1 40  1  0  0  0
  2  3  1  0  0  0
  2  4  1  0  0  0
  2  5  1  0  0  0
  3 41  1  0  0  0
  3 42  1  0  0  0
  3 43  1  0  0  0
  4 44  1  0  0  0
  4 45  1  0  0  0
  4 46  1  0  0  0
  5 10  2  0  0  0
  5  6  1  0  0  0
  6  7  2  0  0  0
  6 47  1  0  0  0
  7  8  1  0  0  0
  7 48  1  0  0  0
  8  9  2  0  0  0
  8 11  1  0  0  0
  9 10  1  0  0  0
  9 49  1  0  0  0
 10 50  1  0  0  0
 11 15  1  0  0  0
 11 12  2  0  0  0
 12 13  1  0  0  0
 12 51  1  0  0  0
 13 14  1  0  0  0
 13 16  1  0  0  0
 14 15  2  0  0  0
 16 17  1  0  0  0
 16 52  1  0  0  0
 16 53  1  0  0  0
 17 18  1  0  0  0
 17 19  1  0  0  0
 17 69  1  0  0  0
 19 20  1  0  0  0
 19 54  1  0  0  0
 19 55  1  0  0  0
 20 21  1  0  0  0
 20 25  1  0  0  0
 20 22  1  0  0  0
 22 23  1  0  0  0
 22 56  1  0  0  0
 22 57  1  0  0  0
 23 58  1  0  0  0
 23 59  1  0  0  0
 23 69  1  0  0  0
 24 25  1  0  0  0
 24 60  1  0  0  0
 24 61  1  0  0  0
 24 69  1  0  0  0
 25 26  1  0  0  0
 25 27  1  0  0  0
 27 28  2  0  0  0
 27 29  1  0  0  0
 29 30  1  0  0  0
 29 62  1  0  0  0
 30 31  1  0  0  0
 30 63  1  0  0  0
 30 64  1  0  0  0
 31 36  2  0  0  0
 31 32  1  0  0  0
 32 33  2  0  0  0
 32 65  1  0  0  0
 33 34  1  0  0  0
 33 66  1  0  0  0
 34 35  2  0  0  0
 34 37  1  0  0  0
 35 36  1  0  0  0
 35 67  1  0  0  0
 36 68  1  0  0  0
 69 70  1  0  0  0
M  CHG  1  69   1
M  END
> <i_i_glide_confnum>
19

> <i_i_glide_lignum>
713

> <i_i_glide_posenum>
187

> <i_i_glide_rotatable_bonds>
8

> <i_m_Source_File_Index>
716

> <b_m_subgroup_collapsed>
0

> <r_i_docking_score>
-5.45737

> <r_i_glide_ecoul>
-2.84905

> <r_i_glide_eff_state_penalty>
0

> <r_i_glide_einternal>
5.59174

> <r_i_glide_emodel>
-58.5732

> <r_i_glide_energy>
-45.1264

> <r_i_glide_erotb>
0.534902

> <r_i_glide_esite>
-0.0141479

> <r_i_glide_evdw>
-42.2774

> <r_i_glide_gscore>
-5.45737

> <r_i_glide_hbond>
0

> <r_i_glide_ligand_efficiency>
-0.155925

> <r_i_glide_ligand_efficiency_ln>
-1.19801

> <r_i_glide_ligand_efficiency_sa>
-0.510041

> <r_i_glide_lipo>
-2.92146

> <r_i_glide_metal>
0

> <r_i_glide_rewards>
-0.515439

> <s_i_glide_gridfile>
wee1_glide-grid

> <s_m_Source_File>
wee1_decoys_glide_SP.sdf

> <s_m_Source_Path>
/Users/zhangxujun/Desktop

> <s_m_entry_id>
991

> <s_m_entry_name>
wee1_decoys_glide_SP.716

> <s_m_subgroup_title>
wee1_decoys_glide_SP

> <s_m_subgroupid>
wee1_decoys_glide_SP


$$$$
