ZINC10339246_1522
                    3D
 Schrodinger Suite 2024-2.
 52 55  0  0  1  0            999 V2000
   -3.5913   46.8712   24.0793 C   0  0  0  0  0  0
   -2.0792   46.7051   23.8665 C   0  0  0  0  0  0
   -1.3768   47.9129   24.1372 O   0  0  0  0  0  0
   -1.2867   48.9197   23.2253 C   0  0  0  0  0  0
   -1.7705   48.8299   22.0949 O   0  0  0  0  0  0
   -0.4723   50.1049   23.6553 C   0  0  0  0  0  0
   -0.2640   50.3552   24.9798 C   0  0  0  0  0  0
    0.4927   51.3618   25.4598 O   0  0  0  0  0  0
    1.2019   52.1611   24.6383 C   0  0  0  0  0  0
    1.1208   52.1031   23.2827 C   0  0  0  0  0  0
    0.2036   51.0319   22.5848 C   0  0  1  0  0  0
    0.9012   50.2209   21.5286 C   0  0  0  0  0  0
    1.9036   49.2604   21.6534 C   0  0  0  0  0  0
    2.3044   48.5408   20.5292 C   0  0  0  0  0  0
    1.7541   48.8129   19.2792 C   0  0  0  0  0  0
    0.7647   49.7859   19.1564 C   0  0  0  0  0  0
    0.3378   50.4944   20.2914 C   0  0  0  0  0  0
   -0.6707   51.4696   20.4305 N   0  0  0  0  0  0
   -0.8885   51.7611   21.7508 C   0  0  0  0  0  0
   -1.7554   52.4955   22.2411 O   0  0  0  0  0  0
   -1.2902   52.0966   19.3889 C   0  0  0  0  0  0
   -2.4766   52.4397   19.3959 O   0  0  0  0  0  0
   -0.4609   52.4941   18.1627 C   0  0  0  0  0  0
    1.9524   53.0406   22.4820 C   0  0  0  0  0  0
    2.1604   52.8855   21.2825 O   0  0  0  0  0  0
    2.6552   54.1795   23.2408 C   0  0  0  0  0  0
    3.2185   53.6963   24.5880 C   0  0  2  0  0  0
    3.9176   52.8967   24.3621 H   0  0  0  0  0  0
    2.0987   53.0911   25.4605 C   0  0  0  0  0  0
    4.0720   54.7457   25.3256 C   0  0  0  0  0  0
   -0.7367   49.6968   26.0817 N   0  0  0  0  0  0
   -4.1187   45.9339   23.9040 H   0  0  0  0  0  0
   -3.8092   47.1930   25.0983 H   0  0  0  0  0  0
   -4.0067   47.6154   23.3987 H   0  0  0  0  0  0
   -1.8623   46.3480   22.8578 H   0  0  0  0  0  0
   -1.7012   45.9466   24.5527 H   0  0  0  0  0  0
    2.3352   49.0310   22.6171 H   0  0  0  0  0  0
    3.0472   47.7647   20.6274 H   0  0  0  0  0  0
    2.0897   48.2674   18.4083 H   0  0  0  0  0  0
    0.3375   49.9510   18.1800 H   0  0  0  0  0  0
    0.6109   52.4612   18.3637 H   0  0  0  0  0  0
   -0.6865   51.8428   17.3191 H   0  0  0  0  0  0
   -0.7009   53.5164   17.8706 H   0  0  0  0  0  0
    1.9014   54.9443   23.4137 H   0  0  0  0  0  0
    3.4185   54.6206   22.5987 H   0  0  0  0  0  0
    1.5044   53.8378   25.9863 H   0  0  0  0  0  0
    2.5654   52.4983   26.2489 H   0  0  0  0  0  0
    3.5042   55.6025   25.6800 H   0  0  0  0  0  0
    4.5541   54.3034   26.1984 H   0  0  0  0  0  0
    4.8666   55.1242   24.6813 H   0  0  0  0  0  0
   -1.2994   48.8627   25.9883 H   0  0  0  0  0  0
   -0.4964   49.9686   27.0240 H   0  0  0  0  0  0
  1  2  1  0  0  0
  1 32  1  0  0  0
  1 33  1  0  0  0
  1 34  1  0  0  0
  2  3  1  0  0  0
  2 35  1  0  0  0
  2 36  1  0  0  0
  3  4  1  0  0  0
  4  5  2  0  0  0
  4  6  1  0  0  0
  6 11  1  0  0  0
  6  7  2  0  0  0
  7  8  1  0  0  0
  7 31  1  0  0  0
  8  9  1  0  0  0
  9 29  1  0  0  0
  9 10  2  0  0  0
 10 11  1  0  0  0
 10 24  1  0  0  0
 11 19  1  0  0  0
 11 12  1  0  0  0
 12 17  2  0  0  0
 12 13  1  0  0  0
 13 14  2  0  0  0
 13 37  1  0  0  0
 14 15  1  0  0  0
 14 38  1  0  0  0
 15 16  2  0  0  0
 15 39  1  0  0  0
 16 17  1  0  0  0
 16 40  1  0  0  0
 17 18  1  0  0  0
 18 19  1  0  0  0
 18 21  1  0  0  0
 19 20  2  0  0  0
 21 22  2  0  0  0
 21 23  1  0  0  0
 23 41  1  0  0  0
 23 42  1  0  0  0
 23 43  1  0  0  0
 24 25  2  0  0  0
 24 26  1  0  0  0
 26 27  1  0  0  0
 26 44  1  0  0  0
 26 45  1  0  0  0
 27 28  1  0  0  0
 27 29  1  0  0  0
 27 30  1  0  0  0
 29 46  1  0  0  0
 29 47  1  0  0  0
 30 48  1  0  0  0
 30 49  1  0  0  0
 30 50  1  0  0  0
 31 51  1  0  0  0
 31 52  1  0  0  0
M  END
> <i_i_glide_confnum>
2

> <i_i_glide_lignum>
1523

> <i_i_glide_posenum>
264

> <i_i_glide_rotatable_bonds>
4

> <i_m_Source_File_Index>
827

> <b_m_subgroup_collapsed>
0

> <r_i_docking_score>
-3.77498

> <r_i_glide_ecoul>
-7.88722

> <r_i_glide_eff_state_penalty>
0

> <r_i_glide_einternal>
5.52396

> <r_i_glide_emodel>
-34.5712

> <r_i_glide_energy>
-32.1378

> <r_i_glide_erotb>
0.233905

> <r_i_glide_esite>
-0.141442

> <r_i_glide_evdw>
-24.2506

> <r_i_glide_gscore>
-3.77498

> <r_i_glide_hbond>
-0.325528

> <r_i_glide_ligand_efficiency>
-0.125833

> <r_i_glide_ligand_efficiency_ln>
-0.857716

> <r_i_glide_ligand_efficiency_sa>
-0.390991

> <r_i_glide_lipo>
-1.21242

> <r_i_glide_metal>
0

> <r_i_glide_rewards>
0.0661188

> <s_i_glide_gridfile>
wee1_glide-grid

> <s_m_Source_File>
wee1_decoys_glide_SP.sdf

> <s_m_Source_Path>
/Users/zhangxujun/Desktop

> <s_m_entry_id>
1102

> <s_m_entry_name>
wee1_decoys_glide_SP.827

> <s_m_subgroup_title>
wee1_decoys_glide_SP

> <s_m_subgroupid>
wee1_decoys_glide_SP


$$$$
