ZINC39584689_2730
                    3D
 Schrodinger Suite 2024-2.
 41 43  0  0  1  0            999 V2000
    1.0793   53.8534   29.4742 C   0  0  0  0  0  0
    2.4533   54.2261   29.4273 O   0  0  0  0  0  0
    3.1354   54.1672   28.2216 C   0  0  0  0  0  0
    2.5384   53.8090   26.9986 C   0  0  0  0  0  0
    3.2733   53.7782   25.8029 C   0  0  0  0  0  0
    4.6333   54.0969   25.8529 C   0  0  0  0  0  0
    5.2457   54.4488   27.0514 C   0  0  0  0  0  0
    4.4984   54.4968   28.2298 C   0  0  0  0  0  0
    5.1049   54.8967   29.3944 O   0  0  0  0  0  0
    7.1042   54.8593   27.0408 Br  0  0  0  0  0  0
    2.6760   53.4166   24.5098 C   0  0  0  0  0  0
    1.4399   53.1659   24.3465 N   0  0  0  0  0  0
    1.1347   52.8216   23.0779 N   0  0  0  0  0  0
   -0.1162   52.4966   22.6920 C   0  0  0  0  0  0
   -1.0982   52.5503   23.4428 O   0  0  0  0  0  0
   -0.2593   52.0680   21.2075 C   0  0  1  0  0  0
    0.0680   52.8969   20.5803 H   0  0  0  0  0  0
    0.4747   50.8001   20.8878 C   0  0  0  0  0  0
   -0.4937   49.9609   20.5017 C   0  0  0  0  0  0
   -1.7181   50.5375   20.5033 N   0  0  0  0  0  0
   -1.6288   51.7433   20.8873 N   0  0  0  0  0  0
   -0.3349   48.5789   19.9900 C   0  0  0  0  0  0
    0.8581   48.1904   19.3660 C   0  0  0  0  0  0
    1.0081   46.8960   18.8758 C   0  0  0  0  0  0
   -0.0227   45.9721   19.0294 C   0  0  0  0  0  0
   -1.2072   46.3378   19.6603 C   0  0  0  0  0  0
   -1.3631   47.6363   20.1354 C   0  0  0  0  0  0
    0.1791   44.3581   18.4496 Cl  0  0  0  0  0  0
    0.7188   53.9538   30.4983 H   0  0  0  0  0  0
    0.4651   54.4981   28.8435 H   0  0  0  0  0  0
    0.9335   52.8143   29.1750 H   0  0  0  0  0  0
    1.4907   53.5539   26.9617 H   0  0  0  0  0  0
    5.2365   54.0696   24.9567 H   0  0  0  0  0  0
    6.0226   55.1763   29.2797 H   0  0  0  0  0  0
    3.3904   53.3780   23.6871 H   0  0  0  0  0  0
    1.9087   52.7898   22.4295 H   0  0  0  0  0  0
    1.5438   50.6493   20.9452 H   0  0  0  0  0  0
    1.6703   48.8915   19.2313 H   0  0  0  0  0  0
    1.9212   46.6143   18.3739 H   0  0  0  0  0  0
   -2.0025   45.6193   19.7876 H   0  0  0  0  0  0
   -2.2879   47.9124   20.6215 H   0  0  0  0  0  0
  1  2  1  0  0  0
  1 29  1  0  0  0
  1 30  1  0  0  0
  1 31  1  0  0  0
  2  3  1  0  0  0
  3  8  2  0  0  0
  3  4  1  0  0  0
  4  5  2  0  0  0
  4 32  1  0  0  0
  5  6  1  0  0  0
  5 11  1  0  0  0
  6  7  2  0  0  0
  6 33  1  0  0  0
  7  8  1  0  0  0
  7 10  1  0  0  0
  8  9  1  0  0  0
  9 34  1  0  0  0
 11 12  2  0  0  0
 11 35  1  0  0  0
 12 13  1  0  0  0
 13 14  1  0  0  0
 13 36  1  0  0  0
 14 15  2  0  0  0
 14 16  1  0  0  0
 16 17  1  0  0  0
 16 21  1  0  0  0
 16 18  1  0  0  0
 18 19  2  0  0  0
 18 37  1  0  0  0
 19 20  1  0  0  0
 19 22  1  0  0  0
 20 21  2  0  0  0
 22 27  2  0  0  0
 22 23  1  0  0  0
 23 24  2  0  0  0
 23 38  1  0  0  0
 24 25  1  0  0  0
 24 39  1  0  0  0
 25 26  2  0  0  0
 25 28  1  0  0  0
 26 27  1  0  0  0
 26 40  1  0  0  0
 27 41  1  0  0  0
M  END
> <i_i_glide_confnum>
9

> <i_i_glide_lignum>
2731

> <i_i_glide_posenum>
314

> <i_i_glide_rotatable_bonds>
7

> <i_m_Source_File_Index>
4054

> <b_m_subgroup_collapsed>
0

> <r_i_docking_score>
-4.60435

> <r_i_glide_ecoul>
-6.69875

> <r_i_glide_eff_state_penalty>
0

> <r_i_glide_einternal>
1.15292

> <r_i_glide_emodel>
-53.2939

> <r_i_glide_energy>
-40.6619

> <r_i_glide_erotb>
0.495579

> <r_i_glide_esite>
-0.0256219

> <r_i_glide_evdw>
-33.9631

> <r_i_glide_gscore>
-4.60435

> <r_i_glide_hbond>
0

> <r_i_glide_ligand_efficiency>
-0.170532

> <r_i_glide_ligand_efficiency_ln>
-1.07182

> <r_i_glide_ligand_efficiency_sa>
-0.511595

> <r_i_glide_lipo>
-1.63789

> <r_i_glide_metal>
0

> <r_i_glide_rewards>
-0.733454

> <s_i_glide_gridfile>
wee1_glide-grid

> <s_m_Source_File>
wee1_decoys_glide_SP.sdf

> <s_m_Source_Path>
/Users/zhangxujun/Desktop

> <s_m_entry_id>
4329

> <s_m_entry_name>
wee1_decoys_glide_SP.4054

> <s_m_subgroup_title>
wee1_decoys_glide_SP

> <s_m_subgroupid>
wee1_decoys_glide_SP


$$$$
