ZINC39768808_3178
                    3D
 Schrodinger Suite 2024-2.
 57 59  0  0  1  0            999 V2000
    3.4888   53.1354   18.8127 C   0  0  0  0  0  0
    2.8796   52.6376   20.1376 C   0  0  2  0  0  0
    2.0362   53.2827   20.3427 H   0  0  0  0  0  0
    3.8914   52.7857   21.2918 C   0  0  0  0  0  0
    4.9140   52.0961   21.3068 O   0  0  0  0  0  0
    3.5930   53.7057   22.2350 N   0  0  0  0  0  0
    4.4124   54.0683   23.3165 C   0  0  0  0  0  0
    3.8526   54.0957   24.5988 C   0  0  0  0  0  0
    4.6183   54.4967   25.6964 C   0  0  0  0  0  0
    5.9429   54.8923   25.5139 C   0  0  0  0  0  0
    6.4931   54.8953   24.2368 C   0  0  0  0  0  0
    5.7381   54.4952   23.1371 C   0  0  0  0  0  0
    6.2863   54.5927   21.9044 F   0  0  0  0  0  0
    6.6907   55.2935   26.5664 F   0  0  0  0  0  0
    2.1711   50.9602   19.9575 S   0  0  0  0  0  0
    1.6286   50.6238   21.6021 C   0  0  0  0  0  0
    2.2021   49.7291   22.3662 N   0  0  0  0  0  0
    1.5038   49.7002   23.5658 N   0  0  0  0  0  0
    0.5219   50.5495   23.4728 C   0  0  0  0  0  0
    0.5259   51.1638   22.2375 N   0  0  0  0  0  0
   -0.4435   52.1190   21.7148 C   0  0  0  0  0  0
   -1.5020   51.4636   20.8490 C   0  0  0  0  0  0
   -1.6714   51.7045   19.5394 C   0  0  0  0  0  0
   -0.4675   50.8112   24.5956 C   0  0  0  0  0  0
    0.0488   51.8601   25.5894 C   0  0  0  0  0  0
    0.5542   52.8938   25.1606 O   0  0  0  0  0  0
   -0.1200   51.5613   26.8929 N   0  0  0  0  0  0
    0.1884   52.3150   28.0380 C   0  0  0  0  0  0
   -0.3175   51.8081   29.2343 C   0  0  0  0  0  0
   -0.0963   52.4760   30.4326 C   0  0  0  0  0  0
    0.6083   53.6714   30.4568 C   0  0  0  0  0  0
    1.1273   54.1906   29.2702 C   0  0  0  0  0  0
    0.9377   53.5058   28.0654 C   0  0  0  0  0  0
    2.0319   55.7078   29.2796 S   0  0  0  0  0  0
    1.3721   56.7306   30.6271 C   0  0  0  0  0  0
    3.8746   54.1533   18.8959 H   0  0  0  0  0  0
    4.3072   52.4940   18.4846 H   0  0  0  0  0  0
    2.7455   53.1395   18.0150 H   0  0  0  0  0  0
    2.6815   54.1362   22.1994 H   0  0  0  0  0  0
    2.8293   53.7958   24.7542 H   0  0  0  0  0  0
    4.1874   54.5026   26.6872 H   0  0  0  0  0  0
    7.5028   55.2373   24.0870 H   0  0  0  0  0  0
   -0.9180   52.6358   22.5491 H   0  0  0  0  0  0
    0.0918   52.8845   21.1575 H   0  0  0  0  0  0
   -2.1515   50.7566   21.3459 H   0  0  0  0  0  0
   -2.4442   51.2033   18.9749 H   0  0  0  0  0  0
   -1.0360   52.4015   19.0110 H   0  0  0  0  0  0
   -0.6453   49.8778   25.1347 H   0  0  0  0  0  0
   -1.4447   51.1215   24.2285 H   0  0  0  0  0  0
   -0.5747   50.6809   27.0940 H   0  0  0  0  0  0
   -0.8967   50.8971   29.2515 H   0  0  0  0  0  0
   -0.4943   52.0594   31.3392 H   0  0  0  0  0  0
    0.7436   54.1736   31.4015 H   0  0  0  0  0  0
    1.3581   53.9242   27.1650 H   0  0  0  0  0  0
    1.8756   57.6962   30.6467 H   0  0  0  0  0  0
    0.3068   56.8963   30.4820 H   0  0  0  0  0  0
    1.5053   56.2667   31.6017 H   0  0  0  0  0  0
  1  2  1  0  0  0
  1 36  1  0  0  0
  1 37  1  0  0  0
  1 38  1  0  0  0
  2  3  1  0  0  0
  2  4  1  0  0  0
  2 15  1  0  0  0
  4  5  2  0  0  0
  4  6  1  0  0  0
  6  7  1  0  0  0
  6 39  1  0  0  0
  7 12  2  0  0  0
  7  8  1  0  0  0
  8  9  2  0  0  0
  8 40  1  0  0  0
  9 10  1  0  0  0
  9 41  1  0  0  0
 10 11  2  0  0  0
 10 14  1  0  0  0
 11 12  1  0  0  0
 11 42  1  0  0  0
 12 13  1  0  0  0
 15 16  1  0  0  0
 16 20  1  0  0  0
 16 17  2  0  0  0
 17 18  1  0  0  0
 18 19  2  0  0  0
 19 20  1  0  0  0
 19 24  1  0  0  0
 20 21  1  0  0  0
 21 22  1  0  0  0
 21 43  1  0  0  0
 21 44  1  0  0  0
 22 23  2  0  0  0
 22 45  1  0  0  0
 23 46  1  0  0  0
 23 47  1  0  0  0
 24 25  1  0  0  0
 24 48  1  0  0  0
 24 49  1  0  0  0
 25 26  2  0  0  0
 25 27  1  0  0  0
 27 28  1  0  0  0
 27 50  1  0  0  0
 28 33  2  0  0  0
 28 29  1  0  0  0
 29 30  2  0  0  0
 29 51  1  0  0  0
 30 31  1  0  0  0
 30 52  1  0  0  0
 31 32  2  0  0  0
 31 53  1  0  0  0
 32 33  1  0  0  0
 32 34  1  0  0  0
 33 54  1  0  0  0
 34 35  1  0  0  0
 35 55  1  0  0  0
 35 56  1  0  0  0
 35 57  1  0  0  0
M  END
> <i_i_glide_confnum>
297

> <i_i_glide_lignum>
3179

> <i_i_glide_posenum>
398

> <i_i_glide_rotatable_bonds>
12

> <i_m_Source_File_Index>
4123

> <b_m_subgroup_collapsed>
0

> <r_i_docking_score>
-6.79939

> <r_i_glide_ecoul>
-7.31968

> <r_i_glide_eff_state_penalty>
0

> <r_i_glide_einternal>
6.96733

> <r_i_glide_emodel>
-82.5774

> <r_i_glide_energy>
-61.0384

> <r_i_glide_erotb>
0.806023

> <r_i_glide_esite>
-0.0320143

> <r_i_glide_evdw>
-53.7187

> <r_i_glide_gscore>
-6.79939

> <r_i_glide_hbond>
0

> <r_i_glide_ligand_efficiency>
-0.199982

> <r_i_glide_ligand_efficiency_ln>
-1.50218

> <r_i_glide_ligand_efficiency_sa>
-0.647865

> <r_i_glide_lipo>
-2.83066

> <r_i_glide_metal>
0

> <r_i_glide_rewards>
-0.958854

> <s_i_glide_gridfile>
wee1_glide-grid

> <s_m_Source_File>
wee1_decoys_glide_SP.sdf

> <s_m_Source_Path>
/Users/zhangxujun/Desktop

> <s_m_entry_id>
4398

> <s_m_entry_name>
wee1_decoys_glide_SP.4123

> <s_m_subgroup_title>
wee1_decoys_glide_SP

> <s_m_subgroupid>
wee1_decoys_glide_SP


$$$$
