ZINC37201061_4787
                    3D
 Schrodinger Suite 2024-2.
 39 41  0  0  1  0            999 V2000
    2.6939   52.8024   29.1072 C   0  0  0  0  0  0
    1.9061   53.1892   28.0308 C   0  0  0  0  0  0
    2.4943   53.7997   26.9268 C   0  0  0  0  0  0
    3.8719   54.0434   26.8771 C   0  0  0  0  0  0
    4.6822   53.6072   27.9557 C   0  0  0  0  0  0
    4.0706   53.0061   29.0618 C   0  0  0  0  0  0
    6.2106   53.6962   27.8917 C   0  0  0  0  0  0
    6.7042   54.6366   26.7810 C   0  0  0  0  0  0
    5.9511   54.3517   25.4697 C   0  0  1  0  0  0
    5.9942   53.2971   25.2108 H   0  0  0  0  0  0
    4.4851   54.7810   25.6816 C   0  0  0  0  0  0
    6.5966   55.0974   24.3883 N   0  0  0  0  0  0
    6.3468   54.8774   23.0193 C   0  0  0  0  0  0
    7.1044   55.6108   22.1001 C   0  0  0  0  0  0
    6.8561   55.5204   20.7319 C   0  0  0  0  0  0
    5.8372   54.6943   20.2633 C   0  0  0  0  0  0
    5.0891   53.9309   21.1640 C   0  0  0  0  0  0
    5.3618   54.0039   22.5348 C   0  0  0  0  0  0
    3.7555   52.8961   20.5642 S   0  0  0  0  0  0
    2.7251   52.8770   21.6067 O   0  0  0  0  0  0
    3.4540   53.2975   19.1877 O   0  0  0  0  0  0
    4.4155   51.2959   20.4831 N   0  0  0  0  0  0
    2.2403   52.3253   29.9639 H   0  0  0  0  0  0
    0.8400   53.0154   28.0516 H   0  0  0  0  0  0
    1.8656   54.0967   26.1003 H   0  0  0  0  0  0
    4.6787   52.6582   29.8834 H   0  0  0  0  0  0
    6.6187   54.0133   28.8519 H   0  0  0  0  0  0
    6.6025   52.6943   27.7051 H   0  0  0  0  0  0
    6.5603   55.6723   27.0949 H   0  0  0  0  0  0
    7.7761   54.4959   26.6597 H   0  0  0  0  0  0
    3.8793   54.6198   24.7912 H   0  0  0  0  0  0
    4.4479   55.8502   25.8766 H   0  0  0  0  0  0
    6.9692   56.0043   24.6204 H   0  0  0  0  0  0
    7.9030   56.2494   22.4473 H   0  0  0  0  0  0
    7.4513   56.0900   20.0330 H   0  0  0  0  0  0
    5.6367   54.6411   19.2018 H   0  0  0  0  0  0
    4.7780   53.4018   23.2130 H   0  0  0  0  0  0
    3.7512   50.6063   20.8413 H   0  0  0  0  0  0
    4.7076   51.0420   19.5191 H   0  0  0  0  0  0
  1  6  2  0  0  0
  1  2  1  0  0  0
  1 23  1  0  0  0
  2  3  2  0  0  0
  2 24  1  0  0  0
  3  4  1  0  0  0
  3 25  1  0  0  0
  4 11  1  0  0  0
  4  5  2  0  0  0
  5  6  1  0  0  0
  5  7  1  0  0  0
  6 26  1  0  0  0
  7  8  1  0  0  0
  7 27  1  0  0  0
  7 28  1  0  0  0
  8  9  1  0  0  0
  8 29  1  0  0  0
  8 30  1  0  0  0
  9 10  1  0  0  0
  9 11  1  0  0  0
  9 12  1  0  0  0
 11 31  1  0  0  0
 11 32  1  0  0  0
 12 13  1  0  0  0
 12 33  1  0  0  0
 13 18  2  0  0  0
 13 14  1  0  0  0
 14 15  2  0  0  0
 14 34  1  0  0  0
 15 16  1  0  0  0
 15 35  1  0  0  0
 16 17  2  0  0  0
 16 36  1  0  0  0
 17 18  1  0  0  0
 17 19  1  0  0  0
 18 37  1  0  0  0
 19 20  2  0  0  0
 19 21  2  0  0  0
 19 22  1  0  0  0
 22 38  1  0  0  0
 22 39  1  0  0  0
M  END
> <i_i_glide_confnum>
1

> <i_i_glide_lignum>
4788

> <i_i_glide_posenum>
380

> <i_i_glide_rotatable_bonds>
3

> <i_m_Source_File_Index>
1662

> <b_m_subgroup_collapsed>
0

> <r_i_docking_score>
-6.98052

> <r_i_glide_ecoul>
-1.51078

> <r_i_glide_eff_state_penalty>
0

> <r_i_glide_einternal>
2.05724

> <r_i_glide_emodel>
-53.9834

> <r_i_glide_energy>
-38.5448

> <r_i_glide_erotb>
0.402694

> <r_i_glide_esite>
-0.108699

> <r_i_glide_evdw>
-37.034

> <r_i_glide_gscore>
-6.98052

> <r_i_glide_hbond>
-0.16

> <r_i_glide_ligand_efficiency>
-0.332406

> <r_i_glide_ligand_efficiency_ln>
-1.72592

> <r_i_glide_ligand_efficiency_sa>
-0.917083

> <r_i_glide_lipo>
-3.58704

> <r_i_glide_metal>
0

> <r_i_glide_rewards>
-1.44916

> <s_i_glide_gridfile>
wee1_glide-grid

> <s_m_Source_File>
wee1_decoys_glide_SP.sdf

> <s_m_Source_Path>
/Users/zhangxujun/Desktop

> <s_m_entry_id>
1937

> <s_m_entry_name>
wee1_decoys_glide_SP.1662

> <s_m_subgroup_title>
wee1_decoys_glide_SP

> <s_m_subgroupid>
wee1_decoys_glide_SP


$$$$
