ZINC63350181_6068
                    3D
 Schrodinger Suite 2024-2.
 54 58  0  0  1  0            999 V2000
    2.8495   55.2684   29.3921 C   0  0  0  0  0  0
    2.6859   54.6761   28.1164 O   0  0  0  0  0  0
    1.6858   53.7455   27.9385 C   0  0  0  0  0  0
    0.9007   53.2602   28.9994 C   0  0  0  0  0  0
   -0.1567   52.3897   28.7650 C   0  0  0  0  0  0
   -0.4831   52.0039   27.4640 C   0  0  0  0  0  0
    0.3030   52.4846   26.4130 C   0  0  0  0  0  0
    1.4173   53.2963   26.6344 C   0  0  0  0  0  0
    2.2488   53.6777   25.4063 C   0  0  0  0  0  0
    3.5905   54.0301   25.7358 O   0  0  0  0  0  0
    4.4912   54.2987   24.7240 C   0  0  0  0  0  0
    4.2356   54.0965   23.3570 C   0  0  0  0  0  0
    5.2163   54.3791   22.4098 C   0  0  0  0  0  0
    6.4422   54.8961   22.8195 C   0  0  0  0  0  0
    6.7022   55.1115   24.1713 C   0  0  0  0  0  0
    5.7310   54.8015   25.1197 C   0  0  0  0  0  0
    7.7487   55.3604   21.5151 Br  0  0  0  0  0  0
   -1.6700   51.0494   27.2557 C   0  0  2  0  0  0
   -1.6494   50.4966   28.1909 H   0  0  0  0  0  0
   -1.5857   50.0108   26.0813 C   0  0  1  0  0  0
   -2.1591   49.1218   26.3515 H   0  0  0  0  0  0
   -2.0900   50.6211   24.7892 C   0  0  0  0  0  0
   -1.1648   50.4775   23.8299 C   0  0  0  0  0  0
   -1.1338   50.9260   22.4301 C   0  0  0  0  0  0
   -0.0306   50.7424   21.6774 C   0  0  0  0  0  0
    1.1261   50.1152   22.3014 C   0  0  0  0  0  0
    1.1044   49.6962   23.5938 C   0  0  0  0  0  0
   -0.0433   49.8463   24.3794 C   0  0  0  0  0  0
   -0.2535   49.5283   25.6462 N   0  3  0  0  0  0
   -3.4142   51.3577   24.8575 C   0  0  0  0  0  0
   -3.3356   52.3674   26.0259 C   0  0  0  0  0  0
   -2.9859   51.6966   27.2790 N   0  0  0  0  0  0
    3.5306   56.0969   29.2821 H   0  0  0  0  0  0
    1.9197   55.6753   29.7935 H   0  0  0  0  0  0
    3.2841   54.5603   30.0963 H   0  0  0  0  0  0
    1.0863   53.5507   30.0214 H   0  0  0  0  0  0
   -0.7402   52.0321   29.6027 H   0  0  0  0  0  0
    0.0536   52.2444   25.3963 H   0  0  0  0  0  0
    2.2569   52.8171   24.7338 H   0  0  0  0  0  0
    1.7558   54.4966   24.8831 H   0  0  0  0  0  0
    3.2882   53.7168   23.0077 H   0  0  0  0  0  0
    5.0156   54.2236   21.3596 H   0  0  0  0  0  0
    7.6410   55.5375   24.4828 H   0  0  0  0  0  0
    5.9281   54.9658   26.1690 H   0  0  0  0  0  0
   -1.9915   51.3938   21.9685 H   0  0  0  0  0  0
    0.0040   51.0591   20.6442 H   0  0  0  0  0  0
    2.0383   50.0109   21.7295 H   0  0  0  0  0  0
    2.0106   49.2967   24.0160 H   0  0  0  0  0  0
   -3.6290   51.8863   23.9288 H   0  0  0  0  0  0
   -4.2413   50.6636   25.0124 H   0  0  0  0  0  0
   -2.6049   53.1440   25.7920 H   0  0  0  0  0  0
   -4.3077   52.8497   26.1388 H   0  0  0  0  0  0
   -3.6955   51.0231   27.5373 H   0  0  0  0  0  0
    0.4034   49.0599   26.2669 H   0  0  0  0  0  0
  1  2  1  0  0  0
  1 33  1  0  0  0
  1 34  1  0  0  0
  1 35  1  0  0  0
  2  3  1  0  0  0
  3  8  2  0  0  0
  3  4  1  0  0  0
  4  5  2  0  0  0
  4 36  1  0  0  0
  5  6  1  0  0  0
  5 37  1  0  0  0
  6  7  2  0  0  0
  6 18  1  0  0  0
  7  8  1  0  0  0
  7 38  1  0  0  0
  8  9  1  0  0  0
  9 10  1  0  0  0
  9 39  1  0  0  0
  9 40  1  0  0  0
 10 11  1  0  0  0
 11 16  2  0  0  0
 11 12  1  0  0  0
 12 13  2  0  0  0
 12 41  1  0  0  0
 13 14  1  0  0  0
 13 42  1  0  0  0
 14 15  2  0  0  0
 14 17  1  0  0  0
 15 16  1  0  0  0
 15 43  1  0  0  0
 16 44  1  0  0  0
 18 19  1  0  0  0
 18 32  1  0  0  0
 18 20  1  0  0  0
 20 21  1  0  0  0
 20 29  1  0  0  0
 20 22  1  0  0  0
 22 23  2  0  0  0
 22 30  1  0  0  0
 23 28  1  0  0  0
 23 24  1  0  0  0
 24 25  2  0  0  0
 24 45  1  0  0  0
 25 26  1  0  0  0
 25 46  1  0  0  0
 26 27  2  0  0  0
 26 47  1  0  0  0
 27 28  1  0  0  0
 27 48  1  0  0  0
 28 29  2  0  0  0
 29 54  1  0  0  0
 30 31  1  0  0  0
 30 49  1  0  0  0
 30 50  1  0  0  0
 31 32  1  0  0  0
 31 51  1  0  0  0
 31 52  1  0  0  0
 32 53  1  0  0  0
M  CHG  1  29   1
M  END
> <i_i_glide_confnum>
64

> <i_i_glide_lignum>
6069

> <i_i_glide_posenum>
187

> <i_i_glide_rotatable_bonds>
5

> <i_m_Source_File_Index>
3940

> <b_m_subgroup_collapsed>
0

> <r_i_docking_score>
-4.77242

> <r_i_glide_ecoul>
-1.91049

> <r_i_glide_eff_state_penalty>
0

> <r_i_glide_einternal>
5.0169

> <r_i_glide_emodel>
-49.2644

> <r_i_glide_energy>
-38.7317

> <r_i_glide_erotb>
0.37393

> <r_i_glide_esite>
-0.0727614

> <r_i_glide_evdw>
-36.8212

> <r_i_glide_gscore>
-4.77242

> <r_i_glide_hbond>
0

> <r_i_glide_ligand_efficiency>
-0.159081

> <r_i_glide_ligand_efficiency_ln>
-1.08434

> <r_i_glide_ligand_efficiency_sa>
-0.4943

> <r_i_glide_lipo>
-2.6241

> <r_i_glide_metal>
0

> <r_i_glide_rewards>
-0.321847

> <s_i_glide_gridfile>
wee1_glide-grid

> <s_m_Source_File>
wee1_decoys_glide_SP.sdf

> <s_m_Source_Path>
/Users/zhangxujun/Desktop

> <s_m_entry_id>
4215

> <s_m_entry_name>
wee1_decoys_glide_SP.3940

> <s_m_subgroup_title>
wee1_decoys_glide_SP

> <s_m_subgroupid>
wee1_decoys_glide_SP


$$$$
