ZINC08920005_412
                    3D
 Schrodinger Suite 2024-2.
 55 59  0  0  1  0            999 V2000
    5.8931   54.1427   28.8809 C   0  0  0  0  0  0
    5.4829   54.2557   27.4381 C   0  0  0  0  0  0
    4.1961   54.1578   26.8795 C   0  0  0  0  0  0
    4.2410   54.1635   25.4623 C   0  0  0  0  0  0
    5.5380   54.3128   24.9734 C   0  0  0  0  0  0
    6.7025   54.4904   26.2230 S   0  0  0  0  0  0
    5.9053   54.2976   23.6660 N   0  0  0  0  0  0
    4.9626   54.0958   22.8172 C   0  0  0  0  0  0
    3.6277   53.9607   23.1809 N   0  0  0  0  0  0
    3.1433   54.0759   24.4867 C   0  0  0  0  0  0
    1.9376   54.0967   24.7447 O   0  0  0  0  0  0
    2.6416   53.7783   22.0809 C   0  0  0  0  0  0
    1.8231   52.4676   22.1291 C   0  0  0  0  0  0
    1.9039   51.6782   23.0733 O   0  0  0  0  0  0
    1.0180   52.2930   21.0665 N   0  0  0  0  0  0
    0.1582   51.2211   20.9072 C   0  0  0  0  0  0
    0.4013   49.8544   20.6402 C   0  0  0  0  0  0
   -0.8327   49.1275   20.6094 C   0  0  0  0  0  0
   -1.9508   49.9782   20.7081 C   0  0  0  0  0  0
   -1.5155   51.6317   20.9258 S   0  0  0  0  0  0
   -3.4091   49.5555   20.5862 C   0  0  0  0  0  0
   -3.5243   48.0324   20.7771 C   0  0  0  0  0  0
   -2.4582   47.2799   19.9675 C   0  0  0  0  0  0
   -1.0314   47.6084   20.4562 C   0  0  0  0  0  0
    1.7388   49.2809   20.5235 C   0  0  0  0  0  0
    2.7044   49.7068   21.1432 O   0  0  0  0  0  0
    1.8984   48.2871   19.6523 N   0  0  0  0  0  0
    2.9679   53.9974   27.7236 C   0  0  0  0  0  0
    2.6761   54.9353   28.7186 C   0  0  0  0  0  0
    1.5419   54.7880   29.5130 C   0  0  0  0  0  0
    0.7026   53.6946   29.3168 C   0  0  0  0  0  0
    0.9850   52.7490   28.3356 C   0  0  0  0  0  0
    2.1174   52.9019   27.5403 C   0  0  0  0  0  0
   -0.3998   53.5527   30.0820 F   0  0  0  0  0  0
    5.4802   53.2197   29.2817 H   0  0  0  0  0  0
    6.9757   54.0954   29.0107 H   0  0  0  0  0  0
    5.5263   54.9736   29.4822 H   0  0  0  0  0  0
    5.2068   54.0379   21.7595 H   0  0  0  0  0  0
    3.1230   53.8226   21.1022 H   0  0  0  0  0  0
    1.9433   54.6147   22.0878 H   0  0  0  0  0  0
    0.9434   53.0576   20.4093 H   0  0  0  0  0  0
   -3.7835   49.8232   19.5970 H   0  0  0  0  0  0
   -4.0382   50.0757   21.3097 H   0  0  0  0  0  0
   -4.5213   47.7021   20.4839 H   0  0  0  0  0  0
   -3.4236   47.7824   21.8357 H   0  0  0  0  0  0
   -2.5565   47.5305   18.9098 H   0  0  0  0  0  0
   -2.6285   46.2049   20.0382 H   0  0  0  0  0  0
   -0.8842   47.1315   21.4259 H   0  0  0  0  0  0
   -0.3273   47.1407   19.7725 H   0  0  0  0  0  0
    1.1526   48.0132   19.0340 H   0  0  0  0  0  0
    2.8373   47.9447   19.5020 H   0  0  0  0  0  0
    3.3248   55.7823   28.8799 H   0  0  0  0  0  0
    1.3095   55.5147   30.2771 H   0  0  0  0  0  0
    0.3277   51.9035   28.1907 H   0  0  0  0  0  0
    2.3220   52.1691   26.7754 H   0  0  0  0  0  0
  1  2  1  0  0  0
  1 35  1  0  0  0
  1 36  1  0  0  0
  1 37  1  0  0  0
  2  6  1  0  0  0
  2  3  2  0  0  0
  3  4  1  0  0  0
  3 28  1  0  0  0
  4 10  1  0  0  0
  4  5  2  0  0  0
  5  6  1  0  0  0
  5  7  1  0  0  0
  7  8  2  0  0  0
  8  9  1  0  0  0
  8 38  1  0  0  0
  9 10  1  0  0  0
  9 12  1  0  0  0
 10 11  2  0  0  0
 12 13  1  0  0  0
 12 39  1  0  0  0
 12 40  1  0  0  0
 13 14  2  0  0  0
 13 15  1  0  0  0
 15 16  1  0  0  0
 15 41  1  0  0  0
 16 20  1  0  0  0
 16 17  2  0  0  0
 17 18  1  0  0  0
 17 25  1  0  0  0
 18 24  1  0  0  0
 18 19  2  0  0  0
 19 20  1  0  0  0
 19 21  1  0  0  0
 21 22  1  0  0  0
 21 42  1  0  0  0
 21 43  1  0  0  0
 22 23  1  0  0  0
 22 44  1  0  0  0
 22 45  1  0  0  0
 23 24  1  0  0  0
 23 46  1  0  0  0
 23 47  1  0  0  0
 24 48  1  0  0  0
 24 49  1  0  0  0
 25 26  2  0  0  0
 25 27  1  0  0  0
 27 50  1  0  0  0
 27 51  1  0  0  0
 28 33  2  0  0  0
 28 29  1  0  0  0
 29 30  2  0  0  0
 29 52  1  0  0  0
 30 31  1  0  0  0
 30 53  1  0  0  0
 31 32  2  0  0  0
 31 34  1  0  0  0
 32 33  1  0  0  0
 32 54  1  0  0  0
 33 55  1  0  0  0
M  END
> <i_i_glide_confnum>
14

> <i_i_glide_lignum>
413

> <i_i_glide_posenum>
234

> <i_i_glide_rotatable_bonds>
6

> <i_m_Source_File_Index>
3002

> <b_m_subgroup_collapsed>
0

> <r_i_docking_score>
-6.55494

> <r_i_glide_ecoul>
-2.92179

> <r_i_glide_eff_state_penalty>
0

> <r_i_glide_einternal>
9.41734

> <r_i_glide_emodel>
-69.1236

> <r_i_glide_energy>
-53.2267

> <r_i_glide_erotb>
0.413504

> <r_i_glide_esite>
-0.0939814

> <r_i_glide_evdw>
-50.3049

> <r_i_glide_gscore>
-6.55494

> <r_i_glide_hbond>
-0.145132

> <r_i_glide_ligand_efficiency>
-0.192792

> <r_i_glide_ligand_efficiency_ln>
-1.44817

> <r_i_glide_ligand_efficiency_sa>
-0.624573

> <r_i_glide_lipo>
-2.96173

> <r_i_glide_metal>
0

> <r_i_glide_rewards>
-0.814087

> <s_i_glide_gridfile>
wee1_glide-grid

> <s_m_Source_File>
wee1_decoys_glide_SP.sdf

> <s_m_Source_Path>
/Users/zhangxujun/Desktop

> <s_m_entry_id>
3277

> <s_m_entry_name>
wee1_decoys_glide_SP.3002

> <s_m_subgroup_title>
wee1_decoys_glide_SP

> <s_m_subgroupid>
wee1_decoys_glide_SP


$$$$
