ZINC09310310_1956
                    3D
 Schrodinger Suite 2024-2.
 37 39  0  0  1  0            999 V2000
    0.9815   49.7610   23.4123 C   0  0  0  0  0  0
    0.0634   48.8727   23.9720 C   0  0  0  0  0  0
   -0.8954   48.2363   23.1674 C   0  0  0  0  0  0
   -0.9388   48.5433   21.8003 C   0  0  0  0  0  0
   -0.0212   49.4298   21.2424 C   0  0  0  0  0  0
    0.9497   50.0342   22.0417 C   0  0  0  0  0  0
    1.9899   50.9378   21.3842 C   0  0  0  0  0  0
    2.4969   51.9094   22.2995 O   0  0  0  0  0  0
    3.5263   52.7537   21.9036 C   0  0  0  0  0  0
    4.0786   52.7350   20.6090 C   0  0  0  0  0  0
    5.1040   53.6098   20.2580 C   0  0  0  0  0  0
    5.6104   54.4965   21.2029 C   0  0  0  0  0  0
    5.0961   54.4967   22.4937 C   0  0  0  0  0  0
    4.0369   53.6617   22.8554 C   0  0  0  0  0  0
    3.3991   53.7342   24.1970 C   0  0  0  0  0  0
    3.8540   53.9314   25.4614 C   0  0  0  0  0  0
    5.2544   54.0969   25.8357 C   0  0  0  0  0  0
    6.2908   54.1216   25.1718 O   0  0  0  0  0  0
    5.1924   54.2013   27.1637 N   0  0  0  0  0  0
    3.9218   54.0876   27.5352 C   0  0  0  0  0  0
    3.5504   54.0971   29.2816 S   0  5  0  0  0  0
    3.1095   53.9656   26.5880 N   0  0  0  0  0  0
    7.0163   55.6969   20.7469 Br  0  0  0  0  0  0
   -1.8117   47.2167   23.7359 N   0  3  0  0  0  0
   -2.7031   46.7636   23.0213 O   0  0  0  0  0  0
   -1.6230   46.8232   24.8817 O   0  5  0  0  0  0
    1.7351   50.2107   24.0428 H   0  0  0  0  0  0
    0.1266   48.6529   25.0299 H   0  0  0  0  0  0
   -1.6647   48.0730   21.1533 H   0  0  0  0  0  0
   -0.0561   49.6299   20.1812 H   0  0  0  0  0  0
    1.5405   51.4486   20.5298 H   0  0  0  0  0  0
    2.7949   50.2987   21.0150 H   0  0  0  0  0  0
    3.7228   52.0548   19.8493 H   0  0  0  0  0  0
    5.5092   53.5891   19.2563 H   0  0  0  0  0  0
    5.5053   55.2057   23.1959 H   0  0  0  0  0  0
    2.3247   53.6259   24.1437 H   0  0  0  0  0  0
    5.9827   54.3126   27.7776 H   0  0  0  0  0  0
  1  6  2  0  0  0
  1  2  1  0  0  0
  1 27  1  0  0  0
  2  3  2  0  0  0
  2 28  1  0  0  0
  3  4  1  0  0  0
  3 24  1  0  0  0
  4  5  2  0  0  0
  4 29  1  0  0  0
  5  6  1  0  0  0
  5 30  1  0  0  0
  6  7  1  0  0  0
  7  8  1  0  0  0
  7 31  1  0  0  0
  7 32  1  0  0  0
  8  9  1  0  0  0
  9 14  2  0  0  0
  9 10  1  0  0  0
 10 11  2  0  0  0
 10 33  1  0  0  0
 11 12  1  0  0  0
 11 34  1  0  0  0
 12 13  2  0  0  0
 12 23  1  0  0  0
 13 14  1  0  0  0
 13 35  1  0  0  0
 14 15  1  0  0  0
 15 16  2  0  0  0
 15 36  1  0  0  0
 16 22  1  0  0  0
 16 17  1  0  0  0
 17 18  2  0  0  0
 17 19  1  0  0  0
 19 20  1  0  0  0
 19 37  1  0  0  0
 20 21  1  0  0  0
 20 22  2  0  0  0
 24 25  2  0  0  0
 24 26  1  0  0  0
M  CHG  3  21  -1  24   1  26  -1
M  END
> <i_i_glide_confnum>
38

> <i_i_glide_lignum>
1957

> <i_i_glide_posenum>
249

> <i_i_glide_rotatable_bonds>
5

> <i_m_Source_File_Index>
5889

> <b_m_subgroup_collapsed>
0

> <r_i_docking_score>
-4.59181

> <r_i_glide_ecoul>
-3.982

> <r_i_glide_eff_state_penalty>
0

> <r_i_glide_einternal>
1.05461

> <r_i_glide_emodel>
-52.694

> <r_i_glide_energy>
-39.5548

> <r_i_glide_erotb>
0.424174

> <r_i_glide_esite>
-0.131543

> <r_i_glide_evdw>
-35.5728

> <r_i_glide_gscore>
-4.59181

> <r_i_glide_hbond>
0

> <r_i_glide_ligand_efficiency>
-0.176608

> <r_i_glide_ligand_efficiency_ln>
-1.07837

> <r_i_glide_ligand_efficiency_sa>
-0.523201

> <r_i_glide_lipo>
-1.39363

> <r_i_glide_metal>
0

> <r_i_glide_rewards>
-1.11487

> <s_i_glide_gridfile>
wee1_glide-grid

> <s_m_Source_File>
wee1_decoys_glide_SP.sdf

> <s_m_Source_Path>
/Users/zhangxujun/Desktop

> <s_m_entry_id>
6164

> <s_m_entry_name>
wee1_decoys_glide_SP.5889

> <s_m_subgroup_title>
wee1_decoys_glide_SP

> <s_m_subgroupid>
wee1_decoys_glide_SP


$$$$
