ZINC67322466_2843
                    3D
 Schrodinger Suite 2024-2.
 45 47  0  0  1  0            999 V2000
    1.8661   53.0693   13.3032 C   0  0  0  0  0  0
    2.4476   53.1482   14.7027 C   0  0  0  0  0  0
    1.6100   53.1002   15.8196 C   0  0  0  0  0  0
    2.1492   53.1566   17.1044 C   0  0  0  0  0  0
    3.5289   53.2754   17.2817 C   0  0  0  0  0  0
    4.3798   53.2969   16.1628 C   0  0  0  0  0  0
    3.8302   53.2391   14.8809 C   0  0  0  0  0  0
    6.2809   53.3530   16.3337 Br  0  0  0  0  0  0
    4.0142   53.2968   18.5914 N   0  0  0  0  0  0
    4.6046   54.3609   19.1766 C   0  0  0  0  0  0
    4.7497   55.4536   18.6237 O   0  0  0  0  0  0
    5.0767   54.1262   20.5285 C   0  0  0  0  0  0
    5.9021   54.9833   21.2806 C   0  0  0  0  0  0
    6.0647   54.3189   22.4816 N   0  0  0  0  0  0
    5.4009   53.1615   22.4816 N   0  0  0  0  0  0
    4.7682   53.0657   21.2648 N   0  0  0  0  0  0
    6.9026   54.6622   23.6351 C   0  0  0  0  0  0
    6.2003   54.8958   24.9826 C   0  0  0  0  0  0
    6.7088   55.6968   25.7617 O   0  0  0  0  0  0
    5.0803   54.1933   25.2517 N   0  0  0  0  0  0
    4.3326   54.1545   26.4420 C   0  0  0  0  0  0
    4.8505   54.4937   27.7029 C   0  0  0  0  0  0
    4.0388   54.4209   28.8307 C   0  0  0  0  0  0
    2.7179   53.9976   28.7056 C   0  0  0  0  0  0
    2.2050   53.6327   27.4630 C   0  0  0  0  0  0
    3.0143   53.7060   26.3324 C   0  0  0  0  0  0
    1.7081   53.9190   30.1011 Cl  0  0  0  0  0  0
    6.5490   56.3228   20.9638 C   0  0  0  0  0  0
    2.4953   52.4495   12.6638 H   0  0  0  0  0  0
    0.8749   52.6145   13.3058 H   0  0  0  0  0  0
    1.8028   54.0625   12.8586 H   0  0  0  0  0  0
    0.5406   53.0167   15.6961 H   0  0  0  0  0  0
    1.4924   53.1197   17.9612 H   0  0  0  0  0  0
    4.4862   53.2537   14.0232 H   0  0  0  0  0  0
    3.9225   52.4395   19.1176 H   0  0  0  0  0  0
    7.5043   55.5376   23.3969 H   0  0  0  0  0  0
    7.6029   53.8381   23.7745 H   0  0  0  0  0  0
    4.7136   53.6346   24.4952 H   0  0  0  0  0  0
    5.8742   54.8100   27.8341 H   0  0  0  0  0  0
    4.4398   54.6925   29.7958 H   0  0  0  0  0  0
    1.1827   53.2941   27.3747 H   0  0  0  0  0  0
    2.6057   53.4216   25.3731 H   0  0  0  0  0  0
    5.9133   57.1498   21.2806 H   0  0  0  0  0  0
    7.5267   56.4519   21.4246 H   0  0  0  0  0  0
    6.7152   56.4496   19.8943 H   0  0  0  0  0  0
  1  2  1  0  0  0
  1 29  1  0  0  0
  1 30  1  0  0  0
  1 31  1  0  0  0
  2  7  2  0  0  0
  2  3  1  0  0  0
  3  4  2  0  0  0
  3 32  1  0  0  0
  4  5  1  0  0  0
  4 33  1  0  0  0
  5  6  2  0  0  0
  5  9  1  0  0  0
  6  7  1  0  0  0
  6  8  1  0  0  0
  7 34  1  0  0  0
  9 10  1  0  0  0
  9 35  1  0  0  0
 10 11  2  0  0  0
 10 12  1  0  0  0
 12 16  1  0  0  0
 12 13  2  0  0  0
 13 14  1  0  0  0
 13 28  1  0  0  0
 14 15  1  0  0  0
 14 17  1  0  0  0
 15 16  2  0  0  0
 17 18  1  0  0  0
 17 36  1  0  0  0
 17 37  1  0  0  0
 18 19  2  0  0  0
 18 20  1  0  0  0
 20 21  1  0  0  0
 20 38  1  0  0  0
 21 26  2  0  0  0
 21 22  1  0  0  0
 22 23  2  0  0  0
 22 39  1  0  0  0
 23 24  1  0  0  0
 23 40  1  0  0  0
 24 25  2  0  0  0
 24 27  1  0  0  0
 25 26  1  0  0  0
 25 41  1  0  0  0
 26 42  1  0  0  0
 28 43  1  0  0  0
 28 44  1  0  0  0
 28 45  1  0  0  0
M  END
> <i_i_glide_confnum>
19

> <i_i_glide_lignum>
2844

> <i_i_glide_posenum>
346

> <i_i_glide_rotatable_bonds>
7

> <i_m_Source_File_Index>
340

> <b_m_subgroup_collapsed>
0

> <r_i_docking_score>
-5.153

> <r_i_glide_ecoul>
-3.51149

> <r_i_glide_eff_state_penalty>
0

> <r_i_glide_einternal>
6.25312

> <r_i_glide_emodel>
-55.8473

> <r_i_glide_energy>
-43.1307

> <r_i_glide_erotb>
0.564539

> <r_i_glide_esite>
-0.0469518

> <r_i_glide_evdw>
-39.6192

> <r_i_glide_gscore>
-5.153

> <r_i_glide_hbond>
-0.32

> <r_i_glide_ligand_efficiency>
-0.184036

> <r_i_glide_ligand_efficiency_ln>
-1.18946

> <r_i_glide_ligand_efficiency_sa>
-0.558841

> <r_i_glide_lipo>
-1.8345

> <r_i_glide_metal>
0

> <r_i_glide_rewards>
-1.0084

> <s_i_glide_gridfile>
wee1_glide-grid

> <s_m_Source_File>
wee1_decoys_glide_SP.sdf

> <s_m_Source_Path>
/Users/zhangxujun/Desktop

> <s_m_entry_id>
615

> <s_m_entry_name>
wee1_decoys_glide_SP.340

> <s_m_subgroup_title>
wee1_decoys_glide_SP

> <s_m_subgroupid>
wee1_decoys_glide_SP


$$$$
