ZINC09018787_1020
                    3D
 Schrodinger Suite 2024-2.
 66 69  0  0  1  0            999 V2000
    3.0918   52.1059   21.5197 C   0  0  0  0  0  0
    2.1941   53.2973   21.8838 C   0  0  0  0  0  0
    1.7762   53.2265   23.2416 O   0  0  0  0  0  0
    2.5495   53.6960   24.2537 C   0  0  0  0  0  0
    3.5845   54.3380   24.0700 O   0  0  0  0  0  0
    2.0493   53.2901   25.5927 C   0  0  0  0  0  0
    2.5266   53.8226   26.8287 C   0  0  0  0  0  0
    2.0338   53.1697   27.9668 C   0  0  0  0  0  0
    0.8704   51.9718   27.5343 S   0  0  0  0  0  0
    1.1042   52.2752   25.8417 C   0  0  0  0  0  0
    0.4438   51.5412   24.8616 N   0  0  0  0  0  0
   -0.1628   50.3436   24.9562 C   0  0  0  0  0  0
   -0.2212   49.6692   25.9794 O   0  0  0  0  0  0
   -0.7468   49.7965   23.6427 C   0  0  1  0  0  0
   -0.6440   50.5631   22.8746 H   0  0  0  0  0  0
    0.0927   48.6037   23.1450 C   0  0  0  0  0  0
   -2.5644   49.5482   23.7229 S   0  0  0  0  0  0
   -2.7303   48.1581   24.8027 C   0  0  0  0  0  0
   -2.1503   47.0249   24.4805 N   0  0  0  0  0  0
   -2.3946   46.0967   25.4659 N   0  0  0  0  0  0
   -3.1662   46.6900   26.3219 C   0  0  0  0  0  0
   -3.4400   48.0233   26.0055 N   0  0  0  0  0  0
   -4.3152   48.7957   26.8693 C   0  0  0  0  0  0
   -4.8878   48.0862   27.8871 C   0  0  0  0  0  0
   -4.7324   46.6693   28.1429 C   0  0  0  0  0  0
   -5.4612   46.0190   28.8818 O   0  0  0  0  0  0
   -3.7443   46.0963   27.4309 N   0  0  0  0  0  0
   -3.5459   45.1334   27.6793 H   0  0  0  0  0  0
   -4.5406   50.3284   26.6911 C   0  0  0  0  0  0
   -5.3522   50.6343   25.4075 C   0  0  0  0  0  0
   -3.2062   51.1165   26.7424 C   0  0  0  0  0  0
   -5.3855   50.9466   27.8452 C   0  0  0  0  0  0
    2.4688   53.4156   29.3983 C   0  0  0  0  0  0
    3.9748   53.1432   29.6105 C   0  0  0  0  0  0
    4.9313   54.2273   29.0543 C   0  0  0  0  0  0
    4.8807   54.5061   27.5401 C   0  0  0  0  0  0
    3.5128   54.9623   27.0083 C   0  0  0  0  0  0
    3.3457   52.1241   20.4596 H   0  0  0  0  0  0
    4.0264   52.1261   22.0816 H   0  0  0  0  0  0
    2.5956   51.1580   21.7250 H   0  0  0  0  0  0
    1.3007   53.2946   21.2586 H   0  0  0  0  0  0
    2.7056   54.2393   21.6810 H   0  0  0  0  0  0
    0.5966   51.8966   23.9284 H   0  0  0  0  0  0
    1.1053   48.9083   22.8769 H   0  0  0  0  0  0
    0.2030   47.8236   23.9003 H   0  0  0  0  0  0
   -0.3551   48.1587   22.2566 H   0  0  0  0  0  0
   -5.5298   48.5747   28.5991 H   0  0  0  0  0  0
   -6.3891   50.3060   25.5113 H   0  0  0  0  0  0
   -5.3863   51.7049   25.1981 H   0  0  0  0  0  0
   -4.9802   50.1408   24.5145 H   0  0  0  0  0  0
   -2.5413   50.7320   27.5188 H   0  0  0  0  0  0
   -2.6585   51.0940   25.8126 H   0  0  0  0  0  0
   -3.3556   52.1794   26.9404 H   0  0  0  0  0  0
   -4.9010   50.8206   28.8149 H   0  0  0  0  0  0
   -5.5386   52.0191   27.7091 H   0  0  0  0  0  0
   -6.3838   50.5113   27.9078 H   0  0  0  0  0  0
    2.2661   54.4500   29.6788 H   0  0  0  0  0  0
    1.8834   52.8047   30.0871 H   0  0  0  0  0  0
    4.1607   53.0519   30.6817 H   0  0  0  0  0  0
    4.2361   52.1710   29.1878 H   0  0  0  0  0  0
    4.7604   55.1612   29.5933 H   0  0  0  0  0  0
    5.9600   53.9478   29.2816 H   0  0  0  0  0  0
    5.6105   55.2877   27.3223 H   0  0  0  0  0  0
    5.2225   53.6285   26.9861 H   0  0  0  0  0  0
    3.6550   55.5482   26.1028 H   0  0  0  0  0  0
    3.0884   55.6944   27.7014 H   0  0  0  0  0  0
  1  2  1  0  0  0
  1 38  1  0  0  0
  1 39  1  0  0  0
  1 40  1  0  0  0
  2  3  1  0  0  0
  2 41  1  0  0  0
  2 42  1  0  0  0
  3  4  1  0  0  0
  4  5  2  0  0  0
  4  6  1  0  0  0
  6 10  2  0  0  0
  6  7  1  0  0  0
  7 37  1  0  0  0
  7  8  2  0  0  0
  8  9  1  0  0  0
  8 33  1  0  0  0
  9 10  1  0  0  0
 10 11  1  0  0  0
 11 12  1  0  0  0
 11 43  1  0  0  0
 12 13  2  0  0  0
 12 14  1  0  0  0
 14 15  1  0  0  0
 14 16  1  0  0  0
 14 17  1  0  0  0
 16 44  1  0  0  0
 16 45  1  0  0  0
 16 46  1  0  0  0
 17 18  1  0  0  0
 18 22  1  0  0  0
 18 19  2  0  0  0
 19 20  1  0  0  0
 20 21  2  0  0  0
 21 27  1  0  0  0
 21 22  1  0  0  0
 22 23  1  0  0  0
 23 24  2  0  0  0
 23 29  1  0  0  0
 24 25  1  0  0  0
 24 47  1  0  0  0
 25 26  2  0  0  0
 25 27  1  0  0  0
 27 28  1  0  0  0
 29 30  1  0  0  0
 29 31  1  0  0  0
 29 32  1  0  0  0
 30 48  1  0  0  0
 30 49  1  0  0  0
 30 50  1  0  0  0
 31 51  1  0  0  0
 31 52  1  0  0  0
 31 53  1  0  0  0
 32 54  1  0  0  0
 32 55  1  0  0  0
 32 56  1  0  0  0
 33 34  1  0  0  0
 33 57  1  0  0  0
 33 58  1  0  0  0
 34 35  1  0  0  0
 34 59  1  0  0  0
 34 60  1  0  0  0
 35 36  1  0  0  0
 35 61  1  0  0  0
 35 62  1  0  0  0
 36 37  1  0  0  0
 36 63  1  0  0  0
 36 64  1  0  0  0
 37 65  1  0  0  0
 37 66  1  0  0  0
M  END
> <i_i_glide_confnum>
239

> <i_i_glide_lignum>
1021

> <i_i_glide_posenum>
142

> <i_i_glide_rotatable_bonds>
9

> <i_m_Source_File_Index>
1222

> <b_m_subgroup_collapsed>
0

> <r_i_docking_score>
-4.93631

> <r_i_glide_ecoul>
-4.42415

> <r_i_glide_eff_state_penalty>
0

> <r_i_glide_einternal>
8.7474

> <r_i_glide_emodel>
-55.1618

> <r_i_glide_energy>
-43.9161

> <r_i_glide_erotb>
0.536365

> <r_i_glide_esite>
-0.471678

> <r_i_glide_evdw>
-39.492

> <r_i_glide_gscore>
-4.93631

> <r_i_glide_hbond>
-0.273844

> <r_i_glide_ligand_efficiency>
-0.141037

> <r_i_glide_ligand_efficiency_ln>
-1.08363

> <r_i_glide_ligand_efficiency_sa>
-0.461343

> <r_i_glide_lipo>
-1.67426

> <r_i_glide_metal>
0

> <r_i_glide_rewards>
-0.414673

> <s_i_glide_gridfile>
wee1_glide-grid

> <s_m_Source_File>
wee1_decoys_glide_SP.sdf

> <s_m_Source_Path>
/Users/zhangxujun/Desktop

> <s_m_entry_id>
1497

> <s_m_entry_name>
wee1_decoys_glide_SP.1222

> <s_m_subgroup_title>
wee1_decoys_glide_SP

> <s_m_subgroupid>
wee1_decoys_glide_SP


$$$$
