ZINC39665113_3067
                    3D
 Schrodinger Suite 2024-2.
 67 70  0  0  1  0            999 V2000
    4.3739   54.6285   25.6227 C   0  0  0  0  0  0
    3.0584   53.8386   25.4485 C   0  0  2  0  0  0
    3.2560   52.7670   25.4256 H   0  0  0  0  0  0
    2.3738   54.2201   24.1126 C   0  0  0  0  0  0
    1.0535   53.6092   23.9608 N   0  0  0  0  0  0
    0.6911   52.6711   23.0674 C   0  0  0  0  0  0
    1.4589   52.2509   22.2061 O   0  0  0  0  0  0
   -0.7069   51.9995   23.2133 C   0  0  2  0  0  0
   -1.0367   51.7464   22.2048 H   0  0  0  0  0  0
   -1.7617   52.9881   23.7713 C   0  0  0  0  0  0
   -2.6223   52.1635   24.6220 N   0  0  0  0  0  0
   -2.2186   50.7558   24.5994 C   0  0  0  0  0  0
   -0.7350   50.7811   24.1752 C   0  0  0  0  0  0
   -0.2520   49.4790   23.4902 C   0  0  0  0  0  0
   -0.4593   48.2631   24.4117 C   0  0  0  0  0  0
    0.3832   48.4979   25.6819 N   0  3  0  0  0  0
    0.0809   49.8131   26.4301 C   0  0  0  0  0  0
    0.1843   50.9665   25.4255 C   0  0  0  0  0  0
   -3.6650   52.6908   25.3149 C   0  0  0  0  0  0
   -4.0954   53.8269   25.0952 O   0  0  0  0  0  0
   -4.2949   51.8817   26.4267 C   0  0  0  0  0  0
   -3.5066   51.2652   27.4070 C   0  0  0  0  0  0
   -4.0941   50.5491   28.4456 C   0  0  0  0  0  0
   -5.4909   50.4627   28.5404 C   0  0  0  0  0  0
   -6.2747   51.1048   27.5805 C   0  0  0  0  0  0
   -5.6871   51.8151   26.5367 C   0  0  0  0  0  0
   -6.1739   49.7873   29.5333 O   0  0  0  0  0  0
   -5.4648   49.0559   30.5343 C   0  0  0  0  0  0
   -6.3743   48.5089   31.3416 F   0  0  0  0  0  0
   -4.7534   48.0610   30.0014 F   0  0  0  0  0  0
   -4.6966   49.8562   31.2786 F   0  0  0  0  0  0
    2.1199   54.0967   26.5005 O   0  0  0  0  0  0
    2.2912   53.6268   27.7889 C   0  0  0  0  0  0
    3.4017   52.8957   28.2325 C   0  0  0  0  0  0
    3.4699   52.4502   29.5510 C   0  0  0  0  0  0
    2.4205   52.7185   30.4260 C   0  0  0  0  0  0
    1.3114   53.4423   29.9976 C   0  0  0  0  0  0
    1.2554   53.9013   28.6836 C   0  0  0  0  0  0
    5.0417   54.4639   24.7750 H   0  0  0  0  0  0
    4.1737   55.6967   25.6825 H   0  0  0  0  0  0
    4.9292   54.3600   26.5190 H   0  0  0  0  0  0
    2.2275   55.2966   24.0811 H   0  0  0  0  0  0
    3.0335   53.9825   23.2741 H   0  0  0  0  0  0
    0.3739   53.8982   24.6467 H   0  0  0  0  0  0
   -1.3207   53.6980   24.4654 H   0  0  0  0  0  0
   -2.3273   53.4735   22.9753 H   0  0  0  0  0  0
   -2.7898   50.2803   23.8007 H   0  0  0  0  0  0
   -2.4083   50.1548   25.4831 H   0  0  0  0  0  0
   -0.8352   49.3089   22.5833 H   0  0  0  0  0  0
    0.7839   49.5628   23.1554 H   0  0  0  0  0  0
   -1.4900   48.1209   24.7393 H   0  0  0  0  0  0
   -0.0961   47.3329   23.9745 H   0  0  0  0  0  0
    0.2786   47.7130   26.3255 H   0  0  0  0  0  0
   -0.9013   49.6969   26.8816 H   0  0  0  0  0  0
    0.8191   49.9094   27.2258 H   0  0  0  0  0  0
    1.2247   51.0999   25.1390 H   0  0  0  0  0  0
   -0.0877   51.8821   25.9550 H   0  0  0  0  0  0
   -2.4295   51.3448   27.3846 H   0  0  0  0  0  0
   -3.4454   50.0707   29.1664 H   0  0  0  0  0  0
   -7.3504   51.0504   27.6510 H   0  0  0  0  0  0
   -6.3213   52.3106   25.8141 H   0  0  0  0  0  0
    4.2098   52.6360   27.5677 H   0  0  0  0  0  0
    4.3311   51.8927   29.8861 H   0  0  0  0  0  0
    2.4638   52.3650   31.4463 H   0  0  0  0  0  0
    0.5022   53.6486   30.6826 H   0  0  0  0  0  0
    0.3934   54.4626   28.3521 H   0  0  0  0  0  0
    1.3613   48.4841   25.4144 H   0  0  0  0  0  0
  1  2  1  0  0  0
  1 39  1  0  0  0
  1 40  1  0  0  0
  1 41  1  0  0  0
  2  3  1  0  0  0
  2  4  1  0  0  0
  2 32  1  0  0  0
  4  5  1  0  0  0
  4 42  1  0  0  0
  4 43  1  0  0  0
  5  6  1  0  0  0
  5 44  1  0  0  0
  6  7  2  0  0  0
  6  8  1  0  0  0
  8  9  1  0  0  0
  8 13  1  0  0  0
  8 10  1  0  0  0
 10 11  1  0  0  0
 10 45  1  0  0  0
 10 46  1  0  0  0
 11 12  1  0  0  0
 11 19  1  0  0  0
 12 13  1  0  0  0
 12 47  1  0  0  0
 12 48  1  0  0  0
 13 18  1  0  0  0
 13 14  1  0  0  0
 14 15  1  0  0  0
 14 49  1  0  0  0
 14 50  1  0  0  0
 15 16  1  0  0  0
 15 51  1  0  0  0
 15 52  1  0  0  0
 16 17  1  0  0  0
 16 53  1  0  0  0
 16 67  1  0  0  0
 17 18  1  0  0  0
 17 54  1  0  0  0
 17 55  1  0  0  0
 18 56  1  0  0  0
 18 57  1  0  0  0
 19 20  2  0  0  0
 19 21  1  0  0  0
 21 26  2  0  0  0
 21 22  1  0  0  0
 22 23  2  0  0  0
 22 58  1  0  0  0
 23 24  1  0  0  0
 23 59  1  0  0  0
 24 25  2  0  0  0
 24 27  1  0  0  0
 25 26  1  0  0  0
 25 60  1  0  0  0
 26 61  1  0  0  0
 27 28  1  0  0  0
 28 29  1  0  0  0
 28 30  1  0  0  0
 28 31  1  0  0  0
 32 33  1  0  0  0
 33 38  2  0  0  0
 33 34  1  0  0  0
 34 35  2  0  0  0
 34 62  1  0  0  0
 35 36  1  0  0  0
 35 63  1  0  0  0
 36 37  2  0  0  0
 36 64  1  0  0  0
 37 38  1  0  0  0
 37 65  1  0  0  0
 38 66  1  0  0  0
M  CHG  1  16   1
M  END
> <i_i_glide_confnum>
178

> <i_i_glide_lignum>
3068

> <i_i_glide_posenum>
387

> <i_i_glide_rotatable_bonds>
10

> <i_m_Source_File_Index>
5489

> <b_m_subgroup_collapsed>
0

> <r_i_docking_score>
-4.60368

> <r_i_glide_ecoul>
-5.77877

> <r_i_glide_eff_state_penalty>
0

> <r_i_glide_einternal>
11.822

> <r_i_glide_emodel>
-53.7405

> <r_i_glide_energy>
-43.3762

> <r_i_glide_erotb>
0.637951

> <r_i_glide_esite>
-0.234632

> <r_i_glide_evdw>
-37.5974

> <r_i_glide_gscore>
-4.60368

> <r_i_glide_hbond>
0

> <r_i_glide_ligand_efficiency>
-0.12788

> <r_i_glide_ligand_efficiency_ln>
-1.0044

> <r_i_glide_ligand_efficiency_sa>
-0.42225

> <r_i_glide_lipo>
-1.83504

> <r_i_glide_metal>
0

> <r_i_glide_rewards>
-0.425267

> <s_i_glide_gridfile>
wee1_glide-grid

> <s_m_Source_File>
wee1_decoys_glide_SP.sdf

> <s_m_Source_Path>
/Users/zhangxujun/Desktop

> <s_m_entry_id>
5764

> <s_m_entry_name>
wee1_decoys_glide_SP.5489

> <s_m_subgroup_title>
wee1_decoys_glide_SP

> <s_m_subgroupid>
wee1_decoys_glide_SP


$$$$
