ZINC59106218_2631
                    3D
 Schrodinger Suite 2024-2.
 35 37  0  0  1  0            999 V2000
   -0.4236   49.0091   24.7484 C   0  0  0  0  0  0
   -1.1194   47.8109   24.8819 C   0  0  0  0  0  0
   -1.7940   47.2745   23.7882 C   0  0  0  0  0  0
   -1.7915   47.9346   22.5611 C   0  0  0  0  0  0
   -1.1088   49.1415   22.4249 C   0  0  0  0  0  0
   -0.4177   49.6815   23.5181 C   0  0  0  0  0  0
    0.2879   50.9133   23.3836 N   0  0  0  0  0  0
    1.4673   50.8856   22.6660 C   0  0  0  0  0  0
    1.8891   49.8693   22.0974 O   0  0  0  0  0  0
    2.2037   52.1641   22.6439 C   0  0  0  0  0  0
    3.3936   52.1992   21.9692 C   0  0  0  0  0  0
    4.4181   53.2635   21.8790 C   0  0  0  0  0  0
    5.0548   53.6967   23.0477 C   0  0  0  0  0  0
    6.0759   54.6421   23.0027 C   0  0  0  0  0  0
    6.4826   55.1591   21.7683 C   0  0  0  0  0  0
    5.8406   54.7542   20.6003 C   0  0  0  0  0  0
    4.8223   53.8030   20.6485 C   0  0  0  0  0  0
    4.2488   53.4092   19.4690 O   0  0  0  0  0  0
    7.5090   56.0573   21.6819 O   0  0  0  0  0  0
    6.9020   55.2903   24.8175 I   0  0  0  0  0  0
    1.6225   53.3265   23.3490 C   0  0  0  0  0  0
    2.2212   54.4003   23.3416 O   0  0  0  0  0  0
    0.4608   53.1730   23.9548 N   0  5  0  0  0  0
   -0.2381   52.0492   23.9843 C   0  0  0  0  0  0
   -1.3464   51.9764   24.5214 O   0  0  0  0  0  0
   -2.4498   46.0970   23.9150 F   0  0  0  0  0  0
    0.1004   49.4152   25.6023 H   0  0  0  0  0  0
   -1.1291   47.3021   25.8350 H   0  0  0  0  0  0
   -2.3149   47.5112   21.7180 H   0  0  0  0  0  0
   -1.1036   49.6511   21.4722 H   0  0  0  0  0  0
    3.7137   51.3098   21.4403 H   0  0  0  0  0  0
    4.7521   53.2982   24.0059 H   0  0  0  0  0  0
    6.1509   55.1588   19.6482 H   0  0  0  0  0  0
    3.5650   52.7457   19.5771 H   0  0  0  0  0  0
    8.0981   55.9968   22.4419 H   0  0  0  0  0  0
  1  6  2  0  0  0
  1  2  1  0  0  0
  1 27  1  0  0  0
  2  3  2  0  0  0
  2 28  1  0  0  0
  3  4  1  0  0  0
  3 26  1  0  0  0
  4  5  2  0  0  0
  4 29  1  0  0  0
  5  6  1  0  0  0
  5 30  1  0  0  0
  6  7  1  0  0  0
  7 24  1  0  0  0
  7  8  1  0  0  0
  8  9  2  0  0  0
  8 10  1  0  0  0
 10 11  2  0  0  0
 10 21  1  0  0  0
 11 12  1  0  0  0
 11 31  1  0  0  0
 12 17  2  0  0  0
 12 13  1  0  0  0
 13 14  2  0  0  0
 13 32  1  0  0  0
 14 15  1  0  0  0
 14 20  1  0  0  0
 15 16  2  0  0  0
 15 19  1  0  0  0
 16 17  1  0  0  0
 16 33  1  0  0  0
 17 18  1  0  0  0
 18 34  1  0  0  0
 19 35  1  0  0  0
 21 22  2  0  0  0
 21 23  1  0  0  0
 23 24  1  0  0  0
 24 25  2  0  0  0
M  CHG  1  23  -1
M  END
> <i_i_glide_confnum>
6

> <i_i_glide_lignum>
2632

> <i_i_glide_posenum>
266

> <i_i_glide_rotatable_bonds>
4

> <i_m_Source_File_Index>
1497

> <b_m_subgroup_collapsed>
0

> <r_i_docking_score>
-4.75136

> <r_i_glide_ecoul>
-4.99075

> <r_i_glide_eff_state_penalty>
0

> <r_i_glide_einternal>
1.47511

> <r_i_glide_emodel>
-52.5881

> <r_i_glide_energy>
-39.0974

> <r_i_glide_erotb>
0.184933

> <r_i_glide_esite>
-0.0791141

> <r_i_glide_evdw>
-34.1066

> <r_i_glide_gscore>
-4.75136

> <r_i_glide_hbond>
-0.258296

> <r_i_glide_ligand_efficiency>
-0.182745

> <r_i_glide_ligand_efficiency_ln>
-1.11584

> <r_i_glide_ligand_efficiency_sa>
-0.54138

> <r_i_glide_lipo>
-1.333

> <r_i_glide_metal>
0

> <r_i_glide_rewards>
-0.81194

> <s_i_glide_gridfile>
wee1_glide-grid

> <s_m_Source_File>
wee1_decoys_glide_SP.sdf

> <s_m_Source_Path>
/Users/zhangxujun/Desktop

> <s_m_entry_id>
1772

> <s_m_entry_name>
wee1_decoys_glide_SP.1497

> <s_m_subgroup_title>
wee1_decoys_glide_SP

> <s_m_subgroupid>
wee1_decoys_glide_SP


$$$$
