ZINC36073362_5696
                    3D
 Schrodinger Suite 2024-2.
 77 80  0  0  1  0            999 V2000
    4.0918   54.2090   29.4526 C   0  0  0  0  0  0
    5.3713   54.3854   28.6240 C   0  0  0  0  0  0
    4.9774   54.4948   27.2672 O   0  0  0  0  0  0
    5.8731   54.6254   26.2618 C   0  0  0  0  0  0
    7.1015   54.6368   26.3982 O   0  0  0  0  0  0
    5.1970   54.7250   24.8697 C   0  0  2  0  0  0
    5.1087   55.7943   24.7015 H   0  0  0  0  0  0
    3.7817   54.0974   24.8405 C   0  0  0  0  0  0
    3.1951   54.2071   23.4337 C   0  0  0  0  0  0
    4.0939   53.5651   22.3605 C   0  0  0  0  0  0
    5.4352   54.1921   22.4438 N   0  0  0  0  0  0
    6.1267   54.1708   23.7603 C   0  0  0  0  0  0
    5.9898   54.8967   21.4138 C   0  0  0  0  0  0
    6.9143   55.6995   21.5773 O   0  0  0  0  0  0
    5.5344   54.6430   20.0576 C   0  0  0  0  0  0
    5.1075   53.4285   19.5116 C   0  0  0  0  0  0
    4.9263   53.5964   18.1845 O   0  0  0  0  0  0
    5.2809   54.8847   17.9838 C   0  0  0  0  0  0
    5.6480   55.5207   19.0722 N   0  0  0  0  0  0
    5.2166   55.4254   16.5746 C   0  0  0  0  0  0
    4.1774   56.5781   16.5334 N   0  3  2  0  0  0
    2.9813   56.2891   15.5838 C   0  0  0  0  0  0
    1.8342   55.4878   16.2076 C   0  0  0  0  0  0
    0.6827   56.1789   16.6100 C   0  0  0  0  0  0
   -0.4304   55.4984   17.1297 C   0  0  0  0  0  0
   -0.3568   54.1173   17.2816 C   0  0  0  0  0  0
    0.7793   53.4168   16.8879 C   0  0  0  0  0  0
    1.8779   54.0859   16.3252 C   0  0  0  0  0  0
    2.9926   53.4235   15.8501 O   0  0  0  0  0  0
    3.1224   52.0157   16.0426 C   0  0  0  0  0  0
   -1.6179   56.0988   17.4989 O   0  0  0  0  0  0
   -1.8272   57.4618   17.1532 C   0  0  0  0  0  0
    4.7754   58.0097   16.3702 C   0  0  1  0  0  0
    3.9259   58.6384   16.6552 H   0  0  0  0  0  0
    5.8775   58.2710   17.4191 C   0  0  0  0  0  0
    5.1862   58.3907   14.9418 C   0  0  0  0  0  0
    4.3886   59.2879   14.2206 C   0  0  0  0  0  0
    4.7436   59.6610   12.9273 C   0  0  0  0  0  0
    5.9040   59.1462   12.3545 C   0  0  0  0  0  0
    6.7175   58.2702   13.0682 C   0  0  0  0  0  0
    6.3625   57.8969   14.3616 C   0  0  0  0  0  0
    4.3050   54.0991   30.5132 H   0  0  0  0  0  0
    3.5417   53.3218   29.1359 H   0  0  0  0  0  0
    3.4320   55.0697   29.3342 H   0  0  0  0  0  0
    5.9044   55.2844   28.9361 H   0  0  0  0  0  0
    6.0391   53.5327   28.7610 H   0  0  0  0  0  0
    3.8077   53.0508   25.1456 H   0  0  0  0  0  0
    3.1100   54.6172   25.5258 H   0  0  0  0  0  0
    2.2090   53.7413   23.4079 H   0  0  0  0  0  0
    3.0349   55.2548   23.1821 H   0  0  0  0  0  0
    4.1993   52.4967   22.5270 H   0  0  0  0  0  0
    3.5902   53.7183   21.4068 H   0  0  0  0  0  0
    7.0706   54.7235   23.7456 H   0  0  0  0  0  0
    6.3660   53.1313   23.9762 H   0  0  0  0  0  0
    4.9452   52.4266   19.8848 H   0  0  0  0  0  0
    6.1789   55.8051   16.2475 H   0  0  0  0  0  0
    4.9476   54.6754   15.8352 H   0  0  0  0  0  0
    2.6109   57.2687   15.2773 H   0  0  0  0  0  0
    3.3821   55.8165   14.6853 H   0  0  0  0  0  0
    0.6567   57.2536   16.5032 H   0  0  0  0  0  0
   -1.1999   53.5790   17.6875 H   0  0  0  0  0  0
    0.7769   52.3439   17.0040 H   0  0  0  0  0  0
    4.0911   51.6955   15.6604 H   0  0  0  0  0  0
    3.0913   51.7441   17.0987 H   0  0  0  0  0  0
    2.3554   51.4566   15.5053 H   0  0  0  0  0  0
   -2.8816   57.6965   17.2816 H   0  0  0  0  0  0
   -1.2459   58.1219   17.7958 H   0  0  0  0  0  0
   -1.5861   57.6699   16.1098 H   0  0  0  0  0  0
    6.2274   59.2968   17.3542 H   0  0  0  0  0  0
    5.5080   58.1259   18.4344 H   0  0  0  0  0  0
    6.7590   57.6457   17.2904 H   0  0  0  0  0  0
    3.4984   59.7130   14.6640 H   0  0  0  0  0  0
    4.1263   60.3558   12.3759 H   0  0  0  0  0  0
    6.1812   59.4371   11.3517 H   0  0  0  0  0  0
    7.6256   57.8883   12.6225 H   0  0  0  0  0  0
    7.0214   57.2371   14.9034 H   0  0  0  0  0  0
    3.7631   56.5767   17.4559 H   0  0  0  0  0  0
  1  2  1  0  0  0
  1 42  1  0  0  0
  1 43  1  0  0  0
  1 44  1  0  0  0
  2  3  1  0  0  0
  2 45  1  0  0  0
  2 46  1  0  0  0
  3  4  1  0  0  0
  4  5  2  0  0  0
  4  6  1  0  0  0
  6  7  1  0  0  0
  6 12  1  0  0  0
  6  8  1  0  0  0
  8  9  1  0  0  0
  8 47  1  0  0  0
  8 48  1  0  0  0
  9 10  1  0  0  0
  9 49  1  0  0  0
  9 50  1  0  0  0
 10 11  1  0  0  0
 10 51  1  0  0  0
 10 52  1  0  0  0
 11 12  1  0  0  0
 11 13  1  0  0  0
 12 53  1  0  0  0
 12 54  1  0  0  0
 13 14  2  0  0  0
 13 15  1  0  0  0
 15 19  1  0  0  0
 15 16  2  0  0  0
 16 17  1  0  0  0
 16 55  1  0  0  0
 17 18  1  0  0  0
 18 19  2  0  0  0
 18 20  1  0  0  0
 20 21  1  0  0  0
 20 56  1  0  0  0
 20 57  1  0  0  0
 21 22  1  0  0  0
 21 33  1  0  0  0
 21 77  1  0  0  0
 22 23  1  0  0  0
 22 58  1  0  0  0
 22 59  1  0  0  0
 23 28  2  0  0  0
 23 24  1  0  0  0
 24 25  2  0  0  0
 24 60  1  0  0  0
 25 26  1  0  0  0
 25 31  1  0  0  0
 26 27  2  0  0  0
 26 61  1  0  0  0
 27 28  1  0  0  0
 27 62  1  0  0  0
 28 29  1  0  0  0
 29 30  1  0  0  0
 30 63  1  0  0  0
 30 64  1  0  0  0
 30 65  1  0  0  0
 31 32  1  0  0  0
 32 66  1  0  0  0
 32 67  1  0  0  0
 32 68  1  0  0  0
 33 34  1  0  0  0
 33 35  1  0  0  0
 33 36  1  0  0  0
 35 69  1  0  0  0
 35 70  1  0  0  0
 35 71  1  0  0  0
 36 41  2  0  0  0
 36 37  1  0  0  0
 37 38  2  0  0  0
 37 72  1  0  0  0
 38 39  1  0  0  0
 38 73  1  0  0  0
 39 40  2  0  0  0
 39 74  1  0  0  0
 40 41  1  0  0  0
 40 75  1  0  0  0
 41 76  1  0  0  0
M  CHG  1  21   1
M  END
> <i_i_glide_confnum>
254

> <i_i_glide_lignum>
5697

> <i_i_glide_posenum>
166

> <i_i_glide_rotatable_bonds>
13

> <i_m_Source_File_Index>
940

> <b_m_subgroup_collapsed>
0

> <r_i_docking_score>
-5.92426

> <r_i_glide_ecoul>
-5.99144

> <r_i_glide_eff_state_penalty>
0

> <r_i_glide_einternal>
13.7955

> <r_i_glide_emodel>
-59.6319

> <r_i_glide_energy>
-47.2813

> <r_i_glide_erotb>
0.645406

> <r_i_glide_esite>
0

> <r_i_glide_evdw>
-41.2898

> <r_i_glide_gscore>
-5.92426

> <r_i_glide_hbond>
-0.311405

> <r_i_glide_ligand_efficiency>
-0.151904

> <r_i_glide_ligand_efficiency_ln>
-1.27033

> <r_i_glide_ligand_efficiency_sa>
-0.515139

> <r_i_glide_lipo>
-1.76777

> <r_i_glide_metal>
0

> <r_i_glide_rewards>
-1.52728

> <s_i_glide_gridfile>
wee1_glide-grid

> <s_m_Source_File>
wee1_decoys_glide_SP.sdf

> <s_m_Source_Path>
/Users/zhangxujun/Desktop

> <s_m_entry_id>
1215

> <s_m_entry_name>
wee1_decoys_glide_SP.940

> <s_m_subgroup_title>
wee1_decoys_glide_SP

> <s_m_subgroupid>
wee1_decoys_glide_SP


$$$$
