ZINC39685465_1245
                    3D
 Schrodinger Suite 2024-2.
 67 71  0  0  1  0            999 V2000
    0.9003   47.1906   16.2302 C   0  0  0  0  0  0
    1.6232   47.2934   17.4188 C   0  0  0  0  0  0
    1.1176   48.0097   18.5056 C   0  0  0  0  0  0
   -0.1451   48.6140   18.3886 C   0  0  0  0  0  0
   -0.8706   48.5100   17.2022 C   0  0  0  0  0  0
   -0.3486   47.8005   16.1228 C   0  0  0  0  0  0
   -2.0834   49.0986   17.1004 F   0  0  0  0  0  0
    1.9051   48.0555   19.6386 O   0  0  0  0  0  0
    1.5968   48.9607   20.6962 C   0  0  0  0  0  0
    1.8483   50.4392   20.3174 C   0  0  0  0  0  0
    1.7306   51.3230   21.4771 N   0  0  0  0  0  0
    0.5798   51.8086   21.9834 C   0  0  0  0  0  0
   -0.5053   51.6388   21.4282 O   0  0  0  0  0  0
    0.6005   52.5464   23.3542 C   0  0  2  0  0  0
   -0.0674   53.4043   23.2812 H   0  0  0  0  0  0
    2.0004   53.1313   23.6379 C   0  0  0  0  0  0
    2.0971   53.1702   25.0982 N   0  0  0  0  0  0
    0.9549   52.4951   25.7202 C   0  0  0  0  0  0
    0.2719   51.6699   24.5932 C   0  0  0  0  0  0
    0.8391   50.2129   24.4855 C   0  0  0  0  0  0
    0.6342   49.3970   25.7799 C   0  0  0  0  0  0
   -0.8790   49.3496   26.0816 N   0  3  0  0  0  0
   -1.5628   50.7355   26.1135 C   0  0  0  0  0  0
   -1.2510   51.4727   24.7932 C   0  0  0  0  0  0
    3.1051   53.6966   25.8543 C   0  0  0  0  0  0
    3.0247   53.7727   27.0825 O   0  0  0  0  0  0
    4.3481   54.0975   25.2139 C   0  0  0  0  0  0
    5.5639   54.4984   25.7635 C   0  0  0  0  0  0
    6.4405   54.7315   24.6979 C   0  0  0  0  0  0
    5.7258   54.4969   23.5305 C   0  0  0  0  0  0
    4.4694   54.1087   23.8611 O   0  0  0  0  0  0
    6.0142   54.6666   22.0782 C   0  0  0  0  0  0
    5.1033   54.2350   21.1055 C   0  0  0  0  0  0
    5.3714   54.4430   19.7549 C   0  0  0  0  0  0
    6.5461   55.0863   19.3734 C   0  0  0  0  0  0
    7.4584   55.5197   20.3329 C   0  0  0  0  0  0
    7.1940   55.3039   21.6835 C   0  0  0  0  0  0
    6.8044   55.2887   18.0624 F   0  0  0  0  0  0
    1.3141   46.6478   15.3933 H   0  0  0  0  0  0
    2.5989   46.8351   17.4894 H   0  0  0  0  0  0
   -0.5822   49.1666   19.2046 H   0  0  0  0  0  0
   -0.9125   47.7282   15.2046 H   0  0  0  0  0  0
    0.5836   48.8054   21.0711 H   0  0  0  0  0  0
    2.2502   48.6908   21.5275 H   0  0  0  0  0  0
    2.8547   50.5327   19.9027 H   0  0  0  0  0  0
    1.1838   50.7642   19.5140 H   0  0  0  0  0  0
    2.5941   51.5383   21.9507 H   0  0  0  0  0  0
    2.7903   52.4441   23.3405 H   0  0  0  0  0  0
    2.1195   54.1127   23.1725 H   0  0  0  0  0  0
    0.2797   53.2957   26.0141 H   0  0  0  0  0  0
    1.1716   51.9205   26.6190 H   0  0  0  0  0  0
    0.4039   49.6716   23.6442 H   0  0  0  0  0  0
    1.9044   50.2442   24.2653 H   0  0  0  0  0  0
    0.9590   48.3602   25.6781 H   0  0  0  0  0  0
    1.1046   49.8186   26.6675 H   0  0  0  0  0  0
   -1.3379   48.7614   25.4017 H   0  0  0  0  0  0
   -2.6283   50.5415   26.2491 H   0  0  0  0  0  0
   -1.1830   51.2450   27.0010 H   0  0  0  0  0  0
   -1.7358   52.4494   24.8368 H   0  0  0  0  0  0
   -1.7023   50.9682   23.9360 H   0  0  0  0  0  0
    5.7871   54.5923   26.8174 H   0  0  0  0  0  0
    7.4716   55.0543   24.7595 H   0  0  0  0  0  0
    4.1821   53.7478   21.3883 H   0  0  0  0  0  0
    4.6702   54.1081   19.0046 H   0  0  0  0  0  0
    8.3728   56.0086   20.0278 H   0  0  0  0  0  0
    7.9039   55.6512   22.4200 H   0  0  0  0  0  0
   -1.0417   48.8965   26.9961 H   0  0  0  0  0  0
  1  6  2  0  0  0
  1  2  1  0  0  0
  1 39  1  0  0  0
  2  3  2  0  0  0
  2 40  1  0  0  0
  3  4  1  0  0  0
  3  8  1  0  0  0
  4  5  2  0  0  0
  4 41  1  0  0  0
  5  6  1  0  0  0
  5  7  1  0  0  0
  6 42  1  0  0  0
  8  9  1  0  0  0
  9 10  1  0  0  0
  9 43  1  0  0  0
  9 44  1  0  0  0
 10 11  1  0  0  0
 10 45  1  0  0  0
 10 46  1  0  0  0
 11 12  1  0  0  0
 11 47  1  0  0  0
 12 13  2  0  0  0
 12 14  1  0  0  0
 14 15  1  0  0  0
 14 19  1  0  0  0
 14 16  1  0  0  0
 16 17  1  0  0  0
 16 48  1  0  0  0
 16 49  1  0  0  0
 17 18  1  0  0  0
 17 25  1  0  0  0
 18 19  1  0  0  0
 18 50  1  0  0  0
 18 51  1  0  0  0
 19 24  1  0  0  0
 19 20  1  0  0  0
 20 21  1  0  0  0
 20 52  1  0  0  0
 20 53  1  0  0  0
 21 22  1  0  0  0
 21 54  1  0  0  0
 21 55  1  0  0  0
 22 23  1  0  0  0
 22 56  1  0  0  0
 22 67  1  0  0  0
 23 24  1  0  0  0
 23 57  1  0  0  0
 23 58  1  0  0  0
 24 59  1  0  0  0
 24 60  1  0  0  0
 25 26  2  0  0  0
 25 27  1  0  0  0
 27 31  1  0  0  0
 27 28  2  0  0  0
 28 29  1  0  0  0
 28 61  1  0  0  0
 29 30  2  0  0  0
 29 62  1  0  0  0
 30 31  1  0  0  0
 30 32  1  0  0  0
 32 37  2  0  0  0
 32 33  1  0  0  0
 33 34  2  0  0  0
 33 63  1  0  0  0
 34 35  1  0  0  0
 34 64  1  0  0  0
 35 36  2  0  0  0
 35 38  1  0  0  0
 36 37  1  0  0  0
 36 65  1  0  0  0
 37 66  1  0  0  0
M  CHG  1  22   1
M  END
> <i_i_glide_confnum>
179

> <i_i_glide_lignum>
1246

> <i_i_glide_posenum>
63

> <i_i_glide_rotatable_bonds>
9

> <i_m_Source_File_Index>
3952

> <b_m_subgroup_collapsed>
0

> <r_i_docking_score>
-5.6372

> <r_i_glide_ecoul>
-7.27753

> <r_i_glide_eff_state_penalty>
0

> <r_i_glide_einternal>
5.96481

> <r_i_glide_emodel>
-63.1503

> <r_i_glide_energy>
-47

> <r_i_glide_erotb>
0.628772

> <r_i_glide_esite>
-0.1

> <r_i_glide_evdw>
-39.7224

> <r_i_glide_gscore>
-5.6372

> <r_i_glide_hbond>
-0.2

> <r_i_glide_ligand_efficiency>
-0.152357

> <r_i_glide_ligand_efficiency_ln>
-1.22258

> <r_i_glide_ligand_efficiency_sa>
-0.507687

> <r_i_glide_lipo>
-2.23133

> <r_i_glide_metal>
0

> <r_i_glide_rewards>
-0.656894

> <s_i_glide_gridfile>
wee1_glide-grid

> <s_m_Source_File>
wee1_decoys_glide_SP.sdf

> <s_m_Source_Path>
/Users/zhangxujun/Desktop

> <s_m_entry_id>
4227

> <s_m_entry_name>
wee1_decoys_glide_SP.3952

> <s_m_subgroup_title>
wee1_decoys_glide_SP

> <s_m_subgroupid>
wee1_decoys_glide_SP


$$$$
