ZINC12490061_4373
                    3D
 Schrodinger Suite 2024-2.
 44 45  0  0  1  0            999 V2000
    2.1478   49.4721   20.5605 C   0  0  0  0  0  0
    2.3487   50.7935   21.2838 C   0  0  0  0  0  0
    3.3685   51.6479   20.8515 C   0  0  0  0  0  0
    3.5504   52.8875   21.4560 C   0  0  0  0  0  0
    2.7043   53.2942   22.4835 C   0  0  0  0  0  0
    1.6791   52.4534   22.9289 C   0  0  0  0  0  0
    1.5087   51.1862   22.3438 C   0  0  0  0  0  0
    0.5193   50.3462   22.8107 O   0  0  0  0  0  0
    1.0006   49.2969   23.6512 C   0  0  0  0  0  0
   -0.1828   48.5871   24.3447 C   0  0  0  0  0  0
   -0.8892   47.8289   23.6811 O   0  0  0  0  0  0
   -0.4056   48.7168   25.6704 N   0  0  0  0  0  0
    0.3044   49.6312   26.4432 N   0  0  0  0  0  0
   -0.3080   50.8068   26.6987 C   0  0  0  0  0  0
   -1.3843   51.1428   26.1858 O   0  0  0  0  0  0
    0.3998   51.7564   27.6389 C   0  0  0  0  0  0
   -0.1784   53.0002   27.8567 C   0  0  0  0  0  0
    0.4319   53.9520   28.6563 C   0  0  0  0  0  0
    1.6492   53.6908   29.2932 C   0  0  0  0  0  0
    2.2309   52.4297   29.1075 C   0  0  0  0  0  0
    1.6116   51.4695   28.2918 C   0  0  0  0  0  0
    3.8909   52.0082   29.9438 Br  0  0  0  0  0  0
    2.2996   54.6270   30.0813 O   0  0  0  0  0  0
    1.7044   55.9204   30.2323 C   0  0  0  0  0  0
    0.7595   52.9520   24.0292 C   0  0  0  0  0  0
    4.9472   54.0371   20.8652 Br  0  0  0  0  0  0
    1.0923   49.1936   20.5397 H   0  0  0  0  0  0
    2.4778   49.5288   19.5213 H   0  0  0  0  0  0
    2.7047   48.6773   21.0565 H   0  0  0  0  0  0
    4.0165   51.3558   20.0377 H   0  0  0  0  0  0
    2.8461   54.2694   22.9275 H   0  0  0  0  0  0
    1.5050   48.5431   23.0521 H   0  0  0  0  0  0
    1.7335   49.6720   24.3661 H   0  0  0  0  0  0
   -1.0542   48.1608   26.2163 H   0  0  0  0  0  0
    0.8993   49.1702   27.1167 H   0  0  0  0  0  0
   -1.1051   53.2737   27.3712 H   0  0  0  0  0  0
   -0.0687   54.8958   28.7415 H   0  0  0  0  0  0
    2.0920   50.5108   28.1639 H   0  0  0  0  0  0
    2.3043   56.5570   30.8776 H   0  0  0  0  0  0
    1.6137   56.4353   29.2735 H   0  0  0  0  0  0
    0.7187   55.8522   30.6938 H   0  0  0  0  0  0
   -0.2129   52.4597   24.0010 H   0  0  0  0  0  0
    1.2188   52.7931   25.0052 H   0  0  0  0  0  0
    0.5595   54.0176   23.9106 H   0  0  0  0  0  0
  1  2  1  0  0  0
  1 27  1  0  0  0
  1 28  1  0  0  0
  1 29  1  0  0  0
  2  7  2  0  0  0
  2  3  1  0  0  0
  3  4  2  0  0  0
  3 30  1  0  0  0
  4  5  1  0  0  0
  4 26  1  0  0  0
  5  6  2  0  0  0
  5 31  1  0  0  0
  6  7  1  0  0  0
  6 25  1  0  0  0
  7  8  1  0  0  0
  8  9  1  0  0  0
  9 10  1  0  0  0
  9 32  1  0  0  0
  9 33  1  0  0  0
 10 11  2  0  0  0
 10 12  1  0  0  0
 12 13  1  0  0  0
 12 34  1  0  0  0
 13 14  1  0  0  0
 13 35  1  0  0  0
 14 15  2  0  0  0
 14 16  1  0  0  0
 16 21  2  0  0  0
 16 17  1  0  0  0
 17 18  2  0  0  0
 17 36  1  0  0  0
 18 19  1  0  0  0
 18 37  1  0  0  0
 19 20  2  0  0  0
 19 23  1  0  0  0
 20 21  1  0  0  0
 20 22  1  0  0  0
 21 38  1  0  0  0
 23 24  1  0  0  0
 24 39  1  0  0  0
 24 40  1  0  0  0
 24 41  1  0  0  0
 25 42  1  0  0  0
 25 43  1  0  0  0
 25 44  1  0  0  0
M  END
> <i_i_glide_confnum>
4

> <i_i_glide_lignum>
4374

> <i_i_glide_posenum>
99

> <i_i_glide_rotatable_bonds>
8

> <i_m_Source_File_Index>
5203

> <b_m_subgroup_collapsed>
0

> <r_i_docking_score>
-4.82221

> <r_i_glide_ecoul>
-6.22277

> <r_i_glide_eff_state_penalty>
0

> <r_i_glide_einternal>
6.72944

> <r_i_glide_emodel>
-48.9993

> <r_i_glide_energy>
-40.528

> <r_i_glide_erotb>
0.601835

> <r_i_glide_esite>
-0.275054

> <r_i_glide_evdw>
-34.3052

> <r_i_glide_gscore>
-4.82221

> <r_i_glide_hbond>
-0.352973

> <r_i_glide_ligand_efficiency>
-0.18547

> <r_i_glide_ligand_efficiency_ln>
-1.13248

> <r_i_glide_ligand_efficiency_sa>
-0.549453

> <r_i_glide_lipo>
-2.05294

> <r_i_glide_metal>
0

> <r_i_glide_rewards>
-0.094401

> <s_i_glide_gridfile>
wee1_glide-grid

> <s_m_Source_File>
wee1_decoys_glide_SP.sdf

> <s_m_Source_Path>
/Users/zhangxujun/Desktop

> <s_m_entry_id>
5478

> <s_m_entry_name>
wee1_decoys_glide_SP.5203

> <s_m_subgroup_title>
wee1_decoys_glide_SP

> <s_m_subgroupid>
wee1_decoys_glide_SP


$$$$
