ZINC20665324_938
                    3D
 Schrodinger Suite 2024-2.
 54 56  0  0  1  0            999 V2000
    0.9526   49.0598   19.6381 C   0  0  0  0  0  0
    1.9002   49.6007   20.5070 C   0  0  0  0  0  0
    1.9491   50.9820   20.7191 C   0  0  0  0  0  0
    1.0601   51.8204   20.0362 C   0  0  0  0  0  0
    0.1037   51.2765   19.1785 C   0  0  0  0  0  0
    0.0516   49.8965   18.9782 C   0  0  0  0  0  0
   -1.1383   52.4150   18.2924 Br  0  0  0  0  0  0
    2.9729   51.5663   21.6757 C   0  0  0  0  0  0
    2.3325   52.3599   22.7634 N   0  0  0  0  0  0
    1.6783   51.6295   23.8841 C   0  0  0  0  0  0
    0.2162   52.0503   24.1984 C   0  0  2  0  0  0
   -0.2159   51.6113   25.6155 C   0  0  0  0  0  0
   -0.3074   50.0764   25.7354 C   0  0  0  0  0  0
   -1.2880   49.5243   24.6650 C   0  0  1  0  0  0
   -0.9850   50.0032   23.2147 C   0  0  0  0  0  0
   -0.8336   51.5432   23.1810 C   0  0  0  0  0  0
   -1.3137   47.9868   24.7769 C   0  0  0  0  0  0
   -0.5681   47.2975   24.0816 O   0  0  0  0  0  0
   -2.1632   47.4758   25.6817 N   0  0  0  0  0  0
   -2.0957   46.1050   25.9682 O   0  0  0  0  0  0
    2.8148   54.0571   22.9846 S   0  0  0  0  0  0
    3.5045   54.4967   21.7666 O   0  0  0  0  0  0
    1.6526   54.7773   23.5113 O   0  0  0  0  0  0
    4.0398   54.0864   24.2921 C   0  0  0  0  0  0
    5.4006   54.0968   23.9735 C   0  0  0  0  0  0
    6.3488   54.1197   24.9928 C   0  0  0  0  0  0
    5.9328   54.1140   26.3235 C   0  0  0  0  0  0
    4.5767   54.1066   26.6437 C   0  0  0  0  0  0
    3.6266   54.0968   25.6265 C   0  0  0  0  0  0
    7.1045   54.1014   27.5879 Cl  0  0  0  0  0  0
    0.9175   47.9927   19.4765 H   0  0  0  0  0  0
    2.5911   48.9431   21.0156 H   0  0  0  0  0  0
    1.1026   52.8917   20.1837 H   0  0  0  0  0  0
   -0.6838   49.4755   18.3091 H   0  0  0  0  0  0
    3.6335   52.2039   21.0887 H   0  0  0  0  0  0
    3.6161   50.7968   22.0960 H   0  0  0  0  0  0
    2.3045   51.7579   24.7617 H   0  0  0  0  0  0
    1.7173   50.5631   23.6639 H   0  0  0  0  0  0
    0.1323   53.1332   24.2132 H   0  0  0  0  0  0
   -1.1795   52.0568   25.8707 H   0  0  0  0  0  0
    0.4965   51.9815   26.3546 H   0  0  0  0  0  0
   -0.6536   49.8610   26.7484 H   0  0  0  0  0  0
    0.7015   49.6867   25.5853 H   0  0  0  0  0  0
   -2.2877   49.8646   24.9443 H   0  0  0  0  0  0
   -0.0445   49.5907   22.8471 H   0  0  0  0  0  0
   -1.8020   49.7470   22.5383 H   0  0  0  0  0  0
   -1.8003   52.0071   23.3841 H   0  0  0  0  0  0
   -0.5560   51.8528   22.1751 H   0  0  0  0  0  0
   -2.6558   48.0006   26.3944 H   0  0  0  0  0  0
   -1.5807   46.0946   26.7842 H   0  0  0  0  0  0
    5.7259   54.0904   22.9429 H   0  0  0  0  0  0
    7.4006   54.1264   24.7463 H   0  0  0  0  0  0
    4.2627   54.1039   27.6770 H   0  0  0  0  0  0
    2.5748   54.0900   25.8757 H   0  0  0  0  0  0
  1  6  2  0  0  0
  1  2  1  0  0  0
  1 31  1  0  0  0
  2  3  2  0  0  0
  2 32  1  0  0  0
  3  4  1  0  0  0
  3  8  1  0  0  0
  4  5  2  0  0  0
  4 33  1  0  0  0
  5  6  1  0  0  0
  5  7  1  0  0  0
  6 34  1  0  0  0
  8  9  1  0  0  0
  8 35  1  0  0  0
  8 36  1  0  0  0
  9 10  1  0  0  0
  9 21  1  0  0  0
 10 11  1  0  0  0
 10 37  1  0  0  0
 10 38  1  0  0  0
 11 16  1  0  0  0
 11 12  1  0  0  0
 11 39  1  0  0  0
 12 13  1  0  0  0
 12 40  1  0  0  0
 12 41  1  0  0  0
 13 14  1  0  0  0
 13 42  1  0  0  0
 13 43  1  0  0  0
 14 15  1  0  0  0
 14 17  1  0  0  0
 14 44  1  0  0  0
 15 16  1  0  0  0
 15 45  1  0  0  0
 15 46  1  0  0  0
 16 47  1  0  0  0
 16 48  1  0  0  0
 17 18  2  0  0  0
 17 19  1  0  0  0
 19 20  1  0  0  0
 19 49  1  0  0  0
 20 50  1  0  0  0
 21 22  2  0  0  0
 21 23  2  0  0  0
 21 24  1  0  0  0
 24 29  2  0  0  0
 24 25  1  0  0  0
 25 26  2  0  0  0
 25 51  1  0  0  0
 26 27  1  0  0  0
 26 52  1  0  0  0
 27 28  2  0  0  0
 27 30  1  0  0  0
 28 29  1  0  0  0
 28 53  1  0  0  0
 29 54  1  0  0  0
M  END
> <i_i_glide_confnum>
92

> <i_i_glide_lignum>
939

> <i_i_glide_posenum>
225

> <i_i_glide_rotatable_bonds>
9

> <i_m_Source_File_Index>
3056

> <b_m_subgroup_collapsed>
0

> <r_i_docking_score>
-4.66353

> <r_i_glide_ecoul>
-5.12993

> <r_i_glide_eff_state_penalty>
0

> <r_i_glide_einternal>
8.59926

> <r_i_glide_emodel>
-52.9192

> <r_i_glide_energy>
-42.1625

> <r_i_glide_erotb>
0.462722

> <r_i_glide_esite>
-0.171394

> <r_i_glide_evdw>
-37.0326

> <r_i_glide_gscore>
-4.66353

> <r_i_glide_hbond>
-0.0591764

> <r_i_glide_ligand_efficiency>
-0.155451

> <r_i_glide_ligand_efficiency_ln>
-1.05961

> <r_i_glide_ligand_efficiency_sa>
-0.483023

> <r_i_glide_lipo>
-2.03682

> <r_i_glide_metal>
0

> <r_i_glide_rewards>
-0.237745

> <s_i_glide_gridfile>
wee1_glide-grid

> <s_m_Source_File>
wee1_decoys_glide_SP.sdf

> <s_m_Source_Path>
/Users/zhangxujun/Desktop

> <s_m_entry_id>
3331

> <s_m_entry_name>
wee1_decoys_glide_SP.3056

> <s_m_subgroup_title>
wee1_decoys_glide_SP

> <s_m_subgroupid>
wee1_decoys_glide_SP


$$$$
