ZINC15093087_3257
                    3D
 Schrodinger Suite 2024-2.
 54 57  0  0  1  0            999 V2000
    5.5134   54.3284   27.2533 C   0  0  0  0  0  0
    4.2320   54.0961   28.0650 C   0  0  0  0  0  0
    4.3760   54.1644   29.2902 O   0  0  0  0  0  0
    3.0156   53.8132   27.4726 N   0  0  0  0  0  0
    1.9383   53.4866   28.3410 C   0  0  0  0  0  0
    1.4881   52.1607   28.4200 C   0  0  0  0  0  0
    0.4497   51.8219   29.2815 C   0  0  0  0  0  0
   -0.0960   52.7788   30.1327 C   0  0  0  0  0  0
    0.3560   54.0965   30.0797 C   0  0  0  0  0  0
    1.3564   54.4594   29.1767 C   0  0  0  0  0  0
    1.7569   55.7524   29.1234 F   0  0  0  0  0  0
    2.8085   53.6937   26.0664 C   0  0  0  0  0  0
    3.6344   54.0966   25.1270 N   0  0  0  0  0  0
    3.2234   53.8529   23.8933 C   0  0  0  0  0  0
    1.9642   53.2808   23.7929 C   0  0  0  0  0  0
    1.3503   52.9884   25.3867 S   0  0  0  0  0  0
    4.1188   54.1803   22.7966 C   0  0  0  0  0  0
    5.4034   54.5837   22.9165 C   0  0  0  0  0  0
    6.3058   54.8970   21.8378 C   0  0  0  0  0  0
    7.5024   55.0547   22.0817 O   0  0  0  0  0  0
    5.7927   54.9552   20.5836 N   0  0  0  0  0  0
    6.6431   55.2430   19.5048 N   0  0  0  0  0  0
    7.1152   56.4971   19.3224 C   0  0  0  0  0  0
    6.7044   57.4974   19.9137 O   0  0  0  0  0  0
    8.1751   56.6054   18.3614 C   0  0  0  0  0  0
    9.1315   55.6282   18.1123 C   0  0  0  0  0  0
   10.0823   56.0744   17.2272 N   0  0  0  0  0  0
    9.7988   57.3868   16.8944 C   0  0  0  0  0  0
    8.6105   57.7507   17.6047 C   0  0  0  0  0  0
    8.1137   59.0559   17.4507 C   0  0  0  0  0  0
    8.7753   59.9461   16.6095 C   0  0  0  0  0  0
    9.9284   59.5673   15.9288 C   0  0  0  0  0  0
   10.4697   58.2877   16.0542 C   0  0  0  0  0  0
   11.2317   55.3047   16.7791 C   0  0  0  0  0  0
    5.4407   55.2388   26.6592 H   0  0  0  0  0  0
    6.3669   54.4465   27.9223 H   0  0  0  0  0  0
    5.7267   53.4775   26.6053 H   0  0  0  0  0  0
    1.9258   51.3935   27.7971 H   0  0  0  0  0  0
    0.0704   50.8125   29.2876 H   0  0  0  0  0  0
   -0.8805   52.4968   30.8230 H   0  0  0  0  0  0
   -0.0774   54.8412   30.7309 H   0  0  0  0  0  0
    1.4122   52.9941   22.9099 H   0  0  0  0  0  0
    3.6629   54.0588   21.8231 H   0  0  0  0  0  0
    5.8532   54.6865   23.8942 H   0  0  0  0  0  0
    4.8116   54.9957   20.3513 H   0  0  0  0  0  0
    7.0313   54.4201   19.0682 H   0  0  0  0  0  0
    9.2304   54.6321   18.5225 H   0  0  0  0  0  0
    7.2120   59.3676   17.9606 H   0  0  0  0  0  0
    8.3742   60.9421   16.4801 H   0  0  0  0  0  0
   10.4136   60.2843   15.2822 H   0  0  0  0  0  0
   11.3660   58.0102   15.5195 H   0  0  0  0  0  0
   11.2903   55.3407   15.6911 H   0  0  0  0  0  0
   12.1385   55.7337   17.2055 H   0  0  0  0  0  0
   11.1419   54.2647   17.0961 H   0  0  0  0  0  0
  1  2  1  0  0  0
  1 35  1  0  0  0
  1 36  1  0  0  0
  1 37  1  0  0  0
  2  3  2  0  0  0
  2  4  1  0  0  0
  4  5  1  0  0  0
  4 12  1  0  0  0
  5 10  2  0  0  0
  5  6  1  0  0  0
  6  7  2  0  0  0
  6 38  1  0  0  0
  7  8  1  0  0  0
  7 39  1  0  0  0
  8  9  2  0  0  0
  8 40  1  0  0  0
  9 10  1  0  0  0
  9 41  1  0  0  0
 10 11  1  0  0  0
 12 16  1  0  0  0
 12 13  2  0  0  0
 13 14  1  0  0  0
 14 15  2  0  0  0
 14 17  1  0  0  0
 15 16  1  0  0  0
 15 42  1  0  0  0
 17 18  2  0  0  0
 17 43  1  0  0  0
 18 19  1  0  0  0
 18 44  1  0  0  0
 19 20  2  0  0  0
 19 21  1  0  0  0
 21 22  1  0  0  0
 21 45  1  0  0  0
 22 23  1  0  0  0
 22 46  1  0  0  0
 23 24  2  0  0  0
 23 25  1  0  0  0
 25 29  1  0  0  0
 25 26  2  0  0  0
 26 27  1  0  0  0
 26 47  1  0  0  0
 27 28  1  0  0  0
 27 34  1  0  0  0
 28 33  2  0  0  0
 28 29  1  0  0  0
 29 30  2  0  0  0
 30 31  1  0  0  0
 30 48  1  0  0  0
 31 32  2  0  0  0
 31 49  1  0  0  0
 32 33  1  0  0  0
 32 50  1  0  0  0
 33 51  1  0  0  0
 34 52  1  0  0  0
 34 53  1  0  0  0
 34 54  1  0  0  0
M  END
> <i_i_glide_confnum>
250

> <i_i_glide_lignum>
3258

> <i_i_glide_posenum>
135

> <i_i_glide_rotatable_bonds>
9

> <i_m_Source_File_Index>
1438

> <b_m_subgroup_collapsed>
0

> <r_i_docking_score>
-6.74928

> <r_i_glide_ecoul>
-7.00315

> <r_i_glide_eff_state_penalty>
0

> <r_i_glide_einternal>
8.55343

> <r_i_glide_emodel>
-72.9111

> <r_i_glide_energy>
-53.7454

> <r_i_glide_erotb>
0.710741

> <r_i_glide_esite>
-0.00968848

> <r_i_glide_evdw>
-46.7423

> <r_i_glide_gscore>
-6.74928

> <r_i_glide_hbond>
-0.32

> <r_i_glide_ligand_efficiency>
-0.198508

> <r_i_glide_ligand_efficiency_ln>
-1.4911

> <r_i_glide_ligand_efficiency_sa>
-0.643089

> <r_i_glide_lipo>
-2.4211

> <r_i_glide_metal>
0

> <r_i_glide_rewards>
-1.32164

> <s_i_glide_gridfile>
wee1_glide-grid

> <s_m_Source_File>
wee1_decoys_glide_SP.sdf

> <s_m_Source_Path>
/Users/zhangxujun/Desktop

> <s_m_entry_id>
1713

> <s_m_entry_name>
wee1_decoys_glide_SP.1438

> <s_m_subgroup_title>
wee1_decoys_glide_SP

> <s_m_subgroupid>
wee1_decoys_glide_SP


$$$$
