ZINC39946110_3087
                    3D
 Schrodinger Suite 2024-2.
 57 60  0  0  1  0            999 V2000
    1.4148   55.6327   30.2035 C   0  0  0  0  0  0
    0.4499   54.4731   30.5080 C   0  0  0  0  0  0
    0.1532   53.5224   29.3252 C   0  0  0  0  0  0
    1.2555   52.4737   29.0010 C   0  0  1  0  0  0
    1.4521   52.0046   29.9641 H   0  0  0  0  0  0
    0.7294   51.3302   28.0879 C   0  0  0  0  0  0
    0.4511   51.7586   26.7148 N   0  0  0  0  0  0
    0.3042   50.9379   25.6626 C   0  0  0  0  0  0
    0.3015   49.7127   25.7587 O   0  0  0  0  0  0
    0.1902   51.6078   24.2905 C   0  0  0  0  0  0
    1.3505   50.9053   23.0717 S   0  0  0  0  0  0
    1.6630   52.3840   22.0646 C   0  0  2  0  0  0
    0.7046   52.8964   21.9795 H   0  0  0  0  0  0
    2.1511   52.0541   20.7657 N   0  0  0  0  0  0
    3.3773   52.6828   20.6060 N   0  0  0  0  0  0
    3.5901   53.2883   21.7023 C   0  0  0  0  0  0
    2.5977   53.2168   22.6393 O   0  0  0  0  0  0
    4.7832   54.0278   22.0205 C   0  0  0  0  0  0
    5.6401   54.5965   21.1452 C   0  0  0  0  0  0
    5.6434   54.6988   19.6741 C   0  0  0  0  0  0
    6.6781   55.2668   19.0218 C   0  0  0  0  0  0
    7.7930   55.7676   19.8109 C   0  0  0  0  0  0
    7.8005   55.6967   21.1679 C   0  0  0  0  0  0
    6.7286   55.1128   21.8572 C   0  0  0  0  0  0
    6.5874   54.9156   23.1483 N   0  3  0  0  0  0
    5.3081   54.2306   23.4234 C   0  0  0  0  0  0
    2.5732   53.0804   28.4694 C   0  0  0  0  0  0
    2.5364   53.9698   27.3863 C   0  0  0  0  0  0
    3.7075   54.4972   26.8472 C   0  0  0  0  0  0
    4.9408   54.1630   27.3963 C   0  0  0  0  0  0
    4.9961   53.2945   28.4819 C   0  0  0  0  0  0
    3.8258   52.7573   29.0273 C   0  0  0  0  0  0
    3.9808   51.7004   30.3867 Cl  0  0  0  0  0  0
    6.3958   54.8295   26.7418 Cl  0  0  0  0  0  0
    1.4554   56.3346   31.0383 H   0  0  0  0  0  0
    2.4312   55.2849   30.0342 H   0  0  0  0  0  0
    1.1032   56.1932   29.3233 H   0  0  0  0  0  0
   -0.4956   54.8975   30.8444 H   0  0  0  0  0  0
    0.8162   53.8999   31.3598 H   0  0  0  0  0  0
   -0.1136   54.0994   28.4406 H   0  0  0  0  0  0
   -0.7558   52.9779   29.5861 H   0  0  0  0  0  0
    1.4686   50.5241   28.0726 H   0  0  0  0  0  0
   -0.1814   50.8973   28.5056 H   0  0  0  0  0  0
    0.3863   52.7526   26.5632 H   0  0  0  0  0  0
   -0.8291   51.4894   23.9214 H   0  0  0  0  0  0
    0.3743   52.6794   24.3836 H   0  0  0  0  0  0
    1.6056   52.1939   19.9261 H   0  0  0  0  0  0
    4.8223   54.3250   19.0751 H   0  0  0  0  0  0
    6.6828   55.3453   17.9447 H   0  0  0  0  0  0
    8.6434   56.1989   19.2993 H   0  0  0  0  0  0
    8.6651   56.0790   21.6948 H   0  0  0  0  0  0
    4.6904   54.8869   24.0358 H   0  0  0  0  0  0
    5.5230   53.3047   23.9572 H   0  0  0  0  0  0
    1.5941   54.2508   26.9424 H   0  0  0  0  0  0
    3.6494   55.1843   26.0185 H   0  0  0  0  0  0
    5.9558   53.0356   28.9004 H   0  0  0  0  0  0
    7.2691   55.1777   23.8564 H   0  0  0  0  0  0
  1  2  1  0  0  0
  1 35  1  0  0  0
  1 36  1  0  0  0
  1 37  1  0  0  0
  2  3  1  0  0  0
  2 38  1  0  0  0
  2 39  1  0  0  0
  3  4  1  0  0  0
  3 40  1  0  0  0
  3 41  1  0  0  0
  4  5  1  0  0  0
  4  6  1  0  0  0
  4 27  1  0  0  0
  6  7  1  0  0  0
  6 42  1  0  0  0
  6 43  1  0  0  0
  7  8  1  0  0  0
  7 44  1  0  0  0
  8  9  2  0  0  0
  8 10  1  0  0  0
 10 11  1  0  0  0
 10 45  1  0  0  0
 10 46  1  0  0  0
 11 12  1  0  0  0
 12 13  1  0  0  0
 12 17  1  0  0  0
 12 14  1  0  0  0
 14 15  1  0  0  0
 14 47  1  0  0  0
 15 16  2  0  0  0
 16 17  1  0  0  0
 16 18  1  0  0  0
 18 26  1  0  0  0
 18 19  2  0  0  0
 19 24  1  0  0  0
 19 20  1  0  0  0
 20 21  2  0  0  0
 20 48  1  0  0  0
 21 22  1  0  0  0
 21 49  1  0  0  0
 22 23  2  0  0  0
 22 50  1  0  0  0
 23 24  1  0  0  0
 23 51  1  0  0  0
 24 25  2  0  0  0
 25 26  1  0  0  0
 25 57  1  0  0  0
 26 52  1  0  0  0
 26 53  1  0  0  0
 27 32  2  0  0  0
 27 28  1  0  0  0
 28 29  2  0  0  0
 28 54  1  0  0  0
 29 30  1  0  0  0
 29 55  1  0  0  0
 30 31  2  0  0  0
 30 34  1  0  0  0
 31 32  1  0  0  0
 31 56  1  0  0  0
 32 33  1  0  0  0
M  CHG  1  25   1
M  END
> <i_i_glide_confnum>
155

> <i_i_glide_lignum>
3088

> <i_i_glide_posenum>
303

> <i_i_glide_rotatable_bonds>
10

> <i_m_Source_File_Index>
4237

> <b_m_subgroup_collapsed>
0

> <r_i_docking_score>
-6.54652

> <r_i_glide_ecoul>
-0.660436

> <r_i_glide_eff_state_penalty>
0

> <r_i_glide_einternal>
11.3318

> <r_i_glide_emodel>
-69.8303

> <r_i_glide_energy>
-52.1303

> <r_i_glide_erotb>
0.671824

> <r_i_glide_esite>
-0.0204286

> <r_i_glide_evdw>
-51.4699

> <r_i_glide_gscore>
-6.54652

> <r_i_glide_hbond>
0

> <r_i_glide_ligand_efficiency>
-0.204579

> <r_i_glide_ligand_efficiency_ln>
-1.46594

> <r_i_glide_ligand_efficiency_sa>
-0.649497

> <r_i_glide_lipo>
-4.27265

> <r_i_glide_metal>
0

> <r_i_glide_rewards>
-0.252704

> <s_i_glide_gridfile>
wee1_glide-grid

> <s_m_Source_File>
wee1_decoys_glide_SP.sdf

> <s_m_Source_Path>
/Users/zhangxujun/Desktop

> <s_m_entry_id>
4512

> <s_m_entry_name>
wee1_decoys_glide_SP.4237

> <s_m_subgroup_title>
wee1_decoys_glide_SP

> <s_m_subgroupid>
wee1_decoys_glide_SP


$$$$
