ZINC38678932_6007
                    3D
 Schrodinger Suite 2024-2.
 54 57  0  0  1  0            999 V2000
    1.7304   53.1400   22.8284 C   0  0  0  0  0  0
    1.1663   53.8123   24.0819 C   0  0  0  0  0  0
    1.9860   53.5613   25.3568 C   0  0  0  0  0  0
    3.3214   54.0360   25.2029 O   0  0  0  0  0  0
    4.1879   54.0123   26.2863 C   0  0  0  0  0  0
    3.7751   53.6209   27.5755 C   0  0  0  0  0  0
    4.6555   53.6446   28.6526 C   0  0  0  0  0  0
    5.9644   54.0653   28.4623 C   0  0  0  0  0  0
    6.3969   54.4485   27.2009 C   0  0  0  0  0  0
    5.5308   54.4123   26.0999 C   0  0  0  0  0  0
    6.0852   54.8434   24.7800 C   0  0  0  0  0  0
    6.9701   55.6965   24.7006 O   0  0  0  0  0  0
    5.5931   54.0963   23.7382 O   0  0  0  0  0  0
    5.7693   54.3471   22.3844 C   0  0  0  0  0  0
    5.1043   53.4719   21.5195 C   0  0  0  0  0  0
    5.1127   53.6670   20.1383 C   0  0  0  0  0  0
    5.8110   54.7384   19.5736 C   0  0  0  0  0  0
    6.4792   55.6215   20.4403 C   0  0  0  0  0  0
    6.4929   55.4101   21.8164 C   0  0  0  0  0  0
    7.1002   56.7668   19.9743 O   0  0  0  0  0  0
    6.7225   57.2354   18.7562 C   0  0  0  0  0  0
    6.1069   56.4879   17.8165 C   0  0  0  0  0  0
    5.8322   55.0018   18.0612 C   0  0  1  0  0  0
    4.8275   54.8005   17.6928 H   0  0  0  0  0  0
    6.8263   54.0785   17.3406 C   0  0  0  0  0  0
    8.1754   54.0964   17.7286 C   0  0  0  0  0  0
    9.1072   53.2563   17.1225 C   0  0  0  0  0  0
    8.7044   52.3877   16.1118 C   0  0  0  0  0  0
    7.3722   52.3687   15.7042 C   0  0  0  0  0  0
    6.4317   53.2055   16.3083 C   0  0  0  0  0  0
    4.6318   53.1071   15.6808 Br  0  0  0  0  0  0
    5.7502   57.0450   16.5524 C   0  0  0  0  0  0
    5.4654   57.4702   15.5156 N   0  0  0  0  0  0
    7.1021   58.5466   18.6585 N   0  0  0  0  0  0
    1.0494   53.2439   21.9835 H   0  0  0  0  0  0
    2.6633   53.6179   22.5440 H   0  0  0  0  0  0
    1.9171   52.0771   22.9832 H   0  0  0  0  0  0
    0.1437   53.4698   24.2438 H   0  0  0  0  0  0
    1.1045   54.8859   23.9044 H   0  0  0  0  0  0
    1.9892   52.4973   25.5993 H   0  0  0  0  0  0
    1.5044   54.0903   26.1793 H   0  0  0  0  0  0
    2.7681   53.2890   27.7714 H   0  0  0  0  0  0
    4.3222   53.3391   29.6334 H   0  0  0  0  0  0
    6.6639   54.0967   29.2816 H   0  0  0  0  0  0
    7.4253   54.7617   27.0952 H   0  0  0  0  0  0
    4.5622   52.6297   21.9236 H   0  0  0  0  0  0
    4.5856   52.9720   19.4984 H   0  0  0  0  0  0
    7.0308   56.1191   22.4192 H   0  0  0  0  0  0
    8.5069   54.7577   18.5161 H   0  0  0  0  0  0
   10.1386   53.2710   17.4447 H   0  0  0  0  0  0
    9.4229   51.7300   15.6444 H   0  0  0  0  0  0
    7.0619   51.6938   14.9199 H   0  0  0  0  0  0
    6.7048   59.1566   17.9535 H   0  0  0  0  0  0
    7.9123   58.8856   19.1541 H   0  0  0  0  0  0
  1  2  1  0  0  0
  1 35  1  0  0  0
  1 36  1  0  0  0
  1 37  1  0  0  0
  2  3  1  0  0  0
  2 38  1  0  0  0
  2 39  1  0  0  0
  3  4  1  0  0  0
  3 40  1  0  0  0
  3 41  1  0  0  0
  4  5  1  0  0  0
  5 10  2  0  0  0
  5  6  1  0  0  0
  6  7  2  0  0  0
  6 42  1  0  0  0
  7  8  1  0  0  0
  7 43  1  0  0  0
  8  9  2  0  0  0
  8 44  1  0  0  0
  9 10  1  0  0  0
  9 45  1  0  0  0
 10 11  1  0  0  0
 11 12  2  0  0  0
 11 13  1  0  0  0
 13 14  1  0  0  0
 14 19  2  0  0  0
 14 15  1  0  0  0
 15 16  2  0  0  0
 15 46  1  0  0  0
 16 17  1  0  0  0
 16 47  1  0  0  0
 17 23  1  0  0  0
 17 18  2  0  0  0
 18 19  1  0  0  0
 18 20  1  0  0  0
 19 48  1  0  0  0
 20 21  1  0  0  0
 21 22  2  0  0  0
 21 34  1  0  0  0
 22 23  1  0  0  0
 22 32  1  0  0  0
 23 24  1  0  0  0
 23 25  1  0  0  0
 25 30  2  0  0  0
 25 26  1  0  0  0
 26 27  2  0  0  0
 26 49  1  0  0  0
 27 28  1  0  0  0
 27 50  1  0  0  0
 28 29  2  0  0  0
 28 51  1  0  0  0
 29 30  1  0  0  0
 29 52  1  0  0  0
 30 31  1  0  0  0
 32 33  3  0  0  0
 34 53  1  0  0  0
 34 54  1  0  0  0
M  END
> <i_i_glide_confnum>
125

> <i_i_glide_lignum>
6008

> <i_i_glide_posenum>
193

> <i_i_glide_rotatable_bonds>
8

> <i_m_Source_File_Index>
3966

> <b_m_subgroup_collapsed>
0

> <r_i_docking_score>
-6.35051

> <r_i_glide_ecoul>
-1.30086

> <r_i_glide_eff_state_penalty>
0

> <r_i_glide_einternal>
10.0519

> <r_i_glide_emodel>
-62.4447

> <r_i_glide_energy>
-48.7009

> <r_i_glide_erotb>
0.48051

> <r_i_glide_esite>
-0.0754498

> <r_i_glide_evdw>
-47.4001

> <r_i_glide_gscore>
-6.35051

> <r_i_glide_hbond>
-0.528123

> <r_i_glide_ligand_efficiency>
-0.19244

> <r_i_glide_ligand_efficiency_ln>
-1.41232

> <r_i_glide_ligand_efficiency_sa>
-0.617257

> <r_i_glide_lipo>
-3.19143

> <r_i_glide_metal>
0

> <r_i_glide_rewards>
-0.470886

> <s_i_glide_gridfile>
wee1_glide-grid

> <s_m_Source_File>
wee1_decoys_glide_SP.sdf

> <s_m_Source_Path>
/Users/zhangxujun/Desktop

> <s_m_entry_id>
4241

> <s_m_entry_name>
wee1_decoys_glide_SP.3966

> <s_m_subgroup_title>
wee1_decoys_glide_SP

> <s_m_subgroupid>
wee1_decoys_glide_SP


$$$$
