ZINC37558167_4724
                    3D
 Schrodinger Suite 2024-2.
 31 33  0  0  1  0            999 V2000
    7.2457   53.7987   23.5537 C   0  0  0  0  0  0
    6.1467   54.0965   24.5480 C   0  0  0  0  0  0
    4.8271   54.1553   24.0928 C   0  0  0  0  0  0
    3.7596   54.2683   24.9806 C   0  0  0  0  0  0
    4.0438   54.3158   26.3493 C   0  0  0  0  0  0
    5.3817   54.2708   26.8065 C   0  0  0  0  0  0
    6.4486   54.1668   25.9106 C   0  0  0  0  0  0
    5.3798   54.3501   28.5576 S   0  0  0  0  0  0
    3.6414   54.5257   28.5050 C   0  0  0  0  0  0
    3.1087   54.4177   27.3179 N   0  0  0  0  0  0
    3.0256   54.8336   29.6599 N   0  5  0  0  0  0
    1.5293   55.2857   29.6962 S   0  0  0  0  0  0
    1.1044   55.8976   30.9560 O   0  0  0  0  0  0
    1.1044   55.9710   28.4817 O   0  0  0  0  0  0
    0.6337   53.7325   29.6803 C   0  0  0  0  0  0
    0.2463   52.9632   28.5774 C   0  0  0  0  0  0
   -0.4538   51.8665   29.0419 N   0  3  0  0  0  0
   -0.9731   51.2366   30.9438 H   0  0  0  0  0  0
   -0.4956   51.9341   30.3780 N   0  0  0  0  0  0
    0.1944   53.0408   30.8024 C   0  0  0  0  0  0
    0.3044   53.2967   32.1283 N   0  0  0  0  0  0
    8.1337   53.3894   24.0343 H   0  0  0  0  0  0
    6.8957   53.0196   22.8817 H   0  0  0  0  0  0
    7.5044   54.6794   22.9651 H   0  0  0  0  0  0
    4.6221   54.0828   23.0337 H   0  0  0  0  0  0
    2.7420   54.3061   24.6231 H   0  0  0  0  0  0
    7.4637   54.0967   26.2705 H   0  0  0  0  0  0
    0.4038   53.1193   27.5185 H   0  0  0  0  0  0
    0.6530   54.1920   32.4446 H   0  0  0  0  0  0
   -0.2731   52.7549   32.7786 H   0  0  0  0  0  0
   -0.8919   51.0963   28.5430 H   0  0  0  0  0  0
  1  2  1  0  0  0
  1 22  1  0  0  0
  1 23  1  0  0  0
  1 24  1  0  0  0
  2  7  2  0  0  0
  2  3  1  0  0  0
  3  4  2  0  0  0
  3 25  1  0  0  0
  4  5  1  0  0  0
  4 26  1  0  0  0
  5 10  1  0  0  0
  5  6  2  0  0  0
  6  7  1  0  0  0
  6  8  1  0  0  0
  7 27  1  0  0  0
  8  9  1  0  0  0
  9 10  2  0  0  0
  9 11  1  0  0  0
 11 12  1  0  0  0
 12 13  2  0  0  0
 12 14  2  0  0  0
 12 15  1  0  0  0
 15 16  1  0  0  0
 15 20  2  0  0  0
 16 28  1  0  0  0
 16 17  2  0  0  0
 17 19  1  0  0  0
 17 31  1  0  0  0
 18 19  1  0  0  0
 19 20  1  0  0  0
 20 21  1  0  0  0
 21 29  1  0  0  0
 21 30  1  0  0  0
M  CHG  2  11  -1  17   1
M  END
> <i_i_glide_confnum>
14

> <i_i_glide_lignum>
4725

> <i_i_glide_posenum>
98

> <i_i_glide_rotatable_bonds>
3

> <i_m_Source_File_Index>
1954

> <b_m_subgroup_collapsed>
0

> <r_i_docking_score>
-6.80563

> <r_i_glide_ecoul>
-5.524

> <r_i_glide_eff_state_penalty>
0

> <r_i_glide_einternal>
1.87742

> <r_i_glide_emodel>
-59.6799

> <r_i_glide_energy>
-40.018

> <r_i_glide_erotb>
0.580356

> <r_i_glide_esite>
-0.242955

> <r_i_glide_evdw>
-34.494

> <r_i_glide_gscore>
-6.80563

> <r_i_glide_hbond>
-0.288054

> <r_i_glide_ligand_efficiency>
-0.340282

> <r_i_glide_ligand_efficiency_ln>
-1.70323

> <r_i_glide_ligand_efficiency_sa>
-0.923666

> <r_i_glide_lipo>
-2.46084

> <r_i_glide_metal>
0

> <r_i_glide_rewards>
-1.84084

> <s_i_glide_gridfile>
wee1_glide-grid

> <s_m_Source_File>
wee1_decoys_glide_SP.sdf

> <s_m_Source_Path>
/Users/zhangxujun/Desktop

> <s_m_entry_id>
2229

> <s_m_entry_name>
wee1_decoys_glide_SP.1954

> <s_m_subgroup_title>
wee1_decoys_glide_SP

> <s_m_subgroupid>
wee1_decoys_glide_SP


$$$$
