ZINC36050880_5959
                    3D
 Schrodinger Suite 2024-2.
 57 60  0  0  1  0            999 V2000
   -5.6699   53.6824   25.2915 C   0  0  0  0  0  0
   -4.4509   53.2387   24.4808 C   0  0  0  0  0  0
   -3.4153   52.8436   25.3681 O   0  0  0  0  0  0
   -2.1913   52.4970   24.9024 C   0  0  0  0  0  0
   -1.8989   52.5308   23.7043 O   0  0  0  0  0  0
   -1.1985   52.2127   25.9648 C   0  0  0  0  0  0
   -1.5278   51.7895   27.2254 C   0  0  0  0  0  0
   -0.6217   51.6958   28.2400 N   0  0  0  0  0  0
    0.5708   52.1010   28.0487 C   0  0  0  0  0  0
    1.1151   52.6031   26.8677 N   0  0  0  0  0  0
    0.2850   52.5731   25.6255 C   0  0  1  0  0  0
    0.3051   53.5949   25.2556 H   0  0  0  0  0  0
    0.8644   51.7179   24.4925 C   0  0  0  0  0  0
    1.4256   52.3311   23.3662 C   0  0  0  0  0  0
    1.7945   51.5642   22.2643 C   0  0  0  0  0  0
    1.5916   50.1863   22.2852 C   0  0  0  0  0  0
    1.0644   49.5670   23.4146 C   0  0  0  0  0  0
    0.7044   50.3280   24.5205 C   0  0  0  0  0  0
    1.9518   49.2393   20.8905 Cl  0  0  0  0  0  0
    2.3852   53.1572   27.0040 C   0  0  0  0  0  0
    2.8915   52.9438   28.2337 C   0  0  0  0  0  0
    1.8038   52.0967   29.3176 S   0  0  0  0  0  0
    3.1036   53.8897   25.9663 C   0  0  0  0  0  0
    4.4306   54.1252   25.8838 C   0  0  0  0  0  0
    5.4080   53.7735   26.6441 O   0  5  0  0  0  0
    4.8857   54.8964   24.8411 N   0  0  0  0  0  0
    6.2171   55.1157   24.2754 C   0  0  0  0  0  0
    6.4327   54.5942   22.8321 C   0  0  1  0  0  0
    7.0557   53.6999   22.8986 H   0  0  0  0  0  0
    5.1967   54.2327   22.0029 C   0  0  0  0  0  0
    5.6333   54.4509   20.5679 C   0  0  0  0  0  0
    6.8540   55.3726   20.6683 C   0  0  0  0  0  0
    7.0426   55.6263   22.0604 O   0  0  0  0  0  0
   -2.8893   51.2885   27.7071 C   0  0  0  0  0  0
   -6.4701   54.0148   24.6290 H   0  0  0  0  0  0
   -6.0534   52.8645   25.9017 H   0  0  0  0  0  0
   -5.4167   54.5049   25.9595 H   0  0  0  0  0  0
   -4.1102   54.0621   23.8492 H   0  0  0  0  0  0
   -4.7162   52.4070   23.8274 H   0  0  0  0  0  0
    1.5374   53.4031   23.3202 H   0  0  0  0  0  0
    2.2023   52.0419   21.3847 H   0  0  0  0  0  0
    0.9193   48.4973   23.4304 H   0  0  0  0  0  0
    0.2673   49.8431   25.3840 H   0  0  0  0  0  0
    3.8582   53.2659   28.5918 H   0  0  0  0  0  0
    2.4911   54.3157   25.1867 H   0  0  0  0  0  0
    4.1689   55.3040   24.2615 H   0  0  0  0  0  0
    7.0172   54.7784   24.9368 H   0  0  0  0  0  0
    6.3163   56.2005   24.2548 H   0  0  0  0  0  0
    4.3663   54.8976   22.2412 H   0  0  0  0  0  0
    4.8274   53.2315   22.2289 H   0  0  0  0  0  0
    4.8354   54.8941   19.9701 H   0  0  0  0  0  0
    5.9044   53.5066   20.0923 H   0  0  0  0  0  0
    6.6998   56.3140   20.1370 H   0  0  0  0  0  0
    7.7455   54.8954   20.2598 H   0  0  0  0  0  0
   -3.4637   52.0966   28.1561 H   0  0  0  0  0  0
   -3.4753   50.8638   26.8941 H   0  0  0  0  0  0
   -2.7864   50.4968   28.4503 H   0  0  0  0  0  0
  1  2  1  0  0  0
  1 35  1  0  0  0
  1 36  1  0  0  0
  1 37  1  0  0  0
  2  3  1  0  0  0
  2 38  1  0  0  0
  2 39  1  0  0  0
  3  4  1  0  0  0
  4  5  2  0  0  0
  4  6  1  0  0  0
  6 11  1  0  0  0
  6  7  2  0  0  0
  7  8  1  0  0  0
  7 34  1  0  0  0
  8  9  2  0  0  0
  9 22  1  0  0  0
  9 10  1  0  0  0
 10 11  1  0  0  0
 10 20  1  0  0  0
 11 12  1  0  0  0
 11 13  1  0  0  0
 13 18  2  0  0  0
 13 14  1  0  0  0
 14 15  2  0  0  0
 14 40  1  0  0  0
 15 16  1  0  0  0
 15 41  1  0  0  0
 16 17  2  0  0  0
 16 19  1  0  0  0
 17 18  1  0  0  0
 17 42  1  0  0  0
 18 43  1  0  0  0
 20 21  2  0  0  0
 20 23  1  0  0  0
 21 22  1  0  0  0
 21 44  1  0  0  0
 23 24  2  0  0  0
 23 45  1  0  0  0
 24 25  1  0  0  0
 24 26  1  0  0  0
 26 27  1  0  0  0
 26 46  1  0  0  0
 27 28  1  0  0  0
 27 47  1  0  0  0
 27 48  1  0  0  0
 28 29  1  0  0  0
 28 33  1  0  0  0
 28 30  1  0  0  0
 30 31  1  0  0  0
 30 49  1  0  0  0
 30 50  1  0  0  0
 31 32  1  0  0  0
 31 51  1  0  0  0
 31 52  1  0  0  0
 32 33  1  0  0  0
 32 53  1  0  0  0
 32 54  1  0  0  0
 34 55  1  0  0  0
 34 56  1  0  0  0
 34 57  1  0  0  0
M  CHG  1  25  -1
M  END
> <i_i_glide_confnum>
147

> <i_i_glide_lignum>
5960

> <i_i_glide_posenum>
379

> <i_i_glide_rotatable_bonds>
8

> <i_m_Source_File_Index>
3337

> <b_m_subgroup_collapsed>
0

> <r_i_docking_score>
-5.12425

> <r_i_glide_ecoul>
-1.35836

> <r_i_glide_eff_state_penalty>
0

> <r_i_glide_einternal>
14.8117

> <r_i_glide_emodel>
-52.0208

> <r_i_glide_energy>
-45.7746

> <r_i_glide_erotb>
0.538254

> <r_i_glide_esite>
0

> <r_i_glide_evdw>
-44.4163

> <r_i_glide_gscore>
-5.12425

> <r_i_glide_hbond>
0

> <r_i_glide_ligand_efficiency>
-0.160133

> <r_i_glide_ligand_efficiency_ln>
-1.14746

> <r_i_glide_ligand_efficiency_sa>
-0.50839

> <r_i_glide_lipo>
-2.71495

> <r_i_glide_metal>
0

> <r_i_glide_rewards>
-0.522994

> <s_i_glide_gridfile>
wee1_glide-grid

> <s_m_Source_File>
wee1_decoys_glide_SP.sdf

> <s_m_Source_Path>
/Users/zhangxujun/Desktop

> <s_m_entry_id>
3612

> <s_m_entry_name>
wee1_decoys_glide_SP.3337

> <s_m_subgroup_title>
wee1_decoys_glide_SP

> <s_m_subgroupid>
wee1_decoys_glide_SP


$$$$
