ZINC35703712_4633
                    3D
 Schrodinger Suite 2024-2.
 64 68  0  0  1  0            999 V2000
    2.6430   52.7391   23.0673 C   0  0  0  0  0  0
    1.3968   51.9230   23.3911 C   0  0  0  0  0  0
    0.7608   51.8264   24.6014 C   0  0  0  0  0  0
   -0.4845   50.9090   24.7516 C   0  0  2  0  0  0
   -0.3510   50.2604   25.6204 H   0  0  0  0  0  0
   -0.5593   49.9783   23.5959 N   0  0  0  0  0  0
   -1.4246   48.9036   23.5155 C   0  0  0  0  0  0
   -1.5095   48.4317   22.2568 C   0  0  0  0  0  0
   -0.4834   49.2896   21.1074 S   0  0  0  0  0  0
    0.1321   50.2961   22.4306 C   0  0  0  0  0  0
    1.0046   51.2175   22.2868 N   0  0  0  0  0  0
   -2.1223   48.3391   24.6668 C   0  0  0  0  0  0
   -2.5672   47.0829   24.8196 C   0  0  0  0  0  0
   -2.5162   46.0969   23.9962 O   0  5  0  0  0  0
   -3.1783   46.7111   25.9994 N   0  0  0  0  0  0
   -3.9461   45.5061   26.3163 C   0  0  0  0  0  0
   -4.8791   45.6507   27.5325 C   0  0  2  0  0  0
   -4.2728   45.7877   28.4315 H   0  0  0  0  0  0
   -5.9078   44.5262   27.6621 C   0  0  0  0  0  0
   -7.1088   45.1675   28.3348 C   0  0  0  0  0  0
   -6.8644   46.6707   28.1873 C   0  0  0  0  0  0
   -5.7189   46.7873   27.3485 O   0  0  0  0  0  0
   -1.7820   51.7120   24.9421 C   0  0  0  0  0  0
   -2.2484   52.5350   23.9099 C   0  0  0  0  0  0
   -3.4015   53.2968   24.0817 C   0  0  0  0  0  0
   -4.1143   53.2313   25.2770 C   0  0  0  0  0  0
   -3.6602   52.4115   26.3078 C   0  0  0  0  0  0
   -2.4944   51.6639   26.1493 C   0  0  0  0  0  0
   -2.0574   50.9081   27.1796 F   0  0  0  0  0  0
    1.1172   52.6218   25.7878 C   0  0  0  0  0  0
    1.7186   53.6954   25.7290 O   0  0  0  0  0  0
    0.6569   52.0612   26.9444 O   0  0  0  0  0  0
    0.5224   52.7633   28.1800 C   0  0  0  0  0  0
    1.8288   53.3535   28.6796 C   0  0  0  0  0  0
    2.9541   52.5438   28.8477 C   0  0  0  0  0  0
    4.1671   53.1197   29.2114 C   0  0  0  0  0  0
    4.2394   54.4967   29.4163 C   0  0  0  0  0  0
    3.1043   55.2966   29.2817 C   0  0  0  0  0  0
    1.8966   54.7248   28.9142 C   0  0  0  0  0  0
    3.2594   52.9073   23.9490 H   0  0  0  0  0  0
    3.2829   52.2339   22.3398 H   0  0  0  0  0  0
    2.3572   53.7050   22.6483 H   0  0  0  0  0  0
   -2.1101   47.5975   21.9283 H   0  0  0  0  0  0
   -2.2937   48.9989   25.5037 H   0  0  0  0  0  0
   -2.8589   47.2004   26.8275 H   0  0  0  0  0  0
   -3.2412   44.6981   26.5102 H   0  0  0  0  0  0
   -4.5338   45.2247   25.4410 H   0  0  0  0  0  0
   -5.5027   43.6325   28.1351 H   0  0  0  0  0  0
   -6.1965   44.1840   26.6667 H   0  0  0  0  0  0
   -7.1957   44.8962   29.3871 H   0  0  0  0  0  0
   -8.0378   44.8684   27.8452 H   0  0  0  0  0  0
   -6.6576   47.1467   29.1479 H   0  0  0  0  0  0
   -7.7122   47.1961   27.7446 H   0  0  0  0  0  0
   -1.7052   52.5956   22.9783 H   0  0  0  0  0  0
   -3.7379   53.9415   23.2840 H   0  0  0  0  0  0
   -5.0140   53.8161   25.4047 H   0  0  0  0  0  0
   -4.2042   52.3590   27.2396 H   0  0  0  0  0  0
   -0.2320   53.5434   28.0647 H   0  0  0  0  0  0
    0.1403   52.0726   28.9330 H   0  0  0  0  0  0
    2.8933   51.4824   28.6514 H   0  0  0  0  0  0
    5.0506   52.5065   29.3110 H   0  0  0  0  0  0
    5.1858   54.9477   29.6830 H   0  0  0  0  0  0
    3.1450   56.3622   29.4460 H   0  0  0  0  0  0
    1.0282   55.3535   28.7773 H   0  0  0  0  0  0
  1  2  1  0  0  0
  1 40  1  0  0  0
  1 41  1  0  0  0
  1 42  1  0  0  0
  2 11  1  0  0  0
  2  3  2  0  0  0
  3  4  1  0  0  0
  3 30  1  0  0  0
  4  5  1  0  0  0
  4  6  1  0  0  0
  4 23  1  0  0  0
  6 10  1  0  0  0
  6  7  1  0  0  0
  7  8  2  0  0  0
  7 12  1  0  0  0
  8  9  1  0  0  0
  8 43  1  0  0  0
  9 10  1  0  0  0
 10 11  2  0  0  0
 12 13  2  0  0  0
 12 44  1  0  0  0
 13 14  1  0  0  0
 13 15  1  0  0  0
 15 16  1  0  0  0
 15 45  1  0  0  0
 16 17  1  0  0  0
 16 46  1  0  0  0
 16 47  1  0  0  0
 17 18  1  0  0  0
 17 22  1  0  0  0
 17 19  1  0  0  0
 19 20  1  0  0  0
 19 48  1  0  0  0
 19 49  1  0  0  0
 20 21  1  0  0  0
 20 50  1  0  0  0
 20 51  1  0  0  0
 21 22  1  0  0  0
 21 52  1  0  0  0
 21 53  1  0  0  0
 23 28  2  0  0  0
 23 24  1  0  0  0
 24 25  2  0  0  0
 24 54  1  0  0  0
 25 26  1  0  0  0
 25 55  1  0  0  0
 26 27  2  0  0  0
 26 56  1  0  0  0
 27 28  1  0  0  0
 27 57  1  0  0  0
 28 29  1  0  0  0
 30 31  2  0  0  0
 30 32  1  0  0  0
 32 33  1  0  0  0
 33 34  1  0  0  0
 33 58  1  0  0  0
 33 59  1  0  0  0
 34 39  2  0  0  0
 34 35  1  0  0  0
 35 36  2  0  0  0
 35 60  1  0  0  0
 36 37  1  0  0  0
 36 61  1  0  0  0
 37 38  2  0  0  0
 37 62  1  0  0  0
 38 39  1  0  0  0
 38 63  1  0  0  0
 39 64  1  0  0  0
M  CHG  1  14  -1
M  END
> <i_i_glide_confnum>
311

> <i_i_glide_lignum>
4634

> <i_i_glide_posenum>
210

> <i_i_glide_rotatable_bonds>
9

> <i_m_Source_File_Index>
399

> <b_m_subgroup_collapsed>
0

> <r_i_docking_score>
-4.03305

> <r_i_glide_ecoul>
0.0170106

> <r_i_glide_eff_state_penalty>
0

> <r_i_glide_einternal>
5.1975

> <r_i_glide_emodel>
-52.0133

> <r_i_glide_energy>
-40.4247

> <r_i_glide_erotb>
0.530828

> <r_i_glide_esite>
-0.194968

> <r_i_glide_evdw>
-40.4417

> <r_i_glide_gscore>
-4.03305

> <r_i_glide_hbond>
-0.0437605

> <r_i_glide_ligand_efficiency>
-0.109001

> <r_i_glide_ligand_efficiency_ln>
-0.874674

> <r_i_glide_ligand_efficiency_sa>
-0.363217

> <r_i_glide_lipo>
-2.1486

> <r_i_glide_metal>
0

> <r_i_glide_rewards>
-0.157012

> <s_i_glide_gridfile>
wee1_glide-grid

> <s_m_Source_File>
wee1_decoys_glide_SP.sdf

> <s_m_Source_Path>
/Users/zhangxujun/Desktop

> <s_m_entry_id>
674

> <s_m_entry_name>
wee1_decoys_glide_SP.399

> <s_m_subgroup_title>
wee1_decoys_glide_SP

> <s_m_subgroupid>
wee1_decoys_glide_SP


$$$$
