ZINC40961321_743
                    3D
 Schrodinger Suite 2024-2.
 57 60  0  0  1  0            999 V2000
   -1.0282   61.6008   15.3315 C   0  0  0  0  0  0
   -1.6772   62.8329   15.3296 C   0  0  0  0  0  0
   -0.9273   64.0071   15.3056 C   0  0  0  0  0  0
    0.4639   63.9583   15.2812 C   0  0  0  0  0  0
    1.1104   62.7261   15.2807 C   0  0  0  0  0  0
    0.3709   61.5389   15.3116 C   0  0  0  0  0  0
    1.0972   60.2542   15.3252 C   0  0  0  0  0  0
    0.5754   59.0498   14.9959 C   0  0  0  0  0  0
    1.3097   57.8112   15.0512 C   0  0  0  0  0  0
    1.1317   56.9220   14.2220 O   0  0  0  0  0  0
    2.1648   57.6991   16.0807 N   0  0  0  0  0  0
    3.0495   56.5677   16.3460 C   0  0  2  0  0  0
    2.3219   55.2958   16.8437 C   0  0  0  0  0  0
    3.2565   54.1713   17.3248 C   0  0  0  0  0  0
    4.2177   54.7622   18.3798 N   0  3  2  0  0  0
    5.1323   55.8184   17.7164 C   0  0  0  0  0  0
    4.2642   56.9773   17.2039 C   0  0  0  0  0  0
    5.0752   53.6511   19.0363 C   0  0  0  0  0  0
    5.5037   54.1257   20.4119 C   0  0  0  0  0  0
    4.9259   53.8534   21.5471 N   0  0  0  0  0  0
    5.6898   54.4905   22.4164 C   0  0  0  0  0  0
    6.7009   55.1681   21.9041 N   0  0  0  0  0  0
    6.5868   54.9318   20.5334 O   0  0  0  0  0  0
    5.4061   54.4363   23.8901 C   0  0  0  0  0  0
    4.1155   54.1208   24.3349 C   0  0  0  0  0  0
    3.8319   54.0611   25.6955 C   0  0  0  0  0  0
    4.8401   54.2826   26.6368 C   0  0  0  0  0  0
    6.1306   54.6073   26.1986 C   0  0  0  0  0  0
    6.4104   54.6888   24.8346 C   0  0  0  0  0  0
    4.5049   54.1680   28.1227 C   0  0  0  0  0  0
    3.4234   54.8971   28.4082 F   0  0  0  0  0  0
    4.2548   52.8968   28.4285 F   0  0  0  0  0  0
    5.5048   54.5975   28.8894 F   0  0  0  0  0  0
   -1.5575   65.2033   15.3089 F   0  0  0  0  0  0
   -1.6225   60.6999   15.3610 H   0  0  0  0  0  0
   -2.7550   62.8808   15.3440 H   0  0  0  0  0  0
    1.0386   64.8738   15.2667 H   0  0  0  0  0  0
    2.1917   62.6966   15.2756 H   0  0  0  0  0  0
    2.1275   60.3186   15.6561 H   0  0  0  0  0  0
   -0.4405   58.9483   14.6472 H   0  0  0  0  0  0
    2.2618   58.5003   16.6892 H   0  0  0  0  0  0
    3.4969   56.2567   15.3971 H   0  0  0  0  0  0
    1.6823   55.5670   17.6816 H   0  0  0  0  0  0
    1.6692   54.9060   16.0598 H   0  0  0  0  0  0
    3.8612   53.7324   16.5245 H   0  0  0  0  0  0
    2.6763   53.3852   17.8140 H   0  0  0  0  0  0
    5.6929   55.3252   16.9178 H   0  0  0  0  0  0
    5.8272   56.1896   18.4703 H   0  0  0  0  0  0
    4.8921   57.6806   16.6518 H   0  0  0  0  0  0
    3.9067   57.5034   18.0822 H   0  0  0  0  0  0
    4.4483   52.7568   19.1156 H   0  0  0  0  0  0
    5.8950   53.3980   18.3609 H   0  0  0  0  0  0
    3.3208   53.9278   23.6307 H   0  0  0  0  0  0
    2.8311   53.8106   26.0182 H   0  0  0  0  0  0
    6.9206   54.7844   26.9142 H   0  0  0  0  0  0
    7.4157   54.9295   24.5153 H   0  0  0  0  0  0
    3.6584   55.1767   19.1174 H   0  0  0  0  0  0
  1  6  2  0  0  0
  1  2  1  0  0  0
  1 35  1  0  0  0
  2  3  2  0  0  0
  2 36  1  0  0  0
  3  4  1  0  0  0
  3 34  1  0  0  0
  4  5  2  0  0  0
  4 37  1  0  0  0
  5  6  1  0  0  0
  5 38  1  0  0  0
  6  7  1  0  0  0
  7  8  2  0  0  0
  7 39  1  0  0  0
  8  9  1  0  0  0
  8 40  1  0  0  0
  9 10  2  0  0  0
  9 11  1  0  0  0
 11 12  1  0  0  0
 11 41  1  0  0  0
 12 17  1  0  0  0
 12 13  1  0  0  0
 12 42  1  0  0  0
 13 14  1  0  0  0
 13 43  1  0  0  0
 13 44  1  0  0  0
 14 15  1  0  0  0
 14 45  1  0  0  0
 14 46  1  0  0  0
 15 16  1  0  0  0
 15 18  1  0  0  0
 15 57  1  0  0  0
 16 17  1  0  0  0
 16 47  1  0  0  0
 16 48  1  0  0  0
 17 49  1  0  0  0
 17 50  1  0  0  0
 18 19  1  0  0  0
 18 51  1  0  0  0
 18 52  1  0  0  0
 19 23  1  0  0  0
 19 20  2  0  0  0
 20 21  1  0  0  0
 21 22  2  0  0  0
 21 24  1  0  0  0
 22 23  1  0  0  0
 24 29  2  0  0  0
 24 25  1  0  0  0
 25 26  2  0  0  0
 25 53  1  0  0  0
 26 27  1  0  0  0
 26 54  1  0  0  0
 27 28  2  0  0  0
 27 30  1  0  0  0
 28 29  1  0  0  0
 28 55  1  0  0  0
 29 56  1  0  0  0
 30 31  1  0  0  0
 30 32  1  0  0  0
 30 33  1  0  0  0
M  CHG  1  15   1
M  END
> <i_i_glide_confnum>
104

> <i_i_glide_lignum>
744

> <i_i_glide_posenum>
370

> <i_i_glide_rotatable_bonds>
8

> <i_m_Source_File_Index>
640

> <b_m_subgroup_collapsed>
0

> <r_i_docking_score>
-5.33687

> <r_i_glide_ecoul>
-4.54418

> <r_i_glide_eff_state_penalty>
0

> <r_i_glide_einternal>
8.74342

> <r_i_glide_emodel>
-51.2383

> <r_i_glide_energy>
-40.3142

> <r_i_glide_erotb>
0.537267

> <r_i_glide_esite>
-0.0328442

> <r_i_glide_evdw>
-35.77

> <r_i_glide_gscore>
-5.33687

> <r_i_glide_hbond>
-0.0354037

> <r_i_glide_ligand_efficiency>
-0.156967

> <r_i_glide_ligand_efficiency_ln>
-1.17906

> <r_i_glide_ligand_efficiency_sa>
-0.508512

> <r_i_glide_lipo>
-2.08775

> <r_i_glide_metal>
0

> <r_i_glide_rewards>
-1.24801

> <s_i_glide_gridfile>
wee1_glide-grid

> <s_m_Source_File>
wee1_decoys_glide_SP.sdf

> <s_m_Source_Path>
/Users/zhangxujun/Desktop

> <s_m_entry_id>
915

> <s_m_entry_name>
wee1_decoys_glide_SP.640

> <s_m_subgroup_title>
wee1_decoys_glide_SP

> <s_m_subgroupid>
wee1_decoys_glide_SP


$$$$
