ZINC39654604_4898
                    3D
 Schrodinger Suite 2024-2.
 78 81  0  0  1  0            999 V2000
    5.7870   55.0000   20.6434 C   0  0  0  0  0  0
    5.0541   53.9889   21.5427 C   0  0  0  0  0  0
    5.2687   54.2329   23.0329 C   0  0  0  0  0  0
    6.5605   54.2461   23.5642 C   0  0  0  0  0  0
    6.7480   54.4626   24.9251 C   0  0  0  0  0  0
    5.6567   54.6332   25.7746 C   0  0  0  0  0  0
    4.3708   54.6708   25.2320 C   0  0  0  0  0  0
    4.1730   54.4571   23.8720 C   0  0  0  0  0  0
    5.8790   54.7999   27.2802 C   0  0  0  0  0  0
    5.3862   53.6344   28.1713 C   0  0  0  0  0  0
    3.9817   53.2974   27.9505 N   0  0  0  0  0  0
    2.9154   53.9515   28.4508 C   0  0  0  0  0  0
    3.0378   54.8278   29.3047 O   0  0  0  0  0  0
    1.4957   53.6653   27.8711 C   0  0  1  0  0  0
    1.1049   54.6397   27.5811 H   0  0  0  0  0  0
    1.6115   52.8467   26.5502 C   0  0  0  0  0  0
    0.3950   52.0459   26.4956 N   0  0  0  0  0  0
   -0.4191   52.1963   27.6934 C   0  0  0  0  0  0
    0.5015   52.8484   28.7493 C   0  0  0  0  0  0
    1.1915   51.6972   29.5504 C   0  0  0  0  0  0
    1.7231   52.1046   30.9621 C   0  0  0  0  0  0
    0.6542   52.8564   31.7676 N   0  3  0  0  0  0
    0.2090   54.1143   31.0175 C   0  0  0  0  0  0
   -0.4275   53.6483   29.7039 C   0  0  0  0  0  0
    0.0673   51.2804   25.4238 C   0  0  0  0  0  0
    0.8112   51.2056   24.4434 O   0  0  0  0  0  0
   -1.2708   50.4906   25.4557 C   0  0  2  0  0  0
   -1.2757   50.0222   26.4391 H   0  0  0  0  0  0
   -1.4692   49.3418   24.4178 C   0  0  0  0  0  0
   -1.5313   49.8064   22.9447 C   0  0  0  0  0  0
   -0.4621   48.1872   24.5989 C   0  0  0  0  0  0
   -2.3133   51.4679   25.3127 O   0  0  0  0  0  0
   -3.4832   51.4006   26.0445 C   0  0  0  0  0  0
   -3.8025   50.3990   26.9765 C   0  0  0  0  0  0
   -5.0057   50.4528   27.6762 C   0  0  0  0  0  0
   -5.8994   51.4941   27.4383 C   0  0  0  0  0  0
   -5.5995   52.4855   26.5081 C   0  0  0  0  0  0
   -4.3899   52.4379   25.8201 C   0  0  0  0  0  0
    5.5549   54.8215   19.5935 H   0  0  0  0  0  0
    5.4951   56.0231   20.8796 H   0  0  0  0  0  0
    6.8698   54.9272   20.7555 H   0  0  0  0  0  0
    5.3778   52.9749   21.3062 H   0  0  0  0  0  0
    3.9871   54.0208   21.3141 H   0  0  0  0  0  0
    7.4220   54.0944   22.9301 H   0  0  0  0  0  0
    7.7505   54.4980   25.3142 H   0  0  0  0  0  0
    3.5180   54.8685   25.8594 H   0  0  0  0  0  0
    3.1700   54.4719   23.4704 H   0  0  0  0  0  0
    5.3692   55.6966   27.6018 H   0  0  0  0  0  0
    6.9313   54.9958   27.4940 H   0  0  0  0  0  0
    5.5883   53.8292   29.2258 H   0  0  0  0  0  0
    5.9326   52.7327   27.8877 H   0  0  0  0  0  0
    3.8269   52.5587   27.2805 H   0  0  0  0  0  0
    2.3989   52.0974   26.5901 H   0  0  0  0  0  0
    1.7050   53.4971   25.6776 H   0  0  0  0  0  0
   -1.2068   52.9012   27.4266 H   0  0  0  0  0  0
   -0.9264   51.3073   28.0720 H   0  0  0  0  0  0
    0.4333   50.9252   29.6817 H   0  0  0  0  0  0
    1.9438   51.1826   28.9488 H   0  0  0  0  0  0
    1.9914   51.2933   31.6236 H   0  0  0  0  0  0
    2.5811   52.7719   30.9113 H   0  0  0  0  0  0
   -0.1576   52.2668   31.9586 H   0  0  0  0  0  0
   -0.4937   54.6169   31.6804 H   0  0  0  0  0  0
    1.0759   54.7602   30.8813 H   0  0  0  0  0  0
   -0.8864   54.4765   29.1795 H   0  0  0  0  0  0
   -1.2670   52.9991   29.9772 H   0  0  0  0  0  0
   -2.4513   48.9138   24.6356 H   0  0  0  0  0  0
   -0.5688   50.1685   22.5835 H   0  0  0  0  0  0
   -1.8308   48.9901   22.2883 H   0  0  0  0  0  0
   -2.2576   50.6102   22.8118 H   0  0  0  0  0  0
    0.5631   48.5031   24.3976 H   0  0  0  0  0  0
   -0.4950   47.7987   25.6185 H   0  0  0  0  0  0
   -0.6855   47.3548   23.9308 H   0  0  0  0  0  0
   -3.1447   49.5683   27.1846 H   0  0  0  0  0  0
   -5.2469   49.6817   28.3954 H   0  0  0  0  0  0
   -6.8370   51.5251   27.9759 H   0  0  0  0  0  0
   -6.2983   53.2885   26.3217 H   0  0  0  0  0  0
   -4.1505   53.2077   25.1022 H   0  0  0  0  0  0
    1.0186   53.0965   32.6793 H   0  0  0  0  0  0
  1  2  1  0  0  0
  1 39  1  0  0  0
  1 40  1  0  0  0
  1 41  1  0  0  0
  2  3  1  0  0  0
  2 42  1  0  0  0
  2 43  1  0  0  0
  3  8  2  0  0  0
  3  4  1  0  0  0
  4  5  2  0  0  0
  4 44  1  0  0  0
  5  6  1  0  0  0
  5 45  1  0  0  0
  6  7  2  0  0  0
  6  9  1  0  0  0
  7  8  1  0  0  0
  7 46  1  0  0  0
  8 47  1  0  0  0
  9 10  1  0  0  0
  9 48  1  0  0  0
  9 49  1  0  0  0
 10 11  1  0  0  0
 10 50  1  0  0  0
 10 51  1  0  0  0
 11 12  1  0  0  0
 11 52  1  0  0  0
 12 13  2  0  0  0
 12 14  1  0  0  0
 14 15  1  0  0  0
 14 19  1  0  0  0
 14 16  1  0  0  0
 16 17  1  0  0  0
 16 53  1  0  0  0
 16 54  1  0  0  0
 17 18  1  0  0  0
 17 25  1  0  0  0
 18 19  1  0  0  0
 18 55  1  0  0  0
 18 56  1  0  0  0
 19 24  1  0  0  0
 19 20  1  0  0  0
 20 21  1  0  0  0
 20 57  1  0  0  0
 20 58  1  0  0  0
 21 22  1  0  0  0
 21 59  1  0  0  0
 21 60  1  0  0  0
 22 23  1  0  0  0
 22 61  1  0  0  0
 22 78  1  0  0  0
 23 24  1  0  0  0
 23 62  1  0  0  0
 23 63  1  0  0  0
 24 64  1  0  0  0
 24 65  1  0  0  0
 25 26  2  0  0  0
 25 27  1  0  0  0
 27 28  1  0  0  0
 27 29  1  0  0  0
 27 32  1  0  0  0
 29 30  1  0  0  0
 29 31  1  0  0  0
 29 66  1  0  0  0
 30 67  1  0  0  0
 30 68  1  0  0  0
 30 69  1  0  0  0
 31 70  1  0  0  0
 31 71  1  0  0  0
 31 72  1  0  0  0
 32 33  1  0  0  0
 33 38  2  0  0  0
 33 34  1  0  0  0
 34 35  2  0  0  0
 34 73  1  0  0  0
 35 36  1  0  0  0
 35 74  1  0  0  0
 36 37  2  0  0  0
 36 75  1  0  0  0
 37 38  1  0  0  0
 37 76  1  0  0  0
 38 77  1  0  0  0
M  CHG  1  22   1
M  END
> <i_i_glide_confnum>
309

> <i_i_glide_lignum>
4899

> <i_i_glide_posenum>
54

> <i_i_glide_rotatable_bonds>
11

> <i_m_Source_File_Index>
2182

> <b_m_subgroup_collapsed>
0

> <r_i_docking_score>
-5.65779

> <r_i_glide_ecoul>
-2.16441

> <r_i_glide_eff_state_penalty>
0

> <r_i_glide_einternal>
9.41802

> <r_i_glide_emodel>
-57.0485

> <r_i_glide_energy>
-43.1392

> <r_i_glide_erotb>
0.671247

> <r_i_glide_esite>
-0.10168

> <r_i_glide_evdw>
-40.9748

> <r_i_glide_gscore>
-5.65779

> <r_i_glide_hbond>
-0.2

> <r_i_glide_ligand_efficiency>
-0.157161

> <r_i_glide_ligand_efficiency_ln>
-1.23438

> <r_i_glide_ligand_efficiency_sa>
-0.518934

> <r_i_glide_lipo>
-3.19662

> <r_i_glide_metal>
0

> <r_i_glide_rewards>
-0.457341

> <s_i_glide_gridfile>
wee1_glide-grid

> <s_m_Source_File>
wee1_decoys_glide_SP.sdf

> <s_m_Source_Path>
/Users/zhangxujun/Desktop

> <s_m_entry_id>
2457

> <s_m_entry_name>
wee1_decoys_glide_SP.2182

> <s_m_subgroup_title>
wee1_decoys_glide_SP

> <s_m_subgroupid>
wee1_decoys_glide_SP


$$$$
