ZINC13551865_407
                    3D
 Schrodinger Suite 2024-2.
 60 63  0  0  1  0            999 V2000
    8.3584   55.3351   20.7136 C   0  0  0  0  0  0
    6.7367   56.1156   20.8717 S   0  0  0  0  0  0
    5.8484   54.8986   21.8711 C   0  0  0  0  0  0
    6.2917   54.7868   23.3533 C   0  0  0  0  0  0
    5.1323   54.6007   24.3865 C   0  0  2  0  0  0
    4.7148   55.5959   24.4868 H   0  0  0  0  0  0
    5.5743   54.1110   25.8025 C   0  0  0  0  0  0
    6.7247   53.6972   25.9287 O   0  0  0  0  0  0
    4.6949   54.0951   26.8427 N   0  0  0  0  0  0
    4.9659   53.3053   28.0623 C   0  0  0  0  0  0
    3.6513   52.5538   28.4365 C   0  0  0  0  0  0
    2.3876   53.4333   28.5546 C   0  0  0  0  0  0
    2.2920   54.2235   27.2374 C   0  0  0  0  0  0
    3.5663   55.0252   26.9357 C   0  0  0  0  0  0
    1.1083   52.6237   28.7813 C   0  0  0  0  0  0
    0.2545   52.7901   29.8653 C   0  0  0  0  0  0
   -0.8227   51.9404   29.6899 N   0  3  0  0  0  0
   -0.6755   51.2967   28.4819 C   0  0  0  0  0  0
    0.5288   51.6872   27.9417 N   0  0  0  0  0  0
    0.9225   51.3482   27.0753 H   0  0  0  0  0  0
    0.4423   53.8805   30.9006 C   0  0  0  0  0  0
    1.3820   54.9480   30.2711 C   0  0  0  0  0  0
    2.5909   54.3109   29.7221 N   0  0  0  0  0  0
    4.1297   53.6967   23.8185 N   0  0  0  0  0  0
    2.8088   53.8888   23.6863 C   0  0  0  0  0  0
    2.2306   54.8964   24.0815 O   0  0  0  0  0  0
    2.0413   52.7432   23.0756 C   0  0  0  0  0  0
    2.6132   51.9319   22.0816 C   0  0  0  0  0  0
    1.9037   50.8522   21.5625 C   0  0  0  0  0  0
    0.6184   50.5840   22.0257 C   0  0  0  0  0  0
    0.0284   51.3974   22.9901 C   0  0  0  0  0  0
    0.7357   52.4787   23.5094 C   0  0  0  0  0  0
   -0.3399   49.0913   21.3350 Br  0  0  0  0  0  0
    9.0884   56.0472   20.3268 H   0  0  0  0  0  0
    8.7046   54.9792   21.6817 H   0  0  0  0  0  0
    8.3043   54.4968   20.0208 H   0  0  0  0  0  0
    5.9042   53.9264   21.3820 H   0  0  0  0  0  0
    4.8029   55.1992   21.8052 H   0  0  0  0  0  0
    6.8939   55.6528   23.6338 H   0  0  0  0  0  0
    6.9817   53.9436   23.4159 H   0  0  0  0  0  0
    5.2589   53.9849   28.8638 H   0  0  0  0  0  0
    5.7484   52.5608   27.9018 H   0  0  0  0  0  0
    3.8157   51.9905   29.3558 H   0  0  0  0  0  0
    3.4420   51.8069   27.6817 H   0  0  0  0  0  0
    2.0746   53.5544   26.4051 H   0  0  0  0  0  0
    1.4405   54.8967   27.2876 H   0  0  0  0  0  0
    3.7630   55.6548   27.8043 H   0  0  0  0  0  0
    3.4756   55.6966   26.0870 H   0  0  0  0  0  0
   -1.3350   50.5327   28.0819 H   0  0  0  0  0  0
   -0.4956   54.3440   31.1968 H   0  0  0  0  0  0
    0.8560   53.4986   31.8346 H   0  0  0  0  0  0
    0.8485   55.4788   29.4805 H   0  0  0  0  0  0
    1.6397   55.6953   31.0232 H   0  0  0  0  0  0
    3.0776   53.7644   30.4140 H   0  0  0  0  0  0
    4.5042   52.8204   23.4946 H   0  0  0  0  0  0
    3.6060   52.1252   21.6994 H   0  0  0  0  0  0
    2.3502   50.2255   20.8034 H   0  0  0  0  0  0
   -0.9724   51.1858   23.3383 H   0  0  0  0  0  0
    0.2689   53.0995   24.2620 H   0  0  0  0  0  0
   -1.5665   51.7806   30.3598 H   0  0  0  0  0  0
  1  2  1  0  0  0
  1 34  1  0  0  0
  1 35  1  0  0  0
  1 36  1  0  0  0
  2  3  1  0  0  0
  3  4  1  0  0  0
  3 37  1  0  0  0
  3 38  1  0  0  0
  4  5  1  0  0  0
  4 39  1  0  0  0
  4 40  1  0  0  0
  5  6  1  0  0  0
  5  7  1  0  0  0
  5 24  1  0  0  0
  7  8  2  0  0  0
  7  9  1  0  0  0
  9 14  1  0  0  0
  9 10  1  0  0  0
 10 11  1  0  0  0
 10 41  1  0  0  0
 10 42  1  0  0  0
 11 12  1  0  0  0
 11 43  1  0  0  0
 11 44  1  0  0  0
 12 23  1  0  0  0
 12 13  1  0  0  0
 12 15  1  0  0  0
 13 14  1  0  0  0
 13 45  1  0  0  0
 13 46  1  0  0  0
 14 47  1  0  0  0
 14 48  1  0  0  0
 15 19  1  0  0  0
 15 16  2  0  0  0
 16 17  1  0  0  0
 16 21  1  0  0  0
 17 18  2  0  0  0
 17 60  1  0  0  0
 18 19  1  0  0  0
 18 49  1  0  0  0
 19 20  1  0  0  0
 21 22  1  0  0  0
 21 50  1  0  0  0
 21 51  1  0  0  0
 22 23  1  0  0  0
 22 52  1  0  0  0
 22 53  1  0  0  0
 23 54  1  0  0  0
 24 25  1  0  0  0
 24 55  1  0  0  0
 25 26  2  0  0  0
 25 27  1  0  0  0
 27 32  2  0  0  0
 27 28  1  0  0  0
 28 29  2  0  0  0
 28 56  1  0  0  0
 29 30  1  0  0  0
 29 57  1  0  0  0
 30 31  2  0  0  0
 30 33  1  0  0  0
 31 32  1  0  0  0
 31 58  1  0  0  0
 32 59  1  0  0  0
M  CHG  1  17   1
M  END
> <i_i_glide_confnum>
125

> <i_i_glide_lignum>
408

> <i_i_glide_posenum>
174

> <i_i_glide_rotatable_bonds>
8

> <i_m_Source_File_Index>
1197

> <b_m_subgroup_collapsed>
0

> <r_i_docking_score>
-6.15731

> <r_i_glide_ecoul>
-1.22643

> <r_i_glide_eff_state_penalty>
0

> <r_i_glide_einternal>
13.2014

> <r_i_glide_emodel>
-49.5289

> <r_i_glide_energy>
-39.0962

> <r_i_glide_erotb>
0.397378

> <r_i_glide_esite>
-0.139595

> <r_i_glide_evdw>
-37.8697

> <r_i_glide_gscore>
-6.15731

> <r_i_glide_hbond>
-0.236817

> <r_i_glide_ligand_efficiency>
-0.198623

> <r_i_glide_ligand_efficiency_ln>
-1.38866

> <r_i_glide_ligand_efficiency_sa>
-0.62395

> <r_i_glide_lipo>
-3.11497

> <r_i_glide_metal>
0

> <r_i_glide_rewards>
-0.985849

> <s_i_glide_gridfile>
wee1_glide-grid

> <s_m_Source_File>
wee1_decoys_glide_SP.sdf

> <s_m_Source_Path>
/Users/zhangxujun/Desktop

> <s_m_entry_id>
1472

> <s_m_entry_name>
wee1_decoys_glide_SP.1197

> <s_m_subgroup_title>
wee1_decoys_glide_SP

> <s_m_subgroupid>
wee1_decoys_glide_SP


$$$$
