ZINC23009445_482
                    3D
 Schrodinger Suite 2024-2.
 60 63  0  0  1  0            999 V2000
   -3.8770   50.4977   29.1374 C   0  0  0  0  0  0
   -3.2929   50.8213   27.9088 C   0  0  0  0  0  0
   -4.1783   51.4490   27.0363 C   0  0  0  0  0  0
   -5.7455   51.6565   27.7554 S   0  0  0  0  0  0
   -5.2072   50.8876   29.2128 C   0  0  0  0  0  0
   -3.8517   52.0585   25.3603 S   0  0  0  0  0  0
   -3.7154   53.5153   25.4745 O   0  0  0  0  0  0
   -4.8870   51.4667   24.5067 O   0  0  0  0  0  0
   -2.2828   51.3585   24.9100 N   0  0  0  0  0  0
   -2.1715   49.8785   24.8139 C   0  0  0  0  0  0
   -1.0338   49.4877   23.8400 C   0  0  0  0  0  0
    0.2927   50.2386   24.1247 C   0  0  0  0  0  0
    0.0291   51.7684   24.2443 C   0  0  1  0  0  0
   -0.3153   52.1381   23.2763 H   0  0  0  0  0  0
   -1.0360   52.0377   25.3405 C   0  0  0  0  0  0
    1.3779   52.5031   24.4371 C   0  0  0  0  0  0
    2.2094   52.4128   23.5342 O   0  0  0  0  0  0
    1.5947   53.1743   25.5919 N   0  0  0  0  0  0
    2.8131   53.6973   26.0956 C   0  0  0  0  0  0
    3.8658   54.0961   25.2515 C   0  0  0  0  0  0
    5.1055   54.4931   25.7712 C   0  0  0  0  0  0
    5.2819   54.4983   27.1568 C   0  0  0  0  0  0
    4.2365   54.1534   28.0035 C   0  0  0  0  0  0
    2.9817   53.7836   27.4982 C   0  0  0  0  0  0
    1.9567   53.4414   28.3807 N   0  0  0  0  0  0
    1.8515   54.1369   29.6796 C   0  0  0  0  0  0
    0.4707   53.9739   30.3442 C   0  0  0  0  0  0
    0.1057   52.4991   30.4993 C   0  0  0  0  0  0
    0.2289   51.8078   29.1417 C   0  0  0  0  0  0
    1.6315   52.0119   28.5392 C   0  0  0  0  0  0
    6.2428   54.9223   24.8797 C   0  0  0  0  0  0
    7.1043   55.6962   25.2823 O   0  0  0  0  0  0
    6.2883   54.4190   23.6465 N   0  0  0  0  0  0
   -3.3440   49.9913   29.9315 H   0  0  0  0  0  0
   -2.2671   50.5745   27.6829 H   0  0  0  0  0  0
   -5.8876   50.7492   30.0396 H   0  0  0  0  0  0
   -3.1291   49.4513   24.5110 H   0  0  0  0  0  0
   -1.8874   49.4861   25.7912 H   0  0  0  0  0  0
   -1.3578   49.6959   22.8186 H   0  0  0  0  0  0
   -0.8681   48.4099   23.8832 H   0  0  0  0  0  0
    0.9668   50.0000   23.2999 H   0  0  0  0  0  0
    0.6716   49.8340   25.0664 H   0  0  0  0  0  0
   -0.7237   51.5572   26.2680 H   0  0  0  0  0  0
   -1.2454   53.0976   25.4769 H   0  0  0  0  0  0
    0.8780   53.0909   26.2970 H   0  0  0  0  0  0
    3.7225   54.1049   24.1817 H   0  0  0  0  0  0
    6.2278   54.7890   27.5951 H   0  0  0  0  0  0
    4.4208   54.1817   29.0663 H   0  0  0  0  0  0
    2.0332   55.2011   29.5279 H   0  0  0  0  0  0
    2.6291   53.7633   30.3455 H   0  0  0  0  0  0
   -0.2865   54.4966   29.7631 H   0  0  0  0  0  0
    0.4747   54.4553   31.3232 H   0  0  0  0  0  0
    0.7685   52.0329   31.2292 H   0  0  0  0  0  0
   -0.9016   52.3866   30.8856 H   0  0  0  0  0  0
    0.0255   50.7458   29.2567 H   0  0  0  0  0  0
   -0.5324   52.1774   28.4537 H   0  0  0  0  0  0
    1.6748   51.4966   27.5785 H   0  0  0  0  0  0
    2.3920   51.5462   29.1686 H   0  0  0  0  0  0
    7.0511   54.6818   23.0413 H   0  0  0  0  0  0
    5.5949   53.7546   23.3387 H   0  0  0  0  0  0
  1  5  2  0  0  0
  1  2  1  0  0  0
  1 34  1  0  0  0
  2  3  2  0  0  0
  2 35  1  0  0  0
  3  4  1  0  0  0
  3  6  1  0  0  0
  4  5  1  0  0  0
  5 36  1  0  0  0
  6  7  2  0  0  0
  6  8  2  0  0  0
  6  9  1  0  0  0
  9 15  1  0  0  0
  9 10  1  0  0  0
 10 11  1  0  0  0
 10 37  1  0  0  0
 10 38  1  0  0  0
 11 12  1  0  0  0
 11 39  1  0  0  0
 11 40  1  0  0  0
 12 13  1  0  0  0
 12 41  1  0  0  0
 12 42  1  0  0  0
 13 14  1  0  0  0
 13 15  1  0  0  0
 13 16  1  0  0  0
 15 43  1  0  0  0
 15 44  1  0  0  0
 16 17  2  0  0  0
 16 18  1  0  0  0
 18 19  1  0  0  0
 18 45  1  0  0  0
 19 24  2  0  0  0
 19 20  1  0  0  0
 20 21  2  0  0  0
 20 46  1  0  0  0
 21 22  1  0  0  0
 21 31  1  0  0  0
 22 23  2  0  0  0
 22 47  1  0  0  0
 23 24  1  0  0  0
 23 48  1  0  0  0
 24 25  1  0  0  0
 25 30  1  0  0  0
 25 26  1  0  0  0
 26 27  1  0  0  0
 26 49  1  0  0  0
 26 50  1  0  0  0
 27 28  1  0  0  0
 27 51  1  0  0  0
 27 52  1  0  0  0
 28 29  1  0  0  0
 28 53  1  0  0  0
 28 54  1  0  0  0
 29 30  1  0  0  0
 29 55  1  0  0  0
 29 56  1  0  0  0
 30 57  1  0  0  0
 30 58  1  0  0  0
 31 32  2  0  0  0
 31 33  1  0  0  0
 33 59  1  0  0  0
 33 60  1  0  0  0
M  END
> <i_i_glide_confnum>
213

> <i_i_glide_lignum>
483

> <i_i_glide_posenum>
328

> <i_i_glide_rotatable_bonds>
7

> <i_m_Source_File_Index>
3124

> <b_m_subgroup_collapsed>
0

> <r_i_docking_score>
-4.57399

> <r_i_glide_ecoul>
-5.20939

> <r_i_glide_eff_state_penalty>
0

> <r_i_glide_einternal>
6.18384

> <r_i_glide_emodel>
-61.424

> <r_i_glide_energy>
-53.6046

> <r_i_glide_erotb>
0.534891

> <r_i_glide_esite>
-0.00883843

> <r_i_glide_evdw>
-48.3952

> <r_i_glide_gscore>
-4.57399

> <r_i_glide_hbond>
-0.32

> <r_i_glide_ligand_efficiency>
-0.142937

> <r_i_glide_ligand_efficiency_ln>
-1.02424

> <r_i_glide_ligand_efficiency_sa>
-0.453798

> <r_i_glide_lipo>
-2.12617

> <r_i_glide_metal>
0

> <r_i_glide_rewards>
0.54729

> <s_i_glide_gridfile>
wee1_glide-grid

> <s_m_Source_File>
wee1_decoys_glide_SP.sdf

> <s_m_Source_Path>
/Users/zhangxujun/Desktop

> <s_m_entry_id>
3399

> <s_m_entry_name>
wee1_decoys_glide_SP.3124

> <s_m_subgroup_title>
wee1_decoys_glide_SP

> <s_m_subgroupid>
wee1_decoys_glide_SP


$$$$
