ZINC40893801_3140
                    3D
 Schrodinger Suite 2024-2.
 64 68  0  0  1  0            999 V2000
   -0.7341   51.2959   27.3786 C   0  0  0  0  0  0
   -0.8548   50.4620   26.2722 C   0  0  0  0  0  0
   -0.1208   50.7291   25.1178 C   0  0  0  0  0  0
    0.7028   51.8516   25.0442 C   0  0  0  0  0  0
    0.8189   52.6830   26.1507 C   0  0  0  0  0  0
    0.1140   52.4010   27.3250 C   0  0  0  0  0  0
    0.2888   53.2729   28.5637 C   0  0  0  0  0  0
    1.5284   52.9083   29.4143 C   0  0  0  0  0  0
    2.7840   52.9226   28.6621 N   0  0  0  0  0  0
    3.3438   54.0280   28.1455 C   0  0  0  0  0  0
    2.8804   55.1550   28.3272 O   0  0  0  0  0  0
    4.6206   53.8318   27.3077 C   0  0  2  0  0  0
    4.6717   52.7666   27.0765 H   0  0  0  0  0  0
    5.8387   54.2418   28.1404 C   0  0  0  0  0  0
    7.0658   54.0582   27.2533 C   0  0  0  0  0  0
    6.9211   54.7429   25.8754 C   0  0  0  0  0  0
    5.7248   54.3154   25.1158 N   0  0  0  0  0  0
    4.5522   54.6166   25.9647 C   0  0  0  0  0  0
    5.6625   54.4970   23.7231 C   0  0  0  0  0  0
    6.6965   55.1646   23.0438 C   0  0  0  0  0  0
    6.6677   55.3612   21.6683 C   0  0  0  0  0  0
    5.5932   54.9033   20.9047 C   0  0  0  0  0  0
    4.5780   54.1921   21.5545 C   0  0  0  0  0  0
    4.6046   53.9878   22.9372 C   0  0  0  0  0  0
    3.5737   53.3020   23.4867 F   0  0  0  0  0  0
    5.5169   55.2331   19.4406 C   0  0  0  0  0  0
    6.2653   56.1807   18.9003 N   0  0  0  0  0  0
    5.8609   56.1899   17.6613 C   0  0  0  0  0  0
    4.8900   55.2806   17.4039 O   0  0  0  0  0  0
    4.6690   54.6420   18.6226 N   0  0  0  0  0  0
    6.3428   57.0979   16.5478 C   0  0  0  0  0  0
    6.3938   56.6040   15.1197 C   0  0  0  0  0  0
    5.3564   57.6294   15.5330 C   0  0  0  0  0  0
   -0.1960   49.5869   23.7517 S   0  0  0  0  0  0
   -1.5359   49.7068   23.1670 O   0  0  0  0  0  0
    1.0096   49.7679   22.9344 O   0  0  0  0  0  0
   -0.0964   48.0083   24.4817 N   0  0  0  0  0  0
   -1.2777   51.0527   28.2808 H   0  0  0  0  0  0
   -1.4852   49.5862   26.3413 H   0  0  0  0  0  0
    1.2721   52.0634   24.1464 H   0  0  0  0  0  0
    1.4682   53.5443   26.0989 H   0  0  0  0  0  0
    0.3377   54.3194   28.2568 H   0  0  0  0  0  0
   -0.6003   53.2130   29.1914 H   0  0  0  0  0  0
    1.5954   53.5230   30.3133 H   0  0  0  0  0  0
    1.4243   51.8704   29.7389 H   0  0  0  0  0  0
    3.2111   52.0297   28.4621 H   0  0  0  0  0  0
    5.8065   55.2965   28.4191 H   0  0  0  0  0  0
    5.9775   53.6004   29.0098 H   0  0  0  0  0  0
    7.9061   54.5004   27.7823 H   0  0  0  0  0  0
    7.3232   53.0054   27.1307 H   0  0  0  0  0  0
    6.9068   55.8279   25.9799 H   0  0  0  0  0  0
    7.8125   54.4966   25.2998 H   0  0  0  0  0  0
    3.6049   54.3954   25.4740 H   0  0  0  0  0  0
    4.5518   55.6943   26.1406 H   0  0  0  0  0  0
    7.5067   55.6187   23.5806 H   0  0  0  0  0  0
    7.4771   55.9055   21.2069 H   0  0  0  0  0  0
    3.7311   53.8213   20.9931 H   0  0  0  0  0  0
    7.1352   57.7851   16.8510 H   0  0  0  0  0  0
    7.2310   56.9163   14.4942 H   0  0  0  0  0  0
    6.0807   55.5810   14.9077 H   0  0  0  0  0  0
    4.3109   57.3295   15.6175 H   0  0  0  0  0  0
    5.4628   58.6688   15.2161 H   0  0  0  0  0  0
   -0.6281   47.3114   23.9561 H   0  0  0  0  0  0
    0.8677   47.7057   24.6531 H   0  0  0  0  0  0
  1  6  2  0  0  0
  1  2  1  0  0  0
  1 38  1  0  0  0
  2  3  2  0  0  0
  2 39  1  0  0  0
  3  4  1  0  0  0
  3 34  1  0  0  0
  4  5  2  0  0  0
  4 40  1  0  0  0
  5  6  1  0  0  0
  5 41  1  0  0  0
  6  7  1  0  0  0
  7  8  1  0  0  0
  7 42  1  0  0  0
  7 43  1  0  0  0
  8  9  1  0  0  0
  8 44  1  0  0  0
  8 45  1  0  0  0
  9 10  1  0  0  0
  9 46  1  0  0  0
 10 11  2  0  0  0
 10 12  1  0  0  0
 12 13  1  0  0  0
 12 18  1  0  0  0
 12 14  1  0  0  0
 14 15  1  0  0  0
 14 47  1  0  0  0
 14 48  1  0  0  0
 15 16  1  0  0  0
 15 49  1  0  0  0
 15 50  1  0  0  0
 16 17  1  0  0  0
 16 51  1  0  0  0
 16 52  1  0  0  0
 17 18  1  0  0  0
 17 19  1  0  0  0
 18 53  1  0  0  0
 18 54  1  0  0  0
 19 24  2  0  0  0
 19 20  1  0  0  0
 20 21  2  0  0  0
 20 55  1  0  0  0
 21 22  1  0  0  0
 21 56  1  0  0  0
 22 23  2  0  0  0
 22 26  1  0  0  0
 23 24  1  0  0  0
 23 57  1  0  0  0
 24 25  1  0  0  0
 26 30  2  0  0  0
 26 27  1  0  0  0
 27 28  2  0  0  0
 28 29  1  0  0  0
 28 31  1  0  0  0
 29 30  1  0  0  0
 31 33  1  0  0  0
 31 32  1  0  0  0
 31 58  1  0  0  0
 32 33  1  0  0  0
 32 59  1  0  0  0
 32 60  1  0  0  0
 33 61  1  0  0  0
 33 62  1  0  0  0
 34 35  2  0  0  0
 34 36  2  0  0  0
 34 37  1  0  0  0
 37 63  1  0  0  0
 37 64  1  0  0  0
M  END
> <i_i_glide_confnum>
42

> <i_i_glide_lignum>
3141

> <i_i_glide_posenum>
207

> <i_i_glide_rotatable_bonds>
9

> <i_m_Source_File_Index>
278

> <b_m_subgroup_collapsed>
0

> <r_i_docking_score>
-5.33729

> <r_i_glide_ecoul>
-2.19436

> <r_i_glide_eff_state_penalty>
0

> <r_i_glide_einternal>
4.81403

> <r_i_glide_emodel>
-61.4466

> <r_i_glide_energy>
-48.7507

> <r_i_glide_erotb>
0.621969

> <r_i_glide_esite>
-0.061661

> <r_i_glide_evdw>
-46.5563

> <r_i_glide_gscore>
-5.33729

> <r_i_glide_hbond>
-0.26642

> <r_i_glide_ligand_efficiency>
-0.148258

> <r_i_glide_ligand_efficiency_ln>
-1.16445

> <r_i_glide_ligand_efficiency_sa>
-0.489537

> <r_i_glide_lipo>
-2.65837

> <r_i_glide_metal>
0

> <r_i_glide_rewards>
-0.315833

> <s_i_glide_gridfile>
wee1_glide-grid

> <s_m_Source_File>
wee1_decoys_glide_SP.sdf

> <s_m_Source_Path>
/Users/zhangxujun/Desktop

> <s_m_entry_id>
553

> <s_m_entry_name>
wee1_decoys_glide_SP.278

> <s_m_subgroup_title>
wee1_decoys_glide_SP

> <s_m_subgroupid>
wee1_decoys_glide_SP


$$$$
