ZINC67165424_1413
                    3D
 Schrodinger Suite 2024-2.
 43 46  0  0  1  0            999 V2000
    3.0743   54.4024   23.8546 C   0  0  0  0  0  0
    4.4646   54.2746   24.4612 C   0  0  0  0  0  0
    4.8863   54.0955   25.7903 C   0  0  0  0  0  0
    6.2073   54.1487   25.8425 N   0  0  0  0  0  0
    6.6972   54.2877   24.5633 N   0  0  0  0  0  0
    5.6450   54.3326   23.7314 N   0  0  0  0  0  0
    5.8580   54.4969   22.3327 C   0  0  0  0  0  0
    6.8372   55.4107   21.9166 C   0  0  0  0  0  0
    7.0428   55.7004   20.5733 C   0  0  0  0  0  0
    6.2670   55.0933   19.5957 C   0  0  0  0  0  0
    5.2955   54.1310   19.9524 C   0  0  0  0  0  0
    5.1040   53.7886   21.3323 C   0  0  0  0  0  0
    4.2436   52.7845   21.6804 N   0  0  0  0  0  0
    3.5126   52.1718   20.7194 C   0  0  0  0  0  0
    3.5990   52.4968   19.3711 C   0  0  0  0  0  0
    4.5070   53.4745   18.9755 C   0  0  0  0  0  0
    4.0666   53.8328   26.9792 C   0  0  0  0  0  0
    4.5107   53.8809   28.1314 O   0  0  0  0  0  0
    2.7863   53.4740   26.6304 O   0  0  0  0  0  0
    1.8401   53.1021   27.5669 C   0  0  0  0  0  0
    1.0768   51.9567   27.3277 C   0  0  0  0  0  0
    0.1123   51.5398   28.2444 C   0  0  0  0  0  0
   -0.1074   52.2700   29.4117 C   0  0  0  0  0  0
    0.6218   53.4421   29.6558 C   0  0  0  0  0  0
    1.5807   53.8526   28.7192 C   0  0  0  0  0  0
    0.3964   54.2850   30.8813 C   0  0  0  0  0  0
    0.7039   55.4753   30.8820 O   0  0  0  0  0  0
   -0.0952   53.6971   31.9741 N   0  0  0  0  0  0
    2.4093   54.9946   24.4817 H   0  0  0  0  0  0
    3.0718   54.8965   22.8835 H   0  0  0  0  0  0
    2.5993   53.4303   23.7317 H   0  0  0  0  0  0
    7.4480   55.9259   22.6461 H   0  0  0  0  0  0
    7.8065   56.4076   20.2847 H   0  0  0  0  0  0
    6.4175   55.3362   18.5524 H   0  0  0  0  0  0
    2.8409   51.3934   21.0519 H   0  0  0  0  0  0
    3.0073   51.9689   18.6369 H   0  0  0  0  0  0
    4.6243   53.7184   17.9296 H   0  0  0  0  0  0
    1.2307   51.3793   26.4288 H   0  0  0  0  0  0
   -0.4642   50.6431   28.0549 H   0  0  0  0  0  0
   -0.8599   51.9184   30.1042 H   0  0  0  0  0  0
    2.1431   54.7614   28.8843 H   0  0  0  0  0  0
   -0.4421   52.7418   31.9923 H   0  0  0  0  0  0
   -0.1905   54.2487   32.8119 H   0  0  0  0  0  0
  1  2  1  0  0  0
  1 29  1  0  0  0
  1 30  1  0  0  0
  1 31  1  0  0  0
  2  6  1  0  0  0
  2  3  2  0  0  0
  3  4  1  0  0  0
  3 17  1  0  0  0
  4  5  2  0  0  0
  5  6  1  0  0  0
  6  7  1  0  0  0
  7 12  2  0  0  0
  7  8  1  0  0  0
  8  9  2  0  0  0
  8 32  1  0  0  0
  9 10  1  0  0  0
  9 33  1  0  0  0
 10 11  2  0  0  0
 10 34  1  0  0  0
 11 16  1  0  0  0
 11 12  1  0  0  0
 12 13  1  0  0  0
 13 14  2  0  0  0
 14 15  1  0  0  0
 14 35  1  0  0  0
 15 16  2  0  0  0
 15 36  1  0  0  0
 16 37  1  0  0  0
 17 18  2  0  0  0
 17 19  1  0  0  0
 19 20  1  0  0  0
 20 25  2  0  0  0
 20 21  1  0  0  0
 21 22  2  0  0  0
 21 38  1  0  0  0
 22 23  1  0  0  0
 22 39  1  0  0  0
 23 24  2  0  0  0
 23 40  1  0  0  0
 24 25  1  0  0  0
 24 26  1  0  0  0
 25 41  1  0  0  0
 26 27  2  0  0  0
 26 28  1  0  0  0
 28 42  1  0  0  0
 28 43  1  0  0  0
M  END
> <i_i_glide_confnum>
15

> <i_i_glide_lignum>
1414

> <i_i_glide_posenum>
125

> <i_i_glide_rotatable_bonds>
5

> <i_m_Source_File_Index>
5313

> <b_m_subgroup_collapsed>
0

> <r_i_docking_score>
-5.96093

> <r_i_glide_ecoul>
-4.41979

> <r_i_glide_eff_state_penalty>
0

> <r_i_glide_einternal>
2.987

> <r_i_glide_emodel>
-67.5067

> <r_i_glide_energy>
-51.477

> <r_i_glide_erotb>
0.554494

> <r_i_glide_esite>
-0.0889633

> <r_i_glide_evdw>
-47.0572

> <r_i_glide_gscore>
-5.96093

> <r_i_glide_hbond>
-0.113374

> <r_i_glide_ligand_efficiency>
-0.21289

> <r_i_glide_ligand_efficiency_ln>
-1.37596

> <r_i_glide_ligand_efficiency_sa>
-0.646461

> <r_i_glide_lipo>
-2.06126

> <r_i_glide_metal>
0

> <r_i_glide_rewards>
-1.236

> <s_i_glide_gridfile>
wee1_glide-grid

> <s_m_Source_File>
wee1_decoys_glide_SP.sdf

> <s_m_Source_Path>
/Users/zhangxujun/Desktop

> <s_m_entry_id>
5588

> <s_m_entry_name>
wee1_decoys_glide_SP.5313

> <s_m_subgroup_title>
wee1_decoys_glide_SP

> <s_m_subgroupid>
wee1_decoys_glide_SP


$$$$
