ZINC20528648_5588
                    3D
 Schrodinger Suite 2024-2.
 62 65  0  0  1  0            999 V2000
   -1.4351   51.2975   28.6019 C   0  0  0  0  0  0
   -0.7123   51.8014   29.6808 C   0  0  0  0  0  0
    0.5498   52.3502   29.4731 C   0  0  0  0  0  0
    1.1033   52.3645   28.1866 C   0  0  0  0  0  0
    0.3696   51.8540   27.1108 C   0  0  0  0  0  0
   -0.8996   51.3226   27.3176 C   0  0  0  0  0  0
    2.4455   52.9077   27.9280 C   0  0  0  0  0  0
    3.0597   53.8852   28.6287 C   0  0  0  0  0  0
    4.3969   54.3444   28.3288 C   0  0  0  0  0  0
    5.1737   54.4990   29.2659 O   0  0  0  0  0  0
    4.7465   54.5997   27.0345 N   0  0  0  0  0  0
    6.1491   54.8464   26.6615 C   0  0  0  0  0  0
    6.4592   54.0971   25.3420 C   0  0  0  0  0  0
    5.4604   54.2254   24.2627 N   0  0  0  0  0  0
    4.0775   54.0756   24.7350 C   0  0  0  0  0  0
    3.7613   54.8961   25.9836 C   0  0  0  0  0  0
    5.7518   54.4967   22.9284 C   0  0  0  0  0  0
    6.8472   55.2963   22.5921 C   0  0  0  0  0  0
    7.0671   55.7003   21.2812 C   0  0  0  0  0  0
    6.1626   55.3330   20.2768 C   0  0  0  0  0  0
    5.1062   54.4754   20.5857 C   0  0  0  0  0  0
    4.9111   54.0538   21.8975 C   0  0  0  0  0  0
    6.1903   55.8315   18.9626 N   0  0  0  0  0  0
    7.1076   56.6212   18.3587 C   0  0  0  0  0  0
    8.1784   56.9705   18.8473 O   0  0  0  0  0  0
    6.7387   57.0406   17.0302 C   0  0  0  0  0  0
    5.5272   57.5602   16.7254 C   0  0  0  0  0  0
    5.0826   57.9918   15.3869 C   0  0  0  0  0  0
    5.7040   57.5397   14.2164 C   0  0  0  0  0  0
    5.2701   57.9811   12.9681 C   0  0  0  0  0  0
    4.2095   58.8797   12.8751 C   0  0  0  0  0  0
    3.5651   59.3486   14.0296 C   0  0  0  0  0  0
    4.0180   58.8963   15.2803 C   0  0  0  0  0  0
    2.4393   60.3073   13.9307 N   0  3  0  0  0  0
    1.7461   60.5109   14.9248 O   0  0  0  0  0  0
    2.2212   60.8393   12.8452 O   0  5  0  0  0  0
   -2.3991   50.8422   28.7719 H   0  0  0  0  0  0
   -1.1232   51.7439   30.6803 H   0  0  0  0  0  0
    1.1029   52.7280   30.3222 H   0  0  0  0  0  0
    0.7794   51.8604   26.1102 H   0  0  0  0  0  0
   -1.4599   50.9111   26.4913 H   0  0  0  0  0  0
    2.9735   52.4558   27.0993 H   0  0  0  0  0  0
    2.5862   54.3658   29.4708 H   0  0  0  0  0  0
    6.8546   54.5360   27.4363 H   0  0  0  0  0  0
    6.2968   55.9118   26.4811 H   0  0  0  0  0  0
    6.4875   53.0385   25.5816 H   0  0  0  0  0  0
    7.4610   54.3494   24.9981 H   0  0  0  0  0  0
    3.3692   54.3654   23.9623 H   0  0  0  0  0  0
    3.9070   53.0189   24.9327 H   0  0  0  0  0  0
    3.8511   55.9442   25.7075 H   0  0  0  0  0  0
    2.7237   54.7631   26.2825 H   0  0  0  0  0  0
    7.5045   55.6762   23.3554 H   0  0  0  0  0  0
    7.9124   56.3427   21.0974 H   0  0  0  0  0  0
    4.4020   54.1688   19.8258 H   0  0  0  0  0  0
    4.0668   53.4152   22.1088 H   0  0  0  0  0  0
    5.4117   55.5508   18.3881 H   0  0  0  0  0  0
    7.5172   56.9253   16.2916 H   0  0  0  0  0  0
    4.7904   57.6744   17.5107 H   0  0  0  0  0  0
    6.5252   56.8396   14.2642 H   0  0  0  0  0  0
    5.7588   57.6261   12.0719 H   0  0  0  0  0  0
    3.8896   59.2094   11.8970 H   0  0  0  0  0  0
    3.5501   59.2774   16.1785 H   0  0  0  0  0  0
  1  6  2  0  0  0
  1  2  1  0  0  0
  1 37  1  0  0  0
  2  3  2  0  0  0
  2 38  1  0  0  0
  3  4  1  0  0  0
  3 39  1  0  0  0
  4  5  2  0  0  0
  4  7  1  0  0  0
  5  6  1  0  0  0
  5 40  1  0  0  0
  6 41  1  0  0  0
  7  8  2  0  0  0
  7 42  1  0  0  0
  8  9  1  0  0  0
  8 43  1  0  0  0
  9 10  2  0  0  0
  9 11  1  0  0  0
 11 16  1  0  0  0
 11 12  1  0  0  0
 12 13  1  0  0  0
 12 44  1  0  0  0
 12 45  1  0  0  0
 13 14  1  0  0  0
 13 46  1  0  0  0
 13 47  1  0  0  0
 14 15  1  0  0  0
 14 17  1  0  0  0
 15 16  1  0  0  0
 15 48  1  0  0  0
 15 49  1  0  0  0
 16 50  1  0  0  0
 16 51  1  0  0  0
 17 22  2  0  0  0
 17 18  1  0  0  0
 18 19  2  0  0  0
 18 52  1  0  0  0
 19 20  1  0  0  0
 19 53  1  0  0  0
 20 21  2  0  0  0
 20 23  1  0  0  0
 21 22  1  0  0  0
 21 54  1  0  0  0
 22 55  1  0  0  0
 23 24  1  0  0  0
 23 56  1  0  0  0
 24 25  2  0  0  0
 24 26  1  0  0  0
 26 27  2  0  0  0
 26 57  1  0  0  0
 27 28  1  0  0  0
 27 58  1  0  0  0
 28 33  2  0  0  0
 28 29  1  0  0  0
 29 30  2  0  0  0
 29 59  1  0  0  0
 30 31  1  0  0  0
 30 60  1  0  0  0
 31 32  2  0  0  0
 31 61  1  0  0  0
 32 33  1  0  0  0
 32 34  1  0  0  0
 33 62  1  0  0  0
 34 35  2  0  0  0
 34 36  1  0  0  0
M  CHG  2  34   1  36  -1
M  END
> <i_i_glide_confnum>
88

> <i_i_glide_lignum>
5589

> <i_i_glide_posenum>
389

> <i_i_glide_rotatable_bonds>
9

> <i_m_Source_File_Index>
595

> <b_m_subgroup_collapsed>
0

> <r_i_docking_score>
-5.54856

> <r_i_glide_ecoul>
-1.15253

> <r_i_glide_eff_state_penalty>
0

> <r_i_glide_einternal>
5.93488

> <r_i_glide_emodel>
-54.0829

> <r_i_glide_energy>
-41.6531

> <r_i_glide_erotb>
0.610128

> <r_i_glide_esite>
-0.116553

> <r_i_glide_evdw>
-40.5005

> <r_i_glide_gscore>
-5.54856

> <r_i_glide_hbond>
0

> <r_i_glide_ligand_efficiency>
-0.154127

> <r_i_glide_ligand_efficiency_ln>
-1.21055

> <r_i_glide_ligand_efficiency_sa>
-0.508915

> <r_i_glide_lipo>
-2.62853

> <r_i_glide_metal>
0

> <r_i_glide_rewards>
-1.2157

> <s_i_glide_gridfile>
wee1_glide-grid

> <s_m_Source_File>
wee1_decoys_glide_SP.sdf

> <s_m_Source_Path>
/Users/zhangxujun/Desktop

> <s_m_entry_id>
870

> <s_m_entry_name>
wee1_decoys_glide_SP.595

> <s_m_subgroup_title>
wee1_decoys_glide_SP

> <s_m_subgroupid>
wee1_decoys_glide_SP


$$$$
