ZINC39665829_338
                    3D
 Schrodinger Suite 2024-2.
 80 83  0  0  1  0            999 V2000
    9.0315   53.9277   17.3793 C   0  0  0  0  0  0
    8.1213   55.1496   17.5854 C   0  0  2  0  0  0
    8.3882   55.8643   16.8023 H   0  0  0  0  0  0
    8.3243   55.8218   18.9677 C   0  0  0  0  0  0
    7.8336   55.0260   20.1035 N   0  0  0  0  0  0
    7.0628   55.5104   21.1032 C   0  0  0  0  0  0
    6.7031   56.6891   21.0924 O   0  0  0  0  0  0
    6.6788   54.5748   22.2994 C   0  0  1  0  0  0
    7.4669   53.8448   22.4820 H   0  0  0  0  0  0
    6.6943   55.4542   23.5731 C   0  0  0  0  0  0
    5.7547   54.7940   24.4769 N   0  0  0  0  0  0
    4.9244   53.8187   23.7992 C   0  0  0  0  0  0
    5.2571   53.8809   22.2914 C   0  0  0  0  0  0
    4.0732   54.6377   21.6255 C   0  0  0  0  0  0
    4.2001   54.6633   20.0781 C   0  0  0  0  0  0
    4.0038   53.2237   19.5974 N   0  3  0  0  0  0
    5.0716   52.2915   20.1962 C   0  0  0  0  0  0
    5.1404   52.4331   21.7306 C   0  0  0  0  0  0
    5.8735   54.9126   25.8200 C   0  0  0  0  0  0
    6.7039   55.6966   26.2855 O   0  0  0  0  0  0
    4.9917   54.0513   26.7826 C   0  0  1  0  0  0
    4.8766   53.0713   26.3221 H   0  0  0  0  0  0
    5.6190   53.7820   28.2067 C   0  0  0  0  0  0
    7.1036   53.3688   28.1837 C   0  0  0  0  0  0
    5.4663   54.9814   29.1489 C   0  0  0  0  0  0
    3.6798   54.6577   26.8249 O   0  0  0  0  0  0
    2.7321   54.1790   27.7102 C   0  0  0  0  0  0
    2.4813   52.8136   27.8692 C   0  0  0  0  0  0
    1.5415   52.3711   28.7961 C   0  0  0  0  0  0
    0.8596   53.2975   29.5801 C   0  0  0  0  0  0
    1.1029   54.6614   29.4327 C   0  0  0  0  0  0
    2.0178   55.1025   28.4799 C   0  0  0  0  0  0
    6.7790   54.6985   17.3813 O   0  0  0  0  0  0
    5.7722   55.5700   17.0058 C   0  0  0  0  0  0
    4.5506   54.9780   16.6861 C   0  0  0  0  0  0
    3.4605   55.7559   16.3125 C   0  0  0  0  0  0
    3.5744   57.1424   16.2314 C   0  0  0  0  0  0
    4.8028   57.7482   16.5416 C   0  0  0  0  0  0
    5.8928   56.9669   16.9226 C   0  0  0  0  0  0
    2.4445   57.8205   15.8216 O   0  0  0  0  0  0
    2.5132   59.2253   15.6030 C   0  0  0  0  0  0
   10.0828   54.1919   17.5090 H   0  0  0  0  0  0
    8.7989   53.1296   18.0813 H   0  0  0  0  0  0
    8.9144   53.5192   16.3760 H   0  0  0  0  0  0
    7.8636   56.8099   18.9528 H   0  0  0  0  0  0
    9.3889   56.0086   19.1278 H   0  0  0  0  0  0
    8.1127   54.0608   20.0817 H   0  0  0  0  0  0
    6.3046   56.4451   23.3910 H   0  0  0  0  0  0
    7.6928   55.5118   23.9926 H   0  0  0  0  0  0
    5.3602   52.8966   24.1517 H   0  0  0  0  0  0
    3.8682   53.7709   24.0687 H   0  0  0  0  0  0
    3.1300   54.1385   21.8686 H   0  0  0  0  0  0
    3.9046   55.6062   22.0807 H   0  0  0  0  0  0
    3.5043   55.2951   19.5507 H   0  0  0  0  0  0
    5.1574   54.9449   19.6626 H   0  0  0  0  0  0
    3.0807   52.9124   19.8603 H   0  0  0  0  0  0
    4.7182   51.2968   19.9354 H   0  0  0  0  0  0
    5.9997   52.5282   19.6734 H   0  0  0  0  0  0
    5.9043   51.7878   22.1584 H   0  0  0  0  0  0
    4.2059   51.9945   22.0824 H   0  0  0  0  0  0
    5.0861   52.9474   28.6627 H   0  0  0  0  0  0
    7.7534   54.0923   27.7058 H   0  0  0  0  0  0
    7.4926   53.2978   29.1954 H   0  0  0  0  0  0
    7.2476   52.4187   27.6816 H   0  0  0  0  0  0
    5.9044   55.8253   28.6514 H   0  0  0  0  0  0
    4.4390   55.2236   29.4056 H   0  0  0  0  0  0
    6.0059   54.8966   30.0818 H   0  0  0  0  0  0
    3.0206   52.0967   27.2782 H   0  0  0  0  0  0
    1.3500   51.3121   28.9106 H   0  0  0  0  0  0
    0.1373   52.9525   30.3098 H   0  0  0  0  0  0
    0.5751   55.3708   30.0491 H   0  0  0  0  0  0
    2.2000   56.1614   28.3624 H   0  0  0  0  0  0
    4.4601   53.9017   16.7095 H   0  0  0  0  0  0
    2.5250   55.2834   16.0526 H   0  0  0  0  0  0
    4.9274   58.8202   16.4822 H   0  0  0  0  0  0
    6.8220   57.4643   17.1431 H   0  0  0  0  0  0
    1.5588   59.5772   15.2120 H   0  0  0  0  0  0
    2.7036   59.7615   16.5278 H   0  0  0  0  0  0
    3.2839   59.4872   14.8768 H   0  0  0  0  0  0
    4.0523   53.1754   18.5873 H   0  0  0  0  0  0
  1  2  1  0  0  0
  1 42  1  0  0  0
  1 43  1  0  0  0
  1 44  1  0  0  0
  2  3  1  0  0  0
  2  4  1  0  0  0
  2 33  1  0  0  0
  4  5  1  0  0  0
  4 45  1  0  0  0
  4 46  1  0  0  0
  5  6  1  0  0  0
  5 47  1  0  0  0
  6  7  2  0  0  0
  6  8  1  0  0  0
  8  9  1  0  0  0
  8 13  1  0  0  0
  8 10  1  0  0  0
 10 11  1  0  0  0
 10 48  1  0  0  0
 10 49  1  0  0  0
 11 12  1  0  0  0
 11 19  1  0  0  0
 12 13  1  0  0  0
 12 50  1  0  0  0
 12 51  1  0  0  0
 13 18  1  0  0  0
 13 14  1  0  0  0
 14 15  1  0  0  0
 14 52  1  0  0  0
 14 53  1  0  0  0
 15 16  1  0  0  0
 15 54  1  0  0  0
 15 55  1  0  0  0
 16 17  1  0  0  0
 16 56  1  0  0  0
 16 80  1  0  0  0
 17 18  1  0  0  0
 17 57  1  0  0  0
 17 58  1  0  0  0
 18 59  1  0  0  0
 18 60  1  0  0  0
 19 20  2  0  0  0
 19 21  1  0  0  0
 21 22  1  0  0  0
 21 23  1  0  0  0
 21 26  1  0  0  0
 23 24  1  0  0  0
 23 25  1  0  0  0
 23 61  1  0  0  0
 24 62  1  0  0  0
 24 63  1  0  0  0
 24 64  1  0  0  0
 25 65  1  0  0  0
 25 66  1  0  0  0
 25 67  1  0  0  0
 26 27  1  0  0  0
 27 32  2  0  0  0
 27 28  1  0  0  0
 28 29  2  0  0  0
 28 68  1  0  0  0
 29 30  1  0  0  0
 29 69  1  0  0  0
 30 31  2  0  0  0
 30 70  1  0  0  0
 31 32  1  0  0  0
 31 71  1  0  0  0
 32 72  1  0  0  0
 33 34  1  0  0  0
 34 39  2  0  0  0
 34 35  1  0  0  0
 35 36  2  0  0  0
 35 73  1  0  0  0
 36 37  1  0  0  0
 36 74  1  0  0  0
 37 38  2  0  0  0
 37 40  1  0  0  0
 38 39  1  0  0  0
 38 75  1  0  0  0
 39 76  1  0  0  0
 40 41  1  0  0  0
 41 77  1  0  0  0
 41 78  1  0  0  0
 41 79  1  0  0  0
M  CHG  1  16   1
M  END
> <i_i_glide_confnum>
246

> <i_i_glide_lignum>
339

> <i_i_glide_posenum>
40

> <i_i_glide_rotatable_bonds>
12

> <i_m_Source_File_Index>
2475

> <b_m_subgroup_collapsed>
0

> <r_i_docking_score>
-6.97985

> <r_i_glide_ecoul>
-10.015

> <r_i_glide_eff_state_penalty>
0

> <r_i_glide_einternal>
17.8611

> <r_i_glide_emodel>
-46.2969

> <r_i_glide_energy>
-43.1324

> <r_i_glide_erotb>
0.672774

> <r_i_glide_esite>
-0.0259934

> <r_i_glide_evdw>
-33.1175

> <r_i_glide_gscore>
-6.97985

> <r_i_glide_hbond>
-0.608

> <r_i_glide_ligand_efficiency>
-0.18368

> <r_i_glide_ligand_efficiency_ln>
-1.50506

> <r_i_glide_ligand_efficiency_sa>
-0.617529

> <r_i_glide_lipo>
-3.23767

> <r_i_glide_metal>
0

> <r_i_glide_rewards>
-0.62285

> <s_i_glide_gridfile>
wee1_glide-grid

> <s_m_Source_File>
wee1_decoys_glide_SP.sdf

> <s_m_Source_Path>
/Users/zhangxujun/Desktop

> <s_m_entry_id>
2750

> <s_m_entry_name>
wee1_decoys_glide_SP.2475

> <s_m_subgroup_title>
wee1_decoys_glide_SP

> <s_m_subgroupid>
wee1_decoys_glide_SP


$$$$
