ZINC30979475_1184
                    3D
 Schrodinger Suite 2024-2.
 62 65  0  0  1  0            999 V2000
   -6.1200   52.3510   26.7187 C   0  0  0  0  0  0
   -4.7388   52.3979   26.0949 C   0  0  0  0  0  0
   -4.5178   53.1255   24.9258 C   0  0  0  0  0  0
   -3.2460   53.1707   24.3658 C   0  0  0  0  0  0
   -2.1726   52.4967   24.9621 C   0  0  0  0  0  0
   -2.3863   51.7536   26.1471 C   0  0  0  0  0  0
   -3.6780   51.7201   26.6935 C   0  0  0  0  0  0
   -1.2970   50.9297   26.8609 C   0  0  1  0  0  0
   -1.7610   50.4966   27.7486 H   0  0  0  0  0  0
   -0.8232   49.7260   26.0231 C   0  0  0  0  0  0
   -0.1496   51.6989   27.3370 N   0  0  0  0  0  0
   -0.0217   52.2725   28.5484 C   0  0  0  0  0  0
   -0.8937   52.2219   29.4128 O   0  0  0  0  0  0
    1.3159   52.9845   28.8472 C   0  0  2  0  0  0
    1.6415   54.0381   27.7552 C   0  0  0  0  0  0
    3.0374   54.6449   27.9773 C   0  0  0  0  0  0
    4.0586   53.4813   28.0217 N   0  3  2  0  0  0
    3.8060   52.5719   29.2426 C   0  0  0  0  0  0
    2.4251   51.9148   29.0350 C   0  0  0  0  0  0
    5.5131   54.0215   27.9776 C   0  0  0  0  0  0
    5.8708   54.3561   26.5371 C   0  0  0  0  0  0
    5.1965   54.0975   25.4466 N   0  0  0  0  0  0
    5.9834   54.5658   24.5016 C   0  0  0  0  0  0
    7.0990   55.1275   24.9214 N   0  0  0  0  0  0
    7.0492   54.9781   26.3040 O   0  0  0  0  0  0
    5.6348   54.4679   23.0411 C   0  0  0  0  0  0
    4.4149   53.9041   22.6365 C   0  0  0  0  0  0
    4.0805   53.8361   21.2861 C   0  0  0  0  0  0
    4.9638   54.3346   20.3325 C   0  0  0  0  0  0
    6.1759   54.8972   20.7173 C   0  0  0  0  0  0
    6.5134   54.9559   22.0672 C   0  0  0  0  0  0
    4.4999   54.2576   18.4878 Br  0  0  0  0  0  0
   -0.8090   52.6245   24.2902 C   0  0  0  0  0  0
   -6.6794   53.2634   26.5125 H   0  0  0  0  0  0
   -6.0563   52.2604   27.8049 H   0  0  0  0  0  0
   -6.6826   51.5006   26.3324 H   0  0  0  0  0  0
   -5.3332   53.6483   24.4499 H   0  0  0  0  0  0
   -3.0952   53.7390   23.4605 H   0  0  0  0  0  0
   -3.8667   51.1543   27.5965 H   0  0  0  0  0  0
   -1.6575   49.0663   25.7808 H   0  0  0  0  0  0
   -0.3468   50.0198   25.0877 H   0  0  0  0  0  0
   -0.0952   49.1256   26.5716 H   0  0  0  0  0  0
    0.6079   51.7962   26.6818 H   0  0  0  0  0  0
    1.1582   53.5001   29.7962 H   0  0  0  0  0  0
    1.6893   53.5931   26.7575 H   0  0  0  0  0  0
    0.9270   54.8622   27.7825 H   0  0  0  0  0  0
    3.1165   55.2100   28.9091 H   0  0  0  0  0  0
    3.2935   55.2894   27.1325 H   0  0  0  0  0  0
    3.8775   53.1848   30.1441 H   0  0  0  0  0  0
    4.5846   51.8074   29.2501 H   0  0  0  0  0  0
    2.2220   51.2972   29.9087 H   0  0  0  0  0  0
    2.5280   51.2968   28.1395 H   0  0  0  0  0  0
    5.5703   54.8711   28.6650 H   0  0  0  0  0  0
    6.1565   53.2223   28.3531 H   0  0  0  0  0  0
    3.7133   53.5216   23.3624 H   0  0  0  0  0  0
    3.1363   53.4108   20.9762 H   0  0  0  0  0  0
    6.8569   55.2769   19.9702 H   0  0  0  0  0  0
    7.4647   55.3907   22.3462 H   0  0  0  0  0  0
    0.0018   52.7156   25.0085 H   0  0  0  0  0  0
   -0.6124   51.7720   23.6444 H   0  0  0  0  0  0
   -0.7568   53.5276   23.6842 H   0  0  0  0  0  0
    3.9621   52.9209   27.1827 H   0  0  0  0  0  0
  1  2  1  0  0  0
  1 34  1  0  0  0
  1 35  1  0  0  0
  1 36  1  0  0  0
  2  7  2  0  0  0
  2  3  1  0  0  0
  3  4  2  0  0  0
  3 37  1  0  0  0
  4  5  1  0  0  0
  4 38  1  0  0  0
  5  6  2  0  0  0
  5 33  1  0  0  0
  6  7  1  0  0  0
  6  8  1  0  0  0
  7 39  1  0  0  0
  8  9  1  0  0  0
  8 10  1  0  0  0
  8 11  1  0  0  0
 10 40  1  0  0  0
 10 41  1  0  0  0
 10 42  1  0  0  0
 11 12  1  0  0  0
 11 43  1  0  0  0
 12 13  2  0  0  0
 12 14  1  0  0  0
 14 19  1  0  0  0
 14 15  1  0  0  0
 14 44  1  0  0  0
 15 16  1  0  0  0
 15 45  1  0  0  0
 15 46  1  0  0  0
 16 17  1  0  0  0
 16 47  1  0  0  0
 16 48  1  0  0  0
 17 18  1  0  0  0
 17 20  1  0  0  0
 17 62  1  0  0  0
 18 19  1  0  0  0
 18 49  1  0  0  0
 18 50  1  0  0  0
 19 51  1  0  0  0
 19 52  1  0  0  0
 20 21  1  0  0  0
 20 53  1  0  0  0
 20 54  1  0  0  0
 21 25  1  0  0  0
 21 22  2  0  0  0
 22 23  1  0  0  0
 23 24  2  0  0  0
 23 26  1  0  0  0
 24 25  1  0  0  0
 26 31  2  0  0  0
 26 27  1  0  0  0
 27 28  2  0  0  0
 27 55  1  0  0  0
 28 29  1  0  0  0
 28 56  1  0  0  0
 29 30  2  0  0  0
 29 32  1  0  0  0
 30 31  1  0  0  0
 30 57  1  0  0  0
 31 58  1  0  0  0
 33 59  1  0  0  0
 33 60  1  0  0  0
 33 61  1  0  0  0
M  CHG  1  17   1
M  END
> <i_i_glide_confnum>
171

> <i_i_glide_lignum>
1185

> <i_i_glide_posenum>
191

> <i_i_glide_rotatable_bonds>
7

> <i_m_Source_File_Index>
3292

> <b_m_subgroup_collapsed>
0

> <r_i_docking_score>
-5.51709

> <r_i_glide_ecoul>
-0.952044

> <r_i_glide_eff_state_penalty>
0

> <r_i_glide_einternal>
9.52202

> <r_i_glide_emodel>
-56.0865

> <r_i_glide_energy>
-45.6092

> <r_i_glide_erotb>
0.574961

> <r_i_glide_esite>
-0.0318528

> <r_i_glide_evdw>
-44.6572

> <r_i_glide_gscore>
-5.51709

> <r_i_glide_hbond>
0

> <r_i_glide_ligand_efficiency>
-0.172409

> <r_i_glide_ligand_efficiency_ln>
-1.23543

> <r_i_glide_ligand_efficiency_sa>
-0.547365

> <r_i_glide_lipo>
-3.0831

> <r_i_glide_metal>
0

> <r_i_glide_rewards>
-0.601437

> <s_i_glide_gridfile>
wee1_glide-grid

> <s_m_Source_File>
wee1_decoys_glide_SP.sdf

> <s_m_Source_Path>
/Users/zhangxujun/Desktop

> <s_m_entry_id>
3567

> <s_m_entry_name>
wee1_decoys_glide_SP.3292

> <s_m_subgroup_title>
wee1_decoys_glide_SP

> <s_m_subgroupid>
wee1_decoys_glide_SP


$$$$
