ZINC13566989_4659
                    3D
 Schrodinger Suite 2024-2.
 61 65  0  0  1  0            999 V2000
   -0.8981   48.9953   21.3589 C   0  0  0  0  0  0
   -0.5750   50.4458   21.7603 C   0  0  1  0  0  0
    0.5032   50.5482   21.8567 H   0  0  0  0  0  0
   -1.0486   51.4652   20.6936 C   0  0  0  0  0  0
   -2.0958   52.0964   20.8708 O   0  0  0  0  0  0
   -0.2093   51.6597   19.4588 C   0  0  0  0  0  0
    1.0499   51.0670   19.2854 C   0  0  0  0  0  0
    1.8067   51.3283   18.1438 C   0  0  0  0  0  0
    1.3365   52.1921   17.1409 C   0  0  0  0  0  0
    0.0675   52.7685   17.3163 C   0  0  0  0  0  0
   -0.6923   52.4967   18.4475 C   0  0  0  0  0  0
    2.1660   52.4703   16.0099 N   0  0  0  0  0  0
    3.5435   51.9650   15.8928 C   0  0  0  0  0  0
    4.1762   52.7167   14.7498 C   0  0  0  0  0  0
    2.9924   53.1034   13.9096 C   0  0  0  0  0  0
    1.7917   53.1010   14.8530 C   0  0  0  0  0  0
    0.7103   53.6016   14.5488 O   0  0  0  0  0  0
   -1.2164   50.9052   23.4183 S   0  0  0  0  0  0
    0.0258   51.8570   24.2440 C   0  0  0  0  0  0
   -0.1270   52.0565   25.5741 N   0  0  0  0  0  0
    0.8850   52.6887   26.2390 C   0  0  0  0  0  0
    2.0299   53.1168   25.5172 C   0  0  0  0  0  0
    2.0695   52.9213   24.1642 N   0  0  0  0  0  0
    1.0819   52.2904   23.5192 N   0  0  0  0  0  0
    3.3043   53.6965   26.0678 C   0  0  0  0  0  0
    3.8191   53.2967   27.3101 C   0  0  0  0  0  0
    5.0770   53.7149   27.7380 C   0  0  0  0  0  0
    5.8485   54.5188   26.9067 C   0  0  0  0  0  0
    5.3565   54.9477   25.6821 C   0  0  0  0  0  0
    4.0870   54.5544   25.2779 C   0  0  0  0  0  0
    7.1044   54.8967   27.2817 O   0  0  0  0  0  0
    0.6345   52.8575   27.7113 C   0  0  0  0  0  0
   -0.0352   51.8577   28.4378 C   0  0  0  0  0  0
   -0.3030   52.0132   29.7945 C   0  0  0  0  0  0
    0.1298   53.1543   30.4566 C   0  0  0  0  0  0
    0.7841   54.1645   29.7582 C   0  0  0  0  0  0
    1.0162   54.0240   28.3911 C   0  0  0  0  0  0
   -0.0955   53.2967   31.7986 O   0  0  0  0  0  0
   -0.4254   48.7176   20.4155 H   0  0  0  0  0  0
   -0.5410   48.2973   22.1170 H   0  0  0  0  0  0
   -1.9729   48.8403   21.2524 H   0  0  0  0  0  0
    1.4794   50.4046   20.0211 H   0  0  0  0  0  0
    2.7715   50.8467   18.0618 H   0  0  0  0  0  0
   -0.3585   53.4539   16.6038 H   0  0  0  0  0  0
   -1.6588   52.9723   18.5310 H   0  0  0  0  0  0
    4.1076   52.0975   16.8169 H   0  0  0  0  0  0
    3.5039   50.8968   15.6770 H   0  0  0  0  0  0
    4.9236   52.1251   14.2197 H   0  0  0  0  0  0
    4.6754   53.6108   15.1277 H   0  0  0  0  0  0
    2.8036   52.3580   13.1363 H   0  0  0  0  0  0
    3.1246   54.0682   13.4195 H   0  0  0  0  0  0
    3.2765   52.5994   27.9301 H   0  0  0  0  0  0
    5.4658   53.3721   28.6854 H   0  0  0  0  0  0
    5.9570   55.5785   25.0432 H   0  0  0  0  0  0
    3.7345   54.8880   24.3125 H   0  0  0  0  0  0
    7.2038   54.9947   28.2375 H   0  0  0  0  0  0
   -0.3639   50.9486   27.9517 H   0  0  0  0  0  0
   -0.8368   51.2391   30.3290 H   0  0  0  0  0  0
    1.0974   55.0612   30.2727 H   0  0  0  0  0  0
    1.5019   54.8293   27.8595 H   0  0  0  0  0  0
   -0.6585   52.6133   32.2228 H   0  0  0  0  0  0
  1  2  1  0  0  0
  1 39  1  0  0  0
  1 40  1  0  0  0
  1 41  1  0  0  0
  2  3  1  0  0  0
  2  4  1  0  0  0
  2 18  1  0  0  0
  4  5  2  0  0  0
  4  6  1  0  0  0
  6 11  2  0  0  0
  6  7  1  0  0  0
  7  8  2  0  0  0
  7 42  1  0  0  0
  8  9  1  0  0  0
  8 43  1  0  0  0
  9 10  2  0  0  0
  9 12  1  0  0  0
 10 11  1  0  0  0
 10 44  1  0  0  0
 11 45  1  0  0  0
 12 16  1  0  0  0
 12 13  1  0  0  0
 13 14  1  0  0  0
 13 46  1  0  0  0
 13 47  1  0  0  0
 14 15  1  0  0  0
 14 48  1  0  0  0
 14 49  1  0  0  0
 15 16  1  0  0  0
 15 50  1  0  0  0
 15 51  1  0  0  0
 16 17  2  0  0  0
 18 19  1  0  0  0
 19 24  2  0  0  0
 19 20  1  0  0  0
 20 21  2  0  0  0
 21 22  1  0  0  0
 21 32  1  0  0  0
 22 23  2  0  0  0
 22 25  1  0  0  0
 23 24  1  0  0  0
 25 30  2  0  0  0
 25 26  1  0  0  0
 26 27  2  0  0  0
 26 52  1  0  0  0
 27 28  1  0  0  0
 27 53  1  0  0  0
 28 29  2  0  0  0
 28 31  1  0  0  0
 29 30  1  0  0  0
 29 54  1  0  0  0
 30 55  1  0  0  0
 31 56  1  0  0  0
 32 37  2  0  0  0
 32 33  1  0  0  0
 33 34  2  0  0  0
 33 57  1  0  0  0
 34 35  1  0  0  0
 34 58  1  0  0  0
 35 36  2  0  0  0
 35 38  1  0  0  0
 36 37  1  0  0  0
 36 59  1  0  0  0
 37 60  1  0  0  0
 38 61  1  0  0  0
M  END
> <i_i_glide_confnum>
171

> <i_i_glide_lignum>
4660

> <i_i_glide_posenum>
187

> <i_i_glide_rotatable_bonds>
9

> <i_m_Source_File_Index>
2091

> <b_m_subgroup_collapsed>
0

> <r_i_docking_score>
-6.82655

> <r_i_glide_ecoul>
-14.7343

> <r_i_glide_eff_state_penalty>
0

> <r_i_glide_einternal>
5.09462

> <r_i_glide_emodel>
-74.4941

> <r_i_glide_energy>
-54.2592

> <r_i_glide_erotb>
0.546184

> <r_i_glide_esite>
-0.0391713

> <r_i_glide_evdw>
-39.525

> <r_i_glide_gscore>
-6.82655

> <r_i_glide_hbond>
-0.743757

> <r_i_glide_ligand_efficiency>
-0.184501

> <r_i_glide_ligand_efficiency_ln>
-1.48052

> <r_i_glide_ligand_efficiency_sa>
-0.614799

> <r_i_glide_lipo>
-2.25562

> <r_i_glide_metal>
0

> <r_i_glide_rewards>
-0.14779

> <s_i_glide_gridfile>
wee1_glide-grid

> <s_m_Source_File>
wee1_decoys_glide_SP.sdf

> <s_m_Source_Path>
/Users/zhangxujun/Desktop

> <s_m_entry_id>
2366

> <s_m_entry_name>
wee1_decoys_glide_SP.2091

> <s_m_subgroup_title>
wee1_decoys_glide_SP

> <s_m_subgroupid>
wee1_decoys_glide_SP


$$$$
