ZINC15016414_4876
                    3D
 Schrodinger Suite 2024-2.
 64 68  0  0  1  0            999 V2000
   -1.4234   51.6730   18.6708 C   0  0  0  0  0  0
    0.0369   51.5747   19.0685 C   0  0  0  0  0  0
    0.9686   50.9637   18.2222 C   0  0  0  0  0  0
    2.3044   50.8975   18.6192 C   0  0  0  0  0  0
    1.8202   52.0088   20.6549 C   0  0  0  0  0  0
    0.4672   52.0965   20.2942 C   0  0  0  0  0  0
    2.3476   52.4546   21.8972 N   0  0  0  0  0  0
    1.5467   52.9547   23.0288 C   0  0  2  0  0  0
    1.1002   53.8691   22.6409 H   0  0  0  0  0  0
    2.4386   53.3877   24.2083 C   0  0  0  0  0  0
    2.0742   53.0646   25.5165 C   0  0  0  0  0  0
    2.8753   53.4096   26.5850 C   0  0  0  0  0  0
    4.0555   54.1427   26.4077 C   0  0  0  0  0  0
    4.4462   54.4721   25.0983 C   0  0  0  0  0  0
    3.6316   54.0974   24.0112 C   0  0  0  0  0  0
    5.6409   55.1522   24.9436 O   0  0  0  0  0  0
    6.4007   54.9362   23.7554 C   0  0  0  0  0  0
    4.8660   54.5721   27.4522 O   0  0  0  0  0  0
    4.8089   53.9879   28.7626 C   0  0  0  0  0  0
    3.4514   54.0993   29.4579 C   0  0  0  0  0  0
    2.9080   52.9693   30.0814 C   0  0  0  0  0  0
    1.6039   53.0036   30.5731 C   0  0  0  0  0  0
    0.8653   54.1830   30.4815 C   0  0  0  0  0  0
    1.4157   55.3235   29.8974 C   0  0  0  0  0  0
    2.7042   55.2784   29.3757 C   0  0  0  0  0  0
    0.4122   51.9937   23.4546 C   0  0  0  0  0  0
   -0.8381   52.5404   23.7501 C   0  0  0  0  0  0
   -1.8773   51.7555   24.2317 C   0  0  0  0  0  0
   -1.6770   50.3781   24.4598 C   0  0  0  0  0  0
   -2.6835   49.5531   25.0204 C   0  0  0  0  0  0
   -2.4087   48.2127   25.2696 C   0  0  0  0  0  0
   -1.1569   47.7114   24.9292 C   0  0  0  0  0  0
   -0.1735   48.4620   24.3749 N   0  0  0  0  0  0
   -0.4114   49.7902   24.1527 C   0  0  0  0  0  0
    0.6331   50.6163   23.6440 C   0  0  0  0  0  0
    1.8722   50.0700   23.4017 O   0  0  0  0  0  0
   -1.5889   51.3581   17.6390 H   0  0  0  0  0  0
   -2.0365   51.0582   19.3328 H   0  0  0  0  0  0
   -1.7665   52.7039   18.7617 H   0  0  0  0  0  0
    0.6680   50.5416   17.2739 H   0  0  0  0  0  0
    3.1023   50.4391   18.0634 H   0  0  0  0  0  0
   -0.2484   52.5567   20.9549 H   0  0  0  0  0  0
    3.3274   52.3027   22.0825 H   0  0  0  0  0  0
    1.1730   52.5168   25.7449 H   0  0  0  0  0  0
    2.5180   53.0716   27.5348 H   0  0  0  0  0  0
    3.9145   54.3660   23.0041 H   0  0  0  0  0  0
    7.3456   55.4726   23.8390 H   0  0  0  0  0  0
    6.6290   53.8776   23.6226 H   0  0  0  0  0  0
    5.9050   55.2966   22.8567 H   0  0  0  0  0  0
    5.1309   52.9465   28.6959 H   0  0  0  0  0  0
    5.5488   54.4973   29.3817 H   0  0  0  0  0  0
    3.4760   52.0522   30.1437 H   0  0  0  0  0  0
    1.1671   52.1276   31.0323 H   0  0  0  0  0  0
   -0.1401   54.2130   30.8735 H   0  0  0  0  0  0
    0.8376   56.2340   29.8343 H   0  0  0  0  0  0
    3.1047   56.1513   28.8837 H   0  0  0  0  0  0
   -0.9993   53.6068   23.6760 H   0  0  0  0  0  0
   -2.8276   52.2042   24.4821 H   0  0  0  0  0  0
   -3.6411   49.9762   25.2859 H   0  0  0  0  0  0
   -3.1427   47.5798   25.7493 H   0  0  0  0  0  0
   -0.9012   46.6859   25.1504 H   0  0  0  0  0  0
    1.9348   49.1563   23.7083 H   0  0  0  0  0  0
    2.6767   51.4245   19.7972 N   0  3  0  0  0  0
    3.6530   51.3665   20.0468 H   0  0  0  0  0  0
  1  2  1  0  0  0
  1 37  1  0  0  0
  1 38  1  0  0  0
  1 39  1  0  0  0
  2  6  2  0  0  0
  2  3  1  0  0  0
  3  4  2  0  0  0
  3 40  1  0  0  0
  4 41  1  0  0  0
  4 63  1  0  0  0
  5  6  1  0  0  0
  5  7  1  0  0  0
  5 63  2  0  0  0
  6 42  1  0  0  0
  7  8  1  0  0  0
  7 43  1  0  0  0
  8  9  1  0  0  0
  8 10  1  0  0  0
  8 26  1  0  0  0
 10 15  2  0  0  0
 10 11  1  0  0  0
 11 12  2  0  0  0
 11 44  1  0  0  0
 12 13  1  0  0  0
 12 45  1  0  0  0
 13 14  2  0  0  0
 13 18  1  0  0  0
 14 15  1  0  0  0
 14 16  1  0  0  0
 15 46  1  0  0  0
 16 17  1  0  0  0
 17 47  1  0  0  0
 17 48  1  0  0  0
 17 49  1  0  0  0
 18 19  1  0  0  0
 19 20  1  0  0  0
 19 50  1  0  0  0
 19 51  1  0  0  0
 20 25  2  0  0  0
 20 21  1  0  0  0
 21 22  2  0  0  0
 21 52  1  0  0  0
 22 23  1  0  0  0
 22 53  1  0  0  0
 23 24  2  0  0  0
 23 54  1  0  0  0
 24 25  1  0  0  0
 24 55  1  0  0  0
 25 56  1  0  0  0
 26 35  2  0  0  0
 26 27  1  0  0  0
 27 28  2  0  0  0
 27 57  1  0  0  0
 28 29  1  0  0  0
 28 58  1  0  0  0
 29 34  2  0  0  0
 29 30  1  0  0  0
 30 31  2  0  0  0
 30 59  1  0  0  0
 31 32  1  0  0  0
 31 60  1  0  0  0
 32 33  2  0  0  0
 32 61  1  0  0  0
 33 34  1  0  0  0
 34 35  1  0  0  0
 35 36  1  0  0  0
 36 62  1  0  0  0
 63 64  1  0  0  0
M  CHG  1  63   1
M  END
> <i_i_glide_confnum>
166

> <i_i_glide_lignum>
4877

> <i_i_glide_posenum>
284

> <i_i_glide_rotatable_bonds>
9

> <i_m_Source_File_Index>
140

> <b_m_subgroup_collapsed>
0

> <r_i_docking_score>
-5.77014

> <r_i_glide_ecoul>
-3.08693

> <r_i_glide_eff_state_penalty>
0

> <r_i_glide_einternal>
5.13179

> <r_i_glide_emodel>
-65.1487

> <r_i_glide_energy>
-48.2765

> <r_i_glide_erotb>
0.619408

> <r_i_glide_esite>
-0.0448354

> <r_i_glide_evdw>
-45.1895

> <r_i_glide_gscore>
-5.77014

> <r_i_glide_hbond>
-0.267642

> <r_i_glide_ligand_efficiency>
-0.160282

> <r_i_glide_ligand_efficiency_ln>
-1.25889

> <r_i_glide_ligand_efficiency_sa>
-0.529239

> <r_i_glide_lipo>
-3.13068

> <r_i_glide_metal>
0

> <r_i_glide_rewards>
-0.223874

> <s_i_glide_gridfile>
wee1_glide-grid

> <s_m_Source_File>
wee1_decoys_glide_SP.sdf

> <s_m_Source_Path>
/Users/zhangxujun/Desktop

> <s_m_entry_id>
415

> <s_m_entry_name>
wee1_decoys_glide_SP.140

> <s_m_subgroup_title>
wee1_decoys_glide_SP

> <s_m_subgroupid>
wee1_decoys_glide_SP


$$$$
