ZINC00646959_1019
                    3D
 Schrodinger Suite 2024-2.
 50 54  0  0  1  0            999 V2000
   10.6336   56.8153   17.2445 C   0  0  0  0  0  0
   10.0543   55.6048   17.6302 C   0  0  0  0  0  0
    8.8273   55.9065   18.1994 C   0  0  0  0  0  0
    8.6268   57.2518   18.1536 O   0  0  0  0  0  0
    9.7248   57.8037   17.5789 C   0  0  0  0  0  0
    7.7191   55.0649   18.7934 C   0  0  2  0  0  0
    8.0877   54.0420   18.8828 H   0  0  0  0  0  0
    6.4546   55.0544   17.9108 C   0  0  0  0  0  0
    5.3519   54.1140   18.4665 C   0  0  1  0  0  0
    5.6827   53.0805   18.3407 H   0  0  0  0  0  0
    5.2693   54.3615   19.9182 N   0  0  0  0  0  0
    6.2515   54.9291   20.7050 C   0  0  0  0  0  0
    5.8151   54.8392   22.0080 C   0  0  0  0  0  0
    4.5526   54.1858   21.9356 C   0  0  0  0  0  0
    4.2910   53.8600   20.6841 N   0  0  0  0  0  0
    3.6135   53.9211   23.0138 C   0  0  0  0  0  0
    2.4561   53.5660   22.7769 O   0  0  0  0  0  0
    4.1289   54.0920   24.2511 N   0  0  0  0  0  0
    3.5470   53.8534   25.4961 C   0  0  0  0  0  0
    4.2016   53.9640   26.7291 C   0  0  0  0  0  0
    3.3755   53.6064   27.8180 C   0  0  0  0  0  0
    2.0881   53.2228   27.4104 C   0  0  0  0  0  0
    1.9038   53.2970   25.6937 S   0  0  0  0  0  0
    0.9874   52.7033   28.3286 C   0  0  0  0  0  0
    1.3739   52.9663   29.8010 C   0  0  0  0  0  0
    2.8470   52.6161   30.0774 C   0  0  0  0  0  0
    3.8100   53.5303   29.2844 C   0  0  0  0  0  0
    5.5989   54.3756   26.8671 C   0  0  0  0  0  0
    6.7023   54.7000   26.9676 N   0  0  0  0  0  0
    6.7487   55.5381   23.5184 Br  0  0  0  0  0  0
    7.3616   55.5238   20.1347 N   0  0  0  0  0  0
    4.0077   54.2510   17.7043 C   0  0  0  0  0  0
    4.1823   54.0708   16.3946 F   0  0  0  0  0  0
    3.0978   53.3612   18.1033 F   0  0  0  0  0  0
    3.4889   55.4702   17.8604 F   0  0  0  0  0  0
   11.5974   56.9470   16.7759 H   0  0  0  0  0  0
   10.4870   54.6215   17.5233 H   0  0  0  0  0  0
    9.7170   58.8792   17.4751 H   0  0  0  0  0  0
    6.7038   54.7630   16.8889 H   0  0  0  0  0  0
    6.0617   56.0690   17.8174 H   0  0  0  0  0  0
    5.0918   54.3997   24.2747 H   0  0  0  0  0  0
    0.8596   51.6289   28.1827 H   0  0  0  0  0  0
    0.0262   53.1692   28.1061 H   0  0  0  0  0  0
    0.7191   52.3927   30.4633 H   0  0  0  0  0  0
    1.1973   54.0153   30.0460 H   0  0  0  0  0  0
    3.0295   51.5757   29.7991 H   0  0  0  0  0  0
    3.0604   52.6823   31.1456 H   0  0  0  0  0  0
    3.8221   54.5334   29.7151 H   0  0  0  0  0  0
    4.8296   53.1487   29.3701 H   0  0  0  0  0  0
    8.1703   55.7203   20.7071 H   0  0  0  0  0  0
  1  5  2  0  0  0
  1  2  1  0  0  0
  1 36  1  0  0  0
  2  3  2  0  0  0
  2 37  1  0  0  0
  3  4  1  0  0  0
  3  6  1  0  0  0
  4  5  1  0  0  0
  5 38  1  0  0  0
  6  7  1  0  0  0
  6 31  1  0  0  0
  6  8  1  0  0  0
  8  9  1  0  0  0
  8 39  1  0  0  0
  8 40  1  0  0  0
  9 10  1  0  0  0
  9 11  1  0  0  0
  9 32  1  0  0  0
 11 15  1  0  0  0
 11 12  1  0  0  0
 12 13  2  0  0  0
 12 31  1  0  0  0
 13 14  1  0  0  0
 13 30  1  0  0  0
 14 15  2  0  0  0
 14 16  1  0  0  0
 16 17  2  0  0  0
 16 18  1  0  0  0
 18 19  1  0  0  0
 18 41  1  0  0  0
 19 23  1  0  0  0
 19 20  2  0  0  0
 20 21  1  0  0  0
 20 28  1  0  0  0
 21 27  1  0  0  0
 21 22  2  0  0  0
 22 23  1  0  0  0
 22 24  1  0  0  0
 24 25  1  0  0  0
 24 42  1  0  0  0
 24 43  1  0  0  0
 25 26  1  0  0  0
 25 44  1  0  0  0
 25 45  1  0  0  0
 26 27  1  0  0  0
 26 46  1  0  0  0
 26 47  1  0  0  0
 27 48  1  0  0  0
 27 49  1  0  0  0
 28 29  3  0  0  0
 31 50  1  0  0  0
 32 33  1  0  0  0
 32 34  1  0  0  0
 32 35  1  0  0  0
M  END
> <i_i_glide_confnum>
25

> <i_i_glide_lignum>
1020

> <i_i_glide_posenum>
299

> <i_i_glide_rotatable_bonds>
6

> <i_m_Source_File_Index>
1225

> <b_m_subgroup_collapsed>
0

> <r_i_docking_score>
-5.60963

> <r_i_glide_ecoul>
-0.403638

> <r_i_glide_eff_state_penalty>
0

> <r_i_glide_einternal>
4.34803

> <r_i_glide_emodel>
-64.5561

> <r_i_glide_energy>
-49.8337

> <r_i_glide_erotb>
0.283219

> <r_i_glide_esite>
-0.0299374

> <r_i_glide_evdw>
-49.43

> <r_i_glide_gscore>
-5.60963

> <r_i_glide_hbond>
-0.0672905

> <r_i_glide_ligand_efficiency>
-0.169989

> <r_i_glide_ligand_efficiency_ln>
-1.24755

> <r_i_glide_ligand_efficiency_sa>
-0.545245

> <r_i_glide_lipo>
-2.31788

> <r_i_glide_metal>
0

> <r_i_glide_rewards>
-0.945693

> <s_i_glide_gridfile>
wee1_glide-grid

> <s_m_Source_File>
wee1_decoys_glide_SP.sdf

> <s_m_Source_Path>
/Users/zhangxujun/Desktop

> <s_m_entry_id>
1500

> <s_m_entry_name>
wee1_decoys_glide_SP.1225

> <s_m_subgroup_title>
wee1_decoys_glide_SP

> <s_m_subgroupid>
wee1_decoys_glide_SP


$$$$
