ZINC13640959_3966
                    3D
 Schrodinger Suite 2024-2.
 69 73  0  0  1  0            999 V2000
    3.6824   53.1661   17.0235 C   0  0  0  0  0  0
    2.2837   52.7499   17.4369 C   0  0  0  0  0  0
    1.2092   53.6270   17.2825 C   0  0  0  0  0  0
   -0.0742   53.2439   17.6814 C   0  0  0  0  0  0
   -0.2799   51.9757   18.2321 C   0  0  0  0  0  0
    0.7883   51.0792   18.3783 C   0  0  0  0  0  0
    2.0673   51.4839   17.9852 C   0  0  0  0  0  0
    0.6566   49.7627   18.8448 N   0  0  0  0  0  0
   -0.6661   49.1017   19.8343 S   0  0  0  0  0  0
   -1.9405   49.6749   19.3860 O   0  0  0  0  0  0
   -0.4643   47.6496   19.8415 O   0  0  0  0  0  0
   -0.3662   49.6342   21.5167 C   0  0  0  0  0  0
    0.8908   49.4184   22.0833 C   0  0  0  0  0  0
    1.1018   49.6966   23.4286 C   0  0  0  0  0  0
    0.0529   50.1567   24.2238 C   0  0  0  0  0  0
   -1.2029   50.4485   23.6504 C   0  0  0  0  0  0
   -1.3988   50.1730   22.2923 C   0  0  0  0  0  0
   -2.2868   50.9790   24.5767 C   0  0  2  0  0  0
   -2.6868   50.1108   25.1038 H   0  0  0  0  0  0
   -3.4349   51.8166   24.0592 C   0  0  0  0  0  0
   -3.7695   52.7354   24.9898 C   0  0  0  0  0  0
   -2.8010   52.7007   26.1652 C   0  0  0  0  0  0
   -1.6287   51.9574   25.5410 C   0  0  1  0  0  0
   -1.0664   52.7004   24.9686 H   0  0  0  0  0  0
   -0.5920   51.2286   26.4365 C   0  0  1  0  0  0
   -1.1168   50.5264   27.0893 H   0  0  0  0  0  0
    0.3048   50.4172   25.5902 N   0  0  0  0  0  0
    0.1640   52.2014   27.3491 C   0  0  0  0  0  0
    1.2917   52.8959   26.8888 C   0  0  0  0  0  0
    1.9824   53.7976   27.7139 C   0  0  0  0  0  0
    1.5190   54.0122   29.0191 C   0  0  0  0  0  0
    0.3984   53.3141   29.4927 C   0  0  0  0  0  0
   -0.2729   52.4190   28.6576 C   0  0  0  0  0  0
   -0.0676   53.5208   30.7660 O   0  0  0  0  0  0
    0.6168   52.7682   31.7598 C   0  0  0  0  0  0
    2.1872   54.8927   29.8403 O   0  0  0  0  0  0
    1.6302   56.2012   29.8691 C   0  0  0  0  0  0
    3.1005   54.5095   27.3149 O   0  0  0  0  0  0
    3.6418   54.2978   26.0164 C   0  0  0  0  0  0
   -1.2340   54.2088   17.5198 C   0  0  0  0  0  0
    4.4288   52.7155   17.6791 H   0  0  0  0  0  0
    3.8111   54.2467   17.0947 H   0  0  0  0  0  0
    3.8895   52.8470   16.0017 H   0  0  0  0  0  0
    1.3724   54.6104   16.8606 H   0  0  0  0  0  0
   -1.2787   51.7015   18.5156 H   0  0  0  0  0  0
    2.9082   50.8085   18.0831 H   0  0  0  0  0  0
    1.4781   49.1810   18.7762 H   0  0  0  0  0  0
    1.6952   49.0068   21.4909 H   0  0  0  0  0  0
    2.0749   49.5135   23.8642 H   0  0  0  0  0  0
   -2.3694   50.3347   21.8482 H   0  0  0  0  0  0
   -3.9663   51.6026   23.1424 H   0  0  0  0  0  0
   -4.5987   53.4279   24.9419 H   0  0  0  0  0  0
   -3.2086   52.1854   27.0347 H   0  0  0  0  0  0
   -2.5002   53.6958   26.4821 H   0  0  0  0  0  0
    1.0842   49.9912   26.0706 H   0  0  0  0  0  0
    1.6194   52.7200   25.8763 H   0  0  0  0  0  0
   -1.1365   51.8896   29.0342 H   0  0  0  0  0  0
    0.3059   53.1053   32.7498 H   0  0  0  0  0  0
    0.3756   51.7055   31.6815 H   0  0  0  0  0  0
    1.6997   52.8918   31.6975 H   0  0  0  0  0  0
    2.2993   56.8785   30.4007 H   0  0  0  0  0  0
    1.4850   56.6063   28.8657 H   0  0  0  0  0  0
    0.6737   56.2075   30.3925 H   0  0  0  0  0  0
    4.4807   54.9770   25.8673 H   0  0  0  0  0  0
    4.0168   53.2802   25.9048 H   0  0  0  0  0  0
    2.9132   54.4986   25.2295 H   0  0  0  0  0  0
   -2.0841   53.9310   18.1460 H   0  0  0  0  0  0
   -0.9328   55.2161   17.8143 H   0  0  0  0  0  0
   -1.5599   54.2473   16.4775 H   0  0  0  0  0  0
  1  2  1  0  0  0
  1 41  1  0  0  0
  1 42  1  0  0  0
  1 43  1  0  0  0
  2  7  2  0  0  0
  2  3  1  0  0  0
  3  4  2  0  0  0
  3 44  1  0  0  0
  4  5  1  0  0  0
  4 40  1  0  0  0
  5  6  2  0  0  0
  5 45  1  0  0  0
  6  7  1  0  0  0
  6  8  1  0  0  0
  7 46  1  0  0  0
  8  9  1  0  0  0
  8 47  1  0  0  0
  9 10  2  0  0  0
  9 11  2  0  0  0
  9 12  1  0  0  0
 12 17  2  0  0  0
 12 13  1  0  0  0
 13 14  2  0  0  0
 13 48  1  0  0  0
 14 15  1  0  0  0
 14 49  1  0  0  0
 15 27  1  0  0  0
 15 16  2  0  0  0
 16 17  1  0  0  0
 16 18  1  0  0  0
 17 50  1  0  0  0
 18 19  1  0  0  0
 18 23  1  0  0  0
 18 20  1  0  0  0
 20 21  2  0  0  0
 20 51  1  0  0  0
 21 22  1  0  0  0
 21 52  1  0  0  0
 22 23  1  0  0  0
 22 53  1  0  0  0
 22 54  1  0  0  0
 23 24  1  0  0  0
 23 25  1  0  0  0
 25 26  1  0  0  0
 25 27  1  0  0  0
 25 28  1  0  0  0
 27 55  1  0  0  0
 28 33  2  0  0  0
 28 29  1  0  0  0
 29 30  2  0  0  0
 29 56  1  0  0  0
 30 31  1  0  0  0
 30 38  1  0  0  0
 31 32  2  0  0  0
 31 36  1  0  0  0
 32 33  1  0  0  0
 32 34  1  0  0  0
 33 57  1  0  0  0
 34 35  1  0  0  0
 35 58  1  0  0  0
 35 59  1  0  0  0
 35 60  1  0  0  0
 36 37  1  0  0  0
 37 61  1  0  0  0
 37 62  1  0  0  0
 37 63  1  0  0  0
 38 39  1  0  0  0
 39 64  1  0  0  0
 39 65  1  0  0  0
 39 66  1  0  0  0
 40 67  1  0  0  0
 40 68  1  0  0  0
 40 69  1  0  0  0
M  END
> <i_i_glide_confnum>
31

> <i_i_glide_lignum>
3967

> <i_i_glide_posenum>
67

> <i_i_glide_rotatable_bonds>
7

> <i_m_Source_File_Index>
5346

> <b_m_subgroup_collapsed>
0

> <r_i_docking_score>
-3.33871

> <r_i_glide_ecoul>
-3.44457

> <r_i_glide_eff_state_penalty>
0

> <r_i_glide_einternal>
8.69555

> <r_i_glide_emodel>
-47.8616

> <r_i_glide_energy>
-44.6009

> <r_i_glide_erotb>
0.303283

> <r_i_glide_esite>
-0.0465887

> <r_i_glide_evdw>
-41.1563

> <r_i_glide_gscore>
-3.33871

> <r_i_glide_hbond>
-0.177444

> <r_i_glide_ligand_efficiency>
-0.0902353

> <r_i_glide_ligand_efficiency_ln>
-0.724087

> <r_i_glide_ligand_efficiency_sa>
-0.300684

> <r_i_glide_lipo>
-1.56053

> <r_i_glide_metal>
0

> <r_i_glide_rewards>
0.717078

> <s_i_glide_gridfile>
wee1_glide-grid

> <s_m_Source_File>
wee1_decoys_glide_SP.sdf

> <s_m_Source_Path>
/Users/zhangxujun/Desktop

> <s_m_entry_id>
5621

> <s_m_entry_name>
wee1_decoys_glide_SP.5346

> <s_m_subgroup_title>
wee1_decoys_glide_SP

> <s_m_subgroupid>
wee1_decoys_glide_SP


$$$$
