ZINC35403689_4134
                    3D
 Schrodinger Suite 2024-2.
 65 68  0  0  1  0            999 V2000
    9.0256   50.0958   11.2266 C   0  0  0  0  0  0
    7.4947   49.8948   11.2445 C   0  0  0  0  0  0
    7.0886   48.4451   11.5613 C   0  0  0  0  0  0
    6.8022   50.8641   12.1981 C   0  0  0  0  0  0
    7.2493   50.9973   13.5138 C   0  0  0  0  0  0
    6.6178   51.8779   14.3823 C   0  0  0  0  0  0
    5.5188   52.6384   13.9482 C   0  0  0  0  0  0
    5.0757   52.4982   12.6253 C   0  0  0  0  0  0
    5.7111   51.6158   11.7583 C   0  0  0  0  0  0
    4.8301   53.6172   14.8710 C   0  0  0  0  0  0
    4.1925   54.5609   14.3990 O   0  0  0  0  0  0
    4.9471   53.3302   16.1917 N   0  0  0  0  0  0
    4.7533   54.0728   17.3250 C   0  0  0  0  0  0
    4.3045   55.6985   17.4041 S   0  0  0  0  0  0
    4.9853   53.2967   18.4237 N   0  0  0  0  0  0
    4.9369   53.6118   19.7857 C   0  0  0  0  0  0
    5.7469   54.6026   20.3488 C   0  0  0  0  0  0
    5.6945   54.8377   21.7221 C   0  0  0  0  0  0
    4.8256   54.0931   22.5368 C   0  0  0  0  0  0
    4.0290   53.1033   21.9448 C   0  0  0  0  0  0
    4.0861   52.8552   20.5811 C   0  0  0  0  0  0
    4.7624   54.2650   23.9181 N   0  0  0  0  0  0
    3.4790   54.2541   24.6355 C   0  0  0  0  0  0
    3.5178   53.6495   26.0466 C   0  0  0  0  0  0
    4.6571   54.1954   26.8094 N   0  0  0  0  0  0
    5.9730   54.2951   26.1504 C   0  0  0  0  0  0
    5.8342   54.8658   24.7224 C   0  0  0  0  0  0
    4.5693   54.4657   28.1417 C   0  0  0  0  0  0
    5.5043   54.8966   28.8134 O   0  0  0  0  0  0
    3.2758   54.1868   28.8517 C   0  0  0  0  0  0
    2.5282   55.2418   29.3870 C   0  0  0  0  0  0
    1.3532   54.9671   30.0810 C   0  0  0  0  0  0
    0.9354   53.6450   30.2284 C   0  0  0  0  0  0
    1.6684   52.5936   29.6859 C   0  0  0  0  0  0
    2.8460   52.8630   29.0015 C   0  0  0  0  0  0
   -0.4946   53.2962   31.1137 Cl  0  0  0  0  0  0
    9.2853   51.1309   10.9916 H   0  0  0  0  0  0
    9.5055   49.4680   10.4808 H   0  0  0  0  0  0
    9.4891   49.8535   12.1846 H   0  0  0  0  0  0
    7.1465   50.1184   10.2341 H   0  0  0  0  0  0
    6.0029   48.3263   11.5565 H   0  0  0  0  0  0
    7.4899   47.7453   10.8292 H   0  0  0  0  0  0
    7.4421   48.1363   12.5481 H   0  0  0  0  0  0
    8.0847   50.4152   13.8729 H   0  0  0  0  0  0
    7.0064   51.9620   15.3886 H   0  0  0  0  0  0
    4.2359   53.0736   12.2634 H   0  0  0  0  0  0
    5.3507   51.5215   10.7446 H   0  0  0  0  0  0
    5.3816   52.4358   16.3606 H   0  0  0  0  0  0
    5.1035   52.3034   18.2515 H   0  0  0  0  0  0
    6.4264   55.1723   19.7324 H   0  0  0  0  0  0
    6.3291   55.6023   22.1458 H   0  0  0  0  0  0
    3.3694   52.4933   22.5404 H   0  0  0  0  0  0
    3.4707   52.0771   20.1508 H   0  0  0  0  0  0
    3.2038   55.2994   24.7314 H   0  0  0  0  0  0
    2.6770   53.8007   24.0547 H   0  0  0  0  0  0
    2.5507   53.8745   26.4982 H   0  0  0  0  0  0
    3.6240   52.5722   25.9506 H   0  0  0  0  0  0
    6.3862   53.2916   26.0616 H   0  0  0  0  0  0
    6.6832   54.9125   26.7007 H   0  0  0  0  0  0
    6.7932   54.7980   24.2066 H   0  0  0  0  0  0
    5.5851   55.9233   24.8024 H   0  0  0  0  0  0
    2.8558   56.2683   29.2803 H   0  0  0  0  0  0
    0.7759   55.7735   30.5116 H   0  0  0  0  0  0
    1.3260   51.5761   29.7970 H   0  0  0  0  0  0
    3.4254   52.0449   28.5934 H   0  0  0  0  0  0
  1  2  1  0  0  0
  1 37  1  0  0  0
  1 38  1  0  0  0
  1 39  1  0  0  0
  2  3  1  0  0  0
  2  4  1  0  0  0
  2 40  1  0  0  0
  3 41  1  0  0  0
  3 42  1  0  0  0
  3 43  1  0  0  0
  4  9  2  0  0  0
  4  5  1  0  0  0
  5  6  2  0  0  0
  5 44  1  0  0  0
  6  7  1  0  0  0
  6 45  1  0  0  0
  7  8  2  0  0  0
  7 10  1  0  0  0
  8  9  1  0  0  0
  8 46  1  0  0  0
  9 47  1  0  0  0
 10 11  2  0  0  0
 10 12  1  0  0  0
 12 13  1  0  0  0
 12 48  1  0  0  0
 13 14  2  0  0  0
 13 15  1  0  0  0
 15 16  1  0  0  0
 15 49  1  0  0  0
 16 21  2  0  0  0
 16 17  1  0  0  0
 17 18  2  0  0  0
 17 50  1  0  0  0
 18 19  1  0  0  0
 18 51  1  0  0  0
 19 20  2  0  0  0
 19 22  1  0  0  0
 20 21  1  0  0  0
 20 52  1  0  0  0
 21 53  1  0  0  0
 22 27  1  0  0  0
 22 23  1  0  0  0
 23 24  1  0  0  0
 23 54  1  0  0  0
 23 55  1  0  0  0
 24 25  1  0  0  0
 24 56  1  0  0  0
 24 57  1  0  0  0
 25 26  1  0  0  0
 25 28  1  0  0  0
 26 27  1  0  0  0
 26 58  1  0  0  0
 26 59  1  0  0  0
 27 60  1  0  0  0
 27 61  1  0  0  0
 28 29  2  0  0  0
 28 30  1  0  0  0
 30 35  2  0  0  0
 30 31  1  0  0  0
 31 32  2  0  0  0
 31 62  1  0  0  0
 32 33  1  0  0  0
 32 63  1  0  0  0
 33 34  2  0  0  0
 33 36  1  0  0  0
 34 35  1  0  0  0
 34 64  1  0  0  0
 35 65  1  0  0  0
M  END
> <i_i_glide_confnum>
134

> <i_i_glide_lignum>
4135

> <i_i_glide_posenum>
28

> <i_i_glide_rotatable_bonds>
9

> <i_m_Source_File_Index>
3588

> <b_m_subgroup_collapsed>
0

> <r_i_docking_score>
-5.03384

> <r_i_glide_ecoul>
-0.447872

> <r_i_glide_eff_state_penalty>
0

> <r_i_glide_einternal>
6.81928

> <r_i_glide_emodel>
-50.8362

> <r_i_glide_energy>
-43.5753

> <r_i_glide_erotb>
0.605638

> <r_i_glide_esite>
-0.128664

> <r_i_glide_evdw>
-43.1274

> <r_i_glide_gscore>
-5.03384

> <r_i_glide_hbond>
-0.16

> <r_i_glide_ligand_efficiency>
-0.139829

> <r_i_glide_ligand_efficiency_ln>
-1.09825

> <r_i_glide_ligand_efficiency_sa>
-0.461705

> <r_i_glide_lipo>
-2.8755

> <r_i_glide_metal>
0

> <r_i_glide_rewards>
-0.251764

> <s_i_glide_gridfile>
wee1_glide-grid

> <s_m_Source_File>
wee1_decoys_glide_SP.sdf

> <s_m_Source_Path>
/Users/zhangxujun/Desktop

> <s_m_entry_id>
3863

> <s_m_entry_name>
wee1_decoys_glide_SP.3588

> <s_m_subgroup_title>
wee1_decoys_glide_SP

> <s_m_subgroupid>
wee1_decoys_glide_SP


$$$$
