ZINC35752367_5049
                    3D
 Schrodinger Suite 2024-2.
 64 67  0  0  1  0            999 V2000
    6.5928   54.6918   24.8036 C   0  0  0  0  0  0
    5.7444   54.4720   23.5646 C   0  0  0  0  0  0
    6.2861   54.6805   22.2941 C   0  0  0  0  0  0
    5.4890   54.4972   21.1616 C   0  0  0  0  0  0
    4.1589   54.0965   21.2929 C   0  0  0  0  0  0
    3.6031   53.8951   22.5591 C   0  0  0  0  0  0
    4.4028   54.0954   23.6909 C   0  0  0  0  0  0
    2.1221   53.5290   22.6920 C   0  0  0  0  0  0
    1.8335   52.1466   23.1053 N   0  0  0  0  0  0
    0.8044   51.7579   24.0779 C   0  0  1  0  0  0
   -0.1859   52.0910   23.7652 H   0  0  0  0  0  0
    0.9115   50.2287   24.0431 C   0  0  2  0  0  0
    1.5042   49.8628   24.8775 H   0  0  0  0  0  0
    1.6566   49.9652   22.8736 O   0  0  0  0  0  0
    2.2638   51.0451   22.3618 C   0  0  0  0  0  0
    3.0404   50.9708   21.4119 O   0  0  0  0  0  0
   -0.3838   49.4246   24.0921 C   0  0  0  0  0  0
   -1.1711   49.2647   22.9443 C   0  0  0  0  0  0
   -2.3088   48.4605   22.9817 C   0  0  0  0  0  0
   -2.6664   47.8165   24.1743 C   0  0  0  0  0  0
   -1.8907   47.9947   25.3187 C   0  0  0  0  0  0
   -0.7515   48.7907   25.2811 C   0  0  0  0  0  0
   -3.8177   47.0270   24.3103 N   0  0  0  0  0  0
   -4.3770   46.2215   23.3835 C   0  0  0  0  0  0
   -3.8965   46.0134   22.2666 O   0  0  0  0  0  0
   -5.6944   45.5310   23.7944 C   0  0  0  0  0  0
   -6.9052   46.2666   23.1851 C   0  0  0  0  0  0
   -5.7135   44.0320   23.4212 C   0  0  0  0  0  0
    1.0835   52.3176   25.5019 C   0  0  0  0  0  0
    2.1421   52.8965   25.7445 O   0  0  0  0  0  0
    0.1386   52.0998   26.4435 N   0  0  0  0  0  0
    0.1896   52.4843   27.8013 C   0  0  0  0  0  0
   -0.5187   51.7005   28.7175 C   0  0  0  0  0  0
   -0.4957   52.0099   30.0791 C   0  0  0  0  0  0
    0.2268   53.1087   30.5389 C   0  0  0  0  0  0
    0.9172   53.9116   29.6351 C   0  0  0  0  0  0
    0.8955   53.6070   28.2742 C   0  0  0  0  0  0
    1.6070   54.9867   30.0785 F   0  0  0  0  0  0
    7.4286   55.3615   24.5967 H   0  0  0  0  0  0
    6.0024   55.1586   25.5930 H   0  0  0  0  0  0
    6.9734   53.7409   25.1778 H   0  0  0  0  0  0
    7.3179   54.9828   22.1818 H   0  0  0  0  0  0
    5.9042   54.6555   20.1774 H   0  0  0  0  0  0
    3.5544   53.9568   20.4075 H   0  0  0  0  0  0
    3.9905   53.9655   24.6776 H   0  0  0  0  0  0
    1.6270   53.6963   21.7343 H   0  0  0  0  0  0
    1.6613   54.2270   23.3914 H   0  0  0  0  0  0
   -0.8909   49.7455   22.0178 H   0  0  0  0  0  0
   -2.9071   48.3502   22.0887 H   0  0  0  0  0  0
   -2.1497   47.5116   26.2524 H   0  0  0  0  0  0
   -0.1528   48.8856   26.1790 H   0  0  0  0  0  0
   -4.2271   47.0307   25.2306 H   0  0  0  0  0  0
   -5.7926   45.5916   24.8793 H   0  0  0  0  0  0
   -6.9370   47.3138   23.4885 H   0  0  0  0  0  0
   -6.8848   46.2480   22.0931 H   0  0  0  0  0  0
   -7.8446   45.8126   23.5038 H   0  0  0  0  0  0
   -4.8859   43.4906   23.8780 H   0  0  0  0  0  0
   -6.6346   43.5564   23.7609 H   0  0  0  0  0  0
   -5.6450   43.8802   22.3422 H   0  0  0  0  0  0
   -0.6338   51.5016   26.1914 H   0  0  0  0  0  0
   -1.0776   50.8353   28.3877 H   0  0  0  0  0  0
   -1.0358   51.3889   30.7824 H   0  0  0  0  0  0
    0.2402   53.3381   31.5946 H   0  0  0  0  0  0
    1.4310   54.2599   27.6027 H   0  0  0  0  0  0
  1  2  1  0  0  0
  1 39  1  0  0  0
  1 40  1  0  0  0
  1 41  1  0  0  0
  2  7  2  0  0  0
  2  3  1  0  0  0
  3  4  2  0  0  0
  3 42  1  0  0  0
  4  5  1  0  0  0
  4 43  1  0  0  0
  5  6  2  0  0  0
  5 44  1  0  0  0
  6  7  1  0  0  0
  6  8  1  0  0  0
  7 45  1  0  0  0
  8  9  1  0  0  0
  8 46  1  0  0  0
  8 47  1  0  0  0
  9 15  1  0  0  0
  9 10  1  0  0  0
 10 11  1  0  0  0
 10 12  1  0  0  0
 10 29  1  0  0  0
 12 13  1  0  0  0
 12 14  1  0  0  0
 12 17  1  0  0  0
 14 15  1  0  0  0
 15 16  2  0  0  0
 17 22  2  0  0  0
 17 18  1  0  0  0
 18 19  2  0  0  0
 18 48  1  0  0  0
 19 20  1  0  0  0
 19 49  1  0  0  0
 20 21  2  0  0  0
 20 23  1  0  0  0
 21 22  1  0  0  0
 21 50  1  0  0  0
 22 51  1  0  0  0
 23 24  1  0  0  0
 23 52  1  0  0  0
 24 25  2  0  0  0
 24 26  1  0  0  0
 26 27  1  0  0  0
 26 28  1  0  0  0
 26 53  1  0  0  0
 27 54  1  0  0  0
 27 55  1  0  0  0
 27 56  1  0  0  0
 28 57  1  0  0  0
 28 58  1  0  0  0
 28 59  1  0  0  0
 29 30  2  0  0  0
 29 31  1  0  0  0
 31 32  1  0  0  0
 31 60  1  0  0  0
 32 37  2  0  0  0
 32 33  1  0  0  0
 33 34  2  0  0  0
 33 61  1  0  0  0
 34 35  1  0  0  0
 34 62  1  0  0  0
 35 36  2  0  0  0
 35 63  1  0  0  0
 36 37  1  0  0  0
 36 38  1  0  0  0
 37 64  1  0  0  0
M  END
> <i_i_glide_confnum>
93

> <i_i_glide_lignum>
5050

> <i_i_glide_posenum>
397

> <i_i_glide_rotatable_bonds>
9

> <i_m_Source_File_Index>
3729

> <b_m_subgroup_collapsed>
0

> <r_i_docking_score>
-5.02135

> <r_i_glide_ecoul>
-4.73721

> <r_i_glide_eff_state_penalty>
0

> <r_i_glide_einternal>
6.78327

> <r_i_glide_emodel>
-59.0325

> <r_i_glide_energy>
-47.0822

> <r_i_glide_erotb>
0.679138

> <r_i_glide_esite>
-0.037917

> <r_i_glide_evdw>
-42.345

> <r_i_glide_gscore>
-5.02135

> <r_i_glide_hbond>
0

> <r_i_glide_ligand_efficiency>
-0.139482

> <r_i_glide_ligand_efficiency_ln>
-1.09552

> <r_i_glide_ligand_efficiency_sa>
-0.46056

> <r_i_glide_lipo>
-2.10381

> <r_i_glide_metal>
0

> <r_i_glide_rewards>
-0.730936

> <s_i_glide_gridfile>
wee1_glide-grid

> <s_m_Source_File>
wee1_decoys_glide_SP.sdf

> <s_m_Source_Path>
/Users/zhangxujun/Desktop

> <s_m_entry_id>
4004

> <s_m_entry_name>
wee1_decoys_glide_SP.3729

> <s_m_subgroup_title>
wee1_decoys_glide_SP

> <s_m_subgroupid>
wee1_decoys_glide_SP


$$$$
