ZINC20106871_2757
                    3D
 Schrodinger Suite 2024-2.
 64 69  0  0  1  0            999 V2000
    6.3063   54.7109   21.3606 C   0  0  0  0  0  0
    5.5323   54.4967   22.6394 C   0  0  0  0  0  0
    4.1421   54.4950   22.5758 C   0  0  0  0  0  0
    3.4050   54.3916   23.7449 C   0  0  0  0  0  0
    4.0500   54.2615   24.9764 C   0  0  0  0  0  0
    5.4492   54.2610   25.0435 C   0  0  0  0  0  0
    6.1905   54.3794   23.8675 C   0  0  0  0  0  0
    3.1921   54.1427   26.0737 N   0  0  0  0  0  0
    3.3877   53.6564   27.3099 C   0  0  0  0  0  0
    4.4819   53.3029   27.7496 O   0  0  0  0  0  0
    2.1172   53.6029   28.2062 C   0  0  2  0  0  0
    2.0560   54.6175   28.6032 H   0  0  0  0  0  0
    2.2558   52.5945   29.3882 C   0  0  1  0  0  0
    3.2611   52.3704   29.7479 H   0  0  0  0  0  0
    1.2279   52.8799   30.4749 C   0  0  0  0  0  0
    0.0452   52.4933   29.9715 C   0  0  0  0  0  0
    0.3590   52.0556   28.5507 C   0  0  2  0  0  0
    0.7306   53.1654   27.5869 C   0  0  2  0  0  0
    0.0014   53.9664   27.6819 H   0  0  0  0  0  0
    0.5934   52.4828   26.1913 C   0  0  0  0  0  0
    0.9382   52.9568   25.1127 O   0  0  0  0  0  0
   -0.0087   51.2871   26.3963 N   0  0  0  0  0  0
   -0.5301   51.1089   27.7509 C   0  0  2  0  0  0
   -0.3813   50.0968   28.0827 H   0  0  0  0  0  0
   -2.0525   51.4156   27.8329 C   0  0  0  0  0  0
   -2.6204   52.0860   26.9656 O   0  0  0  0  0  0
   -2.7028   50.8967   28.8857 N   0  0  0  0  0  0
   -4.1398   50.9007   29.1531 C   0  0  0  0  0  0
   -5.0273   50.2525   28.0582 C   0  0  0  0  0  0
   -6.5275   50.2233   28.4150 C   0  0  0  0  0  0
   -6.7867   49.6111   29.8020 C   0  0  0  0  0  0
   -5.9704   50.3263   30.8922 C   0  0  0  0  0  0
   -4.4652   50.3462   30.5633 C   0  0  0  0  0  0
    0.0197   50.1767   25.4362 C   0  0  0  0  0  0
   -1.2784   49.6443   24.8706 C   0  0  0  0  0  0
   -0.3241   50.3964   23.9754 C   0  0  0  0  0  0
    1.6389   51.4849   28.7755 O   0  0  0  0  0  0
    7.3646   54.4973   21.5014 H   0  0  0  0  0  0
    6.1946   55.7410   21.0186 H   0  0  0  0  0  0
    5.9167   54.0605   20.5750 H   0  0  0  0  0  0
    3.6308   54.6014   21.6289 H   0  0  0  0  0  0
    2.3277   54.4134   23.6725 H   0  0  0  0  0  0
    5.9666   54.1726   25.9868 H   0  0  0  0  0  0
    7.2702   54.3946   23.9138 H   0  0  0  0  0  0
    2.2201   54.2551   25.8208 H   0  0  0  0  0  0
    1.4422   53.2952   31.4471 H   0  0  0  0  0  0
   -0.9301   52.5242   30.4283 H   0  0  0  0  0  0
   -2.1898   50.2075   29.4284 H   0  0  0  0  0  0
   -4.4377   51.9484   29.1911 H   0  0  0  0  0  0
   -4.9001   50.7684   27.1064 H   0  0  0  0  0  0
   -4.6928   49.2249   27.9054 H   0  0  0  0  0  0
   -6.9239   51.2396   28.3882 H   0  0  0  0  0  0
   -7.0770   49.6649   27.6560 H   0  0  0  0  0  0
   -7.8507   49.6597   30.0381 H   0  0  0  0  0  0
   -6.5259   48.5512   29.7873 H   0  0  0  0  0  0
   -6.3322   51.3493   31.0074 H   0  0  0  0  0  0
   -6.1292   49.8378   31.8557 H   0  0  0  0  0  0
   -4.0997   49.3182   30.6214 H   0  0  0  0  0  0
   -3.9265   50.8961   31.3360 H   0  0  0  0  0  0
    0.7960   49.4451   25.6658 H   0  0  0  0  0  0
   -1.3784   48.5633   24.7688 H   0  0  0  0  0  0
   -2.2162   50.1163   25.1638 H   0  0  0  0  0  0
   -0.6000   51.3946   23.6354 H   0  0  0  0  0  0
    0.2531   49.8508   23.2290 H   0  0  0  0  0  0
  1  2  1  0  0  0
  1 38  1  0  0  0
  1 39  1  0  0  0
  1 40  1  0  0  0
  2  7  2  0  0  0
  2  3  1  0  0  0
  3  4  2  0  0  0
  3 41  1  0  0  0
  4  5  1  0  0  0
  4 42  1  0  0  0
  5  6  2  0  0  0
  5  8  1  0  0  0
  6  7  1  0  0  0
  6 43  1  0  0  0
  7 44  1  0  0  0
  8  9  1  0  0  0
  8 45  1  0  0  0
  9 10  2  0  0  0
  9 11  1  0  0  0
 11 12  1  0  0  0
 11 18  1  0  0  0
 11 13  1  0  0  0
 13 14  1  0  0  0
 13 37  1  0  0  0
 13 15  1  0  0  0
 15 16  2  0  0  0
 15 46  1  0  0  0
 16 17  1  0  0  0
 16 47  1  0  0  0
 17 23  1  0  0  0
 17 18  1  0  0  0
 17 37  1  0  0  0
 18 19  1  0  0  0
 18 20  1  0  0  0
 20 21  2  0  0  0
 20 22  1  0  0  0
 22 23  1  0  0  0
 22 34  1  0  0  0
 23 24  1  0  0  0
 23 25  1  0  0  0
 25 26  2  0  0  0
 25 27  1  0  0  0
 27 28  1  0  0  0
 27 48  1  0  0  0
 28 33  1  0  0  0
 28 29  1  0  0  0
 28 49  1  0  0  0
 29 30  1  0  0  0
 29 50  1  0  0  0
 29 51  1  0  0  0
 30 31  1  0  0  0
 30 52  1  0  0  0
 30 53  1  0  0  0
 31 32  1  0  0  0
 31 54  1  0  0  0
 31 55  1  0  0  0
 32 33  1  0  0  0
 32 56  1  0  0  0
 32 57  1  0  0  0
 33 58  1  0  0  0
 33 59  1  0  0  0
 34 36  1  0  0  0
 34 35  1  0  0  0
 34 60  1  0  0  0
 35 36  1  0  0  0
 35 61  1  0  0  0
 35 62  1  0  0  0
 36 63  1  0  0  0
 36 64  1  0  0  0
M  END
> <i_i_glide_confnum>
10

> <i_i_glide_lignum>
2758

> <i_i_glide_posenum>
328

> <i_i_glide_rotatable_bonds>
7

> <i_m_Source_File_Index>
4295

> <b_m_subgroup_collapsed>
0

> <r_i_docking_score>
-4.36521

> <r_i_glide_ecoul>
-2.30237

> <r_i_glide_eff_state_penalty>
0

> <r_i_glide_einternal>
11.1459

> <r_i_glide_emodel>
-41.3142

> <r_i_glide_energy>
-36.2877

> <r_i_glide_erotb>
0.694213

> <r_i_glide_esite>
-0.212885

> <r_i_glide_evdw>
-33.9853

> <r_i_glide_gscore>
-4.36521

> <r_i_glide_hbond>
-0.16472

> <r_i_glide_ligand_efficiency>
-0.132279

> <r_i_glide_ligand_efficiency_ln>
-0.970799

> <r_i_glide_ligand_efficiency_sa>
-0.424289

> <r_i_glide_lipo>
-1.96063

> <r_i_glide_metal>
0

> <r_i_glide_rewards>
-0.676563

> <s_i_glide_gridfile>
wee1_glide-grid

> <s_m_Source_File>
wee1_decoys_glide_SP.sdf

> <s_m_Source_Path>
/Users/zhangxujun/Desktop

> <s_m_entry_id>
4570

> <s_m_entry_name>
wee1_decoys_glide_SP.4295

> <s_m_subgroup_title>
wee1_decoys_glide_SP

> <s_m_subgroupid>
wee1_decoys_glide_SP


$$$$
