ZINC51070949_6169
                    3D
 Schrodinger Suite 2024-2.
 40 42  0  0  1  0            999 V2000
    0.2624   51.9550   28.4777 C   0  0  0  0  0  0
    1.5596   52.2407   28.0444 C   0  0  0  0  0  0
    2.4991   52.6948   28.9826 C   0  0  0  0  0  0
    2.1947   52.8029   30.3067 N   0  0  0  0  0  0
    0.9420   52.4967   30.7136 C   0  0  0  0  0  0
   -0.0589   52.0967   29.8291 C   0  0  0  0  0  0
    0.7044   52.4967   32.0817 N   0  0  0  0  0  0
    3.9257   53.0467   28.6265 C   0  0  0  0  0  0
    4.8144   52.5034   29.2817 O   0  0  0  0  0  0
    4.1934   54.0003   27.6871 N   0  0  0  0  0  0
    5.5759   54.4967   27.4926 C   0  0  0  0  0  0
    6.0496   54.0967   26.0790 C   0  0  0  0  0  0
    5.0638   54.4967   24.9542 C   0  0  1  0  0  0
    4.9997   55.5850   24.9078 H   0  0  0  0  0  0
    5.5246   53.9642   23.5691 C   0  0  0  0  0  0
    4.4819   54.1159   22.4345 C   0  0  0  0  0  0
    3.0576   53.6962   22.8564 C   0  0  0  0  0  0
    2.6490   54.3433   24.1906 C   0  0  0  0  0  0
    3.6445   53.9765   25.3085 C   0  0  2  0  0  0
    3.6808   52.8967   25.3631 H   0  0  0  0  0  0
    3.2177   54.4987   26.7015 C   0  0  0  0  0  0
   -0.4807   51.5968   27.7797 H   0  0  0  0  0  0
    1.8214   52.1049   27.0049 H   0  0  0  0  0  0
   -1.0422   51.8306   30.1898 H   0  0  0  0  0  0
   -0.2145   52.1781   32.4277 H   0  0  0  0  0  0
    1.4823   52.5523   32.7224 H   0  0  0  0  0  0
    5.5390   55.5829   27.5619 H   0  0  0  0  0  0
    6.2660   54.1762   28.2759 H   0  0  0  0  0  0
    7.0451   54.4893   25.8704 H   0  0  0  0  0  0
    6.1826   53.0157   26.0817 H   0  0  0  0  0  0
    6.4943   54.3815   23.2936 H   0  0  0  0  0  0
    5.7080   52.8967   23.6662 H   0  0  0  0  0  0
    4.7939   53.5276   21.5703 H   0  0  0  0  0  0
    4.4610   55.1466   22.0817 H   0  0  0  0  0  0
    3.0068   52.6099   22.9439 H   0  0  0  0  0  0
    2.3433   53.9713   22.0798 H   0  0  0  0  0  0
    1.6474   54.0126   24.4694 H   0  0  0  0  0  0
    2.5626   55.4216   24.0838 H   0  0  0  0  0  0
    2.1750   54.3333   26.9612 H   0  0  0  0  0  0
    3.2767   55.5850   26.7021 H   0  0  0  0  0  0
  1  6  2  0  0  0
  1  2  1  0  0  0
  1 22  1  0  0  0
  2  3  2  0  0  0
  2 23  1  0  0  0
  3  4  1  0  0  0
  3  8  1  0  0  0
  4  5  2  0  0  0
  5  6  1  0  0  0
  5  7  1  0  0  0
  6 24  1  0  0  0
  7 25  1  0  0  0
  7 26  1  0  0  0
  8  9  2  0  0  0
  8 10  1  0  0  0
 10 21  1  0  0  0
 10 11  1  0  0  0
 11 12  1  0  0  0
 11 27  1  0  0  0
 11 28  1  0  0  0
 12 13  1  0  0  0
 12 29  1  0  0  0
 12 30  1  0  0  0
 13 14  1  0  0  0
 13 19  1  0  0  0
 13 15  1  0  0  0
 15 16  1  0  0  0
 15 31  1  0  0  0
 15 32  1  0  0  0
 16 17  1  0  0  0
 16 33  1  0  0  0
 16 34  1  0  0  0
 17 18  1  0  0  0
 17 35  1  0  0  0
 17 36  1  0  0  0
 18 19  1  0  0  0
 18 37  1  0  0  0
 18 38  1  0  0  0
 19 20  1  0  0  0
 19 21  1  0  0  0
 21 39  1  0  0  0
 21 40  1  0  0  0
M  END
> <i_i_glide_confnum>
2

> <i_i_glide_lignum>
6170

> <i_i_glide_posenum>
355

> <i_i_glide_rotatable_bonds>
2

> <i_m_Source_File_Index>
918

> <b_m_subgroup_collapsed>
0

> <r_i_docking_score>
-7.67838

> <r_i_glide_ecoul>
-7.40578

> <r_i_glide_eff_state_penalty>
0

> <r_i_glide_einternal>
1.90346

> <r_i_glide_emodel>
-55.1337

> <r_i_glide_energy>
-39.5238

> <r_i_glide_erotb>
0.525777

> <r_i_glide_esite>
-0.1

> <r_i_glide_evdw>
-32.118

> <r_i_glide_gscore>
-7.67838

> <r_i_glide_hbond>
-0.362762

> <r_i_glide_ligand_efficiency>
-0.404125

> <r_i_glide_ligand_efficiency_ln>
-1.94663

> <r_i_glide_ligand_efficiency_sa>
-1.07837

> <r_i_glide_lipo>
-2.62722

> <r_i_glide_metal>
0

> <r_i_glide_rewards>
-2.39741

> <s_i_glide_gridfile>
wee1_glide-grid

> <s_m_Source_File>
wee1_decoys_glide_SP.sdf

> <s_m_Source_Path>
/Users/zhangxujun/Desktop

> <s_m_entry_id>
1193

> <s_m_entry_name>
wee1_decoys_glide_SP.918

> <s_m_subgroup_title>
wee1_decoys_glide_SP

> <s_m_subgroupid>
wee1_decoys_glide_SP


$$$$
