ZINC31589223_4886
                    3D
 Schrodinger Suite 2024-2.
 59 61  0  0  1  0            999 V2000
    0.3040   53.6814   31.7647 C   0  0  0  0  0  0
    1.2033   52.6767   31.0296 C   0  0  0  0  0  0
    0.8526   52.5265   29.5225 N   0  3  0  0  0  0
   -0.5786   51.9497   29.3385 C   0  0  0  0  0  0
   -0.7415   51.2963   27.9570 C   0  0  0  0  0  0
    1.1565   53.7926   28.6684 C   0  0  0  0  0  0
    2.6317   54.0159   28.3280 C   0  0  0  0  0  0
    3.5374   54.4309   29.3077 C   0  0  0  0  0  0
    4.8832   54.6067   29.0020 C   0  0  0  0  0  0
    5.3302   54.4715   27.6940 C   0  0  0  0  0  0
    4.4216   54.1517   26.6743 C   0  0  0  0  0  0
    3.0869   53.8850   27.0092 C   0  0  0  0  0  0
    4.7459   54.1188   25.3072 N   0  0  0  0  0  0
    5.8786   54.4969   24.6698 C   0  0  0  0  0  0
    6.9042   54.8899   25.2314 O   0  0  0  0  0  0
    5.7941   54.4886   23.1547 C   0  0  0  0  0  0
    4.7987   53.7577   22.4809 C   0  0  0  0  0  0
    4.6828   53.8196   21.0980 C   0  0  0  0  0  0
    5.5636   54.6094   20.3625 C   0  0  0  0  0  0
    6.5875   55.3024   21.0093 C   0  0  0  0  0  0
    6.7046   55.2406   22.3961 C   0  0  0  0  0  0
    5.3530   54.7381   18.5874 S   0  0  0  0  0  0
    3.9456   54.4375   18.3016 O   0  0  0  0  0  0
    5.9518   56.0009   18.1411 O   0  0  0  0  0  0
    6.2881   53.3920   17.8980 N   0  0  0  0  0  0
    7.6582   53.4105   17.5881 C   0  0  0  0  0  0
    8.1543   52.3180   16.8751 C   0  0  0  0  0  0
    9.4973   52.2623   16.5131 C   0  0  0  0  0  0
   10.3538   53.2947   16.8830 C   0  0  0  0  0  0
    9.8779   54.3804   17.6125 C   0  0  0  0  0  0
    8.5318   54.4390   17.9665 C   0  0  0  0  0  0
   11.6636   53.2356   16.5493 F   0  0  0  0  0  0
    0.5699   53.7293   32.8198 H   0  0  0  0  0  0
   -0.7328   53.3499   31.7361 H   0  0  0  0  0  0
    0.3644   54.6938   31.3662 H   0  0  0  0  0  0
    2.2651   52.8961   31.0959 H   0  0  0  0  0  0
    1.0682   51.6967   31.4725 H   0  0  0  0  0  0
   -0.7145   51.1953   30.1155 H   0  0  0  0  0  0
   -1.2915   52.7534   29.5248 H   0  0  0  0  0  0
   -1.7232   50.8279   27.8850 H   0  0  0  0  0  0
   -0.6687   52.0048   27.1345 H   0  0  0  0  0  0
   -0.0079   50.5053   27.7946 H   0  0  0  0  0  0
    0.5879   53.6816   27.7473 H   0  0  0  0  0  0
    0.7292   54.6465   29.1937 H   0  0  0  0  0  0
    3.2108   54.6309   30.3117 H   0  0  0  0  0  0
    5.5842   54.9005   29.7690 H   0  0  0  0  0  0
    6.3742   54.6569   27.5058 H   0  0  0  0  0  0
    2.3827   53.6146   26.2333 H   0  0  0  0  0  0
    3.9872   53.8441   24.7062 H   0  0  0  0  0  0
    4.0855   53.1424   23.0107 H   0  0  0  0  0  0
    3.8973   53.2683   20.6001 H   0  0  0  0  0  0
    7.2819   55.9118   20.4488 H   0  0  0  0  0  0
    7.4959   55.7969   22.8799 H   0  0  0  0  0  0
    5.7840   52.5270   17.7465 H   0  0  0  0  0  0
    7.4966   51.5059   16.5901 H   0  0  0  0  0  0
    9.8803   51.4176   15.9607 H   0  0  0  0  0  0
   10.5521   55.1670   17.9137 H   0  0  0  0  0  0
    8.1966   55.2884   18.5334 H   0  0  0  0  0  0
    1.4707   51.8093   29.1615 H   0  0  0  0  0  0
  1  2  1  0  0  0
  1 33  1  0  0  0
  1 34  1  0  0  0
  1 35  1  0  0  0
  2  3  1  0  0  0
  2 36  1  0  0  0
  2 37  1  0  0  0
  3  4  1  0  0  0
  3  6  1  0  0  0
  3 59  1  0  0  0
  4  5  1  0  0  0
  4 38  1  0  0  0
  4 39  1  0  0  0
  5 40  1  0  0  0
  5 41  1  0  0  0
  5 42  1  0  0  0
  6  7  1  0  0  0
  6 43  1  0  0  0
  6 44  1  0  0  0
  7 12  2  0  0  0
  7  8  1  0  0  0
  8  9  2  0  0  0
  8 45  1  0  0  0
  9 10  1  0  0  0
  9 46  1  0  0  0
 10 11  2  0  0  0
 10 47  1  0  0  0
 11 12  1  0  0  0
 11 13  1  0  0  0
 12 48  1  0  0  0
 13 14  1  0  0  0
 13 49  1  0  0  0
 14 15  2  0  0  0
 14 16  1  0  0  0
 16 21  2  0  0  0
 16 17  1  0  0  0
 17 18  2  0  0  0
 17 50  1  0  0  0
 18 19  1  0  0  0
 18 51  1  0  0  0
 19 20  2  0  0  0
 19 22  1  0  0  0
 20 21  1  0  0  0
 20 52  1  0  0  0
 21 53  1  0  0  0
 22 23  2  0  0  0
 22 24  2  0  0  0
 22 25  1  0  0  0
 25 26  1  0  0  0
 25 54  1  0  0  0
 26 31  2  0  0  0
 26 27  1  0  0  0
 27 28  2  0  0  0
 27 55  1  0  0  0
 28 29  1  0  0  0
 28 56  1  0  0  0
 29 30  2  0  0  0
 29 32  1  0  0  0
 30 31  1  0  0  0
 30 57  1  0  0  0
 31 58  1  0  0  0
M  CHG  1   3   1
M  END
> <i_i_glide_confnum>
170

> <i_i_glide_lignum>
4887

> <i_i_glide_posenum>
279

> <i_i_glide_rotatable_bonds>
10

> <i_m_Source_File_Index>
2670

> <b_m_subgroup_collapsed>
0

> <r_i_docking_score>
-5.6213

> <r_i_glide_ecoul>
-0.689154

> <r_i_glide_eff_state_penalty>
0

> <r_i_glide_einternal>
4.18052

> <r_i_glide_emodel>
-64.1019

> <r_i_glide_energy>
-48.4023

> <r_i_glide_erotb>
0.771359

> <r_i_glide_esite>
-0.0685671

> <r_i_glide_evdw>
-47.7131

> <r_i_glide_gscore>
-5.6213

> <r_i_glide_hbond>
-0.317823

> <r_i_glide_ligand_efficiency>
-0.175666

> <r_i_glide_ligand_efficiency_ln>
-1.25876

> <r_i_glide_ligand_efficiency_sa>
-0.557704

> <r_i_glide_lipo>
-2.75726

> <r_i_glide_metal>
0

> <r_i_glide_rewards>
-0.759979

> <s_i_glide_gridfile>
wee1_glide-grid

> <s_m_Source_File>
wee1_decoys_glide_SP.sdf

> <s_m_Source_Path>
/Users/zhangxujun/Desktop

> <s_m_entry_id>
2945

> <s_m_entry_name>
wee1_decoys_glide_SP.2670

> <s_m_subgroup_title>
wee1_decoys_glide_SP

> <s_m_subgroupid>
wee1_decoys_glide_SP


$$$$
