ZINC16179209_675
                    3D
 Schrodinger Suite 2024-2.
 51 53  0  0  1  0            999 V2000
    6.3783   55.1812   25.0102 C   0  0  0  0  0  0
    5.7466   54.6653   26.2896 C   0  0  0  0  0  0
    6.5474   54.1115   27.2850 C   0  0  0  0  0  0
    5.9772   53.6876   28.4815 C   0  0  0  0  0  0
    4.5976   53.7731   28.6899 C   0  0  0  0  0  0
    3.7749   54.2731   27.6693 C   0  0  0  0  0  0
    4.3685   54.7653   26.4980 C   0  0  0  0  0  0
    2.3874   54.4102   27.8335 N   0  0  0  0  0  0
    1.2464   53.0368   27.9264 S   0  0  0  0  0  0
    0.0162   53.6092   28.4824 O   0  0  0  0  0  0
    1.9118   51.9054   28.5812 O   0  0  0  0  0  0
    0.8621   52.4972   26.2546 C   0  0  0  0  0  0
    1.6750   52.8963   25.1954 C   0  0  0  0  0  0
    1.4174   52.4963   23.8883 C   0  0  0  0  0  0
    0.2992   51.6952   23.6294 C   0  0  0  0  0  0
   -0.5363   51.3096   24.6805 C   0  0  0  0  0  0
   -0.2683   51.7067   26.0043 C   0  0  0  0  0  0
   -1.0597   51.3649   27.0811 O   0  0  0  0  0  0
   -2.2209   50.5660   26.8798 C   0  0  0  0  0  0
    2.3275   52.9605   22.9272 N   0  0  0  0  0  0
    2.5685   52.5190   21.6771 C   0  0  0  0  0  0
    1.9530   51.6149   21.1116 O   0  0  0  0  0  0
    3.6597   53.2241   21.0361 C   0  0  0  0  0  0
    4.6466   54.0275   21.6448 C   0  0  0  0  0  0
    5.4888   54.4970   20.6557 C   0  0  0  0  0  0
    5.0913   53.9906   19.4634 O   0  0  0  0  0  0
    4.0071   53.1976   19.6817 C   0  0  0  0  0  0
    3.4287   52.5353   18.4506 C   0  0  0  0  0  0
    6.6988   55.3966   20.6469 C   0  0  0  0  0  0
    3.9044   53.2866   30.4038 Br  0  0  0  0  0  0
    5.7106   55.8586   24.4818 H   0  0  0  0  0  0
    7.2837   55.7468   25.2292 H   0  0  0  0  0  0
    6.6482   54.3544   24.3522 H   0  0  0  0  0  0
    7.6152   54.0349   27.1530 H   0  0  0  0  0  0
    6.6221   53.3034   29.2541 H   0  0  0  0  0  0
    3.7584   55.2301   25.7394 H   0  0  0  0  0  0
    1.9727   55.3097   27.6479 H   0  0  0  0  0  0
    2.5436   53.4953   25.3844 H   0  0  0  0  0  0
    0.0589   51.3731   22.6281 H   0  0  0  0  0  0
   -1.3923   50.6938   24.4468 H   0  0  0  0  0  0
   -2.7223   50.4178   27.8366 H   0  0  0  0  0  0
   -2.9317   51.0524   26.2104 H   0  0  0  0  0  0
   -1.9665   49.5835   26.4787 H   0  0  0  0  0  0
    2.9349   53.7002   23.2365 H   0  0  0  0  0  0
    4.7383   54.2614   22.6940 H   0  0  0  0  0  0
    3.1051   51.5135   18.6483 H   0  0  0  0  0  0
    2.5662   53.0844   18.0731 H   0  0  0  0  0  0
    4.1576   52.4804   17.6390 H   0  0  0  0  0  0
    6.9773   55.7144   21.6514 H   0  0  0  0  0  0
    6.5196   56.2989   20.0608 H   0  0  0  0  0  0
    7.5661   54.8974   20.2144 H   0  0  0  0  0  0
  1  2  1  0  0  0
  1 31  1  0  0  0
  1 32  1  0  0  0
  1 33  1  0  0  0
  2  7  2  0  0  0
  2  3  1  0  0  0
  3  4  2  0  0  0
  3 34  1  0  0  0
  4  5  1  0  0  0
  4 35  1  0  0  0
  5  6  2  0  0  0
  5 30  1  0  0  0
  6  7  1  0  0  0
  6  8  1  0  0  0
  7 36  1  0  0  0
  8  9  1  0  0  0
  8 37  1  0  0  0
  9 10  2  0  0  0
  9 11  2  0  0  0
  9 12  1  0  0  0
 12 17  2  0  0  0
 12 13  1  0  0  0
 13 14  2  0  0  0
 13 38  1  0  0  0
 14 15  1  0  0  0
 14 20  1  0  0  0
 15 16  2  0  0  0
 15 39  1  0  0  0
 16 17  1  0  0  0
 16 40  1  0  0  0
 17 18  1  0  0  0
 18 19  1  0  0  0
 19 41  1  0  0  0
 19 42  1  0  0  0
 19 43  1  0  0  0
 20 21  1  0  0  0
 20 44  1  0  0  0
 21 22  2  0  0  0
 21 23  1  0  0  0
 23 27  2  0  0  0
 23 24  1  0  0  0
 24 25  2  0  0  0
 24 45  1  0  0  0
 25 26  1  0  0  0
 25 29  1  0  0  0
 26 27  1  0  0  0
 27 28  1  0  0  0
 28 46  1  0  0  0
 28 47  1  0  0  0
 28 48  1  0  0  0
 29 49  1  0  0  0
 29 50  1  0  0  0
 29 51  1  0  0  0
M  END
> <i_i_glide_confnum>
46

> <i_i_glide_lignum>
676

> <i_i_glide_posenum>
132

> <i_i_glide_rotatable_bonds>
7

> <i_m_Source_File_Index>
630

> <b_m_subgroup_collapsed>
0

> <r_i_docking_score>
-4.07495

> <r_i_glide_ecoul>
-1.7441

> <r_i_glide_eff_state_penalty>
0

> <r_i_glide_einternal>
5.83233

> <r_i_glide_emodel>
-52.9351

> <r_i_glide_energy>
-47.3708

> <r_i_glide_erotb>
0.50213

> <r_i_glide_esite>
0

> <r_i_glide_evdw>
-45.6267

> <r_i_glide_gscore>
-4.07495

> <r_i_glide_hbond>
0

> <r_i_glide_ligand_efficiency>
-0.135832

> <r_i_glide_ligand_efficiency_ln>
-0.925873

> <r_i_glide_ligand_efficiency_sa>
-0.422061

> <r_i_glide_lipo>
-2.93036

> <r_i_glide_metal>
0

> <r_i_glide_rewards>
0.896235

> <s_i_glide_gridfile>
wee1_glide-grid

> <s_m_Source_File>
wee1_decoys_glide_SP.sdf

> <s_m_Source_Path>
/Users/zhangxujun/Desktop

> <s_m_entry_id>
905

> <s_m_entry_name>
wee1_decoys_glide_SP.630

> <s_m_subgroup_title>
wee1_decoys_glide_SP

> <s_m_subgroupid>
wee1_decoys_glide_SP


$$$$
