ZINC06146150_5490
                    3D
 Schrodinger Suite 2024-2.
 57 60  0  0  1  0            999 V2000
    5.4416   54.0063   28.3450 C   0  0  0  0  0  0
    6.3064   54.4948   27.1867 C   0  0  0  0  0  0
    5.6549   54.2815   25.9373 O   0  0  0  0  0  0
    6.1498   54.8645   24.8156 C   0  0  0  0  0  0
    7.1043   55.6416   24.8350 O   0  0  0  0  0  0
    5.4082   54.4963   23.5838 C   0  0  0  0  0  0
    5.9040   54.6750   22.2495 C   0  0  0  0  0  0
    4.9897   54.2928   21.2552 C   0  0  0  0  0  0
    3.5428   53.6576   21.9162 S   0  0  0  0  0  0
    4.0893   53.9884   23.5370 C   0  0  0  0  0  0
    3.2812   53.6792   24.6309 N   0  0  0  0  0  0
    1.9371   53.5217   24.6593 C   0  0  0  0  0  0
    1.2037   53.8620   23.7276 O   0  0  0  0  0  0
    1.3514   52.9334   25.9434 C   0  0  0  0  0  0
    2.1303   52.8967   27.1171 C   0  0  0  0  0  0
    1.6560   52.3277   28.2945 C   0  0  0  0  0  0
    0.3819   51.7781   28.3308 C   0  0  0  0  0  0
   -0.4197   51.8176   27.1967 C   0  0  0  0  0  0
    0.0336   52.3987   26.0025 C   0  0  0  0  0  0
   -0.8007   52.4742   24.8703 N   0  0  0  0  0  0
   -2.4761   51.9336   24.6999 S   0  0  0  0  0  0
   -3.1827   52.1858   25.9612 O   0  0  0  0  0  0
   -2.9451   52.5369   23.4478 O   0  0  0  0  0  0
   -2.3724   50.1668   24.4259 C   0  0  0  0  0  0
   -2.4036   49.2814   25.5072 C   0  0  0  0  0  0
   -2.2972   47.9123   25.2817 C   0  0  0  0  0  0
   -2.1755   47.4296   23.9806 C   0  0  0  0  0  0
   -2.1418   48.3083   22.8998 C   0  0  0  0  0  0
   -2.2348   49.6804   23.1221 C   0  0  0  0  0  0
   -2.0951   46.0974   23.7648 F   0  0  0  0  0  0
    5.1501   54.4699   19.7488 C   0  0  0  0  0  0
    6.5870   54.9054   19.3987 C   0  0  0  0  0  0
    7.1696   55.8927   20.4191 C   0  0  0  0  0  0
    7.2435   55.2986   21.8428 C   0  0  0  0  0  0
    5.9671   54.1744   29.2815 H   0  0  0  0  0  0
    4.5014   54.5555   28.3972 H   0  0  0  0  0  0
    5.2288   52.9397   28.2642 H   0  0  0  0  0  0
    7.2621   53.9687   27.1903 H   0  0  0  0  0  0
    6.5194   55.5551   27.3340 H   0  0  0  0  0  0
    3.7568   53.7210   25.5200 H   0  0  0  0  0  0
    3.1312   53.2924   27.1352 H   0  0  0  0  0  0
    2.2799   52.3024   29.1755 H   0  0  0  0  0  0
    0.0089   51.3188   29.2360 H   0  0  0  0  0  0
   -1.4006   51.3847   27.2816 H   0  0  0  0  0  0
   -0.3673   52.8592   24.0403 H   0  0  0  0  0  0
   -2.5065   49.6344   26.5235 H   0  0  0  0  0  0
   -2.3022   47.2347   26.1249 H   0  0  0  0  0  0
   -2.0441   47.9263   21.8939 H   0  0  0  0  0  0
   -2.2040   50.3616   22.2821 H   0  0  0  0  0  0
    4.4582   55.2398   19.4045 H   0  0  0  0  0  0
    4.9007   53.5543   19.2112 H   0  0  0  0  0  0
    6.5939   55.3537   18.4038 H   0  0  0  0  0  0
    7.2336   54.0338   19.3175 H   0  0  0  0  0  0
    6.5582   56.7965   20.4280 H   0  0  0  0  0  0
    8.1664   56.2042   20.1012 H   0  0  0  0  0  0
    8.0334   54.5520   21.9112 H   0  0  0  0  0  0
    7.5495   56.0966   22.5121 H   0  0  0  0  0  0
  1  2  1  0  0  0
  1 35  1  0  0  0
  1 36  1  0  0  0
  1 37  1  0  0  0
  2  3  1  0  0  0
  2 38  1  0  0  0
  2 39  1  0  0  0
  3  4  1  0  0  0
  4  5  2  0  0  0
  4  6  1  0  0  0
  6 10  2  0  0  0
  6  7  1  0  0  0
  7 34  1  0  0  0
  7  8  2  0  0  0
  8  9  1  0  0  0
  8 31  1  0  0  0
  9 10  1  0  0  0
 10 11  1  0  0  0
 11 12  1  0  0  0
 11 40  1  0  0  0
 12 13  2  0  0  0
 12 14  1  0  0  0
 14 19  2  0  0  0
 14 15  1  0  0  0
 15 16  2  0  0  0
 15 41  1  0  0  0
 16 17  1  0  0  0
 16 42  1  0  0  0
 17 18  2  0  0  0
 17 43  1  0  0  0
 18 19  1  0  0  0
 18 44  1  0  0  0
 19 20  1  0  0  0
 20 21  1  0  0  0
 20 45  1  0  0  0
 21 22  2  0  0  0
 21 23  2  0  0  0
 21 24  1  0  0  0
 24 29  2  0  0  0
 24 25  1  0  0  0
 25 26  2  0  0  0
 25 46  1  0  0  0
 26 27  1  0  0  0
 26 47  1  0  0  0
 27 28  2  0  0  0
 27 30  1  0  0  0
 28 29  1  0  0  0
 28 48  1  0  0  0
 29 49  1  0  0  0
 31 32  1  0  0  0
 31 50  1  0  0  0
 31 51  1  0  0  0
 32 33  1  0  0  0
 32 52  1  0  0  0
 32 53  1  0  0  0
 33 34  1  0  0  0
 33 54  1  0  0  0
 33 55  1  0  0  0
 34 56  1  0  0  0
 34 57  1  0  0  0
M  END
> <i_i_glide_confnum>
82

> <i_i_glide_lignum>
5491

> <i_i_glide_posenum>
143

> <i_i_glide_rotatable_bonds>
9

> <i_m_Source_File_Index>
2611

> <b_m_subgroup_collapsed>
0

> <r_i_docking_score>
-6.66068

> <r_i_glide_ecoul>
-4.62439

> <r_i_glide_eff_state_penalty>
0

> <r_i_glide_einternal>
3.50314

> <r_i_glide_emodel>
-75.8222

> <r_i_glide_energy>
-55.2462

> <r_i_glide_erotb>
0.647196

> <r_i_glide_esite>
-0.0687503

> <r_i_glide_evdw>
-50.6219

> <r_i_glide_gscore>
-6.66068

> <r_i_glide_hbond>
-0.32

> <r_i_glide_ligand_efficiency>
-0.195902

> <r_i_glide_ligand_efficiency_ln>
-1.47153

> <r_i_glide_ligand_efficiency_sa>
-0.634648

> <r_i_glide_lipo>
-2.44197

> <r_i_glide_metal>
0

> <r_i_glide_rewards>
-1.2524

> <s_i_glide_gridfile>
wee1_glide-grid

> <s_m_Source_File>
wee1_decoys_glide_SP.sdf

> <s_m_Source_Path>
/Users/zhangxujun/Desktop

> <s_m_entry_id>
2886

> <s_m_entry_name>
wee1_decoys_glide_SP.2611

> <s_m_subgroup_title>
wee1_decoys_glide_SP

> <s_m_subgroupid>
wee1_decoys_glide_SP


$$$$
