ZINC09679120_5793
                    3D
 Schrodinger Suite 2024-2.
 55 59  0  0  1  0            999 V2000
   -1.6142   49.5219   17.6758 C   0  0  0  0  0  0
   -0.4738   50.2818   18.3286 C   0  0  0  0  0  0
   -0.7269   51.1607   19.3820 C   0  0  0  0  0  0
    0.3248   51.8585   19.9695 C   0  0  0  0  0  0
    1.6351   51.6846   19.5140 C   0  0  0  0  0  0
    1.8783   50.8059   18.4516 C   0  0  0  0  0  0
    0.8289   50.1082   17.8611 C   0  0  0  0  0  0
    2.7671   52.4116   20.1701 C   0  0  0  0  0  0
    2.8581   52.9090   21.4861 C   0  0  0  0  0  0
    4.0919   53.4206   21.6179 C   0  0  0  0  0  0
    4.6885   53.2844   20.4002 N   0  0  0  0  0  0
    5.6210   53.5912   20.1653 H   0  0  0  0  0  0
    3.8935   52.6636   19.5210 N   0  0  0  0  0  0
    4.3574   53.9239   22.9182 C   0  0  0  0  0  0
    5.3881   54.4968   23.2707 O   0  0  0  0  0  0
    3.2643   53.5438   23.6695 N   0  0  0  0  0  0
    2.1426   53.1199   22.7720 C   0  0  2  0  0  0
    1.4575   53.9636   22.6779 H   0  0  0  0  0  0
    1.3051   51.9008   23.1951 C   0  0  0  0  0  0
    1.7988   50.6001   23.0587 C   0  0  0  0  0  0
    1.0081   49.5090   23.4041 C   0  0  0  0  0  0
   -0.2764   49.6939   23.9289 C   0  0  0  0  0  0
   -0.7894   50.9955   24.0131 C   0  0  0  0  0  0
   -0.0145   52.0825   23.6228 C   0  0  0  0  0  0
   -1.0702   48.5059   24.3876 C   0  0  0  0  0  0
   -0.7996   47.3408   24.0818 O   0  0  0  0  0  0
   -2.0756   48.8441   25.2313 O   0  0  0  0  0  0
   -2.8535   47.8472   25.8781 C   0  0  0  0  0  0
    3.1858   53.6959   25.0964 C   0  0  0  0  0  0
    4.3311   53.7787   25.9135 C   0  0  0  0  0  0
    4.2292   53.8835   27.2977 C   0  0  0  0  0  0
    2.9762   53.8887   27.9206 C   0  0  0  0  0  0
    1.8356   53.7716   27.1224 C   0  0  0  0  0  0
    1.9421   53.6965   25.7368 C   0  0  0  0  0  0
    2.8549   54.0312   29.4076 C   0  0  0  0  0  0
    1.7104   54.0955   29.9108 O   0  0  0  0  0  0
   -2.5876   49.9327   17.9465 H   0  0  0  0  0  0
   -1.5306   49.5789   16.5898 H   0  0  0  0  0  0
   -1.5789   48.4690   17.9570 H   0  0  0  0  0  0
   -1.7325   51.3022   19.7483 H   0  0  0  0  0  0
    0.1174   52.5415   20.7782 H   0  0  0  0  0  0
    2.8844   50.6478   18.0842 H   0  0  0  0  0  0
    1.0373   49.4317   17.0450 H   0  0  0  0  0  0
    2.7937   50.4275   22.6765 H   0  0  0  0  0  0
    1.4230   48.5197   23.2819 H   0  0  0  0  0  0
   -1.7886   51.1801   24.3827 H   0  0  0  0  0  0
   -0.4408   53.0733   23.6799 H   0  0  0  0  0  0
   -3.5668   48.3176   26.5550 H   0  0  0  0  0  0
   -2.2226   47.1812   26.4698 H   0  0  0  0  0  0
   -3.4089   47.2503   25.1537 H   0  0  0  0  0  0
    5.3273   53.7315   25.5051 H   0  0  0  0  0  0
    5.1354   53.9514   27.8840 H   0  0  0  0  0  0
    0.8516   53.7735   27.5714 H   0  0  0  0  0  0
    1.0285   53.6879   25.1780 H   0  0  0  0  0  0
    3.9056   54.0969   30.0822 O   0  5  0  0  0  0
  1  2  1  0  0  0
  1 37  1  0  0  0
  1 38  1  0  0  0
  1 39  1  0  0  0
  2  7  2  0  0  0
  2  3  1  0  0  0
  3  4  2  0  0  0
  3 40  1  0  0  0
  4  5  1  0  0  0
  4 41  1  0  0  0
  5  6  2  0  0  0
  5  8  1  0  0  0
  6  7  1  0  0  0
  6 42  1  0  0  0
  7 43  1  0  0  0
  8 13  2  0  0  0
  8  9  1  0  0  0
  9 17  1  0  0  0
  9 10  2  0  0  0
 10 11  1  0  0  0
 10 14  1  0  0  0
 11 12  1  0  0  0
 11 13  1  0  0  0
 14 15  2  0  0  0
 14 16  1  0  0  0
 16 17  1  0  0  0
 16 29  1  0  0  0
 17 18  1  0  0  0
 17 19  1  0  0  0
 19 24  2  0  0  0
 19 20  1  0  0  0
 20 21  2  0  0  0
 20 44  1  0  0  0
 21 22  1  0  0  0
 21 45  1  0  0  0
 22 23  2  0  0  0
 22 25  1  0  0  0
 23 24  1  0  0  0
 23 46  1  0  0  0
 24 47  1  0  0  0
 25 26  2  0  0  0
 25 27  1  0  0  0
 27 28  1  0  0  0
 28 48  1  0  0  0
 28 49  1  0  0  0
 28 50  1  0  0  0
 29 34  2  0  0  0
 29 30  1  0  0  0
 30 31  2  0  0  0
 30 51  1  0  0  0
 31 32  1  0  0  0
 31 52  1  0  0  0
 32 33  2  0  0  0
 32 35  1  0  0  0
 33 34  1  0  0  0
 33 53  1  0  0  0
 34 54  1  0  0  0
 35 36  2  0  0  0
 35 55  1  0  0  0
M  CHG  1  55  -1
M  END
> <i_i_glide_confnum>
8

> <i_i_glide_lignum>
5794

> <i_i_glide_posenum>
244

> <i_i_glide_rotatable_bonds>
6

> <i_m_Source_File_Index>
5353

> <b_m_subgroup_collapsed>
0

> <r_i_docking_score>
-4.85391

> <r_i_glide_ecoul>
-4.0059

> <r_i_glide_eff_state_penalty>
0

> <r_i_glide_einternal>
4.2613

> <r_i_glide_emodel>
-54.0246

> <r_i_glide_energy>
-40.8506

> <r_i_glide_erotb>
0.370881

> <r_i_glide_esite>
-0.0425347

> <r_i_glide_evdw>
-36.8447

> <r_i_glide_gscore>
-4.85391

> <r_i_glide_hbond>
-0.200134

> <r_i_glide_ligand_efficiency>
-0.138683

> <r_i_glide_ligand_efficiency_ln>
-1.06554

> <r_i_glide_ligand_efficiency_sa>
-0.453642

> <r_i_glide_lipo>
-1.66147

> <r_i_glide_metal>
0

> <r_i_glide_rewards>
-0.877533

> <s_i_glide_gridfile>
wee1_glide-grid

> <s_m_Source_File>
wee1_decoys_glide_SP.sdf

> <s_m_Source_Path>
/Users/zhangxujun/Desktop

> <s_m_entry_id>
5628

> <s_m_entry_name>
wee1_decoys_glide_SP.5353

> <s_m_subgroup_title>
wee1_decoys_glide_SP

> <s_m_subgroupid>
wee1_decoys_glide_SP


$$$$
