ZINC14668386_2961
                    3D
 Schrodinger Suite 2024-2.
 53 55  0  0  1  0            999 V2000
    3.3698   52.8466   21.8036 C   0  0  0  0  0  0
    3.2363   54.2195   22.4776 C   0  0  0  0  0  0
    3.4548   54.1413   23.8814 O   0  0  0  0  0  0
    2.4729   53.7618   24.7323 C   0  0  0  0  0  0
    1.3099   53.5349   24.3919 O   0  0  0  0  0  0
    2.9633   53.6267   26.1167 C   0  0  0  0  0  0
    4.2544   53.9951   26.5722 C   0  0  0  0  0  0
    4.4920   53.7272   27.8985 C   0  0  0  0  0  0
    3.1532   52.9997   28.6846 S   0  0  0  0  0  0
    2.2246   53.0664   27.1933 C   0  0  0  0  0  0
    0.9497   52.4992   27.0500 N   0  0  0  0  0  0
   -0.0129   52.1129   27.9554 C   0  0  0  0  0  0
   -0.0955   52.4967   29.5764 S   0  0  0  0  0  0
   -1.0124   51.2968   27.4873 N   0  0  0  0  0  0
   -1.3621   50.9619   26.2178 C   0  0  0  0  0  0
   -0.8559   51.4400   25.1981 O   0  0  0  0  0  0
   -2.4261   49.8993   26.0816 C   0  0  0  0  0  0
   -2.2083   48.8752   25.1475 C   0  0  0  0  0  0
   -3.1169   47.8318   25.0042 C   0  0  0  0  0  0
   -4.2716   47.8133   25.7774 C   0  0  0  0  0  0
   -4.5092   48.8289   26.7005 C   0  0  0  0  0  0
   -3.5921   49.8796   26.8815 C   0  0  0  0  0  0
   -3.7687   50.9073   27.7983 O   0  0  0  0  0  0
   -4.7652   50.8964   28.8266 C   0  0  0  0  0  0
   -6.1798   51.2168   28.3058 C   0  0  0  0  0  0
   -4.6730   49.7132   29.8114 C   0  0  0  0  0  0
   -2.7691   46.4257   23.7681 Br  0  0  0  0  0  0
    5.8779   54.0962   28.3432 C   0  0  0  0  0  0
    6.5750   54.3386   27.0009 C   0  0  0  0  0  0
    5.4819   54.6437   25.9671 C   0  0  0  0  0  0
    3.2271   52.9314   20.7261 H   0  0  0  0  0  0
    4.3565   52.4171   21.9769 H   0  0  0  0  0  0
    2.6249   52.1454   22.1806 H   0  0  0  0  0  0
    2.2638   54.6633   22.2597 H   0  0  0  0  0  0
    3.9813   54.8964   22.0598 H   0  0  0  0  0  0
    0.6661   52.4122   26.0809 H   0  0  0  0  0  0
   -1.5630   50.8344   28.1990 H   0  0  0  0  0  0
   -1.3099   48.8660   24.5453 H   0  0  0  0  0  0
   -4.9816   47.0066   25.6704 H   0  0  0  0  0  0
   -5.4137   48.7603   27.2782 H   0  0  0  0  0  0
   -4.4982   51.7616   29.4306 H   0  0  0  0  0  0
   -6.9077   51.2081   29.1171 H   0  0  0  0  0  0
   -6.2025   52.2120   27.8614 H   0  0  0  0  0  0
   -6.5328   50.5257   27.5449 H   0  0  0  0  0  0
   -5.4195   49.7983   30.6010 H   0  0  0  0  0  0
   -4.8035   48.7397   29.3461 H   0  0  0  0  0  0
   -3.6959   49.6987   30.2955 H   0  0  0  0  0  0
    5.8881   54.9835   28.9765 H   0  0  0  0  0  0
    6.3826   53.2963   28.8819 H   0  0  0  0  0  0
    7.3185   55.1316   27.0706 H   0  0  0  0  0  0
    7.1038   53.4305   26.7035 H   0  0  0  0  0  0
    5.7566   54.2482   24.9889 H   0  0  0  0  0  0
    5.3468   55.7187   25.8600 H   0  0  0  0  0  0
  1  2  1  0  0  0
  1 31  1  0  0  0
  1 32  1  0  0  0
  1 33  1  0  0  0
  2  3  1  0  0  0
  2 34  1  0  0  0
  2 35  1  0  0  0
  3  4  1  0  0  0
  4  5  2  0  0  0
  4  6  1  0  0  0
  6 10  2  0  0  0
  6  7  1  0  0  0
  7 30  1  0  0  0
  7  8  2  0  0  0
  8  9  1  0  0  0
  8 28  1  0  0  0
  9 10  1  0  0  0
 10 11  1  0  0  0
 11 12  1  0  0  0
 11 36  1  0  0  0
 12 13  2  0  0  0
 12 14  1  0  0  0
 14 15  1  0  0  0
 14 37  1  0  0  0
 15 16  2  0  0  0
 15 17  1  0  0  0
 17 22  2  0  0  0
 17 18  1  0  0  0
 18 19  2  0  0  0
 18 38  1  0  0  0
 19 20  1  0  0  0
 19 27  1  0  0  0
 20 21  2  0  0  0
 20 39  1  0  0  0
 21 22  1  0  0  0
 21 40  1  0  0  0
 22 23  1  0  0  0
 23 24  1  0  0  0
 24 25  1  0  0  0
 24 26  1  0  0  0
 24 41  1  0  0  0
 25 42  1  0  0  0
 25 43  1  0  0  0
 25 44  1  0  0  0
 26 45  1  0  0  0
 26 46  1  0  0  0
 26 47  1  0  0  0
 28 29  1  0  0  0
 28 48  1  0  0  0
 28 49  1  0  0  0
 29 30  1  0  0  0
 29 50  1  0  0  0
 29 51  1  0  0  0
 30 52  1  0  0  0
 30 53  1  0  0  0
M  END
> <i_i_glide_confnum>
131

> <i_i_glide_lignum>
2962

> <i_i_glide_posenum>
352

> <i_i_glide_rotatable_bonds>
10

> <i_m_Source_File_Index>
1673

> <b_m_subgroup_collapsed>
0

> <r_i_docking_score>
-4.59163

> <r_i_glide_ecoul>
-2.00336

> <r_i_glide_eff_state_penalty>
0

> <r_i_glide_einternal>
9.41681

> <r_i_glide_emodel>
-56.3982

> <r_i_glide_energy>
-47.245

> <r_i_glide_erotb>
0.626737

> <r_i_glide_esite>
-0.140716

> <r_i_glide_evdw>
-45.2416

> <r_i_glide_gscore>
-4.59163

> <r_i_glide_hbond>
0

> <r_i_glide_ligand_efficiency>
-0.153054

> <r_i_glide_ligand_efficiency_ln>
-1.04327

> <r_i_glide_ligand_efficiency_sa>
-0.475576

> <r_i_glide_lipo>
-2.1035

> <r_i_glide_metal>
0

> <r_i_glide_rewards>
-0.411564

> <s_i_glide_gridfile>
wee1_glide-grid

> <s_m_Source_File>
wee1_decoys_glide_SP.sdf

> <s_m_Source_Path>
/Users/zhangxujun/Desktop

> <s_m_entry_id>
1948

> <s_m_entry_name>
wee1_decoys_glide_SP.1673

> <s_m_subgroup_title>
wee1_decoys_glide_SP

> <s_m_subgroupid>
wee1_decoys_glide_SP


$$$$
