ZINC04145772_1113
                    3D
 Schrodinger Suite 2024-2.
 65 68  0  0  1  0            999 V2000
   -2.7514   50.5851   22.4300 C   0  0  0  0  0  0
   -1.7960   50.0680   23.5192 C   0  0  0  0  0  0
   -0.7028   50.7589   23.9459 C   0  0  0  0  0  0
    0.0614   50.1992   25.1677 C   0  0  2  0  0  0
    1.1284   50.2406   24.9880 H   0  0  0  0  0  0
   -0.2078   48.7457   25.2840 N   0  0  0  0  0  0
   -1.2588   48.0679   24.7599 C   0  0  0  0  0  0
   -1.2962   46.8401   24.8804 O   0  0  0  0  0  0
   -2.1342   48.8193   24.0164 N   0  0  0  0  0  0
   -3.3921   48.1179   23.6758 C   0  0  0  0  0  0
   -0.1287   50.9678   26.4827 C   0  0  0  0  0  0
   -1.3574   50.9267   27.1489 C   0  0  0  0  0  0
   -1.4948   51.5299   28.3989 C   0  0  0  0  0  0
   -0.4116   52.1886   28.9783 C   0  0  0  0  0  0
    0.8004   52.2680   28.3111 C   0  0  0  0  0  0
    0.9381   51.6571   27.0739 C   0  0  0  0  0  0
   -0.5207   52.7587   30.1976 F   0  0  0  0  0  0
   -0.2562   52.1033   23.3313 C   0  0  1  0  0  0
   -0.6124   52.1506   22.3052 H   0  0  0  0  0  0
   -0.8657   53.2987   24.0824 C   0  0  0  0  0  0
    1.9563   51.0489   22.3648 C   0  0  0  0  0  0
    1.6424   50.7549   20.9073 C   0  0  0  0  0  0
    0.4963   50.0289   20.5687 C   0  0  0  0  0  0
    0.2441   49.7031   19.2388 C   0  0  0  0  0  0
    1.1501   50.0872   18.2519 C   0  0  0  0  0  0
    2.3038   50.7947   18.5840 C   0  0  0  0  0  0
    2.5512   51.1278   19.9116 C   0  0  0  0  0  0
    2.1362   53.0968   23.9574 C   0  0  0  0  0  0
    3.4633   53.6967   23.4572 C   0  0  0  0  0  0
    3.7115   53.8233   22.0829 C   0  0  0  0  0  0
    4.9586   54.2329   21.6148 C   0  0  0  0  0  0
    5.9718   54.5470   22.5160 C   0  0  0  0  0  0
    5.7244   54.4959   23.8858 C   0  0  0  0  0  0
    4.4713   54.0963   24.3656 C   0  0  0  0  0  0
    4.2579   54.0970   25.8119 C   0  0  0  0  0  0
    4.0843   54.0980   26.9557 N   0  0  0  0  0  0
   -2.5679   51.6010   22.0946 H   0  0  0  0  0  0
   -2.7167   49.9392   21.5523 H   0  0  0  0  0  0
   -3.7771   50.6022   22.7980 H   0  0  0  0  0  0
    0.2888   48.2388   26.0063 H   0  0  0  0  0  0
   -3.5585   47.1948   24.2347 H   0  0  0  0  0  0
   -4.2489   48.7557   23.8932 H   0  0  0  0  0  0
   -3.4120   47.8687   22.6143 H   0  0  0  0  0  0
   -2.1884   50.3767   26.7314 H   0  0  0  0  0  0
   -2.4290   51.4514   28.9339 H   0  0  0  0  0  0
    1.6369   52.7799   28.7633 H   0  0  0  0  0  0
    1.9046   51.6969   26.6170 H   0  0  0  0  0  0
   -1.9545   53.2608   24.0515 H   0  0  0  0  0  0
   -0.5849   53.2813   25.1327 H   0  0  0  0  0  0
   -0.5642   54.2618   23.6819 H   0  0  0  0  0  0
    1.7086   50.1881   22.9793 H   0  0  0  0  0  0
    3.0289   51.2054   22.4781 H   0  0  0  0  0  0
   -0.1892   49.6972   21.3330 H   0  0  0  0  0  0
   -0.6379   49.1375   18.9741 H   0  0  0  0  0  0
    0.9739   49.8152   17.2212 H   0  0  0  0  0  0
    3.0237   51.0518   17.8173 H   0  0  0  0  0  0
    3.4679   51.6465   20.1536 H   0  0  0  0  0  0
    1.5435   53.9035   24.3828 H   0  0  0  0  0  0
    2.3328   52.3521   24.7200 H   0  0  0  0  0  0
    2.9483   53.5873   21.3561 H   0  0  0  0  0  0
    5.1386   54.3022   20.5515 H   0  0  0  0  0  0
    6.9410   54.8610   22.1552 H   0  0  0  0  0  0
    6.5172   54.7771   24.5659 H   0  0  0  0  0  0
    1.2502   52.3123   22.9441 N   0  3  2  0  0  0
    1.2060   52.9392   22.1518 H   0  0  0  0  0  0
  1  2  1  0  0  0
  1 37  1  0  0  0
  1 38  1  0  0  0
  1 39  1  0  0  0
  2  9  1  0  0  0
  2  3  2  0  0  0
  3  4  1  0  0  0
  3 18  1  0  0  0
  4  5  1  0  0  0
  4  6  1  0  0  0
  4 11  1  0  0  0
  6  7  1  0  0  0
  6 40  1  0  0  0
  7  8  2  0  0  0
  7  9  1  0  0  0
  9 10  1  0  0  0
 10 41  1  0  0  0
 10 42  1  0  0  0
 10 43  1  0  0  0
 11 16  2  0  0  0
 11 12  1  0  0  0
 12 13  2  0  0  0
 12 44  1  0  0  0
 13 14  1  0  0  0
 13 45  1  0  0  0
 14 15  2  0  0  0
 14 17  1  0  0  0
 15 16  1  0  0  0
 15 46  1  0  0  0
 16 47  1  0  0  0
 18 19  1  0  0  0
 18 20  1  0  0  0
 18 64  1  0  0  0
 20 48  1  0  0  0
 20 49  1  0  0  0
 20 50  1  0  0  0
 21 22  1  0  0  0
 21 51  1  0  0  0
 21 52  1  0  0  0
 21 64  1  0  0  0
 22 27  2  0  0  0
 22 23  1  0  0  0
 23 24  2  0  0  0
 23 53  1  0  0  0
 24 25  1  0  0  0
 24 54  1  0  0  0
 25 26  2  0  0  0
 25 55  1  0  0  0
 26 27  1  0  0  0
 26 56  1  0  0  0
 27 57  1  0  0  0
 28 29  1  0  0  0
 28 58  1  0  0  0
 28 59  1  0  0  0
 28 64  1  0  0  0
 29 34  2  0  0  0
 29 30  1  0  0  0
 30 31  2  0  0  0
 30 60  1  0  0  0
 31 32  1  0  0  0
 31 61  1  0  0  0
 32 33  2  0  0  0
 32 62  1  0  0  0
 33 34  1  0  0  0
 33 63  1  0  0  0
 34 35  1  0  0  0
 35 36  3  0  0  0
 64 65  1  0  0  0
M  CHG  1  64   1
M  END
> <i_i_glide_confnum>
27

> <i_i_glide_lignum>
1114

> <i_i_glide_posenum>
107

> <i_i_glide_rotatable_bonds>
8

> <i_m_Source_File_Index>
1502

> <b_m_subgroup_collapsed>
0

> <r_i_docking_score>
-4.61607

> <r_i_glide_ecoul>
-3.11478

> <r_i_glide_eff_state_penalty>
0

> <r_i_glide_einternal>
11.8542

> <r_i_glide_emodel>
-48.2799

> <r_i_glide_energy>
-40.764

> <r_i_glide_erotb>
0.549623

> <r_i_glide_esite>
-0.2033

> <r_i_glide_evdw>
-37.6492

> <r_i_glide_gscore>
-4.61607

> <r_i_glide_hbond>
-0.198752

> <r_i_glide_ligand_efficiency>
-0.131888

> <r_i_glide_ligand_efficiency_ln>
-1.01333

> <r_i_glide_ligand_efficiency_sa>
-0.431413

> <r_i_glide_lipo>
-1.82941

> <r_i_glide_metal>
0

> <r_i_glide_rewards>
-0.584553

> <s_i_glide_gridfile>
wee1_glide-grid

> <s_m_Source_File>
wee1_decoys_glide_SP.sdf

> <s_m_Source_Path>
/Users/zhangxujun/Desktop

> <s_m_entry_id>
1777

> <s_m_entry_name>
wee1_decoys_glide_SP.1502

> <s_m_subgroup_title>
wee1_decoys_glide_SP

> <s_m_subgroupid>
wee1_decoys_glide_SP


$$$$
