ZINC22036805_2167
                    3D
 Schrodinger Suite 2024-2.
 54 56  0  0  1  0            999 V2000
   -1.3638   48.2324   25.2124 C   0  0  0  0  0  0
   -1.5584   47.5513   24.0152 C   0  0  0  0  0  0
   -1.1002   48.1014   22.8219 C   0  0  0  0  0  0
   -0.4389   49.3268   22.8151 C   0  0  0  0  0  0
   -0.2452   50.0151   24.0104 C   0  0  0  0  0  0
   -0.7130   49.4706   25.2215 C   0  0  0  0  0  0
   -0.6089   50.0961   26.4811 N   0  0  0  0  0  0
    0.0147   51.2423   26.8152 C   0  0  0  0  0  0
    0.6970   51.9284   26.0479 O   0  0  0  0  0  0
   -0.1753   51.7043   28.2668 C   0  0  0  0  0  0
    0.9720   52.6942   28.6025 N   0  3  1  0  0  0
    0.4814   53.9977   29.2655 C   0  0  0  0  0  0
    1.6072   54.9209   29.7580 C   0  0  0  0  0  0
    2.8452   55.0448   28.8467 C   0  0  0  0  0  0
    3.8551   53.9834   28.9775 N   0  0  0  0  0  0
    3.5118   52.5849   28.6900 C   0  0  0  0  0  0
    2.1987   52.0192   29.2549 C   0  0  0  0  0  0
    5.2612   54.3626   28.6914 C   0  0  0  0  0  0
    5.6418   54.4984   27.1888 C   0  0  0  0  0  0
    6.8103   54.7760   26.9190 O   0  0  0  0  0  0
    4.6762   54.3167   26.2599 N   0  0  0  0  0  0
    4.7507   54.3068   24.8549 C   0  0  0  0  0  0
    5.9385   54.4569   24.1192 C   0  0  0  0  0  0
    5.9103   54.3815   22.7303 C   0  0  0  0  0  0
    4.7069   54.1585   22.0708 C   0  0  0  0  0  0
    3.5224   54.0246   22.7886 C   0  0  0  0  0  0
    3.5438   54.0964   24.1802 C   0  0  0  0  0  0
    4.6886   54.0802   20.7224 F   0  0  0  0  0  0
   -1.2974   47.4356   21.6612 F   0  0  0  0  0  0
   -1.7267   47.7908   26.1307 H   0  0  0  0  0  0
   -2.0666   46.5991   24.0081 H   0  0  0  0  0  0
   -0.0807   49.7411   21.8838 H   0  0  0  0  0  0
    0.2590   50.9678   23.9592 H   0  0  0  0  0  0
   -1.0303   49.5479   27.2326 H   0  0  0  0  0  0
   -0.1768   50.8965   29.0028 H   0  0  0  0  0  0
   -1.1181   52.2467   28.3474 H   0  0  0  0  0  0
   -0.1873   53.7035   30.0771 H   0  0  0  0  0  0
   -0.0996   54.4807   28.4804 H   0  0  0  0  0  0
    1.9038   54.5473   30.7328 H   0  0  0  0  0  0
    1.1838   55.9128   29.9254 H   0  0  0  0  0  0
    3.3063   56.0002   29.1016 H   0  0  0  0  0  0
    2.5550   55.1375   27.7994 H   0  0  0  0  0  0
    3.3621   52.5314   27.6109 H   0  0  0  0  0  0
    4.3436   51.9078   28.8866 H   0  0  0  0  0  0
    2.1398   50.9589   29.0000 H   0  0  0  0  0  0
    2.0958   52.1086   30.3365 H   0  0  0  0  0  0
    5.9243   53.6087   29.1171 H   0  0  0  0  0  0
    5.5030   55.2964   29.2006 H   0  0  0  0  0  0
    3.7634   54.1264   26.6396 H   0  0  0  0  0  0
    6.8970   54.6128   24.5841 H   0  0  0  0  0  0
    6.8229   54.4954   22.1661 H   0  0  0  0  0  0
    2.5931   53.8618   22.2628 H   0  0  0  0  0  0
    2.6161   53.9751   24.7229 H   0  0  0  0  0  0
    1.2823   52.9826   27.6802 H   0  0  0  0  0  0
  1  6  2  0  0  0
  1  2  1  0  0  0
  1 30  1  0  0  0
  2  3  2  0  0  0
  2 31  1  0  0  0
  3  4  1  0  0  0
  3 29  1  0  0  0
  4  5  2  0  0  0
  4 32  1  0  0  0
  5  6  1  0  0  0
  5 33  1  0  0  0
  6  7  1  0  0  0
  7  8  1  0  0  0
  7 34  1  0  0  0
  8  9  2  0  0  0
  8 10  1  0  0  0
 10 11  1  0  0  0
 10 35  1  0  0  0
 10 36  1  0  0  0
 11 17  1  0  0  0
 11 12  1  0  0  0
 11 54  1  0  0  0
 12 13  1  0  0  0
 12 37  1  0  0  0
 12 38  1  0  0  0
 13 14  1  0  0  0
 13 39  1  0  0  0
 13 40  1  0  0  0
 14 15  1  0  0  0
 14 41  1  0  0  0
 14 42  1  0  0  0
 15 16  1  0  0  0
 15 18  1  0  0  0
 16 17  1  0  0  0
 16 43  1  0  0  0
 16 44  1  0  0  0
 17 45  1  0  0  0
 17 46  1  0  0  0
 18 19  1  0  0  0
 18 47  1  0  0  0
 18 48  1  0  0  0
 19 20  2  0  0  0
 19 21  1  0  0  0
 21 22  1  0  0  0
 21 49  1  0  0  0
 22 27  2  0  0  0
 22 23  1  0  0  0
 23 24  2  0  0  0
 23 50  1  0  0  0
 24 25  1  0  0  0
 24 51  1  0  0  0
 25 26  2  0  0  0
 25 28  1  0  0  0
 26 27  1  0  0  0
 26 52  1  0  0  0
 27 53  1  0  0  0
M  CHG  1  11   1
M  END
> <i_i_glide_confnum>
117

> <i_i_glide_lignum>
2168

> <i_i_glide_posenum>
387

> <i_i_glide_rotatable_bonds>
8

> <i_m_Source_File_Index>
395

> <b_m_subgroup_collapsed>
0

> <r_i_docking_score>
-6.50377

> <r_i_glide_ecoul>
-4.70248

> <r_i_glide_eff_state_penalty>
0

> <r_i_glide_einternal>
6.0568

> <r_i_glide_emodel>
-64.6469

> <r_i_glide_energy>
-47.2304

> <r_i_glide_erotb>
0.723735

> <r_i_glide_esite>
-0.136002

> <r_i_glide_evdw>
-42.5279

> <r_i_glide_gscore>
-6.50377

> <r_i_glide_hbond>
-0.319113

> <r_i_glide_ligand_efficiency>
-0.224268

> <r_i_glide_ligand_efficiency_ln>
-1.4892

> <r_i_glide_ligand_efficiency_sa>
-0.689022

> <r_i_glide_lipo>
-2.67401

> <r_i_glide_metal>
0

> <r_i_glide_rewards>
-1.26661

> <s_i_glide_gridfile>
wee1_glide-grid

> <s_m_Source_File>
wee1_decoys_glide_SP.sdf

> <s_m_Source_Path>
/Users/zhangxujun/Desktop

> <s_m_entry_id>
670

> <s_m_entry_name>
wee1_decoys_glide_SP.395

> <s_m_subgroup_title>
wee1_decoys_glide_SP

> <s_m_subgroupid>
wee1_decoys_glide_SP


$$$$
