ZINC09298139_5283
                    3D
 Schrodinger Suite 2024-2.
 46 48  0  0  1  0            999 V2000
    7.6079   55.3643   21.4234 C   0  0  0  0  0  0
    6.6818   54.6870   22.4610 C   0  0  1  0  0  0
    7.0850   53.6967   22.6631 H   0  0  0  0  0  0
    6.6174   55.4612   23.7918 C   0  0  0  0  0  0
    5.7706   54.7414   24.8595 C   0  0  0  0  0  0
    4.4455   54.2009   24.2926 C   0  0  0  0  0  0
    4.2695   54.0967   22.9056 C   0  0  0  0  0  0
    2.7044   53.5145   22.4817 S   0  0  0  0  0  0
    2.2310   53.4138   24.1524 C   0  0  0  0  0  0
    3.2763   53.7958   25.0262 C   0  0  0  0  0  0
    3.1105   53.8162   26.4863 C   0  0  0  0  0  0
    1.9895   53.7394   27.0006 O   0  0  0  0  0  0
    4.2606   53.8918   27.1869 N   0  0  0  0  0  0
    4.4221   54.0967   28.5146 C   0  0  0  0  0  0
    3.5136   54.2893   29.3257 O   0  0  0  0  0  0
    5.7705   54.0967   28.8817 O   0  0  0  0  0  0
    6.8427   53.8100   27.9849 C   0  0  0  0  0  0
    0.9554   52.9927   24.5385 N   0  0  0  0  0  0
   -0.0553   52.4967   23.7938 C   0  0  0  0  0  0
   -0.0391   52.3116   22.5770 O   0  0  0  0  0  0
   -1.3003   52.1912   24.5809 C   0  0  0  0  0  0
   -2.4744   52.8967   24.2797 C   0  0  0  0  0  0
   -3.6538   52.6489   24.9815 C   0  0  0  0  0  0
   -3.6768   51.6824   25.9849 C   0  0  0  0  0  0
   -2.5240   50.9560   26.2774 C   0  0  0  0  0  0
   -1.3392   51.1942   25.5785 C   0  0  0  0  0  0
    0.3044   49.9886   26.0817 I   0  0  0  0  0  0
    5.2782   54.5024   21.8380 C   0  0  0  0  0  0
    7.3506   56.4158   21.2953 H   0  0  0  0  0  0
    8.6639   55.3136   21.6817 H   0  0  0  0  0  0
    7.5180   54.8967   20.4425 H   0  0  0  0  0  0
    7.6082   55.6081   24.2011 H   0  0  0  0  0  0
    6.3044   56.4877   23.6454 H   0  0  0  0  0  0
    5.6039   55.4491   25.6716 H   0  0  0  0  0  0
    6.3510   53.9064   25.2514 H   0  0  0  0  0  0
    5.1061   53.7888   26.6528 H   0  0  0  0  0  0
    7.7522   53.6698   28.5684 H   0  0  0  0  0  0
    7.0180   54.6458   27.3089 H   0  0  0  0  0  0
    6.6740   52.8967   27.4131 H   0  0  0  0  0  0
    0.8004   53.0215   25.5384 H   0  0  0  0  0  0
   -2.4773   53.6511   23.5053 H   0  0  0  0  0  0
   -4.5504   53.2035   24.7458 H   0  0  0  0  0  0
   -4.5888   51.4856   26.5291 H   0  0  0  0  0  0
   -2.5463   50.1935   27.0456 H   0  0  0  0  0  0
    5.3175   53.7508   21.0478 H   0  0  0  0  0  0
    4.9586   55.4311   21.3699 H   0  0  0  0  0  0
  1  2  1  0  0  0
  1 29  1  0  0  0
  1 30  1  0  0  0
  1 31  1  0  0  0
  2  3  1  0  0  0
  2 28  1  0  0  0
  2  4  1  0  0  0
  4  5  1  0  0  0
  4 32  1  0  0  0
  4 33  1  0  0  0
  5  6  1  0  0  0
  5 34  1  0  0  0
  5 35  1  0  0  0
  6 10  1  0  0  0
  6  7  2  0  0  0
  7  8  1  0  0  0
  7 28  1  0  0  0
  8  9  1  0  0  0
  9 10  2  0  0  0
  9 18  1  0  0  0
 10 11  1  0  0  0
 11 12  2  0  0  0
 11 13  1  0  0  0
 13 14  1  0  0  0
 13 36  1  0  0  0
 14 15  2  0  0  0
 14 16  1  0  0  0
 16 17  1  0  0  0
 17 37  1  0  0  0
 17 38  1  0  0  0
 17 39  1  0  0  0
 18 19  1  0  0  0
 18 40  1  0  0  0
 19 20  2  0  0  0
 19 21  1  0  0  0
 21 26  2  0  0  0
 21 22  1  0  0  0
 22 23  2  0  0  0
 22 41  1  0  0  0
 23 24  1  0  0  0
 23 42  1  0  0  0
 24 25  2  0  0  0
 24 43  1  0  0  0
 25 26  1  0  0  0
 25 44  1  0  0  0
 26 27  1  0  0  0
 28 45  1  0  0  0
 28 46  1  0  0  0
M  END
> <i_i_glide_confnum>
85

> <i_i_glide_lignum>
5284

> <i_i_glide_posenum>
388

> <i_i_glide_rotatable_bonds>
7

> <i_m_Source_File_Index>
5258

> <b_m_subgroup_collapsed>
0

> <r_i_docking_score>
-4.51177

> <r_i_glide_ecoul>
-1.61033

> <r_i_glide_eff_state_penalty>
0

> <r_i_glide_einternal>
9.93794

> <r_i_glide_emodel>
-49.9876

> <r_i_glide_energy>
-44.0042

> <r_i_glide_erotb>
0.493004

> <r_i_glide_esite>
0

> <r_i_glide_evdw>
-42.3939

> <r_i_glide_gscore>
-4.51177

> <r_i_glide_hbond>
0

> <r_i_glide_ligand_efficiency>
-0.167102

> <r_i_glide_ligand_efficiency_ln>
-1.05026

> <r_i_glide_ligand_efficiency_sa>
-0.501307

> <r_i_glide_lipo>
-2.4912

> <r_i_glide_metal>
0

> <r_i_glide_rewards>
-0.152325

> <s_i_glide_gridfile>
wee1_glide-grid

> <s_m_Source_File>
wee1_decoys_glide_SP.sdf

> <s_m_Source_Path>
/Users/zhangxujun/Desktop

> <s_m_entry_id>
5533

> <s_m_entry_name>
wee1_decoys_glide_SP.5258

> <s_m_subgroup_title>
wee1_decoys_glide_SP

> <s_m_subgroupid>
wee1_decoys_glide_SP


$$$$
