ZINC46810199_224
                    3D
 Schrodinger Suite 2024-2.
 60 62  0  0  1  0            999 V2000
   -0.1600   52.3991   30.4888 C   0  0  0  0  0  0
    0.4021   51.9137   29.1426 C   0  0  0  0  0  0
   -0.6758   51.8345   28.0507 C   0  0  0  0  0  0
    1.5399   52.7095   28.6936 N   0  0  0  0  0  0
    2.7927   52.6669   29.1932 C   0  0  0  0  0  0
    3.1156   51.8697   30.0771 O   0  0  0  0  0  0
    3.6703   53.5255   28.6078 N   0  0  0  0  0  0
    3.2570   54.7724   27.9177 C   0  0  0  0  0  0
    3.9871   54.7799   26.5587 C   0  0  0  0  0  0
    5.5184   54.7568   26.8044 C   0  0  0  0  0  0
    5.8541   53.4348   27.5268 C   0  0  0  0  0  0
    5.1177   53.4134   28.8841 C   0  0  0  0  0  0
    6.2532   54.8240   25.4546 C   0  0  0  0  0  0
    7.0958   55.6967   25.2782 O   0  0  0  0  0  0
    5.9249   53.9256   24.5105 N   0  0  0  0  0  0
    6.3884   53.9432   23.1160 C   0  0  0  0  0  0
    5.3828   53.3694   22.0543 C   0  0  2  0  0  0
    5.5954   52.3046   21.9422 H   0  0  0  0  0  0
    5.4107   54.0430   20.6744 C   0  0  0  0  0  0
    5.1178   53.4856   19.4251 C   0  0  0  0  0  0
    5.2490   54.3507   18.3382 C   0  0  0  0  0  0
    5.6667   55.6089   18.7172 C   0  0  0  0  0  0
    5.9054   55.6991   20.4246 S   0  0  0  0  0  0
    3.9309   53.2967   22.6079 N   0  3  0  0  0  0
    3.1692   54.6118   22.7926 C   0  0  0  0  0  0
    1.7692   54.1337   23.1422 C   0  0  0  0  0  0
    1.5451   52.8621   22.3261 C   0  0  0  0  0  0
    2.9281   52.3876   21.8636 C   0  0  0  0  0  0
   -1.0230   51.8020   30.7836 H   0  0  0  0  0  0
   -0.4896   53.4357   30.4412 H   0  0  0  0  0  0
    0.5687   52.2964   31.2928 H   0  0  0  0  0  0
    0.7624   50.8960   29.2813 H   0  0  0  0  0  0
   -1.5635   51.3208   28.4225 H   0  0  0  0  0  0
   -0.9953   52.8216   27.7180 H   0  0  0  0  0  0
   -0.3307   51.2583   27.1918 H   0  0  0  0  0  0
    1.3677   53.3098   27.9037 H   0  0  0  0  0  0
    2.1810   54.8679   27.7687 H   0  0  0  0  0  0
    3.5753   55.6193   28.5266 H   0  0  0  0  0  0
    3.6292   53.9048   26.0134 H   0  0  0  0  0  0
    3.6784   55.6972   26.0612 H   0  0  0  0  0  0
    5.8473   55.6386   27.3637 H   0  0  0  0  0  0
    6.9186   53.3700   27.7617 H   0  0  0  0  0  0
    5.5172   52.5489   26.9833 H   0  0  0  0  0  0
    5.4193   54.2727   29.4857 H   0  0  0  0  0  0
    5.3711   52.4984   29.4204 H   0  0  0  0  0  0
    5.4414   53.0993   24.8250 H   0  0  0  0  0  0
    6.6930   54.9576   22.8541 H   0  0  0  0  0  0
    7.3226   53.3803   23.0695 H   0  0  0  0  0  0
    4.8045   52.4610   19.2960 H   0  0  0  0  0  0
    5.0482   54.0601   17.3161 H   0  0  0  0  0  0
    5.8559   56.4678   18.0886 H   0  0  0  0  0  0
    3.6606   55.2036   23.5622 H   0  0  0  0  0  0
    3.2249   55.1401   21.8405 H   0  0  0  0  0  0
    1.6938   53.9337   24.2127 H   0  0  0  0  0  0
    1.0398   54.9000   22.9029 H   0  0  0  0  0  0
    0.9220   53.0677   21.4547 H   0  0  0  0  0  0
    1.0364   52.0957   22.9146 H   0  0  0  0  0  0
    3.0595   52.5656   20.7966 H   0  0  0  0  0  0
    3.1627   51.3428   22.0803 H   0  0  0  0  0  0
    4.0349   52.9136   23.5344 H   0  0  0  0  0  0
  1  2  1  0  0  0
  1 29  1  0  0  0
  1 30  1  0  0  0
  1 31  1  0  0  0
  2  3  1  0  0  0
  2  4  1  0  0  0
  2 32  1  0  0  0
  3 33  1  0  0  0
  3 34  1  0  0  0
  3 35  1  0  0  0
  4  5  1  0  0  0
  4 36  1  0  0  0
  5  6  2  0  0  0
  5  7  1  0  0  0
  7 12  1  0  0  0
  7  8  1  0  0  0
  8  9  1  0  0  0
  8 37  1  0  0  0
  8 38  1  0  0  0
  9 10  1  0  0  0
  9 39  1  0  0  0
  9 40  1  0  0  0
 10 11  1  0  0  0
 10 13  1  0  0  0
 10 41  1  0  0  0
 11 12  1  0  0  0
 11 42  1  0  0  0
 11 43  1  0  0  0
 12 44  1  0  0  0
 12 45  1  0  0  0
 13 14  2  0  0  0
 13 15  1  0  0  0
 15 16  1  0  0  0
 15 46  1  0  0  0
 16 17  1  0  0  0
 16 47  1  0  0  0
 16 48  1  0  0  0
 17 18  1  0  0  0
 17 19  1  0  0  0
 17 24  1  0  0  0
 19 23  1  0  0  0
 19 20  2  0  0  0
 20 21  1  0  0  0
 20 49  1  0  0  0
 21 22  2  0  0  0
 21 50  1  0  0  0
 22 23  1  0  0  0
 22 51  1  0  0  0
 24 28  1  0  0  0
 24 25  1  0  0  0
 24 60  1  0  0  0
 25 26  1  0  0  0
 25 52  1  0  0  0
 25 53  1  0  0  0
 26 27  1  0  0  0
 26 54  1  0  0  0
 26 55  1  0  0  0
 27 28  1  0  0  0
 27 56  1  0  0  0
 27 57  1  0  0  0
 28 58  1  0  0  0
 28 59  1  0  0  0
M  CHG  1  24   1
M  END
> <i_i_glide_confnum>
238

> <i_i_glide_lignum>
225

> <i_i_glide_posenum>
197

> <i_i_glide_rotatable_bonds>
9

> <i_m_Source_File_Index>
1559

> <b_m_subgroup_collapsed>
0

> <r_i_docking_score>
-7.09687

> <r_i_glide_ecoul>
-7.92581

> <r_i_glide_eff_state_penalty>
0

> <r_i_glide_einternal>
10.6013

> <r_i_glide_emodel>
-65.6166

> <r_i_glide_energy>
-48.5948

> <r_i_glide_erotb>
1.009

> <r_i_glide_esite>
0

> <r_i_glide_evdw>
-40.6689

> <r_i_glide_gscore>
-7.09687

> <r_i_glide_hbond>
-0.608

> <r_i_glide_ligand_efficiency>
-0.262847

> <r_i_glide_ligand_efficiency_ln>
-1.65203

> <r_i_glide_ligand_efficiency_sa>
-0.788541

> <r_i_glide_lipo>
-2.47554

> <r_i_glide_metal>
0

> <r_i_glide_rewards>
-1.8

> <s_i_glide_gridfile>
wee1_glide-grid

> <s_m_Source_File>
wee1_decoys_glide_SP.sdf

> <s_m_Source_Path>
/Users/zhangxujun/Desktop

> <s_m_entry_id>
1834

> <s_m_entry_name>
wee1_decoys_glide_SP.1559

> <s_m_subgroup_title>
wee1_decoys_glide_SP

> <s_m_subgroupid>
wee1_decoys_glide_SP


$$$$
