ZINC01408540_5285
                    3D
 Schrodinger Suite 2024-2.
 41 44  0  0  1  0            999 V2000
    1.5029   53.4504   22.9150 C   0  0  0  0  0  0
    1.4095   52.3530   22.0654 C   0  0  0  0  0  0
    0.8892   51.1389   22.5282 C   0  0  0  0  0  0
    0.4946   51.0246   23.8693 C   0  0  0  0  0  0
    0.6338   52.1088   24.7429 C   0  0  0  0  0  0
    1.0993   53.3343   24.2421 C   0  0  0  0  0  0
    0.3041   51.9300   26.1045 N   0  0  0  0  0  0
    0.9222   52.4313   27.2177 C   0  0  0  0  0  0
    0.1562   52.2182   28.6858 S   0  0  0  0  0  0
    2.1527   52.9956   26.9968 N   0  0  0  0  0  0
    3.0360   53.6774   27.7664 C   0  0  0  0  0  0
    2.8762   53.9820   28.9519 O   0  0  0  0  0  0
    4.3128   54.0518   27.0420 C   0  0  0  0  0  0
    5.4773   54.3447   27.7676 C   0  0  0  0  0  0
    6.6663   54.6541   27.1068 C   0  0  0  0  0  0
    6.7045   54.6832   25.7135 C   0  0  0  0  0  0
    5.5631   54.4011   24.9775 C   0  0  0  0  0  0
    4.3766   54.0981   25.6356 C   0  0  0  0  0  0
    5.6420   54.3790   22.8881 I   0  0  0  0  0  0
    0.7652   50.0012   21.5750 C   0  0  0  0  0  0
   -0.1440   49.0439   21.5933 N   0  0  0  0  0  0
    0.1489   48.3043   20.4810 C   0  0  0  0  0  0
    1.2811   48.8425   19.8476 C   0  0  0  0  0  0
    1.6693   49.9393   20.5468 O   0  0  0  0  0  0
    1.8310   48.2751   18.6946 C   0  0  0  0  0  0
    1.1675   47.1410   18.2157 C   0  0  0  0  0  0
    0.0370   46.6589   18.8910 C   0  0  0  0  0  0
   -0.4867   47.2208   20.0199 N   0  0  0  0  0  0
    1.8799   54.3911   22.5375 H   0  0  0  0  0  0
    1.7209   52.4599   21.0351 H   0  0  0  0  0  0
    0.1180   50.0800   24.2381 H   0  0  0  0  0  0
    1.1584   54.2057   24.8770 H   0  0  0  0  0  0
   -0.5041   51.3481   26.2779 H   0  0  0  0  0  0
    2.4956   52.8353   26.0622 H   0  0  0  0  0  0
    5.4756   54.3264   28.8491 H   0  0  0  0  0  0
    7.5542   54.8681   27.6827 H   0  0  0  0  0  0
    7.6216   54.9021   25.1893 H   0  0  0  0  0  0
    3.5216   53.8841   25.0188 H   0  0  0  0  0  0
    2.7038   48.6883   18.2065 H   0  0  0  0  0  0
    1.5280   46.6473   17.3251 H   0  0  0  0  0  0
   -0.4812   45.7866   18.5202 H   0  0  0  0  0  0
  1  6  2  0  0  0
  1  2  1  0  0  0
  1 29  1  0  0  0
  2  3  2  0  0  0
  2 30  1  0  0  0
  3  4  1  0  0  0
  3 20  1  0  0  0
  4  5  2  0  0  0
  4 31  1  0  0  0
  5  6  1  0  0  0
  5  7  1  0  0  0
  6 32  1  0  0  0
  7  8  1  0  0  0
  7 33  1  0  0  0
  8  9  2  0  0  0
  8 10  1  0  0  0
 10 11  1  0  0  0
 10 34  1  0  0  0
 11 12  2  0  0  0
 11 13  1  0  0  0
 13 18  2  0  0  0
 13 14  1  0  0  0
 14 15  2  0  0  0
 14 35  1  0  0  0
 15 16  1  0  0  0
 15 36  1  0  0  0
 16 17  2  0  0  0
 16 37  1  0  0  0
 17 18  1  0  0  0
 17 19  1  0  0  0
 18 38  1  0  0  0
 20 24  1  0  0  0
 20 21  2  0  0  0
 21 22  1  0  0  0
 22 28  2  0  0  0
 22 23  1  0  0  0
 23 24  1  0  0  0
 23 25  2  0  0  0
 25 26  1  0  0  0
 25 39  1  0  0  0
 26 27  2  0  0  0
 26 40  1  0  0  0
 27 28  1  0  0  0
 27 41  1  0  0  0
M  END
> <i_i_glide_confnum>
47

> <i_i_glide_lignum>
5286

> <i_i_glide_posenum>
303

> <i_i_glide_rotatable_bonds>
6

> <i_m_Source_File_Index>
2513

> <b_m_subgroup_collapsed>
0

> <r_i_docking_score>
-5.10028

> <r_i_glide_ecoul>
-2.56133

> <r_i_glide_eff_state_penalty>
0

> <r_i_glide_einternal>
8.00648

> <r_i_glide_emodel>
-55.7139

> <r_i_glide_energy>
-45.5941

> <r_i_glide_erotb>
0.407865

> <r_i_glide_esite>
-0.00207445

> <r_i_glide_evdw>
-43.0328

> <r_i_glide_gscore>
-5.10028

> <r_i_glide_hbond>
0

> <r_i_glide_ligand_efficiency>
-0.182153

> <r_i_glide_ligand_efficiency_ln>
-1.17729

> <r_i_glide_ligand_efficiency_sa>
-0.553124

> <r_i_glide_lipo>
-2.50545

> <r_i_glide_metal>
0

> <r_i_glide_rewards>
-0.464784

> <s_i_glide_gridfile>
wee1_glide-grid

> <s_m_Source_File>
wee1_decoys_glide_SP.sdf

> <s_m_Source_Path>
/Users/zhangxujun/Desktop

> <s_m_entry_id>
2788

> <s_m_entry_name>
wee1_decoys_glide_SP.2513

> <s_m_subgroup_title>
wee1_decoys_glide_SP

> <s_m_subgroupid>
wee1_decoys_glide_SP


$$$$
