ZINC53086030_1382
                    3D
 Schrodinger Suite 2024-2.
 50 53  0  0  1  0            999 V2000
    4.5691   54.4959   29.4608 C   0  0  0  0  0  0
    3.6921   54.1144   28.2831 C   0  0  0  0  0  0
    2.4365   53.5442   28.4996 C   0  0  0  0  0  0
    1.6443   53.1631   27.4173 C   0  0  0  0  0  0
    2.1099   53.3586   26.1152 C   0  0  0  0  0  0
    3.3713   53.9357   25.8688 C   0  0  0  0  0  0
    4.1532   54.3003   26.9780 C   0  0  0  0  0  0
    3.9018   54.0962   24.5545 N   0  0  0  0  0  0
    5.3493   54.1824   24.3098 C   0  0  0  0  0  0
    5.5481   54.2758   22.8141 C   0  0  0  0  0  0
    4.1663   54.0495   22.2171 C   0  0  2  0  0  0
    3.9012   54.8588   21.5374 H   0  0  0  0  0  0
    3.1815   54.0969   23.3921 C   0  0  0  0  0  0
    1.9587   54.1016   23.2487 O   0  0  0  0  0  0
    4.0552   52.7318   21.4125 C   0  0  0  0  0  0
    4.7843   51.7737   21.6784 O   0  0  0  0  0  0
    3.0995   52.6930   20.4571 N   0  0  0  0  0  0
    2.7037   51.4650   19.9012 N   0  0  0  0  0  0
    1.8862   50.6478   20.6146 C   0  0  0  0  0  0
    1.4350   50.9368   21.7287 O   0  0  0  0  0  0
    1.4766   49.3495   19.9533 C   0  0  0  0  0  0
    0.3270   48.6651   20.4180 C   0  0  0  0  0  0
   -0.0994   47.4667   19.8289 C   0  0  0  0  0  0
    0.6480   46.9702   18.7684 C   0  0  0  0  0  0
    1.7609   47.6148   18.3123 C   0  0  0  0  0  0
    2.2114   48.8006   18.8809 C   0  0  0  0  0  0
    2.3102   46.8967   17.2972 O   0  0  0  0  0  0
    1.3607   45.9171   16.9772 C   0  0  0  0  0  0
    0.4620   45.8282   18.0545 O   0  0  0  0  0  0
    0.2995   52.4970   27.6547 C   0  0  0  0  0  0
    5.6184   54.2857   29.2447 H   0  0  0  0  0  0
    4.3040   53.9230   30.3512 H   0  0  0  0  0  0
    4.4746   55.5581   29.6814 H   0  0  0  0  0  0
    2.0805   53.3845   29.5070 H   0  0  0  0  0  0
    1.4831   53.0150   25.3080 H   0  0  0  0  0  0
    5.1307   54.7365   26.8436 H   0  0  0  0  0  0
    5.7841   55.0601   24.7907 H   0  0  0  0  0  0
    5.8554   53.2966   24.6993 H   0  0  0  0  0  0
    5.9055   55.2692   22.5499 H   0  0  0  0  0  0
    6.3155   53.5756   22.4817 H   0  0  0  0  0  0
    2.4546   53.4500   20.2609 H   0  0  0  0  0  0
    3.3376   51.1441   19.1803 H   0  0  0  0  0  0
   -0.2475   49.0660   21.2433 H   0  0  0  0  0  0
   -0.9765   46.9536   20.1925 H   0  0  0  0  0  0
    3.1027   49.2724   18.4829 H   0  0  0  0  0  0
    1.8442   44.9585   16.7940 H   0  0  0  0  0  0
    0.8233   46.2257   16.0781 H   0  0  0  0  0  0
    0.0614   51.8035   26.8478 H   0  0  0  0  0  0
    0.3106   51.9078   28.5715 H   0  0  0  0  0  0
   -0.4963   53.2362   27.7260 H   0  0  0  0  0  0
  1  2  1  0  0  0
  1 31  1  0  0  0
  1 32  1  0  0  0
  1 33  1  0  0  0
  2  7  2  0  0  0
  2  3  1  0  0  0
  3  4  2  0  0  0
  3 34  1  0  0  0
  4  5  1  0  0  0
  4 30  1  0  0  0
  5  6  2  0  0  0
  5 35  1  0  0  0
  6  7  1  0  0  0
  6  8  1  0  0  0
  7 36  1  0  0  0
  8 13  1  0  0  0
  8  9  1  0  0  0
  9 10  1  0  0  0
  9 37  1  0  0  0
  9 38  1  0  0  0
 10 11  1  0  0  0
 10 39  1  0  0  0
 10 40  1  0  0  0
 11 12  1  0  0  0
 11 13  1  0  0  0
 11 15  1  0  0  0
 13 14  2  0  0  0
 15 16  2  0  0  0
 15 17  1  0  0  0
 17 18  1  0  0  0
 17 41  1  0  0  0
 18 19  1  0  0  0
 18 42  1  0  0  0
 19 20  2  0  0  0
 19 21  1  0  0  0
 21 26  2  0  0  0
 21 22  1  0  0  0
 22 23  2  0  0  0
 22 43  1  0  0  0
 23 24  1  0  0  0
 23 44  1  0  0  0
 24 29  1  0  0  0
 24 25  2  0  0  0
 25 26  1  0  0  0
 25 27  1  0  0  0
 26 45  1  0  0  0
 27 28  1  0  0  0
 28 29  1  0  0  0
 28 46  1  0  0  0
 28 47  1  0  0  0
 30 48  1  0  0  0
 30 49  1  0  0  0
 30 50  1  0  0  0
M  END
> <i_i_glide_confnum>
2

> <i_i_glide_lignum>
1383

> <i_i_glide_posenum>
291

> <i_i_glide_rotatable_bonds>
6

> <i_m_Source_File_Index>
3103

> <b_m_subgroup_collapsed>
0

> <r_i_docking_score>
-5.81498

> <r_i_glide_ecoul>
-4.21216

> <r_i_glide_eff_state_penalty>
0

> <r_i_glide_einternal>
3.38131

> <r_i_glide_emodel>
-58.5691

> <r_i_glide_energy>
-43.0612

> <r_i_glide_erotb>
0.625355

> <r_i_glide_esite>
-0.0704445

> <r_i_glide_evdw>
-38.8491

> <r_i_glide_gscore>
-5.81498

> <r_i_glide_hbond>
-0.283179

> <r_i_glide_ligand_efficiency>
-0.200517

> <r_i_glide_ligand_efficiency_ln>
-1.33148

> <r_i_glide_ligand_efficiency_sa>
-0.61605

> <r_i_glide_lipo>
-2.03547

> <r_i_glide_metal>
0

> <r_i_glide_rewards>
-1.47696

> <s_i_glide_gridfile>
wee1_glide-grid

> <s_m_Source_File>
wee1_decoys_glide_SP.sdf

> <s_m_Source_Path>
/Users/zhangxujun/Desktop

> <s_m_entry_id>
3378

> <s_m_entry_name>
wee1_decoys_glide_SP.3103

> <s_m_subgroup_title>
wee1_decoys_glide_SP

> <s_m_subgroupid>
wee1_decoys_glide_SP


$$$$
