ZINC00714618_2794
                    3D
 Schrodinger Suite 2024-2.
 59 63  0  0  1  0            999 V2000
    0.3353   49.3194   25.7401 C   0  0  0  0  0  0
    0.0381   50.8047   26.0988 C   0  0  0  0  0  0
    0.5028   51.7641   24.9670 C   0  0  0  0  0  0
   -0.3003   51.5788   23.6537 C   0  0  0  0  0  0
   -1.5724   51.0725   23.6918 C   0  0  0  0  0  0
   -2.3609   50.7136   22.4093 C   0  0  1  0  0  0
   -3.3342   51.2130   22.4401 H   0  0  0  0  0  0
   -1.6118   51.2020   21.1589 C   0  0  0  0  0  0
   -0.3493   51.6999   21.1973 C   0  0  0  0  0  0
    0.3449   51.8309   22.4194 N   0  0  0  0  0  0
    1.6911   52.2960   22.4085 C   0  0  0  0  0  0
    2.6927   51.5035   21.8331 C   0  0  0  0  0  0
    3.9905   51.9938   21.6812 C   0  0  0  0  0  0
    4.3126   53.2711   22.1331 C   0  0  0  0  0  0
    3.3362   54.0561   22.7371 C   0  0  0  0  0  0
    2.0307   53.5841   22.8598 C   0  0  0  0  0  0
    1.1044   54.3949   23.4145 F   0  0  0  0  0  0
    0.3243   52.1326   20.0658 N   0  0  0  0  0  0
   -2.3568   51.1116   19.8987 C   0  0  0  0  0  0
   -2.8996   52.0955   19.3917 O   0  0  0  0  0  0
   -2.3411   49.8674   19.3710 O   0  0  0  0  0  0
   -3.0136   49.5998   18.1518 C   0  0  0  0  0  0
   -2.7620   49.2262   22.3610 C   0  0  0  0  0  0
   -1.7528   48.2421   22.3202 C   0  0  0  0  0  0
   -2.0685   46.8789   22.3300 C   0  0  0  0  0  0
   -3.4100   46.5293   22.3758 C   0  0  0  0  0  0
   -4.3966   47.4701   22.4030 C   0  0  0  0  0  0
   -4.1141   48.8335   22.4023 C   0  0  0  0  0  0
   -5.6030   46.8475   22.4815 O   0  0  0  0  0  0
   -5.3386   45.4813   22.3027 C   0  0  0  0  0  0
   -3.9569   45.2891   22.4460 O   0  0  0  0  0  0
   -2.2850   50.8415   24.9732 C   0  0  0  0  0  0
   -3.5060   50.6933   25.0211 O   0  0  0  0  0  0
   -1.4863   51.0204   26.2702 C   0  0  0  0  0  0
    0.7034   51.2462   27.4197 C   0  0  0  0  0  0
   -0.0938   48.6473   26.4818 H   0  0  0  0  0  0
   -0.0618   49.0176   24.7732 H   0  0  0  0  0  0
    1.4030   49.1151   25.7188 H   0  0  0  0  0  0
    1.5491   51.5046   24.8261 H   0  0  0  0  0  0
    0.4431   52.8139   25.2553 H   0  0  0  0  0  0
    2.4533   50.5186   21.4585 H   0  0  0  0  0  0
    4.7410   51.3806   21.2065 H   0  0  0  0  0  0
    5.3180   53.6515   22.0192 H   0  0  0  0  0  0
    3.5781   55.0417   23.0989 H   0  0  0  0  0  0
   -0.1019   52.0808   19.1528 H   0  0  0  0  0  0
    1.2277   52.5813   20.1373 H   0  0  0  0  0  0
   -2.8681   48.5542   17.8754 H   0  0  0  0  0  0
   -4.0840   49.7813   18.2497 H   0  0  0  0  0  0
   -2.6276   50.2198   17.3409 H   0  0  0  0  0  0
   -0.7162   48.5446   22.2995 H   0  0  0  0  0  0
   -1.2944   46.1287   22.3145 H   0  0  0  0  0  0
   -4.9077   49.5630   22.4537 H   0  0  0  0  0  0
   -5.8881   44.8889   23.0368 H   0  0  0  0  0  0
   -5.6360   45.1899   21.2924 H   0  0  0  0  0  0
   -1.9156   50.3797   27.0419 H   0  0  0  0  0  0
   -1.6634   52.0531   26.5759 H   0  0  0  0  0  0
    0.3141   50.6653   28.2576 H   0  0  0  0  0  0
    1.7827   51.0988   27.3950 H   0  0  0  0  0  0
    0.5202   52.2975   27.6433 H   0  0  0  0  0  0
  1  2  1  0  0  0
  1 36  1  0  0  0
  1 37  1  0  0  0
  1 38  1  0  0  0
  2 34  1  0  0  0
  2  3  1  0  0  0
  2 35  1  0  0  0
  3  4  1  0  0  0
  3 39  1  0  0  0
  3 40  1  0  0  0
  4 10  1  0  0  0
  4  5  2  0  0  0
  5  6  1  0  0  0
  5 32  1  0  0  0
  6  7  1  0  0  0
  6  8  1  0  0  0
  6 23  1  0  0  0
  8  9  2  0  0  0
  8 19  1  0  0  0
  9 10  1  0  0  0
  9 18  1  0  0  0
 10 11  1  0  0  0
 11 16  2  0  0  0
 11 12  1  0  0  0
 12 13  2  0  0  0
 12 41  1  0  0  0
 13 14  1  0  0  0
 13 42  1  0  0  0
 14 15  2  0  0  0
 14 43  1  0  0  0
 15 16  1  0  0  0
 15 44  1  0  0  0
 16 17  1  0  0  0
 18 45  1  0  0  0
 18 46  1  0  0  0
 19 20  2  0  0  0
 19 21  1  0  0  0
 21 22  1  0  0  0
 22 47  1  0  0  0
 22 48  1  0  0  0
 22 49  1  0  0  0
 23 28  2  0  0  0
 23 24  1  0  0  0
 24 25  2  0  0  0
 24 50  1  0  0  0
 25 26  1  0  0  0
 25 51  1  0  0  0
 26 31  1  0  0  0
 26 27  2  0  0  0
 27 28  1  0  0  0
 27 29  1  0  0  0
 28 52  1  0  0  0
 29 30  1  0  0  0
 30 31  1  0  0  0
 30 53  1  0  0  0
 30 54  1  0  0  0
 32 33  2  0  0  0
 32 34  1  0  0  0
 34 55  1  0  0  0
 34 56  1  0  0  0
 35 57  1  0  0  0
 35 58  1  0  0  0
 35 59  1  0  0  0
M  END
> <i_i_glide_confnum>
22

> <i_i_glide_lignum>
2795

> <i_i_glide_posenum>
40

> <i_i_glide_rotatable_bonds>
4

> <i_m_Source_File_Index>
927

> <b_m_subgroup_collapsed>
0

> <r_i_docking_score>
-3.46916

> <r_i_glide_ecoul>
-5.43232

> <r_i_glide_eff_state_penalty>
0

> <r_i_glide_einternal>
5.03636

> <r_i_glide_emodel>
-37.1485

> <r_i_glide_energy>
-32.7743

> <r_i_glide_erotb>
0.280325

> <r_i_glide_esite>
-0.0503581

> <r_i_glide_evdw>
-27.342

> <r_i_glide_gscore>
-3.46916

> <r_i_glide_hbond>
-0.32

> <r_i_glide_ligand_efficiency>
-0.102034

> <r_i_glide_ligand_efficiency_ln>
-0.766434

> <r_i_glide_ligand_efficiency_sa>
-0.330551

> <r_i_glide_lipo>
-0.761809

> <r_i_glide_metal>
0

> <r_i_glide_rewards>
-0.435368

> <s_i_glide_gridfile>
wee1_glide-grid

> <s_m_Source_File>
wee1_decoys_glide_SP.sdf

> <s_m_Source_Path>
/Users/zhangxujun/Desktop

> <s_m_entry_id>
1202

> <s_m_entry_name>
wee1_decoys_glide_SP.927

> <s_m_subgroup_title>
wee1_decoys_glide_SP

> <s_m_subgroupid>
wee1_decoys_glide_SP


$$$$
