ZINC01035687_2641
                    3D
 Schrodinger Suite 2024-2.
 40 42  0  0  1  0            999 V2000
   -2.3301   46.2276   22.6005 C   0  0  0  0  0  0
   -1.8324   47.1867   23.5787 N   0  0  0  0  0  0
   -1.9919   47.0973   24.9152 C   0  0  0  0  0  0
   -2.4768   46.0969   25.4406 O   0  0  0  0  0  0
   -1.6202   48.1553   25.6811 N   0  0  0  0  0  0
   -1.1670   49.3795   25.3085 C   0  0  0  0  0  0
   -0.9632   49.7450   24.1456 O   0  0  0  0  0  0
   -0.8821   50.3297   26.4734 C   0  0  0  0  0  0
   -1.1414   52.0941   26.1109 S   0  0  0  0  0  0
    0.5451   52.5313   25.8530 C   0  0  0  0  0  0
    1.0950   52.5234   24.6675 N   0  0  0  0  0  0
    2.3720   53.0384   24.8050 N   0  0  0  0  0  0
    2.5691   53.2967   26.0760 C   0  0  0  0  0  0
    1.4197   53.0332   26.8080 N   0  0  0  0  0  0
    1.1624   53.2803   28.1781 C   0  0  0  0  0  0
    1.4170   54.5503   28.7100 C   0  0  0  0  0  0
    1.1412   54.8128   30.0507 C   0  0  0  0  0  0
    0.6104   53.8043   30.8526 C   0  0  0  0  0  0
    0.3407   52.5453   30.3288 C   0  0  0  0  0  0
    0.6247   52.2781   28.9932 C   0  0  0  0  0  0
    0.3017   54.0968   32.5217 Cl  0  0  0  0  0  0
    3.8565   53.7715   26.5990 C   0  0  0  0  0  0
    4.4230   53.5639   27.8578 C   0  0  0  0  0  0
    5.7086   54.0977   27.9877 C   0  0  0  0  0  0
    6.1488   54.7112   26.8316 C   0  0  0  0  0  0
    4.9703   54.6348   25.5704 S   0  0  0  0  0  0
   -2.3207   46.6789   21.6056 H   0  0  0  0  0  0
   -3.3582   45.9322   22.8247 H   0  0  0  0  0  0
   -1.6987   45.3372   22.5744 H   0  0  0  0  0  0
   -1.3845   48.0204   23.2208 H   0  0  0  0  0  0
   -1.6965   48.0236   26.6885 H   0  0  0  0  0  0
   -1.5724   50.1028   27.2814 H   0  0  0  0  0  0
    0.1264   50.1304   26.8342 H   0  0  0  0  0  0
    1.8212   55.3337   28.0835 H   0  0  0  0  0  0
    1.3378   55.7917   30.4617 H   0  0  0  0  0  0
   -0.0953   51.7816   30.9575 H   0  0  0  0  0  0
    0.4202   51.2925   28.6107 H   0  0  0  0  0  0
    3.9284   53.0239   28.6515 H   0  0  0  0  0  0
    6.3065   54.0317   28.8813 H   0  0  0  0  0  0
    7.1004   55.1895   26.6684 H   0  0  0  0  0  0
  1  2  1  0  0  0
  1 27  1  0  0  0
  1 28  1  0  0  0
  1 29  1  0  0  0
  2  3  1  0  0  0
  2 30  1  0  0  0
  3  4  2  0  0  0
  3  5  1  0  0  0
  5  6  1  0  0  0
  5 31  1  0  0  0
  6  7  2  0  0  0
  6  8  1  0  0  0
  8  9  1  0  0  0
  8 32  1  0  0  0
  8 33  1  0  0  0
  9 10  1  0  0  0
 10 14  1  0  0  0
 10 11  2  0  0  0
 11 12  1  0  0  0
 12 13  2  0  0  0
 13 14  1  0  0  0
 13 22  1  0  0  0
 14 15  1  0  0  0
 15 20  2  0  0  0
 15 16  1  0  0  0
 16 17  2  0  0  0
 16 34  1  0  0  0
 17 18  1  0  0  0
 17 35  1  0  0  0
 18 19  2  0  0  0
 18 21  1  0  0  0
 19 20  1  0  0  0
 19 36  1  0  0  0
 20 37  1  0  0  0
 22 26  1  0  0  0
 22 23  2  0  0  0
 23 24  1  0  0  0
 23 38  1  0  0  0
 24 25  2  0  0  0
 24 39  1  0  0  0
 25 26  1  0  0  0
 25 40  1  0  0  0
M  END
> <i_i_glide_confnum>
51

> <i_i_glide_lignum>
2642

> <i_i_glide_posenum>
364

> <i_i_glide_rotatable_bonds>
8

> <i_m_Source_File_Index>
257

> <b_m_subgroup_collapsed>
0

> <r_i_docking_score>
-5.47442

> <r_i_glide_ecoul>
-5.82699

> <r_i_glide_eff_state_penalty>
0

> <r_i_glide_einternal>
3.54102

> <r_i_glide_emodel>
-62.8407

> <r_i_glide_energy>
-48.0692

> <r_i_glide_erotb>
0.827815

> <r_i_glide_esite>
-0.268041

> <r_i_glide_evdw>
-42.2422

> <r_i_glide_gscore>
-5.47442

> <r_i_glide_hbond>
-0.211204

> <r_i_glide_ligand_efficiency>
-0.210554

> <r_i_glide_ligand_efficiency_ln>
-1.28565

> <r_i_glide_ligand_efficiency_sa>
-0.623767

> <r_i_glide_lipo>
-2.38641

> <r_i_glide_metal>
0

> <r_i_glide_rewards>
-0.450415

> <s_i_glide_gridfile>
wee1_glide-grid

> <s_m_Source_File>
wee1_decoys_glide_SP.sdf

> <s_m_Source_Path>
/Users/zhangxujun/Desktop

> <s_m_entry_id>
532

> <s_m_entry_name>
wee1_decoys_glide_SP.257

> <s_m_subgroup_title>
wee1_decoys_glide_SP

> <s_m_subgroupid>
wee1_decoys_glide_SP


$$$$
