ZINC01110968_46
                    3D
 Schrodinger Suite 2024-2.
 46 49  0  0  1  0            999 V2000
    5.0833   54.4650   22.5032 C   0  0  0  0  0  0
    3.7923   54.4316   21.9052 O   0  0  0  0  0  0
    3.0571   53.3054   22.1893 C   0  0  0  0  0  0
    1.9211   53.4332   22.9855 C   0  0  0  0  0  0
    1.1941   52.3114   23.4112 C   0  0  0  0  0  0
    1.6032   51.0409   22.9579 C   0  0  0  0  0  0
    2.6849   50.9225   22.0810 C   0  0  0  0  0  0
    3.4082   52.0464   21.6818 C   0  0  0  0  0  0
    4.4830   51.8884   20.8421 O   0  0  0  0  0  0
    4.3109   52.4684   19.5503 C   0  0  0  0  0  0
    0.7058   49.4381   23.4749 Br  0  0  0  0  0  0
   -0.0694   52.5230   24.2713 C   0  0  2  0  0  0
   -0.2365   53.6011   24.2912 H   0  0  0  0  0  0
   -0.0221   52.0504   25.7512 C   0  0  0  0  0  0
    0.8328   52.1554   26.9043 C   0  0  0  0  0  0
    0.3630   51.4298   27.9123 N   0  0  0  0  0  0
   -0.7798   50.8970   27.5013 N   0  0  0  0  0  0
   -1.2951   50.2067   28.0421 H   0  0  0  0  0  0
   -1.0542   51.2584   26.2287 C   0  0  0  0  0  0
   -2.1899   50.8340   25.5953 O   0  0  0  0  0  0
   -2.2574   51.1990   24.2915 C   0  0  0  0  0  0
   -1.3457   51.9366   23.6087 C   0  0  0  0  0  0
   -1.5221   52.0739   22.1986 C   0  0  0  0  0  0
   -1.6945   52.0964   21.0545 N   0  0  0  0  0  0
   -3.3844   50.6172   23.7783 N   0  0  0  0  0  0
    2.1307   52.8950   27.1359 C   0  0  0  0  0  0
    2.9179   52.6419   28.2748 C   0  0  0  0  0  0
    4.1317   53.2969   28.4681 C   0  0  0  0  0  0
    4.5716   54.2169   27.5228 C   0  0  0  0  0  0
    3.7977   54.4965   26.4011 C   0  0  0  0  0  0
    2.5801   53.8458   26.2236 C   0  0  0  0  0  0
    5.6534   55.2966   22.0913 H   0  0  0  0  0  0
    5.6634   53.5619   22.3207 H   0  0  0  0  0  0
    5.0061   54.6100   23.5810 H   0  0  0  0  0  0
    1.6252   54.4272   23.2858 H   0  0  0  0  0  0
    2.9757   49.9471   21.7183 H   0  0  0  0  0  0
    5.2689   52.4971   19.0325 H   0  0  0  0  0  0
    3.6190   51.8744   18.9513 H   0  0  0  0  0  0
    3.9408   53.4937   19.5782 H   0  0  0  0  0  0
   -3.6359   50.7441   22.8096 H   0  0  0  0  0  0
   -3.8148   49.8520   24.2747 H   0  0  0  0  0  0
    2.6064   51.9152   29.0105 H   0  0  0  0  0  0
    4.7342   53.0819   29.3380 H   0  0  0  0  0  0
    5.5144   54.7242   27.6672 H   0  0  0  0  0  0
    4.1329   55.2253   25.6781 H   0  0  0  0  0  0
    1.9648   54.1064   25.3864 H   0  0  0  0  0  0
  1  2  1  0  0  0
  1 32  1  0  0  0
  1 33  1  0  0  0
  1 34  1  0  0  0
  2  3  1  0  0  0
  3  8  2  0  0  0
  3  4  1  0  0  0
  4  5  2  0  0  0
  4 35  1  0  0  0
  5  6  1  0  0  0
  5 12  1  0  0  0
  6  7  2  0  0  0
  6 11  1  0  0  0
  7  8  1  0  0  0
  7 36  1  0  0  0
  8  9  1  0  0  0
  9 10  1  0  0  0
 10 37  1  0  0  0
 10 38  1  0  0  0
 10 39  1  0  0  0
 12 13  1  0  0  0
 12 22  1  0  0  0
 12 14  1  0  0  0
 14 19  2  0  0  0
 14 15  1  0  0  0
 15 16  2  0  0  0
 15 26  1  0  0  0
 16 17  1  0  0  0
 17 18  1  0  0  0
 17 19  1  0  0  0
 19 20  1  0  0  0
 20 21  1  0  0  0
 21 22  2  0  0  0
 21 25  1  0  0  0
 22 23  1  0  0  0
 23 24  3  0  0  0
 25 40  1  0  0  0
 25 41  1  0  0  0
 26 31  2  0  0  0
 26 27  1  0  0  0
 27 28  2  0  0  0
 27 42  1  0  0  0
 28 29  1  0  0  0
 28 43  1  0  0  0
 29 30  2  0  0  0
 29 44  1  0  0  0
 30 31  1  0  0  0
 30 45  1  0  0  0
 31 46  1  0  0  0
M  END
> <i_i_glide_confnum>
3

> <i_i_glide_lignum>
47

> <i_i_glide_posenum>
207

> <i_i_glide_rotatable_bonds>
5

> <i_m_Source_File_Index>
2135

> <b_m_subgroup_collapsed>
0

> <r_i_docking_score>
-5.11433

> <r_i_glide_ecoul>
-4.20223

> <r_i_glide_eff_state_penalty>
0

> <r_i_glide_einternal>
15.2456

> <r_i_glide_emodel>
-45.1438

> <r_i_glide_energy>
-39.4602

> <r_i_glide_erotb>
0.195375

> <r_i_glide_esite>
-0.109249

> <r_i_glide_evdw>
-35.2579

> <r_i_glide_gscore>
-5.11433

> <r_i_glide_hbond>
-0.196743

> <r_i_glide_ligand_efficiency>
-0.176356

> <r_i_glide_ligand_efficiency_ln>
-1.17105

> <r_i_glide_ligand_efficiency_sa>
-0.541823

> <r_i_glide_lipo>
-2.292

> <r_i_glide_metal>
0

> <r_i_glide_rewards>
-0.318486

> <s_i_glide_gridfile>
wee1_glide-grid

> <s_m_Source_File>
wee1_decoys_glide_SP.sdf

> <s_m_Source_Path>
/Users/zhangxujun/Desktop

> <s_m_entry_id>
2410

> <s_m_entry_name>
wee1_decoys_glide_SP.2135

> <s_m_subgroup_title>
wee1_decoys_glide_SP

> <s_m_subgroupid>
wee1_decoys_glide_SP


$$$$
