ZINC34988619_5304
                    3D
 Schrodinger Suite 2024-2.
 56 60  0  0  1  0            999 V2000
    4.4784   54.4713   29.2969 C   0  0  0  0  0  0
    4.3881   53.9550   27.8536 C   0  0  1  0  0  0
    4.5927   52.8812   27.8751 H   0  0  0  0  0  0
    2.9804   54.2262   27.2990 C   0  0  0  0  0  0
    2.7720   53.5919   25.9149 C   0  0  0  0  0  0
    3.9491   53.9347   24.9842 C   0  0  0  0  0  0
    5.1540   54.4336   25.5082 C   0  0  0  0  0  0
    6.2763   54.8786   24.2798 S   0  0  0  0  0  0
    5.1647   54.3788   23.0276 C   0  0  0  0  0  0
    3.9889   53.7998   23.5613 C   0  0  0  0  0  0
    2.9515   53.1896   22.7254 C   0  0  0  0  0  0
    2.9574   53.2970   21.5032 O   0  0  0  0  0  0
    2.0541   52.4095   23.3511 N   0  0  0  0  0  0
    1.0209   51.6199   22.6821 C   0  0  1  0  0  0
    0.4356   52.2328   21.9889 H   0  0  0  0  0  0
    1.6446   50.4388   21.8892 C   0  0  0  0  0  0
    0.5158   49.5095   21.4246 C   0  0  0  0  0  0
   -0.6917   49.4983   22.8559 S   0  0  0  0  0  0
   -0.4970   48.3022   23.6809 O   0  0  0  0  0  0
   -2.0223   49.8475   22.3484 O   0  0  0  0  0  0
    0.0727   50.9832   23.7129 C   0  0  0  0  0  0
    5.4933   54.4842   21.6716 N   0  0  0  0  0  0
    6.4368   55.2562   21.0871 C   0  0  0  0  0  0
    7.1057   56.0970   21.6824 O   0  0  0  0  0  0
    6.6616   55.0039   19.6736 C   0  0  0  0  0  0
    6.1070   54.0488   18.8130 C   0  0  0  0  0  0
    6.6892   54.0580   17.5085 C   0  0  0  0  0  0
    6.4295   53.2360   16.3956 C   0  0  0  0  0  0
    7.1349   53.4288   15.2083 C   0  0  0  0  0  0
    8.0940   54.4296   15.1017 C   0  0  0  0  0  0
    8.3847   55.2668   16.1755 C   0  0  0  0  0  0
    7.6823   55.0712   17.3757 C   0  0  0  0  0  0
    7.8809   55.9757   18.8612 S   0  0  0  0  0  0
    4.8788   52.8966   19.1842 Cl  0  0  0  0  0  0
    5.4719   54.6330   26.9830 C   0  0  0  0  0  0
    4.0906   55.4857   29.3785 H   0  0  0  0  0  0
    3.8982   53.8442   29.9754 H   0  0  0  0  0  0
    5.5045   54.4969   29.6612 H   0  0  0  0  0  0
    2.2316   53.8313   27.9868 H   0  0  0  0  0  0
    2.7832   55.2971   27.2816 H   0  0  0  0  0  0
    1.8238   53.9518   25.5090 H   0  0  0  0  0  0
    2.6861   52.5107   26.0309 H   0  0  0  0  0  0
    2.0526   52.3973   24.3596 H   0  0  0  0  0  0
    2.3553   49.8948   22.5175 H   0  0  0  0  0  0
    2.2291   50.7950   21.0381 H   0  0  0  0  0  0
    0.7792   48.4974   21.1243 H   0  0  0  0  0  0
    0.0102   49.9851   20.5850 H   0  0  0  0  0  0
   -0.6375   51.6002   24.2621 H   0  0  0  0  0  0
    0.7097   50.5124   24.4647 H   0  0  0  0  0  0
    4.8686   53.9889   21.0465 H   0  0  0  0  0  0
    5.6969   52.4424   16.4663 H   0  0  0  0  0  0
    6.9335   52.7892   14.3605 H   0  0  0  0  0  0
    8.6243   54.5545   14.1680 H   0  0  0  0  0  0
    9.1374   56.0393   16.0910 H   0  0  0  0  0  0
    6.4509   54.2158   27.2280 H   0  0  0  0  0  0
    5.5109   55.6967   27.1963 H   0  0  0  0  0  0
  1  2  1  0  0  0
  1 36  1  0  0  0
  1 37  1  0  0  0
  1 38  1  0  0  0
  2  3  1  0  0  0
  2 35  1  0  0  0
  2  4  1  0  0  0
  4  5  1  0  0  0
  4 39  1  0  0  0
  4 40  1  0  0  0
  5  6  1  0  0  0
  5 41  1  0  0  0
  5 42  1  0  0  0
  6 10  1  0  0  0
  6  7  2  0  0  0
  7  8  1  0  0  0
  7 35  1  0  0  0
  8  9  1  0  0  0
  9 10  2  0  0  0
  9 22  1  0  0  0
 10 11  1  0  0  0
 11 12  2  0  0  0
 11 13  1  0  0  0
 13 14  1  0  0  0
 13 43  1  0  0  0
 14 15  1  0  0  0
 14 21  1  0  0  0
 14 16  1  0  0  0
 16 17  1  0  0  0
 16 44  1  0  0  0
 16 45  1  0  0  0
 17 18  1  0  0  0
 17 46  1  0  0  0
 17 47  1  0  0  0
 18 19  2  0  0  0
 18 20  2  0  0  0
 18 21  1  0  0  0
 21 48  1  0  0  0
 21 49  1  0  0  0
 22 23  1  0  0  0
 22 50  1  0  0  0
 23 24  2  0  0  0
 23 25  1  0  0  0
 25 33  1  0  0  0
 25 26  2  0  0  0
 26 27  1  0  0  0
 26 34  1  0  0  0
 27 32  2  0  0  0
 27 28  1  0  0  0
 28 29  2  0  0  0
 28 51  1  0  0  0
 29 30  1  0  0  0
 29 52  1  0  0  0
 30 31  2  0  0  0
 30 53  1  0  0  0
 31 32  1  0  0  0
 31 54  1  0  0  0
 32 33  1  0  0  0
 35 55  1  0  0  0
 35 56  1  0  0  0
M  END
> <i_i_glide_confnum>
54

> <i_i_glide_lignum>
5305

> <i_i_glide_posenum>
254

> <i_i_glide_rotatable_bonds>
6

> <i_m_Source_File_Index>
1375

> <b_m_subgroup_collapsed>
0

> <r_i_docking_score>
-5.16011

> <r_i_glide_ecoul>
0.0884166

> <r_i_glide_eff_state_penalty>
0

> <r_i_glide_einternal>
5.24211

> <r_i_glide_emodel>
-58.0769

> <r_i_glide_energy>
-44.3144

> <r_i_glide_erotb>
0.451013

> <r_i_glide_esite>
-0.0196381

> <r_i_glide_evdw>
-44.4028

> <r_i_glide_gscore>
-5.16011

> <r_i_glide_hbond>
-0.0297114

> <r_i_glide_ligand_efficiency>
-0.156367

> <r_i_glide_ligand_efficiency_ln>
-1.14758

> <r_i_glide_ligand_efficiency_sa>
-0.501553

> <r_i_glide_lipo>
-2.82673

> <r_i_glide_metal>
0

> <r_i_glide_rewards>
-0.528169

> <s_i_glide_gridfile>
wee1_glide-grid

> <s_m_Source_File>
wee1_decoys_glide_SP.sdf

> <s_m_Source_Path>
/Users/zhangxujun/Desktop

> <s_m_entry_id>
1650

> <s_m_entry_name>
wee1_decoys_glide_SP.1375

> <s_m_subgroup_title>
wee1_decoys_glide_SP

> <s_m_subgroupid>
wee1_decoys_glide_SP


$$$$
