ZINC21045928_3900
                    3D
 Schrodinger Suite 2024-2.
 29 31  0  0  1  0            999 V2000
    2.2929   53.7169   22.9190 C   0  0  0  0  0  0
    3.6339   54.0967   23.0026 C   0  0  0  0  0  0
    4.2499   54.1305   24.2532 C   0  0  0  0  0  0
    3.5644   53.7717   25.4037 C   0  0  0  0  0  0
    2.2196   53.3946   25.3206 C   0  0  0  0  0  0
    1.5843   53.3799   24.0758 C   0  0  0  0  0  0
   -0.2523   52.8954   23.9555 Br  0  0  0  0  0  0
    4.5360   53.8117   26.5393 C   0  0  1  0  0  0
    4.9581   52.8478   26.8250 H   0  0  0  0  0  0
    5.7307   54.5430   25.9016 C   0  0  0  0  0  0
    6.7044   55.0032   26.4971 O   0  0  0  0  0  0
    5.5271   54.5528   24.5769 N   0  0  0  0  0  0
    4.1005   54.4960   27.7420 N   0  0  0  0  0  0
    3.0058   54.1434   28.5502 C   0  0  0  0  0  0
    2.5892   52.8078   28.6311 C   0  0  0  0  0  0
    1.4880   52.4526   29.4067 C   0  0  0  0  0  0
    0.8015   53.4276   30.1246 C   0  0  0  0  0  0
    1.2139   54.7591   30.0678 C   0  0  0  0  0  0
    2.3124   55.1196   29.2827 C   0  0  0  0  0  0
    2.7042   56.4158   29.2562 F   0  0  0  0  0  0
    0.5568   55.6998   30.7844 F   0  0  0  0  0  0
   -0.2583   53.0743   30.8807 F   0  0  0  0  0  0
    1.8000   53.6978   21.9575 H   0  0  0  0  0  0
    4.1633   54.3807   22.1047 H   0  0  0  0  0  0
    1.6559   53.1061   26.1930 H   0  0  0  0  0  0
    6.1808   54.9603   23.9263 H   0  0  0  0  0  0
    4.8624   54.9176   28.2582 H   0  0  0  0  0  0
    3.1093   52.0374   28.0812 H   0  0  0  0  0  0
    1.1612   51.4231   29.4505 H   0  0  0  0  0  0
  1  6  2  0  0  0
  1  2  1  0  0  0
  1 23  1  0  0  0
  2  3  2  0  0  0
  2 24  1  0  0  0
  3 12  1  0  0  0
  3  4  1  0  0  0
  4  5  2  0  0  0
  4  8  1  0  0  0
  5  6  1  0  0  0
  5 25  1  0  0  0
  6  7  1  0  0  0
  8  9  1  0  0  0
  8 10  1  0  0  0
  8 13  1  0  0  0
 10 11  2  0  0  0
 10 12  1  0  0  0
 12 26  1  0  0  0
 13 14  1  0  0  0
 13 27  1  0  0  0
 14 19  2  0  0  0
 14 15  1  0  0  0
 15 16  2  0  0  0
 15 28  1  0  0  0
 16 17  1  0  0  0
 16 29  1  0  0  0
 17 18  2  0  0  0
 17 22  1  0  0  0
 18 19  1  0  0  0
 18 21  1  0  0  0
 19 20  1  0  0  0
M  END
> <i_i_glide_confnum>
3

> <i_i_glide_lignum>
3901

> <i_i_glide_posenum>
227

> <i_i_glide_rotatable_bonds>
2

> <i_m_Source_File_Index>
3011

> <b_m_subgroup_collapsed>
0

> <r_i_docking_score>
-7.08454

> <r_i_glide_ecoul>
-2.22558

> <r_i_glide_eff_state_penalty>
0

> <r_i_glide_einternal>
1.18931

> <r_i_glide_emodel>
-53.4027

> <r_i_glide_energy>
-38.2461

> <r_i_glide_erotb>
0.300151

> <r_i_glide_esite>
-0.0814068

> <r_i_glide_evdw>
-36.0205

> <r_i_glide_gscore>
-7.08454

> <r_i_glide_hbond>
-0.26911

> <r_i_glide_ligand_efficiency>
-0.337359

> <r_i_glide_ligand_efficiency_ln>
-1.75164

> <r_i_glide_ligand_efficiency_sa>
-0.930748

> <r_i_glide_lipo>
-2.80629

> <r_i_glide_metal>
0

> <r_i_glide_rewards>
-2.09302

> <s_i_glide_gridfile>
wee1_glide-grid

> <s_m_Source_File>
wee1_decoys_glide_SP.sdf

> <s_m_Source_Path>
/Users/zhangxujun/Desktop

> <s_m_entry_id>
3286

> <s_m_entry_name>
wee1_decoys_glide_SP.3011

> <s_m_subgroup_title>
wee1_decoys_glide_SP

> <s_m_subgroupid>
wee1_decoys_glide_SP


$$$$
