ZINC41684295_1684
                    3D
 Schrodinger Suite 2024-2.
 45 46  0  0  1  0            999 V2000
    4.7560   54.4968   28.6705 C   0  0  0  0  0  0
    3.3114   54.1571   28.2818 C   0  0  1  0  0  0
    2.7704   55.0938   28.1383 H   0  0  0  0  0  0
    3.2642   53.3191   26.9808 C   0  0  0  0  0  0
    1.9111   52.7355   26.8007 N   0  0  0  0  0  0
    1.4326   51.9912   27.9815 C   0  0  0  0  0  0
    1.4168   52.9527   29.2085 C   0  0  0  0  0  0
    2.7445   53.4476   29.3814 O   0  0  0  0  0  0
    0.4029   54.0968   29.0585 C   0  0  0  0  0  0
    1.1634   52.1539   30.4882 C   0  0  0  0  0  0
    1.2236   52.9455   25.6335 C   0  0  0  0  0  0
    1.7035   53.6957   24.7759 O   0  0  0  0  0  0
   -0.0998   52.1732   25.2440 C   0  0  0  0  0  0
   -1.2413   52.3722   26.3119 C   0  0  0  0  0  0
   -2.5898   52.4788   25.5748 C   0  0  0  0  0  0
   -2.2666   52.5035   24.0834 C   0  0  0  0  0  0
   -0.7871   52.8794   24.0212 C   0  0  0  0  0  0
    0.3049   50.7056   24.9090 C   0  0  0  0  0  0
   -0.0988   49.7824   25.6860 N   0  0  0  0  0  0
    0.2968   48.4967   25.2819 O   0  0  0  0  0  0
    1.0915   50.5748   23.7722 N   0  0  0  0  0  0
    5.2641   55.0431   27.8761 H   0  0  0  0  0  0
    4.7874   55.1172   29.5666 H   0  0  0  0  0  0
    5.3338   53.5948   28.8766 H   0  0  0  0  0  0
    3.9710   52.4968   27.0835 H   0  0  0  0  0  0
    3.6112   53.9218   26.1403 H   0  0  0  0  0  0
    0.5352   51.3976   27.8482 H   0  0  0  0  0  0
    2.1953   51.2330   28.1649 H   0  0  0  0  0  0
   -0.6132   53.7179   29.1256 H   0  0  0  0  0  0
    0.5270   54.8265   29.8593 H   0  0  0  0  0  0
    0.5044   54.6353   28.1166 H   0  0  0  0  0  0
    0.1728   51.6972   30.4806 H   0  0  0  0  0  0
    1.9041   51.3683   30.6147 H   0  0  0  0  0  0
    1.2179   52.7898   31.3724 H   0  0  0  0  0  0
   -1.1067   53.2934   26.8805 H   0  0  0  0  0  0
   -1.3125   51.5761   27.0525 H   0  0  0  0  0  0
   -3.1219   53.3823   25.8757 H   0  0  0  0  0  0
   -3.2394   51.6349   25.8135 H   0  0  0  0  0  0
   -2.8961   53.2024   23.5316 H   0  0  0  0  0  0
   -2.4172   51.5130   23.6508 H   0  0  0  0  0  0
   -0.3530   52.6178   23.0549 H   0  0  0  0  0  0
   -0.7162   53.9679   24.0819 H   0  0  0  0  0  0
    0.0679   47.9528   26.0485 H   0  0  0  0  0  0
    1.4211   49.6514   23.5279 H   0  0  0  0  0  0
    1.5042   51.3840   23.3325 H   0  0  0  0  0  0
  1  2  1  0  0  0
  1 22  1  0  0  0
  1 23  1  0  0  0
  1 24  1  0  0  0
  2  3  1  0  0  0
  2  8  1  0  0  0
  2  4  1  0  0  0
  4  5  1  0  0  0
  4 25  1  0  0  0
  4 26  1  0  0  0
  5  6  1  0  0  0
  5 11  1  0  0  0
  6  7  1  0  0  0
  6 27  1  0  0  0
  6 28  1  0  0  0
  7  8  1  0  0  0
  7  9  1  0  0  0
  7 10  1  0  0  0
  9 29  1  0  0  0
  9 30  1  0  0  0
  9 31  1  0  0  0
 10 32  1  0  0  0
 10 33  1  0  0  0
 10 34  1  0  0  0
 11 12  2  0  0  0
 11 13  1  0  0  0
 13 17  1  0  0  0
 13 14  1  0  0  0
 13 18  1  0  0  0
 14 15  1  0  0  0
 14 35  1  0  0  0
 14 36  1  0  0  0
 15 16  1  0  0  0
 15 37  1  0  0  0
 15 38  1  0  0  0
 16 17  1  0  0  0
 16 39  1  0  0  0
 16 40  1  0  0  0
 17 41  1  0  0  0
 17 42  1  0  0  0
 18 19  2  0  0  0
 18 21  1  0  0  0
 19 20  1  0  0  0
 20 43  1  0  0  0
 21 44  1  0  0  0
 21 45  1  0  0  0
M  END
> <i_i_glide_confnum>
12

> <i_i_glide_lignum>
1685

> <i_i_glide_posenum>
371

> <i_i_glide_rotatable_bonds>
4

> <i_m_Source_File_Index>
3063

> <b_m_subgroup_collapsed>
0

> <r_i_docking_score>
-4.59018

> <r_i_glide_ecoul>
-2.94486

> <r_i_glide_eff_state_penalty>
0

> <r_i_glide_einternal>
3.91231

> <r_i_glide_emodel>
-38.4798

> <r_i_glide_energy>
-31.0131

> <r_i_glide_erotb>
0.902118

> <r_i_glide_esite>
-0.124684

> <r_i_glide_evdw>
-28.0682

> <r_i_glide_gscore>
-4.59018

> <r_i_glide_hbond>
-0.228716

> <r_i_glide_ligand_efficiency>
-0.229509

> <r_i_glide_ligand_efficiency_ln>
-1.14877

> <r_i_glide_ligand_efficiency_sa>
-0.622983

> <r_i_glide_lipo>
-1.37729

> <r_i_glide_metal>
0

> <r_i_glide_rewards>
-1.91647

> <s_i_glide_gridfile>
wee1_glide-grid

> <s_m_Source_File>
wee1_decoys_glide_SP.sdf

> <s_m_Source_Path>
/Users/zhangxujun/Desktop

> <s_m_entry_id>
3338

> <s_m_entry_name>
wee1_decoys_glide_SP.3063

> <s_m_subgroup_title>
wee1_decoys_glide_SP

> <s_m_subgroupid>
wee1_decoys_glide_SP


$$$$
