ZINC02096283_2397
                    3D
 Schrodinger Suite 2024-2.
 67 70  0  0  1  0            999 V2000
    2.6464   55.0456   29.3874 C   0  0  0  0  0  0
    3.8223   54.1997   28.8517 C   0  0  0  0  0  0
    3.8641   52.7989   29.4889 C   0  0  0  0  0  0
    3.8243   54.1260   27.3227 C   0  0  0  0  0  0
    2.6828   53.7031   26.6348 C   0  0  0  0  0  0
    2.6657   53.6996   25.2435 C   0  0  0  0  0  0
    3.7964   54.0928   24.5278 C   0  0  0  0  0  0
    4.9515   54.4960   25.2125 C   0  0  0  0  0  0
    4.9635   54.5014   26.6054 C   0  0  0  0  0  0
    3.6921   54.0363   23.1284 N   0  0  0  0  0  0
    4.6714   53.8036   22.2279 C   0  0  0  0  0  0
    5.8650   53.6466   22.5019 O   0  0  0  0  0  0
    4.1841   53.6804   20.7571 C   0  0  2  0  0  0
    3.5821   54.5650   20.5473 H   0  0  0  0  0  0
    3.2652   52.4187   20.5968 C   0  0  0  0  0  0
    3.9078   51.0804   21.0168 C   0  0  0  0  0  0
    2.7009   52.2858   19.1723 C   0  0  0  0  0  0
    5.2720   53.6795   19.7691 N   0  0  0  0  0  0
    6.0342   54.7407   19.4414 C   0  0  0  0  0  0
    5.9052   55.8301   20.0064 O   0  0  0  0  0  0
    6.9915   54.5117   18.4962 N   0  0  0  0  0  0
    7.7781   55.6397   17.9587 C   0  0  0  0  0  0
    7.2291   55.9806   16.5407 C   0  0  1  0  0  0
    7.7863   56.8151   16.1114 H   0  0  0  0  0  0
    7.4541   54.7710   15.6259 C   0  0  0  0  0  0
    6.6587   53.6002   16.2185 C   0  0  1  0  0  0
    6.8582   52.7091   15.6208 H   0  0  0  0  0  0
    7.0984   53.2798   17.6784 C   0  0  0  0  0  0
    5.1573   53.9014   16.1413 C   0  0  0  0  0  0
    4.2656   52.9185   15.8795 C   0  0  0  0  0  0
    2.8561   53.2415   15.8715 C   0  0  0  0  0  0
    2.4761   54.5056   16.1474 C   0  0  0  0  0  0
    3.4202   55.5758   16.4466 C   0  0  0  0  0  0
    2.9953   56.6928   16.7441 O   0  0  0  0  0  0
    4.7587   55.2328   16.3776 N   0  0  0  0  0  0
    5.7207   56.3685   16.5423 C   0  0  0  0  0  0
    2.6354   56.0350   28.9265 H   0  0  0  0  0  0
    2.7069   55.1963   30.4648 H   0  0  0  0  0  0
    1.6820   54.5774   29.1872 H   0  0  0  0  0  0
    4.7335   54.7149   29.1594 H   0  0  0  0  0  0
    4.7173   52.2254   29.1205 H   0  0  0  0  0  0
    3.9558   52.8597   30.5741 H   0  0  0  0  0  0
    2.9615   52.2298   29.2628 H   0  0  0  0  0  0
    1.8006   53.3946   27.1749 H   0  0  0  0  0  0
    1.7707   53.3759   24.7317 H   0  0  0  0  0  0
    5.8366   54.8117   24.6794 H   0  0  0  0  0  0
    5.8527   54.8227   27.1263 H   0  0  0  0  0  0
    2.7534   54.0906   22.7614 H   0  0  0  0  0  0
    2.3881   52.5622   21.2305 H   0  0  0  0  0  0
    4.8403   50.9006   20.4820 H   0  0  0  0  0  0
    4.1278   51.0596   22.0815 H   0  0  0  0  0  0
    3.2450   50.2382   20.8113 H   0  0  0  0  0  0
    3.4855   52.0449   18.4548 H   0  0  0  0  0  0
    1.9560   51.4920   19.1119 H   0  0  0  0  0  0
    2.2239   53.2116   18.8515 H   0  0  0  0  0  0
    5.3888   52.8154   19.2605 H   0  0  0  0  0  0
    7.8108   56.4960   18.6342 H   0  0  0  0  0  0
    8.8189   55.3183   17.8919 H   0  0  0  0  0  0
    7.1329   54.9826   14.6054 H   0  0  0  0  0  0
    8.5137   54.5210   15.5670 H   0  0  0  0  0  0
    8.1456   52.9754   17.6808 H   0  0  0  0  0  0
    6.5684   52.4274   18.1003 H   0  0  0  0  0  0
    4.5848   51.8953   15.7345 H   0  0  0  0  0  0
    2.1244   52.4760   15.6578 H   0  0  0  0  0  0
    1.4268   54.7587   16.1523 H   0  0  0  0  0  0
    5.4838   56.9158   17.4574 H   0  0  0  0  0  0
    5.5273   57.1020   15.7580 H   0  0  0  0  0  0
  1  2  1  0  0  0
  1 37  1  0  0  0
  1 38  1  0  0  0
  1 39  1  0  0  0
  2  3  1  0  0  0
  2  4  1  0  0  0
  2 40  1  0  0  0
  3 41  1  0  0  0
  3 42  1  0  0  0
  3 43  1  0  0  0
  4  9  2  0  0  0
  4  5  1  0  0  0
  5  6  2  0  0  0
  5 44  1  0  0  0
  6  7  1  0  0  0
  6 45  1  0  0  0
  7  8  2  0  0  0
  7 10  1  0  0  0
  8  9  1  0  0  0
  8 46  1  0  0  0
  9 47  1  0  0  0
 10 11  1  0  0  0
 10 48  1  0  0  0
 11 12  2  0  0  0
 11 13  1  0  0  0
 13 14  1  0  0  0
 13 15  1  0  0  0
 13 18  1  0  0  0
 15 16  1  0  0  0
 15 17  1  0  0  0
 15 49  1  0  0  0
 16 50  1  0  0  0
 16 51  1  0  0  0
 16 52  1  0  0  0
 17 53  1  0  0  0
 17 54  1  0  0  0
 17 55  1  0  0  0
 18 19  1  0  0  0
 18 56  1  0  0  0
 19 20  2  0  0  0
 19 21  1  0  0  0
 21 28  1  0  0  0
 21 22  1  0  0  0
 22 23  1  0  0  0
 22 57  1  0  0  0
 22 58  1  0  0  0
 23 24  1  0  0  0
 23 36  1  0  0  0
 23 25  1  0  0  0
 25 26  1  0  0  0
 25 59  1  0  0  0
 25 60  1  0  0  0
 26 27  1  0  0  0
 26 28  1  0  0  0
 26 29  1  0  0  0
 28 61  1  0  0  0
 28 62  1  0  0  0
 29 35  1  0  0  0
 29 30  2  0  0  0
 30 31  1  0  0  0
 30 63  1  0  0  0
 31 32  2  0  0  0
 31 64  1  0  0  0
 32 33  1  0  0  0
 32 65  1  0  0  0
 33 34  2  0  0  0
 33 35  1  0  0  0
 35 36  1  0  0  0
 36 66  1  0  0  0
 36 67  1  0  0  0
M  END
> <i_i_glide_confnum>
26

> <i_i_glide_lignum>
2398

> <i_i_glide_posenum>
328

> <i_i_glide_rotatable_bonds>
8

> <i_m_Source_File_Index>
4199

> <b_m_subgroup_collapsed>
0

> <r_i_docking_score>
-4.76648

> <r_i_glide_ecoul>
-2.45249

> <r_i_glide_eff_state_penalty>
0

> <r_i_glide_einternal>
5.57687

> <r_i_glide_emodel>
-51.99

> <r_i_glide_energy>
-41.2588

> <r_i_glide_erotb>
0.493805

> <r_i_glide_esite>
-0.0240028

> <r_i_glide_evdw>
-38.8063

> <r_i_glide_gscore>
-4.76648

> <r_i_glide_hbond>
0

> <r_i_glide_ligand_efficiency>
-0.144439

> <r_i_glide_ligand_efficiency_ln>
-1.06004

> <r_i_glide_ligand_efficiency_sa>
-0.463293

> <r_i_glide_lipo>
-2.14035

> <r_i_glide_metal>
0

> <r_i_glide_rewards>
-0.787752

> <s_i_glide_gridfile>
wee1_glide-grid

> <s_m_Source_File>
wee1_decoys_glide_SP.sdf

> <s_m_Source_Path>
/Users/zhangxujun/Desktop

> <s_m_entry_id>
4474

> <s_m_entry_name>
wee1_decoys_glide_SP.4199

> <s_m_subgroup_title>
wee1_decoys_glide_SP

> <s_m_subgroupid>
wee1_decoys_glide_SP


$$$$
