ZINC33006957_5951
                    3D
 Schrodinger Suite 2024-2.
 59 62  0  0  1  0            999 V2000
   -5.5138   44.6683   27.5660 C   0  0  0  0  0  0
   -5.6215   46.1185   27.9978 C   0  0  0  0  0  0
   -4.5965   46.7128   28.7388 C   0  0  0  0  0  0
   -4.6925   48.0524   29.1087 C   0  0  0  0  0  0
   -5.8055   48.8036   28.7215 C   0  0  0  0  0  0
   -6.8297   48.2089   27.9818 C   0  0  0  0  0  0
   -6.7394   46.8660   27.6249 C   0  0  0  0  0  0
   -5.9256   50.5469   29.1311 S   0  0  0  0  0  0
   -7.3395   50.8189   29.4141 O   0  0  0  0  0  0
   -4.8934   50.8913   30.1142 O   0  0  0  0  0  0
   -5.5674   51.4279   27.6289 N   0  0  0  0  0  0
   -4.2940   51.6748   27.0798 C   0  0  0  0  0  0
   -3.1927   50.9239   27.5065 C   0  0  0  0  0  0
   -1.9241   51.1377   26.9789 C   0  0  0  0  0  0
   -1.7096   52.0959   25.9885 C   0  0  0  0  0  0
   -2.8149   52.8247   25.5376 C   0  0  0  0  0  0
   -4.1059   52.6659   26.0783 C   0  0  0  0  0  0
   -5.2058   53.5858   25.5908 C   0  0  0  0  0  0
   -4.8944   54.4969   24.7887 O   0  0  0  0  0  0
   -6.3708   53.4304   26.0222 O   0  5  0  0  0  0
   -0.4357   52.3529   25.4866 N   0  0  0  0  0  0
   -0.1573   52.5101   24.0570 C   0  0  0  0  0  0
    0.9659   53.5226   23.7593 C   0  0  0  0  0  0
    2.2306   53.2656   24.4632 N   0  0  0  0  0  0
    1.9891   53.0279   25.8967 C   0  0  0  0  0  0
    0.7941   52.1142   26.2521 C   0  0  0  0  0  0
    3.4639   53.7104   23.9739 C   0  0  0  0  0  0
    4.4953   54.1170   24.8384 C   0  0  0  0  0  0
    5.7458   54.4977   24.3500 C   0  0  0  0  0  0
    5.9914   54.4888   22.9803 C   0  0  0  0  0  0
    4.9858   54.0960   22.0965 C   0  0  0  0  0  0
    3.7365   53.7126   22.5943 C   0  0  0  0  0  0
    5.2328   54.0958   20.5987 C   0  0  0  0  0  0
   -5.7778   44.5725   26.5094 H   0  0  0  0  0  0
   -6.2032   44.0400   28.1330 H   0  0  0  0  0  0
   -4.4971   44.2871   27.6805 H   0  0  0  0  0  0
   -3.7149   46.1512   29.0177 H   0  0  0  0  0  0
   -3.8865   48.5001   29.6743 H   0  0  0  0  0  0
   -7.6922   48.7852   27.6791 H   0  0  0  0  0  0
   -7.5345   46.4138   27.0493 H   0  0  0  0  0  0
   -6.3406   51.8961   27.1663 H   0  0  0  0  0  0
   -3.2875   50.1596   28.2598 H   0  0  0  0  0  0
   -1.1092   50.5330   27.3504 H   0  0  0  0  0  0
   -2.6556   53.5687   24.7719 H   0  0  0  0  0  0
    0.1242   51.5368   23.6533 H   0  0  0  0  0  0
   -1.0595   52.8064   23.5225 H   0  0  0  0  0  0
    0.6143   54.4972   24.0911 H   0  0  0  0  0  0
    1.1025   53.5889   22.6820 H   0  0  0  0  0  0
    1.7751   54.0070   26.3294 H   0  0  0  0  0  0
    2.8804   52.6397   26.3879 H   0  0  0  0  0  0
    0.5996   52.1578   27.3250 H   0  0  0  0  0  0
    1.1012   51.0896   26.0316 H   0  0  0  0  0  0
    4.3458   54.1424   25.9060 H   0  0  0  0  0  0
    6.5230   54.8018   25.0350 H   0  0  0  0  0  0
    6.9614   54.7899   22.6108 H   0  0  0  0  0  0
    2.9900   53.3884   21.8862 H   0  0  0  0  0  0
    6.1077   54.6894   20.3302 H   0  0  0  0  0  0
    5.3649   53.0772   20.2333 H   0  0  0  0  0  0
    4.3777   54.5286   20.0771 H   0  0  0  0  0  0
  1  2  1  0  0  0
  1 34  1  0  0  0
  1 35  1  0  0  0
  1 36  1  0  0  0
  2  7  2  0  0  0
  2  3  1  0  0  0
  3  4  2  0  0  0
  3 37  1  0  0  0
  4  5  1  0  0  0
  4 38  1  0  0  0
  5  6  2  0  0  0
  5  8  1  0  0  0
  6  7  1  0  0  0
  6 39  1  0  0  0
  7 40  1  0  0  0
  8  9  2  0  0  0
  8 10  2  0  0  0
  8 11  1  0  0  0
 11 12  1  0  0  0
 11 41  1  0  0  0
 12 17  2  0  0  0
 12 13  1  0  0  0
 13 14  2  0  0  0
 13 42  1  0  0  0
 14 15  1  0  0  0
 14 43  1  0  0  0
 15 16  2  0  0  0
 15 21  1  0  0  0
 16 17  1  0  0  0
 16 44  1  0  0  0
 17 18  1  0  0  0
 18 19  2  0  0  0
 18 20  1  0  0  0
 21 26  1  0  0  0
 21 22  1  0  0  0
 22 23  1  0  0  0
 22 45  1  0  0  0
 22 46  1  0  0  0
 23 24  1  0  0  0
 23 47  1  0  0  0
 23 48  1  0  0  0
 24 25  1  0  0  0
 24 27  1  0  0  0
 25 26  1  0  0  0
 25 49  1  0  0  0
 25 50  1  0  0  0
 26 51  1  0  0  0
 26 52  1  0  0  0
 27 32  2  0  0  0
 27 28  1  0  0  0
 28 29  2  0  0  0
 28 53  1  0  0  0
 29 30  1  0  0  0
 29 54  1  0  0  0
 30 31  2  0  0  0
 30 55  1  0  0  0
 31 32  1  0  0  0
 31 33  1  0  0  0
 32 56  1  0  0  0
 33 57  1  0  0  0
 33 58  1  0  0  0
 33 59  1  0  0  0
M  CHG  1  20  -1
M  END
> <i_i_glide_confnum>
163

> <i_i_glide_lignum>
5952

> <i_i_glide_posenum>
69

> <i_i_glide_rotatable_bonds>
6

> <i_m_Source_File_Index>
182

> <b_m_subgroup_collapsed>
0

> <r_i_docking_score>
-4.74891

> <r_i_glide_ecoul>
-3.7506

> <r_i_glide_eff_state_penalty>
0

> <r_i_glide_einternal>
1.13805

> <r_i_glide_emodel>
-52.6214

> <r_i_glide_energy>
-38.502

> <r_i_glide_erotb>
0.467077

> <r_i_glide_esite>
-0.080075

> <r_i_glide_evdw>
-34.7514

> <r_i_glide_gscore>
-4.74891

> <r_i_glide_hbond>
-0.137163

> <r_i_glide_ligand_efficiency>
-0.143906

> <r_i_glide_ligand_efficiency_ln>
-1.05613

> <r_i_glide_ligand_efficiency_sa>
-0.461584

> <r_i_glide_lipo>
-2.08604

> <r_i_glide_metal>
0

> <r_i_glide_rewards>
-0.612541

> <s_i_glide_gridfile>
wee1_glide-grid

> <s_m_Source_File>
wee1_decoys_glide_SP.sdf

> <s_m_Source_Path>
/Users/zhangxujun/Desktop

> <s_m_entry_id>
457

> <s_m_entry_name>
wee1_decoys_glide_SP.182

> <s_m_subgroup_title>
wee1_decoys_glide_SP

> <s_m_subgroupid>
wee1_decoys_glide_SP


$$$$
