ZINC39469265_1441
                    3D
 Schrodinger Suite 2024-2.
 45 48  0  0  1  0            999 V2000
    5.8218   54.2510   26.3321 C   0  0  0  0  0  0
    6.0866   54.3618   27.6962 C   0  0  0  0  0  0
    5.0350   54.3132   28.6089 C   0  0  0  0  0  0
    3.7281   54.1370   28.1550 C   0  0  0  0  0  0
    3.4644   54.0438   26.7881 C   0  0  0  0  0  0
    4.5142   54.0977   25.8740 C   0  0  0  0  0  0
    2.7013   54.1012   29.0617 O   0  0  0  0  0  0
    2.2022   52.6194   29.6661 S   0  0  0  0  0  0
    3.3455   51.6969   29.6904 O   0  0  0  0  0  0
    1.4294   52.8787   30.8834 O   0  0  0  0  0  0
    1.0513   52.1371   28.3584 C   0  0  0  0  0  0
    1.2462   51.0082   27.6476 C   0  0  0  0  0  0
    0.3100   50.6212   26.4831 C   0  0  1  0  0  0
    0.6181   51.2137   25.6177 H   0  0  0  0  0  0
    0.3708   49.1535   26.0437 C   0  0  0  0  0  0
   -0.6549   48.8453   24.9286 C   0  0  1  0  0  0
   -0.5001   49.4939   24.0642 H   0  0  0  0  0  0
   -0.5637   47.3759   24.4817 C   0  0  0  0  0  0
   -1.3608   47.1486   23.3415 O   0  0  0  0  0  0
   -3.0310   47.3017   23.6139 P   0  0  0  0  0  0
   -3.5085   46.0945   24.3863 O   0  0  0  0  0  0
   -3.2069   48.7396   24.6125 N   0  0  0  0  0  0
   -2.0843   49.1933   25.4460 N   0  3  2  0  0  0
   -2.1750   50.7023   25.7516 C   0  0  0  0  0  0
   -1.1428   51.0478   26.8389 C   0  0  2  0  0  0
   -1.4460   50.4967   27.7318 H   0  0  0  0  0  0
   -1.1038   52.4981   27.2830 C   0  0  0  0  0  0
   -0.0965   52.9755   28.0562 C   0  0  0  0  0  0
   -0.1128   54.2577   28.4746 F   0  0  0  0  0  0
   -3.7909   47.4593   22.3200 O   0  5  0  0  0  0
    6.6352   54.2853   25.6217 H   0  0  0  0  0  0
    7.0993   54.4930   28.0498 H   0  0  0  0  0  0
    5.2266   54.4196   29.6676 H   0  0  0  0  0  0
    2.4494   53.9300   26.4372 H   0  0  0  0  0  0
    4.3164   54.0165   24.8150 H   0  0  0  0  0  0
    2.0980   50.3879   27.8772 H   0  0  0  0  0  0
    1.3762   48.8984   25.7012 H   0  0  0  0  0  0
    0.1522   48.4995   26.8816 H   0  0  0  0  0  0
    0.4690   47.1474   24.2320 H   0  0  0  0  0  0
   -0.8623   46.6937   25.2816 H   0  0  0  0  0  0
   -3.8511   49.4487   24.2650 H   0  0  0  0  0  0
   -2.0330   51.2538   24.8217 H   0  0  0  0  0  0
   -3.1924   50.8777   26.1056 H   0  0  0  0  0  0
   -1.9057   53.1580   26.9901 H   0  0  0  0  0  0
   -2.2130   48.7116   26.3266 H   0  0  0  0  0  0
  1  6  2  0  0  0
  1  2  1  0  0  0
  1 31  1  0  0  0
  2  3  2  0  0  0
  2 32  1  0  0  0
  3  4  1  0  0  0
  3 33  1  0  0  0
  4  5  2  0  0  0
  4  7  1  0  0  0
  5  6  1  0  0  0
  5 34  1  0  0  0
  6 35  1  0  0  0
  7  8  1  0  0  0
  8  9  2  0  0  0
  8 10  2  0  0  0
  8 11  1  0  0  0
 11 28  1  0  0  0
 11 12  2  0  0  0
 12 13  1  0  0  0
 12 36  1  0  0  0
 13 14  1  0  0  0
 13 25  1  0  0  0
 13 15  1  0  0  0
 15 16  1  0  0  0
 15 37  1  0  0  0
 15 38  1  0  0  0
 16 17  1  0  0  0
 16 23  1  0  0  0
 16 18  1  0  0  0
 18 19  1  0  0  0
 18 39  1  0  0  0
 18 40  1  0  0  0
 19 20  1  0  0  0
 20 21  2  0  0  0
 20 22  1  0  0  0
 20 30  1  0  0  0
 22 23  1  0  0  0
 22 41  1  0  0  0
 23 24  1  0  0  0
 23 45  1  0  0  0
 24 25  1  0  0  0
 24 42  1  0  0  0
 24 43  1  0  0  0
 25 26  1  0  0  0
 25 27  1  0  0  0
 27 28  2  0  0  0
 27 44  1  0  0  0
 28 29  1  0  0  0
M  CHG  2  23   1  30  -1
M  END
> <i_i_glide_confnum>
7

> <i_i_glide_lignum>
1442

> <i_i_glide_posenum>
189

> <i_i_glide_rotatable_bonds>
3

> <i_m_Source_File_Index>
2644

> <b_m_subgroup_collapsed>
0

> <r_i_docking_score>
-5.45565

> <r_i_glide_ecoul>
-6.46956

> <r_i_glide_eff_state_penalty>
0

> <r_i_glide_einternal>
0.466792

> <r_i_glide_emodel>
-53.3986

> <r_i_glide_energy>
-37.3115

> <r_i_glide_erotb>
0.341871

> <r_i_glide_esite>
-0.155938

> <r_i_glide_evdw>
-30.842

> <r_i_glide_gscore>
-5.45565

> <r_i_glide_hbond>
-0.172256

> <r_i_glide_ligand_efficiency>
-0.202061

> <r_i_glide_ligand_efficiency_ln>
-1.26999

> <r_i_glide_ligand_efficiency_sa>
-0.606183

> <r_i_glide_lipo>
-1.78139

> <r_i_glide_metal>
0

> <r_i_glide_rewards>
-1.1754

> <s_i_glide_gridfile>
wee1_glide-grid

> <s_m_Source_File>
wee1_decoys_glide_SP.sdf

> <s_m_Source_Path>
/Users/zhangxujun/Desktop

> <s_m_entry_id>
2919

> <s_m_entry_name>
wee1_decoys_glide_SP.2644

> <s_m_subgroup_title>
wee1_decoys_glide_SP

> <s_m_subgroupid>
wee1_decoys_glide_SP


$$$$
