ZINC33492032_4493
                    3D
 Schrodinger Suite 2024-2.
 63 66  0  0  1  0            999 V2000
   -0.2464   48.5239   24.8980 C   0  0  0  0  0  0
   -0.6280   49.8416   25.5957 C   0  0  2  0  0  0
   -0.5990   49.6602   26.6751 H   0  0  0  0  0  0
   -2.0450   50.2678   25.2109 C   0  0  0  0  0  0
   -2.2800   50.8367   23.9556 C   0  0  0  0  0  0
   -3.5573   51.2541   23.6107 C   0  0  0  0  0  0
   -4.6052   51.1056   24.5184 C   0  0  0  0  0  0
   -4.3793   50.5372   25.7723 C   0  0  0  0  0  0
   -3.0972   50.1177   26.1199 C   0  0  0  0  0  0
    0.3798   50.8674   25.3163 N   0  0  0  0  0  0
    0.4563   52.0726   25.9059 C   0  0  0  0  0  0
   -0.3507   52.4815   26.7437 O   0  0  0  0  0  0
    1.6486   52.8982   25.4877 C   0  0  0  0  0  0
    1.9178   53.0192   24.1148 C   0  0  0  0  0  0
    2.9784   53.7871   23.6484 C   0  0  0  0  0  0
    3.7644   54.4962   24.5689 C   0  0  0  0  0  0
    3.4850   54.4183   25.9306 C   0  0  0  0  0  0
    2.4406   53.6210   26.4143 C   0  0  0  0  0  0
    2.2510   53.5859   27.8041 N   0  0  0  0  0  0
    1.8493   54.7348   28.6144 C   0  0  0  0  0  0
    1.8954   54.2902   30.0691 C   0  0  0  0  0  0
    1.6029   52.8048   29.9827 C   0  0  0  0  0  0
    2.2763   52.4018   28.6724 C   0  0  0  0  0  0
    3.1839   53.8071   22.2562 N   0  0  0  0  0  0
    4.3409   54.0025   21.5976 C   0  0  0  0  0  0
    5.4267   54.2145   22.1396 O   0  0  0  0  0  0
    4.1467   53.9001   20.2686 N   0  0  0  0  0  0
    5.0784   54.0828   19.2280 C   0  0  0  0  0  0
    4.7359   53.5629   17.9758 C   0  0  0  0  0  0
    5.6085   53.6952   16.8958 C   0  0  0  0  0  0
    6.8280   54.3504   17.0576 C   0  0  0  0  0  0
    7.1809   54.8899   18.2983 C   0  0  0  0  0  0
    6.2972   54.7641   19.3767 C   0  0  0  0  0  0
    8.5225   55.5991   18.4588 C   0  0  0  0  0  0
    8.5359   56.7003   17.7058 F   0  0  0  0  0  0
    8.7453   55.9534   19.7253 F   0  0  0  0  0  0
    9.5082   54.7901   18.0664 F   0  0  0  0  0  0
   -0.9501   47.7294   25.1480 H   0  0  0  0  0  0
   -0.2301   48.6303   23.8126 H   0  0  0  0  0  0
    0.7401   48.1871   25.2155 H   0  0  0  0  0  0
   -1.4682   50.9590   23.2540 H   0  0  0  0  0  0
   -3.7145   51.6937   22.6408 H   0  0  0  0  0  0
   -5.5994   51.4358   24.2505 H   0  0  0  0  0  0
   -5.1909   50.4240   26.4760 H   0  0  0  0  0  0
   -2.9176   49.6893   27.0960 H   0  0  0  0  0  0
    1.1105   50.6017   24.6704 H   0  0  0  0  0  0
    1.2948   52.5041   23.3924 H   0  0  0  0  0  0
    4.5848   55.1189   24.2454 H   0  0  0  0  0  0
    4.1031   54.9712   26.6220 H   0  0  0  0  0  0
    2.5435   55.5593   28.4509 H   0  0  0  0  0  0
    0.8524   55.0722   28.3289 H   0  0  0  0  0  0
    2.8847   54.4871   30.4797 H   0  0  0  0  0  0
    1.1673   54.8189   30.6850 H   0  0  0  0  0  0
    0.5318   52.6009   29.9384 H   0  0  0  0  0  0
    2.0004   52.2618   30.8409 H   0  0  0  0  0  0
    1.7088   51.5828   28.2307 H   0  0  0  0  0  0
    3.3001   52.0696   28.8513 H   0  0  0  0  0  0
    2.3841   53.5561   21.6940 H   0  0  0  0  0  0
    3.2248   53.6240   19.9617 H   0  0  0  0  0  0
    3.8029   53.0350   17.8338 H   0  0  0  0  0  0
    5.3444   53.2797   15.9366 H   0  0  0  0  0  0
    7.5024   54.4422   16.2152 H   0  0  0  0  0  0
    6.5701   55.2008   20.3216 H   0  0  0  0  0  0
  1  2  1  0  0  0
  1 38  1  0  0  0
  1 39  1  0  0  0
  1 40  1  0  0  0
  2  3  1  0  0  0
  2  4  1  0  0  0
  2 10  1  0  0  0
  4  9  2  0  0  0
  4  5  1  0  0  0
  5  6  2  0  0  0
  5 41  1  0  0  0
  6  7  1  0  0  0
  6 42  1  0  0  0
  7  8  2  0  0  0
  7 43  1  0  0  0
  8  9  1  0  0  0
  8 44  1  0  0  0
  9 45  1  0  0  0
 10 11  1  0  0  0
 10 46  1  0  0  0
 11 12  2  0  0  0
 11 13  1  0  0  0
 13 18  2  0  0  0
 13 14  1  0  0  0
 14 15  2  0  0  0
 14 47  1  0  0  0
 15 16  1  0  0  0
 15 24  1  0  0  0
 16 17  2  0  0  0
 16 48  1  0  0  0
 17 18  1  0  0  0
 17 49  1  0  0  0
 18 19  1  0  0  0
 19 23  1  0  0  0
 19 20  1  0  0  0
 20 21  1  0  0  0
 20 50  1  0  0  0
 20 51  1  0  0  0
 21 22  1  0  0  0
 21 52  1  0  0  0
 21 53  1  0  0  0
 22 23  1  0  0  0
 22 54  1  0  0  0
 22 55  1  0  0  0
 23 56  1  0  0  0
 23 57  1  0  0  0
 24 25  1  0  0  0
 24 58  1  0  0  0
 25 26  2  0  0  0
 25 27  1  0  0  0
 27 28  1  0  0  0
 27 59  1  0  0  0
 28 33  2  0  0  0
 28 29  1  0  0  0
 29 30  2  0  0  0
 29 60  1  0  0  0
 30 31  1  0  0  0
 30 61  1  0  0  0
 31 32  2  0  0  0
 31 62  1  0  0  0
 32 33  1  0  0  0
 32 34  1  0  0  0
 33 63  1  0  0  0
 34 35  1  0  0  0
 34 36  1  0  0  0
 34 37  1  0  0  0
M  END
> <i_i_glide_confnum>
126

> <i_i_glide_lignum>
4494

> <i_i_glide_posenum>
389

> <i_i_glide_rotatable_bonds>
10

> <i_m_Source_File_Index>
3405

> <b_m_subgroup_collapsed>
0

> <r_i_docking_score>
-4.91611

> <r_i_glide_ecoul>
-3.1678

> <r_i_glide_eff_state_penalty>
0

> <r_i_glide_einternal>
5.03464

> <r_i_glide_emodel>
-58.8841

> <r_i_glide_energy>
-46.439

> <r_i_glide_erotb>
0.661741

> <r_i_glide_esite>
-0.00243261

> <r_i_glide_evdw>
-43.2712

> <r_i_glide_gscore>
-4.91611

> <r_i_glide_hbond>
0

> <r_i_glide_ligand_efficiency>
-0.136559

> <r_i_glide_ligand_efficiency_ln>
-1.07256

> <r_i_glide_ligand_efficiency_sa>
-0.450907

> <r_i_glide_lipo>
-2.11393

> <r_i_glide_metal>
0

> <r_i_glide_rewards>
-0.822754

> <s_i_glide_gridfile>
wee1_glide-grid

> <s_m_Source_File>
wee1_decoys_glide_SP.sdf

> <s_m_Source_Path>
/Users/zhangxujun/Desktop

> <s_m_entry_id>
3680

> <s_m_entry_name>
wee1_decoys_glide_SP.3405

> <s_m_subgroup_title>
wee1_decoys_glide_SP

> <s_m_subgroupid>
wee1_decoys_glide_SP


$$$$
