ZINC02188618_5276
                    3D
 Schrodinger Suite 2024-2.
 60 63  0  0  1  0            999 V2000
    0.1844   49.2305   25.3704 C   0  0  0  0  0  0
   -0.1325   50.7006   25.7696 C   0  0  0  0  0  0
    0.4130   51.7087   24.7132 C   0  0  0  0  0  0
   -0.3183   51.6101   23.3461 C   0  0  0  0  0  0
   -1.5867   51.0983   23.2795 C   0  0  0  0  0  0
   -2.2813   50.7845   21.9333 C   0  0  1  0  0  0
   -3.2970   51.1890   21.9306 H   0  0  0  0  0  0
   -1.5036   51.4138   20.7659 C   0  0  0  0  0  0
   -0.2489   51.9152   20.9066 C   0  0  0  0  0  0
    0.3847   51.9529   22.1669 N   0  0  0  0  0  0
    1.7044   52.4783   22.2650 C   0  0  0  0  0  0
    1.9302   53.6956   22.9194 C   0  0  0  0  0  0
    3.2136   54.2246   22.9916 C   0  0  0  0  0  0
    4.2706   53.5676   22.3698 C   0  0  0  0  0  0
    4.0562   52.3738   21.6818 C   0  0  0  0  0  0
    2.7790   51.8170   21.6522 C   0  0  0  0  0  0
    6.0209   54.3088   22.4813 Br  0  0  0  0  0  0
    0.4472   52.4934   19.8573 N   0  0  0  0  0  0
   -2.1993   51.3863   19.4665 C   0  0  0  0  0  0
   -3.2950   51.9268   19.2939 O   0  0  0  0  0  0
   -1.5238   50.6926   18.5229 O   0  0  0  0  0  0
   -2.0571   50.5454   17.2148 C   0  0  0  0  0  0
   -2.5379   49.2721   21.7636 C   0  0  0  0  0  0
   -1.4904   48.4285   21.3787 C   0  0  0  0  0  0
   -1.6949   47.0563   21.2728 C   0  0  0  0  0  0
   -2.9507   46.5025   21.5619 C   0  0  0  0  0  0
   -3.9955   47.3459   21.9380 C   0  0  0  0  0  0
   -3.7960   48.7214   22.0325 C   0  0  0  0  0  0
   -3.2346   45.1507   21.5080 O   0  0  0  0  0  0
   -2.2393   44.2566   21.0269 C   0  0  0  0  0  0
   -2.3796   50.8089   24.5017 C   0  0  0  0  0  0
   -3.6033   50.6900   24.4690 O   0  0  0  0  0  0
   -1.6618   50.9169   25.8524 C   0  0  0  0  0  0
    0.4349   51.0756   27.1577 C   0  0  0  0  0  0
   -0.2491   48.5207   26.0802 H   0  0  0  0  0  0
   -0.1907   48.9630   24.3830 H   0  0  0  0  0  0
    1.2583   49.0443   25.3596 H   0  0  0  0  0  0
    1.4662   51.4437   24.6090 H   0  0  0  0  0  0
    0.3475   52.7425   25.0518 H   0  0  0  0  0  0
    1.1089   54.2314   23.3718 H   0  0  0  0  0  0
    3.3833   55.1511   23.5180 H   0  0  0  0  0  0
    4.8773   51.8715   21.1909 H   0  0  0  0  0  0
    2.6155   50.8857   21.1264 H   0  0  0  0  0  0
    0.1052   52.4300   18.9100 H   0  0  0  0  0  0
    1.2626   53.0689   20.0232 H   0  0  0  0  0  0
   -1.3724   49.9605   16.5993 H   0  0  0  0  0  0
   -3.0172   50.0283   17.2399 H   0  0  0  0  0  0
   -2.1996   51.5162   16.7385 H   0  0  0  0  0  0
   -0.5104   48.8377   21.1732 H   0  0  0  0  0  0
   -0.8618   46.4376   20.9786 H   0  0  0  0  0  0
   -4.9661   46.9302   22.1622 H   0  0  0  0  0  0
   -4.6178   49.3545   22.3372 H   0  0  0  0  0  0
   -2.6547   43.2503   20.9957 H   0  0  0  0  0  0
   -1.3666   44.2359   21.6822 H   0  0  0  0  0  0
   -1.9203   44.5137   20.0146 H   0  0  0  0  0  0
   -2.1383   50.2443   26.5677 H   0  0  0  0  0  0
   -1.8512   51.9337   26.1987 H   0  0  0  0  0  0
   -0.0492   50.4970   27.9447 H   0  0  0  0  0  0
    1.5041   50.8814   27.2338 H   0  0  0  0  0  0
    0.2770   52.1282   27.3952 H   0  0  0  0  0  0
  1  2  1  0  0  0
  1 35  1  0  0  0
  1 36  1  0  0  0
  1 37  1  0  0  0
  2 33  1  0  0  0
  2  3  1  0  0  0
  2 34  1  0  0  0
  3  4  1  0  0  0
  3 38  1  0  0  0
  3 39  1  0  0  0
  4 10  1  0  0  0
  4  5  2  0  0  0
  5  6  1  0  0  0
  5 31  1  0  0  0
  6  7  1  0  0  0
  6  8  1  0  0  0
  6 23  1  0  0  0
  8  9  2  0  0  0
  8 19  1  0  0  0
  9 10  1  0  0  0
  9 18  1  0  0  0
 10 11  1  0  0  0
 11 16  2  0  0  0
 11 12  1  0  0  0
 12 13  2  0  0  0
 12 40  1  0  0  0
 13 14  1  0  0  0
 13 41  1  0  0  0
 14 15  2  0  0  0
 14 17  1  0  0  0
 15 16  1  0  0  0
 15 42  1  0  0  0
 16 43  1  0  0  0
 18 44  1  0  0  0
 18 45  1  0  0  0
 19 20  2  0  0  0
 19 21  1  0  0  0
 21 22  1  0  0  0
 22 46  1  0  0  0
 22 47  1  0  0  0
 22 48  1  0  0  0
 23 28  2  0  0  0
 23 24  1  0  0  0
 24 25  2  0  0  0
 24 49  1  0  0  0
 25 26  1  0  0  0
 25 50  1  0  0  0
 26 27  2  0  0  0
 26 29  1  0  0  0
 27 28  1  0  0  0
 27 51  1  0  0  0
 28 52  1  0  0  0
 29 30  1  0  0  0
 30 53  1  0  0  0
 30 54  1  0  0  0
 30 55  1  0  0  0
 31 32  2  0  0  0
 31 33  1  0  0  0
 33 56  1  0  0  0
 33 57  1  0  0  0
 34 58  1  0  0  0
 34 59  1  0  0  0
 34 60  1  0  0  0
M  END
> <i_i_glide_confnum>
31

> <i_i_glide_lignum>
5277

> <i_i_glide_posenum>
147

> <i_i_glide_rotatable_bonds>
5

> <i_m_Source_File_Index>
4984

> <b_m_subgroup_collapsed>
0

> <r_i_docking_score>
-3.4425

> <r_i_glide_ecoul>
-4.73348

> <r_i_glide_eff_state_penalty>
0

> <r_i_glide_einternal>
2.18023

> <r_i_glide_emodel>
-41.0547

> <r_i_glide_energy>
-34.6799

> <r_i_glide_erotb>
0.235066

> <r_i_glide_esite>
-0.061003

> <r_i_glide_evdw>
-29.9464

> <r_i_glide_gscore>
-3.4425

> <r_i_glide_hbond>
-0.329834

> <r_i_glide_ligand_efficiency>
-0.104318

> <r_i_glide_ligand_efficiency_ln>
-0.765595

> <r_i_glide_ligand_efficiency_sa>
-0.334605

> <r_i_glide_lipo>
-1.01662

> <r_i_glide_metal>
0

> <r_i_glide_rewards>
-0.0627663

> <s_i_glide_gridfile>
wee1_glide-grid

> <s_m_Source_File>
wee1_decoys_glide_SP.sdf

> <s_m_Source_Path>
/Users/zhangxujun/Desktop

> <s_m_entry_id>
5259

> <s_m_entry_name>
wee1_decoys_glide_SP.4984

> <s_m_subgroup_title>
wee1_decoys_glide_SP

> <s_m_subgroupid>
wee1_decoys_glide_SP


$$$$
