ZINC15946720_3463
                    3D
 Schrodinger Suite 2024-2.
 74 77  0  0  1  0            999 V2000
    6.5822   54.9979   17.1062 C   0  0  0  0  0  0
    6.7946   55.1388   18.6022 C   0  0  0  0  0  0
    8.0222   55.5790   19.1045 C   0  0  0  0  0  0
    8.2127   55.6967   20.4796 C   0  0  0  0  0  0
    7.1825   55.3733   21.3608 C   0  0  0  0  0  0
    5.9561   54.8985   20.8688 C   0  0  0  0  0  0
    5.7664   54.8023   19.4862 C   0  0  0  0  0  0
    4.8812   54.4965   21.6754 N   0  0  0  0  0  0
    4.8876   54.0969   22.9657 C   0  0  0  0  0  0
    5.8881   54.0952   23.6818 O   0  0  0  0  0  0
    3.5812   53.6840   23.4662 C   0  0  0  0  0  0
    3.2160   53.6969   24.8474 C   0  0  0  0  0  0
    1.9481   53.1297   25.0724 C   0  0  0  0  0  0
    1.1493   52.6842   23.6102 S   0  0  0  0  0  0
    2.5486   53.0994   22.6884 C   0  0  0  0  0  0
    2.4701   52.7779   21.3426 N   0  0  0  0  0  0
    3.3021   51.9100   20.7164 C   0  0  0  0  0  0
    4.2313   51.3300   21.2816 O   0  0  0  0  0  0
    3.1045   51.6328   19.2136 C   0  0  0  0  0  0
    1.9503   52.3649   17.0884 C   0  0  0  0  0  0
    0.6482   52.9664   16.5274 C   0  0  0  0  0  0
   -0.5606   52.0643   16.8462 C   0  0  1  0  0  0
   -0.6845   51.9316   18.3777 C   0  0  0  0  0  0
    0.5857   51.3065   18.9779 C   0  0  0  0  0  0
   -1.8546   52.6084   16.2179 C   0  0  0  0  0  0
    1.3406   52.8420   26.4415 C   0  0  0  0  0  0
    2.0031   53.7606   27.5057 C   0  0  2  0  0  0
    1.7518   54.7980   27.2820 H   0  0  0  0  0  0
    3.5411   53.6234   27.3585 C   0  0  0  0  0  0
    4.0676   54.1935   26.0270 C   0  0  0  0  0  0
    1.4962   53.5046   28.9781 C   0  0  0  0  0  0
    1.8924   54.7047   29.8755 C   0  0  0  0  0  0
    2.0751   52.2062   29.5943 C   0  0  0  0  0  0
   -0.0484   53.3998   29.0183 C   0  0  0  0  0  0
    7.5302   54.9697   16.5674 H   0  0  0  0  0  0
    5.9799   55.8235   16.7260 H   0  0  0  0  0  0
    6.0599   54.0654   16.8849 H   0  0  0  0  0  0
    8.8304   55.8310   18.4334 H   0  0  0  0  0  0
    9.1603   56.0448   20.8634 H   0  0  0  0  0  0
    7.3685   55.4883   22.4177 H   0  0  0  0  0  0
    4.8245   54.4459   19.0933 H   0  0  0  0  0  0
    3.9956   54.4113   21.2015 H   0  0  0  0  0  0
    1.6212   53.0549   20.8713 H   0  0  0  0  0  0
    3.9317   52.0963   18.6728 H   0  0  0  0  0  0
    3.1150   50.5661   18.9782 H   0  0  0  0  0  0
    2.7865   53.0457   16.9134 H   0  0  0  0  0  0
    2.1841   51.3795   16.6778 H   0  0  0  0  0  0
    0.4901   53.9774   16.9115 H   0  0  0  0  0  0
    0.7372   53.0967   15.4474 H   0  0  0  0  0  0
   -0.3649   51.0728   16.4307 H   0  0  0  0  0  0
   -1.5532   51.3171   18.6272 H   0  0  0  0  0  0
   -0.8946   52.9000   18.8345 H   0  0  0  0  0  0
    0.7906   50.3071   18.5848 H   0  0  0  0  0  0
    0.5090   51.2660   20.0650 H   0  0  0  0  0  0
   -2.1063   53.6001   16.6000 H   0  0  0  0  0  0
   -1.7672   52.6870   15.1332 H   0  0  0  0  0  0
   -2.7026   51.9533   16.4258 H   0  0  0  0  0  0
    0.2585   52.9641   26.4020 H   0  0  0  0  0  0
    1.5043   51.7930   26.6900 H   0  0  0  0  0  0
    4.0443   54.1717   28.1529 H   0  0  0  0  0  0
    3.8532   52.5886   27.5080 H   0  0  0  0  0  0
    5.1109   53.8938   25.9433 H   0  0  0  0  0  0
    4.0591   55.2832   26.0526 H   0  0  0  0  0  0
    1.5123   55.6468   29.4779 H   0  0  0  0  0  0
    1.4852   54.6008   30.8815 H   0  0  0  0  0  0
    2.9727   54.8090   29.9722 H   0  0  0  0  0  0
    1.8704   51.3337   28.9732 H   0  0  0  0  0  0
    3.1564   52.2644   29.7315 H   0  0  0  0  0  0
    1.6450   52.0080   30.5782 H   0  0  0  0  0  0
   -0.4117   52.4758   28.5658 H   0  0  0  0  0  0
   -0.4366   53.4164   30.0391 H   0  0  0  0  0  0
   -0.4965   54.2302   28.4767 H   0  0  0  0  0  0
    1.7911   52.2205   18.6236 N   0  3  1  0  0  0
    1.6389   53.1525   18.9889 H   0  0  0  0  0  0
  1  2  1  0  0  0
  1 35  1  0  0  0
  1 36  1  0  0  0
  1 37  1  0  0  0
  2  7  2  0  0  0
  2  3  1  0  0  0
  3  4  2  0  0  0
  3 38  1  0  0  0
  4  5  1  0  0  0
  4 39  1  0  0  0
  5  6  2  0  0  0
  5 40  1  0  0  0
  6  7  1  0  0  0
  6  8  1  0  0  0
  7 41  1  0  0  0
  8  9  1  0  0  0
  8 42  1  0  0  0
  9 10  2  0  0  0
  9 11  1  0  0  0
 11 15  2  0  0  0
 11 12  1  0  0  0
 12 30  1  0  0  0
 12 13  2  0  0  0
 13 14  1  0  0  0
 13 26  1  0  0  0
 14 15  1  0  0  0
 15 16  1  0  0  0
 16 17  1  0  0  0
 16 43  1  0  0  0
 17 18  2  0  0  0
 17 19  1  0  0  0
 19 44  1  0  0  0
 19 45  1  0  0  0
 19 73  1  0  0  0
 20 21  1  0  0  0
 20 46  1  0  0  0
 20 47  1  0  0  0
 20 73  1  0  0  0
 21 22  1  0  0  0
 21 48  1  0  0  0
 21 49  1  0  0  0
 22 23  1  0  0  0
 22 25  1  0  0  0
 22 50  1  0  0  0
 23 24  1  0  0  0
 23 51  1  0  0  0
 23 52  1  0  0  0
 24 53  1  0  0  0
 24 54  1  0  0  0
 24 73  1  0  0  0
 25 55  1  0  0  0
 25 56  1  0  0  0
 25 57  1  0  0  0
 26 27  1  0  0  0
 26 58  1  0  0  0
 26 59  1  0  0  0
 27 28  1  0  0  0
 27 29  1  0  0  0
 27 31  1  0  0  0
 29 30  1  0  0  0
 29 60  1  0  0  0
 29 61  1  0  0  0
 30 62  1  0  0  0
 30 63  1  0  0  0
 31 32  1  0  0  0
 31 33  1  0  0  0
 31 34  1  0  0  0
 32 64  1  0  0  0
 32 65  1  0  0  0
 32 66  1  0  0  0
 33 67  1  0  0  0
 33 68  1  0  0  0
 33 69  1  0  0  0
 34 70  1  0  0  0
 34 71  1  0  0  0
 34 72  1  0  0  0
 73 74  1  0  0  0
M  CHG  1  73   1
M  END
> <i_i_glide_confnum>
66

> <i_i_glide_lignum>
3464

> <i_i_glide_posenum>
313

> <i_i_glide_rotatable_bonds>
8

> <i_m_Source_File_Index>
3890

> <b_m_subgroup_collapsed>
0

> <r_i_docking_score>
-5.83387

> <r_i_glide_ecoul>
-6.22964

> <r_i_glide_eff_state_penalty>
0

> <r_i_glide_einternal>
15.6779

> <r_i_glide_emodel>
-59.504

> <r_i_glide_energy>
-48.2368

> <r_i_glide_erotb>
0.609731

> <r_i_glide_esite>
-0.0629251

> <r_i_glide_evdw>
-42.0071

> <r_i_glide_gscore>
-5.83387

> <r_i_glide_hbond>
-0.0375449

> <r_i_glide_ligand_efficiency>
-0.171585

> <r_i_glide_ligand_efficiency_ln>
-1.28887

> <r_i_glide_ligand_efficiency_sa>
-0.555867

> <r_i_glide_lipo>
-2.84851

> <r_i_glide_metal>
0

> <r_i_glide_rewards>
-0.459826

> <s_i_glide_gridfile>
wee1_glide-grid

> <s_m_Source_File>
wee1_decoys_glide_SP.sdf

> <s_m_Source_Path>
/Users/zhangxujun/Desktop

> <s_m_entry_id>
4165

> <s_m_entry_name>
wee1_decoys_glide_SP.3890

> <s_m_subgroup_title>
wee1_decoys_glide_SP

> <s_m_subgroupid>
wee1_decoys_glide_SP


$$$$
