ZINC40684222_3942
                    3D
 Schrodinger Suite 2024-2.
 59 62  0  0  1  0            999 V2000
    6.5091   54.2486   25.4229 C   0  0  0  0  0  0
    5.5095   54.1728   26.5599 C   0  0  0  0  0  0
    5.8778   54.5241   27.8571 C   0  0  0  0  0  0
    4.9345   54.5001   28.8819 C   0  0  0  0  0  0
    3.6199   54.1108   28.6281 C   0  0  0  0  0  0
    3.2532   53.6909   27.3373 C   0  0  0  0  0  0
    4.2083   53.7386   26.3117 C   0  0  0  0  0  0
    1.9541   53.1891   27.1338 N   0  0  0  0  0  0
    1.1956   52.8974   25.9828 C   0  0  0  0  0  0
    0.0530   52.0655   26.0734 C   0  0  0  0  0  0
   -0.7055   51.8947   24.8816 C   0  0  0  0  0  0
   -0.3143   52.4857   23.7163 N   0  0  0  0  0  0
    0.8017   53.2432   23.7329 C   0  0  0  0  0  0
    1.5661   53.4855   24.8168 N   0  0  0  0  0  0
   -1.8989   51.1436   24.7615 N   0  0  0  0  0  0
   -2.7239   51.0529   23.5447 C   0  0  0  0  0  0
   -4.0376   50.3379   23.9031 C   0  0  1  0  0  0
   -3.5327   49.4253   25.0107 C   0  0  0  0  0  0
   -2.6621   50.4106   25.7845 C   0  0  2  0  0  0
   -2.0091   49.8397   26.4433 H   0  0  0  0  0  0
   -3.5579   51.3761   26.6081 C   0  0  0  0  0  0
   -4.7254   52.0749   25.8251 C   0  0  0  0  0  0
   -5.0877   51.3394   24.4814 C   0  0  0  0  0  0
   -5.9812   52.1336   26.7277 C   0  0  0  0  0  0
   -4.2522   53.5067   25.4649 C   0  0  0  0  0  0
   -4.6045   49.5499   22.7072 C   0  0  0  0  0  0
   -0.2846   51.4488   27.2953 N   0  0  0  0  0  0
    2.7255   54.1273   29.6724 O   0  0  0  0  0  0
    1.8843   55.2783   29.6887 C   0  0  0  0  0  0
    6.5614   53.2969   24.8913 H   0  0  0  0  0  0
    6.2026   55.0101   24.7046 H   0  0  0  0  0  0
    7.5046   54.4934   25.7863 H   0  0  0  0  0  0
    6.8830   54.8470   28.0785 H   0  0  0  0  0  0
    5.2196   54.8200   29.8730 H   0  0  0  0  0  0
    3.9658   53.4147   25.3132 H   0  0  0  0  0  0
    1.5528   52.8155   27.9774 H   0  0  0  0  0  0
    1.1069   53.6994   22.7999 H   0  0  0  0  0  0
   -2.1662   50.4855   22.7942 H   0  0  0  0  0  0
   -2.9412   52.0383   23.1299 H   0  0  0  0  0  0
   -4.3266   48.9826   25.6146 H   0  0  0  0  0  0
   -2.9243   48.6060   24.6164 H   0  0  0  0  0  0
   -4.0180   50.6701   27.3056 H   0  0  0  0  0  0
   -3.0143   52.0583   27.2620 H   0  0  0  0  0  0
   -5.5339   52.0023   23.7369 H   0  0  0  0  0  0
   -5.9054   50.6577   24.7259 H   0  0  0  0  0  0
   -6.8088   52.6332   26.2243 H   0  0  0  0  0  0
   -6.3242   51.1375   27.0082 H   0  0  0  0  0  0
   -5.7825   52.6780   27.6510 H   0  0  0  0  0  0
   -5.0159   54.0479   24.9045 H   0  0  0  0  0  0
   -4.0378   54.0916   26.3610 H   0  0  0  0  0  0
   -3.3472   53.5083   24.8595 H   0  0  0  0  0  0
   -4.9027   50.2198   21.9011 H   0  0  0  0  0  0
   -5.4816   48.9681   22.9913 H   0  0  0  0  0  0
   -3.8704   48.8525   22.2965 H   0  0  0  0  0  0
    0.3579   51.4868   28.0757 H   0  0  0  0  0  0
   -0.9801   50.7144   27.2921 H   0  0  0  0  0  0
    1.2529   55.2557   30.5784 H   0  0  0  0  0  0
    2.4660   56.2018   29.7191 H   0  0  0  0  0  0
    1.2238   55.3155   28.8196 H   0  0  0  0  0  0
  1  2  1  0  0  0
  1 30  1  0  0  0
  1 31  1  0  0  0
  1 32  1  0  0  0
  2  7  2  0  0  0
  2  3  1  0  0  0
  3  4  2  0  0  0
  3 33  1  0  0  0
  4  5  1  0  0  0
  4 34  1  0  0  0
  5  6  2  0  0  0
  5 28  1  0  0  0
  6  7  1  0  0  0
  6  8  1  0  0  0
  7 35  1  0  0  0
  8  9  1  0  0  0
  8 36  1  0  0  0
  9 14  2  0  0  0
  9 10  1  0  0  0
 10 11  2  0  0  0
 10 27  1  0  0  0
 11 12  1  0  0  0
 11 15  1  0  0  0
 12 13  2  0  0  0
 13 14  1  0  0  0
 13 37  1  0  0  0
 15 19  1  0  0  0
 15 16  1  0  0  0
 16 17  1  0  0  0
 16 38  1  0  0  0
 16 39  1  0  0  0
 17 23  1  0  0  0
 17 18  1  0  0  0
 17 26  1  0  0  0
 18 19  1  0  0  0
 18 40  1  0  0  0
 18 41  1  0  0  0
 19 20  1  0  0  0
 19 21  1  0  0  0
 21 22  1  0  0  0
 21 42  1  0  0  0
 21 43  1  0  0  0
 22 23  1  0  0  0
 22 24  1  0  0  0
 22 25  1  0  0  0
 23 44  1  0  0  0
 23 45  1  0  0  0
 24 46  1  0  0  0
 24 47  1  0  0  0
 24 48  1  0  0  0
 25 49  1  0  0  0
 25 50  1  0  0  0
 25 51  1  0  0  0
 26 52  1  0  0  0
 26 53  1  0  0  0
 26 54  1  0  0  0
 27 55  1  0  0  0
 27 56  1  0  0  0
 28 29  1  0  0  0
 29 57  1  0  0  0
 29 58  1  0  0  0
 29 59  1  0  0  0
M  END
> <i_i_glide_confnum>
8

> <i_i_glide_lignum>
3943

> <i_i_glide_posenum>
170

> <i_i_glide_rotatable_bonds>
4

> <i_m_Source_File_Index>
5908

> <b_m_subgroup_collapsed>
0

> <r_i_docking_score>
-5.3662

> <r_i_glide_ecoul>
-2.67634

> <r_i_glide_eff_state_penalty>
0

> <r_i_glide_einternal>
8.21992

> <r_i_glide_emodel>
-45.8229

> <r_i_glide_energy>
-37.6509

> <r_i_glide_erotb>
0.400099

> <r_i_glide_esite>
-0.0553866

> <r_i_glide_evdw>
-34.9745

> <r_i_glide_gscore>
-5.3662

> <r_i_glide_hbond>
-0.198438

> <r_i_glide_ligand_efficiency>
-0.19165

> <r_i_glide_ligand_efficiency_ln>
-1.23868

> <r_i_glide_ligand_efficiency_sa>
-0.581962

> <r_i_glide_lipo>
-2.26518

> <r_i_glide_metal>
0

> <r_i_glide_rewards>
-1.09711

> <s_i_glide_gridfile>
wee1_glide-grid

> <s_m_Source_File>
wee1_decoys_glide_SP.sdf

> <s_m_Source_Path>
/Users/zhangxujun/Desktop

> <s_m_entry_id>
6183

> <s_m_entry_name>
wee1_decoys_glide_SP.5908

> <s_m_subgroup_title>
wee1_decoys_glide_SP

> <s_m_subgroupid>
wee1_decoys_glide_SP


$$$$
