ZINC14651226_2858
                    3D
 Schrodinger Suite 2024-2.
 54 55  0  0  1  0            999 V2000
    2.4050   51.6354   29.0281 C   0  0  0  0  0  0
    1.6745   52.9380   28.6607 C   0  0  0  0  0  0
    2.0984   54.1063   29.5685 C   0  0  0  0  0  0
    1.7862   53.2705   27.1564 C   0  0  0  0  0  0
    3.1834   53.6523   26.6372 C   0  0  0  0  0  0
    3.0708   53.7328   25.2218 O   0  0  0  0  0  0
    4.1504   54.0967   24.4375 C   0  0  0  0  0  0
    5.3824   54.4983   24.9835 C   0  0  0  0  0  0
    6.4479   54.8504   24.1591 C   0  0  0  0  0  0
    6.3002   54.8116   22.7780 C   0  0  0  0  0  0
    5.0918   54.4035   22.2179 C   0  0  0  0  0  0
    4.0059   54.0341   23.0335 C   0  0  0  0  0  0
    2.7050   53.5754   22.4016 C   0  0  0  0  0  0
    1.6195   53.9018   22.8886 O   0  0  0  0  0  0
    2.8638   52.8305   21.2800 N   0  0  0  0  0  0
    1.9746   52.1480   20.4785 C   0  0  0  0  0  0
    0.5096   51.4966   20.9483 S   0  0  0  0  0  0
    2.3538   51.9573   19.1757 N   0  0  0  0  0  0
    3.5451   52.4966   18.6807 N   0  0  0  0  0  0
    3.5044   53.6553   17.9909 C   0  0  0  0  0  0
    2.4689   54.1590   17.5467 O   0  0  0  0  0  0
    4.8243   54.3815   17.8715 C   0  0  0  0  0  0
    4.8213   55.7718   17.6980 C   0  0  0  0  0  0
    6.0134   56.4876   17.7166 C   0  0  0  0  0  0
    7.2277   55.8330   17.9069 C   0  0  0  0  0  0
    7.2424   54.4358   18.0322 C   0  0  0  0  0  0
    6.0522   53.7153   18.0107 C   0  0  0  0  0  0
    8.3506   56.6322   17.9711 O   0  0  0  0  0  0
    9.5920   56.0402   18.3327 C   0  0  0  0  0  0
    7.7341   55.3523   21.6554 Br  0  0  0  0  0  0
    3.4885   51.7449   28.9736 H   0  0  0  0  0  0
    2.1179   50.8246   28.3579 H   0  0  0  0  0  0
    2.1492   51.3129   30.0370 H   0  0  0  0  0  0
    0.6144   52.7610   28.8547 H   0  0  0  0  0  0
    3.1669   54.3109   29.4954 H   0  0  0  0  0  0
    1.5646   55.0219   29.3100 H   0  0  0  0  0  0
    1.8712   53.8826   30.6104 H   0  0  0  0  0  0
    1.4177   52.4185   26.5819 H   0  0  0  0  0  0
    1.1051   54.0878   26.9254 H   0  0  0  0  0  0
    3.4906   54.6115   27.0575 H   0  0  0  0  0  0
    3.9237   52.8982   26.9080 H   0  0  0  0  0  0
    5.5316   54.5433   26.0508 H   0  0  0  0  0  0
    7.3892   55.1644   24.5847 H   0  0  0  0  0  0
    5.0071   54.4009   21.1393 H   0  0  0  0  0  0
    3.8256   52.7315   20.9986 H   0  0  0  0  0  0
    2.0711   51.1307   18.6673 H   0  0  0  0  0  0
    4.3115   51.8302   18.6396 H   0  0  0  0  0  0
    3.8922   56.3144   17.5859 H   0  0  0  0  0  0
    5.9945   57.5628   17.6083 H   0  0  0  0  0  0
    8.1669   53.8936   18.1609 H   0  0  0  0  0  0
    6.1019   52.6402   18.1252 H   0  0  0  0  0  0
   10.3426   56.8205   18.4544 H   0  0  0  0  0  0
    9.5103   55.5095   19.2823 H   0  0  0  0  0  0
    9.9469   55.3506   17.5653 H   0  0  0  0  0  0
  1  2  1  0  0  0
  1 31  1  0  0  0
  1 32  1  0  0  0
  1 33  1  0  0  0
  2  3  1  0  0  0
  2  4  1  0  0  0
  2 34  1  0  0  0
  3 35  1  0  0  0
  3 36  1  0  0  0
  3 37  1  0  0  0
  4  5  1  0  0  0
  4 38  1  0  0  0
  4 39  1  0  0  0
  5  6  1  0  0  0
  5 40  1  0  0  0
  5 41  1  0  0  0
  6  7  1  0  0  0
  7 12  2  0  0  0
  7  8  1  0  0  0
  8  9  2  0  0  0
  8 42  1  0  0  0
  9 10  1  0  0  0
  9 43  1  0  0  0
 10 11  2  0  0  0
 10 30  1  0  0  0
 11 12  1  0  0  0
 11 44  1  0  0  0
 12 13  1  0  0  0
 13 14  2  0  0  0
 13 15  1  0  0  0
 15 16  1  0  0  0
 15 45  1  0  0  0
 16 17  2  0  0  0
 16 18  1  0  0  0
 18 19  1  0  0  0
 18 46  1  0  0  0
 19 20  1  0  0  0
 19 47  1  0  0  0
 20 21  2  0  0  0
 20 22  1  0  0  0
 22 27  2  0  0  0
 22 23  1  0  0  0
 23 24  2  0  0  0
 23 48  1  0  0  0
 24 25  1  0  0  0
 24 49  1  0  0  0
 25 26  2  0  0  0
 25 28  1  0  0  0
 26 27  1  0  0  0
 26 50  1  0  0  0
 27 51  1  0  0  0
 28 29  1  0  0  0
 29 52  1  0  0  0
 29 53  1  0  0  0
 29 54  1  0  0  0
M  END
> <i_i_glide_confnum>
149

> <i_i_glide_lignum>
2859

> <i_i_glide_posenum>
300

> <i_i_glide_rotatable_bonds>
12

> <i_m_Source_File_Index>
4788

> <b_m_subgroup_collapsed>
0

> <r_i_docking_score>
-4.64382

> <r_i_glide_ecoul>
-4.07733

> <r_i_glide_eff_state_penalty>
0

> <r_i_glide_einternal>
7.08229

> <r_i_glide_emodel>
-55.575

> <r_i_glide_energy>
-43.8554

> <r_i_glide_erotb>
0.833689

> <r_i_glide_esite>
-0.151513

> <r_i_glide_evdw>
-39.7781

> <r_i_glide_gscore>
-4.64382

> <r_i_glide_hbond>
-0.16

> <r_i_glide_ligand_efficiency>
-0.154794

> <r_i_glide_ligand_efficiency_ln>
-1.05513

> <r_i_glide_ligand_efficiency_sa>
-0.480981

> <r_i_glide_lipo>
-2.41424

> <r_i_glide_metal>
0

> <r_i_glide_rewards>
-0.151253

> <s_i_glide_gridfile>
wee1_glide-grid

> <s_m_Source_File>
wee1_decoys_glide_SP.sdf

> <s_m_Source_Path>
/Users/zhangxujun/Desktop

> <s_m_entry_id>
5063

> <s_m_entry_name>
wee1_decoys_glide_SP.4788

> <s_m_subgroup_title>
wee1_decoys_glide_SP

> <s_m_subgroupid>
wee1_decoys_glide_SP


$$$$
