ZINC16609132_6102
                    3D
 Schrodinger Suite 2024-2.
 55 57  0  0  1  0            999 V2000
    0.5949   55.2794   17.1679 C   0  0  0  0  0  0
    1.8419   54.7494   16.4389 C   0  0  0  0  0  0
    2.9264   54.2710   17.3543 N   0  0  0  0  0  0
    3.9556   55.1115   17.8060 C   0  0  0  0  0  0
    4.8541   54.6981   18.7585 C   0  0  0  0  0  0
    4.6836   53.3185   19.4596 C   0  0  2  0  0  0
    5.6582   52.8442   19.5890 H   0  0  0  0  0  0
    3.9044   52.4969   18.5227 N   0  0  0  0  0  0
    2.8853   52.9249   17.7218 C   0  0  0  0  0  0
    1.7624   51.7508   17.3090 S   0  0  0  0  0  0
    4.1262   53.3545   20.9027 C   0  0  0  0  0  0
    2.8209   52.9450   21.2173 C   0  0  0  0  0  0
    2.3487   53.0072   22.5280 C   0  0  0  0  0  0
    3.1842   53.4414   23.5589 C   0  0  0  0  0  0
    4.5160   53.7655   23.2623 C   0  0  0  0  0  0
    4.9721   53.7215   21.9500 C   0  0  0  0  0  0
    2.6322   53.4705   24.8569 N   0  0  0  0  0  0
    3.1415   53.9976   25.9954 C   0  0  0  0  0  0
    4.2051   54.6150   26.0702 O   0  0  0  0  0  0
    2.2734   53.8583   27.2259 C   0  0  0  0  0  0
    2.3137   54.8526   28.2140 C   0  0  0  0  0  0
    1.4869   54.7886   29.3334 C   0  0  0  0  0  0
    0.6361   53.6980   29.5060 C   0  0  0  0  0  0
    0.6031   52.6853   28.5485 C   0  0  0  0  0  0
    1.4124   52.7634   27.4133 C   0  0  0  0  0  0
   -0.4506   51.3389   28.7628 Cl  0  0  0  0  0  0
    1.5007   56.0761   30.4832 Cl  0  0  0  0  0  0
    5.9390   55.5624   19.2850 C   0  0  0  0  0  0
    5.8416   56.7813   19.4446 O   0  0  0  0  0  0
    7.0667   54.8780   19.6037 O   0  0  0  0  0  0
    8.1840   55.5417   20.1937 C   0  0  0  0  0  0
    7.9247   55.8562   21.6781 C   0  0  0  0  0  0
    4.0460   56.4639   17.0686 C   0  0  0  0  0  0
   -0.2021   55.4946   16.4559 H   0  0  0  0  0  0
    0.2071   54.5625   17.8926 H   0  0  0  0  0  0
    0.8154   56.2137   17.6813 H   0  0  0  0  0  0
    2.1933   55.5286   15.7688 H   0  0  0  0  0  0
    1.5436   53.9811   15.7251 H   0  0  0  0  0  0
    4.0978   51.4966   18.4814 H   0  0  0  0  0  0
    2.1399   52.6249   20.4439 H   0  0  0  0  0  0
    1.3267   52.7197   22.7280 H   0  0  0  0  0  0
    5.2210   54.0544   24.0245 H   0  0  0  0  0  0
    5.9953   53.9789   21.7479 H   0  0  0  0  0  0
    1.7157   53.0591   24.9329 H   0  0  0  0  0  0
    2.9761   55.6969   28.1059 H   0  0  0  0  0  0
   -0.0016   53.6368   30.3765 H   0  0  0  0  0  0
    1.3629   51.9613   26.6907 H   0  0  0  0  0  0
    9.0614   54.9018   20.1005 H   0  0  0  0  0  0
    8.4153   56.4553   19.6427 H   0  0  0  0  0  0
    8.7070   56.4953   22.0815 H   0  0  0  0  0  0
    6.9806   56.3784   21.8291 H   0  0  0  0  0  0
    7.9041   54.9464   22.2744 H   0  0  0  0  0  0
    4.9176   57.0680   17.2987 H   0  0  0  0  0  0
    4.1182   56.3065   15.9926 H   0  0  0  0  0  0
    3.1718   57.0801   17.2793 H   0  0  0  0  0  0
  1  2  1  0  0  0
  1 34  1  0  0  0
  1 35  1  0  0  0
  1 36  1  0  0  0
  2  3  1  0  0  0
  2 37  1  0  0  0
  2 38  1  0  0  0
  3  9  1  0  0  0
  3  4  1  0  0  0
  4  5  2  0  0  0
  4 33  1  0  0  0
  5  6  1  0  0  0
  5 28  1  0  0  0
  6  7  1  0  0  0
  6  8  1  0  0  0
  6 11  1  0  0  0
  8  9  1  0  0  0
  8 39  1  0  0  0
  9 10  2  0  0  0
 11 16  2  0  0  0
 11 12  1  0  0  0
 12 13  2  0  0  0
 12 40  1  0  0  0
 13 14  1  0  0  0
 13 41  1  0  0  0
 14 15  2  0  0  0
 14 17  1  0  0  0
 15 16  1  0  0  0
 15 42  1  0  0  0
 16 43  1  0  0  0
 17 18  1  0  0  0
 17 44  1  0  0  0
 18 19  2  0  0  0
 18 20  1  0  0  0
 20 25  2  0  0  0
 20 21  1  0  0  0
 21 22  2  0  0  0
 21 45  1  0  0  0
 22 23  1  0  0  0
 22 27  1  0  0  0
 23 24  2  0  0  0
 23 46  1  0  0  0
 24 25  1  0  0  0
 24 26  1  0  0  0
 25 47  1  0  0  0
 28 29  2  0  0  0
 28 30  1  0  0  0
 30 31  1  0  0  0
 31 32  1  0  0  0
 31 48  1  0  0  0
 31 49  1  0  0  0
 32 50  1  0  0  0
 32 51  1  0  0  0
 32 52  1  0  0  0
 33 53  1  0  0  0
 33 54  1  0  0  0
 33 55  1  0  0  0
M  END
> <i_i_glide_confnum>
136

> <i_i_glide_lignum>
6103

> <i_i_glide_posenum>
63

> <i_i_glide_rotatable_bonds>
8

> <i_m_Source_File_Index>
5622

> <b_m_subgroup_collapsed>
0

> <r_i_docking_score>
-5.63958

> <r_i_glide_ecoul>
-3.28931

> <r_i_glide_eff_state_penalty>
0

> <r_i_glide_einternal>
10.0614

> <r_i_glide_emodel>
-55.7628

> <r_i_glide_energy>
-45.4267

> <r_i_glide_erotb>
0.503912

> <r_i_glide_esite>
-0.156973

> <r_i_glide_evdw>
-42.1374

> <r_i_glide_gscore>
-5.63958

> <r_i_glide_hbond>
-0.134152

> <r_i_glide_ligand_efficiency>
-0.176237

> <r_i_glide_ligand_efficiency_ln>
-1.26286

> <r_i_glide_ligand_efficiency_sa>
-0.559517

> <r_i_glide_lipo>
-2.81324

> <r_i_glide_metal>
0

> <r_i_glide_rewards>
-0.438867

> <s_i_glide_gridfile>
wee1_glide-grid

> <s_m_Source_File>
wee1_decoys_glide_SP.sdf

> <s_m_Source_Path>
/Users/zhangxujun/Desktop

> <s_m_entry_id>
5897

> <s_m_entry_name>
wee1_decoys_glide_SP.5622

> <s_m_subgroup_title>
wee1_decoys_glide_SP

> <s_m_subgroupid>
wee1_decoys_glide_SP


$$$$
