ZINC58983170_4455
                    3D
 Schrodinger Suite 2024-2.
 57 60  0  0  1  0            999 V2000
    6.4634   57.2275   18.8044 C   0  0  0  0  0  0
    6.9734   55.7635   18.7459 C   0  0  2  0  0  0
    8.3742   55.6967   19.3445 C   0  0  0  0  0  0
    8.7034   56.0274   20.4815 O   0  0  0  0  0  0
    9.1833   55.2764   18.3675 N   0  0  0  0  0  0
    8.5661   55.0190   17.2034 C   0  0  0  0  0  0
    9.0372   54.4537   16.2236 O   0  0  0  0  0  0
    7.2983   55.4002   17.3858 N   0  0  0  0  0  0
    6.0033   54.7846   19.4473 C   0  0  0  0  0  0
    5.3348   53.7620   18.7522 C   0  0  0  0  0  0
    4.4695   52.8973   19.4196 C   0  0  0  0  0  0
    4.2798   53.0137   20.7942 C   0  0  0  0  0  0
    4.9584   53.9986   21.5103 C   0  0  0  0  0  0
    5.7866   54.8985   20.8285 C   0  0  0  0  0  0
    4.7482   54.0384   22.8948 N   0  0  0  0  0  0
    5.5805   54.4961   23.8564 C   0  0  0  0  0  0
    6.7003   54.9739   23.6682 O   0  0  0  0  0  0
    5.0420   54.3384   25.1821 C   0  0  0  0  0  0
    3.7191   54.0985   25.5697 C   0  0  0  0  0  0
    3.5480   53.9930   26.9528 C   0  0  0  0  0  0
    4.7564   54.1427   27.6330 C   0  0  0  0  0  0
    6.0794   54.4948   26.5676 S   0  0  0  0  0  0
    4.9323   53.9473   29.1206 C   0  0  0  0  0  0
    3.5514   54.0178   29.8001 C   0  0  0  0  0  0
    2.4859   53.1278   29.1002 C   0  0  2  0  0  0
    2.8989   52.1217   28.9970 H   0  0  0  0  0  0
    2.2322   53.6644   27.6537 C   0  0  0  0  0  0
    1.1549   52.9625   29.9347 C   0  0  0  0  0  0
    0.4892   54.3256   30.2423 C   0  0  0  0  0  0
    1.4219   52.2613   31.2877 C   0  0  0  0  0  0
    0.1382   52.0827   29.1617 C   0  0  0  0  0  0
    6.3498   57.5852   19.8287 H   0  0  0  0  0  0
    7.1279   57.9236   18.2907 H   0  0  0  0  0  0
    5.4832   57.3172   18.3311 H   0  0  0  0  0  0
   10.1784   55.1729   18.5003 H   0  0  0  0  0  0
    6.7114   55.6912   16.6189 H   0  0  0  0  0  0
    5.4754   53.6195   17.6922 H   0  0  0  0  0  0
    3.9682   52.1112   18.8709 H   0  0  0  0  0  0
    3.6239   52.3158   21.2934 H   0  0  0  0  0  0
    6.2879   55.6850   21.3716 H   0  0  0  0  0  0
    3.8948   53.6069   23.2076 H   0  0  0  0  0  0
    2.8945   53.9887   24.8799 H   0  0  0  0  0  0
    5.6026   54.6954   29.5458 H   0  0  0  0  0  0
    5.3808   52.9670   29.2813 H   0  0  0  0  0  0
    3.1984   55.0459   29.8912 H   0  0  0  0  0  0
    3.7057   53.6736   30.8201 H   0  0  0  0  0  0
    1.6867   52.9287   27.0621 H   0  0  0  0  0  0
    1.6238   54.5657   27.6563 H   0  0  0  0  0  0
   -0.4694   54.1954   30.7426 H   0  0  0  0  0  0
    0.3048   54.8952   29.3367 H   0  0  0  0  0  0
    1.1027   54.9500   30.8904 H   0  0  0  0  0  0
    2.0016   51.3494   31.1618 H   0  0  0  0  0  0
    1.9559   52.8928   31.9907 H   0  0  0  0  0  0
    0.4891   51.9887   31.7886 H   0  0  0  0  0  0
    0.5849   51.1379   28.8491 H   0  0  0  0  0  0
   -0.7323   51.8356   29.7726 H   0  0  0  0  0  0
   -0.2429   52.5783   28.2684 H   0  0  0  0  0  0
  1  2  1  0  0  0
  1 32  1  0  0  0
  1 33  1  0  0  0
  1 34  1  0  0  0
  2  8  1  0  0  0
  2  3  1  0  0  0
  2  9  1  0  0  0
  3  4  2  0  0  0
  3  5  1  0  0  0
  5  6  1  0  0  0
  5 35  1  0  0  0
  6  7  2  0  0  0
  6  8  1  0  0  0
  8 36  1  0  0  0
  9 14  2  0  0  0
  9 10  1  0  0  0
 10 11  2  0  0  0
 10 37  1  0  0  0
 11 12  1  0  0  0
 11 38  1  0  0  0
 12 13  2  0  0  0
 12 39  1  0  0  0
 13 14  1  0  0  0
 13 15  1  0  0  0
 14 40  1  0  0  0
 15 16  1  0  0  0
 15 41  1  0  0  0
 16 17  2  0  0  0
 16 18  1  0  0  0
 18 22  1  0  0  0
 18 19  2  0  0  0
 19 20  1  0  0  0
 19 42  1  0  0  0
 20 27  1  0  0  0
 20 21  2  0  0  0
 21 22  1  0  0  0
 21 23  1  0  0  0
 23 24  1  0  0  0
 23 43  1  0  0  0
 23 44  1  0  0  0
 24 25  1  0  0  0
 24 45  1  0  0  0
 24 46  1  0  0  0
 25 26  1  0  0  0
 25 27  1  0  0  0
 25 28  1  0  0  0
 27 47  1  0  0  0
 27 48  1  0  0  0
 28 29  1  0  0  0
 28 30  1  0  0  0
 28 31  1  0  0  0
 29 49  1  0  0  0
 29 50  1  0  0  0
 29 51  1  0  0  0
 30 52  1  0  0  0
 30 53  1  0  0  0
 30 54  1  0  0  0
 31 55  1  0  0  0
 31 56  1  0  0  0
 31 57  1  0  0  0
M  END
> <i_i_glide_confnum>
6

> <i_i_glide_lignum>
4456

> <i_i_glide_posenum>
362

> <i_i_glide_rotatable_bonds>
5

> <i_m_Source_File_Index>
4339

> <b_m_subgroup_collapsed>
0

> <r_i_docking_score>
-6.02981

> <r_i_glide_ecoul>
-0.80461

> <r_i_glide_eff_state_penalty>
0

> <r_i_glide_einternal>
3.85218

> <r_i_glide_emodel>
-62.118

> <r_i_glide_energy>
-47.0491

> <r_i_glide_erotb>
0.438199

> <r_i_glide_esite>
0

> <r_i_glide_evdw>
-46.2445

> <r_i_glide_gscore>
-6.02981

> <r_i_glide_hbond>
-0.043017

> <r_i_glide_ligand_efficiency>
-0.200994

> <r_i_glide_ligand_efficiency_ln>
-1.37004

> <r_i_glide_ligand_efficiency_sa>
-0.624534

> <r_i_glide_lipo>
-2.81195

> <r_i_glide_metal>
0

> <r_i_glide_rewards>
-1.18013

> <s_i_glide_gridfile>
wee1_glide-grid

> <s_m_Source_File>
wee1_decoys_glide_SP.sdf

> <s_m_Source_Path>
/Users/zhangxujun/Desktop

> <s_m_entry_id>
4614

> <s_m_entry_name>
wee1_decoys_glide_SP.4339

> <s_m_subgroup_title>
wee1_decoys_glide_SP

> <s_m_subgroupid>
wee1_decoys_glide_SP


$$$$
