ZINC09012063_3009
                    3D
 Schrodinger Suite 2024-2.
 67 69  0  0  1  0            999 V2000
    4.0970   54.2543   29.5083 C   0  0  0  0  0  0
    5.3830   54.4024   28.6867 C   0  0  0  0  0  0
    5.0131   54.4121   27.3186 O   0  0  0  0  0  0
    5.9131   54.6346   26.3308 C   0  0  0  0  0  0
    7.1037   54.8902   26.5289 O   0  0  0  0  0  0
    5.3116   54.4876   24.9658 C   0  0  0  0  0  0
    6.1413   54.4837   23.8351 C   0  0  0  0  0  0
    5.6066   54.2560   22.5679 C   0  0  0  0  0  0
    4.2300   54.0421   22.4188 C   0  0  0  0  0  0
    3.3962   54.0965   23.5337 C   0  0  0  0  0  0
    3.9294   54.3141   24.7970 C   0  0  0  0  0  0
    3.5853   53.6934   21.2242 N   0  0  0  0  0  0
    4.0590   53.4556   19.9814 C   0  0  0  0  0  0
    5.2179   53.7181   19.6610 O   0  0  0  0  0  0
    3.0815   52.8205   19.0732 C   0  0  0  0  0  0
    3.3587   52.5602   17.7575 C   0  0  0  0  0  0
    2.4319   51.9229   16.9546 N   0  0  0  0  0  0
    1.1453   51.6273   17.3367 C   0  0  0  0  0  0
    0.7128   51.9180   18.5776 C   0  0  0  0  0  0
    1.6809   52.4081   19.6583 C   0  0  1  0  0  0
    1.1960   53.2967   20.0357 H   0  0  0  0  0  0
    1.7387   51.4359   20.8254 C   0  0  0  0  0  0
    2.6289   50.4514   21.2232 C   0  0  0  0  0  0
    2.2142   50.0186   22.4814 C   0  0  0  0  0  0
    1.0524   50.7078   22.7718 C   0  0  0  0  0  0
    0.7674   51.5738   21.7683 O   0  0  0  0  0  0
   -0.6492   51.6943   18.9501 C   0  0  0  0  0  0
   -1.7541   51.5738   19.2762 N   0  0  0  0  0  0
    0.1601   50.8871   16.0493 S   0  0  0  0  0  0
    1.1722   49.4612   15.5341 C   0  0  0  0  0  0
    1.8546   49.6275   14.1753 C   0  0  0  0  0  0
    1.2501   50.1475   13.2378 O   0  0  0  0  0  0
    3.1056   49.1417   14.0816 N   0  0  0  0  0  0
    3.9784   49.0970   12.8995 C   0  0  0  0  0  0
    5.2455   48.3051   13.2778 C   0  0  0  0  0  0
    4.3928   50.5251   12.4789 C   0  0  0  0  0  0
    3.3013   48.3710   11.7114 C   0  0  0  0  0  0
    4.6391   52.8954   16.9925 C   0  0  0  0  0  0
    4.3059   54.2029   30.5741 H   0  0  0  0  0  0
    3.4280   55.0992   29.3405 H   0  0  0  0  0  0
    3.5609   53.3447   29.2351 H   0  0  0  0  0  0
    6.0606   53.5695   28.8818 H   0  0  0  0  0  0
    5.9023   55.3216   28.9538 H   0  0  0  0  0  0
    7.2111   54.6213   23.9268 H   0  0  0  0  0  0
    6.2812   54.2283   21.7283 H   0  0  0  0  0  0
    2.3321   53.9318   23.4363 H   0  0  0  0  0  0
    3.2513   54.3165   25.6389 H   0  0  0  0  0  0
    2.5933   53.5493   21.3249 H   0  0  0  0  0  0
    2.7514   51.5700   16.0651 H   0  0  0  0  0  0
    3.5041   50.1295   20.6793 H   0  0  0  0  0  0
    2.7050   49.2966   23.1139 H   0  0  0  0  0  0
    0.3775   50.7070   23.6154 H   0  0  0  0  0  0
    1.8974   49.2173   16.3133 H   0  0  0  0  0  0
    0.5084   48.6026   15.4469 H   0  0  0  0  0  0
    3.5508   48.8998   14.9698 H   0  0  0  0  0  0
    5.0062   47.2970   13.6143 H   0  0  0  0  0  0
    5.9330   48.2110   12.4363 H   0  0  0  0  0  0
    5.7924   48.7936   14.0814 H   0  0  0  0  0  0
    3.5321   51.1239   12.1806 H   0  0  0  0  0  0
    4.8862   51.0520   13.2967 H   0  0  0  0  0  0
    5.0832   50.5101   11.6347 H   0  0  0  0  0  0
    2.4529   48.9317   11.3188 H   0  0  0  0  0  0
    3.9936   48.2295   10.8805 H   0  0  0  0  0  0
    2.9315   47.3873   12.0018 H   0  0  0  0  0  0
    4.7513   53.9754   16.9038 H   0  0  0  0  0  0
    5.5166   52.4971   17.5029 H   0  0  0  0  0  0
    4.6532   52.4733   15.9867 H   0  0  0  0  0  0
  1  2  1  0  0  0
  1 39  1  0  0  0
  1 40  1  0  0  0
  1 41  1  0  0  0
  2  3  1  0  0  0
  2 42  1  0  0  0
  2 43  1  0  0  0
  3  4  1  0  0  0
  4  5  2  0  0  0
  4  6  1  0  0  0
  6 11  2  0  0  0
  6  7  1  0  0  0
  7  8  2  0  0  0
  7 44  1  0  0  0
  8  9  1  0  0  0
  8 45  1  0  0  0
  9 10  2  0  0  0
  9 12  1  0  0  0
 10 11  1  0  0  0
 10 46  1  0  0  0
 11 47  1  0  0  0
 12 13  1  0  0  0
 12 48  1  0  0  0
 13 14  2  0  0  0
 13 15  1  0  0  0
 15 20  1  0  0  0
 15 16  2  0  0  0
 16 17  1  0  0  0
 16 38  1  0  0  0
 17 18  1  0  0  0
 17 49  1  0  0  0
 18 19  2  0  0  0
 18 29  1  0  0  0
 19 20  1  0  0  0
 19 27  1  0  0  0
 20 21  1  0  0  0
 20 22  1  0  0  0
 22 26  1  0  0  0
 22 23  2  0  0  0
 23 24  1  0  0  0
 23 50  1  0  0  0
 24 25  2  0  0  0
 24 51  1  0  0  0
 25 26  1  0  0  0
 25 52  1  0  0  0
 27 28  3  0  0  0
 29 30  1  0  0  0
 30 31  1  0  0  0
 30 53  1  0  0  0
 30 54  1  0  0  0
 31 32  2  0  0  0
 31 33  1  0  0  0
 33 34  1  0  0  0
 33 55  1  0  0  0
 34 35  1  0  0  0
 34 36  1  0  0  0
 34 37  1  0  0  0
 35 56  1  0  0  0
 35 57  1  0  0  0
 35 58  1  0  0  0
 36 59  1  0  0  0
 36 60  1  0  0  0
 36 61  1  0  0  0
 37 62  1  0  0  0
 37 63  1  0  0  0
 37 64  1  0  0  0
 38 65  1  0  0  0
 38 66  1  0  0  0
 38 67  1  0  0  0
M  END
> <i_i_glide_confnum>
158

> <i_i_glide_lignum>
3010

> <i_i_glide_posenum>
326

> <i_i_glide_rotatable_bonds>
13

> <i_m_Source_File_Index>
1393

> <b_m_subgroup_collapsed>
0

> <r_i_docking_score>
-6.58586

> <r_i_glide_ecoul>
-11.1291

> <r_i_glide_eff_state_penalty>
0

> <r_i_glide_einternal>
11.4091

> <r_i_glide_emodel>
-66.4933

> <r_i_glide_energy>
-50.1711

> <r_i_glide_erotb>
0.752942

> <r_i_glide_esite>
-0.245732

> <r_i_glide_evdw>
-39.042

> <r_i_glide_gscore>
-6.58586

> <r_i_glide_hbond>
-0.460761

> <r_i_glide_ligand_efficiency>
-0.177996

> <r_i_glide_ligand_efficiency_ln>
-1.42832

> <r_i_glide_ligand_efficiency_sa>
-0.593123

> <r_i_glide_lipo>
-2.02641

> <r_i_glide_metal>
0

> <r_i_glide_rewards>
-0.984434

> <s_i_glide_gridfile>
wee1_glide-grid

> <s_m_Source_File>
wee1_decoys_glide_SP.sdf

> <s_m_Source_Path>
/Users/zhangxujun/Desktop

> <s_m_entry_id>
1668

> <s_m_entry_name>
wee1_decoys_glide_SP.1393

> <s_m_subgroup_title>
wee1_decoys_glide_SP

> <s_m_subgroupid>
wee1_decoys_glide_SP


$$$$
