ZINC23394009_2499
                    3D
 Schrodinger Suite 2024-2.
 49 51  0  0  1  0            999 V2000
    1.0579   49.8873   22.0726 C   0  0  0  0  0  0
    0.6986   49.2240   20.9023 C   0  0  0  0  0  0
    1.3471   49.5208   19.7008 C   0  0  0  0  0  0
    2.3411   50.5043   19.6719 C   0  0  0  0  0  0
    2.7014   51.1797   20.8446 C   0  0  0  0  0  0
    2.0597   50.8554   22.0455 C   0  0  0  0  0  0
    4.0561   52.3704   20.8126 S   0  0  0  0  0  0
    4.3317   52.6974   19.4126 O   0  0  0  0  0  0
    5.1043   51.8135   21.6731 O   0  0  0  0  0  0
    3.5024   53.8692   21.5550 N   0  0  0  0  0  0
    3.0993   53.7841   22.8700 N   0  0  0  0  0  0
    3.9075   54.1023   23.8979 C   0  0  0  0  0  0
    5.0720   54.4906   23.7797 O   0  0  0  0  0  0
    3.2897   54.0228   25.1983 C   0  0  0  0  0  0
    3.8126   54.4966   26.3898 C   0  0  0  0  0  0
    2.9831   54.3037   27.5023 C   0  0  0  0  0  0
    1.8142   53.6054   27.1885 C   0  0  0  0  0  0
    1.7818   53.2086   25.4922 S   0  0  0  0  0  0
    0.6522   53.2297   28.0960 C   0  0  0  0  0  0
    0.9441   52.0852   29.0921 C   0  0  0  0  0  0
    1.9484   52.3970   30.2277 C   0  0  0  0  0  0
    3.4352   52.3529   29.8066 C   0  0  0  0  0  0
    4.1110   53.7323   29.6818 C   0  0  0  0  0  0
    3.3238   54.7836   28.8901 C   0  0  0  0  0  0
    0.9033   48.6459   18.2029 S   0  0  0  0  0  0
   -0.1651   47.6985   18.5363 O   0  0  0  0  0  0
    0.7128   49.6488   17.1502 O   0  0  0  0  0  0
    2.3036   47.6997   17.7782 N   0  0  0  0  0  0
    0.5685   49.6427   23.0037 H   0  0  0  0  0  0
   -0.0756   48.4725   20.9371 H   0  0  0  0  0  0
    2.8452   50.7264   18.7392 H   0  0  0  0  0  0
    2.3255   51.3323   22.9739 H   0  0  0  0  0  0
    2.8392   54.4067   20.9867 H   0  0  0  0  0  0
    2.1503   53.4764   23.0135 H   0  0  0  0  0  0
    4.7669   55.0007   26.4525 H   0  0  0  0  0  0
   -0.2108   52.9390   27.4934 H   0  0  0  0  0  0
    0.3189   54.1053   28.6531 H   0  0  0  0  0  0
    1.2540   51.1903   28.5502 H   0  0  0  0  0  0
   -0.0037   51.8144   29.5618 H   0  0  0  0  0  0
    1.8050   51.6644   31.0195 H   0  0  0  0  0  0
    1.6936   53.3414   30.7092 H   0  0  0  0  0  0
    3.5455   51.8042   28.8692 H   0  0  0  0  0  0
    3.9991   51.7687   30.5351 H   0  0  0  0  0  0
    5.0953   53.6039   29.2284 H   0  0  0  0  0  0
    4.3045   54.1203   30.6819 H   0  0  0  0  0  0
    2.4247   55.0763   29.4312 H   0  0  0  0  0  0
    3.9044   55.6961   28.8463 H   0  0  0  0  0  0
    2.0688   46.9107   17.1758 H   0  0  0  0  0  0
    3.0160   48.2865   17.3008 H   0  0  0  0  0  0
  1  6  2  0  0  0
  1  2  1  0  0  0
  1 29  1  0  0  0
  2  3  2  0  0  0
  2 30  1  0  0  0
  3  4  1  0  0  0
  3 25  1  0  0  0
  4  5  2  0  0  0
  4 31  1  0  0  0
  5  6  1  0  0  0
  5  7  1  0  0  0
  6 32  1  0  0  0
  7  8  2  0  0  0
  7  9  2  0  0  0
  7 10  1  0  0  0
 10 11  1  0  0  0
 10 33  1  0  0  0
 11 12  1  0  0  0
 11 34  1  0  0  0
 12 13  2  0  0  0
 12 14  1  0  0  0
 14 18  1  0  0  0
 14 15  2  0  0  0
 15 16  1  0  0  0
 15 35  1  0  0  0
 16 24  1  0  0  0
 16 17  2  0  0  0
 17 18  1  0  0  0
 17 19  1  0  0  0
 19 20  1  0  0  0
 19 36  1  0  0  0
 19 37  1  0  0  0
 20 21  1  0  0  0
 20 38  1  0  0  0
 20 39  1  0  0  0
 21 22  1  0  0  0
 21 40  1  0  0  0
 21 41  1  0  0  0
 22 23  1  0  0  0
 22 42  1  0  0  0
 22 43  1  0  0  0
 23 24  1  0  0  0
 23 44  1  0  0  0
 23 45  1  0  0  0
 24 46  1  0  0  0
 24 47  1  0  0  0
 25 26  2  0  0  0
 25 27  2  0  0  0
 25 28  1  0  0  0
 28 48  1  0  0  0
 28 49  1  0  0  0
M  END
> <i_i_glide_confnum>
206

> <i_i_glide_lignum>
2500

> <i_i_glide_posenum>
344

> <i_i_glide_rotatable_bonds>
6

> <i_m_Source_File_Index>
4308

> <b_m_subgroup_collapsed>
0

> <r_i_docking_score>
-5.04387

> <r_i_glide_ecoul>
-7.09644

> <r_i_glide_eff_state_penalty>
0

> <r_i_glide_einternal>
2.39417

> <r_i_glide_emodel>
-58.321

> <r_i_glide_energy>
-48.2501

> <r_i_glide_erotb>
0.406462

> <r_i_glide_esite>
-0.262659

> <r_i_glide_evdw>
-41.1536

> <r_i_glide_gscore>
-5.04387

> <r_i_glide_hbond>
-0.456

> <r_i_glide_ligand_efficiency>
-0.180138

> <r_i_glide_ligand_efficiency_ln>
-1.16427

> <r_i_glide_ligand_efficiency_sa>
-0.547006

> <r_i_glide_lipo>
-2.14582

> <r_i_glide_metal>
0

> <r_i_glide_rewards>
0.536293

> <s_i_glide_gridfile>
wee1_glide-grid

> <s_m_Source_File>
wee1_decoys_glide_SP.sdf

> <s_m_Source_Path>
/Users/zhangxujun/Desktop

> <s_m_entry_id>
4583

> <s_m_entry_name>
wee1_decoys_glide_SP.4308

> <s_m_subgroup_title>
wee1_decoys_glide_SP

> <s_m_subgroupid>
wee1_decoys_glide_SP


$$$$
