ZINC35992899_881
                    3D
 Schrodinger Suite 2024-2.
 75 77  0  0  1  0            999 V2000
   -1.9952   53.0218   23.5741 C   0  0  0  0  0  0
   -0.5917   52.4040   23.4430 C   0  0  0  0  0  0
    0.2549   52.4222   24.6754 N   0  0  0  0  0  0
    1.4401   53.1572   24.8625 C   0  0  0  0  0  0
    2.1645   53.0599   26.0273 C   0  0  0  0  0  0
    1.5968   52.2083   27.1912 C   0  0  2  0  0  0
    2.4026   51.6221   27.6393 H   0  0  0  0  0  0
    0.6195   51.2542   26.6457 N   0  0  0  0  0  0
   -0.1584   51.4504   25.5645 C   0  0  0  0  0  0
   -1.1721   50.7544   25.4929 O   0  0  0  0  0  0
    1.1163   52.9045   28.4734 C   0  0  0  0  0  0
    1.2329   54.2855   28.6823 C   0  0  0  0  0  0
    0.9488   54.8249   29.9334 C   0  0  0  0  0  0
    0.5005   53.9932   30.9546 C   0  0  0  0  0  0
    0.3040   52.6381   30.7386 C   0  0  0  0  0  0
    0.6122   52.0962   29.4994 C   0  0  0  0  0  0
    0.2852   54.4968   32.1837 F   0  0  0  0  0  0
    3.4943   53.6970   26.3495 C   0  0  0  0  0  0
    4.0144   53.5913   27.4641 O   0  0  0  0  0  0
    4.1083   54.3734   25.3487 O   0  0  0  0  0  0
    5.3620   55.0370   25.5368 C   0  0  0  0  0  0
    6.5503   54.0927   25.3093 C   0  0  0  0  0  0
    1.8924   53.9914   23.6430 C   0  0  0  0  0  0
    2.9493   53.2531   22.7704 N   0  3  2  0  0  0
    3.8392   54.2381   21.9707 C   0  0  0  0  0  0
    5.0613   53.5845   21.2913 C   0  0  0  0  0  0
    4.7986   52.9535   19.9048 C   0  0  0  0  0  0
    3.5987   52.0960   19.8381 N   0  0  0  0  0  0
    3.2953   51.3304   21.0550 C   0  0  0  0  0  0
    2.3269   52.0650   21.9921 C   0  0  0  0  0  0
    2.6849   52.1779   18.8272 C   0  0  0  0  0  0
    1.5533   51.6928   18.9184 O   0  0  0  0  0  0
    3.1759   52.6240   17.6516 N   0  0  0  0  0  0
    2.4569   52.9141   16.4034 C   0  0  0  0  0  0
    3.4725   53.5304   15.4193 C   0  0  0  0  0  0
    1.3162   53.9373   16.6318 C   0  0  0  0  0  0
    1.8942   51.6186   15.7749 C   0  0  0  0  0  0
   -2.5740   52.8335   22.6699 H   0  0  0  0  0  0
   -2.5653   52.6187   24.4109 H   0  0  0  0  0  0
   -1.9332   54.0970   23.6830 H   0  0  0  0  0  0
   -0.1278   52.8959   22.6014 H   0  0  0  0  0  0
   -0.6938   51.3747   23.0903 H   0  0  0  0  0  0
    0.2522   50.5568   27.2787 H   0  0  0  0  0  0
    1.5960   54.9433   27.9076 H   0  0  0  0  0  0
    1.0872   55.8800   30.1196 H   0  0  0  0  0  0
   -0.0670   52.0137   31.5389 H   0  0  0  0  0  0
    0.4884   51.0340   29.3457 H   0  0  0  0  0  0
    5.4234   55.8563   24.8211 H   0  0  0  0  0  0
    5.4206   55.4928   26.5272 H   0  0  0  0  0  0
    7.5002   54.6258   25.3691 H   0  0  0  0  0  0
    6.5696   53.2990   26.0576 H   0  0  0  0  0  0
    6.5000   53.6299   24.3235 H   0  0  0  0  0  0
    2.3421   54.9164   23.9918 H   0  0  0  0  0  0
    1.1100   54.3594   22.9824 H   0  0  0  0  0  0
    4.2115   54.8968   22.7487 H   0  0  0  0  0  0
    3.1985   54.8071   21.2956 H   0  0  0  0  0  0
    5.4885   52.8345   21.9598 H   0  0  0  0  0  0
    5.8496   54.3308   21.1809 H   0  0  0  0  0  0
    5.6547   52.3135   19.6843 H   0  0  0  0  0  0
    4.7623   53.7494   19.1594 H   0  0  0  0  0  0
    2.7679   50.4317   20.7264 H   0  0  0  0  0  0
    4.1808   50.9205   21.5394 H   0  0  0  0  0  0
    1.4856   52.4693   21.4295 H   0  0  0  0  0  0
    1.9435   51.3807   22.7500 H   0  0  0  0  0  0
    4.1803   52.7016   17.5896 H   0  0  0  0  0  0
    3.0088   53.7770   14.4639 H   0  0  0  0  0  0
    4.2948   52.8432   15.2107 H   0  0  0  0  0  0
    3.9086   54.4504   15.8123 H   0  0  0  0  0  0
    0.5459   53.5464   17.2963 H   0  0  0  0  0  0
    1.6875   54.8613   17.0777 H   0  0  0  0  0  0
    0.8265   54.2012   15.6943 H   0  0  0  0  0  0
    1.1406   51.1487   16.4059 H   0  0  0  0  0  0
    1.4277   51.8117   14.8078 H   0  0  0  0  0  0
    2.6851   50.8837   15.6158 H   0  0  0  0  0  0
    3.5916   52.8463   23.4380 H   0  0  0  0  0  0
  1  2  1  0  0  0
  1 38  1  0  0  0
  1 39  1  0  0  0
  1 40  1  0  0  0
  2  3  1  0  0  0
  2 41  1  0  0  0
  2 42  1  0  0  0
  3  9  1  0  0  0
  3  4  1  0  0  0
  4  5  2  0  0  0
  4 23  1  0  0  0
  5  6  1  0  0  0
  5 18  1  0  0  0
  6  7  1  0  0  0
  6  8  1  0  0  0
  6 11  1  0  0  0
  8  9  1  0  0  0
  8 43  1  0  0  0
  9 10  2  0  0  0
 11 16  2  0  0  0
 11 12  1  0  0  0
 12 13  2  0  0  0
 12 44  1  0  0  0
 13 14  1  0  0  0
 13 45  1  0  0  0
 14 15  2  0  0  0
 14 17  1  0  0  0
 15 16  1  0  0  0
 15 46  1  0  0  0
 16 47  1  0  0  0
 18 19  2  0  0  0
 18 20  1  0  0  0
 20 21  1  0  0  0
 21 22  1  0  0  0
 21 48  1  0  0  0
 21 49  1  0  0  0
 22 50  1  0  0  0
 22 51  1  0  0  0
 22 52  1  0  0  0
 23 24  1  0  0  0
 23 53  1  0  0  0
 23 54  1  0  0  0
 24 30  1  0  0  0
 24 25  1  0  0  0
 24 75  1  0  0  0
 25 26  1  0  0  0
 25 55  1  0  0  0
 25 56  1  0  0  0
 26 27  1  0  0  0
 26 57  1  0  0  0
 26 58  1  0  0  0
 27 28  1  0  0  0
 27 59  1  0  0  0
 27 60  1  0  0  0
 28 29  1  0  0  0
 28 31  1  0  0  0
 29 30  1  0  0  0
 29 61  1  0  0  0
 29 62  1  0  0  0
 30 63  1  0  0  0
 30 64  1  0  0  0
 31 32  2  0  0  0
 31 33  1  0  0  0
 33 34  1  0  0  0
 33 65  1  0  0  0
 34 35  1  0  0  0
 34 36  1  0  0  0
 34 37  1  0  0  0
 35 66  1  0  0  0
 35 67  1  0  0  0
 35 68  1  0  0  0
 36 69  1  0  0  0
 36 70  1  0  0  0
 36 71  1  0  0  0
 37 72  1  0  0  0
 37 73  1  0  0  0
 37 74  1  0  0  0
M  CHG  1  24   1
M  END
> <i_i_glide_confnum>
319

> <i_i_glide_lignum>
882

> <i_i_glide_posenum>
199

> <i_i_glide_rotatable_bonds>
10

> <i_m_Source_File_Index>
2284

> <b_m_subgroup_collapsed>
0

> <r_i_docking_score>
-4.78894

> <r_i_glide_ecoul>
0.855653

> <r_i_glide_eff_state_penalty>
0

> <r_i_glide_einternal>
9.01246

> <r_i_glide_emodel>
-51.1758

> <r_i_glide_energy>
-43.3911

> <r_i_glide_erotb>
0.56211

> <r_i_glide_esite>
-0.215354

> <r_i_glide_evdw>
-44.2468

> <r_i_glide_gscore>
-4.78894

> <r_i_glide_hbond>
0

> <r_i_glide_ligand_efficiency>
-0.133026

> <r_i_glide_ligand_efficiency_ln>
-1.04482

> <r_i_glide_ligand_efficiency_sa>
-0.439243

> <r_i_glide_lipo>
-2.70018

> <r_i_glide_metal>
0

> <r_i_glide_rewards>
-0.351526

> <s_i_glide_gridfile>
wee1_glide-grid

> <s_m_Source_File>
wee1_decoys_glide_SP.sdf

> <s_m_Source_Path>
/Users/zhangxujun/Desktop

> <s_m_entry_id>
2559

> <s_m_entry_name>
wee1_decoys_glide_SP.2284

> <s_m_subgroup_title>
wee1_decoys_glide_SP

> <s_m_subgroupid>
wee1_decoys_glide_SP


$$$$
