ZINC14857020_71
                    3D
 Schrodinger Suite 2024-2.
 53 56  0  0  1  0            999 V2000
    5.1792   53.2552   17.0906 C   0  0  0  0  0  0
    3.9811   53.3168   18.0572 C   0  0  0  0  0  0
    4.3431   53.5991   19.5139 C   0  0  0  0  0  0
    3.7021   52.8893   20.5314 C   0  0  0  0  0  0
    4.0136   53.1381   21.8657 C   0  0  0  0  0  0
    4.9780   54.0957   22.2008 C   0  0  0  0  0  0
    5.6010   54.8214   21.1781 C   0  0  0  0  0  0
    5.2845   54.5765   19.8454 C   0  0  0  0  0  0
    5.3774   54.3318   23.6248 C   0  0  0  0  0  0
    6.6365   54.7888   24.0257 C   0  0  0  0  0  0
    6.7041   54.8972   25.7467 S   0  0  0  0  0  0
    5.0723   54.3013   25.8070 C   0  0  0  0  0  0
    4.5355   54.0975   24.6271 N   0  0  0  0  0  0
    4.3746   54.0713   26.9922 N   0  0  0  0  0  0
    4.8878   54.0278   28.2486 C   0  0  0  0  0  0
    6.0882   54.0961   28.4975 O   0  0  0  0  0  0
    3.9458   53.8755   29.4682 C   0  0  0  0  0  0
    2.5372   53.6160   29.1100 N   0  0  0  0  0  0
    2.0553   52.3708   28.9037 C   0  0  0  0  0  0
    2.6144   51.2969   29.1309 O   0  0  0  0  0  0
    0.6567   52.5551   28.3302 C   0  0  2  0  0  0
    0.5294   53.9834   28.4815 N   0  0  0  0  0  0
    1.6456   54.6081   28.8678 C   0  0  0  0  0  0
    1.8396   55.8214   28.8824 O   0  0  0  0  0  0
   -0.3671   51.8645   29.2683 C   0  0  0  0  0  0
    0.6254   52.0753   26.8530 C   0  0  0  0  0  0
    0.1531   50.7938   26.5222 C   0  0  0  0  0  0
    0.1558   50.3535   25.2019 C   0  0  0  0  0  0
    0.6246   51.1878   24.1919 C   0  0  0  0  0  0
    1.0953   52.4605   24.4948 C   0  0  0  0  0  0
    1.1049   52.8965   25.8167 C   0  0  0  0  0  0
    0.6255   50.7582   22.9098 F   0  0  0  0  0  0
    4.8480   52.9876   16.0870 H   0  0  0  0  0  0
    5.6948   54.2121   17.0135 H   0  0  0  0  0  0
    5.9008   52.4972   17.4034 H   0  0  0  0  0  0
    3.4607   52.3584   17.9937 H   0  0  0  0  0  0
    3.2729   54.0765   17.7251 H   0  0  0  0  0  0
    2.9643   52.1382   20.2881 H   0  0  0  0  0  0
    3.5153   52.5604   22.6304 H   0  0  0  0  0  0
    6.3366   55.5770   21.4079 H   0  0  0  0  0  0
    5.7745   55.1516   19.0742 H   0  0  0  0  0  0
    7.5036   55.0359   23.4255 H   0  0  0  0  0  0
    3.3985   53.8504   26.8850 H   0  0  0  0  0  0
    4.0284   54.7734   30.0809 H   0  0  0  0  0  0
    4.3195   53.0467   30.0693 H   0  0  0  0  0  0
   -0.3842   54.3954   28.5960 H   0  0  0  0  0  0
   -0.1524   50.8060   29.3861 H   0  0  0  0  0  0
   -0.3825   52.2942   30.2734 H   0  0  0  0  0  0
   -1.3814   51.9395   28.8741 H   0  0  0  0  0  0
   -0.2088   50.1050   27.2728 H   0  0  0  0  0  0
   -0.2003   49.3618   24.9671 H   0  0  0  0  0  0
    1.4615   53.1031   23.7083 H   0  0  0  0  0  0
    1.4978   53.8816   26.0239 H   0  0  0  0  0  0
  1  2  1  0  0  0
  1 33  1  0  0  0
  1 34  1  0  0  0
  1 35  1  0  0  0
  2  3  1  0  0  0
  2 36  1  0  0  0
  2 37  1  0  0  0
  3  8  2  0  0  0
  3  4  1  0  0  0
  4  5  2  0  0  0
  4 38  1  0  0  0
  5  6  1  0  0  0
  5 39  1  0  0  0
  6  7  2  0  0  0
  6  9  1  0  0  0
  7  8  1  0  0  0
  7 40  1  0  0  0
  8 41  1  0  0  0
  9 13  1  0  0  0
  9 10  2  0  0  0
 10 11  1  0  0  0
 10 42  1  0  0  0
 11 12  1  0  0  0
 12 13  2  0  0  0
 12 14  1  0  0  0
 14 15  1  0  0  0
 14 43  1  0  0  0
 15 16  2  0  0  0
 15 17  1  0  0  0
 17 18  1  0  0  0
 17 44  1  0  0  0
 17 45  1  0  0  0
 18 23  1  0  0  0
 18 19  1  0  0  0
 19 20  2  0  0  0
 19 21  1  0  0  0
 21 22  1  0  0  0
 21 25  1  0  0  0
 21 26  1  0  0  0
 22 23  1  0  0  0
 22 46  1  0  0  0
 23 24  2  0  0  0
 25 47  1  0  0  0
 25 48  1  0  0  0
 25 49  1  0  0  0
 26 31  2  0  0  0
 26 27  1  0  0  0
 27 28  2  0  0  0
 27 50  1  0  0  0
 28 29  1  0  0  0
 28 51  1  0  0  0
 29 30  2  0  0  0
 29 32  1  0  0  0
 30 31  1  0  0  0
 30 52  1  0  0  0
 31 53  1  0  0  0
M  END
> <i_i_glide_confnum>
45

> <i_i_glide_lignum>
72

> <i_i_glide_posenum>
309

> <i_i_glide_rotatable_bonds>
7

> <i_m_Source_File_Index>
3666

> <b_m_subgroup_collapsed>
0

> <r_i_docking_score>
-6.42632

> <r_i_glide_ecoul>
-1.79679

> <r_i_glide_eff_state_penalty>
0

> <r_i_glide_einternal>
2.97171

> <r_i_glide_emodel>
-73.2723

> <r_i_glide_energy>
-53.9744

> <r_i_glide_erotb>
0.58798

> <r_i_glide_esite>
0

> <r_i_glide_evdw>
-52.1776

> <r_i_glide_gscore>
-6.42632

> <r_i_glide_hbond>
-0.166606

> <r_i_glide_ligand_efficiency>
-0.200823

> <r_i_glide_ligand_efficiency_ln>
-1.43903

> <r_i_glide_ligand_efficiency_sa>
-0.637572

> <r_i_glide_lipo>
-2.25017

> <r_i_glide_metal>
0

> <r_i_glide_rewards>
-1.71912

> <s_i_glide_gridfile>
wee1_glide-grid

> <s_m_Source_File>
wee1_decoys_glide_SP.sdf

> <s_m_Source_Path>
/Users/zhangxujun/Desktop

> <s_m_entry_id>
3941

> <s_m_entry_name>
wee1_decoys_glide_SP.3666

> <s_m_subgroup_title>
wee1_decoys_glide_SP

> <s_m_subgroupid>
wee1_decoys_glide_SP


$$$$
