ZINC40096525_551
                    3D
 Schrodinger Suite 2024-2.
 57 61  0  0  1  0            999 V2000
   -2.7725   51.7726   17.6533 C   0  0  0  0  0  0
   -3.2981   51.3572   18.8744 C   0  0  0  0  0  0
   -2.4800   51.3284   20.0003 C   0  0  0  0  0  0
   -1.1399   51.7056   19.9093 C   0  0  0  0  0  0
   -0.6207   52.1238   18.6757 C   0  0  0  0  0  0
   -1.4374   52.1556   17.5487 C   0  0  0  0  0  0
   -0.4134   51.7037   21.0813 O   0  0  0  0  0  0
    0.9612   51.7631   21.0834 C   0  0  0  0  0  0
    1.7382   50.7503   20.5202 C   0  0  0  0  0  0
    3.1270   50.8254   20.5920 C   0  0  0  0  0  0
    3.7453   51.8814   21.2599 C   0  0  0  0  0  0
    2.9817   52.9196   21.8136 C   0  0  0  0  0  0
    1.5893   52.8428   21.7012 C   0  0  0  0  0  0
    3.6284   54.1295   22.5292 C   0  0  1  0  0  0
    3.0580   55.0121   22.2364 H   0  0  0  0  0  0
    3.7219   54.0529   24.0417 C   0  0  0  0  0  0
    5.0321   54.0982   24.3521 C   0  0  0  0  0  0
    5.8752   54.2231   23.1772 C   0  0  0  0  0  0
    7.1043   54.2375   23.1049 O   0  0  0  0  0  0
    5.0111   54.3713   22.1478 N   0  0  0  0  0  0
    5.4112   54.6705   20.7629 C   0  0  0  0  0  0
    6.3099   55.9177   20.6100 C   0  0  0  0  0  0
    6.3359   56.3666   19.2725 O   0  0  0  0  0  0
    5.6281   54.0950   25.4943 O   0  5  0  0  0  0
    2.5065   53.9735   24.8791 C   0  0  0  0  0  0
    1.4085   54.0744   24.3368 O   0  0  0  0  0  0
    2.5124   53.7057   26.3520 C   0  0  0  0  0  0
    3.2626   54.5026   27.2289 C   0  0  0  0  0  0
    3.0925   54.4154   28.6090 C   0  0  0  0  0  0
    2.1487   53.5367   29.1277 C   0  0  0  0  0  0
    1.3907   52.7267   28.2713 C   0  0  0  0  0  0
    1.5751   52.8084   26.8923 C   0  0  0  0  0  0
    0.4609   51.8265   28.7503 O   0  0  0  0  0  0
   -0.0278   52.1421   30.0585 C   0  0  0  0  0  0
    1.1464   52.5027   31.0018 C   0  0  0  0  0  0
    1.9139   53.5946   30.4822 O   0  0  0  0  0  0
   -3.4055   51.7946   16.7781 H   0  0  0  0  0  0
   -4.3336   51.0592   18.9465 H   0  0  0  0  0  0
   -2.8826   51.0128   20.9518 H   0  0  0  0  0  0
    0.4090   52.4381   18.5882 H   0  0  0  0  0  0
   -1.0353   52.4777   16.5992 H   0  0  0  0  0  0
    1.2674   49.9146   20.0239 H   0  0  0  0  0  0
    3.7295   50.0648   20.1248 H   0  0  0  0  0  0
    4.8232   51.8956   21.3208 H   0  0  0  0  0  0
    0.9760   53.6416   22.0783 H   0  0  0  0  0  0
    5.9101   53.7931   20.3523 H   0  0  0  0  0  0
    4.5014   54.8093   20.1767 H   0  0  0  0  0  0
    5.9045   56.7344   21.2081 H   0  0  0  0  0  0
    7.3122   55.7509   21.0055 H   0  0  0  0  0  0
    5.4589   56.6697   19.0242 H   0  0  0  0  0  0
    3.9337   55.2594   26.8510 H   0  0  0  0  0  0
    3.6531   55.0650   29.2641 H   0  0  0  0  0  0
    0.9539   52.2029   26.2471 H   0  0  0  0  0  0
   -0.7042   52.9958   29.9917 H   0  0  0  0  0  0
   -0.6016   51.3001   30.4492 H   0  0  0  0  0  0
    0.7727   52.7599   31.9938 H   0  0  0  0  0  0
    1.8098   51.6477   31.1127 H   0  0  0  0  0  0
  1  6  2  0  0  0
  1  2  1  0  0  0
  1 37  1  0  0  0
  2  3  2  0  0  0
  2 38  1  0  0  0
  3  4  1  0  0  0
  3 39  1  0  0  0
  4  5  2  0  0  0
  4  7  1  0  0  0
  5  6  1  0  0  0
  5 40  1  0  0  0
  6 41  1  0  0  0
  7  8  1  0  0  0
  8 13  2  0  0  0
  8  9  1  0  0  0
  9 10  2  0  0  0
  9 42  1  0  0  0
 10 11  1  0  0  0
 10 43  1  0  0  0
 11 12  2  0  0  0
 11 44  1  0  0  0
 12 13  1  0  0  0
 12 14  1  0  0  0
 13 45  1  0  0  0
 14 15  1  0  0  0
 14 20  1  0  0  0
 14 16  1  0  0  0
 16 17  2  0  0  0
 16 25  1  0  0  0
 17 18  1  0  0  0
 17 24  1  0  0  0
 18 19  2  0  0  0
 18 20  1  0  0  0
 20 21  1  0  0  0
 21 22  1  0  0  0
 21 46  1  0  0  0
 21 47  1  0  0  0
 22 23  1  0  0  0
 22 48  1  0  0  0
 22 49  1  0  0  0
 23 50  1  0  0  0
 25 26  2  0  0  0
 25 27  1  0  0  0
 27 32  2  0  0  0
 27 28  1  0  0  0
 28 29  2  0  0  0
 28 51  1  0  0  0
 29 30  1  0  0  0
 29 52  1  0  0  0
 30 36  1  0  0  0
 30 31  2  0  0  0
 31 32  1  0  0  0
 31 33  1  0  0  0
 32 53  1  0  0  0
 33 34  1  0  0  0
 34 35  1  0  0  0
 34 54  1  0  0  0
 34 55  1  0  0  0
 35 36  1  0  0  0
 35 56  1  0  0  0
 35 57  1  0  0  0
M  CHG  1  24  -1
M  END
> <i_i_glide_confnum>
56

> <i_i_glide_lignum>
552

> <i_i_glide_posenum>
161

> <i_i_glide_rotatable_bonds>
8

> <i_m_Source_File_Index>
4316

> <b_m_subgroup_collapsed>
0

> <r_i_docking_score>
-5.43574

> <r_i_glide_ecoul>
-2.38547

> <r_i_glide_eff_state_penalty>
0

> <r_i_glide_einternal>
7.97285

> <r_i_glide_emodel>
-59.5618

> <r_i_glide_energy>
-46.5519

> <r_i_glide_erotb>
0.63408

> <r_i_glide_esite>
0

> <r_i_glide_evdw>
-44.1665

> <r_i_glide_gscore>
-5.43574

> <r_i_glide_hbond>
-0.251908

> <r_i_glide_ligand_efficiency>
-0.155307

> <r_i_glide_ligand_efficiency_ln>
-1.19327

> <r_i_glide_ligand_efficiency_sa>
-0.508019

> <r_i_glide_lipo>
-2.07965

> <r_i_glide_metal>
0

> <r_i_glide_rewards>
-1.17212

> <s_i_glide_gridfile>
wee1_glide-grid

> <s_m_Source_File>
wee1_decoys_glide_SP.sdf

> <s_m_Source_Path>
/Users/zhangxujun/Desktop

> <s_m_entry_id>
4591

> <s_m_entry_name>
wee1_decoys_glide_SP.4316

> <s_m_subgroup_title>
wee1_decoys_glide_SP

> <s_m_subgroupid>
wee1_decoys_glide_SP


$$$$
