ZINC20719743_2360
                    3D
 Schrodinger Suite 2024-2.
 55 60  0  0  1  0            999 V2000
    2.7019   58.0954   16.3447 C   0  0  0  0  0  0
    4.0205   58.1332   16.7852 C   0  0  0  0  0  0
    4.6149   56.9743   17.2778 C   0  0  0  0  0  0
    3.8857   55.7830   17.3386 C   0  0  0  0  0  0
    2.5667   55.7503   16.8844 C   0  0  0  0  0  0
    1.9705   56.9103   16.3926 C   0  0  0  0  0  0
    4.4866   54.5825   17.7288 N   0  0  0  0  0  0
    5.5268   54.3776   19.1526 S   0  0  0  0  0  0
    6.1938   55.6498   19.4544 O   0  0  0  0  0  0
    6.3044   53.1712   18.8808 O   0  0  0  0  0  0
    4.4974   53.9604   20.5456 C   0  0  0  0  0  0
    4.7868   54.4964   21.7975 C   0  0  0  0  0  0
    4.0486   54.0971   22.9071 C   0  0  0  0  0  0
    3.0245   53.1619   22.7714 C   0  0  0  0  0  0
    2.7009   52.6238   21.5111 C   0  0  0  0  0  0
    3.4716   53.0251   20.4103 C   0  0  0  0  0  0
    1.5605   51.6159   21.3532 C   0  0  1  0  0  0
    0.7747   52.0934   20.7646 H   0  0  0  0  0  0
    2.0295   50.3147   20.7279 C   0  0  0  0  0  0
    2.1555   49.3430   21.6470 C   0  0  0  0  0  0
    1.7155   49.8194   23.0113 C   0  0  0  0  0  0
    0.9909   51.1369   22.7006 C   0  0  1  0  0  0
   -0.0554   50.8766   22.5240 H   0  0  0  0  0  0
    0.9794   52.2181   23.8248 C   0  0  2  0  0  0
    0.3152   53.0206   23.4978 H   0  0  0  0  0  0
    2.2985   52.8343   23.9292 N   0  0  0  0  0  0
    0.4565   51.7239   25.1835 C   0  0  0  0  0  0
   -0.4068   50.6595   25.4157 C   0  0  0  0  0  0
   -0.6435   50.4970   26.7564 N   0  0  0  0  0  0
   -1.2057   49.7413   27.1445 H   0  0  0  0  0  0
    0.0209   51.4670   27.4631 C   0  0  0  0  0  0
    0.7303   52.2609   26.5066 C   0  0  0  0  0  0
    1.5050   53.3314   26.9942 C   0  0  0  0  0  0
    1.5507   53.5795   28.3652 C   0  0  0  0  0  0
    0.8446   52.7858   29.2643 C   0  0  0  0  0  0
    0.0646   51.7140   28.8390 C   0  0  0  0  0  0
    2.2447   58.9999   15.9707 H   0  0  0  0  0  0
    4.5785   59.0586   16.7395 H   0  0  0  0  0  0
    5.6516   57.0132   17.5765 H   0  0  0  0  0  0
    1.9989   54.8312   16.9073 H   0  0  0  0  0  0
    0.9490   56.8952   16.0418 H   0  0  0  0  0  0
    4.1299   53.7236   17.3387 H   0  0  0  0  0  0
    5.5961   55.2025   21.9174 H   0  0  0  0  0  0
    4.2832   54.5135   23.8749 H   0  0  0  0  0  0
    3.2666   52.6024   19.4361 H   0  0  0  0  0  0
    2.2871   50.2346   19.6816 H   0  0  0  0  0  0
    2.5245   48.3439   21.4725 H   0  0  0  0  0  0
    2.5647   49.9578   23.6806 H   0  0  0  0  0  0
    1.0478   49.1017   23.4875 H   0  0  0  0  0  0
    2.4843   53.3043   24.8014 H   0  0  0  0  0  0
   -0.8684   49.9747   24.7190 H   0  0  0  0  0  0
    2.0501   53.9763   26.3253 H   0  0  0  0  0  0
    2.1402   54.4069   28.7372 H   0  0  0  0  0  0
    0.9008   53.0080   30.3205 H   0  0  0  0  0  0
   -0.4802   51.1023   29.5447 H   0  0  0  0  0  0
  1  6  2  0  0  0
  1  2  1  0  0  0
  1 37  1  0  0  0
  2  3  2  0  0  0
  2 38  1  0  0  0
  3  4  1  0  0  0
  3 39  1  0  0  0
  4  5  2  0  0  0
  4  7  1  0  0  0
  5  6  1  0  0  0
  5 40  1  0  0  0
  6 41  1  0  0  0
  7  8  1  0  0  0
  7 42  1  0  0  0
  8  9  2  0  0  0
  8 10  2  0  0  0
  8 11  1  0  0  0
 11 16  2  0  0  0
 11 12  1  0  0  0
 12 13  2  0  0  0
 12 43  1  0  0  0
 13 14  1  0  0  0
 13 44  1  0  0  0
 14 26  1  0  0  0
 14 15  2  0  0  0
 15 16  1  0  0  0
 15 17  1  0  0  0
 16 45  1  0  0  0
 17 18  1  0  0  0
 17 22  1  0  0  0
 17 19  1  0  0  0
 19 20  2  0  0  0
 19 46  1  0  0  0
 20 21  1  0  0  0
 20 47  1  0  0  0
 21 22  1  0  0  0
 21 48  1  0  0  0
 21 49  1  0  0  0
 22 23  1  0  0  0
 22 24  1  0  0  0
 24 25  1  0  0  0
 24 26  1  0  0  0
 24 27  1  0  0  0
 26 50  1  0  0  0
 27 32  1  0  0  0
 27 28  2  0  0  0
 28 29  1  0  0  0
 28 51  1  0  0  0
 29 30  1  0  0  0
 29 31  1  0  0  0
 31 36  2  0  0  0
 31 32  1  0  0  0
 32 33  2  0  0  0
 33 34  1  0  0  0
 33 52  1  0  0  0
 34 35  2  0  0  0
 34 53  1  0  0  0
 35 36  1  0  0  0
 35 54  1  0  0  0
 36 55  1  0  0  0
M  END
> <i_i_glide_confnum>
22

> <i_i_glide_lignum>
2361

> <i_i_glide_posenum>
280

> <i_i_glide_rotatable_bonds>
4

> <i_m_Source_File_Index>
5016

> <b_m_subgroup_collapsed>
0

> <r_i_docking_score>
-4.21262

> <r_i_glide_ecoul>
-5.10833

> <r_i_glide_eff_state_penalty>
0

> <r_i_glide_einternal>
7.29008

> <r_i_glide_emodel>
-49.7945

> <r_i_glide_energy>
-42.9779

> <r_i_glide_erotb>
0.409841

> <r_i_glide_esite>
-0.16301

> <r_i_glide_evdw>
-37.8695

> <r_i_glide_gscore>
-4.21262

> <r_i_glide_hbond>
-0.16

> <r_i_glide_ligand_efficiency>
-0.131645

> <r_i_glide_ligand_efficiency_ln>
-0.943322

> <r_i_glide_ligand_efficiency_sa>
-0.417945

> <r_i_glide_lipo>
-1.77367

> <r_i_glide_metal>
0

> <r_i_glide_rewards>
0.133941

> <s_i_glide_gridfile>
wee1_glide-grid

> <s_m_Source_File>
wee1_decoys_glide_SP.sdf

> <s_m_Source_Path>
/Users/zhangxujun/Desktop

> <s_m_entry_id>
5291

> <s_m_entry_name>
wee1_decoys_glide_SP.5016

> <s_m_subgroup_title>
wee1_decoys_glide_SP

> <s_m_subgroupid>
wee1_decoys_glide_SP


$$$$
