ZINC06146128_4943
                    3D
 Schrodinger Suite 2024-2.
 59 63  0  0  1  0            999 V2000
    7.0517   53.6836   28.1396 C   0  0  0  0  0  0
    5.8803   54.6193   27.8058 C   0  0  0  0  0  0
    5.3736   54.3997   26.4900 O   0  0  0  0  0  0
    6.0387   54.8465   25.3966 C   0  0  0  0  0  0
    7.1034   55.4678   25.4311 O   0  0  0  0  0  0
    5.3560   54.4967   24.1458 C   0  0  0  0  0  0
    4.0269   53.9889   23.9690 C   0  0  0  0  0  0
    3.8138   53.7838   22.5808 C   0  0  0  0  0  0
    2.6787   53.2777   22.0916 N   0  0  0  0  0  0
    1.7067   52.9223   22.9730 C   0  0  0  0  0  0
    0.5094   52.3299   22.5119 C   0  0  0  0  0  0
   -0.4731   51.9525   23.4269 C   0  0  0  0  0  0
   -0.2854   52.1485   24.7944 C   0  0  0  0  0  0
    0.8855   52.7308   25.2758 C   0  0  0  0  0  0
    1.8935   53.1308   24.3709 C   0  0  0  0  0  0
    3.0499   53.6888   24.8291 N   0  0  0  0  0  0
    4.9352   54.2287   21.8962 N   0  0  0  0  0  0
    5.8709   54.6146   22.8563 C   0  0  0  0  0  0
    7.1044   55.0622   22.4816 N   0  0  0  0  0  0
    5.1034   54.2755   20.4839 C   0  0  0  0  0  0
    5.6264   55.4313   19.8894 C   0  0  0  0  0  0
    5.7659   55.5092   18.5082 C   0  0  0  0  0  0
    5.3812   54.4360   17.7089 C   0  0  0  0  0  0
    4.8310   53.2967   18.2923 C   0  0  0  0  0  0
    4.6905   53.2122   19.6758 C   0  0  0  0  0  0
    5.4803   54.5110   16.3164 N   0  0  0  0  0  0
    7.0054   54.8237   15.4711 S   0  0  0  0  0  0
    6.6353   55.1612   14.0937 O   0  0  0  0  0  0
    7.7986   55.7466   16.2906 O   0  0  0  0  0  0
    7.8672   53.2546   15.4251 C   0  0  0  0  0  0
    7.7494   52.4353   14.2999 C   0  0  0  0  0  0
    8.4369   51.2271   14.2476 C   0  0  0  0  0  0
    9.2393   50.8356   15.3213 C   0  0  0  0  0  0
    9.3390   51.6461   16.4535 C   0  0  0  0  0  0
    8.6544   52.8571   16.5080 C   0  0  0  0  0  0
    9.9764   49.5103   15.2710 C   0  0  0  0  0  0
    7.3984   53.8428   29.1592 H   0  0  0  0  0  0
    6.7605   52.6373   28.0433 H   0  0  0  0  0  0
    7.8997   53.8585   27.4772 H   0  0  0  0  0  0
    6.1787   55.6618   27.9285 H   0  0  0  0  0  0
    5.0681   54.4469   28.5096 H   0  0  0  0  0  0
    0.3666   52.1713   21.4512 H   0  0  0  0  0  0
   -1.3865   51.4948   23.0745 H   0  0  0  0  0  0
   -1.0534   51.8407   25.4888 H   0  0  0  0  0  0
    1.0323   52.8747   26.3371 H   0  0  0  0  0  0
    7.8061   55.2972   23.1804 H   0  0  0  0  0  0
    7.4182   55.0234   21.5214 H   0  0  0  0  0  0
    5.9025   56.2888   20.4850 H   0  0  0  0  0  0
    6.1531   56.4155   18.0654 H   0  0  0  0  0  0
    4.5152   52.4681   17.6748 H   0  0  0  0  0  0
    4.2652   52.3143   20.1028 H   0  0  0  0  0  0
    4.7224   54.1413   15.7666 H   0  0  0  0  0  0
    7.1377   52.7351   13.4604 H   0  0  0  0  0  0
    8.3522   50.5990   13.3720 H   0  0  0  0  0  0
    9.9571   51.3393   17.2829 H   0  0  0  0  0  0
    8.7450   53.4869   17.3806 H   0  0  0  0  0  0
    9.5076   48.8211   14.5685 H   0  0  0  0  0  0
   11.0172   49.6584   14.9809 H   0  0  0  0  0  0
    9.9575   49.0259   16.2488 H   0  0  0  0  0  0
  1  2  1  0  0  0
  1 37  1  0  0  0
  1 38  1  0  0  0
  1 39  1  0  0  0
  2  3  1  0  0  0
  2 40  1  0  0  0
  2 41  1  0  0  0
  3  4  1  0  0  0
  4  5  2  0  0  0
  4  6  1  0  0  0
  6 18  2  0  0  0
  6  7  1  0  0  0
  7 16  2  0  0  0
  7  8  1  0  0  0
  8  9  2  0  0  0
  8 17  1  0  0  0
  9 10  1  0  0  0
 10 15  2  0  0  0
 10 11  1  0  0  0
 11 12  2  0  0  0
 11 42  1  0  0  0
 12 13  1  0  0  0
 12 43  1  0  0  0
 13 14  2  0  0  0
 13 44  1  0  0  0
 14 15  1  0  0  0
 14 45  1  0  0  0
 15 16  1  0  0  0
 17 18  1  0  0  0
 17 20  1  0  0  0
 18 19  1  0  0  0
 19 46  1  0  0  0
 19 47  1  0  0  0
 20 25  2  0  0  0
 20 21  1  0  0  0
 21 22  2  0  0  0
 21 48  1  0  0  0
 22 23  1  0  0  0
 22 49  1  0  0  0
 23 24  2  0  0  0
 23 26  1  0  0  0
 24 25  1  0  0  0
 24 50  1  0  0  0
 25 51  1  0  0  0
 26 27  1  0  0  0
 26 52  1  0  0  0
 27 28  2  0  0  0
 27 29  2  0  0  0
 27 30  1  0  0  0
 30 35  2  0  0  0
 30 31  1  0  0  0
 31 32  2  0  0  0
 31 53  1  0  0  0
 32 33  1  0  0  0
 32 54  1  0  0  0
 33 34  2  0  0  0
 33 36  1  0  0  0
 34 35  1  0  0  0
 34 55  1  0  0  0
 35 56  1  0  0  0
 36 57  1  0  0  0
 36 58  1  0  0  0
 36 59  1  0  0  0
M  END
> <i_i_glide_confnum>
4

> <i_i_glide_lignum>
4944

> <i_i_glide_posenum>
338

> <i_i_glide_rotatable_bonds>
7

> <i_m_Source_File_Index>
1810

> <b_m_subgroup_collapsed>
0

> <r_i_docking_score>
-7.11031

> <r_i_glide_ecoul>
-6.60764

> <r_i_glide_eff_state_penalty>
0

> <r_i_glide_einternal>
1.68718

> <r_i_glide_emodel>
-74.2516

> <r_i_glide_energy>
-51.722

> <r_i_glide_erotb>
0.487213

> <r_i_glide_esite>
-0.00338593

> <r_i_glide_evdw>
-45.1144

> <r_i_glide_gscore>
-7.11031

> <r_i_glide_hbond>
-0.586325

> <r_i_glide_ligand_efficiency>
-0.197509

> <r_i_glide_ligand_efficiency_ln>
-1.55128

> <r_i_glide_ligand_efficiency_sa>
-0.652159

> <r_i_glide_lipo>
-2.35907

> <r_i_glide_metal>
0

> <r_i_glide_rewards>
-1.40187

> <s_i_glide_gridfile>
wee1_glide-grid

> <s_m_Source_File>
wee1_decoys_glide_SP.sdf

> <s_m_Source_Path>
/Users/zhangxujun/Desktop

> <s_m_entry_id>
2085

> <s_m_entry_name>
wee1_decoys_glide_SP.1810

> <s_m_subgroup_title>
wee1_decoys_glide_SP

> <s_m_subgroupid>
wee1_decoys_glide_SP


$$$$
