ZINC54599737_1760
                    3D
 Schrodinger Suite 2024-2.
 38 40  0  0  1  0            999 V2000
    4.1281   53.8034   20.2236 C   0  0  0  0  0  0
    4.1674   53.9220   21.7363 C   0  0  0  0  0  0
    5.3882   54.0967   22.3871 C   0  0  0  0  0  0
    5.4290   54.1817   23.7754 C   0  0  0  0  0  0
    4.2486   54.0967   24.5230 C   0  0  0  0  0  0
    3.0262   53.9288   23.8620 C   0  0  0  0  0  0
    2.9871   53.8350   22.4753 C   0  0  0  0  0  0
    4.3090   54.1434   26.0159 C   0  0  0  0  0  0
    5.3516   54.6333   26.8114 C   0  0  0  0  0  0
    4.9364   54.4967   28.1152 C   0  0  0  0  0  0
    3.7009   53.8976   28.0459 N   0  0  0  0  0  0
    3.3240   53.6967   26.7704 N   0  0  0  0  0  0
    2.7989   53.5338   29.1649 C   0  0  2  0  0  0
    3.4256   53.6241   30.0505 H   0  0  0  0  0  0
    2.2405   52.1030   29.0486 C   0  0  0  0  0  0
    0.8714   52.2275   28.3596 C   0  0  0  0  0  0
    0.5388   53.7295   28.3237 C   0  0  0  0  0  0
    1.5457   54.4180   29.2466 C   0  0  2  0  0  0
    1.1333   54.3228   30.2537 H   0  0  0  0  0  0
    1.7029   55.8073   29.0293 O   0  0  0  0  0  0
    5.5044   54.8967   29.2817 N   0  0  0  0  0  0
    3.2232   53.2967   19.8849 H   0  0  0  0  0  0
    4.9715   53.2131   19.8622 H   0  0  0  0  0  0
    4.1762   54.7889   19.7598 H   0  0  0  0  0  0
    6.3044   54.1635   21.8203 H   0  0  0  0  0  0
    6.3851   54.2992   24.2633 H   0  0  0  0  0  0
    2.1043   53.8575   24.4206 H   0  0  0  0  0  0
    2.0395   53.6969   21.9747 H   0  0  0  0  0  0
    6.2777   55.0728   26.4774 H   0  0  0  0  0  0
    2.9127   51.4235   28.5239 H   0  0  0  0  0  0
    2.1026   51.6963   30.0507 H   0  0  0  0  0  0
    0.1118   51.6671   28.9082 H   0  0  0  0  0  0
    0.9024   51.8151   27.3495 H   0  0  0  0  0  0
   -0.4956   53.9478   28.5876 H   0  0  0  0  0  0
    0.7044   54.0967   27.3118 H   0  0  0  0  0  0
    0.8599   56.2433   29.1710 H   0  0  0  0  0  0
    6.3584   55.4605   29.2743 H   0  0  0  0  0  0
    5.4396   54.3030   30.0919 H   0  0  0  0  0  0
  1  2  1  0  0  0
  1 22  1  0  0  0
  1 23  1  0  0  0
  1 24  1  0  0  0
  2  7  2  0  0  0
  2  3  1  0  0  0
  3  4  2  0  0  0
  3 25  1  0  0  0
  4  5  1  0  0  0
  4 26  1  0  0  0
  5  6  2  0  0  0
  5  8  1  0  0  0
  6  7  1  0  0  0
  6 27  1  0  0  0
  7 28  1  0  0  0
  8 12  2  0  0  0
  8  9  1  0  0  0
  9 10  2  0  0  0
  9 29  1  0  0  0
 10 11  1  0  0  0
 10 21  1  0  0  0
 11 12  1  0  0  0
 11 13  1  0  0  0
 13 14  1  0  0  0
 13 18  1  0  0  0
 13 15  1  0  0  0
 15 16  1  0  0  0
 15 30  1  0  0  0
 15 31  1  0  0  0
 16 17  1  0  0  0
 16 32  1  0  0  0
 16 33  1  0  0  0
 17 18  1  0  0  0
 17 34  1  0  0  0
 17 35  1  0  0  0
 18 19  1  0  0  0
 18 20  1  0  0  0
 20 36  1  0  0  0
 21 37  1  0  0  0
 21 38  1  0  0  0
M  END
> <i_i_glide_confnum>
9

> <i_i_glide_lignum>
1761

> <i_i_glide_posenum>
70

> <i_i_glide_rotatable_bonds>
3

> <i_m_Source_File_Index>
5766

> <b_m_subgroup_collapsed>
0

> <r_i_docking_score>
-6.51852

> <r_i_glide_ecoul>
-1.81655

> <r_i_glide_eff_state_penalty>
0

> <r_i_glide_einternal>
0.712831

> <r_i_glide_emodel>
-43.9578

> <r_i_glide_energy>
-30.2017

> <r_i_glide_erotb>
0.532885

> <r_i_glide_esite>
-0.0507066

> <r_i_glide_evdw>
-28.3852

> <r_i_glide_gscore>
-6.51852

> <r_i_glide_hbond>
-0.32

> <r_i_glide_ligand_efficiency>
-0.34308

> <r_i_glide_ligand_efficiency_ln>
-1.65258

> <r_i_glide_ligand_efficiency_sa>
-0.915475

> <r_i_glide_lipo>
-2.96901

> <r_i_glide_metal>
0

> <r_i_glide_rewards>
-2.01994

> <s_i_glide_gridfile>
wee1_glide-grid

> <s_m_Source_File>
wee1_decoys_glide_SP.sdf

> <s_m_Source_Path>
/Users/zhangxujun/Desktop

> <s_m_entry_id>
6041

> <s_m_entry_name>
wee1_decoys_glide_SP.5766

> <s_m_subgroup_title>
wee1_decoys_glide_SP

> <s_m_subgroupid>
wee1_decoys_glide_SP


$$$$
