ZINC11859663_4618
                    3D
 Schrodinger Suite 2024-2.
 62 67  0  0  1  0            999 V2000
    6.4178   54.6662   27.1137 C   0  0  0  0  0  0
    5.6473   54.4757   25.8187 C   0  0  0  0  0  0
    4.2658   54.6660   25.7975 C   0  0  0  0  0  0
    3.5561   54.4967   24.6103 C   0  0  0  0  0  0
    4.2064   54.0990   23.4364 C   0  0  0  0  0  0
    5.5929   53.8840   23.4794 C   0  0  0  0  0  0
    6.3119   54.0966   24.6531 C   0  0  0  0  0  0
    3.4051   54.0286   22.1181 C   0  0  1  0  0  0
    2.9419   55.0129   22.0651 H   0  0  0  0  0  0
    4.2584   53.8446   20.8312 C   0  0  0  0  0  0
    4.1495   52.8177   19.9486 C   0  0  0  0  0  0
    4.9913   52.8966   18.8986 N   0  0  0  0  0  0
    5.1121   52.0724   18.3039 H   0  0  0  0  0  0
    5.8614   53.9638   18.8355 C   0  0  0  0  0  0
    6.7283   54.1918   17.9968 O   0  0  0  0  0  0
    5.5042   54.9859   20.2884 S   0  0  0  0  0  0
    3.1177   51.3321   20.0836 S   0  0  0  0  0  0
    2.7935   51.5566   21.8400 C   0  0  1  0  0  0
    3.8134   51.4974   22.2065 H   0  0  0  0  0  0
    2.2434   52.9833   22.0490 C   0  0  1  0  0  0
    1.7517   53.2968   21.1306 H   0  0  0  0  0  0
    1.0910   52.7481   23.0871 C   0  0  2  0  0  0
    0.7162   53.6334   23.6015 H   0  0  0  0  0  0
    1.7719   51.6561   23.9358 C   0  0  0  0  0  0
    1.9355   50.6368   22.7618 C   0  0  1  0  0  0
    2.4130   49.6966   23.0415 H   0  0  0  0  0  0
    0.4128   50.5293   22.5403 C   0  0  1  0  0  0
    0.0657   50.0445   23.4671 H   0  0  0  0  0  0
    0.0187   51.9256   22.2803 C   0  0  1  0  0  0
    0.0612   52.2779   21.2426 H   0  0  0  0  0  0
   -1.4710   51.7355   22.3851 C   0  0  0  0  0  0
   -2.2870   52.5037   22.8913 O   0  0  0  0  0  0
   -1.6458   50.5463   21.6914 N   0  0  0  0  0  0
   -0.4710   49.8324   21.5456 C   0  0  0  0  0  0
   -0.2097   48.8337   20.8756 O   0  0  0  0  0  0
   -2.8978   50.0948   21.0271 C   0  0  1  0  0  0
   -2.7302   49.1209   20.5677 H   0  0  0  0  0  0
   -4.1043   49.9553   22.0159 C   0  0  0  0  0  0
   -4.0179   48.7729   23.0140 C   0  0  0  0  0  0
   -2.9994   48.9919   24.1524 C   0  0  0  0  0  0
   -3.8534   47.4028   22.3209 C   0  0  0  0  0  0
   -3.3274   50.9765   19.8000 C   0  0  0  0  0  0
   -2.7793   52.0973   19.6837 O   0  0  0  0  0  0
    6.0110   54.0184   27.8903 H   0  0  0  0  0  0
    7.4788   54.4370   27.0046 H   0  0  0  0  0  0
    6.3192   55.6923   27.4664 H   0  0  0  0  0  0
    3.7435   54.9618   26.6956 H   0  0  0  0  0  0
    2.4951   54.6926   24.6021 H   0  0  0  0  0  0
    6.1389   53.5705   22.6041 H   0  0  0  0  0  0
    7.3813   53.9422   24.6528 H   0  0  0  0  0  0
    1.1522   51.3201   24.7723 H   0  0  0  0  0  0
    2.7040   51.9869   24.3861 H   0  0  0  0  0  0
   -5.0238   49.7922   21.4487 H   0  0  0  0  0  0
   -4.2721   50.8876   22.5603 H   0  0  0  0  0  0
   -4.9960   48.7508   23.5005 H   0  0  0  0  0  0
   -2.0483   48.4926   23.9605 H   0  0  0  0  0  0
   -2.7889   50.0500   24.3173 H   0  0  0  0  0  0
   -3.3860   48.5975   25.0939 H   0  0  0  0  0  0
   -4.5893   46.6896   22.6972 H   0  0  0  0  0  0
   -3.9990   47.4646   21.2437 H   0  0  0  0  0  0
   -2.8668   46.9689   22.4914 H   0  0  0  0  0  0
   -4.2185   50.4568   19.0940 O   0  5  0  0  0  0
  1  2  1  0  0  0
  1 44  1  0  0  0
  1 45  1  0  0  0
  1 46  1  0  0  0
  2  7  2  0  0  0
  2  3  1  0  0  0
  3  4  2  0  0  0
  3 47  1  0  0  0
  4  5  1  0  0  0
  4 48  1  0  0  0
  5  6  2  0  0  0
  5  8  1  0  0  0
  6  7  1  0  0  0
  6 49  1  0  0  0
  7 50  1  0  0  0
  8  9  1  0  0  0
  8 20  1  0  0  0
  8 10  1  0  0  0
 10 16  1  0  0  0
 10 11  2  0  0  0
 11 12  1  0  0  0
 11 17  1  0  0  0
 12 13  1  0  0  0
 12 14  1  0  0  0
 14 15  2  0  0  0
 14 16  1  0  0  0
 17 18  1  0  0  0
 18 19  1  0  0  0
 18 25  1  0  0  0
 18 20  1  0  0  0
 20 21  1  0  0  0
 20 22  1  0  0  0
 22 23  1  0  0  0
 22 29  1  0  0  0
 22 24  1  0  0  0
 24 25  1  0  0  0
 24 51  1  0  0  0
 24 52  1  0  0  0
 25 26  1  0  0  0
 25 27  1  0  0  0
 27 28  1  0  0  0
 27 34  1  0  0  0
 27 29  1  0  0  0
 29 30  1  0  0  0
 29 31  1  0  0  0
 31 32  2  0  0  0
 31 33  1  0  0  0
 33 34  1  0  0  0
 33 36  1  0  0  0
 34 35  2  0  0  0
 36 37  1  0  0  0
 36 38  1  0  0  0
 36 42  1  0  0  0
 38 39  1  0  0  0
 38 53  1  0  0  0
 38 54  1  0  0  0
 39 40  1  0  0  0
 39 41  1  0  0  0
 39 55  1  0  0  0
 40 56  1  0  0  0
 40 57  1  0  0  0
 40 58  1  0  0  0
 41 59  1  0  0  0
 41 60  1  0  0  0
 41 61  1  0  0  0
 42 43  2  0  0  0
 42 62  1  0  0  0
M  CHG  1  62  -1
M  END
> <i_i_glide_confnum>
3

> <i_i_glide_lignum>
4619

> <i_i_glide_posenum>
370

> <i_i_glide_rotatable_bonds>
5

> <i_m_Source_File_Index>
3108

> <b_m_subgroup_collapsed>
0

> <r_i_docking_score>
-5.81552

> <r_i_glide_ecoul>
-6.94534

> <r_i_glide_eff_state_penalty>
0

> <r_i_glide_einternal>
5.15446

> <r_i_glide_emodel>
-55.0196

> <r_i_glide_energy>
-42.831

> <r_i_glide_erotb>
0.234874

> <r_i_glide_esite>
-0.110849

> <r_i_glide_evdw>
-35.8857

> <r_i_glide_gscore>
-5.81552

> <r_i_glide_hbond>
-0.32

> <r_i_glide_ligand_efficiency>
-0.166158

> <r_i_glide_ligand_efficiency_ln>
-1.27664

> <r_i_glide_ligand_efficiency_sa>
-0.543513

> <r_i_glide_lipo>
-2.73175

> <r_i_glide_metal>
0

> <r_i_glide_rewards>
-0.0517116

> <s_i_glide_gridfile>
wee1_glide-grid

> <s_m_Source_File>
wee1_decoys_glide_SP.sdf

> <s_m_Source_Path>
/Users/zhangxujun/Desktop

> <s_m_entry_id>
3383

> <s_m_entry_name>
wee1_decoys_glide_SP.3108

> <s_m_subgroup_title>
wee1_decoys_glide_SP

> <s_m_subgroupid>
wee1_decoys_glide_SP


$$$$
