ZINC36719804_1782
                    3D
 Schrodinger Suite 2024-2.
 31 32  0  0  1  0            999 V2000
    5.3536   54.3043   18.5703 C   0  0  0  0  0  0
    4.7494   53.2657   19.2720 C   0  0  0  0  0  0
    4.7944   53.2338   20.6648 C   0  0  0  0  0  0
    5.4511   54.2542   21.3772 C   0  0  0  0  0  0
    6.0622   55.2966   20.6572 C   0  0  0  0  0  0
    6.0080   55.3182   19.2642 C   0  0  0  0  0  0
    6.7062   56.3072   21.2860 F   0  0  0  0  0  0
    5.5166   54.2242   22.8818 C   0  0  0  0  0  0
    6.5975   54.3239   23.4613 O   0  0  0  0  0  0
    4.3139   54.0966   23.4799 N   0  0  0  0  0  0
    3.9789   54.0967   24.8460 C   0  0  0  0  0  0
    2.6760   53.6962   25.1493 C   0  0  0  0  0  0
    2.2276   53.6968   26.4670 C   0  0  0  0  0  0
    3.0734   54.1359   27.4866 C   0  0  0  0  0  0
    4.3912   54.4968   27.1991 C   0  0  0  0  0  0
    4.8445   54.4839   25.8813 C   0  0  0  0  0  0
    2.4432   54.3070   29.1549 S   0  0  0  0  0  0
    1.2098   53.5222   29.2499 O   0  0  0  0  0  0
    3.5593   54.0957   30.0815 O   0  0  0  0  0  0
    1.9887   55.9864   29.2783 N   0  0  0  0  0  0
    4.2116   52.1936   21.3082 F   0  0  0  0  0  0
    5.3201   54.3172   17.4905 H   0  0  0  0  0  0
    4.2615   52.4660   18.7321 H   0  0  0  0  0  0
    6.4787   56.1238   18.7199 H   0  0  0  0  0  0
    3.5390   53.9464   22.8523 H   0  0  0  0  0  0
    1.9976   53.3853   24.3676 H   0  0  0  0  0  0
    1.2104   53.4019   26.6833 H   0  0  0  0  0  0
    5.0528   54.8284   27.9875 H   0  0  0  0  0  0
    5.8569   54.8011   25.6883 H   0  0  0  0  0  0
    0.9901   56.1600   29.4065 H   0  0  0  0  0  0
    2.6079   56.5703   29.8456 H   0  0  0  0  0  0
  1  6  2  0  0  0
  1  2  1  0  0  0
  1 22  1  0  0  0
  2  3  2  0  0  0
  2 23  1  0  0  0
  3  4  1  0  0  0
  3 21  1  0  0  0
  4  5  2  0  0  0
  4  8  1  0  0  0
  5  6  1  0  0  0
  5  7  1  0  0  0
  6 24  1  0  0  0
  8  9  2  0  0  0
  8 10  1  0  0  0
 10 11  1  0  0  0
 10 25  1  0  0  0
 11 16  2  0  0  0
 11 12  1  0  0  0
 12 13  2  0  0  0
 12 26  1  0  0  0
 13 14  1  0  0  0
 13 27  1  0  0  0
 14 15  2  0  0  0
 14 17  1  0  0  0
 15 16  1  0  0  0
 15 28  1  0  0  0
 16 29  1  0  0  0
 17 18  2  0  0  0
 17 19  2  0  0  0
 17 20  1  0  0  0
 20 30  1  0  0  0
 20 31  1  0  0  0
M  END
> <i_i_glide_confnum>
1

> <i_i_glide_lignum>
1783

> <i_i_glide_posenum>
322

> <i_i_glide_rotatable_bonds>
4

> <i_m_Source_File_Index>
3320

> <b_m_subgroup_collapsed>
0

> <r_i_docking_score>
-5.60658

> <r_i_glide_ecoul>
-4.33522

> <r_i_glide_eff_state_penalty>
0

> <r_i_glide_einternal>
0.316085

> <r_i_glide_emodel>
-51.5503

> <r_i_glide_energy>
-38.7312

> <r_i_glide_erotb>
0.570847

> <r_i_glide_esite>
-0.063299

> <r_i_glide_evdw>
-34.396

> <r_i_glide_gscore>
-5.60658

> <r_i_glide_hbond>
0

> <r_i_glide_ligand_efficiency>
-0.26698

> <r_i_glide_ligand_efficiency_ln>
-1.38622

> <r_i_glide_ligand_efficiency_sa>
-0.736578

> <r_i_glide_lipo>
-1.6978

> <r_i_glide_metal>
0

> <r_i_glide_rewards>
-2.04624

> <s_i_glide_gridfile>
wee1_glide-grid

> <s_m_Source_File>
wee1_decoys_glide_SP.sdf

> <s_m_Source_Path>
/Users/zhangxujun/Desktop

> <s_m_entry_id>
3595

> <s_m_entry_name>
wee1_decoys_glide_SP.3320

> <s_m_subgroup_title>
wee1_decoys_glide_SP

> <s_m_subgroupid>
wee1_decoys_glide_SP


$$$$
