ZINC21706985_5492
                    3D
 Schrodinger Suite 2024-2.
 72 74  0  0  1  0            999 V2000
    9.2094   53.9118   17.4671 C   0  0  0  0  0  0
    8.4361   52.9679   16.5247 C   0  0  0  0  0  0
    8.8607   51.4990   16.7145 C   0  0  0  0  0  0
    6.8982   53.1532   16.5975 C   0  0  0  0  0  0
    6.3025   52.8968   17.9141 N   0  0  0  0  0  0
    6.0341   53.8361   18.8377 C   0  0  0  0  0  0
    6.2932   55.0290   18.6712 O   0  0  0  0  0  0
    5.3603   53.3429   20.1342 C   0  0  1  0  0  0
    5.8857   52.4204   20.4041 H   0  0  0  0  0  0
    5.5121   54.3835   21.2838 C   0  0  0  0  0  0
    4.6564   53.9537   22.4887 C   0  0  0  0  0  0
    3.1759   53.7669   22.0982 C   0  0  0  0  0  0
    3.1166   52.7426   21.0324 N   0  0  0  0  0  0
    3.8688   53.0620   19.7990 C   0  0  0  0  0  0
    2.7341   51.4625   21.2960 C   0  0  0  0  0  0
    3.1569   50.4968   20.6605 O   0  0  0  0  0  0
    1.6635   51.2211   22.3389 C   0  0  0  0  0  0
    0.5391   52.0519   22.4083 C   0  0  0  0  0  0
   -0.4913   51.7737   23.3009 C   0  0  0  0  0  0
   -0.4043   50.6723   24.1559 C   0  0  0  0  0  0
    0.7058   49.8308   24.0793 C   0  0  0  0  0  0
    1.7282   50.0975   23.1698 C   0  0  0  0  0  0
   -1.4142   50.3751   25.0841 N   0  0  0  0  0  0
   -2.0898   51.5862   26.1912 S   0  0  0  0  0  0
   -3.1598   50.9205   26.9412 O   0  0  0  0  0  0
   -2.3659   52.8096   25.4289 O   0  0  0  0  0  0
   -0.7588   51.9524   27.3277 C   0  0  0  0  0  0
    0.4270   52.4903   26.8332 C   0  0  0  0  0  0
    1.4807   52.7568   27.6973 C   0  0  0  0  0  0
    1.3629   52.5030   29.0720 C   0  0  0  0  0  0
    0.1462   51.9964   29.5595 C   0  0  0  0  0  0
   -0.8977   51.6969   28.6905 C   0  0  0  0  0  0
    2.5769   52.7715   29.9939 C   0  0  0  0  0  0
    3.7922   51.9570   29.4917 C   0  0  0  0  0  0
    2.3260   52.3497   31.4668 C   0  0  0  0  0  0
    2.9348   54.2788   29.9580 C   0  0  0  0  0  0
    9.0071   53.6959   18.5133 H   0  0  0  0  0  0
   10.2865   53.8257   17.3219 H   0  0  0  0  0  0
    8.9385   54.9534   17.2916 H   0  0  0  0  0  0
    8.7291   53.2432   15.5102 H   0  0  0  0  0  0
    8.5512   51.1066   17.6816 H   0  0  0  0  0  0
    8.4172   50.8699   15.9438 H   0  0  0  0  0  0
    9.9425   51.3839   16.6430 H   0  0  0  0  0  0
    6.4172   52.4681   15.8975 H   0  0  0  0  0  0
    6.6359   54.1574   16.2540 H   0  0  0  0  0  0
    5.9789   51.9381   18.0817 H   0  0  0  0  0  0
    5.1035   55.3517   20.9877 H   0  0  0  0  0  0
    6.5456   54.4966   21.6185 H   0  0  0  0  0  0
    4.7310   54.7005   23.2798 H   0  0  0  0  0  0
    5.0477   53.0320   22.9207 H   0  0  0  0  0  0
    2.7906   54.6972   21.6817 H   0  0  0  0  0  0
    2.5362   53.5630   22.9555 H   0  0  0  0  0  0
    3.7332   52.2937   19.0323 H   0  0  0  0  0  0
    3.4049   53.9673   19.4014 H   0  0  0  0  0  0
    0.4398   52.8970   21.7420 H   0  0  0  0  0  0
   -1.3579   52.4143   23.3063 H   0  0  0  0  0  0
    0.7850   48.9653   24.7223 H   0  0  0  0  0  0
    2.5694   49.4184   23.1161 H   0  0  0  0  0  0
   -1.4399   49.4347   25.4535 H   0  0  0  0  0  0
    0.5400   52.7011   25.7802 H   0  0  0  0  0  0
    2.3964   53.1557   27.2879 H   0  0  0  0  0  0
   -0.0104   51.7909   30.6077 H   0  0  0  0  0  0
   -1.8091   51.2637   29.0815 H   0  0  0  0  0  0
    4.6471   52.0401   30.1656 H   0  0  0  0  0  0
    4.1357   52.2867   28.5112 H   0  0  0  0  0  0
    3.5390   50.9011   29.4037 H   0  0  0  0  0  0
    1.5104   52.9128   31.9225 H   0  0  0  0  0  0
    2.0635   51.2970   31.5577 H   0  0  0  0  0  0
    3.2152   52.4965   32.0828 H   0  0  0  0  0  0
    2.1467   54.8883   30.4040 H   0  0  0  0  0  0
    3.8688   54.4846   30.4819 H   0  0  0  0  0  0
    3.0805   54.6404   28.9403 H   0  0  0  0  0  0
  1  2  1  0  0  0
  1 37  1  0  0  0
  1 38  1  0  0  0
  1 39  1  0  0  0
  2  3  1  0  0  0
  2  4  1  0  0  0
  2 40  1  0  0  0
  3 41  1  0  0  0
  3 42  1  0  0  0
  3 43  1  0  0  0
  4  5  1  0  0  0
  4 44  1  0  0  0
  4 45  1  0  0  0
  5  6  1  0  0  0
  5 46  1  0  0  0
  6  7  2  0  0  0
  6  8  1  0  0  0
  8  9  1  0  0  0
  8 14  1  0  0  0
  8 10  1  0  0  0
 10 11  1  0  0  0
 10 47  1  0  0  0
 10 48  1  0  0  0
 11 12  1  0  0  0
 11 49  1  0  0  0
 11 50  1  0  0  0
 12 13  1  0  0  0
 12 51  1  0  0  0
 12 52  1  0  0  0
 13 14  1  0  0  0
 13 15  1  0  0  0
 14 53  1  0  0  0
 14 54  1  0  0  0
 15 16  2  0  0  0
 15 17  1  0  0  0
 17 22  2  0  0  0
 17 18  1  0  0  0
 18 19  2  0  0  0
 18 55  1  0  0  0
 19 20  1  0  0  0
 19 56  1  0  0  0
 20 21  2  0  0  0
 20 23  1  0  0  0
 21 22  1  0  0  0
 21 57  1  0  0  0
 22 58  1  0  0  0
 23 24  1  0  0  0
 23 59  1  0  0  0
 24 25  2  0  0  0
 24 26  2  0  0  0
 24 27  1  0  0  0
 27 32  2  0  0  0
 27 28  1  0  0  0
 28 29  2  0  0  0
 28 60  1  0  0  0
 29 30  1  0  0  0
 29 61  1  0  0  0
 30 31  2  0  0  0
 30 33  1  0  0  0
 31 32  1  0  0  0
 31 62  1  0  0  0
 32 63  1  0  0  0
 33 34  1  0  0  0
 33 35  1  0  0  0
 33 36  1  0  0  0
 34 64  1  0  0  0
 34 65  1  0  0  0
 34 66  1  0  0  0
 35 67  1  0  0  0
 35 68  1  0  0  0
 35 69  1  0  0  0
 36 70  1  0  0  0
 36 71  1  0  0  0
 36 72  1  0  0  0
M  END
> <i_i_glide_confnum>
139

> <i_i_glide_lignum>
5493

> <i_i_glide_posenum>
154

> <i_i_glide_rotatable_bonds>
10

> <i_m_Source_File_Index>
1540

> <b_m_subgroup_collapsed>
0

> <r_i_docking_score>
-3.28592

> <r_i_glide_ecoul>
-5.00782

> <r_i_glide_eff_state_penalty>
0

> <r_i_glide_einternal>
5.86198

> <r_i_glide_emodel>
-49.6654

> <r_i_glide_energy>
-46.5665

> <r_i_glide_erotb>
0.654133

> <r_i_glide_esite>
-0.239714

> <r_i_glide_evdw>
-41.5587

> <r_i_glide_gscore>
-3.28592

> <r_i_glide_hbond>
-0.16

> <r_i_glide_ligand_efficiency>
-0.0938834

> <r_i_glide_ligand_efficiency_ln>
-0.721332

> <r_i_glide_ligand_efficiency_sa>
-0.307099

> <r_i_glide_lipo>
-1.57567

> <r_i_glide_metal>
0

> <r_i_glide_rewards>
0.864442

> <s_i_glide_gridfile>
wee1_glide-grid

> <s_m_Source_File>
wee1_decoys_glide_SP.sdf

> <s_m_Source_Path>
/Users/zhangxujun/Desktop

> <s_m_entry_id>
1815

> <s_m_entry_name>
wee1_decoys_glide_SP.1540

> <s_m_subgroup_title>
wee1_decoys_glide_SP

> <s_m_subgroupid>
wee1_decoys_glide_SP


$$$$
