ZINC39346845_1637
                    3D
 Schrodinger Suite 2024-2.
 45 47  0  0  1  0            999 V2000
    7.0946   55.5587   18.6957 C   0  0  0  0  0  0
    6.6364   55.5915   20.1484 C   0  0  0  0  0  0
    7.0350   56.4966   20.8817 O   0  0  0  0  0  0
    5.7874   54.6141   20.5243 N   0  0  0  0  0  0
    5.2561   54.4230   21.8075 C   0  0  0  0  0  0
    3.9042   54.0969   21.8990 C   0  0  0  0  0  0
    3.3082   53.9503   23.1476 C   0  0  0  0  0  0
    4.0645   54.0967   24.3125 C   0  0  0  0  0  0
    5.4368   54.3792   24.2190 C   0  0  0  0  0  0
    6.0331   54.5302   22.9686 C   0  0  0  0  0  0
    3.3554   53.9692   25.5204 N   0  0  0  0  0  0
    3.8093   53.7996   26.7806 C   0  0  0  0  0  0
    5.0007   53.6966   27.0703 O   0  0  0  0  0  0
    2.7518   53.6982   27.9130 C   0  0  2  0  0  0
    3.0296   54.6025   28.4544 H   0  0  0  0  0  0
    2.9308   52.4238   28.8248 C   0  0  2  0  0  0
    3.5815   51.6975   28.3489 H   0  0  0  0  0  0
    1.5387   51.7540   29.0959 C   0  0  2  0  0  0
    0.9105   51.3038   27.7512 C   0  0  0  0  0  0
    0.7585   52.5209   26.8038 C   0  0  0  0  0  0
    1.2564   53.8218   27.5086 C   0  0  1  0  0  0
    0.4277   54.0133   28.8072 C   0  0  0  0  0  0
    0.5693   52.7832   29.7405 C   0  0  0  0  0  0
    3.6580   52.6881   30.1598 C   0  0  0  0  0  0
    3.9044   53.8690   30.4817 O   0  0  0  0  0  0
    3.9030   51.6967   30.8814 O   0  5  0  0  0  0
    6.7476   54.6631   18.1793 H   0  0  0  0  0  0
    8.1838   55.5768   18.6491 H   0  0  0  0  0  0
    6.7144   56.4310   18.1637 H   0  0  0  0  0  0
    5.3984   54.0345   19.7955 H   0  0  0  0  0  0
    3.2991   53.9963   21.0088 H   0  0  0  0  0  0
    2.2518   53.7287   23.1961 H   0  0  0  0  0  0
    6.0527   54.5046   25.0950 H   0  0  0  0  0  0
    7.0875   54.7610   22.9089 H   0  0  0  0  0  0
    2.3542   53.9344   25.4187 H   0  0  0  0  0  0
    1.6401   50.8967   29.7354 H   0  0  0  0  0  0
    1.5045   50.5214   27.2819 H   0  0  0  0  0  0
   -0.0656   50.8496   27.9330 H   0  0  0  0  0  0
   -0.2880   52.6324   26.5159 H   0  0  0  0  0  0
    1.2978   52.3355   25.8755 H   0  0  0  0  0  0
    1.1050   54.6875   26.8817 H   0  0  0  0  0  0
    0.7327   54.9223   29.3280 H   0  0  0  0  0  0
   -0.6173   54.1461   28.5437 H   0  0  0  0  0  0
   -0.4055   52.3240   29.9144 H   0  0  0  0  0  0
    0.9257   53.0915   30.7245 H   0  0  0  0  0  0
  1  2  1  0  0  0
  1 27  1  0  0  0
  1 28  1  0  0  0
  1 29  1  0  0  0
  2  3  2  0  0  0
  2  4  1  0  0  0
  4  5  1  0  0  0
  4 30  1  0  0  0
  5 10  2  0  0  0
  5  6  1  0  0  0
  6  7  2  0  0  0
  6 31  1  0  0  0
  7  8  1  0  0  0
  7 32  1  0  0  0
  8  9  2  0  0  0
  8 11  1  0  0  0
  9 10  1  0  0  0
  9 33  1  0  0  0
 10 34  1  0  0  0
 11 12  1  0  0  0
 11 35  1  0  0  0
 12 13  2  0  0  0
 12 14  1  0  0  0
 14 15  1  0  0  0
 14 21  1  0  0  0
 14 16  1  0  0  0
 16 17  1  0  0  0
 16 18  1  0  0  0
 16 24  1  0  0  0
 18 23  1  0  0  0
 18 19  1  0  0  0
 18 36  1  0  0  0
 19 20  1  0  0  0
 19 37  1  0  0  0
 19 38  1  0  0  0
 20 21  1  0  0  0
 20 39  1  0  0  0
 20 40  1  0  0  0
 21 22  1  0  0  0
 21 41  1  0  0  0
 22 23  1  0  0  0
 22 42  1  0  0  0
 22 43  1  0  0  0
 23 44  1  0  0  0
 23 45  1  0  0  0
 24 25  2  0  0  0
 24 26  1  0  0  0
M  CHG  1  26  -1
M  END
> <i_i_glide_confnum>
9

> <i_i_glide_lignum>
1638

> <i_i_glide_posenum>
276

> <i_i_glide_rotatable_bonds>
6

> <i_m_Source_File_Index>
935

> <b_m_subgroup_collapsed>
0

> <r_i_docking_score>
-7.00839

> <r_i_glide_ecoul>
-9.91122

> <r_i_glide_eff_state_penalty>
0

> <r_i_glide_einternal>
7.85523

> <r_i_glide_emodel>
-57.3727

> <r_i_glide_energy>
-41.6503

> <r_i_glide_erotb>
0.692962

> <r_i_glide_esite>
0

> <r_i_glide_evdw>
-31.7391

> <r_i_glide_gscore>
-7.00839

> <r_i_glide_hbond>
-0.595982

> <r_i_glide_ligand_efficiency>
-0.292016

> <r_i_glide_ligand_efficiency_ln>
-1.67743

> <r_i_glide_ligand_efficiency_sa>
-0.84232

> <r_i_glide_lipo>
-2.37918

> <r_i_glide_metal>
0

> <r_i_glide_rewards>
-1.65255

> <s_i_glide_gridfile>
wee1_glide-grid

> <s_m_Source_File>
wee1_decoys_glide_SP.sdf

> <s_m_Source_Path>
/Users/zhangxujun/Desktop

> <s_m_entry_id>
1210

> <s_m_entry_name>
wee1_decoys_glide_SP.935

> <s_m_subgroup_title>
wee1_decoys_glide_SP

> <s_m_subgroupid>
wee1_decoys_glide_SP


$$$$
