ZINC04155831_1636
                    3D
 Schrodinger Suite 2024-2.
 42 44  0  0  1  0            999 V2000
    0.7045   52.5720   31.8658 C   0  0  0  0  0  0
    1.4968   52.4967   30.5807 C   0  0  0  0  0  0
    2.7235   52.4148   30.6408 O   0  0  0  0  0  0
    0.7586   52.5004   29.4537 N   0  0  0  0  0  0
    1.2091   52.5975   28.1298 C   0  0  0  0  0  0
    0.3455   52.1636   27.1196 C   0  0  0  0  0  0
    0.7071   52.3086   25.7791 C   0  0  0  0  0  0
    1.9277   52.9010   25.4462 C   0  0  0  0  0  0
    2.8046   53.2971   26.4675 C   0  0  0  0  0  0
    2.4435   53.1640   27.7961 C   0  0  0  0  0  0
    2.2428   53.0584   24.0809 N   0  0  0  0  0  0
    3.0535   54.0027   23.5532 C   0  0  0  0  0  0
    3.5422   54.8964   24.2367 O   0  0  0  0  0  0
    3.2708   54.0635   22.0218 C   0  0  2  0  0  0
    2.7211   54.9695   21.7789 H   0  0  0  0  0  0
    2.7047   52.8859   21.1578 C   0  0  2  0  0  0
    1.6174   52.8931   21.0668 H   0  0  0  0  0  0
    3.2843   51.5058   21.5080 C   0  0  0  0  0  0
    4.7703   51.6957   21.1605 C   0  0  0  0  0  0
    4.8179   53.0739   20.4647 C   0  0  1  0  0  0
    5.6347   53.1712   19.7480 H   0  0  0  0  0  0
    3.4341   53.1137   19.8291 C   0  0  0  0  0  0
    4.7388   54.2473   21.4762 C   0  0  2  0  0  0
    4.7059   55.1441   20.8539 H   0  0  0  0  0  0
    5.9780   54.4964   22.3754 C   0  0  0  0  0  0
    6.2198   53.6802   23.2902 O   0  0  0  0  0  0
    6.7029   55.4784   22.0910 O   0  5  0  0  0  0
   -0.1304   53.2675   31.7790 H   0  0  0  0  0  0
    1.3274   52.8965   32.6929 H   0  0  0  0  0  0
    0.3084   51.5903   32.1136 H   0  0  0  0  0  0
   -0.2343   52.3664   29.5646 H   0  0  0  0  0  0
   -0.6093   51.7204   27.3641 H   0  0  0  0  0  0
    0.0259   51.9790   25.0084 H   0  0  0  0  0  0
    3.7803   53.7070   26.2535 H   0  0  0  0  0  0
    3.1333   53.5232   28.5441 H   0  0  0  0  0  0
    1.7634   52.4547   23.4321 H   0  0  0  0  0  0
    3.1044   51.1842   22.5277 H   0  0  0  0  0  0
    2.8411   50.7383   20.8710 H   0  0  0  0  0  0
    5.1030   50.9104   20.4817 H   0  0  0  0  0  0
    5.4120   51.6451   22.0399 H   0  0  0  0  0  0
    3.2715   52.3263   19.0884 H   0  0  0  0  0  0
    3.2029   54.0685   19.3527 H   0  0  0  0  0  0
  1  2  1  0  0  0
  1 28  1  0  0  0
  1 29  1  0  0  0
  1 30  1  0  0  0
  2  3  2  0  0  0
  2  4  1  0  0  0
  4  5  1  0  0  0
  4 31  1  0  0  0
  5 10  2  0  0  0
  5  6  1  0  0  0
  6  7  2  0  0  0
  6 32  1  0  0  0
  7  8  1  0  0  0
  7 33  1  0  0  0
  8  9  2  0  0  0
  8 11  1  0  0  0
  9 10  1  0  0  0
  9 34  1  0  0  0
 10 35  1  0  0  0
 11 12  1  0  0  0
 11 36  1  0  0  0
 12 13  2  0  0  0
 12 14  1  0  0  0
 14 15  1  0  0  0
 14 23  1  0  0  0
 14 16  1  0  0  0
 16 17  1  0  0  0
 16 22  1  0  0  0
 16 18  1  0  0  0
 18 19  1  0  0  0
 18 37  1  0  0  0
 18 38  1  0  0  0
 19 20  1  0  0  0
 19 39  1  0  0  0
 19 40  1  0  0  0
 20 21  1  0  0  0
 20 22  1  0  0  0
 20 23  1  0  0  0
 22 41  1  0  0  0
 22 42  1  0  0  0
 23 24  1  0  0  0
 23 25  1  0  0  0
 25 26  2  0  0  0
 25 27  1  0  0  0
M  CHG  1  27  -1
M  END
> <i_i_glide_confnum>
21

> <i_i_glide_lignum>
1637

> <i_i_glide_posenum>
319

> <i_i_glide_rotatable_bonds>
6

> <i_m_Source_File_Index>
3889

> <b_m_subgroup_collapsed>
0

> <r_i_docking_score>
-4.36475

> <r_i_glide_ecoul>
-4.5985

> <r_i_glide_eff_state_penalty>
0

> <r_i_glide_einternal>
3.02419

> <r_i_glide_emodel>
-44.9665

> <r_i_glide_energy>
-32.8556

> <r_i_glide_erotb>
0.748228

> <r_i_glide_esite>
-0.0228259

> <r_i_glide_evdw>
-28.2571

> <r_i_glide_gscore>
-4.36475

> <r_i_glide_hbond>
-0.17597

> <r_i_glide_ligand_efficiency>
-0.189772

> <r_i_glide_ligand_efficiency_ln>
-1.05544

> <r_i_glide_ligand_efficiency_sa>
-0.539685

> <r_i_glide_lipo>
-0.974782

> <r_i_glide_metal>
0

> <r_i_glide_rewards>
-1.83677

> <s_i_glide_gridfile>
wee1_glide-grid

> <s_m_Source_File>
wee1_decoys_glide_SP.sdf

> <s_m_Source_Path>
/Users/zhangxujun/Desktop

> <s_m_entry_id>
4164

> <s_m_entry_name>
wee1_decoys_glide_SP.3889

> <s_m_subgroup_title>
wee1_decoys_glide_SP

> <s_m_subgroupid>
wee1_decoys_glide_SP


$$$$
