ZINC18084190_5925
                    3D
 Schrodinger Suite 2024-2.
 53 56  0  0  1  0            999 V2000
    6.7047   55.2067   22.3915 C   0  0  0  0  0  0
    6.5547   55.6037   21.0639 C   0  0  0  0  0  0
    5.6962   54.8969   20.2256 C   0  0  0  0  0  0
    4.9888   53.7941   20.7136 C   0  0  0  0  0  0
    5.1718   53.3850   22.0390 C   0  0  0  0  0  0
    6.0169   54.1001   22.8836 C   0  0  0  0  0  0
    4.0800   53.0127   19.7704 C   0  0  0  0  0  0
    2.7996   52.7073   20.4009 N   0  0  0  0  0  0
    2.0462   51.5957   20.0861 C   0  0  0  0  0  0
    2.0579   50.9793   18.9662 N   0  0  0  0  0  0
    1.4645   49.7349   18.7196 C   0  0  0  0  0  0
    0.5104   49.6358   17.7021 C   0  0  0  0  0  0
   -0.0961   48.4176   17.4028 C   0  0  0  0  0  0
    0.2615   47.2795   18.1186 C   0  0  0  0  0  0
    1.2246   47.3511   19.1195 C   0  0  0  0  0  0
    1.8352   48.5691   19.4059 C   0  0  0  0  0  0
   -0.3261   46.0940   17.8381 F   0  0  0  0  0  0
    1.1974   50.9229   21.5476 S   0  0  0  0  0  0
    0.5060   52.4255   22.3414 C   0  0  1  0  0  0
    0.5071   53.2777   21.6532 H   0  0  0  0  0  0
   -0.8651   52.1576   22.8986 C   0  0  0  0  0  0
   -0.7092   52.2434   24.4038 C   0  0  0  0  0  0
   -1.6381   52.0608   25.1908 O   0  0  0  0  0  0
    0.5865   52.5598   24.6910 N   0  0  0  0  0  0
    1.3325   52.7628   23.5660 C   0  0  0  0  0  0
    2.5015   53.1391   23.4950 O   0  0  0  0  0  0
    1.1169   52.6537   26.0106 C   0  0  0  0  0  0
    1.9903   53.6965   26.3539 C   0  0  0  0  0  0
    2.5817   53.7437   27.6098 C   0  0  0  0  0  0
    2.3306   52.7400   28.5515 C   0  0  0  0  0  0
    1.4368   51.7103   28.2244 C   0  0  0  0  0  0
    0.8265   51.6734   26.9724 C   0  0  0  0  0  0
    3.0263   52.7654   29.8769 C   0  0  0  0  0  0
    3.1038   51.6967   30.5234 O   0  0  0  0  0  0
    3.5039   53.8559   30.2658 O   0  5  0  0  0  0
    7.3744   55.7519   23.0410 H   0  0  0  0  0  0
    7.1032   56.4518   20.6829 H   0  0  0  0  0  0
    5.5829   55.2073   19.1965 H   0  0  0  0  0  0
    4.6667   52.5067   22.4115 H   0  0  0  0  0  0
    6.1488   53.7878   23.9089 H   0  0  0  0  0  0
    4.5866   52.1051   19.4318 H   0  0  0  0  0  0
    3.8768   53.6132   18.8822 H   0  0  0  0  0  0
    2.5704   53.2727   21.2061 H   0  0  0  0  0  0
    0.2377   50.5178   17.1419 H   0  0  0  0  0  0
   -0.8358   48.3557   16.6183 H   0  0  0  0  0  0
    1.5035   46.4641   19.6638 H   0  0  0  0  0  0
    2.6012   48.6147   20.1677 H   0  0  0  0  0  0
   -1.2630   51.1794   22.6230 H   0  0  0  0  0  0
   -1.5949   52.8961   22.5728 H   0  0  0  0  0  0
    2.2410   54.4691   25.6419 H   0  0  0  0  0  0
    3.2643   54.5512   27.8356 H   0  0  0  0  0  0
    1.2185   50.9226   28.9329 H   0  0  0  0  0  0
    0.1625   50.8505   26.7459 H   0  0  0  0  0  0
  1  6  2  0  0  0
  1  2  1  0  0  0
  1 36  1  0  0  0
  2  3  2  0  0  0
  2 37  1  0  0  0
  3  4  1  0  0  0
  3 38  1  0  0  0
  4  5  2  0  0  0
  4  7  1  0  0  0
  5  6  1  0  0  0
  5 39  1  0  0  0
  6 40  1  0  0  0
  7  8  1  0  0  0
  7 41  1  0  0  0
  7 42  1  0  0  0
  8  9  1  0  0  0
  8 43  1  0  0  0
  9 10  2  0  0  0
  9 18  1  0  0  0
 10 11  1  0  0  0
 11 16  2  0  0  0
 11 12  1  0  0  0
 12 13  2  0  0  0
 12 44  1  0  0  0
 13 14  1  0  0  0
 13 45  1  0  0  0
 14 15  2  0  0  0
 14 17  1  0  0  0
 15 16  1  0  0  0
 15 46  1  0  0  0
 16 47  1  0  0  0
 18 19  1  0  0  0
 19 20  1  0  0  0
 19 25  1  0  0  0
 19 21  1  0  0  0
 21 22  1  0  0  0
 21 48  1  0  0  0
 21 49  1  0  0  0
 22 23  2  0  0  0
 22 24  1  0  0  0
 24 25  1  0  0  0
 24 27  1  0  0  0
 25 26  2  0  0  0
 27 32  2  0  0  0
 27 28  1  0  0  0
 28 29  2  0  0  0
 28 50  1  0  0  0
 29 30  1  0  0  0
 29 51  1  0  0  0
 30 31  2  0  0  0
 30 33  1  0  0  0
 31 32  1  0  0  0
 31 52  1  0  0  0
 32 53  1  0  0  0
 33 34  2  0  0  0
 33 35  1  0  0  0
M  CHG  1  35  -1
M  END
> <i_i_glide_confnum>
84

> <i_i_glide_lignum>
5926

> <i_i_glide_posenum>
375

> <i_i_glide_rotatable_bonds>
8

> <i_m_Source_File_Index>
133

> <b_m_subgroup_collapsed>
0

> <r_i_docking_score>
-5.81036

> <r_i_glide_ecoul>
-7.12599

> <r_i_glide_eff_state_penalty>
0

> <r_i_glide_einternal>
8.43372

> <r_i_glide_emodel>
-62.2932

> <r_i_glide_energy>
-46.7772

> <r_i_glide_erotb>
0.445937

> <r_i_glide_esite>
-0.0371105

> <r_i_glide_evdw>
-39.6512

> <r_i_glide_gscore>
-5.81036

> <r_i_glide_hbond>
-0.32

> <r_i_glide_ligand_efficiency>
-0.170893

> <r_i_glide_ligand_efficiency_ln>
-1.28367

> <r_i_glide_ligand_efficiency_sa>
-0.553627

> <r_i_glide_lipo>
-1.98747

> <r_i_glide_metal>
0

> <r_i_glide_rewards>
-0.860253

> <s_i_glide_gridfile>
wee1_glide-grid

> <s_m_Source_File>
wee1_decoys_glide_SP.sdf

> <s_m_Source_Path>
/Users/zhangxujun/Desktop

> <s_m_entry_id>
408

> <s_m_entry_name>
wee1_decoys_glide_SP.133

> <s_m_subgroup_title>
wee1_decoys_glide_SP

> <s_m_subgroupid>
wee1_decoys_glide_SP


$$$$
