ZINC08833062_3405
                    3D
 Schrodinger Suite 2024-2.
 51 53  0  0  1  0            999 V2000
    9.1004   50.6313   13.4158 C   0  0  0  0  0  0
    7.9183   51.2965   14.1034 C   0  0  0  0  0  0
    6.6444   51.1578   13.5511 C   0  0  0  0  0  0
    5.5438   51.7476   14.1650 C   0  0  0  0  0  0
    5.7125   52.4966   15.3265 C   0  0  0  0  0  0
    6.9817   52.6603   15.9014 C   0  0  0  0  0  0
    8.0901   52.0351   15.2875 C   0  0  0  0  0  0
    9.3542   52.1301   15.8227 O   0  0  0  0  0  0
    9.6287   51.1722   16.8390 C   0  0  0  0  0  0
    7.1409   53.5203   17.1360 C   0  0  0  0  0  0
    8.0759   54.3207   17.2104 O   0  0  0  0  0  0
    6.2205   53.2964   18.1107 N   0  0  0  0  0  0
    5.8756   53.9982   19.2408 C   0  0  0  0  0  0
    6.3049   55.5936   19.5828 S   0  0  0  0  0  0
    5.1053   53.2232   20.0669 N   0  0  0  0  0  0
    4.5931   53.4662   21.3561 C   0  0  0  0  0  0
    5.4067   53.9104   22.4057 C   0  0  0  0  0  0
    4.8691   54.0956   23.6760 C   0  0  0  0  0  0
    3.5174   53.8014   23.9174 C   0  0  0  0  0  0
    2.7092   53.3638   22.8648 C   0  0  0  0  0  0
    3.2460   53.1887   21.5914 C   0  0  0  0  0  0
    2.8964   53.8951   25.1768 N   0  0  0  0  0  0
    3.4589   53.9966   26.4004 C   0  0  0  0  0  0
    4.6657   54.0981   26.6185 O   0  0  0  0  0  0
    2.4943   54.0297   27.5615 C   0  0  0  0  0  0
    2.7056   54.9886   28.5619 C   0  0  0  0  0  0
    1.8851   55.0551   29.6815 C   0  0  0  0  0  0
    0.8658   54.1229   29.8501 C   0  0  0  0  0  0
    0.6432   53.1507   28.8783 C   0  0  0  0  0  0
    1.4477   53.0929   27.7363 C   0  0  0  0  0  0
    1.1032   51.8299   26.5997 Cl  0  0  0  0  0  0
   -0.0956   54.1663   31.2814 Cl  0  0  0  0  0  0
    9.9560   51.3092   13.3796 H   0  0  0  0  0  0
    9.4091   49.7357   13.9594 H   0  0  0  0  0  0
    8.8747   50.3562   12.3842 H   0  0  0  0  0  0
    6.4997   50.5789   12.6502 H   0  0  0  0  0  0
    4.5592   51.6279   13.7398 H   0  0  0  0  0  0
    4.8389   52.9565   15.7698 H   0  0  0  0  0  0
   10.6401   51.3252   17.2189 H   0  0  0  0  0  0
    8.9400   51.2653   17.6817 H   0  0  0  0  0  0
    9.5672   50.1494   16.4590 H   0  0  0  0  0  0
    5.6478   52.4801   17.9289 H   0  0  0  0  0  0
    4.7863   52.3503   19.6667 H   0  0  0  0  0  0
    6.4554   54.1068   22.2440 H   0  0  0  0  0  0
    5.5271   54.4535   24.4506 H   0  0  0  0  0  0
    1.6658   53.1342   23.0278 H   0  0  0  0  0  0
    2.6096   52.8392   20.7906 H   0  0  0  0  0  0
    1.8954   53.7819   25.1694 H   0  0  0  0  0  0
    3.5170   55.6968   28.4810 H   0  0  0  0  0  0
    2.0577   55.8125   30.4336 H   0  0  0  0  0  0
   -0.1437   52.4237   29.0198 H   0  0  0  0  0  0
  1  2  1  0  0  0
  1 33  1  0  0  0
  1 34  1  0  0  0
  1 35  1  0  0  0
  2  7  2  0  0  0
  2  3  1  0  0  0
  3  4  2  0  0  0
  3 36  1  0  0  0
  4  5  1  0  0  0
  4 37  1  0  0  0
  5  6  2  0  0  0
  5 38  1  0  0  0
  6  7  1  0  0  0
  6 10  1  0  0  0
  7  8  1  0  0  0
  8  9  1  0  0  0
  9 39  1  0  0  0
  9 40  1  0  0  0
  9 41  1  0  0  0
 10 11  2  0  0  0
 10 12  1  0  0  0
 12 13  1  0  0  0
 12 42  1  0  0  0
 13 14  2  0  0  0
 13 15  1  0  0  0
 15 16  1  0  0  0
 15 43  1  0  0  0
 16 21  2  0  0  0
 16 17  1  0  0  0
 17 18  2  0  0  0
 17 44  1  0  0  0
 18 19  1  0  0  0
 18 45  1  0  0  0
 19 20  2  0  0  0
 19 22  1  0  0  0
 20 21  1  0  0  0
 20 46  1  0  0  0
 21 47  1  0  0  0
 22 23  1  0  0  0
 22 48  1  0  0  0
 23 24  2  0  0  0
 23 25  1  0  0  0
 25 30  2  0  0  0
 25 26  1  0  0  0
 26 27  2  0  0  0
 26 49  1  0  0  0
 27 28  1  0  0  0
 27 50  1  0  0  0
 28 29  2  0  0  0
 28 32  1  0  0  0
 29 30  1  0  0  0
 29 51  1  0  0  0
 30 31  1  0  0  0
M  END
> <i_i_glide_confnum>
52

> <i_i_glide_lignum>
3406

> <i_i_glide_posenum>
297

> <i_i_glide_rotatable_bonds>
9

> <i_m_Source_File_Index>
4953

> <b_m_subgroup_collapsed>
0

> <r_i_docking_score>
-4.65726

> <r_i_glide_ecoul>
-2.71842

> <r_i_glide_eff_state_penalty>
0

> <r_i_glide_einternal>
3.18936

> <r_i_glide_emodel>
-59.2848

> <r_i_glide_energy>
-46.6459

> <r_i_glide_erotb>
0.682071

> <r_i_glide_esite>
-0.138382

> <r_i_glide_evdw>
-43.9275

> <r_i_glide_gscore>
-4.65726

> <r_i_glide_hbond>
-0.116715

> <r_i_glide_ligand_efficiency>
-0.145539

> <r_i_glide_ligand_efficiency_ln>
-1.04289

> <r_i_glide_ligand_efficiency_sa>
-0.462059

> <r_i_glide_lipo>
-2.41769

> <r_i_glide_metal>
0

> <r_i_glide_rewards>
-0.0624063

> <s_i_glide_gridfile>
wee1_glide-grid

> <s_m_Source_File>
wee1_decoys_glide_SP.sdf

> <s_m_Source_Path>
/Users/zhangxujun/Desktop

> <s_m_entry_id>
5228

> <s_m_entry_name>
wee1_decoys_glide_SP.4953

> <s_m_subgroup_title>
wee1_decoys_glide_SP

> <s_m_subgroupid>
wee1_decoys_glide_SP


$$$$
