ZINC14274079_4174
                    3D
 Schrodinger Suite 2024-2.
 54 58  0  0  1  0            999 V2000
    2.8051   54.1447   29.6119 C   0  0  0  0  0  0
    3.2596   54.1085   28.1677 C   0  0  0  0  0  0
    4.5714   54.4907   27.8504 C   0  0  0  0  0  0
    5.0448   54.4988   26.5320 C   0  0  0  0  0  0
    4.1224   54.0967   25.5556 C   0  0  0  0  0  0
    2.8070   53.6967   25.8445 C   0  0  0  0  0  0
    2.3590   53.7067   27.1710 C   0  0  0  0  0  0
    2.1755   53.3316   24.6897 N   0  0  0  0  0  0
    3.1048   53.4745   23.7655 C   0  0  0  0  0  0
    4.2990   53.9754   24.2114 O   0  0  0  0  0  0
    3.0156   53.0523   22.3331 C   0  0  0  0  0  0
    1.8362   52.4971   21.8224 C   0  0  0  0  0  0
    1.7612   52.0967   20.4875 C   0  0  0  0  0  0
    2.8586   52.2539   19.6404 C   0  0  0  0  0  0
    4.0547   52.7913   20.1407 C   0  0  0  0  0  0
    4.1275   53.1691   21.4892 C   0  0  0  0  0  0
    5.1689   52.8974   19.2818 N   0  0  0  0  0  0
    6.0187   53.9400   19.0161 C   0  0  0  0  0  0
    5.9045   55.4523   19.7576 S   0  0  0  0  0  0
    6.9574   53.5712   18.0825 N   0  0  0  0  0  0
    8.0615   54.2037   17.6011 C   0  0  0  0  0  0
    8.3244   55.4005   17.7560 O   0  0  0  0  0  0
    9.0415   53.3296   16.8563 C   0  0  0  0  0  0
   10.3980   53.6973   16.8162 C   0  0  0  0  0  0
   11.3316   52.9262   16.1257 C   0  0  0  0  0  0
   10.9152   51.7815   15.4548 C   0  0  0  0  0  0
    9.5678   51.3927   15.4970 C   0  0  0  0  0  0
    8.6335   52.1622   16.1863 C   0  0  0  0  0  0
    9.1104   50.2817   14.8191 O   0  0  0  0  0  0
   10.1413   49.3303   14.5424 C   0  0  0  0  0  0
   11.3664   50.0393   13.9212 C   0  0  0  0  0  0
   11.8826   51.0232   14.8260 O   0  0  0  0  0  0
    2.7019   51.7781   17.9818 Cl  0  0  0  0  0  0
    6.4732   54.9170   26.2304 C   0  0  0  0  0  0
    1.7162   54.1197   29.6979 H   0  0  0  0  0  0
    3.2300   53.3078   30.1666 H   0  0  0  0  0  0
    3.1356   55.0716   30.0813 H   0  0  0  0  0  0
    5.2377   54.7922   28.6479 H   0  0  0  0  0  0
    1.3511   53.4005   27.4108 H   0  0  0  0  0  0
    0.9733   52.3739   22.4595 H   0  0  0  0  0  0
    0.8422   51.6787   20.1047 H   0  0  0  0  0  0
    5.0551   53.5572   21.8837 H   0  0  0  0  0  0
    5.3111   52.0519   18.7334 H   0  0  0  0  0  0
    6.8887   52.6079   17.7899 H   0  0  0  0  0  0
   10.7437   54.5830   17.3337 H   0  0  0  0  0  0
   12.3726   53.2113   16.1137 H   0  0  0  0  0  0
    7.6003   51.8442   16.1746 H   0  0  0  0  0  0
   10.4535   48.8952   15.4913 H   0  0  0  0  0  0
    9.7675   48.5343   13.8982 H   0  0  0  0  0  0
   12.1485   49.3172   13.6808 H   0  0  0  0  0  0
   11.0654   50.5274   12.9940 H   0  0  0  0  0  0
    7.0088   55.2264   27.1290 H   0  0  0  0  0  0
    7.0155   54.0909   25.7700 H   0  0  0  0  0  0
    6.4774   55.7473   25.5235 H   0  0  0  0  0  0
  1  2  1  0  0  0
  1 35  1  0  0  0
  1 36  1  0  0  0
  1 37  1  0  0  0
  2  7  2  0  0  0
  2  3  1  0  0  0
  3  4  2  0  0  0
  3 38  1  0  0  0
  4  5  1  0  0  0
  4 34  1  0  0  0
  5 10  1  0  0  0
  5  6  2  0  0  0
  6  7  1  0  0  0
  6  8  1  0  0  0
  7 39  1  0  0  0
  8  9  2  0  0  0
  9 10  1  0  0  0
  9 11  1  0  0  0
 11 16  2  0  0  0
 11 12  1  0  0  0
 12 13  2  0  0  0
 12 40  1  0  0  0
 13 14  1  0  0  0
 13 41  1  0  0  0
 14 15  2  0  0  0
 14 33  1  0  0  0
 15 16  1  0  0  0
 15 17  1  0  0  0
 16 42  1  0  0  0
 17 18  1  0  0  0
 17 43  1  0  0  0
 18 19  2  0  0  0
 18 20  1  0  0  0
 20 21  1  0  0  0
 20 44  1  0  0  0
 21 22  2  0  0  0
 21 23  1  0  0  0
 23 28  2  0  0  0
 23 24  1  0  0  0
 24 25  2  0  0  0
 24 45  1  0  0  0
 25 26  1  0  0  0
 25 46  1  0  0  0
 26 32  1  0  0  0
 26 27  2  0  0  0
 27 28  1  0  0  0
 27 29  1  0  0  0
 28 47  1  0  0  0
 29 30  1  0  0  0
 30 31  1  0  0  0
 30 48  1  0  0  0
 30 49  1  0  0  0
 31 32  1  0  0  0
 31 50  1  0  0  0
 31 51  1  0  0  0
 34 52  1  0  0  0
 34 53  1  0  0  0
 34 54  1  0  0  0
M  END
> <i_i_glide_confnum>
1

> <i_i_glide_lignum>
4175

> <i_i_glide_posenum>
386

> <i_i_glide_rotatable_bonds>
6

> <i_m_Source_File_Index>
1191

> <b_m_subgroup_collapsed>
0

> <r_i_docking_score>
-5.10778

> <r_i_glide_ecoul>
-2.12802

> <r_i_glide_eff_state_penalty>
0

> <r_i_glide_einternal>
0.723628

> <r_i_glide_emodel>
-62.527

> <r_i_glide_energy>
-45.9042

> <r_i_glide_erotb>
0.417525

> <r_i_glide_esite>
-0.126022

> <r_i_glide_evdw>
-43.7762

> <r_i_glide_gscore>
-5.10778

> <r_i_glide_hbond>
-0.16

> <r_i_glide_ligand_efficiency>
-0.150229

> <r_i_glide_ligand_efficiency_ln>
-1.12845

> <r_i_glide_ligand_efficiency_sa>
-0.486683

> <r_i_glide_lipo>
-2.41817

> <r_i_glide_metal>
0

> <r_i_glide_rewards>
-0.313104

> <s_i_glide_gridfile>
wee1_glide-grid

> <s_m_Source_File>
wee1_decoys_glide_SP.sdf

> <s_m_Source_Path>
/Users/zhangxujun/Desktop

> <s_m_entry_id>
1466

> <s_m_entry_name>
wee1_decoys_glide_SP.1191

> <s_m_subgroup_title>
wee1_decoys_glide_SP

> <s_m_subgroupid>
wee1_decoys_glide_SP


$$$$
