ZINC64775297_4257
                    3D
 Schrodinger Suite 2024-2.
 52 55  0  0  1  0            999 V2000
    5.9034   54.4960   27.6809 C   0  0  0  0  0  0
    4.8796   54.4272   28.6201 C   0  0  0  0  0  0
    3.5605   54.2203   28.2097 C   0  0  0  0  0  0
    3.2829   54.0890   26.8432 C   0  0  0  0  0  0
    4.2937   54.1789   25.8692 C   0  0  0  0  0  0
    5.6119   54.3744   26.3238 C   0  0  0  0  0  0
    4.0082   54.0416   24.5045 N   0  0  0  0  0  0
    5.0738   54.0934   23.4815 C   0  0  0  0  0  0
    4.6492   53.8819   22.0070 C   0  0  0  0  0  0
    3.5055   52.9605   21.9473 N   0  0  0  0  0  0
    2.3061   53.3685   22.7043 C   0  0  0  0  0  0
    2.6790   54.2785   23.9066 C   0  0  0  0  0  0
    3.6153   51.7641   21.3007 C   0  0  0  0  0  0
    4.7042   51.3677   20.8828 O   0  0  0  0  0  0
    2.3263   50.9541   20.9604 C   0  0  1  0  0  0
    1.6269   51.7148   20.6041 H   0  0  0  0  0  0
    2.5848   50.0004   19.8758 N   0  0  0  0  0  0
    1.6527   48.9757   19.6135 C   0  0  0  0  0  0
    1.8519   48.1846   18.4813 C   0  0  0  0  0  0
    0.9671   47.1527   18.1475 C   0  0  0  0  0  0
   -0.1321   46.9109   18.9781 C   0  0  0  0  0  0
   -0.3505   47.6961   20.1087 C   0  0  0  0  0  0
    0.5327   48.7296   20.4334 C   0  0  0  0  0  0
    0.1723   49.7173   21.8829 S   0  0  0  0  0  0
   -0.2418   48.8320   22.9742 O   0  0  0  0  0  0
   -0.7024   50.8251   21.4816 O   0  0  0  0  0  0
    1.7809   50.3240   22.1747 N   0  0  0  0  0  0
    1.1978   46.2878   16.9074 C   0  0  0  0  0  0
    2.4626   46.3318   16.4850 F   0  0  0  0  0  0
    0.8932   45.0120   17.1615 F   0  0  0  0  0  0
    0.4112   46.7208   15.9221 F   0  0  0  0  0  0
    2.4480   54.1351   29.2536 C   0  0  0  0  0  0
    1.2920   53.7098   28.7406 F   0  0  0  0  0  0
    2.2506   55.3463   29.7746 F   0  0  0  0  0  0
    2.8022   53.2958   30.2284 F   0  0  0  0  0  0
    6.9217   54.6462   28.0139 H   0  0  0  0  0  0
    5.1166   54.5340   29.6688 H   0  0  0  0  0  0
    2.2629   53.9020   26.5546 H   0  0  0  0  0  0
    6.4321   54.4357   25.6273 H   0  0  0  0  0  0
    5.6020   55.0440   23.5479 H   0  0  0  0  0  0
    5.7401   53.2637   23.7212 H   0  0  0  0  0  0
    4.2697   54.8301   21.6238 H   0  0  0  0  0  0
    5.4881   53.6228   21.3610 H   0  0  0  0  0  0
    1.8852   52.4872   23.1808 H   0  0  0  0  0  0
    1.5501   53.8445   22.0806 H   0  0  0  0  0  0
    1.8650   54.2849   24.6269 H   0  0  0  0  0  0
    2.7500   55.2965   23.5400 H   0  0  0  0  0  0
    3.3000   50.2614   19.2032 H   0  0  0  0  0  0
    2.7044   48.3741   17.8488 H   0  0  0  0  0  0
   -0.8307   46.1194   18.7428 H   0  0  0  0  0  0
   -1.2100   47.5055   20.7374 H   0  0  0  0  0  0
    2.3943   49.6209   22.5932 H   0  0  0  0  0  0
  1  6  2  0  0  0
  1  2  1  0  0  0
  1 36  1  0  0  0
  2  3  2  0  0  0
  2 37  1  0  0  0
  3  4  1  0  0  0
  3 32  1  0  0  0
  4  5  2  0  0  0
  4 38  1  0  0  0
  5  6  1  0  0  0
  5  7  1  0  0  0
  6 39  1  0  0  0
  7 12  1  0  0  0
  7  8  1  0  0  0
  8  9  1  0  0  0
  8 40  1  0  0  0
  8 41  1  0  0  0
  9 10  1  0  0  0
  9 42  1  0  0  0
  9 43  1  0  0  0
 10 11  1  0  0  0
 10 13  1  0  0  0
 11 12  1  0  0  0
 11 44  1  0  0  0
 11 45  1  0  0  0
 12 46  1  0  0  0
 12 47  1  0  0  0
 13 14  2  0  0  0
 13 15  1  0  0  0
 15 16  1  0  0  0
 15 27  1  0  0  0
 15 17  1  0  0  0
 17 18  1  0  0  0
 17 48  1  0  0  0
 18 23  2  0  0  0
 18 19  1  0  0  0
 19 20  2  0  0  0
 19 49  1  0  0  0
 20 21  1  0  0  0
 20 28  1  0  0  0
 21 22  2  0  0  0
 21 50  1  0  0  0
 22 23  1  0  0  0
 22 51  1  0  0  0
 23 24  1  0  0  0
 24 25  2  0  0  0
 24 26  2  0  0  0
 24 27  1  0  0  0
 27 52  1  0  0  0
 28 29  1  0  0  0
 28 30  1  0  0  0
 28 31  1  0  0  0
 32 33  1  0  0  0
 32 34  1  0  0  0
 32 35  1  0  0  0
M  END
> <i_i_glide_confnum>
76

> <i_i_glide_lignum>
4258

> <i_i_glide_posenum>
346

> <i_i_glide_rotatable_bonds>
5

> <i_m_Source_File_Index>
168

> <b_m_subgroup_collapsed>
0

> <r_i_docking_score>
-6.36264

> <r_i_glide_ecoul>
-5.14562

> <r_i_glide_eff_state_penalty>
0

> <r_i_glide_einternal>
2.88301

> <r_i_glide_emodel>
-66.5382

> <r_i_glide_energy>
-49.4913

> <r_i_glide_erotb>
0.237592

> <r_i_glide_esite>
-0.130829

> <r_i_glide_evdw>
-44.3457

> <r_i_glide_gscore>
-6.36264

> <r_i_glide_hbond>
-0.0484162

> <r_i_glide_ligand_efficiency>
-0.187136

> <r_i_glide_ligand_efficiency_ln>
-1.40569

> <r_i_glide_ligand_efficiency_sa>
-0.60625

> <r_i_glide_lipo>
-2.39809

> <r_i_glide_metal>
0

> <r_i_glide_rewards>
-1.03377

> <s_i_glide_gridfile>
wee1_glide-grid

> <s_m_Source_File>
wee1_decoys_glide_SP.sdf

> <s_m_Source_Path>
/Users/zhangxujun/Desktop

> <s_m_entry_id>
443

> <s_m_entry_name>
wee1_decoys_glide_SP.168

> <s_m_subgroup_title>
wee1_decoys_glide_SP

> <s_m_subgroupid>
wee1_decoys_glide_SP


$$$$
