ZINC17746827_4663
                    3D
 Schrodinger Suite 2024-2.
 60 63  0  0  1  0            999 V2000
   -0.1559   46.5411   16.3967 C   0  0  0  0  0  0
   -0.3280   47.9566   16.9145 C   0  0  0  0  0  0
   -1.6045   48.4655   17.1633 C   0  0  0  0  0  0
   -1.7547   49.7676   17.6349 C   0  0  0  0  0  0
   -0.6270   50.5616   17.8554 C   0  0  0  0  0  0
    0.6517   50.0524   17.6020 C   0  0  0  0  0  0
    0.7987   48.7517   17.1310 C   0  0  0  0  0  0
   -0.8258   52.2329   18.4873 S   0  0  0  0  0  0
    0.4235   52.9021   18.1046 O   0  0  0  0  0  0
   -2.0316   52.7487   17.8270 O   0  0  0  0  0  0
   -1.0379   51.7862   20.1826 N   0  0  0  0  0  0
   -0.0160   51.6969   20.9408 C   0  0  0  0  0  0
    1.3270   51.8780   20.5929 N   0  0  0  0  0  0
    2.3684   52.3963   21.3371 C   0  0  0  0  0  0
    2.2771   53.3113   22.2339 N   0  0  0  0  0  0
    3.2348   53.7273   23.1091 C   0  0  0  0  0  0
    4.4744   54.2559   22.9479 C   0  0  0  0  0  0
    5.0536   54.3655   24.2019 N   0  0  0  0  0  0
    4.0570   54.1259   25.1470 N   0  0  0  0  0  0
    2.9392   53.6963   24.5287 C   0  0  0  0  0  0
    1.8899   53.3268   25.0700 O   0  0  0  0  0  0
    4.2465   54.1417   26.5484 C   0  0  0  0  0  0
    5.4495   53.6974   27.1060 C   0  0  0  0  0  0
    5.6288   53.7386   28.4814 C   0  0  0  0  0  0
    4.5952   54.1973   29.2977 C   0  0  0  0  0  0
    3.3841   54.6086   28.7642 C   0  0  0  0  0  0
    3.2124   54.5783   27.3909 C   0  0  0  0  0  0
    5.9951   55.4423   24.5413 C   0  0  0  0  0  0
    5.2642   54.6377   21.7008 C   0  0  0  0  0  0
    3.8623   51.4885   20.8818 S   0  5  0  0  0  0
   -0.2714   51.2779   22.3570 C   0  0  0  0  0  0
   -1.4271   51.7073   23.0334 C   0  0  0  0  0  0
   -1.6881   51.3085   24.3427 C   0  0  0  0  0  0
   -0.8014   50.4584   24.9952 C   0  0  0  0  0  0
    0.3434   50.0065   24.3489 C   0  0  0  0  0  0
    0.6020   50.4116   23.0427 C   0  0  0  0  0  0
    0.2547   45.9006   17.1775 H   0  0  0  0  0  0
    0.5418   46.5316   15.5586 H   0  0  0  0  0  0
   -1.0970   46.1176   16.0425 H   0  0  0  0  0  0
   -2.4799   47.8548   16.9958 H   0  0  0  0  0  0
   -2.7428   50.1576   17.8322 H   0  0  0  0  0  0
    1.5377   50.6512   17.7654 H   0  0  0  0  0  0
    1.7927   48.3704   16.9382 H   0  0  0  0  0  0
    6.2410   53.3082   26.4819 H   0  0  0  0  0  0
    6.5660   53.4097   28.9025 H   0  0  0  0  0  0
    4.7044   54.2299   30.3694 H   0  0  0  0  0  0
    2.5858   54.9513   29.4057 H   0  0  0  0  0  0
    2.2653   54.8967   26.9898 H   0  0  0  0  0  0
    6.6842   55.1302   25.3233 H   0  0  0  0  0  0
    6.6231   55.7011   23.6898 H   0  0  0  0  0  0
    5.5039   56.3506   24.8832 H   0  0  0  0  0  0
    4.6909   54.4333   20.7968 H   0  0  0  0  0  0
    5.5065   55.6965   21.6810 H   0  0  0  0  0  0
    6.1991   54.0847   21.6529 H   0  0  0  0  0  0
   -2.1327   52.3662   22.5488 H   0  0  0  0  0  0
   -2.5781   51.6531   24.8485 H   0  0  0  0  0  0
   -1.0052   50.1408   26.0090 H   0  0  0  0  0  0
    1.0263   49.3375   24.8538 H   0  0  0  0  0  0
    1.4886   50.0251   22.5617 H   0  0  0  0  0  0
    1.4983   51.9709   19.6024 H   0  0  0  0  0  0
  1  2  1  0  0  0
  1 37  1  0  0  0
  1 38  1  0  0  0
  1 39  1  0  0  0
  2  7  2  0  0  0
  2  3  1  0  0  0
  3  4  2  0  0  0
  3 40  1  0  0  0
  4  5  1  0  0  0
  4 41  1  0  0  0
  5  6  2  0  0  0
  5  8  1  0  0  0
  6  7  1  0  0  0
  6 42  1  0  0  0
  7 43  1  0  0  0
  8  9  2  0  0  0
  8 10  2  0  0  0
  8 11  1  0  0  0
 11 12  2  0  0  0
 12 13  1  0  0  0
 12 31  1  0  0  0
 13 14  1  0  0  0
 13 60  1  0  0  0
 14 15  2  0  0  0
 14 30  1  0  0  0
 15 16  1  0  0  0
 16 20  1  0  0  0
 16 17  2  0  0  0
 17 18  1  0  0  0
 17 29  1  0  0  0
 18 19  1  0  0  0
 18 28  1  0  0  0
 19 20  1  0  0  0
 19 22  1  0  0  0
 20 21  2  0  0  0
 22 27  2  0  0  0
 22 23  1  0  0  0
 23 24  2  0  0  0
 23 44  1  0  0  0
 24 25  1  0  0  0
 24 45  1  0  0  0
 25 26  2  0  0  0
 25 46  1  0  0  0
 26 27  1  0  0  0
 26 47  1  0  0  0
 27 48  1  0  0  0
 28 49  1  0  0  0
 28 50  1  0  0  0
 28 51  1  0  0  0
 29 52  1  0  0  0
 29 53  1  0  0  0
 29 54  1  0  0  0
 31 36  2  0  0  0
 31 32  1  0  0  0
 32 33  2  0  0  0
 32 55  1  0  0  0
 33 34  1  0  0  0
 33 56  1  0  0  0
 34 35  2  0  0  0
 34 57  1  0  0  0
 35 36  1  0  0  0
 35 58  1  0  0  0
 36 59  1  0  0  0
M  CHG  1  30  -1
M  END
> <i_i_glide_confnum>
118

> <i_i_glide_lignum>
4664

> <i_i_glide_posenum>
296

> <i_i_glide_rotatable_bonds>
7

> <i_m_Source_File_Index>
312

> <b_m_subgroup_collapsed>
0

> <r_i_docking_score>
-5.02778

> <r_i_glide_ecoul>
-1.86251

> <r_i_glide_eff_state_penalty>
0

> <r_i_glide_einternal>
16.0512

> <r_i_glide_emodel>
-45.9674

> <r_i_glide_energy>
-42.2509

> <r_i_glide_erotb>
0.458168

> <r_i_glide_esite>
-0.0737057

> <r_i_glide_evdw>
-40.3884

> <r_i_glide_gscore>
-5.02778

> <r_i_glide_hbond>
0

> <r_i_glide_ligand_efficiency>
-0.13966

> <r_i_glide_ligand_efficiency_ln>
-1.09693

> <r_i_glide_ligand_efficiency_sa>
-0.461149

> <r_i_glide_lipo>
-2.51591

> <r_i_glide_metal>
0

> <r_i_glide_rewards>
-0.597527

> <s_i_glide_gridfile>
wee1_glide-grid

> <s_m_Source_File>
wee1_decoys_glide_SP.sdf

> <s_m_Source_Path>
/Users/zhangxujun/Desktop

> <s_m_entry_id>
587

> <s_m_entry_name>
wee1_decoys_glide_SP.312

> <s_m_subgroup_title>
wee1_decoys_glide_SP

> <s_m_subgroupid>
wee1_decoys_glide_SP


$$$$
