ZINC13250946_5788
                    3D
 Schrodinger Suite 2024-2.
 55 56  0  0  1  0            999 V2000
   -1.7948   53.1387   23.8844 C   0  0  0  0  0  0
   -1.4622   51.6622   24.1606 C   0  0  0  0  0  0
   -0.1797   51.1285   23.4711 C   0  0  1  0  0  0
    0.6497   51.5165   24.0614 H   0  0  0  0  0  0
   -0.0876   49.5941   23.5714 C   0  0  0  0  0  0
   -0.0062   51.6201   22.0552 N   0  0  0  0  0  0
    1.3793   51.8502   21.6021 C   0  0  0  0  0  0
    2.1665   52.9407   22.3695 C   0  0  0  0  0  0
    1.6512   53.6025   23.2730 O   0  0  0  0  0  0
    3.4450   53.0875   21.9664 N   0  0  0  0  0  0
    4.4726   53.8653   22.5373 C   0  0  0  0  0  0
    4.5398   54.0965   23.9216 C   0  0  0  0  0  0
    5.6304   54.7568   24.4822 C   0  0  0  0  0  0
    6.6607   55.2066   23.6625 C   0  0  0  0  0  0
    6.5952   55.0108   22.2842 C   0  0  0  0  0  0
    5.5032   54.3471   21.7022 C   0  0  0  0  0  0
    5.4496   54.1664   20.1756 C   0  0  0  0  0  0
    6.4645   54.7700   19.5522 F   0  0  0  0  0  0
    5.4942   52.8688   19.8812 F   0  0  0  0  0  0
    4.3147   54.6685   19.6855 F   0  0  0  0  0  0
   -1.1986   51.1620   20.8019 S   0  0  0  0  0  0
   -0.9839   52.0446   19.6494 O   0  0  0  0  0  0
   -2.5299   51.0875   21.4134 O   0  0  0  0  0  0
   -0.7649   49.4995   20.2635 C   0  0  0  0  0  0
    0.3698   49.2886   19.4747 C   0  0  0  0  0  0
    0.7070   47.9958   19.0772 C   0  0  0  0  0  0
   -0.0843   46.9052   19.4582 C   0  0  0  0  0  0
   -1.2239   47.1269   20.2409 C   0  0  0  0  0  0
   -1.5649   48.4161   20.6372 C   0  0  0  0  0  0
    0.3308   45.5451   19.0553 C   0  0  0  0  0  0
    0.0016   44.3908   19.6800 C   0  0  0  0  0  0
    0.4718   42.9960   19.2258 C   0  0  0  0  0  0
    0.9268   42.9139   18.0642 O   0  0  0  0  0  0
   -2.6266   53.4704   24.5050 H   0  0  0  0  0  0
   -0.9393   53.7841   24.0816 H   0  0  0  0  0  0
   -2.0916   53.2953   22.8490 H   0  0  0  0  0  0
   -2.3267   51.0522   23.8940 H   0  0  0  0  0  0
   -1.3513   51.5297   25.2379 H   0  0  0  0  0  0
   -0.0156   49.2778   24.6131 H   0  0  0  0  0  0
   -0.9653   49.1043   23.1564 H   0  0  0  0  0  0
    0.7928   49.2067   23.0576 H   0  0  0  0  0  0
    1.9428   50.9167   21.6502 H   0  0  0  0  0  0
    1.3959   52.1367   20.5497 H   0  0  0  0  0  0
    3.7147   52.5843   21.1330 H   0  0  0  0  0  0
    3.7700   53.7238   24.5811 H   0  0  0  0  0  0
    5.6758   54.9136   25.5504 H   0  0  0  0  0  0
    7.5042   55.7217   24.0920 H   0  0  0  0  0  0
    7.4090   55.3774   21.6750 H   0  0  0  0  0  0
    0.9901   50.1198   19.1699 H   0  0  0  0  0  0
    1.5939   47.8467   18.4752 H   0  0  0  0  0  0
   -1.8556   46.3050   20.5458 H   0  0  0  0  0  0
   -2.4494   48.5682   21.2408 H   0  0  0  0  0  0
    0.9487   45.4908   18.1685 H   0  0  0  0  0  0
   -0.6177   44.4300   20.5633 H   0  0  0  0  0  0
    0.3042   42.0970   20.0812 O   0  5  0  0  0  0
  1  2  1  0  0  0
  1 34  1  0  0  0
  1 35  1  0  0  0
  1 36  1  0  0  0
  2  3  1  0  0  0
  2 37  1  0  0  0
  2 38  1  0  0  0
  3  4  1  0  0  0
  3  5  1  0  0  0
  3  6  1  0  0  0
  5 39  1  0  0  0
  5 40  1  0  0  0
  5 41  1  0  0  0
  6  7  1  0  0  0
  6 21  1  0  0  0
  7  8  1  0  0  0
  7 42  1  0  0  0
  7 43  1  0  0  0
  8  9  2  0  0  0
  8 10  1  0  0  0
 10 11  1  0  0  0
 10 44  1  0  0  0
 11 16  2  0  0  0
 11 12  1  0  0  0
 12 13  2  0  0  0
 12 45  1  0  0  0
 13 14  1  0  0  0
 13 46  1  0  0  0
 14 15  2  0  0  0
 14 47  1  0  0  0
 15 16  1  0  0  0
 15 48  1  0  0  0
 16 17  1  0  0  0
 17 18  1  0  0  0
 17 19  1  0  0  0
 17 20  1  0  0  0
 21 22  2  0  0  0
 21 23  2  0  0  0
 21 24  1  0  0  0
 24 29  2  0  0  0
 24 25  1  0  0  0
 25 26  2  0  0  0
 25 49  1  0  0  0
 26 27  1  0  0  0
 26 50  1  0  0  0
 27 28  2  0  0  0
 27 30  1  0  0  0
 28 29  1  0  0  0
 28 51  1  0  0  0
 29 52  1  0  0  0
 30 31  2  0  0  0
 30 53  1  0  0  0
 31 32  1  0  0  0
 31 54  1  0  0  0
 32 33  2  0  0  0
 32 55  1  0  0  0
M  CHG  1  55  -1
M  END
> <i_i_glide_confnum>
276

> <i_i_glide_lignum>
5789

> <i_i_glide_posenum>
189

> <i_i_glide_rotatable_bonds>
11

> <i_m_Source_File_Index>
2759

> <b_m_subgroup_collapsed>
0

> <r_i_docking_score>
-4.03332

> <r_i_glide_ecoul>
-6.79089

> <r_i_glide_eff_state_penalty>
0

> <r_i_glide_einternal>
2.50619

> <r_i_glide_emodel>
-50.8319

> <r_i_glide_energy>
-38.9261

> <r_i_glide_erotb>
0.78163

> <r_i_glide_esite>
-0.156139

> <r_i_glide_evdw>
-32.1352

> <r_i_glide_gscore>
-4.03332

> <r_i_glide_hbond>
-0.349449

> <r_i_glide_ligand_efficiency>
-0.122222

> <r_i_glide_ligand_efficiency_ln>
-0.89699

> <r_i_glide_ligand_efficiency_sa>
-0.392031

> <r_i_glide_lipo>
-1.5408

> <r_i_glide_metal>
0

> <r_i_glide_rewards>
-0.143172

> <s_i_glide_gridfile>
wee1_glide-grid

> <s_m_Source_File>
wee1_decoys_glide_SP.sdf

> <s_m_Source_Path>
/Users/zhangxujun/Desktop

> <s_m_entry_id>
3034

> <s_m_entry_name>
wee1_decoys_glide_SP.2759

> <s_m_subgroup_title>
wee1_decoys_glide_SP

> <s_m_subgroupid>
wee1_decoys_glide_SP


$$$$
