ZINC27528334_3976
                    3D
 Schrodinger Suite 2024-2.
 65 69  0  0  1  0            999 V2000
   -5.2228   47.9148   24.9292 C   0  0  0  0  0  0
   -4.2745   49.0100   24.4792 C   0  0  0  0  0  0
   -2.9193   48.7253   24.3224 C   0  0  0  0  0  0
   -2.0379   49.7283   23.9286 C   0  0  0  0  0  0
   -2.5013   51.0307   23.6882 C   0  0  0  0  0  0
   -3.8641   51.3060   23.8637 C   0  0  0  0  0  0
   -4.7480   50.3003   24.2471 C   0  0  0  0  0  0
   -1.5528   52.1532   23.3579 C   0  0  0  0  0  0
   -1.8431   53.3052   23.6812 O   0  0  0  0  0  0
   -0.2792   51.9059   22.6146 C   0  0  0  0  0  0
   -0.2251   51.0802   21.5346 C   0  0  0  0  0  0
    0.9783   50.8397   20.8508 N   0  0  0  0  0  0
    2.1678   51.5203   21.1712 C   0  0  0  0  0  0
    2.1980   52.4454   22.1841 C   0  0  0  0  0  0
    0.9666   52.6972   23.1183 C   0  0  2  0  0  0
    0.7169   53.7553   23.0217 H   0  0  0  0  0  0
    1.2231   52.6738   24.6602 C   0  0  0  0  0  0
    0.7043   51.6595   25.4722 C   0  0  0  0  0  0
    0.8480   51.6765   26.8579 C   0  0  0  0  0  0
    1.5530   52.7129   27.4780 C   0  0  0  0  0  0
    2.1111   53.7031   26.6826 C   0  0  0  0  0  0
    1.9205   53.7004   25.3039 C   0  0  0  0  0  0
    1.7332   52.8408   28.8404 O   0  0  0  0  0  0
    1.1099   51.8957   29.6970 C   0  0  0  0  0  0
    3.3759   53.3485   22.3140 C   0  0  0  0  0  0
    3.2875   54.4943   22.7402 O   0  0  0  0  0  0
    4.6727   52.9277   21.6208 C   0  0  0  0  0  0
    4.3571   52.4731   20.2013 C   0  0  0  0  0  0
    3.3901   51.2850   20.2385 C   0  0  0  0  0  0
    1.0166   49.8829   19.8042 C   0  0  0  0  0  0
    1.4021   48.5692   20.0714 C   0  0  0  0  0  0
    1.4375   47.6349   19.0396 C   0  0  0  0  0  0
    1.1193   48.0075   17.7256 C   0  0  0  0  0  0
    0.7366   49.3313   17.4693 C   0  0  0  0  0  0
    0.6752   50.2604   18.5024 C   0  0  0  0  0  0
    1.2020   47.0209   16.6210 N   0  3  0  0  0  0
    1.5703   45.8802   16.8830 O   0  0  0  0  0  0
    0.8818   47.3737   15.4892 O   0  5  0  0  0  0
   -1.3350   50.4522   20.9922 N   0  0  0  0  0  0
   -4.8192   47.4093   25.8112 H   0  0  0  0  0  0
   -6.2042   48.3112   25.2001 H   0  0  0  0  0  0
   -5.3417   47.1691   24.1423 H   0  0  0  0  0  0
   -2.5433   47.7324   24.5204 H   0  0  0  0  0  0
   -0.9944   49.4743   23.8180 H   0  0  0  0  0  0
   -4.2509   52.3038   23.7094 H   0  0  0  0  0  0
   -5.7948   50.5321   24.3769 H   0  0  0  0  0  0
    0.1867   50.8228   25.0402 H   0  0  0  0  0  0
    0.4094   50.8699   27.4267 H   0  0  0  0  0  0
    2.6505   54.5150   27.1457 H   0  0  0  0  0  0
    2.2851   54.5487   24.7576 H   0  0  0  0  0  0
    1.3327   52.1389   30.7349 H   0  0  0  0  0  0
    1.4965   50.8984   29.4969 H   0  0  0  0  0  0
    0.0252   51.8922   29.5794 H   0  0  0  0  0  0
    5.1222   52.1217   22.1981 H   0  0  0  0  0  0
    5.3758   53.7614   21.6336 H   0  0  0  0  0  0
    5.2710   52.1899   19.6770 H   0  0  0  0  0  0
    3.9214   53.2972   19.6311 H   0  0  0  0  0  0
    3.8757   50.3380   20.4681 H   0  0  0  0  0  0
    3.0903   51.2097   19.1939 H   0  0  0  0  0  0
    1.6782   48.2841   21.0760 H   0  0  0  0  0  0
    1.7169   46.6183   19.2666 H   0  0  0  0  0  0
    0.4970   49.6517   16.4647 H   0  0  0  0  0  0
    0.3886   51.2814   18.2916 H   0  0  0  0  0  0
   -2.2351   50.5020   21.4497 H   0  0  0  0  0  0
   -1.2462   49.8529   20.1844 H   0  0  0  0  0  0
  1  2  1  0  0  0
  1 40  1  0  0  0
  1 41  1  0  0  0
  1 42  1  0  0  0
  2  7  2  0  0  0
  2  3  1  0  0  0
  3  4  2  0  0  0
  3 43  1  0  0  0
  4  5  1  0  0  0
  4 44  1  0  0  0
  5  6  2  0  0  0
  5  8  1  0  0  0
  6  7  1  0  0  0
  6 45  1  0  0  0
  7 46  1  0  0  0
  8  9  2  0  0  0
  8 10  1  0  0  0
 10 15  1  0  0  0
 10 11  2  0  0  0
 11 12  1  0  0  0
 11 39  1  0  0  0
 12 13  1  0  0  0
 12 30  1  0  0  0
 13 29  1  0  0  0
 13 14  2  0  0  0
 14 15  1  0  0  0
 14 25  1  0  0  0
 15 16  1  0  0  0
 15 17  1  0  0  0
 17 22  2  0  0  0
 17 18  1  0  0  0
 18 19  2  0  0  0
 18 47  1  0  0  0
 19 20  1  0  0  0
 19 48  1  0  0  0
 20 21  2  0  0  0
 20 23  1  0  0  0
 21 22  1  0  0  0
 21 49  1  0  0  0
 22 50  1  0  0  0
 23 24  1  0  0  0
 24 51  1  0  0  0
 24 52  1  0  0  0
 24 53  1  0  0  0
 25 26  2  0  0  0
 25 27  1  0  0  0
 27 28  1  0  0  0
 27 54  1  0  0  0
 27 55  1  0  0  0
 28 29  1  0  0  0
 28 56  1  0  0  0
 28 57  1  0  0  0
 29 58  1  0  0  0
 29 59  1  0  0  0
 30 35  2  0  0  0
 30 31  1  0  0  0
 31 32  2  0  0  0
 31 60  1  0  0  0
 32 33  1  0  0  0
 32 61  1  0  0  0
 33 34  2  0  0  0
 33 36  1  0  0  0
 34 35  1  0  0  0
 34 62  1  0  0  0
 35 63  1  0  0  0
 36 37  2  0  0  0
 36 38  1  0  0  0
 39 64  1  0  0  0
 39 65  1  0  0  0
M  CHG  2  36   1  38  -1
M  END
> <i_i_glide_confnum>
18

> <i_i_glide_lignum>
3977

> <i_i_glide_posenum>
392

> <i_i_glide_rotatable_bonds>
6

> <i_m_Source_File_Index>
1341

> <b_m_subgroup_collapsed>
0

> <r_i_docking_score>
-3.09154

> <r_i_glide_ecoul>
-0.70594

> <r_i_glide_eff_state_penalty>
0

> <r_i_glide_einternal>
10.2416

> <r_i_glide_emodel>
-39.9762

> <r_i_glide_energy>
-37.8452

> <r_i_glide_erotb>
0.315519

> <r_i_glide_esite>
-0.0768503

> <r_i_glide_evdw>
-37.1392

> <r_i_glide_gscore>
-3.09154

> <r_i_glide_hbond>
0

> <r_i_glide_ligand_efficiency>
-0.0813564

> <r_i_glide_ligand_efficiency_ln>
-0.666628

> <r_i_glide_ligand_efficiency_sa>
-0.273518

> <r_i_glide_lipo>
-1.19688

> <r_i_glide_metal>
0

> <r_i_glide_rewards>
-0.170482

> <s_i_glide_gridfile>
wee1_glide-grid

> <s_m_Source_File>
wee1_decoys_glide_SP.sdf

> <s_m_Source_Path>
/Users/zhangxujun/Desktop

> <s_m_entry_id>
1616

> <s_m_entry_name>
wee1_decoys_glide_SP.1341

> <s_m_subgroup_title>
wee1_decoys_glide_SP

> <s_m_subgroupid>
wee1_decoys_glide_SP


$$$$
