ZINC45336405_2829
                    3D
 Schrodinger Suite 2024-2.
 35 37  0  0  1  0            999 V2000
    4.8157   53.8075   22.9266 C   0  0  0  0  0  0
    4.6483   53.8138   21.5466 C   0  0  0  0  0  0
    5.5056   54.5636   20.7475 C   0  0  0  0  0  0
    6.5408   55.2990   21.3207 C   0  0  0  0  0  0
    6.7060   55.2953   22.7020 C   0  0  0  0  0  0
    5.8537   54.5502   23.5273 C   0  0  0  0  0  0
    6.0382   54.6146   25.0337 C   0  0  0  0  0  0
    7.0715   55.0767   25.5250 O   0  0  0  0  0  0
    4.9885   54.1762   25.7591 N   0  0  0  0  0  0
    4.8466   54.1486   27.1423 C   0  0  0  0  0  0
    3.6890   53.7232   27.7948 C   0  0  0  0  0  0
    3.8113   53.8868   29.0918 N   0  0  0  0  0  0
    5.0956   54.4012   29.2468 O   0  0  0  0  0  0
    5.7520   54.5067   28.0235 N   0  0  0  0  0  0
    2.5796   53.2120   27.1325 N   0  0  0  0  0  0
    1.5076   52.5790   27.6565 C   0  0  0  0  0  0
    1.3593   52.3599   28.8614 O   0  0  0  0  0  0
    0.4772   52.1159   26.6415 C   0  0  0  0  0  0
   -0.5770   51.2870   27.0547 C   0  0  0  0  0  0
   -1.5343   50.8523   26.1415 C   0  0  0  0  0  0
   -1.4507   51.2442   24.8083 C   0  0  0  0  0  0
   -0.4133   52.0647   24.3771 C   0  0  0  0  0  0
    0.5463   52.4970   25.2862 C   0  0  0  0  0  0
   -2.7683   50.6607   23.5610 Br  0  0  0  0  0  0
    5.2671   54.5918   18.8583 Br  0  0  0  0  0  0
    4.1170   53.2318   23.5129 H   0  0  0  0  0  0
    3.8480   53.2498   21.0917 H   0  0  0  0  0  0
    7.2089   55.8698   20.6940 H   0  0  0  0  0  0
    7.5045   55.8856   23.1292 H   0  0  0  0  0  0
    4.1911   53.8743   25.2280 H   0  0  0  0  0  0
    2.6375   53.1944   26.1298 H   0  0  0  0  0  0
   -0.6618   50.9578   28.0833 H   0  0  0  0  0  0
   -2.3337   50.2055   26.4710 H   0  0  0  0  0  0
   -0.3538   52.3679   23.3424 H   0  0  0  0  0  0
    1.3262   53.1438   24.9102 H   0  0  0  0  0  0
  1  6  2  0  0  0
  1  2  1  0  0  0
  1 26  1  0  0  0
  2  3  2  0  0  0
  2 27  1  0  0  0
  3  4  1  0  0  0
  3 25  1  0  0  0
  4  5  2  0  0  0
  4 28  1  0  0  0
  5  6  1  0  0  0
  5 29  1  0  0  0
  6  7  1  0  0  0
  7  8  2  0  0  0
  7  9  1  0  0  0
  9 10  1  0  0  0
  9 30  1  0  0  0
 10 14  2  0  0  0
 10 11  1  0  0  0
 11 12  2  0  0  0
 11 15  1  0  0  0
 12 13  1  0  0  0
 13 14  1  0  0  0
 15 16  1  0  0  0
 15 31  1  0  0  0
 16 17  2  0  0  0
 16 18  1  0  0  0
 18 23  2  0  0  0
 18 19  1  0  0  0
 19 20  2  0  0  0
 19 32  1  0  0  0
 20 21  1  0  0  0
 20 33  1  0  0  0
 21 22  2  0  0  0
 21 24  1  0  0  0
 22 23  1  0  0  0
 22 34  1  0  0  0
 23 35  1  0  0  0
M  END
> <i_i_glide_confnum>
1

> <i_i_glide_lignum>
2830

> <i_i_glide_posenum>
145

> <i_i_glide_rotatable_bonds>
6

> <i_m_Source_File_Index>
5336

> <b_m_subgroup_collapsed>
0

> <r_i_docking_score>
-5.15034

> <r_i_glide_ecoul>
-4.41234

> <r_i_glide_eff_state_penalty>
0

> <r_i_glide_einternal>
0.535437

> <r_i_glide_emodel>
-59.1467

> <r_i_glide_energy>
-44.7602

> <r_i_glide_erotb>
0.557151

> <r_i_glide_esite>
0

> <r_i_glide_evdw>
-40.3479

> <r_i_glide_gscore>
-5.15034

> <r_i_glide_hbond>
-0.32

> <r_i_glide_ligand_efficiency>
-0.206013

> <r_i_glide_ligand_efficiency_ln>
-1.22078

> <r_i_glide_ligand_efficiency_sa>
-0.602387

> <r_i_glide_lipo>
-1.80575

> <r_i_glide_metal>
0

> <r_i_glide_rewards>
-0.902488

> <s_i_glide_gridfile>
wee1_glide-grid

> <s_m_Source_File>
wee1_decoys_glide_SP.sdf

> <s_m_Source_Path>
/Users/zhangxujun/Desktop

> <s_m_entry_id>
5611

> <s_m_entry_name>
wee1_decoys_glide_SP.5336

> <s_m_subgroup_title>
wee1_decoys_glide_SP

> <s_m_subgroupid>
wee1_decoys_glide_SP


$$$$
