ZINC12465563_3374
                    3D
 Schrodinger Suite 2024-2.
 58 61  0  0  1  0            999 V2000
    1.6181   56.7983   29.8642 C   0  0  0  0  0  0
    1.0546   55.7022   30.5880 O   0  0  0  0  0  0
    0.9793   54.4007   30.0583 C   0  0  0  0  0  0
    0.4582   53.4645   30.6599 O   0  0  0  0  0  0
    1.5623   54.3132   28.8415 N   0  0  0  0  0  0
    1.5683   53.2651   27.9890 C   0  0  0  0  0  0
    0.9638   52.2025   28.1348 O   0  0  0  0  0  0
    2.3297   53.5403   26.7877 C   0  0  0  0  0  0
    3.6535   54.0695   26.7837 C   0  0  0  0  0  0
    4.0971   54.3932   25.4900 C   0  0  0  0  0  0
    2.9813   53.8014   24.2995 S   0  0  0  0  0  0
    1.8889   53.1968   25.5044 C   0  0  0  0  0  0
    0.7187   52.4987   25.2030 N   0  0  0  0  0  0
    0.1643   52.2481   23.9970 C   0  0  0  0  0  0
    0.5584   52.7334   22.9351 O   0  0  0  0  0  0
   -1.1589   51.4520   24.0471 C   0  0  2  0  0  0
   -1.0186   50.6832   24.8095 H   0  0  0  0  0  0
   -1.5966   50.8386   22.6970 C   0  0  0  0  0  0
   -3.0763   51.1541   22.5798 C   0  0  0  0  0  0
   -3.2266   52.5004   23.2823 C   0  0  0  0  0  0
   -2.2777   52.3752   24.4071 N   0  0  0  0  0  0
   -2.9351   52.3538   26.0426 S   0  0  0  0  0  0
   -1.8349   52.0972   26.9757 O   0  0  0  0  0  0
   -3.8409   53.4992   26.1929 O   0  0  0  0  0  0
   -3.9641   50.8729   25.9915 C   0  0  0  0  0  0
   -5.3542   50.8610   25.9513 C   0  0  0  0  0  0
   -5.8791   49.5658   25.9684 C   0  0  0  0  0  0
   -4.8898   48.5919   26.0336 C   0  0  0  0  0  0
   -3.2971   49.2759   26.0812 S   0  0  0  0  0  0
    5.3833   55.0983   25.1050 C   0  0  0  0  0  0
    6.6536   54.3271   25.4914 C   0  0  0  0  0  0
    6.9458   54.3307   27.0007 C   0  0  0  0  0  0
    5.9349   53.5944   27.8874 C   0  0  0  0  0  0
    4.5460   54.2477   28.0122 C   0  0  0  0  0  0
    1.5057   57.7035   30.4579 H   0  0  0  0  0  0
    2.6829   56.6512   29.6763 H   0  0  0  0  0  0
    1.1042   56.9578   28.9158 H   0  0  0  0  0  0
    2.0184   55.1465   28.5111 H   0  0  0  0  0  0
    0.2076   52.1687   26.0137 H   0  0  0  0  0  0
   -1.0655   51.2504   21.8374 H   0  0  0  0  0  0
   -1.4301   49.7602   22.6800 H   0  0  0  0  0  0
   -3.4055   51.1840   21.5408 H   0  0  0  0  0  0
   -3.6781   50.3967   23.0878 H   0  0  0  0  0  0
   -2.8829   53.2956   22.6213 H   0  0  0  0  0  0
   -4.2231   52.8114   23.5992 H   0  0  0  0  0  0
   -5.9606   51.7555   25.9162 H   0  0  0  0  0  0
   -6.9370   49.3468   25.9467 H   0  0  0  0  0  0
   -5.0169   47.5209   26.0749 H   0  0  0  0  0  0
    5.4226   56.0802   25.5802 H   0  0  0  0  0  0
    5.4018   55.2959   24.0347 H   0  0  0  0  0  0
    7.5040   54.7746   24.9727 H   0  0  0  0  0  0
    6.5963   53.3008   25.1238 H   0  0  0  0  0  0
    7.0627   55.3562   27.3531 H   0  0  0  0  0  0
    7.9045   53.8553   27.1708 H   0  0  0  0  0  0
    6.3727   53.5320   28.8819 H   0  0  0  0  0  0
    5.8277   52.5610   27.5566 H   0  0  0  0  0  0
    4.0987   53.7931   28.8954 H   0  0  0  0  0  0
    4.6598   55.2967   28.2638 H   0  0  0  0  0  0
  1  2  1  0  0  0
  1 35  1  0  0  0
  1 36  1  0  0  0
  1 37  1  0  0  0
  2  3  1  0  0  0
  3  4  2  0  0  0
  3  5  1  0  0  0
  5  6  1  0  0  0
  5 38  1  0  0  0
  6  7  2  0  0  0
  6  8  1  0  0  0
  8 12  2  0  0  0
  8  9  1  0  0  0
  9 34  1  0  0  0
  9 10  2  0  0  0
 10 11  1  0  0  0
 10 30  1  0  0  0
 11 12  1  0  0  0
 12 13  1  0  0  0
 13 14  1  0  0  0
 13 39  1  0  0  0
 14 15  2  0  0  0
 14 16  1  0  0  0
 16 17  1  0  0  0
 16 21  1  0  0  0
 16 18  1  0  0  0
 18 19  1  0  0  0
 18 40  1  0  0  0
 18 41  1  0  0  0
 19 20  1  0  0  0
 19 42  1  0  0  0
 19 43  1  0  0  0
 20 21  1  0  0  0
 20 44  1  0  0  0
 20 45  1  0  0  0
 21 22  1  0  0  0
 22 23  2  0  0  0
 22 24  2  0  0  0
 22 25  1  0  0  0
 25 29  1  0  0  0
 25 26  2  0  0  0
 26 27  1  0  0  0
 26 46  1  0  0  0
 27 28  2  0  0  0
 27 47  1  0  0  0
 28 29  1  0  0  0
 28 48  1  0  0  0
 30 31  1  0  0  0
 30 49  1  0  0  0
 30 50  1  0  0  0
 31 32  1  0  0  0
 31 51  1  0  0  0
 31 52  1  0  0  0
 32 33  1  0  0  0
 32 53  1  0  0  0
 32 54  1  0  0  0
 33 34  1  0  0  0
 33 55  1  0  0  0
 33 56  1  0  0  0
 34 57  1  0  0  0
 34 58  1  0  0  0
M  END
> <i_i_glide_confnum>
263

> <i_i_glide_lignum>
3375

> <i_i_glide_posenum>
256

> <i_i_glide_rotatable_bonds>
9

> <i_m_Source_File_Index>
3485

> <b_m_subgroup_collapsed>
0

> <r_i_docking_score>
-4.55479

> <r_i_glide_ecoul>
-0.30443

> <r_i_glide_eff_state_penalty>
0

> <r_i_glide_einternal>
13.98

> <r_i_glide_emodel>
-52.8849

> <r_i_glide_energy>
-49.1349

> <r_i_glide_erotb>
0.626324

> <r_i_glide_esite>
-0.0305061

> <r_i_glide_evdw>
-48.8305

> <r_i_glide_gscore>
-4.55479

> <r_i_glide_hbond>
0

> <r_i_glide_ligand_efficiency>
-0.138024

> <r_i_glide_ligand_efficiency_ln>
-1.01296

> <r_i_glide_ligand_efficiency_sa>
-0.442716

> <r_i_glide_lipo>
-2.77822

> <r_i_glide_metal>
0

> <r_i_glide_rewards>
0.114798

> <s_i_glide_gridfile>
wee1_glide-grid

> <s_m_Source_File>
wee1_decoys_glide_SP.sdf

> <s_m_Source_Path>
/Users/zhangxujun/Desktop

> <s_m_entry_id>
3760

> <s_m_entry_name>
wee1_decoys_glide_SP.3485

> <s_m_subgroup_title>
wee1_decoys_glide_SP

> <s_m_subgroupid>
wee1_decoys_glide_SP


$$$$
