ZINC44924262_1598
                    3D
 Schrodinger Suite 2024-2.
 40 42  0  0  1  0            999 V2000
   -0.5644   51.9113   27.8710 C   0  0  0  0  0  0
    0.7983   52.5762   27.5531 C   0  0  2  0  0  0
    1.9048   51.8061   28.3309 C   0  0  0  0  0  0
    1.8693   52.1990   29.8166 C   0  0  0  0  0  0
    1.5556   54.0346   29.7649 S   0  0  0  0  0  0
    2.8434   54.7297   29.6817 O   0  0  0  0  0  0
    0.5748   54.4097   30.7862 O   0  0  0  0  0  0
    0.7594   54.0304   28.0822 C   0  0  0  0  0  0
    0.9402   52.4961   26.0994 N   0  0  0  0  0  0
    1.9469   53.0510   25.2704 C   0  0  0  0  0  0
    3.0904   53.6968   25.7738 C   0  0  0  0  0  0
    4.1079   54.1501   24.9265 C   0  0  0  0  0  0
    3.9706   53.9682   23.5462 C   0  0  0  0  0  0
    2.8216   53.3827   23.0200 C   0  0  0  0  0  0
    1.8172   52.9212   23.8692 C   0  0  0  0  0  0
    0.6978   52.3310   23.2701 N   0  0  0  0  0  0
    5.0066   54.3316   22.6837 N   0  0  0  0  0  0
    6.2834   54.6288   22.9919 C   0  0  0  0  0  0
    7.1036   54.9076   22.1225 O   0  0  0  0  0  0
    6.6018   54.5399   24.5065 C   0  0  0  0  0  0
    5.3759   54.8367   25.4236 C   0  0  0  0  0  0
   -0.8297   51.9827   28.9270 H   0  0  0  0  0  0
   -1.3783   52.3779   27.3132 H   0  0  0  0  0  0
   -0.5667   50.8503   27.6139 H   0  0  0  0  0  0
    2.8943   52.0488   27.9459 H   0  0  0  0  0  0
    1.8054   50.7277   28.2051 H   0  0  0  0  0  0
    2.7441   51.9885   30.4306 H   0  0  0  0  0  0
    1.0019   51.7292   30.2802 H   0  0  0  0  0  0
   -0.2531   54.4154   28.1851 H   0  0  0  0  0  0
    1.2924   54.7585   27.4761 H   0  0  0  0  0  0
    0.5301   51.6617   25.7122 H   0  0  0  0  0  0
    3.2268   53.8372   26.8341 H   0  0  0  0  0  0
    2.7239   53.2619   21.9501 H   0  0  0  0  0  0
    0.6636   52.2423   22.2651 H   0  0  0  0  0  0
   -0.0927   52.0742   23.8440 H   0  0  0  0  0  0
    4.8279   54.3243   21.6910 H   0  0  0  0  0  0
    6.9550   53.5242   24.6873 H   0  0  0  0  0  0
    7.4232   55.2223   24.7233 H   0  0  0  0  0  0
    5.2031   55.9134   25.4499 H   0  0  0  0  0  0
    5.5953   54.5439   26.4527 H   0  0  0  0  0  0
  1  2  1  0  0  0
  1 22  1  0  0  0
  1 23  1  0  0  0
  1 24  1  0  0  0
  2  8  1  0  0  0
  2  3  1  0  0  0
  2  9  1  0  0  0
  3  4  1  0  0  0
  3 25  1  0  0  0
  3 26  1  0  0  0
  4  5  1  0  0  0
  4 27  1  0  0  0
  4 28  1  0  0  0
  5  6  2  0  0  0
  5  7  2  0  0  0
  5  8  1  0  0  0
  8 29  1  0  0  0
  8 30  1  0  0  0
  9 10  1  0  0  0
  9 31  1  0  0  0
 10 15  2  0  0  0
 10 11  1  0  0  0
 11 12  2  0  0  0
 11 32  1  0  0  0
 12 21  1  0  0  0
 12 13  1  0  0  0
 13 14  2  0  0  0
 13 17  1  0  0  0
 14 15  1  0  0  0
 14 33  1  0  0  0
 15 16  1  0  0  0
 16 34  1  0  0  0
 16 35  1  0  0  0
 17 18  1  0  0  0
 17 36  1  0  0  0
 18 19  2  0  0  0
 18 20  1  0  0  0
 20 21  1  0  0  0
 20 37  1  0  0  0
 20 38  1  0  0  0
 21 39  1  0  0  0
 21 40  1  0  0  0
M  END
> <i_i_glide_confnum>
6

> <i_i_glide_lignum>
1599

> <i_i_glide_posenum>
156

> <i_i_glide_rotatable_bonds>
2

> <i_m_Source_File_Index>
603

> <b_m_subgroup_collapsed>
0

> <r_i_docking_score>
-5.70376

> <r_i_glide_ecoul>
0.107188

> <r_i_glide_eff_state_penalty>
0

> <r_i_glide_einternal>
0.597779

> <r_i_glide_emodel>
-48.6738

> <r_i_glide_energy>
-36.3107

> <r_i_glide_erotb>
0.38687

> <r_i_glide_esite>
-0.00254062

> <r_i_glide_evdw>
-36.4179

> <r_i_glide_gscore>
-5.70376

> <r_i_glide_hbond>
0

> <r_i_glide_ligand_efficiency>
-0.271608

> <r_i_glide_ligand_efficiency_ln>
-1.41024

> <r_i_glide_ligand_efficiency_sa>
-0.749345

> <r_i_glide_lipo>
-2.31989

> <r_i_glide_metal>
0

> <r_i_glide_rewards>
-1.96339

> <s_i_glide_gridfile>
wee1_glide-grid

> <s_m_Source_File>
wee1_decoys_glide_SP.sdf

> <s_m_Source_Path>
/Users/zhangxujun/Desktop

> <s_m_entry_id>
878

> <s_m_entry_name>
wee1_decoys_glide_SP.603

> <s_m_subgroup_title>
wee1_decoys_glide_SP

> <s_m_subgroupid>
wee1_decoys_glide_SP


$$$$
