ZINC39856231_2374
                    3D
 Schrodinger Suite 2024-2.
 59 61  0  0  1  0            999 V2000
    5.9032   55.4598   18.0908 C   0  0  0  0  0  0
    6.0586   55.3208   19.5939 C   0  0  0  0  0  0
    7.1937   55.8068   20.2340 C   0  0  0  0  0  0
    7.3115   55.6967   21.6150 C   0  0  0  0  0  0
    6.3077   55.0967   22.3889 C   0  0  0  0  0  0
    5.1551   54.5786   21.7448 C   0  0  0  0  0  0
    5.0510   54.7210   20.3472 C   0  0  0  0  0  0
    4.1307   54.0141   22.4990 O   0  0  0  0  0  0
    3.3993   52.9203   22.0817 C   0  0  0  0  0  0
    3.5872   52.2891   21.0407 O   0  0  0  0  0  0
    2.4151   52.4969   23.0874 C   0  0  0  0  0  0
    1.6300   51.3301   23.1690 C   0  0  0  0  0  0
    1.0898   51.3466   24.4750 C   0  0  0  0  0  0
    1.5051   52.5311   25.0692 C   0  0  0  0  0  0
    2.3031   53.2298   24.2297 O   0  0  0  0  0  0
    1.2498   52.9936   26.4929 C   0  0  0  0  0  0
    0.0462   52.1801   27.0771 C   0  0  0  0  0  0
    0.2790   50.6668   26.7686 C   0  0  0  0  0  0
    0.2999   50.3520   25.2363 C   0  0  0  0  0  0
   -0.2486   49.3752   24.6188 N   0  0  0  0  0  0
   -0.9139   48.5146   25.4250 N   0  0  0  0  0  0
   -1.7628   47.5235   25.0356 C   0  0  0  0  0  0
   -2.1576   47.0705   23.4816 S   0  0  0  0  0  0
   -2.3409   46.8973   26.0817 N   0  0  0  0  0  0
    0.0603   52.3524   28.6126 C   0  0  0  0  0  0
   -1.3213   52.6099   26.4667 C   0  0  0  0  0  0
    1.4305   50.2607   22.1097 C   0  0  0  0  0  0
    6.5863   54.9674   23.9019 C   0  0  0  0  0  0
    5.5171   55.5182   24.8745 C   0  0  0  0  0  0
    6.9258   53.5218   24.2244 C   0  0  0  0  0  0
    4.8889   55.7767   17.8429 H   0  0  0  0  0  0
    6.5798   56.2102   17.6800 H   0  0  0  0  0  0
    6.0848   54.5039   17.5980 H   0  0  0  0  0  0
    7.9896   56.2662   19.6650 H   0  0  0  0  0  0
    8.2109   56.0726   22.0823 H   0  0  0  0  0  0
    4.1635   54.3799   19.8340 H   0  0  0  0  0  0
    2.1573   52.7686   27.0558 H   0  0  0  0  0  0
    1.1044   54.0684   26.5673 H   0  0  0  0  0  0
    1.2182   50.3262   27.2060 H   0  0  0  0  0  0
   -0.4957   50.0967   27.2790 H   0  0  0  0  0  0
   -0.8301   48.7050   26.4155 H   0  0  0  0  0  0
   -2.0955   47.2000   27.0270 H   0  0  0  0  0  0
   -3.1269   46.2863   25.9333 H   0  0  0  0  0  0
   -0.7501   51.7933   29.0822 H   0  0  0  0  0  0
    0.9926   52.0012   29.0568 H   0  0  0  0  0  0
   -0.0639   53.3983   28.8955 H   0  0  0  0  0  0
   -2.0929   51.8658   26.6728 H   0  0  0  0  0  0
   -1.6953   53.5437   26.8817 H   0  0  0  0  0  0
   -1.2801   52.7357   25.3845 H   0  0  0  0  0  0
    0.3773   49.9930   22.0216 H   0  0  0  0  0  0
    1.7432   50.5644   21.1113 H   0  0  0  0  0  0
    1.9488   49.3368   22.3727 H   0  0  0  0  0  0
    7.4874   55.5411   24.1292 H   0  0  0  0  0  0
    5.5073   56.6056   24.8816 H   0  0  0  0  0  0
    4.5118   55.1635   24.6564 H   0  0  0  0  0  0
    5.7359   55.2238   25.9016 H   0  0  0  0  0  0
    7.8115   53.1878   23.6812 H   0  0  0  0  0  0
    7.1046   53.3662   25.2886 H   0  0  0  0  0  0
    6.0856   52.8967   23.9288 H   0  0  0  0  0  0
  1  2  1  0  0  0
  1 31  1  0  0  0
  1 32  1  0  0  0
  1 33  1  0  0  0
  2  7  2  0  0  0
  2  3  1  0  0  0
  3  4  2  0  0  0
  3 34  1  0  0  0
  4  5  1  0  0  0
  4 35  1  0  0  0
  5  6  2  0  0  0
  5 28  1  0  0  0
  6  7  1  0  0  0
  6  8  1  0  0  0
  7 36  1  0  0  0
  8  9  1  0  0  0
  9 10  2  0  0  0
  9 11  1  0  0  0
 11 15  1  0  0  0
 11 12  2  0  0  0
 12 13  1  0  0  0
 12 27  1  0  0  0
 13 19  1  0  0  0
 13 14  2  0  0  0
 14 15  1  0  0  0
 14 16  1  0  0  0
 16 17  1  0  0  0
 16 37  1  0  0  0
 16 38  1  0  0  0
 17 18  1  0  0  0
 17 25  1  0  0  0
 17 26  1  0  0  0
 18 19  1  0  0  0
 18 39  1  0  0  0
 18 40  1  0  0  0
 19 20  2  0  0  0
 20 21  1  0  0  0
 21 22  1  0  0  0
 21 41  1  0  0  0
 22 23  2  0  0  0
 22 24  1  0  0  0
 24 42  1  0  0  0
 24 43  1  0  0  0
 25 44  1  0  0  0
 25 45  1  0  0  0
 25 46  1  0  0  0
 26 47  1  0  0  0
 26 48  1  0  0  0
 26 49  1  0  0  0
 27 50  1  0  0  0
 27 51  1  0  0  0
 27 52  1  0  0  0
 28 29  1  0  0  0
 28 30  1  0  0  0
 28 53  1  0  0  0
 29 54  1  0  0  0
 29 55  1  0  0  0
 29 56  1  0  0  0
 30 57  1  0  0  0
 30 58  1  0  0  0
 30 59  1  0  0  0
M  END
> <i_i_glide_confnum>
36

> <i_i_glide_lignum>
2375

> <i_i_glide_posenum>
251

> <i_i_glide_rotatable_bonds>
6

> <i_m_Source_File_Index>
4530

> <b_m_subgroup_collapsed>
0

> <r_i_docking_score>
-5.74742

> <r_i_glide_ecoul>
-6.50195

> <r_i_glide_eff_state_penalty>
0

> <r_i_glide_einternal>
13.7203

> <r_i_glide_emodel>
-42.9045

> <r_i_glide_energy>
-40.6171

> <r_i_glide_erotb>
0.434466

> <r_i_glide_esite>
-0.315694

> <r_i_glide_evdw>
-34.1151

> <r_i_glide_gscore>
-5.74742

> <r_i_glide_hbond>
-0.283732

> <r_i_glide_ligand_efficiency>
-0.191581

> <r_i_glide_ligand_efficiency_ln>
-1.30588

> <r_i_glide_ligand_efficiency_sa>
-0.595286

> <r_i_glide_lipo>
-2.21339

> <r_i_glide_metal>
0

> <r_i_glide_rewards>
-0.688022

> <s_i_glide_gridfile>
wee1_glide-grid

> <s_m_Source_File>
wee1_decoys_glide_SP.sdf

> <s_m_Source_Path>
/Users/zhangxujun/Desktop

> <s_m_entry_id>
4805

> <s_m_entry_name>
wee1_decoys_glide_SP.4530

> <s_m_subgroup_title>
wee1_decoys_glide_SP

> <s_m_subgroupid>
wee1_decoys_glide_SP


$$$$
