ZINC39531942_4075
                    3D
 Schrodinger Suite 2024-2.
 76 80  0  0  1  0            999 V2000
   -0.3705   52.0551   29.9810 C   0  0  0  0  0  0
   -0.8796   51.7984   28.5721 C   0  0  0  0  0  0
   -2.1665   51.2966   28.3736 C   0  0  0  0  0  0
   -2.6740   51.0220   27.1013 C   0  0  0  0  0  0
   -1.8259   51.2711   26.0181 C   0  0  0  0  0  0
   -2.0095   51.1188   24.6586 N   0  0  0  0  0  0
   -0.8625   51.4145   23.9504 C   0  0  0  0  0  0
   -2.8441   50.7899   24.1948 H   0  0  0  0  0  0
    0.0563   51.8969   24.8846 C   0  0  0  0  0  0
   -0.5080   51.7747   26.1907 C   0  0  0  0  0  0
   -0.0417   52.0459   27.4851 C   0  0  0  0  0  0
   -0.8105   51.3355   22.4947 C   0  0  0  0  0  0
   -1.8587   51.4930   21.8586 O   0  0  0  0  0  0
    0.3831   51.0880   21.8756 N   0  0  0  0  0  0
    1.6720   50.8501   22.5426 C   0  0  0  0  0  0
    2.4609   52.1568   22.3295 C   0  0  0  0  0  0
    2.7501   52.4219   20.8367 C   0  0  0  0  0  0
    1.3700   52.4120   20.1002 C   0  0  0  0  0  0
    0.5079   51.1577   20.4057 C   0  0  0  0  0  0
    3.6417   53.6948   20.5599 C   0  0  1  0  0  0
    3.1080   54.5668   20.9211 H   0  0  0  0  0  0
    5.0789   53.6959   21.1967 C   0  0  0  0  0  0
    5.2816   54.1458   22.6623 C   0  0  0  0  0  0
    4.2367   54.4962   23.5287 C   0  0  0  0  0  0
    4.4851   54.7553   24.8773 C   0  0  0  0  0  0
    5.7919   54.7473   25.3552 C   0  0  0  0  0  0
    6.8484   54.4988   24.4874 C   0  0  0  0  0  0
    6.5938   54.2160   23.1485 C   0  0  0  0  0  0
    3.7209   53.9436   19.0088 N   0  3  1  0  0  0
    4.2175   55.3431   18.5544 C   0  0  0  0  0  0
    4.3970   52.8085   18.2093 C   0  0  0  0  0  0
    4.2801   52.9148   16.6973 C   0  0  0  0  0  0
    5.2111   53.2367   15.7845 C   0  0  0  0  0  0
    4.6883   53.0977   14.5033 N   0  0  0  0  0  0
    3.4253   52.4204   14.5767 N   0  0  0  0  0  0
    3.0078   52.5947   15.9490 C   0  0  2  0  0  0
    2.5823   51.6486   16.2947 H   0  0  0  0  0  0
    1.9616   53.7183   16.0748 C   0  0  0  0  0  0
    4.8095   54.1771   13.5371 C   0  0  0  0  0  0
   -0.9470   51.5062   30.7286 H   0  0  0  0  0  0
   -0.3925   53.1196   30.2106 H   0  0  0  0  0  0
    0.6583   51.7074   30.0820 H   0  0  0  0  0  0
   -2.7858   51.0768   29.2320 H   0  0  0  0  0  0
   -3.6674   50.6161   26.9752 H   0  0  0  0  0  0
    1.0358   52.2890   24.6743 H   0  0  0  0  0  0
    0.9571   52.4271   27.6376 H   0  0  0  0  0  0
    1.5974   50.4739   23.5623 H   0  0  0  0  0  0
    2.1627   50.0204   22.0280 H   0  0  0  0  0  0
    1.9226   52.9944   22.7665 H   0  0  0  0  0  0
    3.3940   52.0976   22.8707 H   0  0  0  0  0  0
    3.2946   51.5375   20.5056 H   0  0  0  0  0  0
    1.5065   52.4923   19.0235 H   0  0  0  0  0  0
    0.7927   53.2958   20.3691 H   0  0  0  0  0  0
    1.0268   50.2556   20.0780 H   0  0  0  0  0  0
   -0.4498   51.1300   19.8858 H   0  0  0  0  0  0
    5.4989   52.6939   21.0997 H   0  0  0  0  0  0
    5.7449   54.3319   20.6180 H   0  0  0  0  0  0
    3.2226   54.5680   23.1764 H   0  0  0  0  0  0
    3.6675   54.9881   25.5431 H   0  0  0  0  0  0
    5.9860   54.9562   26.3985 H   0  0  0  0  0  0
    7.8734   54.5253   24.8425 H   0  0  0  0  0  0
    7.4335   54.0735   22.4853 H   0  0  0  0  0  0
    5.2164   55.5300   18.9451 H   0  0  0  0  0  0
    4.2356   55.3696   17.4641 H   0  0  0  0  0  0
    3.4991   56.0886   18.8816 H   0  0  0  0  0  0
    5.4407   52.7869   18.5304 H   0  0  0  0  0  0
    3.9046   51.8851   18.5074 H   0  0  0  0  0  0
    6.2357   53.5450   15.9299 H   0  0  0  0  0  0
    3.6563   51.4527   14.3909 H   0  0  0  0  0  0
    1.6154   53.8366   17.1009 H   0  0  0  0  0  0
    2.3590   54.6810   15.7487 H   0  0  0  0  0  0
    1.0846   53.5020   15.4632 H   0  0  0  0  0  0
    5.8448   54.5116   13.4596 H   0  0  0  0  0  0
    4.4896   53.8440   12.5501 H   0  0  0  0  0  0
    4.1955   55.0292   13.8332 H   0  0  0  0  0  0
    2.7538   53.9154   18.7168 H   0  0  0  0  0  0
  1 40  1  0  0  0
  1 41  1  0  0  0
  1 42  1  0  0  0
  1  2  1  0  0  0
  2  3  2  0  0  0
  2 11  1  0  0  0
  3  4  1  0  0  0
  3 43  1  0  0  0
  4  5  2  0  0  0
  4 44  1  0  0  0
  5  6  1  0  0  0
  5 10  1  0  0  0
  6  8  1  0  0  0
  6  7  1  0  0  0
  7  9  2  0  0  0
  7 12  1  0  0  0
  9 10  1  0  0  0
  9 45  1  0  0  0
 10 11  2  0  0  0
 11 46  1  0  0  0
 12 13  2  0  0  0
 12 14  1  0  0  0
 14 19  1  0  0  0
 14 15  1  0  0  0
 15 16  1  0  0  0
 15 47  1  0  0  0
 15 48  1  0  0  0
 16 17  1  0  0  0
 16 49  1  0  0  0
 16 50  1  0  0  0
 17 18  1  0  0  0
 17 20  1  0  0  0
 17 51  1  0  0  0
 18 19  1  0  0  0
 18 52  1  0  0  0
 18 53  1  0  0  0
 19 54  1  0  0  0
 19 55  1  0  0  0
 20 21  1  0  0  0
 20 22  1  0  0  0
 20 29  1  0  0  0
 22 23  1  0  0  0
 22 56  1  0  0  0
 22 57  1  0  0  0
 23 28  2  0  0  0
 23 24  1  0  0  0
 24 25  2  0  0  0
 24 58  1  0  0  0
 25 26  1  0  0  0
 25 59  1  0  0  0
 26 27  2  0  0  0
 26 60  1  0  0  0
 27 28  1  0  0  0
 27 61  1  0  0  0
 28 62  1  0  0  0
 29 30  1  0  0  0
 29 31  1  0  0  0
 29 76  1  0  0  0
 30 63  1  0  0  0
 30 64  1  0  0  0
 30 65  1  0  0  0
 31 32  1  0  0  0
 31 66  1  0  0  0
 31 67  1  0  0  0
 32 36  1  0  0  0
 32 33  2  0  0  0
 33 34  1  0  0  0
 33 68  1  0  0  0
 34 35  1  0  0  0
 34 39  1  0  0  0
 35 36  1  0  0  0
 35 69  1  0  0  0
 36 37  1  0  0  0
 36 38  1  0  0  0
 38 70  1  0  0  0
 38 71  1  0  0  0
 38 72  1  0  0  0
 39 73  1  0  0  0
 39 74  1  0  0  0
 39 75  1  0  0  0
M  CHG  1  29   1
M  END
> <i_i_glide_confnum>
301

> <i_i_glide_lignum>
4076

> <i_i_glide_posenum>
237

> <i_i_glide_rotatable_bonds>
8

> <i_m_Source_File_Index>
2234

> <b_m_subgroup_collapsed>
0

> <r_i_docking_score>
-3.19392

> <r_i_glide_ecoul>
-2.84819

> <r_i_glide_eff_state_penalty>
0

> <r_i_glide_einternal>
14.3389

> <r_i_glide_emodel>
-33.7485

> <r_i_glide_energy>
-31.4003

> <r_i_glide_erotb>
0.686476

> <r_i_glide_esite>
-0.0304597

> <r_i_glide_evdw>
-28.5522

> <r_i_glide_gscore>
-3.19392

> <r_i_glide_hbond>
0

> <r_i_glide_ligand_efficiency>
-0.08872

> <r_i_glide_ligand_efficiency_ln>
-0.696827

> <r_i_glide_ligand_efficiency_sa>
-0.292947

> <r_i_glide_lipo>
-1.79688

> <r_i_glide_metal>
0

> <r_i_glide_rewards>
-0.198217

> <s_i_glide_gridfile>
wee1_glide-grid

> <s_m_Source_File>
wee1_decoys_glide_SP.sdf

> <s_m_Source_Path>
/Users/zhangxujun/Desktop

> <s_m_entry_id>
2509

> <s_m_entry_name>
wee1_decoys_glide_SP.2234

> <s_m_subgroup_title>
wee1_decoys_glide_SP

> <s_m_subgroupid>
wee1_decoys_glide_SP


$$$$
