ZINC09311000_4357
                    3D
 Schrodinger Suite 2024-2.
 51 54  0  0  1  0            999 V2000
    6.3081   54.5784   26.0816 C   0  0  0  0  0  0
    6.4049   54.4326   27.4614 C   0  0  0  0  0  0
    5.2580   54.1989   28.2137 C   0  0  0  0  0  0
    4.0039   54.0875   27.5958 C   0  0  0  0  0  0
    3.9248   54.2473   26.2018 C   0  0  0  0  0  0
    5.0714   54.4960   25.4515 C   0  0  0  0  0  0
    2.7771   53.7977   28.4412 C   0  0  0  0  0  0
    2.7708   54.0336   29.6583 O   0  0  0  0  0  0
    1.6830   53.3055   27.7343 N   0  0  0  0  0  0
    0.8175   52.5238   28.2583 C   0  0  0  0  0  0
   -0.2065   51.9541   27.3602 C   0  0  0  0  0  0
   -0.1477   51.7195   25.9569 C   0  0  0  0  0  0
   -1.2920   51.2889   25.4679 N   0  0  0  0  0  0
   -2.1249   51.1442   26.5016 N   0  0  0  0  0  0
   -1.4780   51.4640   27.6751 C   0  0  0  0  0  0
   -2.1148   51.2967   28.8808 O   0  0  0  0  0  0
   -3.4662   50.7400   26.2706 C   0  0  0  0  0  0
   -4.0812   49.7867   27.0936 C   0  0  0  0  0  0
   -5.4014   49.4117   26.8622 C   0  0  0  0  0  0
   -6.1078   49.9842   25.8069 C   0  0  0  0  0  0
   -5.5075   50.9303   24.9790 C   0  0  0  0  0  0
   -4.1879   51.3080   25.2095 C   0  0  0  0  0  0
    1.0084   51.8769   24.9814 C   0  0  0  0  0  0
    0.7457   53.1761   23.7419 S   0  0  0  0  0  0
    2.1100   53.0544   22.6305 C   0  0  0  0  0  0
    3.0303   54.0967   22.5756 C   0  0  0  0  0  0
    4.0895   54.0397   21.6749 C   0  0  0  0  0  0
    4.2173   52.9396   20.8300 C   0  0  0  0  0  0
    3.3049   51.8865   20.8920 C   0  0  0  0  0  0
    2.2456   51.9427   21.7978 C   0  0  0  0  0  0
    5.5041   52.8985   19.6834 Cl  0  0  0  0  0  0
    0.6457   52.0960   29.5564 N   0  0  0  0  0  0
    7.1943   54.7536   25.4909 H   0  0  0  0  0  0
    7.3660   54.4968   27.9517 H   0  0  0  0  0  0
    5.3562   54.0891   29.2819 H   0  0  0  0  0  0
    2.9758   54.1855   25.6888 H   0  0  0  0  0  0
    5.0107   54.6160   24.3811 H   0  0  0  0  0  0
   -2.0959   50.3591   29.1239 H   0  0  0  0  0  0
   -3.5400   49.3158   27.9034 H   0  0  0  0  0  0
   -5.8723   48.6715   27.4943 H   0  0  0  0  0  0
   -7.1309   49.6893   25.6264 H   0  0  0  0  0  0
   -6.0626   51.3678   24.1617 H   0  0  0  0  0  0
   -3.7319   52.0455   24.5637 H   0  0  0  0  0  0
    1.9432   52.0987   25.4873 H   0  0  0  0  0  0
    1.1822   50.9387   24.4549 H   0  0  0  0  0  0
    2.9123   54.9561   23.2175 H   0  0  0  0  0  0
    4.7976   54.8529   21.6186 H   0  0  0  0  0  0
    3.4119   51.0416   20.2260 H   0  0  0  0  0  0
    1.5263   51.1383   21.8378 H   0  0  0  0  0  0
    1.2224   52.5071   30.2761 H   0  0  0  0  0  0
   -0.2149   51.6346   29.8140 H   0  0  0  0  0  0
  1  6  2  0  0  0
  1  2  1  0  0  0
  1 33  1  0  0  0
  2  3  2  0  0  0
  2 34  1  0  0  0
  3  4  1  0  0  0
  3 35  1  0  0  0
  4  5  2  0  0  0
  4  7  1  0  0  0
  5  6  1  0  0  0
  5 36  1  0  0  0
  6 37  1  0  0  0
  7  8  2  0  0  0
  7  9  1  0  0  0
  9 10  2  0  0  0
 10 11  1  0  0  0
 10 32  1  0  0  0
 11 15  2  0  0  0
 11 12  1  0  0  0
 12 13  2  0  0  0
 12 23  1  0  0  0
 13 14  1  0  0  0
 14 15  1  0  0  0
 14 17  1  0  0  0
 15 16  1  0  0  0
 16 38  1  0  0  0
 17 22  2  0  0  0
 17 18  1  0  0  0
 18 19  2  0  0  0
 18 39  1  0  0  0
 19 20  1  0  0  0
 19 40  1  0  0  0
 20 21  2  0  0  0
 20 41  1  0  0  0
 21 22  1  0  0  0
 21 42  1  0  0  0
 22 43  1  0  0  0
 23 24  1  0  0  0
 23 44  1  0  0  0
 23 45  1  0  0  0
 24 25  1  0  0  0
 25 30  2  0  0  0
 25 26  1  0  0  0
 26 27  2  0  0  0
 26 46  1  0  0  0
 27 28  1  0  0  0
 27 47  1  0  0  0
 28 29  2  0  0  0
 28 31  1  0  0  0
 29 30  1  0  0  0
 29 48  1  0  0  0
 30 49  1  0  0  0
 32 50  1  0  0  0
 32 51  1  0  0  0
M  END
> <i_i_glide_confnum>
39

> <i_i_glide_lignum>
4358

> <i_i_glide_posenum>
127

> <i_i_glide_rotatable_bonds>
8

> <i_m_Source_File_Index>
4285

> <b_m_subgroup_collapsed>
0

> <r_i_docking_score>
-6.16415

> <r_i_glide_ecoul>
-6.3329

> <r_i_glide_eff_state_penalty>
0

> <r_i_glide_einternal>
4.27243

> <r_i_glide_emodel>
-74.9146

> <r_i_glide_energy>
-53.2754

> <r_i_glide_erotb>
0.56404

> <r_i_glide_esite>
-0.0549837

> <r_i_glide_evdw>
-46.9425

> <r_i_glide_gscore>
-6.16415

> <r_i_glide_hbond>
-0.283075

> <r_i_glide_ligand_efficiency>
-0.19263

> <r_i_glide_ligand_efficiency_ln>
-1.38032

> <r_i_glide_ligand_efficiency_sa>
-0.611561

> <r_i_glide_lipo>
-2.31151

> <r_i_glide_metal>
0

> <r_i_glide_rewards>
-0.781557

> <s_i_glide_gridfile>
wee1_glide-grid

> <s_m_Source_File>
wee1_decoys_glide_SP.sdf

> <s_m_Source_Path>
/Users/zhangxujun/Desktop

> <s_m_entry_id>
4560

> <s_m_entry_name>
wee1_decoys_glide_SP.4285

> <s_m_subgroup_title>
wee1_decoys_glide_SP

> <s_m_subgroupid>
wee1_decoys_glide_SP


$$$$
