ZINC10279251_2999
                    3D
 Schrodinger Suite 2024-2.
 57 59  0  0  1  0            999 V2000
    6.2060   55.3139   18.5681 C   0  0  0  0  0  0
    5.9891   55.0183   20.0384 C   0  0  0  0  0  0
    6.9387   55.4051   20.9845 C   0  0  0  0  0  0
    6.7271   55.1421   22.3370 C   0  0  0  0  0  0
    5.5578   54.4946   22.7731 C   0  0  0  0  0  0
    4.6039   54.1032   21.8121 C   0  0  0  0  0  0
    4.8291   54.3651   20.4578 C   0  0  0  0  0  0
    3.2926   53.4340   22.2030 C   0  0  0  0  0  0
    5.2764   54.2222   24.1342 N   0  0  0  0  0  0
    5.9297   54.6101   25.2508 C   0  0  0  0  0  0
    6.9372   55.3209   25.2696 O   0  0  0  0  0  0
    5.3344   54.1106   26.3571 N   0  0  0  0  0  0
    5.9046   53.9523   27.5761 C   0  0  0  0  0  0
    7.1052   54.0956   27.8020 O   0  0  0  0  0  0
    5.0071   53.5650   28.7639 C   0  0  0  0  0  0
    3.6891   53.2319   28.3328 O   0  0  0  0  0  0
    2.7269   52.8684   29.2169 C   0  0  0  0  0  0
    2.8953   52.8425   30.4392 O   0  0  0  0  0  0
    1.4412   52.4909   28.5496 C   0  0  0  0  0  0
    0.3400   52.0953   29.3262 C   0  0  0  0  0  0
   -0.8516   51.6969   28.7182 C   0  0  0  0  0  0
   -0.9665   51.7066   27.3280 C   0  0  0  0  0  0
    0.1104   52.1204   26.5428 C   0  0  0  0  0  0
    1.3046   52.5054   27.1503 C   0  0  0  0  0  0
   -0.0270   52.1906   24.7601 S   0  0  0  0  0  0
   -1.4523   52.2479   24.4093 O   0  0  0  0  0  0
    0.9057   53.2230   24.2941 O   0  0  0  0  0  0
    0.6132   50.6556   24.1656 N   0  0  0  0  0  0
   -0.1645   49.4979   24.1182 C   0  0  0  0  0  0
   -0.6125   48.8963   25.2952 C   0  0  0  0  0  0
   -1.4084   47.7557   25.2352 C   0  0  0  0  0  0
   -1.7467   47.2133   23.9993 C   0  0  0  0  0  0
   -1.2970   47.8024   22.8200 C   0  0  0  0  0  0
   -0.4985   48.9445   22.8812 C   0  0  0  0  0  0
   -2.5084   46.0982   23.9415 F   0  0  0  0  0  0
    6.6489   54.4551   18.0632 H   0  0  0  0  0  0
    6.8546   56.1814   18.4291 H   0  0  0  0  0  0
    5.2576   55.5465   18.0788 H   0  0  0  0  0  0
    7.8470   55.9003   20.6751 H   0  0  0  0  0  0
    7.5033   55.4540   23.0215 H   0  0  0  0  0  0
    4.0915   54.0755   19.7224 H   0  0  0  0  0  0
    2.7201   54.1021   22.8446 H   0  0  0  0  0  0
    2.6769   53.1922   21.3354 H   0  0  0  0  0  0
    3.4745   52.5123   22.7535 H   0  0  0  0  0  0
    4.4469   53.6650   24.2652 H   0  0  0  0  0  0
    4.3838   53.7880   26.2679 H   0  0  0  0  0  0
    5.4616   52.7193   29.2812 H   0  0  0  0  0  0
    4.9701   54.4147   29.4479 H   0  0  0  0  0  0
    0.3974   52.0722   30.4071 H   0  0  0  0  0  0
   -1.6808   51.3639   29.3263 H   0  0  0  0  0  0
   -1.8932   51.3885   26.8690 H   0  0  0  0  0  0
    2.1257   52.8116   26.5175 H   0  0  0  0  0  0
    1.5325   50.6427   23.7530 H   0  0  0  0  0  0
   -0.3487   49.2920   26.2659 H   0  0  0  0  0  0
   -1.7476   47.2964   26.1538 H   0  0  0  0  0  0
   -1.5592   47.3736   21.8674 H   0  0  0  0  0  0
   -0.1515   49.4053   21.9657 H   0  0  0  0  0  0
  1  2  1  0  0  0
  1 36  1  0  0  0
  1 37  1  0  0  0
  1 38  1  0  0  0
  2  7  2  0  0  0
  2  3  1  0  0  0
  3  4  2  0  0  0
  3 39  1  0  0  0
  4  5  1  0  0  0
  4 40  1  0  0  0
  5  6  2  0  0  0
  5  9  1  0  0  0
  6  7  1  0  0  0
  6  8  1  0  0  0
  7 41  1  0  0  0
  8 42  1  0  0  0
  8 43  1  0  0  0
  8 44  1  0  0  0
  9 10  1  0  0  0
  9 45  1  0  0  0
 10 11  2  0  0  0
 10 12  1  0  0  0
 12 13  1  0  0  0
 12 46  1  0  0  0
 13 14  2  0  0  0
 13 15  1  0  0  0
 15 16  1  0  0  0
 15 47  1  0  0  0
 15 48  1  0  0  0
 16 17  1  0  0  0
 17 18  2  0  0  0
 17 19  1  0  0  0
 19 24  2  0  0  0
 19 20  1  0  0  0
 20 21  2  0  0  0
 20 49  1  0  0  0
 21 22  1  0  0  0
 21 50  1  0  0  0
 22 23  2  0  0  0
 22 51  1  0  0  0
 23 24  1  0  0  0
 23 25  1  0  0  0
 24 52  1  0  0  0
 25 26  2  0  0  0
 25 27  2  0  0  0
 25 28  1  0  0  0
 28 29  1  0  0  0
 28 53  1  0  0  0
 29 34  2  0  0  0
 29 30  1  0  0  0
 30 31  2  0  0  0
 30 54  1  0  0  0
 31 32  1  0  0  0
 31 55  1  0  0  0
 32 33  2  0  0  0
 32 35  1  0  0  0
 33 34  1  0  0  0
 33 56  1  0  0  0
 34 57  1  0  0  0
M  END
> <i_i_glide_confnum>
183

> <i_i_glide_lignum>
3000

> <i_i_glide_posenum>
189

> <i_i_glide_rotatable_bonds>
11

> <i_m_Source_File_Index>
498

> <b_m_subgroup_collapsed>
0

> <r_i_docking_score>
-6.65299

> <r_i_glide_ecoul>
-9.0821

> <r_i_glide_eff_state_penalty>
0

> <r_i_glide_einternal>
8.95016

> <r_i_glide_emodel>
-87.327

> <r_i_glide_energy>
-64.9193

> <r_i_glide_erotb>
0.899942

> <r_i_glide_esite>
-0.0807119

> <r_i_glide_evdw>
-55.8372

> <r_i_glide_gscore>
-6.65299

> <r_i_glide_hbond>
-0.576915

> <r_i_glide_ligand_efficiency>
-0.190085

> <r_i_glide_ligand_efficiency_ln>
-1.46048

> <r_i_glide_ligand_efficiency_sa>
-0.621782

> <r_i_glide_lipo>
-1.57287

> <r_i_glide_metal>
0

> <r_i_glide_rewards>
-1.16826

> <s_i_glide_gridfile>
wee1_glide-grid

> <s_m_Source_File>
wee1_decoys_glide_SP.sdf

> <s_m_Source_Path>
/Users/zhangxujun/Desktop

> <s_m_entry_id>
773

> <s_m_entry_name>
wee1_decoys_glide_SP.498

> <s_m_subgroup_title>
wee1_decoys_glide_SP

> <s_m_subgroupid>
wee1_decoys_glide_SP


$$$$
