ZINC10797490_11
                    3D
 Schrodinger Suite 2024-2.
 48 51  0  0  1  0            999 V2000
    0.6693   54.8745   31.0077 C   0  0  0  0  0  0
    0.0572   53.6934   31.4214 C   0  0  0  0  0  0
    0.0069   52.5990   30.5622 C   0  0  0  0  0  0
    0.6070   52.6827   29.3089 C   0  0  0  0  0  0
    1.2607   53.8591   28.8982 C   0  0  0  0  0  0
    1.2655   54.9593   29.7565 C   0  0  0  0  0  0
    1.9419   53.9025   27.5395 C   0  0  0  0  0  0
    1.4006   52.8240   26.5990 C   0  0  0  0  0  0
    1.5070   52.9142   25.2057 C   0  0  0  0  0  0
    0.9686   51.9274   24.3772 C   0  0  0  0  0  0
    0.3042   50.8332   24.9352 C   0  0  0  0  0  0
    0.1709   50.7300   26.3192 C   0  0  0  0  0  0
    0.7152   51.7180   27.1395 C   0  0  0  0  0  0
    0.5173   51.5742   28.4956 O   0  0  0  0  0  0
    3.4562   53.6966   27.7482 C   0  0  0  0  0  0
    3.9224   52.8913   28.5548 O   0  0  0  0  0  0
    4.1729   54.5266   26.9731 O   0  0  0  0  0  0
    5.6027   54.5013   26.9519 C   0  0  0  0  0  0
    6.0784   54.7058   25.5098 C   0  0  0  0  0  0
    7.1044   55.3571   25.3176 O   0  0  0  0  0  0
    5.3374   54.1078   24.5488 N   0  0  0  0  0  0
    5.5579   54.0968   23.2197 C   0  0  0  0  0  0
    6.6171   54.4144   22.6718 O   0  0  0  0  0  0
    4.4439   53.6975   22.5805 N   0  0  0  0  0  0
    4.2706   53.4548   21.2083 C   0  0  0  0  0  0
    3.4498   52.3702   20.8772 C   0  0  0  0  0  0
    3.1493   52.0901   19.5464 C   0  0  0  0  0  0
    3.6627   52.8969   18.5327 C   0  0  0  0  0  0
    4.4636   53.9910   18.8493 C   0  0  0  0  0  0
    4.7639   54.2834   20.1806 C   0  0  0  0  0  0
    5.5061   55.3858   20.4412 F   0  0  0  0  0  0
    0.7060   55.7162   31.6770 H   0  0  0  0  0  0
   -0.3947   53.6280   32.4015 H   0  0  0  0  0  0
   -0.4974   51.6946   30.8752 H   0  0  0  0  0  0
    1.7533   55.8773   29.4625 H   0  0  0  0  0  0
    1.7774   54.8951   27.1189 H   0  0  0  0  0  0
    2.0025   53.7649   24.7593 H   0  0  0  0  0  0
    1.0550   52.0128   23.3031 H   0  0  0  0  0  0
   -0.1152   50.0686   24.2962 H   0  0  0  0  0  0
   -0.3547   49.8915   26.7584 H   0  0  0  0  0  0
    6.0212   53.5632   27.3259 H   0  0  0  0  0  0
    5.9982   55.2962   27.5853 H   0  0  0  0  0  0
    4.4968   53.6557   24.8707 H   0  0  0  0  0  0
    3.7031   53.3328   23.1584 H   0  0  0  0  0  0
    3.0384   51.7335   21.6458 H   0  0  0  0  0  0
    2.5372   51.2372   19.2917 H   0  0  0  0  0  0
    3.4486   52.6629   17.5011 H   0  0  0  0  0  0
    4.8471   54.6225   18.0617 H   0  0  0  0  0  0
  1  6  2  0  0  0
  1  2  1  0  0  0
  1 32  1  0  0  0
  2  3  2  0  0  0
  2 33  1  0  0  0
  3  4  1  0  0  0
  3 34  1  0  0  0
  4 14  1  0  0  0
  4  5  2  0  0  0
  5  6  1  0  0  0
  5  7  1  0  0  0
  6 35  1  0  0  0
  7  8  1  0  0  0
  7 15  1  0  0  0
  7 36  1  0  0  0
  8 13  2  0  0  0
  8  9  1  0  0  0
  9 10  2  0  0  0
  9 37  1  0  0  0
 10 11  1  0  0  0
 10 38  1  0  0  0
 11 12  2  0  0  0
 11 39  1  0  0  0
 12 13  1  0  0  0
 12 40  1  0  0  0
 13 14  1  0  0  0
 15 16  2  0  0  0
 15 17  1  0  0  0
 17 18  1  0  0  0
 18 19  1  0  0  0
 18 41  1  0  0  0
 18 42  1  0  0  0
 19 20  2  0  0  0
 19 21  1  0  0  0
 21 22  1  0  0  0
 21 43  1  0  0  0
 22 23  2  0  0  0
 22 24  1  0  0  0
 24 25  1  0  0  0
 24 44  1  0  0  0
 25 30  2  0  0  0
 25 26  1  0  0  0
 26 27  2  0  0  0
 26 45  1  0  0  0
 27 28  1  0  0  0
 27 46  1  0  0  0
 28 29  2  0  0  0
 28 47  1  0  0  0
 29 30  1  0  0  0
 29 48  1  0  0  0
 30 31  1  0  0  0
M  END
> <i_i_glide_confnum>
32

> <i_i_glide_lignum>
12

> <i_i_glide_posenum>
122

> <i_i_glide_rotatable_bonds>
8

> <i_m_Source_File_Index>
768

> <b_m_subgroup_collapsed>
0

> <r_i_docking_score>
-6.68333

> <r_i_glide_ecoul>
-5.87556

> <r_i_glide_eff_state_penalty>
0

> <r_i_glide_einternal>
8.39564

> <r_i_glide_emodel>
-70.7281

> <r_i_glide_energy>
-52.5082

> <r_i_glide_erotb>
0.671949

> <r_i_glide_esite>
0

> <r_i_glide_evdw>
-46.6326

> <r_i_glide_gscore>
-6.68333

> <r_i_glide_hbond>
-0.32

> <r_i_glide_ligand_efficiency>
-0.215591

> <r_i_glide_ligand_efficiency_ln>
-1.5073

> <r_i_glide_ligand_efficiency_sa>
-0.677254

> <r_i_glide_lipo>
-2.11433

> <r_i_glide_metal>
0

> <r_i_glide_rewards>
-1.70798

> <s_i_glide_gridfile>
wee1_glide-grid

> <s_m_Source_File>
wee1_decoys_glide_SP.sdf

> <s_m_Source_Path>
/Users/zhangxujun/Desktop

> <s_m_entry_id>
1043

> <s_m_entry_name>
wee1_decoys_glide_SP.768

> <s_m_subgroup_title>
wee1_decoys_glide_SP

> <s_m_subgroupid>
wee1_decoys_glide_SP


$$$$
