ZINC12497866_1070
                    3D
 Schrodinger Suite 2024-2.
 70 73  0  0  1  0            999 V2000
   -3.8448   50.8821   29.1976 C   0  0  0  0  0  0
   -2.5980   51.3377   28.4378 C   0  0  0  0  0  0
   -2.9878   51.8641   27.1695 O   0  0  0  0  0  0
   -2.0724   51.9086   26.1353 C   0  0  0  0  0  0
   -0.7340   51.5022   26.2417 C   0  0  0  0  0  0
    0.0952   51.5156   25.1261 C   0  0  0  0  0  0
   -0.3876   51.9600   23.8903 C   0  0  0  0  0  0
   -1.7104   52.4140   23.7934 C   0  0  0  0  0  0
   -2.5417   52.3830   24.9099 C   0  0  0  0  0  0
    0.4452   51.9077   22.7472 N   0  0  0  0  0  0
    1.7066   52.4521   22.6810 C   0  0  0  0  0  0
    2.3671   52.9873   23.5717 O   0  0  0  0  0  0
    2.0806   52.3776   21.2155 C   0  0  1  0  0  0
    1.6867   53.2967   20.7954 H   0  0  0  0  0  0
    3.4771   52.1746   20.6170 C   0  0  2  0  0  0
    4.0604   51.4355   21.1727 H   0  0  0  0  0  0
    1.5512   51.1930   19.2540 C   0  0  2  0  0  0
    1.3727   51.1685   20.7910 C   0  0  2  0  0  0
    1.8329   50.2442   21.1665 H   0  0  0  0  0  0
    0.0920   51.2501   21.5937 C   0  0  0  0  0  0
   -0.9846   50.7359   21.2885 O   0  0  0  0  0  0
    0.7885   52.2926   18.4204 C   0  0  0  0  0  0
   -0.7577   52.3567   18.4781 C   0  0  0  0  0  0
   -1.5181   53.6872   17.5009 S   0  0  0  0  0  0
   -1.1739   53.1150   15.8134 C   0  0  0  0  0  0
    1.2883   49.7636   18.6751 C   0  0  0  0  0  0
    0.2224   49.4694   18.1318 O   0  0  0  0  0  0
    2.3124   48.9073   18.8249 O   0  0  0  0  0  0
    2.3108   47.6567   18.1504 C   0  0  0  0  0  0
    4.3252   53.4410   20.3742 C   0  0  0  0  0  0
    4.3061   54.1101   19.1394 C   0  0  0  0  0  0
    5.0883   55.2423   18.9238 C   0  0  0  0  0  0
    5.9044   55.7491   19.9443 C   0  0  0  0  0  0
    5.9136   55.0946   21.1732 C   0  0  0  0  0  0
    5.1295   53.9534   21.4085 C   0  0  0  0  0  0
    5.1183   53.2957   22.6227 O   0  0  0  0  0  0
    5.7855   53.8742   23.7399 C   0  0  0  0  0  0
    6.6929   56.8806   19.8410 O   0  0  0  0  0  0
    6.6790   57.6256   18.6261 C   0  0  0  0  0  0
   -3.5756   50.4976   30.1825 H   0  0  0  0  0  0
   -4.5549   51.6968   29.3295 H   0  0  0  0  0  0
   -4.3465   50.0777   28.6598 H   0  0  0  0  0  0
   -1.9287   50.4968   28.3418 H   0  0  0  0  0  0
   -2.0479   52.0873   29.0047 H   0  0  0  0  0  0
   -0.3178   51.1426   27.1688 H   0  0  0  0  0  0
    1.1054   51.1509   25.2245 H   0  0  0  0  0  0
   -2.1048   52.7626   22.8498 H   0  0  0  0  0  0
   -3.5674   52.7053   24.8229 H   0  0  0  0  0  0
    1.1644   53.2829   18.6813 H   0  0  0  0  0  0
    1.0785   52.1734   17.3764 H   0  0  0  0  0  0
   -1.2165   51.4226   18.1624 H   0  0  0  0  0  0
   -1.0888   52.5063   19.5003 H   0  0  0  0  0  0
   -1.6698   53.7627   15.0900 H   0  0  0  0  0  0
   -0.1033   53.1356   15.6056 H   0  0  0  0  0  0
   -1.5384   52.0974   15.6697 H   0  0  0  0  0  0
    3.3293   47.2727   18.0876 H   0  0  0  0  0  0
    1.6854   46.9301   18.6694 H   0  0  0  0  0  0
    1.9517   47.7554   17.1237 H   0  0  0  0  0  0
    3.6806   53.7730   18.3267 H   0  0  0  0  0  0
    5.0386   55.7252   17.9599 H   0  0  0  0  0  0
    6.5499   55.5017   21.9430 H   0  0  0  0  0  0
    5.5650   53.2969   24.6376 H   0  0  0  0  0  0
    6.8680   53.8717   23.6007 H   0  0  0  0  0  0
    5.4484   54.8945   23.9306 H   0  0  0  0  0  0
    7.3328   58.4926   18.7228 H   0  0  0  0  0  0
    5.6796   57.9952   18.3958 H   0  0  0  0  0  0
    7.0415   57.0301   17.7878 H   0  0  0  0  0  0
    3.1018   51.4456   19.2821 N   0  3  0  0  0  0
    3.6245   50.5789   19.1805 H   0  0  0  0  0  0
    3.3998   51.9832   18.4822 H   0  0  0  0  0  0
  1  2  1  0  0  0
  1 40  1  0  0  0
  1 41  1  0  0  0
  1 42  1  0  0  0
  2  3  1  0  0  0
  2 43  1  0  0  0
  2 44  1  0  0  0
  3  4  1  0  0  0
  4  9  2  0  0  0
  4  5  1  0  0  0
  5  6  2  0  0  0
  5 45  1  0  0  0
  6  7  1  0  0  0
  6 46  1  0  0  0
  7  8  2  0  0  0
  7 10  1  0  0  0
  8  9  1  0  0  0
  8 47  1  0  0  0
  9 48  1  0  0  0
 10 20  1  0  0  0
 10 11  1  0  0  0
 11 12  2  0  0  0
 11 13  1  0  0  0
 13 14  1  0  0  0
 13 18  1  0  0  0
 13 15  1  0  0  0
 15 16  1  0  0  0
 15 30  1  0  0  0
 15 68  1  0  0  0
 17 18  1  0  0  0
 17 22  1  0  0  0
 17 26  1  0  0  0
 17 68  1  0  0  0
 18 19  1  0  0  0
 18 20  1  0  0  0
 20 21  2  0  0  0
 22 23  1  0  0  0
 22 49  1  0  0  0
 22 50  1  0  0  0
 23 24  1  0  0  0
 23 51  1  0  0  0
 23 52  1  0  0  0
 24 25  1  0  0  0
 25 53  1  0  0  0
 25 54  1  0  0  0
 25 55  1  0  0  0
 26 27  2  0  0  0
 26 28  1  0  0  0
 28 29  1  0  0  0
 29 56  1  0  0  0
 29 57  1  0  0  0
 29 58  1  0  0  0
 30 35  2  0  0  0
 30 31  1  0  0  0
 31 32  2  0  0  0
 31 59  1  0  0  0
 32 33  1  0  0  0
 32 60  1  0  0  0
 33 34  2  0  0  0
 33 38  1  0  0  0
 34 35  1  0  0  0
 34 61  1  0  0  0
 35 36  1  0  0  0
 36 37  1  0  0  0
 37 62  1  0  0  0
 37 63  1  0  0  0
 37 64  1  0  0  0
 38 39  1  0  0  0
 39 65  1  0  0  0
 39 66  1  0  0  0
 39 67  1  0  0  0
 68 69  1  0  0  0
 68 70  1  0  0  0
M  CHG  1  68   1
M  END
> <i_i_glide_confnum>
89

> <i_i_glide_lignum>
1071

> <i_i_glide_posenum>
174

> <i_i_glide_rotatable_bonds>
11

> <i_m_Source_File_Index>
2876

> <b_m_subgroup_collapsed>
0

> <r_i_docking_score>
-3.967

> <r_i_glide_ecoul>
-6.3358

> <r_i_glide_eff_state_penalty>
0

> <r_i_glide_einternal>
12.4964

> <r_i_glide_emodel>
-51.7034

> <r_i_glide_energy>
-44.0985

> <r_i_glide_erotb>
0.440824

> <r_i_glide_esite>
-0.140344

> <r_i_glide_evdw>
-37.7627

> <r_i_glide_gscore>
-3.967

> <r_i_glide_hbond>
-0.274363

> <r_i_glide_ligand_efficiency>
-0.107216

> <r_i_glide_ligand_efficiency_ln>
-0.860349

> <r_i_glide_ligand_efficiency_sa>
-0.357268

> <r_i_glide_lipo>
-0.922276

> <r_i_glide_metal>
0

> <r_i_glide_rewards>
-0.232336

> <s_i_glide_gridfile>
wee1_glide-grid

> <s_m_Source_File>
wee1_decoys_glide_SP.sdf

> <s_m_Source_Path>
/Users/zhangxujun/Desktop

> <s_m_entry_id>
3151

> <s_m_entry_name>
wee1_decoys_glide_SP.2876

> <s_m_subgroup_title>
wee1_decoys_glide_SP

> <s_m_subgroupid>
wee1_decoys_glide_SP


$$$$
