ZINC01884936_3338
                    3D
 Schrodinger Suite 2024-2.
 47 50  0  0  1  0            999 V2000
   -5.0711   50.0969   21.0176 C   0  0  0  0  0  0
   -3.8118   49.8729   21.8374 C   0  0  0  0  0  0
   -2.5753   50.3136   21.3579 C   0  0  0  0  0  0
   -1.4248   50.1067   22.1141 C   0  0  0  0  0  0
   -1.5152   49.4629   23.3518 C   0  0  0  0  0  0
   -2.7507   49.0284   23.8358 C   0  0  0  0  0  0
   -3.9001   49.2366   23.0769 C   0  0  0  0  0  0
   -0.0481   49.1631   24.3282 S   0  0  0  0  0  0
    1.1018   49.7205   23.6061 O   0  0  0  0  0  0
   -0.0956   47.7299   24.6284 O   0  0  0  0  0  0
   -0.2735   50.0558   25.8556 N   0  0  0  0  0  0
   -0.4724   51.5498   25.9840 C   0  0  1  0  0  0
    0.2237   52.0783   27.2157 C   0  0  0  0  0  0
   -0.0029   52.0095   28.5430 C   0  0  0  0  0  0
   -0.9462   51.4900   29.2347 O   0  5  0  0  0  0
    0.8240   52.6174   29.4356 N   0  0  0  0  0  0
    0.6398   52.5106   30.4188 H   0  0  0  0  0  0
    1.8721   53.4159   29.0816 C   0  0  0  0  0  0
    2.5097   53.9850   29.9697 O   0  0  0  0  0  0
    2.0664   53.5423   27.7078 N   0  0  0  0  0  0
    1.2983   52.8958   26.7433 C   0  0  0  0  0  0
    1.3707   53.0244   25.4785 N   0  0  0  0  0  0
    0.3012   52.3566   24.9154 C   0  0  0  0  0  0
   -0.0014   52.4165   23.7229 O   0  0  0  0  0  0
    3.0072   54.6018   27.2725 C   0  0  0  0  0  0
    4.4677   54.2498   27.4367 C   0  0  0  0  0  0
    5.3506   54.2749   28.5005 C   0  0  0  0  0  0
    6.5965   53.8935   28.0128 C   0  0  0  0  0  0
    6.4299   53.6968   26.6558 C   0  0  0  0  0  0
    5.1342   53.8995   26.3087 O   0  0  0  0  0  0
   -2.0092   51.8914   25.9563 C   0  0  0  0  0  0
   -2.5450   51.9029   24.7338 F   0  0  0  0  0  0
   -2.7229   51.0114   26.6624 F   0  0  0  0  0  0
   -2.2823   53.0855   26.4805 F   0  0  0  0  0  0
   -4.9054   50.7859   20.1879 H   0  0  0  0  0  0
   -5.4387   49.1486   20.6255 H   0  0  0  0  0  0
   -5.8567   50.5222   21.6442 H   0  0  0  0  0  0
   -2.5001   50.8141   20.4026 H   0  0  0  0  0  0
   -0.4698   50.4536   21.7422 H   0  0  0  0  0  0
   -2.8206   48.5353   24.7971 H   0  0  0  0  0  0
   -4.8574   48.9035   23.4525 H   0  0  0  0  0  0
   -0.6537   49.5053   26.6354 H   0  0  0  0  0  0
    2.7887   55.5024   27.8461 H   0  0  0  0  0  0
    2.8263   54.8963   26.2380 H   0  0  0  0  0  0
    5.1163   54.5392   29.5218 H   0  0  0  0  0  0
    7.5054   53.7972   28.5858 H   0  0  0  0  0  0
    7.0950   53.4000   25.8572 H   0  0  0  0  0  0
  1  2  1  0  0  0
  1 35  1  0  0  0
  1 36  1  0  0  0
  1 37  1  0  0  0
  2  7  2  0  0  0
  2  3  1  0  0  0
  3  4  2  0  0  0
  3 38  1  0  0  0
  4  5  1  0  0  0
  4 39  1  0  0  0
  5  6  2  0  0  0
  5  8  1  0  0  0
  6  7  1  0  0  0
  6 40  1  0  0  0
  7 41  1  0  0  0
  8  9  2  0  0  0
  8 10  2  0  0  0
  8 11  1  0  0  0
 11 12  1  0  0  0
 11 42  1  0  0  0
 12 23  1  0  0  0
 12 13  1  0  0  0
 12 31  1  0  0  0
 13 21  1  0  0  0
 13 14  2  0  0  0
 14 15  1  0  0  0
 14 16  1  0  0  0
 16 17  1  0  0  0
 16 18  1  0  0  0
 18 19  2  0  0  0
 18 20  1  0  0  0
 20 21  1  0  0  0
 20 25  1  0  0  0
 21 22  2  0  0  0
 22 23  1  0  0  0
 23 24  2  0  0  0
 25 26  1  0  0  0
 25 43  1  0  0  0
 25 44  1  0  0  0
 26 30  1  0  0  0
 26 27  2  0  0  0
 27 28  1  0  0  0
 27 45  1  0  0  0
 28 29  2  0  0  0
 28 46  1  0  0  0
 29 30  1  0  0  0
 29 47  1  0  0  0
 31 32  1  0  0  0
 31 33  1  0  0  0
 31 34  1  0  0  0
M  CHG  1  15  -1
M  END
> <i_i_glide_confnum>
46

> <i_i_glide_lignum>
3339

> <i_i_glide_posenum>
230

> <i_i_glide_rotatable_bonds>
6

> <i_m_Source_File_Index>
1925

> <b_m_subgroup_collapsed>
0

> <r_i_docking_score>
-4.00025

> <r_i_glide_ecoul>
-3.21588

> <r_i_glide_eff_state_penalty>
0

> <r_i_glide_einternal>
6.30524

> <r_i_glide_emodel>
-46.2119

> <r_i_glide_energy>
-42.011

> <r_i_glide_erotb>
0.434375

> <r_i_glide_esite>
-0.211625

> <r_i_glide_evdw>
-38.7951

> <r_i_glide_gscore>
-4.00025

> <r_i_glide_hbond>
-0.397469

> <r_i_glide_ligand_efficiency>
-0.12122

> <r_i_glide_ligand_efficiency_ln>
-0.889634

> <r_i_glide_ligand_efficiency_sa>
-0.388816

> <r_i_glide_lipo>
-1.30212

> <r_i_glide_metal>
0

> <r_i_glide_rewards>
-0.10127

> <s_i_glide_gridfile>
wee1_glide-grid

> <s_m_Source_File>
wee1_decoys_glide_SP.sdf

> <s_m_Source_Path>
/Users/zhangxujun/Desktop

> <s_m_entry_id>
2200

> <s_m_entry_name>
wee1_decoys_glide_SP.1925

> <s_m_subgroup_title>
wee1_decoys_glide_SP

> <s_m_subgroupid>
wee1_decoys_glide_SP


$$$$
