ZINC38903358_5345
                    3D
 Schrodinger Suite 2024-2.
 76 80  0  0  1  0            999 V2000
    0.3675   49.0745   24.1481 C   0  0  0  0  0  0
   -0.6709   49.9287   24.9172 C   0  0  0  0  0  0
   -1.0528   51.2559   24.2024 C   0  0  0  0  0  0
   -1.6438   51.0197   22.7949 C   0  0  2  0  0  0
   -2.1938   51.9320   22.5452 H   0  0  0  0  0  0
   -2.6499   49.8710   22.8494 C   0  0  0  0  0  0
   -3.5421   49.6213   21.7981 C   0  0  0  0  0  0
   -4.4394   48.5554   21.8558 C   0  0  0  0  0  0
   -4.4602   47.7165   22.9683 C   0  0  0  0  0  0
   -3.5784   47.9433   24.0244 C   0  0  0  0  0  0
   -2.6751   49.0031   23.9624 C   0  0  0  0  0  0
   -1.8830   49.1797   25.0837 O   0  0  0  0  0  0
   -0.5964   50.8651   21.7879 N   0  0  0  0  0  0
   -0.5769   51.3820   20.5493 C   0  0  0  0  0  0
   -1.5060   52.0382   20.0718 O   0  0  0  0  0  0
    0.7331   51.1746   19.7668 C   0  0  1  0  0  0
    1.2935   50.4146   20.3168 H   0  0  0  0  0  0
    0.5000   50.6948   18.3175 C   0  0  0  0  0  0
    1.8794   50.5531   17.6227 C   0  0  0  0  0  0
    2.7236   51.8460   17.6962 C   0  0  0  0  0  0
    2.9056   52.2369   19.1865 N   0  3  2  0  0  0
    1.5050   52.5063   19.7990 C   0  0  0  0  0  0
    3.8638   53.4563   19.2946 C   0  0  0  0  0  0
    4.3088   53.7493   20.7203 C   0  0  0  0  0  0
    3.7069   53.5065   21.8529 N   0  0  0  0  0  0
    4.5203   54.0375   22.7462 C   0  0  0  0  0  0
    5.6555   54.5004   22.2635 N   0  0  0  0  0  0
    5.5052   54.3586   20.8851 O   0  0  0  0  0  0
    4.1697   54.0961   24.2084 C   0  0  0  0  0  0
    5.1062   54.4968   25.1660 C   0  0  0  0  0  0
    4.7806   54.4846   26.5212 C   0  0  0  0  0  0
    3.5099   54.0728   26.9526 C   0  0  0  0  0  0
    2.5697   53.6959   25.9838 C   0  0  0  0  0  0
    2.8919   53.7067   24.6334 C   0  0  0  0  0  0
    3.1134   54.0250   28.4517 C   0  0  0  0  0  0
    2.0302   55.0946   28.7320 C   0  0  0  0  0  0
    4.3097   54.2870   29.4040 C   0  0  0  0  0  0
    2.5516   52.6228   28.8122 C   0  0  0  0  0  0
   -0.1995   50.2495   26.3437 C   0  0  0  0  0  0
    1.2682   49.6470   23.9261 H   0  0  0  0  0  0
    0.6717   48.2157   24.7461 H   0  0  0  0  0  0
   -0.0218   48.6737   23.2130 H   0  0  0  0  0  0
   -0.2065   51.9446   24.1721 H   0  0  0  0  0  0
   -1.8248   51.7407   24.8046 H   0  0  0  0  0  0
   -3.5365   50.2591   20.9267 H   0  0  0  0  0  0
   -5.1211   48.3813   21.0371 H   0  0  0  0  0  0
   -5.1642   46.8987   23.0192 H   0  0  0  0  0  0
   -3.5979   47.3119   24.9003 H   0  0  0  0  0  0
    0.2130   50.3482   22.0965 H   0  0  0  0  0  0
   -0.0663   51.4275   17.7406 H   0  0  0  0  0  0
    0.0195   49.7147   18.2872 H   0  0  0  0  0  0
    1.7491   50.2608   16.5797 H   0  0  0  0  0  0
    2.4374   49.7329   18.0820 H   0  0  0  0  0  0
    2.2547   52.6857   17.1809 H   0  0  0  0  0  0
    3.7196   51.6883   17.2792 H   0  0  0  0  0  0
    1.6123   52.8701   20.8186 H   0  0  0  0  0  0
    1.0466   53.2916   19.1920 H   0  0  0  0  0  0
    3.3542   54.2970   18.8191 H   0  0  0  0  0  0
    4.7271   53.1751   18.6854 H   0  0  0  0  0  0
    6.0997   54.8001   24.8732 H   0  0  0  0  0  0
    5.5399   54.7928   27.2236 H   0  0  0  0  0  0
    1.5758   53.3889   26.2708 H   0  0  0  0  0  0
    2.1425   53.3976   23.9200 H   0  0  0  0  0  0
    1.7132   55.0853   29.7754 H   0  0  0  0  0  0
    1.1353   54.9396   28.1276 H   0  0  0  0  0  0
    2.3954   56.0985   28.5153 H   0  0  0  0  0  0
    5.1106   53.5620   29.2487 H   0  0  0  0  0  0
    4.7337   55.2834   29.2716 H   0  0  0  0  0  0
    4.0167   54.2116   30.4510 H   0  0  0  0  0  0
    3.2648   51.8317   28.5695 H   0  0  0  0  0  0
    2.3242   52.5399   29.8764 H   0  0  0  0  0  0
    1.6270   52.3943   28.2812 H   0  0  0  0  0  0
    0.7034   50.8579   26.3438 H   0  0  0  0  0  0
   -0.9645   50.7733   26.9161 H   0  0  0  0  0  0
    0.0221   49.3290   26.8808 H   0  0  0  0  0  0
    3.3593   51.4681   19.6660 H   0  0  0  0  0  0
  1  2  1  0  0  0
  1 40  1  0  0  0
  1 41  1  0  0  0
  1 42  1  0  0  0
  2 12  1  0  0  0
  2  3  1  0  0  0
  2 39  1  0  0  0
  3  4  1  0  0  0
  3 43  1  0  0  0
  3 44  1  0  0  0
  4  5  1  0  0  0
  4  6  1  0  0  0
  4 13  1  0  0  0
  6 11  2  0  0  0
  6  7  1  0  0  0
  7  8  2  0  0  0
  7 45  1  0  0  0
  8  9  1  0  0  0
  8 46  1  0  0  0
  9 10  2  0  0  0
  9 47  1  0  0  0
 10 11  1  0  0  0
 10 48  1  0  0  0
 11 12  1  0  0  0
 13 14  1  0  0  0
 13 49  1  0  0  0
 14 15  2  0  0  0
 14 16  1  0  0  0
 16 17  1  0  0  0
 16 22  1  0  0  0
 16 18  1  0  0  0
 18 19  1  0  0  0
 18 50  1  0  0  0
 18 51  1  0  0  0
 19 20  1  0  0  0
 19 52  1  0  0  0
 19 53  1  0  0  0
 20 21  1  0  0  0
 20 54  1  0  0  0
 20 55  1  0  0  0
 21 22  1  0  0  0
 21 23  1  0  0  0
 21 76  1  0  0  0
 22 56  1  0  0  0
 22 57  1  0  0  0
 23 24  1  0  0  0
 23 58  1  0  0  0
 23 59  1  0  0  0
 24 28  1  0  0  0
 24 25  2  0  0  0
 25 26  1  0  0  0
 26 27  2  0  0  0
 26 29  1  0  0  0
 27 28  1  0  0  0
 29 34  2  0  0  0
 29 30  1  0  0  0
 30 31  2  0  0  0
 30 60  1  0  0  0
 31 32  1  0  0  0
 31 61  1  0  0  0
 32 33  2  0  0  0
 32 35  1  0  0  0
 33 34  1  0  0  0
 33 62  1  0  0  0
 34 63  1  0  0  0
 35 36  1  0  0  0
 35 37  1  0  0  0
 35 38  1  0  0  0
 36 64  1  0  0  0
 36 65  1  0  0  0
 36 66  1  0  0  0
 37 67  1  0  0  0
 37 68  1  0  0  0
 37 69  1  0  0  0
 38 70  1  0  0  0
 38 71  1  0  0  0
 38 72  1  0  0  0
 39 73  1  0  0  0
 39 74  1  0  0  0
 39 75  1  0  0  0
M  CHG  1  21   1
M  END
> <i_i_glide_confnum>
72

> <i_i_glide_lignum>
5346

> <i_i_glide_posenum>
126

> <i_i_glide_rotatable_bonds>
7

> <i_m_Source_File_Index>
2409

> <b_m_subgroup_collapsed>
0

> <r_i_docking_score>
-4.9303

> <r_i_glide_ecoul>
-4.49855

> <r_i_glide_eff_state_penalty>
0

> <r_i_glide_einternal>
2.96603

> <r_i_glide_emodel>
-57.0229

> <r_i_glide_energy>
-43.4282

> <r_i_glide_erotb>
0.483498

> <r_i_glide_esite>
-0.0556604

> <r_i_glide_evdw>
-38.9297

> <r_i_glide_gscore>
-4.9303

> <r_i_glide_hbond>
-0.0599029

> <r_i_glide_ligand_efficiency>
-0.133251

> <r_i_glide_ligand_efficiency_ln>
-1.06927

> <r_i_glide_ligand_efficiency_sa>
-0.444023

> <r_i_glide_lipo>
-2.33344

> <r_i_glide_metal>
0

> <r_i_glide_rewards>
-0.343534

> <s_i_glide_gridfile>
wee1_glide-grid

> <s_m_Source_File>
wee1_decoys_glide_SP.sdf

> <s_m_Source_Path>
/Users/zhangxujun/Desktop

> <s_m_entry_id>
2684

> <s_m_entry_name>
wee1_decoys_glide_SP.2409

> <s_m_subgroup_title>
wee1_decoys_glide_SP

> <s_m_subgroupid>
wee1_decoys_glide_SP


$$$$
