ZINC36698966_5711
                    3D
 Schrodinger Suite 2024-2.
 73 76  0  0  1  0            999 V2000
    6.4282   54.0934   28.0283 C   0  0  0  0  0  0
    5.5053   54.0982   26.8204 C   0  0  0  0  0  0
    6.0819   54.1082   25.5463 C   0  0  0  0  0  0
    5.2454   54.0985   24.4234 C   0  0  0  0  0  0
    3.8397   54.1110   24.5881 C   0  0  0  0  0  0
    3.2614   54.0967   25.8626 C   0  0  0  0  0  0
    4.1069   54.0959   26.9774 C   0  0  0  0  0  0
    3.4738   54.0708   28.3622 C   0  0  0  0  0  0
    3.0789   54.1500   23.0044 S   0  0  0  0  0  0
    4.6829   54.0485   22.2841 C   0  0  0  0  0  0
    5.6791   54.0506   23.1368 N   0  0  0  0  0  0
    4.8679   53.9689   20.8900 N   0  0  0  0  0  0
    3.8184   53.2724   20.0962 C   0  0  0  0  0  0
    3.7420   51.7330   20.2609 C   0  0  0  0  0  0
    2.7680   51.3309   21.3807 C   0  0  0  0  0  0
    2.5224   49.8116   21.4995 N   0  3  0  0  0  0
    1.6578   49.5617   22.7565 C   0  0  0  0  0  0
    1.9047   49.1709   20.2375 C   0  0  0  0  0  0
    5.7551   54.8380   20.2921 C   0  0  0  0  0  0
    6.2145   55.8309   20.8691 O   0  0  0  0  0  0
    6.2107   54.5932   18.8609 C   0  0  0  0  0  0
    6.6474   55.6642   18.0649 C   0  0  0  0  0  0
    7.1548   55.4405   16.7840 C   0  0  0  0  0  0
    7.2249   54.1395   16.2836 C   0  0  0  0  0  0
    6.7849   53.0687   17.0581 C   0  0  0  0  0  0
    6.3044   53.2956   18.3403 C   0  0  0  0  0  0
    7.9001   53.8134   14.6551 S   0  0  0  0  0  0
    7.1926   52.6391   14.1290 O   0  0  0  0  0  0
    7.8378   55.0867   13.9276 O   0  0  0  0  0  0
    9.6237   53.3920   14.9423 N   0  0  0  0  0  0
    9.8659   52.2244   15.8389 C   0  0  0  0  0  0
    9.5552   50.8796   15.1320 C   0  0  0  0  0  0
   10.2478   50.7750   13.7410 C   0  0  0  0  0  0
   10.1677   52.0780   12.8951 C   0  0  0  0  0  0
   10.5483   53.2979   13.7674 C   0  0  1  0  0  0
   11.5521   53.1210   14.1585 H   0  0  0  0  0  0
   10.6078   54.6418   13.0141 C   0  0  0  0  0  0
    6.4659   53.0999   28.4759 H   0  0  0  0  0  0
    6.0635   54.7890   28.7852 H   0  0  0  0  0  0
    7.4387   54.4153   27.7743 H   0  0  0  0  0  0
    7.1528   54.0968   25.4210 H   0  0  0  0  0  0
    2.1867   54.0927   25.9775 H   0  0  0  0  0  0
    2.4009   53.8789   28.3239 H   0  0  0  0  0  0
    3.9189   53.2805   28.9684 H   0  0  0  0  0  0
    3.6411   55.0171   28.8775 H   0  0  0  0  0  0
    2.8388   53.6972   20.2933 H   0  0  0  0  0  0
    3.9428   53.4628   19.0310 H   0  0  0  0  0  0
    3.3972   51.3243   19.3118 H   0  0  0  0  0  0
    4.7310   51.3061   20.4303 H   0  0  0  0  0  0
    3.1794   51.5882   22.3532 H   0  0  0  0  0  0
    1.7853   51.7941   21.2629 H   0  0  0  0  0  0
    0.7057   50.0767   22.6296 H   0  0  0  0  0  0
    1.5038   48.4968   22.8664 H   0  0  0  0  0  0
    2.2041   49.9411   23.6205 H   0  0  0  0  0  0
    0.9779   49.6996   20.0044 H   0  0  0  0  0  0
    2.6281   49.2511   19.4239 H   0  0  0  0  0  0
    1.7159   48.1205   20.4601 H   0  0  0  0  0  0
    6.6091   56.6783   18.4406 H   0  0  0  0  0  0
    7.4991   56.2755   16.1878 H   0  0  0  0  0  0
    6.8336   52.0562   16.6841 H   0  0  0  0  0  0
    6.0337   52.4349   18.9273 H   0  0  0  0  0  0
   10.9370   52.2055   16.0572 H   0  0  0  0  0  0
    9.4055   52.3846   16.8139 H   0  0  0  0  0  0
    9.8805   50.0509   15.7644 H   0  0  0  0  0  0
    8.4786   50.7481   15.0248 H   0  0  0  0  0  0
   11.3014   50.5328   13.8989 H   0  0  0  0  0  0
    9.8399   49.9345   13.1774 H   0  0  0  0  0  0
   10.8392   51.9894   12.0372 H   0  0  0  0  0  0
    9.1549   52.1854   12.5041 H   0  0  0  0  0  0
   11.4756   54.6612   12.3527 H   0  0  0  0  0  0
    9.7371   54.8007   12.3798 H   0  0  0  0  0  0
   10.7004   55.4900   13.6962 H   0  0  0  0  0  0
    3.4188   49.3629   21.6476 H   0  0  0  0  0  0
  1  2  1  0  0  0
  1 38  1  0  0  0
  1 39  1  0  0  0
  1 40  1  0  0  0
  2  7  2  0  0  0
  2  3  1  0  0  0
  3  4  2  0  0  0
  3 41  1  0  0  0
  4 11  1  0  0  0
  4  5  1  0  0  0
  5  6  2  0  0  0
  5  9  1  0  0  0
  6  7  1  0  0  0
  6 42  1  0  0  0
  7  8  1  0  0  0
  8 43  1  0  0  0
  8 44  1  0  0  0
  8 45  1  0  0  0
  9 10  1  0  0  0
 10 11  2  0  0  0
 10 12  1  0  0  0
 12 13  1  0  0  0
 12 19  1  0  0  0
 13 14  1  0  0  0
 13 46  1  0  0  0
 13 47  1  0  0  0
 14 15  1  0  0  0
 14 48  1  0  0  0
 14 49  1  0  0  0
 15 16  1  0  0  0
 15 50  1  0  0  0
 15 51  1  0  0  0
 16 17  1  0  0  0
 16 18  1  0  0  0
 16 73  1  0  0  0
 17 52  1  0  0  0
 17 53  1  0  0  0
 17 54  1  0  0  0
 18 55  1  0  0  0
 18 56  1  0  0  0
 18 57  1  0  0  0
 19 20  2  0  0  0
 19 21  1  0  0  0
 21 26  2  0  0  0
 21 22  1  0  0  0
 22 23  2  0  0  0
 22 58  1  0  0  0
 23 24  1  0  0  0
 23 59  1  0  0  0
 24 25  2  0  0  0
 24 27  1  0  0  0
 25 26  1  0  0  0
 25 60  1  0  0  0
 26 61  1  0  0  0
 27 28  2  0  0  0
 27 29  2  0  0  0
 27 30  1  0  0  0
 30 35  1  0  0  0
 30 31  1  0  0  0
 31 32  1  0  0  0
 31 62  1  0  0  0
 31 63  1  0  0  0
 32 33  1  0  0  0
 32 64  1  0  0  0
 32 65  1  0  0  0
 33 34  1  0  0  0
 33 66  1  0  0  0
 33 67  1  0  0  0
 34 35  1  0  0  0
 34 68  1  0  0  0
 34 69  1  0  0  0
 35 36  1  0  0  0
 35 37  1  0  0  0
 37 70  1  0  0  0
 37 71  1  0  0  0
 37 72  1  0  0  0
M  CHG  1  16   1
M  END
> <i_i_glide_confnum>
70

> <i_i_glide_lignum>
5712

> <i_i_glide_posenum>
329

> <i_i_glide_rotatable_bonds>
9

> <i_m_Source_File_Index>
1722

> <b_m_subgroup_collapsed>
0

> <r_i_docking_score>
-3.42154

> <r_i_glide_ecoul>
-3.36242

> <r_i_glide_eff_state_penalty>
0

> <r_i_glide_einternal>
8.27662

> <r_i_glide_emodel>
-47.3487

> <r_i_glide_energy>
-45.1902

> <r_i_glide_erotb>
0.587533

> <r_i_glide_esite>
-6.20298e-05

> <r_i_glide_evdw>
-41.8278

> <r_i_glide_gscore>
-3.42154

> <r_i_glide_hbond>
0

> <r_i_glide_ligand_efficiency>
-0.0950429

> <r_i_glide_ligand_efficiency_ln>
-0.746488

> <r_i_glide_ligand_efficiency_sa>
-0.313825

> <r_i_glide_lipo>
-2.73211

> <r_i_glide_metal>
0

> <r_i_glide_rewards>
1.31885

> <s_i_glide_gridfile>
wee1_glide-grid

> <s_m_Source_File>
wee1_decoys_glide_SP.sdf

> <s_m_Source_Path>
/Users/zhangxujun/Desktop

> <s_m_entry_id>
1997

> <s_m_entry_name>
wee1_decoys_glide_SP.1722

> <s_m_subgroup_title>
wee1_decoys_glide_SP

> <s_m_subgroupid>
wee1_decoys_glide_SP


$$$$
