ZINC21595749_4230
                    3D
 Schrodinger Suite 2024-2.
 60 64  0  0  1  0            999 V2000
    6.2520   54.7305   15.2941 C   0  0  0  0  0  0
    6.0574   54.6954   16.7989 C   0  0  0  0  0  0
    5.9220   55.8854   17.5160 C   0  0  0  0  0  0
    5.7517   55.8468   18.8978 C   0  0  0  0  0  0
    5.7069   54.6207   19.5746 C   0  0  0  0  0  0
    5.8760   53.4358   18.8462 C   0  0  0  0  0  0
    6.0383   53.4718   17.4657 C   0  0  0  0  0  0
    5.5642   54.6095   21.0829 C   0  0  0  0  0  0
    6.3044   55.3671   21.7173 O   0  0  0  0  0  0
    4.6406   53.8032   21.6908 N   0  0  0  0  0  0
    3.8127   52.8215   20.9636 C   0  0  0  0  0  0
    2.3862   52.7720   21.5451 C   0  0  0  0  0  0
    2.3061   52.6758   23.0058 N   0  0  0  0  0  0
    3.1167   53.6978   23.6730 C   0  0  0  0  0  0
    4.5796   53.7853   23.1696 C   0  0  0  0  0  0
    1.5119   51.7429   23.6638 C   0  0  0  0  0  0
    1.4913   50.4183   23.2164 C   0  0  0  0  0  0
    0.7040   49.4678   23.8548 C   0  0  0  0  0  0
   -0.1004   49.8331   24.9372 C   0  0  0  0  0  0
   -0.0614   51.1439   25.4144 C   0  0  0  0  0  0
    0.7419   52.0945   24.7802 C   0  0  0  0  0  0
   -0.9468   48.9054   25.5775 N   0  0  0  0  0  0
   -1.9136   48.0794   25.0648 C   0  0  0  0  0  0
   -2.2805   47.9591   23.4205 S   0  0  0  0  0  0
   -2.5688   47.4259   26.0815 N   0  0  0  0  0  0
   -3.6006   46.5413   26.0758 C   0  0  0  0  0  0
   -3.7565   45.6970   25.1896 O   0  0  0  0  0  0
   -4.5819   46.6056   27.2360 C   0  0  0  0  0  0
   -4.4953   47.6049   28.2259 C   0  0  0  0  0  0
   -5.4151   47.7089   29.2727 C   0  0  0  0  0  0
   -6.4651   46.7864   29.3083 C   0  0  0  0  0  0
   -6.5695   45.7761   28.3359 C   0  0  0  0  0  0
   -5.6322   45.6688   27.2980 C   0  0  0  0  0  0
   -7.6253   44.9446   28.4805 N   0  0  0  0  0  0
   -8.4361   45.5151   29.8292 S   0  0  0  0  0  0
   -7.4315   46.7835   30.2537 N   0  0  0  0  0  0
    6.8576   53.8853   14.9614 H   0  0  0  0  0  0
    5.2894   54.6952   14.7833 H   0  0  0  0  0  0
    6.7814   55.6336   14.9891 H   0  0  0  0  0  0
    5.9491   56.8389   17.0069 H   0  0  0  0  0  0
    5.6528   56.7777   19.4385 H   0  0  0  0  0  0
    5.8900   52.4708   19.3336 H   0  0  0  0  0  0
    6.1520   52.5437   16.9252 H   0  0  0  0  0  0
    4.2563   51.8304   21.0799 H   0  0  0  0  0  0
    3.6910   53.0558   19.9040 H   0  0  0  0  0  0
    1.8174   51.9749   21.0642 H   0  0  0  0  0  0
    1.8716   53.6961   21.2891 H   0  0  0  0  0  0
    2.6079   54.6473   23.4944 H   0  0  0  0  0  0
    3.1152   53.5348   24.7511 H   0  0  0  0  0  0
    5.0415   54.6597   23.6310 H   0  0  0  0  0  0
    5.1094   52.8970   23.5118 H   0  0  0  0  0  0
    2.1023   50.1130   22.3789 H   0  0  0  0  0  0
    0.7170   48.4497   23.4991 H   0  0  0  0  0  0
   -0.6666   51.4372   26.2600 H   0  0  0  0  0  0
    0.7490   53.1114   25.1434 H   0  0  0  0  0  0
   -0.8945   48.9242   26.5918 H   0  0  0  0  0  0
   -2.3797   47.8243   26.9995 H   0  0  0  0  0  0
   -3.6960   48.3329   28.2094 H   0  0  0  0  0  0
   -5.3169   48.4821   30.0198 H   0  0  0  0  0  0
   -5.7364   44.8909   26.5540 H   0  0  0  0  0  0
  1  2  1  0  0  0
  1 37  1  0  0  0
  1 38  1  0  0  0
  1 39  1  0  0  0
  2  7  2  0  0  0
  2  3  1  0  0  0
  3  4  2  0  0  0
  3 40  1  0  0  0
  4  5  1  0  0  0
  4 41  1  0  0  0
  5  6  2  0  0  0
  5  8  1  0  0  0
  6  7  1  0  0  0
  6 42  1  0  0  0
  7 43  1  0  0  0
  8  9  2  0  0  0
  8 10  1  0  0  0
 10 15  1  0  0  0
 10 11  1  0  0  0
 11 12  1  0  0  0
 11 44  1  0  0  0
 11 45  1  0  0  0
 12 13  1  0  0  0
 12 46  1  0  0  0
 12 47  1  0  0  0
 13 14  1  0  0  0
 13 16  1  0  0  0
 14 15  1  0  0  0
 14 48  1  0  0  0
 14 49  1  0  0  0
 15 50  1  0  0  0
 15 51  1  0  0  0
 16 21  2  0  0  0
 16 17  1  0  0  0
 17 18  2  0  0  0
 17 52  1  0  0  0
 18 19  1  0  0  0
 18 53  1  0  0  0
 19 20  2  0  0  0
 19 22  1  0  0  0
 20 21  1  0  0  0
 20 54  1  0  0  0
 21 55  1  0  0  0
 22 23  1  0  0  0
 22 56  1  0  0  0
 23 24  2  0  0  0
 23 25  1  0  0  0
 25 26  1  0  0  0
 25 57  1  0  0  0
 26 27  2  0  0  0
 26 28  1  0  0  0
 28 33  2  0  0  0
 28 29  1  0  0  0
 29 30  2  0  0  0
 29 58  1  0  0  0
 30 31  1  0  0  0
 30 59  1  0  0  0
 31 36  2  0  0  0
 31 32  1  0  0  0
 32 33  1  0  0  0
 32 34  2  0  0  0
 33 60  1  0  0  0
 34 35  1  0  0  0
 35 36  1  0  0  0
M  END
> <i_i_glide_confnum>
149

> <i_i_glide_lignum>
4231

> <i_i_glide_posenum>
257

> <i_i_glide_rotatable_bonds>
8

> <i_m_Source_File_Index>
4710

> <b_m_subgroup_collapsed>
0

> <r_i_docking_score>
-4.26113

> <r_i_glide_ecoul>
-11.7696

> <r_i_glide_eff_state_penalty>
0

> <r_i_glide_einternal>
9.10482

> <r_i_glide_emodel>
-53.6997

> <r_i_glide_energy>
-46.9008

> <r_i_glide_erotb>
0.538325

> <r_i_glide_esite>
-0.351436

> <r_i_glide_evdw>
-35.1312

> <r_i_glide_gscore>
-4.26113

> <r_i_glide_hbond>
-0.456

> <r_i_glide_ligand_efficiency>
-0.118365

> <r_i_glide_ligand_efficiency_ln>
-0.929664

> <r_i_glide_ligand_efficiency_sa>
-0.390832

> <r_i_glide_lipo>
-0.981346

> <r_i_glide_metal>
0

> <r_i_glide_rewards>
0.511321

> <s_i_glide_gridfile>
wee1_glide-grid

> <s_m_Source_File>
wee1_decoys_glide_SP.sdf

> <s_m_Source_Path>
/Users/zhangxujun/Desktop

> <s_m_entry_id>
4985

> <s_m_entry_name>
wee1_decoys_glide_SP.4710

> <s_m_subgroup_title>
wee1_decoys_glide_SP

> <s_m_subgroupid>
wee1_decoys_glide_SP


$$$$
