ZINC12814422_2449
                    3D
 Schrodinger Suite 2024-2.
 61 64  0  0  1  0            999 V2000
    5.1118   54.0185   28.5440 C   0  0  0  0  0  0
    4.9274   53.7681   27.0375 C   0  0  1  0  0  0
    5.1041   52.7024   26.8824 H   0  0  0  0  0  0
    3.5041   54.1504   26.5739 C   0  0  0  0  0  0
    3.2230   53.6965   25.1240 C   0  0  0  0  0  0
    4.4018   54.1117   24.2537 C   0  0  0  0  0  0
    5.6469   54.5267   24.7476 C   0  0  0  0  0  0
    6.5145   54.8968   23.7177 C   0  0  0  0  0  0
    5.9654   54.7935   22.4424 C   0  0  0  0  0  0
    4.3651   54.0967   22.5134 S   0  0  0  0  0  0
    6.5614   55.2966   21.2299 C   0  0  0  0  0  0
    7.5045   56.0864   21.2816 O   0  0  0  0  0  0
    6.0909   54.7767   20.0810 N   0  0  0  0  0  0
    6.7134   54.9648   18.7679 C   0  0  0  0  0  0
    6.2393   53.9560   17.6979 C   0  0  0  0  0  0
    7.0024   54.0960   16.3640 C   0  0  0  0  0  0
    7.0854   55.5033   15.9006 N   0  0  0  0  0  0
    7.5435   56.5069   16.8896 C   0  0  0  0  0  0
    6.7668   56.4136   18.2178 C   0  0  0  0  0  0
    6.1554   56.0321   14.4886 S   0  0  0  0  0  0
    6.0188   54.8953   13.5700 O   0  0  0  0  0  0
    6.7038   57.3152   14.0334 O   0  0  0  0  0  0
    4.5208   56.3763   15.1315 C   0  0  0  0  0  0
    3.5624   55.3632   15.1533 C   0  0  0  0  0  0
    2.2817   55.6307   15.6249 C   0  0  0  0  0  0
    1.9574   56.9158   16.0864 C   0  0  0  0  0  0
    2.9303   57.9192   16.0818 C   0  0  0  0  0  0
    4.2107   57.6521   15.6072 C   0  0  0  0  0  0
    0.6877   57.2967   16.5533 N   0  0  0  0  0  0
   -0.3971   56.5387   16.8124 C   0  0  0  0  0  0
   -0.4627   55.3151   16.7200 O   0  0  0  0  0  0
   -1.6277   57.2967   17.2827 C   0  0  0  0  0  0
    5.9912   54.5603   26.2355 C   0  0  0  0  0  0
    4.9521   55.0657   28.8027 H   0  0  0  0  0  0
    4.4129   53.4222   29.1313 H   0  0  0  0  0  0
    6.1180   53.7505   28.8697 H   0  0  0  0  0  0
    3.3422   55.2215   26.7055 H   0  0  0  0  0  0
    2.7690   53.6826   27.2305 H   0  0  0  0  0  0
    2.2892   54.1323   24.7678 H   0  0  0  0  0  0
    3.1029   52.6143   25.0979 H   0  0  0  0  0  0
    7.5037   55.2882   23.9020 H   0  0  0  0  0  0
    5.2050   54.2940   20.0959 H   0  0  0  0  0  0
    7.7604   54.6946   18.9377 H   0  0  0  0  0  0
    5.1752   54.1063   17.5085 H   0  0  0  0  0  0
    6.3408   52.9320   18.0631 H   0  0  0  0  0  0
    6.5095   53.4974   15.5971 H   0  0  0  0  0  0
    8.0188   53.7069   16.4401 H   0  0  0  0  0  0
    8.6151   56.3697   17.0383 H   0  0  0  0  0  0
    7.4213   57.5038   16.4640 H   0  0  0  0  0  0
    7.2310   57.0899   18.9348 H   0  0  0  0  0  0
    5.7508   56.7814   18.0681 H   0  0  0  0  0  0
    3.8010   54.3723   14.7931 H   0  0  0  0  0  0
    1.5624   54.8281   15.6057 H   0  0  0  0  0  0
    2.7052   58.9149   16.4425 H   0  0  0  0  0  0
    4.9507   58.4407   15.6026 H   0  0  0  0  0  0
    0.6169   58.2772   16.7926 H   0  0  0  0  0  0
   -2.5303   56.8632   16.8506 H   0  0  0  0  0  0
   -1.5832   58.3487   16.9979 H   0  0  0  0  0  0
   -1.6955   57.2368   18.3688 H   0  0  0  0  0  0
    6.9805   54.1349   26.4103 H   0  0  0  0  0  0
    6.0286   55.5978   26.5704 H   0  0  0  0  0  0
  1  2  1  0  0  0
  1 34  1  0  0  0
  1 35  1  0  0  0
  1 36  1  0  0  0
  2  3  1  0  0  0
  2 33  1  0  0  0
  2  4  1  0  0  0
  4  5  1  0  0  0
  4 37  1  0  0  0
  4 38  1  0  0  0
  5  6  1  0  0  0
  5 39  1  0  0  0
  5 40  1  0  0  0
  6 10  1  0  0  0
  6  7  2  0  0  0
  7  8  1  0  0  0
  7 33  1  0  0  0
  8  9  2  0  0  0
  8 41  1  0  0  0
  9 10  1  0  0  0
  9 11  1  0  0  0
 11 12  2  0  0  0
 11 13  1  0  0  0
 13 14  1  0  0  0
 13 42  1  0  0  0
 14 19  1  0  0  0
 14 15  1  0  0  0
 14 43  1  0  0  0
 15 16  1  0  0  0
 15 44  1  0  0  0
 15 45  1  0  0  0
 16 17  1  0  0  0
 16 46  1  0  0  0
 16 47  1  0  0  0
 17 18  1  0  0  0
 17 20  1  0  0  0
 18 19  1  0  0  0
 18 48  1  0  0  0
 18 49  1  0  0  0
 19 50  1  0  0  0
 19 51  1  0  0  0
 20 21  2  0  0  0
 20 22  2  0  0  0
 20 23  1  0  0  0
 23 28  2  0  0  0
 23 24  1  0  0  0
 24 25  2  0  0  0
 24 52  1  0  0  0
 25 26  1  0  0  0
 25 53  1  0  0  0
 26 27  2  0  0  0
 26 29  1  0  0  0
 27 28  1  0  0  0
 27 54  1  0  0  0
 28 55  1  0  0  0
 29 30  1  0  0  0
 29 56  1  0  0  0
 30 31  2  0  0  0
 30 32  1  0  0  0
 32 57  1  0  0  0
 32 58  1  0  0  0
 32 59  1  0  0  0
 33 60  1  0  0  0
 33 61  1  0  0  0
M  END
> <i_i_glide_confnum>
190

> <i_i_glide_lignum>
2450

> <i_i_glide_posenum>
333

> <i_i_glide_rotatable_bonds>
7

> <i_m_Source_File_Index>
4309

> <b_m_subgroup_collapsed>
0

> <r_i_docking_score>
-5.9855

> <r_i_glide_ecoul>
-5.01905

> <r_i_glide_eff_state_penalty>
0

> <r_i_glide_einternal>
3.90605

> <r_i_glide_emodel>
-63.4973

> <r_i_glide_energy>
-45.7367

> <r_i_glide_erotb>
0.536922

> <r_i_glide_esite>
-0.00577493

> <r_i_glide_evdw>
-40.7176

> <r_i_glide_gscore>
-5.9855

> <r_i_glide_hbond>
-0.380543

> <r_i_glide_ligand_efficiency>
-0.187047

> <r_i_glide_ligand_efficiency_ln>
-1.34032

> <r_i_glide_ligand_efficiency_sa>
-0.593836

> <r_i_glide_lipo>
-2.66318

> <r_i_glide_metal>
0

> <r_i_glide_rewards>
-0.684182

> <s_i_glide_gridfile>
wee1_glide-grid

> <s_m_Source_File>
wee1_decoys_glide_SP.sdf

> <s_m_Source_Path>
/Users/zhangxujun/Desktop

> <s_m_entry_id>
4584

> <s_m_entry_name>
wee1_decoys_glide_SP.4309

> <s_m_subgroup_title>
wee1_decoys_glide_SP

> <s_m_subgroupid>
wee1_decoys_glide_SP


$$$$
