ZINC33122631_2056
                    3D
 Schrodinger Suite 2024-2.
 50 52  0  0  1  0            999 V2000
   -7.4045   54.3889   26.4808 C   0  0  0  0  0  0
   -6.5547   53.3819   27.0126 O   0  0  0  0  0  0
   -5.4033   53.0372   26.3318 C   0  0  0  0  0  0
   -4.9533   53.6606   25.1577 C   0  0  0  0  0  0
   -3.7791   53.2317   24.5402 C   0  0  0  0  0  0
   -3.0499   52.1684   25.0878 C   0  0  0  0  0  0
   -3.4820   51.5672   26.2709 C   0  0  0  0  0  0
   -4.6557   51.9974   26.8814 C   0  0  0  0  0  0
   -1.8697   51.6544   24.5287 N   0  0  0  0  0  0
   -1.4730   51.6323   23.2352 C   0  0  0  0  0  0
   -2.0957   52.1928   22.3280 O   0  0  0  0  0  0
   -0.3948   50.8284   23.0058 N   0  0  0  0  0  0
    0.6864   50.6597   24.0170 C   0  0  0  0  0  0
    1.7690   51.7156   23.6958 C   0  0  0  0  0  0
    2.3271   51.3900   22.2929 C   0  0  0  0  0  0
    1.1917   51.5693   21.2688 C   0  0  0  0  0  0
    0.0419   50.5821   21.6072 C   0  0  0  0  0  0
    3.4777   52.2326   21.8717 N   0  0  0  0  0  0
    3.6301   53.9507   22.2218 S   0  0  0  0  0  0
    4.4671   54.4967   21.1500 O   0  0  0  0  0  0
    2.3007   54.4967   22.4968 O   0  0  0  0  0  0
    4.5773   54.0965   23.7342 C   0  0  0  0  0  0
    5.9656   54.2260   23.6674 C   0  0  0  0  0  0
    6.7046   54.3331   24.8403 C   0  0  0  0  0  0
    6.0605   54.2843   26.0739 C   0  0  0  0  0  0
    4.6731   54.1827   26.1452 C   0  0  0  0  0  0
    3.9271   54.0983   24.9728 C   0  0  0  0  0  0
    7.0884   54.3256   27.6748 Br  0  0  0  0  0  0
   -8.2952   54.4738   27.1028 H   0  0  0  0  0  0
   -7.7340   54.1509   25.4682 H   0  0  0  0  0  0
   -6.9087   55.3573   26.4819 H   0  0  0  0  0  0
   -5.5053   54.4697   24.7047 H   0  0  0  0  0  0
   -3.4508   53.7356   23.6442 H   0  0  0  0  0  0
   -2.9263   50.7542   26.7170 H   0  0  0  0  0  0
   -4.9907   51.5160   27.7888 H   0  0  0  0  0  0
   -1.3146   51.0999   25.1634 H   0  0  0  0  0  0
    0.3423   50.6660   25.0502 H   0  0  0  0  0  0
    1.0908   49.6540   23.8940 H   0  0  0  0  0  0
    1.3171   52.7040   23.7579 H   0  0  0  0  0  0
    2.5501   51.6966   24.4497 H   0  0  0  0  0  0
    2.6118   50.3374   22.2161 H   0  0  0  0  0  0
    1.5528   51.3722   20.2585 H   0  0  0  0  0  0
    0.8194   52.5963   21.2545 H   0  0  0  0  0  0
    0.4115   49.5572   21.5712 H   0  0  0  0  0  0
   -0.7869   50.5994   20.8965 H   0  0  0  0  0  0
    3.7790   52.0360   20.9129 H   0  0  0  0  0  0
    6.4741   54.2447   22.7143 H   0  0  0  0  0  0
    7.7764   54.4371   24.7873 H   0  0  0  0  0  0
    4.1786   54.1545   27.1043 H   0  0  0  0  0  0
    2.8515   54.0262   25.0302 H   0  0  0  0  0  0
  1  2  1  0  0  0
  1 29  1  0  0  0
  1 30  1  0  0  0
  1 31  1  0  0  0
  2  3  1  0  0  0
  3  8  2  0  0  0
  3  4  1  0  0  0
  4  5  2  0  0  0
  4 32  1  0  0  0
  5  6  1  0  0  0
  5 33  1  0  0  0
  6  7  2  0  0  0
  6  9  1  0  0  0
  7  8  1  0  0  0
  7 34  1  0  0  0
  8 35  1  0  0  0
  9 10  1  0  0  0
  9 36  1  0  0  0
 10 11  2  0  0  0
 10 12  1  0  0  0
 12 17  1  0  0  0
 12 13  1  0  0  0
 13 14  1  0  0  0
 13 37  1  0  0  0
 13 38  1  0  0  0
 14 15  1  0  0  0
 14 39  1  0  0  0
 14 40  1  0  0  0
 15 16  1  0  0  0
 15 18  1  0  0  0
 15 41  1  0  0  0
 16 17  1  0  0  0
 16 42  1  0  0  0
 16 43  1  0  0  0
 17 44  1  0  0  0
 17 45  1  0  0  0
 18 19  1  0  0  0
 18 46  1  0  0  0
 19 20  2  0  0  0
 19 21  2  0  0  0
 19 22  1  0  0  0
 22 27  2  0  0  0
 22 23  1  0  0  0
 23 24  2  0  0  0
 23 47  1  0  0  0
 24 25  1  0  0  0
 24 48  1  0  0  0
 25 26  2  0  0  0
 25 28  1  0  0  0
 26 27  1  0  0  0
 26 49  1  0  0  0
 27 50  1  0  0  0
M  END
> <i_i_glide_confnum>
17

> <i_i_glide_lignum>
2057

> <i_i_glide_posenum>
309

> <i_i_glide_rotatable_bonds>
7

> <i_m_Source_File_Index>
3789

> <b_m_subgroup_collapsed>
0

> <r_i_docking_score>
-4.40816

> <r_i_glide_ecoul>
-2.00094

> <r_i_glide_eff_state_penalty>
0

> <r_i_glide_einternal>
7.73486

> <r_i_glide_emodel>
-45.7814

> <r_i_glide_energy>
-37.9236

> <r_i_glide_erotb>
0.55221

> <r_i_glide_esite>
-0.015253

> <r_i_glide_evdw>
-35.9227

> <r_i_glide_gscore>
-4.40816

> <r_i_glide_hbond>
0

> <r_i_glide_ligand_efficiency>
-0.157434

> <r_i_glide_ligand_efficiency_ln>
-1.01753

> <r_i_glide_ligand_efficiency_sa>
-0.478063

> <r_i_glide_lipo>
-2.3578

> <r_i_glide_metal>
0

> <r_i_glide_rewards>
-0.491043

> <s_i_glide_gridfile>
wee1_glide-grid

> <s_m_Source_File>
wee1_decoys_glide_SP.sdf

> <s_m_Source_Path>
/Users/zhangxujun/Desktop

> <s_m_entry_id>
4064

> <s_m_entry_name>
wee1_decoys_glide_SP.3789

> <s_m_subgroup_title>
wee1_decoys_glide_SP

> <s_m_subgroupid>
wee1_decoys_glide_SP


$$$$
