ZINC14474067_2348
                    3D
 Schrodinger Suite 2024-2.
 58 62  0  0  1  0            999 V2000
    0.2301   56.2467   17.2667 C   0  0  0  0  0  0
   -0.8912   55.2418   17.0867 C   0  0  0  0  0  0
   -2.1021   55.6561   16.5278 C   0  0  0  0  0  0
   -3.1428   54.7436   16.3414 C   0  0  0  0  0  0
   -2.9734   53.4140   16.7342 C   0  0  0  0  0  0
   -1.7689   52.9928   17.2984 C   0  0  0  0  0  0
   -0.7245   53.9061   17.4678 C   0  0  0  0  0  0
   -1.6261   51.6540   17.6685 N   0  0  0  0  0  0
   -1.4794   51.1571   19.3564 S   0  0  0  0  0  0
   -2.2726   52.0967   20.1587 O   0  0  0  0  0  0
   -1.7492   49.7163   19.3817 O   0  0  0  0  0  0
    0.2468   51.3701   19.7594 C   0  0  0  0  0  0
    1.2040   50.6208   19.0781 C   0  0  0  0  0  0
    2.5553   50.8252   19.3360 C   0  0  0  0  0  0
    2.9659   51.7802   20.2657 C   0  0  0  0  0  0
    2.0025   52.5145   20.9949 C   0  0  0  0  0  0
    0.6478   52.2948   20.7245 C   0  0  0  0  0  0
    2.4796   53.5808   21.9900 C   0  0  1  0  0  0
    2.7044   54.4967   21.4553 H   0  0  0  0  0  0
    1.6913   53.8759   23.2577 C   0  0  0  0  0  0
    2.5363   54.1019   24.2842 C   0  0  0  0  0  0
    3.9785   53.8874   23.8608 C   0  0  0  0  0  0
    3.7675   53.0957   22.5750 C   0  0  2  0  0  0
    3.5044   52.0966   22.8817 H   0  0  0  0  0  0
    4.8739   52.8989   21.5091 C   0  0  1  0  0  0
    5.7029   52.3771   21.9890 H   0  0  0  0  0  0
    4.3561   51.9599   20.4821 N   0  0  0  0  0  0
    5.4703   54.2173   20.9742 C   0  0  0  0  0  0
    5.0601   54.7243   19.7313 C   0  0  0  0  0  0
    5.6648   55.8549   19.1848 C   0  0  0  0  0  0
    6.6922   56.4966   19.8710 C   0  0  0  0  0  0
    7.1024   56.0167   21.1136 C   0  0  0  0  0  0
    6.4900   54.8967   21.6735 C   0  0  0  0  0  0
    6.9631   54.4468   22.8818 O   0  0  0  0  0  0
   -4.4589   55.2020   15.7408 C   0  0  0  0  0  0
    1.1306   55.7927   17.6817 H   0  0  0  0  0  0
   -0.0957   57.0579   17.9194 H   0  0  0  0  0  0
    0.4905   56.6925   16.3062 H   0  0  0  0  0  0
   -2.2293   56.6871   16.2288 H   0  0  0  0  0  0
   -3.7780   52.7053   16.5987 H   0  0  0  0  0  0
    0.2128   53.5817   17.8981 H   0  0  0  0  0  0
   -1.5292   50.9500   16.9530 H   0  0  0  0  0  0
    0.9082   49.8925   18.3365 H   0  0  0  0  0  0
    3.2813   50.2393   18.7952 H   0  0  0  0  0  0
   -0.0938   52.8796   21.2472 H   0  0  0  0  0  0
    0.6181   53.9810   23.2817 H   0  0  0  0  0  0
    2.2678   54.3933   25.2886 H   0  0  0  0  0  0
    4.5471   53.3074   24.5885 H   0  0  0  0  0  0
    4.5023   54.8299   23.7056 H   0  0  0  0  0  0
    5.0233   51.5828   19.8170 H   0  0  0  0  0  0
    4.2771   54.2333   19.1708 H   0  0  0  0  0  0
    5.3444   56.2255   18.2217 H   0  0  0  0  0  0
    7.1718   57.3573   19.4279 H   0  0  0  0  0  0
    7.9152   56.4967   21.6372 H   0  0  0  0  0  0
    7.7665   54.8968   23.1669 H   0  0  0  0  0  0
   -5.2855   54.5685   16.0651 H   0  0  0  0  0  0
   -4.6980   56.2150   16.0671 H   0  0  0  0  0  0
   -4.4085   55.1923   14.6517 H   0  0  0  0  0  0
  1  2  1  0  0  0
  1 36  1  0  0  0
  1 37  1  0  0  0
  1 38  1  0  0  0
  2  7  2  0  0  0
  2  3  1  0  0  0
  3  4  2  0  0  0
  3 39  1  0  0  0
  4  5  1  0  0  0
  4 35  1  0  0  0
  5  6  2  0  0  0
  5 40  1  0  0  0
  6  7  1  0  0  0
  6  8  1  0  0  0
  7 41  1  0  0  0
  8  9  1  0  0  0
  8 42  1  0  0  0
  9 10  2  0  0  0
  9 11  2  0  0  0
  9 12  1  0  0  0
 12 17  2  0  0  0
 12 13  1  0  0  0
 13 14  2  0  0  0
 13 43  1  0  0  0
 14 15  1  0  0  0
 14 44  1  0  0  0
 15 27  1  0  0  0
 15 16  2  0  0  0
 16 17  1  0  0  0
 16 18  1  0  0  0
 17 45  1  0  0  0
 18 19  1  0  0  0
 18 23  1  0  0  0
 18 20  1  0  0  0
 20 21  2  0  0  0
 20 46  1  0  0  0
 21 22  1  0  0  0
 21 47  1  0  0  0
 22 23  1  0  0  0
 22 48  1  0  0  0
 22 49  1  0  0  0
 23 24  1  0  0  0
 23 25  1  0  0  0
 25 26  1  0  0  0
 25 27  1  0  0  0
 25 28  1  0  0  0
 27 50  1  0  0  0
 28 33  2  0  0  0
 28 29  1  0  0  0
 29 30  2  0  0  0
 29 51  1  0  0  0
 30 31  1  0  0  0
 30 52  1  0  0  0
 31 32  2  0  0  0
 31 53  1  0  0  0
 32 33  1  0  0  0
 32 54  1  0  0  0
 33 34  1  0  0  0
 34 55  1  0  0  0
 35 56  1  0  0  0
 35 57  1  0  0  0
 35 58  1  0  0  0
M  END
> <i_i_glide_confnum>
9

> <i_i_glide_lignum>
2349

> <i_i_glide_posenum>
96

> <i_i_glide_rotatable_bonds>
5

> <i_m_Source_File_Index>
2797

> <b_m_subgroup_collapsed>
0

> <r_i_docking_score>
-4.42278

> <r_i_glide_ecoul>
-9.34738

> <r_i_glide_eff_state_penalty>
0

> <r_i_glide_einternal>
5.39692

> <r_i_glide_emodel>
-43.2951

> <r_i_glide_energy>
-37.0922

> <r_i_glide_erotb>
0.401517

> <r_i_glide_esite>
-0.105252

> <r_i_glide_evdw>
-27.7449

> <r_i_glide_gscore>
-4.42278

> <r_i_glide_hbond>
-0.435345

> <r_i_glide_ligand_efficiency>
-0.138212

> <r_i_glide_ligand_efficiency_ln>
-0.990382

> <r_i_glide_ligand_efficiency_sa>
-0.438796

> <r_i_glide_lipo>
-1.78279

> <r_i_glide_metal>
0

> <r_i_glide_rewards>
0.288437

> <s_i_glide_gridfile>
wee1_glide-grid

> <s_m_Source_File>
wee1_decoys_glide_SP.sdf

> <s_m_Source_Path>
/Users/zhangxujun/Desktop

> <s_m_entry_id>
3072

> <s_m_entry_name>
wee1_decoys_glide_SP.2797

> <s_m_subgroup_title>
wee1_decoys_glide_SP

> <s_m_subgroupid>
wee1_decoys_glide_SP


$$$$
