ZINC33615453_3652
                    3D
 Schrodinger Suite 2024-2.
 48 48  0  0  1  0            999 V2000
    3.1041   46.1033   15.9336 C   0  0  0  0  0  0
    1.6241   46.5005   16.0254 C   0  0  0  0  0  0
    1.1607   46.8980   17.4439 C   0  0  2  0  0  0
    1.3880   46.0626   18.1104 H   0  0  0  0  0  0
   -0.3674   47.1151   17.4698 C   0  0  0  0  0  0
    1.8984   48.0664   17.9333 N   0  0  0  0  0  0
    1.8549   48.5787   19.1736 C   0  0  0  0  0  0
    1.1866   48.0801   20.0778 O   0  0  0  0  0  0
    2.6402   49.7871   19.2860 C   0  0  0  0  0  0
    2.8480   50.5542   20.3799 C   0  0  0  0  0  0
    3.6751   51.6704   20.2208 N   0  0  0  0  0  0
    3.4273   52.8841   20.8916 N   0  0  0  0  0  0
    4.2017   53.2257   21.9398 C   0  0  0  0  0  0
    5.3630   52.8320   22.0822 O   0  0  0  0  0  0
    3.5312   54.0960   23.0128 C   0  0  0  0  0  0
    4.5106   54.4944   23.9813 O   0  0  0  0  0  0
    4.2904   54.3767   25.3427 C   0  0  0  0  0  0
    3.0487   54.0899   25.9321 C   0  0  0  0  0  0
    2.9145   53.9787   27.3199 C   0  0  0  0  0  0
    4.0354   54.1647   28.1394 C   0  0  0  0  0  0
    5.2722   54.4549   27.5647 C   0  0  0  0  0  0
    5.3978   54.5583   26.1790 C   0  0  0  0  0  0
    7.1043   54.9533   25.4318 Br  0  0  0  0  0  0
    3.9045   54.0503   30.0401 Br  0  0  0  0  0  0
    1.5528   53.6486   27.9136 C   0  0  0  0  0  0
    2.3035   50.3367   21.7926 C   0  0  0  0  0  0
    3.3995   45.9430   14.8980 H   0  0  0  0  0  0
    3.3017   45.1829   16.4815 H   0  0  0  0  0  0
    3.7485   46.8818   16.3408 H   0  0  0  0  0  0
    1.4447   47.3332   15.3429 H   0  0  0  0  0  0
    1.0214   45.6699   15.6557 H   0  0  0  0  0  0
   -0.8888   46.2582   17.0430 H   0  0  0  0  0  0
   -0.7461   47.2348   18.4850 H   0  0  0  0  0  0
   -0.6567   47.9855   16.8798 H   0  0  0  0  0  0
    2.5658   48.4862   17.2894 H   0  0  0  0  0  0
    3.1044   50.0984   18.3616 H   0  0  0  0  0  0
    4.0087   51.8601   19.2814 H   0  0  0  0  0  0
    2.4837   53.2269   20.7669 H   0  0  0  0  0  0
    3.1052   54.9846   22.5494 H   0  0  0  0  0  0
    2.7200   53.4935   23.4160 H   0  0  0  0  0  0
    2.1616   53.9679   25.3330 H   0  0  0  0  0  0
    6.1363   54.6051   28.1968 H   0  0  0  0  0  0
    1.1382   54.5179   28.4255 H   0  0  0  0  0  0
    0.8453   53.3058   27.1579 H   0  0  0  0  0  0
    1.6433   52.8437   28.6441 H   0  0  0  0  0  0
    1.7432   49.4179   21.9308 H   0  0  0  0  0  0
    3.1301   50.2949   22.4959 H   0  0  0  0  0  0
    1.6491   51.1580   22.0831 H   0  0  0  0  0  0
  1  2  1  0  0  0
  1 27  1  0  0  0
  1 28  1  0  0  0
  1 29  1  0  0  0
  2  3  1  0  0  0
  2 30  1  0  0  0
  2 31  1  0  0  0
  3  4  1  0  0  0
  3  5  1  0  0  0
  3  6  1  0  0  0
  5 32  1  0  0  0
  5 33  1  0  0  0
  5 34  1  0  0  0
  6 35  1  0  0  0
  6  7  1  0  0  0
  7  8  2  0  0  0
  7  9  1  0  0  0
  9 36  1  0  0  0
  9 10  2  0  0  0
 10 26  1  0  0  0
 10 11  1  0  0  0
 11 12  1  0  0  0
 11 37  1  0  0  0
 12 13  1  0  0  0
 12 38  1  0  0  0
 13 14  2  0  0  0
 13 15  1  0  0  0
 15 16  1  0  0  0
 15 39  1  0  0  0
 15 40  1  0  0  0
 16 17  1  0  0  0
 17 22  2  0  0  0
 17 18  1  0  0  0
 18 19  2  0  0  0
 18 41  1  0  0  0
 19 20  1  0  0  0
 19 25  1  0  0  0
 20 21  2  0  0  0
 20 24  1  0  0  0
 21 22  1  0  0  0
 21 42  1  0  0  0
 22 23  1  0  0  0
 25 43  1  0  0  0
 25 44  1  0  0  0
 25 45  1  0  0  0
 26 46  1  0  0  0
 26 47  1  0  0  0
 26 48  1  0  0  0
M  END
> <i_i_glide_confnum>
298

> <i_i_glide_lignum>
3653

> <i_i_glide_posenum>
314

> <i_i_glide_rotatable_bonds>
10

> <i_m_Source_File_Index>
5515

> <b_m_subgroup_collapsed>
0

> <r_i_docking_score>
-5.38714

> <r_i_glide_ecoul>
-9.46081

> <r_i_glide_eff_state_penalty>
0

> <r_i_glide_einternal>
7.02175

> <r_i_glide_emodel>
-59.3923

> <r_i_glide_energy>
-46.6439

> <r_i_glide_erotb>
0.800566

> <r_i_glide_esite>
-0.21278

> <r_i_glide_evdw>
-37.1831

> <r_i_glide_gscore>
-5.38714

> <r_i_glide_hbond>
-0.209125

> <r_i_glide_ligand_efficiency>
-0.215486

> <r_i_glide_ligand_efficiency_ln>
-1.27691

> <r_i_glide_ligand_efficiency_sa>
-0.630084

> <r_i_glide_lipo>
-2.05669

> <r_i_glide_metal>
0

> <r_i_glide_rewards>
-0.430841

> <s_i_glide_gridfile>
wee1_glide-grid

> <s_m_Source_File>
wee1_decoys_glide_SP.sdf

> <s_m_Source_Path>
/Users/zhangxujun/Desktop

> <s_m_entry_id>
5790

> <s_m_entry_name>
wee1_decoys_glide_SP.5515

> <s_m_subgroup_title>
wee1_decoys_glide_SP

> <s_m_subgroupid>
wee1_decoys_glide_SP


$$$$
