ZINC39676573_5549
                    3D
 Schrodinger Suite 2024-2.
 73 77  0  0  1  0            999 V2000
    0.6458   52.8865   31.9493 C   0  0  0  0  0  0
    1.4102   53.2345   30.7976 O   0  0  0  0  0  0
    0.9644   52.8304   29.5546 C   0  0  0  0  0  0
   -0.1965   52.0729   29.3421 C   0  0  0  0  0  0
   -0.5600   51.6960   28.0539 C   0  0  0  0  0  0
    0.2129   52.0637   26.9433 C   0  0  0  0  0  0
    1.3723   52.8249   27.1675 C   0  0  0  0  0  0
    1.7386   53.2011   28.4584 C   0  0  0  0  0  0
   -0.2213   51.6262   25.5224 C   0  0  0  0  0  0
   -1.7454   51.7104   25.2936 C   0  0  0  0  0  0
   -2.5531   50.6070   25.5828 C   0  0  0  0  0  0
   -3.9269   50.6613   25.3529 C   0  0  0  0  0  0
   -4.5070   51.8171   24.8087 C   0  0  0  0  0  0
   -3.6940   52.9045   24.4973 C   0  0  0  0  0  0
   -2.3242   52.8517   24.7294 C   0  0  0  0  0  0
   -5.8544   51.9649   24.5419 O   0  0  0  0  0  0
   -6.7418   50.8926   24.8396 C   0  0  0  0  0  0
    0.5819   52.2477   24.4522 N   0  0  0  0  0  0
    0.5128   52.0268   23.1226 C   0  0  0  0  0  0
   -0.3255   51.2728   22.6272 O   0  0  0  0  0  0
    1.4930   52.8008   22.1950 C   0  0  1  0  0  0
    0.9614   53.6978   21.8972 H   0  0  0  0  0  0
    2.7345   53.2637   22.9822 C   0  0  0  0  0  0
    3.7629   53.4479   21.9591 N   0  0  0  0  0  0
    3.3390   52.8833   20.6712 C   0  0  0  0  0  0
    2.0289   52.0796   20.9257 C   0  0  0  0  0  0
    2.3099   50.5604   21.1439 C   0  0  0  0  0  0
    2.9572   49.9041   19.9096 C   0  0  0  0  0  0
    2.1187   50.1520   18.6345 N   0  3  0  0  0  0
    1.6887   51.6237   18.4323 C   0  0  0  0  0  0
    1.0298   52.1153   19.7379 C   0  0  0  0  0  0
    4.8868   54.1669   22.2557 C   0  0  0  0  0  0
    5.1316   54.4721   23.4278 O   0  0  0  0  0  0
    5.8554   54.6589   21.1812 C   0  0  0  0  0  0
    7.0546   55.2968   21.5579 C   0  0  0  0  0  0
    7.9626   55.6967   20.5757 C   0  0  0  0  0  0
    7.6544   55.4920   19.2337 C   0  0  0  0  0  0
    6.4404   54.8876   18.9160 C   0  0  0  0  0  0
    5.5575   54.4791   19.8614 N   0  0  0  0  0  0
    1.1033   53.2912   32.8481 H   0  0  0  0  0  0
    0.5901   51.8047   32.0779 H   0  0  0  0  0  0
   -0.3630   53.2967   31.8944 H   0  0  0  0  0  0
   -0.8188   51.7487   30.1655 H   0  0  0  0  0  0
   -1.4447   51.0860   27.9409 H   0  0  0  0  0  0
    2.0174   53.1270   26.3585 H   0  0  0  0  0  0
    2.6370   53.7795   28.6118 H   0  0  0  0  0  0
    0.0455   50.5669   25.4832 H   0  0  0  0  0  0
   -2.1235   49.7080   26.0043 H   0  0  0  0  0  0
   -4.5206   49.7950   25.5994 H   0  0  0  0  0  0
   -4.1287   53.7974   24.0721 H   0  0  0  0  0  0
   -1.7076   53.6963   24.4607 H   0  0  0  0  0  0
   -7.7559   51.1782   24.5592 H   0  0  0  0  0  0
   -6.4888   49.9912   24.2804 H   0  0  0  0  0  0
   -6.7472   50.6667   25.9078 H   0  0  0  0  0  0
    1.3395   52.8276   24.7782 H   0  0  0  0  0  0
    2.5144   54.1852   23.5214 H   0  0  0  0  0  0
    3.1041   52.4940   23.6520 H   0  0  0  0  0  0
    4.1105   52.3432   20.1212 H   0  0  0  0  0  0
    3.0811   53.7407   20.0512 H   0  0  0  0  0  0
    2.9929   50.4366   21.9845 H   0  0  0  0  0  0
    1.4157   50.0011   21.4171 H   0  0  0  0  0  0
    3.9142   50.3385   19.6817 H   0  0  0  0  0  0
    3.0637   48.8228   19.9970 H   0  0  0  0  0  0
    2.6633   49.8411   17.8297 H   0  0  0  0  0  0
    2.5917   52.1734   18.1586 H   0  0  0  0  0  0
    1.0039   51.6276   17.5842 H   0  0  0  0  0  0
    0.1112   51.5728   19.9638 H   0  0  0  0  0  0
    0.7138   53.1439   19.5580 H   0  0  0  0  0  0
    7.3121   55.4481   22.5986 H   0  0  0  0  0  0
    8.9078   56.1439   20.8533 H   0  0  0  0  0  0
    8.3445   55.7901   18.4572 H   0  0  0  0  0  0
    6.1623   54.7112   17.8886 H   0  0  0  0  0  0
    1.2931   49.5702   18.6667 H   0  0  0  0  0  0
  1  2  1  0  0  0
  1 40  1  0  0  0
  1 41  1  0  0  0
  1 42  1  0  0  0
  2  3  1  0  0  0
  3  8  2  0  0  0
  3  4  1  0  0  0
  4  5  2  0  0  0
  4 43  1  0  0  0
  5  6  1  0  0  0
  5 44  1  0  0  0
  6  7  2  0  0  0
  6  9  1  0  0  0
  7  8  1  0  0  0
  7 45  1  0  0  0
  8 46  1  0  0  0
  9 10  1  0  0  0
  9 18  1  0  0  0
  9 47  1  0  0  0
 10 15  2  0  0  0
 10 11  1  0  0  0
 11 12  2  0  0  0
 11 48  1  0  0  0
 12 13  1  0  0  0
 12 49  1  0  0  0
 13 14  2  0  0  0
 13 16  1  0  0  0
 14 15  1  0  0  0
 14 50  1  0  0  0
 15 51  1  0  0  0
 16 17  1  0  0  0
 17 52  1  0  0  0
 17 53  1  0  0  0
 17 54  1  0  0  0
 18 19  1  0  0  0
 18 55  1  0  0  0
 19 20  2  0  0  0
 19 21  1  0  0  0
 21 22  1  0  0  0
 21 26  1  0  0  0
 21 23  1  0  0  0
 23 24  1  0  0  0
 23 56  1  0  0  0
 23 57  1  0  0  0
 24 25  1  0  0  0
 24 32  1  0  0  0
 25 26  1  0  0  0
 25 58  1  0  0  0
 25 59  1  0  0  0
 26 31  1  0  0  0
 26 27  1  0  0  0
 27 28  1  0  0  0
 27 60  1  0  0  0
 27 61  1  0  0  0
 28 29  1  0  0  0
 28 62  1  0  0  0
 28 63  1  0  0  0
 29 30  1  0  0  0
 29 64  1  0  0  0
 29 73  1  0  0  0
 30 31  1  0  0  0
 30 65  1  0  0  0
 30 66  1  0  0  0
 31 67  1  0  0  0
 31 68  1  0  0  0
 32 33  2  0  0  0
 32 34  1  0  0  0
 34 39  2  0  0  0
 34 35  1  0  0  0
 35 36  2  0  0  0
 35 69  1  0  0  0
 36 37  1  0  0  0
 36 70  1  0  0  0
 37 38  2  0  0  0
 37 71  1  0  0  0
 38 39  1  0  0  0
 38 72  1  0  0  0
M  CHG  1  29   1
M  END
> <i_i_glide_confnum>
293

> <i_i_glide_lignum>
5550

> <i_i_glide_posenum>
339

> <i_i_glide_rotatable_bonds>
9

> <i_m_Source_File_Index>
4347

> <b_m_subgroup_collapsed>
0

> <r_i_docking_score>
-5.2865

> <r_i_glide_ecoul>
-7.77525

> <r_i_glide_eff_state_penalty>
0

> <r_i_glide_einternal>
12.2642

> <r_i_glide_emodel>
-62.119

> <r_i_glide_energy>
-49.5533

> <r_i_glide_erotb>
0.540277

> <r_i_glide_esite>
-0.0960402

> <r_i_glide_evdw>
-41.7781

> <r_i_glide_gscore>
-5.2865

> <r_i_glide_hbond>
-0.264448

> <r_i_glide_ligand_efficiency>
-0.139118

> <r_i_glide_ligand_efficiency_ln>
-1.13992

> <r_i_glide_ligand_efficiency_sa>
-0.467712

> <r_i_glide_lipo>
-1.69944

> <r_i_glide_metal>
0

> <r_i_glide_rewards>
-0.511655

> <s_i_glide_gridfile>
wee1_glide-grid

> <s_m_Source_File>
wee1_decoys_glide_SP.sdf

> <s_m_Source_Path>
/Users/zhangxujun/Desktop

> <s_m_entry_id>
4622

> <s_m_entry_name>
wee1_decoys_glide_SP.4347

> <s_m_subgroup_title>
wee1_decoys_glide_SP

> <s_m_subgroupid>
wee1_decoys_glide_SP


$$$$
