ZINC21625779_3971
                    3D
 Schrodinger Suite 2024-2.
 67 70  0  0  1  0            999 V2000
    2.5957   52.9692   28.4389 C   0  0  0  0  0  0
    1.2923   52.4265   27.8849 C   0  0  0  0  0  0
    0.2972   51.9726   28.7475 C   0  0  0  0  0  0
   -0.8824   51.4486   28.2280 C   0  0  0  0  0  0
   -1.1051   51.4011   26.8420 C   0  0  0  0  0  0
   -0.0839   51.8458   25.9875 C   0  0  0  0  0  0
    1.1024   52.3544   26.5050 C   0  0  0  0  0  0
   -2.4063   50.7627   26.2917 C   0  0  1  0  0  0
   -2.8031   51.1564   24.8683 C   0  0  0  0  0  0
   -3.2230   52.2624   24.5182 O   0  0  0  0  0  0
   -2.6915   50.0381   24.1173 N   0  0  0  0  0  0
   -2.2480   48.9544   24.8148 C   0  0  0  0  0  0
   -1.7821   47.9082   24.3661 O   0  0  0  0  0  0
   -2.1695   49.3649   26.0807 N   0  0  0  0  0  0
   -3.2613   49.9651   22.7476 C   0  0  0  0  0  0
   -2.1910   49.5272   21.7183 C   0  0  0  0  0  0
   -2.3954   48.4529   21.1541 O   0  0  0  0  0  0
   -1.0870   50.2989   21.4968 N   0  0  0  0  0  0
   -1.1042   51.7201   21.8977 C   0  0  0  0  0  0
    0.2612   49.7281   21.1660 C   0  0  1  0  0  0
    0.6547   49.4227   22.1380 H   0  0  0  0  0  0
    0.3052   48.4182   20.3309 C   0  0  0  0  0  0
    1.2926   50.7453   20.6489 C   0  0  0  0  0  0
    1.6266   50.8500   19.2921 C   0  0  0  0  0  0
    2.6409   51.7134   18.8808 C   0  0  0  0  0  0
    3.3247   52.4919   19.8147 C   0  0  0  0  0  0
    2.9899   52.4136   21.1675 C   0  0  0  0  0  0
    1.9929   51.5201   21.5792 C   0  0  0  0  0  0
    3.7365   53.1718   22.0794 N   0  0  0  0  0  0
    3.3041   53.6980   23.2461 C   0  0  0  0  0  0
    2.1118   53.7941   23.5444 O   0  0  0  0  0  0
    4.3793   54.1337   24.2233 C   0  0  0  0  0  0
    4.0202   54.4996   25.5296 C   0  0  0  0  0  0
    4.9903   54.8352   26.4696 C   0  0  0  0  0  0
    6.3310   54.8368   26.1074 C   0  0  0  0  0  0
    6.7065   54.4987   24.8116 C   0  0  0  0  0  0
    5.7422   54.1482   23.8733 C   0  0  0  0  0  0
   -3.6461   50.9462   27.2141 C   0  0  0  0  0  0
    3.4419   52.5193   27.9202 H   0  0  0  0  0  0
    2.7156   52.7532   29.5002 H   0  0  0  0  0  0
    2.6482   54.0471   28.2892 H   0  0  0  0  0  0
    0.4343   52.0013   29.8179 H   0  0  0  0  0  0
   -1.6108   51.0720   28.9271 H   0  0  0  0  0  0
   -0.1855   51.7791   24.9154 H   0  0  0  0  0  0
    1.8813   52.6612   25.8271 H   0  0  0  0  0  0
   -2.1216   48.7291   26.8753 H   0  0  0  0  0  0
   -4.0674   49.2276   22.7431 H   0  0  0  0  0  0
   -3.7251   50.9018   22.4341 H   0  0  0  0  0  0
   -0.5152   51.8815   22.7982 H   0  0  0  0  0  0
   -0.6785   52.3367   21.1053 H   0  0  0  0  0  0
   -2.1005   52.1199   22.0772 H   0  0  0  0  0  0
    1.3325   48.1282   20.1097 H   0  0  0  0  0  0
   -0.1301   47.5767   20.8673 H   0  0  0  0  0  0
   -0.2255   48.5258   19.3837 H   0  0  0  0  0  0
    1.1252   50.2499   18.5471 H   0  0  0  0  0  0
    2.9115   51.7656   17.8355 H   0  0  0  0  0  0
    4.1140   53.1508   19.4789 H   0  0  0  0  0  0
    1.7682   51.4107   22.6291 H   0  0  0  0  0  0
    4.7078   53.2951   21.8435 H   0  0  0  0  0  0
    2.9849   54.5160   25.8364 H   0  0  0  0  0  0
    4.7031   55.1043   27.4744 H   0  0  0  0  0  0
    7.0815   55.0954   26.8407 H   0  0  0  0  0  0
    7.7486   54.4959   24.5307 H   0  0  0  0  0  0
    6.0813   53.8815   22.8842 H   0  0  0  0  0  0
   -3.8169   51.9979   27.4522 H   0  0  0  0  0  0
   -4.5649   50.5658   26.7627 H   0  0  0  0  0  0
   -3.5326   50.4076   28.1576 H   0  0  0  0  0  0
  1  2  1  0  0  0
  1 39  1  0  0  0
  1 40  1  0  0  0
  1 41  1  0  0  0
  2  7  2  0  0  0
  2  3  1  0  0  0
  3  4  2  0  0  0
  3 42  1  0  0  0
  4  5  1  0  0  0
  4 43  1  0  0  0
  5  6  2  0  0  0
  5  8  1  0  0  0
  6  7  1  0  0  0
  6 44  1  0  0  0
  7 45  1  0  0  0
  8 14  1  0  0  0
  8  9  1  0  0  0
  8 38  1  0  0  0
  9 10  2  0  0  0
  9 11  1  0  0  0
 11 12  1  0  0  0
 11 15  1  0  0  0
 12 13  2  0  0  0
 12 14  1  0  0  0
 14 46  1  0  0  0
 15 16  1  0  0  0
 15 47  1  0  0  0
 15 48  1  0  0  0
 16 17  2  0  0  0
 16 18  1  0  0  0
 18 19  1  0  0  0
 18 20  1  0  0  0
 19 49  1  0  0  0
 19 50  1  0  0  0
 19 51  1  0  0  0
 20 21  1  0  0  0
 20 22  1  0  0  0
 20 23  1  0  0  0
 22 52  1  0  0  0
 22 53  1  0  0  0
 22 54  1  0  0  0
 23 28  2  0  0  0
 23 24  1  0  0  0
 24 25  2  0  0  0
 24 55  1  0  0  0
 25 26  1  0  0  0
 25 56  1  0  0  0
 26 27  2  0  0  0
 26 57  1  0  0  0
 27 28  1  0  0  0
 27 29  1  0  0  0
 28 58  1  0  0  0
 29 30  1  0  0  0
 29 59  1  0  0  0
 30 31  2  0  0  0
 30 32  1  0  0  0
 32 37  2  0  0  0
 32 33  1  0  0  0
 33 34  2  0  0  0
 33 60  1  0  0  0
 34 35  1  0  0  0
 34 61  1  0  0  0
 35 36  2  0  0  0
 35 62  1  0  0  0
 36 37  1  0  0  0
 36 63  1  0  0  0
 37 64  1  0  0  0
 38 65  1  0  0  0
 38 66  1  0  0  0
 38 67  1  0  0  0
M  END
> <i_i_glide_confnum>
123

> <i_i_glide_lignum>
3972

> <i_i_glide_posenum>
21

> <i_i_glide_rotatable_bonds>
9

> <i_m_Source_File_Index>
334

> <b_m_subgroup_collapsed>
0

> <r_i_docking_score>
-4.33919

> <r_i_glide_ecoul>
-2.97753

> <r_i_glide_eff_state_penalty>
0

> <r_i_glide_einternal>
15.6443

> <r_i_glide_emodel>
-49.0601

> <r_i_glide_energy>
-44.3526

> <r_i_glide_erotb>
0.738861

> <r_i_glide_esite>
-0.151477

> <r_i_glide_evdw>
-41.375

> <r_i_glide_gscore>
-4.33919

> <r_i_glide_hbond>
-0.159046

> <r_i_glide_ligand_efficiency>
-0.117275

> <r_i_glide_ligand_efficiency_ln>
-0.941068

> <r_i_glide_ligand_efficiency_sa>
-0.390787

> <r_i_glide_lipo>
-2.24061

> <r_i_glide_metal>
0

> <r_i_glide_rewards>
-0.011531

> <s_i_glide_gridfile>
wee1_glide-grid

> <s_m_Source_File>
wee1_decoys_glide_SP.sdf

> <s_m_Source_Path>
/Users/zhangxujun/Desktop

> <s_m_entry_id>
609

> <s_m_entry_name>
wee1_decoys_glide_SP.334

> <s_m_subgroup_title>
wee1_decoys_glide_SP

> <s_m_subgroupid>
wee1_decoys_glide_SP


$$$$
