ZINC09696099_4264
                    3D
 Schrodinger Suite 2024-2.
 41 42  0  0  1  0            999 V2000
    5.7134   54.8696   18.9551 C   0  0  0  0  0  0
    5.9044   54.8273   20.4592 C   0  0  0  0  0  0
    6.9505   55.5313   21.0554 C   0  0  0  0  0  0
    7.1031   55.5060   22.4394 C   0  0  0  0  0  0
    6.2209   54.7747   23.2494 C   0  0  0  0  0  0
    5.1825   54.0564   22.6291 C   0  0  0  0  0  0
    5.0238   54.0885   21.2467 C   0  0  0  0  0  0
    6.3339   54.8542   24.7615 C   0  0  0  0  0  0
    7.0578   55.6966   25.2947 O   0  0  0  0  0  0
    5.6074   53.9561   25.4543 N   0  0  0  0  0  0
    5.5165   54.0654   26.8476 N   0  0  0  0  0  0
    4.3072   53.9570   27.4801 C   0  0  0  0  0  0
    4.3045   54.0967   29.1424 S   0  0  0  0  0  0
    3.2191   53.6752   26.6856 N   0  0  0  0  0  0
    1.8912   53.5686   26.9392 C   0  0  0  0  0  0
    1.3240   53.9997   27.9462 O   0  0  0  0  0  0
    1.1050   52.8968   25.8325 C   0  0  0  0  0  0
    1.4519   53.1407   24.4926 C   0  0  0  0  0  0
    0.7387   52.5590   23.4523 C   0  0  0  0  0  0
   -0.3503   51.7429   23.7267 C   0  0  0  0  0  0
   -0.7244   51.5076   25.0465 C   0  0  0  0  0  0
   -0.0081   52.0759   26.1173 C   0  0  0  0  0  0
   -0.3432   51.8471   27.4411 O   0  0  0  0  0  0
   -1.5063   51.0896   27.7564 C   0  0  0  0  0  0
    1.2587   52.8894   21.6572 Br  0  0  0  0  0  0
    6.1484   53.9847   18.4885 H   0  0  0  0  0  0
    4.6514   54.8968   18.7066 H   0  0  0  0  0  0
    6.1611   55.7635   18.5185 H   0  0  0  0  0  0
    7.6424   56.0981   20.4503 H   0  0  0  0  0  0
    7.9026   56.0883   22.8778 H   0  0  0  0  0  0
    4.4621   53.4881   23.1985 H   0  0  0  0  0  0
    4.2098   53.5460   20.7875 H   0  0  0  0  0  0
    5.5092   53.0040   25.1313 H   0  0  0  0  0  0
    6.3162   53.6361   27.2932 H   0  0  0  0  0  0
    3.4659   53.3428   25.7681 H   0  0  0  0  0  0
    2.2710   53.7958   24.2341 H   0  0  0  0  0  0
   -0.9067   51.2920   22.9185 H   0  0  0  0  0  0
   -1.5772   50.8685   25.2159 H   0  0  0  0  0  0
   -1.5584   50.9314   28.8346 H   0  0  0  0  0  0
   -2.4127   51.6141   27.4516 H   0  0  0  0  0  0
   -1.4870   50.1101   27.2810 H   0  0  0  0  0  0
  1  2  1  0  0  0
  1 26  1  0  0  0
  1 27  1  0  0  0
  1 28  1  0  0  0
  2  7  2  0  0  0
  2  3  1  0  0  0
  3  4  2  0  0  0
  3 29  1  0  0  0
  4  5  1  0  0  0
  4 30  1  0  0  0
  5  6  2  0  0  0
  5  8  1  0  0  0
  6  7  1  0  0  0
  6 31  1  0  0  0
  7 32  1  0  0  0
  8  9  2  0  0  0
  8 10  1  0  0  0
 10 11  1  0  0  0
 10 33  1  0  0  0
 11 12  1  0  0  0
 11 34  1  0  0  0
 12 13  2  0  0  0
 12 14  1  0  0  0
 14 15  1  0  0  0
 14 35  1  0  0  0
 15 16  2  0  0  0
 15 17  1  0  0  0
 17 22  2  0  0  0
 17 18  1  0  0  0
 18 19  2  0  0  0
 18 36  1  0  0  0
 19 20  1  0  0  0
 19 25  1  0  0  0
 20 21  2  0  0  0
 20 37  1  0  0  0
 21 22  1  0  0  0
 21 38  1  0  0  0
 22 23  1  0  0  0
 23 24  1  0  0  0
 24 39  1  0  0  0
 24 40  1  0  0  0
 24 41  1  0  0  0
M  END
> <i_i_glide_confnum>
38

> <i_i_glide_lignum>
4265

> <i_i_glide_posenum>
335

> <i_i_glide_rotatable_bonds>
8

> <i_m_Source_File_Index>
4957

> <b_m_subgroup_collapsed>
0

> <r_i_docking_score>
-5.94527

> <r_i_glide_ecoul>
-7.20955

> <r_i_glide_eff_state_penalty>
0

> <r_i_glide_einternal>
6.13854

> <r_i_glide_emodel>
-62.2478

> <r_i_glide_energy>
-45.1587

> <r_i_glide_erotb>
0.77755

> <r_i_glide_esite>
0

> <r_i_glide_evdw>
-37.9491

> <r_i_glide_gscore>
-5.94527

> <r_i_glide_hbond>
-0.32

> <r_i_glide_ligand_efficiency>
-0.237811

> <r_i_glide_ligand_efficiency_ln>
-1.40921

> <r_i_glide_ligand_efficiency_sa>
-0.695363

> <r_i_glide_lipo>
-1.5528

> <r_i_glide_metal>
0

> <r_i_glide_rewards>
-1.87114

> <s_i_glide_gridfile>
wee1_glide-grid

> <s_m_Source_File>
wee1_decoys_glide_SP.sdf

> <s_m_Source_Path>
/Users/zhangxujun/Desktop

> <s_m_entry_id>
5232

> <s_m_entry_name>
wee1_decoys_glide_SP.4957

> <s_m_subgroup_title>
wee1_decoys_glide_SP

> <s_m_subgroupid>
wee1_decoys_glide_SP


$$$$
