ZINC39592670_492
                    3D
 Schrodinger Suite 2024-2.
 47 50  0  0  1  0            999 V2000
    4.2168   54.2590   24.1049 C   0  0  0  0  0  0
    3.8645   54.0953   25.4430 C   0  0  0  0  0  0
    4.8479   54.1332   26.4266 C   0  0  0  0  0  0
    6.1800   54.3394   26.0814 C   0  0  0  0  0  0
    6.5253   54.5182   24.7431 C   0  0  0  0  0  0
    5.5493   54.4967   23.7353 C   0  0  0  0  0  0
    5.9046   54.7601   22.3112 C   0  0  0  0  0  0
    5.1155   54.6345   21.2387 C   0  0  0  0  0  0
    5.9369   55.1921   20.1104 C   0  0  1  0  0  0
    5.4824   56.1070   19.7241 H   0  0  0  0  0  0
    7.1711   55.5541   20.7576 N   0  0  0  0  0  0
    7.1054   55.2970   22.0007 N   0  0  0  0  0  0
    6.1495   54.2091   18.9246 C   0  0  2  0  0  0
    6.6098   53.2851   19.2812 H   0  0  0  0  0  0
    7.0444   54.7432   17.9299 N   0  0  0  0  0  0
    6.5884   54.5171   16.7681 N   0  0  0  0  0  0
    5.3296   53.8285   16.8413 C   0  0  1  0  0  0
    5.5051   52.7997   16.5128 H   0  0  0  0  0  0
    4.9240   53.8915   18.2260 N   0  0  0  0  0  0
    4.0840   52.8565   18.7602 N   0  0  0  0  0  0
    4.1253   54.5882   15.7093 S   0  0  0  0  0  0
    3.0323   53.1818   15.3271 C   0  0  0  0  0  0
    3.5407   52.3334   14.1594 C   0  0  0  0  0  0
    3.5288   52.8117   13.0215 O   0  0  0  0  0  0
    3.9755   51.0901   14.4411 N   0  0  0  0  0  0
    4.4002   50.1806   13.4655 C   0  0  0  0  0  0
    5.7707   49.9749   13.2820 C   0  0  0  0  0  0
    6.2206   49.0041   12.3901 C   0  0  0  0  0  0
    5.3004   48.2495   11.6660 C   0  0  0  0  0  0
    3.9310   48.4712   11.8227 C   0  0  0  0  0  0
    3.4747   49.4324   12.7252 C   0  0  0  0  0  0
    2.1444   49.6124   12.8889 F   0  0  0  0  0  0
    5.9120   46.8972   10.4813 Br  0  0  0  0  0  0
    4.5068   53.9651   27.7247 F   0  0  0  0  0  0
    3.4384   54.2340   23.3580 H   0  0  0  0  0  0
    2.8335   53.9313   25.7197 H   0  0  0  0  0  0
    6.9350   54.3550   26.8517 H   0  0  0  0  0  0
    7.5556   54.6922   24.4877 H   0  0  0  0  0  0
    4.1004   54.2774   21.1461 H   0  0  0  0  0  0
    3.1623   52.9706   18.3602 H   0  0  0  0  0  0
    4.4818   51.9540   18.4863 H   0  0  0  0  0  0
    2.8628   52.5752   16.2189 H   0  0  0  0  0  0
    2.0624   53.5875   15.0349 H   0  0  0  0  0  0
    3.9056   50.7181   15.3861 H   0  0  0  0  0  0
    6.4872   50.5456   13.8520 H   0  0  0  0  0  0
    7.2793   48.8304   12.2731 H   0  0  0  0  0  0
    3.2169   47.8889   11.2561 H   0  0  0  0  0  0
  1  6  2  0  0  0
  1  2  1  0  0  0
  1 35  1  0  0  0
  2  3  2  0  0  0
  2 36  1  0  0  0
  3  4  1  0  0  0
  3 34  1  0  0  0
  4  5  2  0  0  0
  4 37  1  0  0  0
  5  6  1  0  0  0
  5 38  1  0  0  0
  6  7  1  0  0  0
  7 12  1  0  0  0
  7  8  2  0  0  0
  8  9  1  0  0  0
  8 39  1  0  0  0
  9 10  1  0  0  0
  9 11  1  0  0  0
  9 13  1  0  0  0
 11 12  2  0  0  0
 13 14  1  0  0  0
 13 19  1  0  0  0
 13 15  1  0  0  0
 15 16  2  0  0  0
 16 17  1  0  0  0
 17 18  1  0  0  0
 17 19  1  0  0  0
 17 21  1  0  0  0
 19 20  1  0  0  0
 20 40  1  0  0  0
 20 41  1  0  0  0
 21 22  1  0  0  0
 22 23  1  0  0  0
 22 42  1  0  0  0
 22 43  1  0  0  0
 23 24  2  0  0  0
 23 25  1  0  0  0
 25 26  1  0  0  0
 25 44  1  0  0  0
 26 31  2  0  0  0
 26 27  1  0  0  0
 27 28  2  0  0  0
 27 45  1  0  0  0
 28 29  1  0  0  0
 28 46  1  0  0  0
 29 30  2  0  0  0
 29 33  1  0  0  0
 30 31  1  0  0  0
 30 47  1  0  0  0
 31 32  1  0  0  0
M  END
> <i_i_glide_confnum>
37

> <i_i_glide_lignum>
493

> <i_i_glide_posenum>
234

> <i_i_glide_rotatable_bonds>
7

> <i_m_Source_File_Index>
892

> <b_m_subgroup_collapsed>
0

> <r_i_docking_score>
-5.05242

> <r_i_glide_ecoul>
-5.96688

> <r_i_glide_eff_state_penalty>
0

> <r_i_glide_einternal>
5.6723

> <r_i_glide_emodel>
-51.5907

> <r_i_glide_energy>
-39.3674

> <r_i_glide_erotb>
0.475348

> <r_i_glide_esite>
-0.223914

> <r_i_glide_evdw>
-33.4005

> <r_i_glide_gscore>
-5.05242

> <r_i_glide_hbond>
-0.296125

> <r_i_glide_ligand_efficiency>
-0.162981

> <r_i_glide_ligand_efficiency_ln>
-1.13948

> <r_i_glide_ligand_efficiency_sa>
-0.511986

> <r_i_glide_lipo>
-2.00351

> <r_i_glide_metal>
0

> <r_i_glide_rewards>
-0.439156

> <s_i_glide_gridfile>
wee1_glide-grid

> <s_m_Source_File>
wee1_decoys_glide_SP.sdf

> <s_m_Source_Path>
/Users/zhangxujun/Desktop

> <s_m_entry_id>
1167

> <s_m_entry_name>
wee1_decoys_glide_SP.892

> <s_m_subgroup_title>
wee1_decoys_glide_SP

> <s_m_subgroupid>
wee1_decoys_glide_SP


$$$$
