ZINC18709984_1173
                    3D
 Schrodinger Suite 2024-2.
 54 56  0  0  1  0            999 V2000
    6.1440   53.1594   18.1091 C   0  0  0  0  0  0
    5.1378   54.2521   18.5002 C   0  0  1  0  0  0
    4.1283   53.8346   18.5334 H   0  0  0  0  0  0
    5.5455   54.7647   19.9073 C   0  0  0  0  0  0
    6.3017   55.7339   20.0145 O   0  0  0  0  0  0
    5.0242   54.0862   20.9544 N   0  0  0  0  0  0
    5.2543   54.2990   22.3266 C   0  0  0  0  0  0
    6.4467   54.8304   22.8366 C   0  0  0  0  0  0
    6.5937   55.0118   24.2077 C   0  0  0  0  0  0
    5.5813   54.6479   25.0928 C   0  0  0  0  0  0
    4.3967   54.0971   24.5815 C   0  0  0  0  0  0
    4.2365   53.9260   23.2066 C   0  0  0  0  0  0
    5.8381   54.8760   26.4327 O   0  0  0  0  0  0
    4.9718   54.3485   27.4386 C   0  0  0  0  0  0
    5.4948   54.6573   28.6225 F   0  0  0  0  0  0
    4.8981   53.0221   27.3737 F   0  0  0  0  0  0
    3.7531   54.8888   27.3813 F   0  0  0  0  0  0
    4.9188   54.9814   16.0267 C   0  0  0  0  0  0
    4.7894   56.1956   15.0880 C   0  0  0  0  0  0
    3.6756   57.0572   15.5216 N   0  0  0  0  0  0
    3.7936   57.6141   16.8790 C   0  0  0  0  0  0
    3.9036   56.4717   17.9119 C   0  0  0  0  0  0
    2.1431   57.1288   14.6258 S   0  0  0  0  0  0
    1.7679   58.5415   14.5050 O   0  0  0  0  0  0
    2.2635   56.2851   13.4311 O   0  0  0  0  0  0
    0.9214   56.3590   15.6889 C   0  0  0  0  0  0
    0.7883   54.9669   15.7047 C   0  0  0  0  0  0
   -0.1897   54.3690   16.5013 C   0  0  0  0  0  0
   -1.0347   55.1588   17.2819 C   0  0  0  0  0  0
   -0.8924   56.5476   17.2804 C   0  0  0  0  0  0
    0.0819   57.1475   16.4823 C   0  0  0  0  0  0
   -1.6950   57.3114   18.0554 F   0  0  0  0  0  0
   -1.9867   54.5770   18.0483 F   0  0  0  0  0  0
    6.2932   52.4413   18.9164 H   0  0  0  0  0  0
    5.7792   52.5847   17.2563 H   0  0  0  0  0  0
    7.1120   53.5942   17.8571 H   0  0  0  0  0  0
    4.3276   53.3857   20.7449 H   0  0  0  0  0  0
    7.2677   55.1051   22.1905 H   0  0  0  0  0  0
    7.5046   55.4430   24.5865 H   0  0  0  0  0  0
    3.5892   53.7991   25.2313 H   0  0  0  0  0  0
    3.3128   53.5066   22.8329 H   0  0  0  0  0  0
    5.8557   54.4684   15.8039 H   0  0  0  0  0  0
    4.0882   54.2785   15.9359 H   0  0  0  0  0  0
    5.7031   56.7919   15.0625 H   0  0  0  0  0  0
    4.5995   55.8731   14.0637 H   0  0  0  0  0  0
    2.9047   58.2194   17.0675 H   0  0  0  0  0  0
    4.6493   58.2921   16.9135 H   0  0  0  0  0  0
    2.9693   55.9275   18.0551 H   0  0  0  0  0  0
    4.2351   56.8971   18.8567 H   0  0  0  0  0  0
    1.4296   54.3489   15.0919 H   0  0  0  0  0  0
   -0.2986   53.2945   16.5094 H   0  0  0  0  0  0
    0.1784   58.2247   16.4816 H   0  0  0  0  0  0
    5.0169   55.4538   17.5071 N   0  3  0  0  0  0
    5.8794   55.9801   17.5598 H   0  0  0  0  0  0
  1  2  1  0  0  0
  1 34  1  0  0  0
  1 35  1  0  0  0
  1 36  1  0  0  0
  2  3  1  0  0  0
  2  4  1  0  0  0
  2 53  1  0  0  0
  4  5  2  0  0  0
  4  6  1  0  0  0
  6  7  1  0  0  0
  6 37  1  0  0  0
  7 12  2  0  0  0
  7  8  1  0  0  0
  8  9  2  0  0  0
  8 38  1  0  0  0
  9 10  1  0  0  0
  9 39  1  0  0  0
 10 11  2  0  0  0
 10 13  1  0  0  0
 11 12  1  0  0  0
 11 40  1  0  0  0
 12 41  1  0  0  0
 13 14  1  0  0  0
 14 15  1  0  0  0
 14 16  1  0  0  0
 14 17  1  0  0  0
 18 19  1  0  0  0
 18 42  1  0  0  0
 18 43  1  0  0  0
 18 53  1  0  0  0
 19 20  1  0  0  0
 19 44  1  0  0  0
 19 45  1  0  0  0
 20 21  1  0  0  0
 20 23  1  0  0  0
 21 22  1  0  0  0
 21 46  1  0  0  0
 21 47  1  0  0  0
 22 48  1  0  0  0
 22 49  1  0  0  0
 22 53  1  0  0  0
 23 24  2  0  0  0
 23 25  2  0  0  0
 23 26  1  0  0  0
 26 31  2  0  0  0
 26 27  1  0  0  0
 27 28  2  0  0  0
 27 50  1  0  0  0
 28 29  1  0  0  0
 28 51  1  0  0  0
 29 30  2  0  0  0
 29 33  1  0  0  0
 30 31  1  0  0  0
 30 32  1  0  0  0
 31 52  1  0  0  0
 53 54  1  0  0  0
M  CHG  1  53   1
M  END
> <i_i_glide_confnum>
11

> <i_i_glide_lignum>
1174

> <i_i_glide_posenum>
234

> <i_i_glide_rotatable_bonds>
8

> <i_m_Source_File_Index>
5098

> <b_m_subgroup_collapsed>
0

> <r_i_docking_score>
-4.47472

> <r_i_glide_ecoul>
-4.60349

> <r_i_glide_eff_state_penalty>
0

> <r_i_glide_einternal>
1.57734

> <r_i_glide_emodel>
-49.4767

> <r_i_glide_energy>
-38.2987

> <r_i_glide_erotb>
0.583467

> <r_i_glide_esite>
-0.0671488

> <r_i_glide_evdw>
-33.6952

> <r_i_glide_gscore>
-4.47472

> <r_i_glide_hbond>
0

> <r_i_glide_ligand_efficiency>
-0.135597

> <r_i_glide_ligand_efficiency_ln>
-0.995154

> <r_i_glide_ligand_efficiency_sa>
-0.434933

> <r_i_glide_lipo>
-2.1031

> <r_i_glide_metal>
0

> <r_i_glide_rewards>
-0.512652

> <s_i_glide_gridfile>
wee1_glide-grid

> <s_m_Source_File>
wee1_decoys_glide_SP.sdf

> <s_m_Source_Path>
/Users/zhangxujun/Desktop

> <s_m_entry_id>
5373

> <s_m_entry_name>
wee1_decoys_glide_SP.5098

> <s_m_subgroup_title>
wee1_decoys_glide_SP

> <s_m_subgroupid>
wee1_decoys_glide_SP


$$$$
