ZINC41006337_4504
                    3D
 Schrodinger Suite 2024-2.
 77 80  0  0  1  0            999 V2000
    1.6297   54.0739   28.1212 C   0  0  0  0  0  0
    0.3118   53.3576   28.4453 C   0  0  0  0  0  0
   -0.0336   52.2723   27.4377 C   0  0  0  0  0  0
    0.7368   51.1123   27.3778 C   0  0  0  0  0  0
    0.4000   50.0966   26.4892 C   0  0  0  0  0  0
   -0.7044   50.2290   25.6557 C   0  0  0  0  0  0
   -1.4261   51.4272   25.6559 C   0  0  0  0  0  0
   -1.1189   52.4219   26.5742 C   0  0  0  0  0  0
   -1.1184   49.0300   24.7844 C   0  0  2  0  0  0
   -0.2947   48.3136   24.8785 H   0  0  0  0  0  0
   -1.2300   49.3625   23.2513 C   0  0  2  0  0  0
   -1.9396   50.1730   23.0785 H   0  0  0  0  0  0
   -1.7466   48.1519   22.4132 C   0  0  0  0  0  0
   -1.3031   47.8353   21.3081 O   0  0  0  0  0  0
   -2.9058   47.3564   23.0295 C   0  0  0  0  0  0
   -2.7481   47.0289   24.5345 C   0  0  1  0  0  0
   -2.3787   48.2883   25.3733 C   0  0  2  0  0  0
   -2.1309   47.9463   26.3796 H   0  0  0  0  0  0
   -3.5979   49.2296   25.5887 C   0  0  0  0  0  0
   -4.2332   49.6219   24.6088 O   0  0  0  0  0  0
   -3.8479   49.5882   26.8696 N   0  0  0  0  0  0
   -4.8411   50.4469   27.3989 C   0  0  0  0  0  0
   -5.8700   51.0165   26.6254 C   0  0  0  0  0  0
   -6.8170   51.8573   27.2046 C   0  0  0  0  0  0
   -6.7669   52.1373   28.5680 C   0  0  0  0  0  0
   -5.7649   51.5606   29.3514 C   0  0  0  0  0  0
   -4.7946   50.7328   28.7768 C   0  0  0  0  0  0
   -3.6967   50.1728   29.6732 C   0  0  0  0  0  0
   -7.8027   53.0607   29.1838 C   0  0  0  0  0  0
   -3.9889   46.2590   25.0461 C   0  0  0  0  0  0
   -1.6959   46.0996   24.7046 O   0  0  0  0  0  0
    0.1609   49.8698   22.7577 C   0  0  0  0  0  0
    1.0556   49.0581   22.5087 O   0  0  0  0  0  0
    0.3468   51.2071   22.6957 N   0  0  0  0  0  0
    1.5168   51.8758   22.2728 C   0  0  0  0  0  0
    2.3054   51.3862   21.2157 C   0  0  0  0  0  0
    3.4420   52.0727   20.7971 C   0  0  0  0  0  0
    3.8093   53.2634   21.4231 C   0  0  0  0  0  0
    3.0402   53.7543   22.4802 C   0  0  0  0  0  0
    1.8888   53.0801   22.9012 C   0  0  0  0  0  0
    1.0781   53.6742   24.0458 C   0  0  0  0  0  0
    5.0339   54.0253   20.9577 C   0  0  0  0  0  0
    1.8146   54.8854   28.8234 H   0  0  0  0  0  0
    2.4762   53.3893   28.1751 H   0  0  0  0  0  0
    1.6122   54.4971   27.1177 H   0  0  0  0  0  0
   -0.4949   54.0909   28.4927 H   0  0  0  0  0  0
    0.3616   52.9090   29.4384 H   0  0  0  0  0  0
    1.5795   50.9805   28.0401 H   0  0  0  0  0  0
    0.9814   49.1831   26.4879 H   0  0  0  0  0  0
   -2.2777   51.5645   25.0051 H   0  0  0  0  0  0
   -1.7416   53.2971   26.6114 H   0  0  0  0  0  0
   -3.8131   47.9350   22.8608 H   0  0  0  0  0  0
   -3.0162   46.4324   22.4609 H   0  0  0  0  0  0
   -3.1896   49.2337   27.5588 H   0  0  0  0  0  0
   -5.9689   50.8285   25.5692 H   0  0  0  0  0  0
   -7.5945   52.2858   26.5875 H   0  0  0  0  0  0
   -5.7370   51.7586   30.4133 H   0  0  0  0  0  0
   -3.7939   50.4845   30.7142 H   0  0  0  0  0  0
   -3.6988   49.0840   29.6476 H   0  0  0  0  0  0
   -2.7189   50.4970   29.3174 H   0  0  0  0  0  0
   -7.8106   53.0008   30.2751 H   0  0  0  0  0  0
   -7.6200   54.0962   28.8816 H   0  0  0  0  0  0
   -8.8021   52.7865   28.8390 H   0  0  0  0  0  0
   -4.8993   46.8540   24.9551 H   0  0  0  0  0  0
   -4.1590   45.3467   24.4763 H   0  0  0  0  0  0
   -3.8870   45.9829   26.0967 H   0  0  0  0  0  0
   -1.1649   46.3885   25.4579 H   0  0  0  0  0  0
   -0.3546   51.7842   23.1310 H   0  0  0  0  0  0
    2.0374   50.4764   20.6978 H   0  0  0  0  0  0
    4.0233   51.6837   19.9722 H   0  0  0  0  0  0
    3.3296   54.6789   22.9596 H   0  0  0  0  0  0
    1.1981   53.0625   24.9388 H   0  0  0  0  0  0
    1.3831   54.6955   24.2732 H   0  0  0  0  0  0
    0.0177   53.7020   23.7955 H   0  0  0  0  0  0
    5.6892   53.4030   20.3466 H   0  0  0  0  0  0
    5.6176   54.3743   21.8118 H   0  0  0  0  0  0
    4.7377   54.8977   20.3732 H   0  0  0  0  0  0
  1  2  1  0  0  0
  1 43  1  0  0  0
  1 44  1  0  0  0
  1 45  1  0  0  0
  2  3  1  0  0  0
  2 46  1  0  0  0
  2 47  1  0  0  0
  3  8  2  0  0  0
  3  4  1  0  0  0
  4  5  2  0  0  0
  4 48  1  0  0  0
  5  6  1  0  0  0
  5 49  1  0  0  0
  6  7  2  0  0  0
  6  9  1  0  0  0
  7  8  1  0  0  0
  7 50  1  0  0  0
  8 51  1  0  0  0
  9 10  1  0  0  0
  9 17  1  0  0  0
  9 11  1  0  0  0
 11 12  1  0  0  0
 11 13  1  0  0  0
 11 32  1  0  0  0
 13 14  2  0  0  0
 13 15  1  0  0  0
 15 16  1  0  0  0
 15 52  1  0  0  0
 15 53  1  0  0  0
 16 17  1  0  0  0
 16 30  1  0  0  0
 16 31  1  0  0  0
 17 18  1  0  0  0
 17 19  1  0  0  0
 19 20  2  0  0  0
 19 21  1  0  0  0
 21 22  1  0  0  0
 21 54  1  0  0  0
 22 27  2  0  0  0
 22 23  1  0  0  0
 23 24  2  0  0  0
 23 55  1  0  0  0
 24 25  1  0  0  0
 24 56  1  0  0  0
 25 26  2  0  0  0
 25 29  1  0  0  0
 26 27  1  0  0  0
 26 57  1  0  0  0
 27 28  1  0  0  0
 28 58  1  0  0  0
 28 59  1  0  0  0
 28 60  1  0  0  0
 29 61  1  0  0  0
 29 62  1  0  0  0
 29 63  1  0  0  0
 30 64  1  0  0  0
 30 65  1  0  0  0
 30 66  1  0  0  0
 31 67  1  0  0  0
 32 33  2  0  0  0
 32 34  1  0  0  0
 34 35  1  0  0  0
 34 68  1  0  0  0
 35 40  2  0  0  0
 35 36  1  0  0  0
 36 37  2  0  0  0
 36 69  1  0  0  0
 37 38  1  0  0  0
 37 70  1  0  0  0
 38 39  2  0  0  0
 38 42  1  0  0  0
 39 40  1  0  0  0
 39 71  1  0  0  0
 40 41  1  0  0  0
 41 72  1  0  0  0
 41 73  1  0  0  0
 41 74  1  0  0  0
 42 75  1  0  0  0
 42 76  1  0  0  0
 42 77  1  0  0  0
M  END
> <i_i_glide_confnum>
7

> <i_i_glide_lignum>
4505

> <i_i_glide_posenum>
227

> <i_i_glide_rotatable_bonds>
9

> <i_m_Source_File_Index>
4680

> <b_m_subgroup_collapsed>
0

> <r_i_docking_score>
-3.59363

> <r_i_glide_ecoul>
-5.54778

> <r_i_glide_eff_state_penalty>
0

> <r_i_glide_einternal>
3.51533

> <r_i_glide_emodel>
-49.3748

> <r_i_glide_energy>
-40.8352

> <r_i_glide_erotb>
0.519629

> <r_i_glide_esite>
-0.122785

> <r_i_glide_evdw>
-35.2874

> <r_i_glide_gscore>
-3.59363

> <r_i_glide_hbond>
-0.197839

> <r_i_glide_ligand_efficiency>
-0.0921444

> <r_i_glide_ligand_efficiency_ln>
-0.770576

> <r_i_glide_ligand_efficiency_sa>
-0.312481

> <r_i_glide_lipo>
-1.15192

> <r_i_glide_metal>
0

> <r_i_glide_rewards>
-0.0441814

> <s_i_glide_gridfile>
wee1_glide-grid

> <s_m_Source_File>
wee1_decoys_glide_SP.sdf

> <s_m_Source_Path>
/Users/zhangxujun/Desktop

> <s_m_entry_id>
4955

> <s_m_entry_name>
wee1_decoys_glide_SP.4680

> <s_m_subgroup_title>
wee1_decoys_glide_SP

> <s_m_subgroupid>
wee1_decoys_glide_SP


$$$$
