ZINC14368213_2092
                    3D
 Schrodinger Suite 2024-2.
 63 65  0  0  1  0            999 V2000
    4.5209   54.7362   26.6173 C   0  0  0  0  0  0
    4.8739   54.5125   25.1528 C   0  0  0  0  0  0
    6.1492   54.8682   24.7067 C   0  0  0  0  0  0
    6.5167   54.6667   23.3793 C   0  0  0  0  0  0
    5.6088   54.0946   22.4916 C   0  0  0  0  0  0
    4.3306   53.7058   22.9189 C   0  0  0  0  0  0
    3.9490   53.9543   24.2504 C   0  0  0  0  0  0
    2.5522   53.5561   24.7275 C   0  0  0  0  0  0
    3.4166   53.0891   22.0824 O   0  0  0  0  0  0
    3.8660   52.3292   20.9522 C   0  0  2  0  0  0
    4.8985   52.0004   21.0803 H   0  0  0  0  0  0
    3.7487   53.2101   19.6878 C   0  0  0  0  0  0
    3.0430   51.0181   20.9044 C   0  0  0  0  0  0
    2.6643   50.4918   21.9578 O   0  0  0  0  0  0
    2.7827   50.5067   19.6809 N   0  0  0  0  0  0
    2.0992   49.2983   19.5454 N   0  0  0  0  0  0
    0.7637   49.3189   19.3240 C   0  0  0  0  0  0
    0.0635   50.3268   19.4616 O   0  0  0  0  0  0
    0.0744   48.0008   18.9011 C   0  0  0  0  0  0
    1.0343   46.8729   18.4640 C   0  0  0  0  0  0
    0.2122   45.6868   17.9220 C   0  0  0  0  0  0
   -0.7346   45.2530   18.9782 N   0  0  0  0  0  0
   -1.7252   46.2794   19.3782 C   0  0  0  0  0  0
   -0.9718   47.5159   19.9324 C   0  0  0  0  0  0
   -0.6307   44.0870   19.6802 C   0  0  0  0  0  0
   -1.3169   43.8319   20.6747 O   0  0  0  0  0  0
    0.3637   43.0392   19.2373 C   0  0  0  0  0  0
    0.3939   42.5779   17.9148 C   0  0  0  0  0  0
    1.3682   41.6714   17.5104 C   0  0  0  0  0  0
    2.3022   41.1913   18.4329 C   0  0  0  0  0  0
    2.2180   41.5850   19.7691 C   0  0  0  0  0  0
    1.2492   42.4963   20.1738 C   0  0  0  0  0  0
    3.4110   40.2317   18.0093 C   0  0  0  0  0  0
    3.2494   39.7710   16.7668 F   0  0  0  0  0  0
    4.5846   40.8594   18.0822 F   0  0  0  0  0  0
    3.4267   39.1913   18.8390 F   0  0  0  0  0  0
    5.2920   55.2953   27.1488 H   0  0  0  0  0  0
    3.5883   55.2944   26.7015 H   0  0  0  0  0  0
    4.3842   53.7789   27.1219 H   0  0  0  0  0  0
    6.8637   55.3036   25.3882 H   0  0  0  0  0  0
    7.5042   54.9510   23.0402 H   0  0  0  0  0  0
    5.9046   53.9590   21.4649 H   0  0  0  0  0  0
    2.0614   52.8458   24.0605 H   0  0  0  0  0  0
    1.9226   54.4399   24.8256 H   0  0  0  0  0  0
    2.5987   53.0644   25.6988 H   0  0  0  0  0  0
    4.2411   52.7482   18.8309 H   0  0  0  0  0  0
    2.7060   53.3863   19.4214 H   0  0  0  0  0  0
    4.2083   54.1869   19.8379 H   0  0  0  0  0  0
    3.2074   50.8308   18.8198 H   0  0  0  0  0  0
    2.7052   48.5069   19.3824 H   0  0  0  0  0  0
   -0.4799   48.3370   18.0218 H   0  0  0  0  0  0
    1.6792   47.1961   17.6448 H   0  0  0  0  0  0
    1.6256   46.5001   19.2999 H   0  0  0  0  0  0
   -0.3908   46.0147   17.0745 H   0  0  0  0  0  0
    0.8526   44.9097   17.5129 H   0  0  0  0  0  0
   -2.2639   46.5614   18.4715 H   0  0  0  0  0  0
   -2.4935   45.8985   20.0540 H   0  0  0  0  0  0
   -0.4989   47.2056   20.8662 H   0  0  0  0  0  0
   -1.7306   48.2769   20.1232 H   0  0  0  0  0  0
   -0.3101   42.9502   17.1832 H   0  0  0  0  0  0
    1.4032   41.3602   16.4767 H   0  0  0  0  0  0
    2.9271   41.2031   20.4861 H   0  0  0  0  0  0
    1.2192   42.8145   21.2066 H   0  0  0  0  0  0
  1  2  1  0  0  0
  1 37  1  0  0  0
  1 38  1  0  0  0
  1 39  1  0  0  0
  2  7  2  0  0  0
  2  3  1  0  0  0
  3  4  2  0  0  0
  3 40  1  0  0  0
  4  5  1  0  0  0
  4 41  1  0  0  0
  5  6  2  0  0  0
  5 42  1  0  0  0
  6  7  1  0  0  0
  6  9  1  0  0  0
  7  8  1  0  0  0
  8 43  1  0  0  0
  8 44  1  0  0  0
  8 45  1  0  0  0
  9 10  1  0  0  0
 10 11  1  0  0  0
 10 12  1  0  0  0
 10 13  1  0  0  0
 12 46  1  0  0  0
 12 47  1  0  0  0
 12 48  1  0  0  0
 13 14  2  0  0  0
 13 15  1  0  0  0
 15 16  1  0  0  0
 15 49  1  0  0  0
 16 17  1  0  0  0
 16 50  1  0  0  0
 17 18  2  0  0  0
 17 19  1  0  0  0
 19 24  1  0  0  0
 19 20  1  0  0  0
 19 51  1  0  0  0
 20 21  1  0  0  0
 20 52  1  0  0  0
 20 53  1  0  0  0
 21 22  1  0  0  0
 21 54  1  0  0  0
 21 55  1  0  0  0
 22 23  1  0  0  0
 22 25  1  0  0  0
 23 24  1  0  0  0
 23 56  1  0  0  0
 23 57  1  0  0  0
 24 58  1  0  0  0
 24 59  1  0  0  0
 25 26  2  0  0  0
 25 27  1  0  0  0
 27 32  2  0  0  0
 27 28  1  0  0  0
 28 29  2  0  0  0
 28 60  1  0  0  0
 29 30  1  0  0  0
 29 61  1  0  0  0
 30 31  2  0  0  0
 30 33  1  0  0  0
 31 32  1  0  0  0
 31 62  1  0  0  0
 32 63  1  0  0  0
 33 34  1  0  0  0
 33 35  1  0  0  0
 33 36  1  0  0  0
M  END
> <i_i_glide_confnum>
333

> <i_i_glide_lignum>
2093

> <i_i_glide_posenum>
335

> <i_i_glide_rotatable_bonds>
10

> <i_m_Source_File_Index>
2068

> <b_m_subgroup_collapsed>
0

> <r_i_docking_score>
-5.48994

> <r_i_glide_ecoul>
-3.45392

> <r_i_glide_eff_state_penalty>
0

> <r_i_glide_einternal>
12.799

> <r_i_glide_emodel>
-57.06

> <r_i_glide_energy>
-45.9508

> <r_i_glide_erotb>
0.758448

> <r_i_glide_esite>
-0.177036

> <r_i_glide_evdw>
-42.4968

> <r_i_glide_gscore>
-5.48994

> <r_i_glide_hbond>
-0.0534914

> <r_i_glide_ligand_efficiency>
-0.156855

> <r_i_glide_ligand_efficiency_ln>
-1.20516

> <r_i_glide_ligand_efficiency_sa>
-0.513084

> <r_i_glide_lipo>
-2.4732

> <r_i_glide_metal>
0

> <r_i_glide_rewards>
-0.901726

> <s_i_glide_gridfile>
wee1_glide-grid

> <s_m_Source_File>
wee1_decoys_glide_SP.sdf

> <s_m_Source_Path>
/Users/zhangxujun/Desktop

> <s_m_entry_id>
2343

> <s_m_entry_name>
wee1_decoys_glide_SP.2068

> <s_m_subgroup_title>
wee1_decoys_glide_SP

> <s_m_subgroupid>
wee1_decoys_glide_SP


$$$$
