ZINC55996171_1489
                    3D
 Schrodinger Suite 2024-2.
 44 47  0  0  1  0            999 V2000
    1.0834   52.6149   27.1344 C   0  0  0  0  0  0
    2.3654   53.3608   27.4912 C   0  0  0  0  0  0
    3.2429   53.6946   26.4577 C   0  0  0  0  0  0
    4.5092   54.2535   26.7120 C   0  0  0  0  0  0
    4.8657   54.4968   28.0454 C   0  0  0  0  0  0
    3.9818   54.2114   29.0840 C   0  0  0  0  0  0
    2.7263   53.6466   28.8193 C   0  0  0  0  0  0
    1.8526   53.3601   29.8841 N   0  0  0  0  0  0
    0.5422   53.9786   30.0527 C   0  0  0  0  0  0
   -0.0691   53.1898   31.1832 C   0  0  0  0  0  0
    1.0920   52.4971   31.6844 N   0  0  0  0  0  0
    2.1646   52.4964   30.8809 C   0  0  0  0  0  0
    3.1772   51.8095   31.0114 O   0  0  0  0  0  0
    5.4678   54.6036   25.5891 C   0  0  0  0  0  0
    6.4883   55.2577   25.8200 O   0  0  0  0  0  0
    5.0930   54.1657   24.3654 N   0  0  0  0  0  0
    5.5846   54.4955   23.0942 C   0  0  0  0  0  0
    4.7870   54.1200   22.0106 C   0  0  0  0  0  0
    5.1401   54.4963   20.7171 C   0  0  0  0  0  0
    6.3048   55.2383   20.4945 C   0  0  0  0  0  0
    7.1291   55.5644   21.5741 C   0  0  0  0  0  0
    6.7690   55.2031   22.8665 C   0  0  0  0  0  0
    6.6757   55.6816   19.1196 C   0  0  0  0  0  0
    7.7547   56.3235   18.7358 N   0  0  0  0  0  0
    7.6168   56.5336   17.3677 N   0  0  0  0  0  0
    6.4653   56.0054   17.0377 C   0  0  0  0  0  0
    5.8173   55.4522   18.0927 O   0  0  0  0  0  0
    1.1872   52.0700   26.1955 H   0  0  0  0  0  0
    0.8450   51.8636   27.8897 H   0  0  0  0  0  0
    0.2394   53.2950   27.0496 H   0  0  0  0  0  0
    2.9239   53.4756   25.4499 H   0  0  0  0  0  0
    5.8292   54.9240   28.2911 H   0  0  0  0  0  0
    4.2877   54.4223   30.0977 H   0  0  0  0  0  0
   -0.0654   53.8930   29.1537 H   0  0  0  0  0  0
    0.6523   55.0327   30.3134 H   0  0  0  0  0  0
   -0.4472   53.8668   31.9515 H   0  0  0  0  0  0
   -0.8703   52.5063   30.8786 H   0  0  0  0  0  0
    1.1495   52.2484   32.6631 H   0  0  0  0  0  0
    4.2604   53.6011   24.3493 H   0  0  0  0  0  0
    3.8698   53.5684   22.1590 H   0  0  0  0  0  0
    4.4965   54.2239   19.8928 H   0  0  0  0  0  0
    8.0542   56.1017   21.4238 H   0  0  0  0  0  0
    7.4316   55.4927   23.6671 H   0  0  0  0  0  0
    5.9767   55.9529   16.0766 H   0  0  0  0  0  0
  1  2  1  0  0  0
  1 28  1  0  0  0
  1 29  1  0  0  0
  1 30  1  0  0  0
  2  7  2  0  0  0
  2  3  1  0  0  0
  3  4  2  0  0  0
  3 31  1  0  0  0
  4  5  1  0  0  0
  4 14  1  0  0  0
  5  6  2  0  0  0
  5 32  1  0  0  0
  6  7  1  0  0  0
  6 33  1  0  0  0
  7  8  1  0  0  0
  8 12  1  0  0  0
  8  9  1  0  0  0
  9 10  1  0  0  0
  9 34  1  0  0  0
  9 35  1  0  0  0
 10 11  1  0  0  0
 10 36  1  0  0  0
 10 37  1  0  0  0
 11 12  1  0  0  0
 11 38  1  0  0  0
 12 13  2  0  0  0
 14 15  2  0  0  0
 14 16  1  0  0  0
 16 17  1  0  0  0
 16 39  1  0  0  0
 17 22  2  0  0  0
 17 18  1  0  0  0
 18 19  2  0  0  0
 18 40  1  0  0  0
 19 20  1  0  0  0
 19 41  1  0  0  0
 20 21  2  0  0  0
 20 23  1  0  0  0
 21 22  1  0  0  0
 21 42  1  0  0  0
 22 43  1  0  0  0
 23 27  1  0  0  0
 23 24  2  0  0  0
 24 25  1  0  0  0
 25 26  2  0  0  0
 26 27  1  0  0  0
 26 44  1  0  0  0
M  END
> <i_i_glide_confnum>
19

> <i_i_glide_lignum>
1490

> <i_i_glide_posenum>
265

> <i_i_glide_rotatable_bonds>
5

> <i_m_Source_File_Index>
803

> <b_m_subgroup_collapsed>
0

> <r_i_docking_score>
-7.2766

> <r_i_glide_ecoul>
-7.63147

> <r_i_glide_eff_state_penalty>
0

> <r_i_glide_einternal>
1.12326

> <r_i_glide_emodel>
-71.5073

> <r_i_glide_energy>
-50.164

> <r_i_glide_erotb>
0.727544

> <r_i_glide_esite>
-0.144868

> <r_i_glide_evdw>
-42.5326

> <r_i_glide_gscore>
-7.2766

> <r_i_glide_hbond>
-0.486209

> <r_i_glide_ligand_efficiency>
-0.269504

> <r_i_glide_ligand_efficiency_ln>
-1.69387

> <r_i_glide_ligand_efficiency_sa>
-0.808511

> <r_i_glide_lipo>
-2.59371

> <r_i_glide_metal>
0

> <r_i_glide_rewards>
-1.50801

> <s_i_glide_gridfile>
wee1_glide-grid

> <s_m_Source_File>
wee1_decoys_glide_SP.sdf

> <s_m_Source_Path>
/Users/zhangxujun/Desktop

> <s_m_entry_id>
1078

> <s_m_entry_name>
wee1_decoys_glide_SP.803

> <s_m_subgroup_title>
wee1_decoys_glide_SP

> <s_m_subgroupid>
wee1_decoys_glide_SP


$$$$
