ZINC13398062_3307
                    3D
 Schrodinger Suite 2024-2.
 56 59  0  0  1  0            999 V2000
    2.4962   49.9160   19.8549 C   0  0  0  0  0  0
    2.0104   48.7712   19.2314 C   0  0  0  0  0  0
    1.2241   48.8848   18.0850 C   0  0  0  0  0  0
    0.9027   50.1417   17.5735 C   0  0  0  0  0  0
    1.3950   51.2861   18.1938 C   0  0  0  0  0  0
    2.2131   51.1810   19.3205 C   0  0  0  0  0  0
    2.7101   52.3952   19.8294 N   0  0  0  0  0  0
    3.7135   52.6205   20.7018 C   0  0  0  0  0  0
    4.3613   51.7485   21.2823 O   0  0  0  0  0  0
    4.0306   54.1088   20.9112 C   0  0  0  0  0  0
    5.4513   54.4940   21.9936 S   0  0  0  0  0  0
    4.9788   54.3032   23.6919 C   0  0  0  0  0  0
    3.6434   54.0950   24.0650 C   0  0  0  0  0  0
    3.2992   53.9515   25.4084 C   0  0  0  0  0  0
    4.2930   54.0076   26.3823 C   0  0  0  0  0  0
    5.6283   54.2456   26.0165 C   0  0  0  0  0  0
    5.9700   54.3904   24.6729 C   0  0  0  0  0  0
    6.6540   54.2575   26.9409 O   0  0  0  0  0  0
    6.2098   54.3593   28.2986 C   0  0  0  0  0  0
    4.9821   53.4605   28.5594 C   0  0  0  0  0  0
    3.9090   53.8517   27.6979 O   0  0  0  0  0  0
    0.6186   47.4022   17.2863 S   0  0  0  0  0  0
   -0.0328   47.8000   16.0327 O   0  0  0  0  0  0
    1.7245   46.4387   17.2866 O   0  0  0  0  0  0
   -0.6327   46.8297   18.3998 N   0  0  0  0  0  0
   -1.9833   47.4394   18.2733 C   0  0  0  0  0  0
   -2.7575   47.3361   19.6061 C   0  0  0  0  0  0
   -2.7689   45.8866   20.1328 C   0  0  0  0  0  0
   -1.3139   45.3407   20.2468 C   0  0  2  0  0  0
   -0.7543   45.9419   20.9649 H   0  0  0  0  0  0
   -0.5917   45.4205   18.8756 C   0  0  0  0  0  0
   -1.3021   43.9150   20.8496 C   0  0  0  0  0  0
   -0.4962   43.0544   20.4149 O   0  0  0  0  0  0
    3.1044   49.7936   20.7368 H   0  0  0  0  0  0
    2.2610   47.7995   19.6296 H   0  0  0  0  0  0
    0.2924   50.2343   16.6864 H   0  0  0  0  0  0
    1.1610   52.2520   17.7680 H   0  0  0  0  0  0
    2.3035   53.2192   19.4103 H   0  0  0  0  0  0
    3.1370   54.6153   21.2807 H   0  0  0  0  0  0
    4.2501   54.5418   19.9368 H   0  0  0  0  0  0
    2.8559   54.0279   23.3345 H   0  0  0  0  0  0
    2.2719   53.7786   25.6925 H   0  0  0  0  0  0
    7.0005   54.5505   24.3922 H   0  0  0  0  0  0
    7.0304   54.0959   28.9659 H   0  0  0  0  0  0
    5.9061   55.3890   28.4896 H   0  0  0  0  0  0
    5.2502   52.4236   28.3597 H   0  0  0  0  0  0
    4.6619   53.5316   29.5978 H   0  0  0  0  0  0
   -1.8952   48.4744   17.9383 H   0  0  0  0  0  0
   -2.5443   46.8577   17.5383 H   0  0  0  0  0  0
   -2.3022   47.9962   20.3478 H   0  0  0  0  0  0
   -3.7810   47.6921   19.4710 H   0  0  0  0  0  0
   -3.2759   45.8768   21.1010 H   0  0  0  0  0  0
   -3.3485   45.2764   19.4341 H   0  0  0  0  0  0
   -1.1546   44.8082   18.1665 H   0  0  0  0  0  0
    0.4430   45.0787   18.9421 H   0  0  0  0  0  0
   -2.0955   43.6956   21.7898 O   0  5  0  0  0  0
  1  6  2  0  0  0
  1  2  1  0  0  0
  1 34  1  0  0  0
  2  3  2  0  0  0
  2 35  1  0  0  0
  3  4  1  0  0  0
  3 22  1  0  0  0
  4  5  2  0  0  0
  4 36  1  0  0  0
  5  6  1  0  0  0
  5 37  1  0  0  0
  6  7  1  0  0  0
  7  8  1  0  0  0
  7 38  1  0  0  0
  8  9  2  0  0  0
  8 10  1  0  0  0
 10 11  1  0  0  0
 10 39  1  0  0  0
 10 40  1  0  0  0
 11 12  1  0  0  0
 12 17  2  0  0  0
 12 13  1  0  0  0
 13 14  2  0  0  0
 13 41  1  0  0  0
 14 15  1  0  0  0
 14 42  1  0  0  0
 15 21  1  0  0  0
 15 16  2  0  0  0
 16 17  1  0  0  0
 16 18  1  0  0  0
 17 43  1  0  0  0
 18 19  1  0  0  0
 19 20  1  0  0  0
 19 44  1  0  0  0
 19 45  1  0  0  0
 20 21  1  0  0  0
 20 46  1  0  0  0
 20 47  1  0  0  0
 22 23  2  0  0  0
 22 24  2  0  0  0
 22 25  1  0  0  0
 25 31  1  0  0  0
 25 26  1  0  0  0
 26 27  1  0  0  0
 26 48  1  0  0  0
 26 49  1  0  0  0
 27 28  1  0  0  0
 27 50  1  0  0  0
 27 51  1  0  0  0
 28 29  1  0  0  0
 28 52  1  0  0  0
 28 53  1  0  0  0
 29 30  1  0  0  0
 29 31  1  0  0  0
 29 32  1  0  0  0
 31 54  1  0  0  0
 31 55  1  0  0  0
 32 33  2  0  0  0
 32 56  1  0  0  0
M  CHG  1  56  -1
M  END
> <i_i_glide_confnum>
189

> <i_i_glide_lignum>
3308

> <i_i_glide_posenum>
249

> <i_i_glide_rotatable_bonds>
8

> <i_m_Source_File_Index>
5110

> <b_m_subgroup_collapsed>
0

> <r_i_docking_score>
-5.26887

> <r_i_glide_ecoul>
-9.77777

> <r_i_glide_eff_state_penalty>
0

> <r_i_glide_einternal>
3.60439

> <r_i_glide_emodel>
-65.717

> <r_i_glide_energy>
-46.3438

> <r_i_glide_erotb>
0.505526

> <r_i_glide_esite>
-0.15137

> <r_i_glide_evdw>
-36.5661

> <r_i_glide_gscore>
-5.26887

> <r_i_glide_hbond>
-0.476345

> <r_i_glide_ligand_efficiency>
-0.159663

> <r_i_glide_ligand_efficiency_ln>
-1.17177

> <r_i_glide_ligand_efficiency_sa>
-0.512123

> <r_i_glide_lipo>
-2.11928

> <r_i_glide_metal>
0

> <r_i_glide_rewards>
0.267573

> <s_i_glide_gridfile>
wee1_glide-grid

> <s_m_Source_File>
wee1_decoys_glide_SP.sdf

> <s_m_Source_Path>
/Users/zhangxujun/Desktop

> <s_m_entry_id>
5385

> <s_m_entry_name>
wee1_decoys_glide_SP.5110

> <s_m_subgroup_title>
wee1_decoys_glide_SP

> <s_m_subgroupid>
wee1_decoys_glide_SP


$$$$
