ZINC49223815_6167
                    3D
 Schrodinger Suite 2024-2.
 35 36  0  0  1  0            999 V2000
    0.3085   53.2212   31.3318 C   0  0  0  0  0  0
    1.0811   54.1623   30.4397 C   0  0  0  0  0  0
    1.1162   55.5373   30.2853 C   0  0  0  0  0  0
    2.0426   55.8104   29.2817 C   0  0  0  0  0  0
    2.5716   54.5951   28.8742 C   0  0  0  0  0  0
    1.9762   53.5986   29.5883 O   0  0  0  0  0  0
    3.6385   54.1918   27.8595 C   0  0  1  0  0  0
    4.3261   55.0350   27.8068 H   0  0  0  0  0  0
    4.4608   52.9709   28.3186 C   0  0  0  0  0  0
    3.1322   53.9630   26.4828 N   0  0  0  0  0  0
    3.7878   54.3540   25.3226 C   0  0  0  0  0  0
    3.0180   53.9940   24.2177 C   0  0  0  0  0  0
    1.8704   53.3525   24.7121 C   0  0  0  0  0  0
    1.9753   53.2968   26.0983 C   0  0  0  0  0  0
    1.1285   52.7089   27.0045 N   0  0  0  0  0  0
    0.7674   52.8298   23.9145 C   0  0  0  0  0  0
   -0.1100   52.4191   23.2815 N   0  0  0  0  0  0
    3.3823   54.2341   22.7638 C   0  0  0  0  0  0
    5.1366   55.0552   25.3480 C   0  0  0  0  0  0
   -0.3059   53.7543   32.0570 H   0  0  0  0  0  0
   -0.3596   52.5773   30.7605 H   0  0  0  0  0  0
    0.9678   52.5673   31.9024 H   0  0  0  0  0  0
    0.5501   56.2659   30.8411 H   0  0  0  0  0  0
    2.3044   56.7890   28.9100 H   0  0  0  0  0  0
    4.9482   53.1605   29.2754 H   0  0  0  0  0  0
    3.8251   52.0958   28.4427 H   0  0  0  0  0  0
    5.2415   52.7140   27.6010 H   0  0  0  0  0  0
    0.3199   52.1762   26.7129 H   0  0  0  0  0  0
    1.2828   52.7866   28.0024 H   0  0  0  0  0  0
    3.4822   55.2958   22.5443 H   0  0  0  0  0  0
    4.3565   53.8033   22.5317 H   0  0  0  0  0  0
    2.6667   53.8158   22.0556 H   0  0  0  0  0  0
    5.5973   55.0859   24.3606 H   0  0  0  0  0  0
    5.0533   56.0887   25.6816 H   0  0  0  0  0  0
    5.8520   54.5543   26.0003 H   0  0  0  0  0  0
  1  2  1  0  0  0
  1 20  1  0  0  0
  1 21  1  0  0  0
  1 22  1  0  0  0
  2  6  1  0  0  0
  2  3  2  0  0  0
  3  4  1  0  0  0
  3 23  1  0  0  0
  4  5  2  0  0  0
  4 24  1  0  0  0
  5  6  1  0  0  0
  5  7  1  0  0  0
  7  8  1  0  0  0
  7  9  1  0  0  0
  7 10  1  0  0  0
  9 25  1  0  0  0
  9 26  1  0  0  0
  9 27  1  0  0  0
 10 14  1  0  0  0
 10 11  1  0  0  0
 11 12  2  0  0  0
 11 19  1  0  0  0
 12 13  1  0  0  0
 12 18  1  0  0  0
 13 14  2  0  0  0
 13 16  1  0  0  0
 14 15  1  0  0  0
 15 28  1  0  0  0
 15 29  1  0  0  0
 16 17  3  0  0  0
 18 30  1  0  0  0
 18 31  1  0  0  0
 18 32  1  0  0  0
 19 33  1  0  0  0
 19 34  1  0  0  0
 19 35  1  0  0  0
M  END
> <i_i_glide_confnum>
2

> <i_i_glide_lignum>
6168

> <i_i_glide_posenum>
309

> <i_i_glide_rotatable_bonds>
3

> <i_m_Source_File_Index>
2910

> <b_m_subgroup_collapsed>
0

> <r_i_docking_score>
-6.1313

> <r_i_glide_ecoul>
-1.19717

> <r_i_glide_eff_state_penalty>
0

> <r_i_glide_einternal>
2.03799

> <r_i_glide_emodel>
-43.4287

> <r_i_glide_energy>
-32.475

> <r_i_glide_erotb>
0.586634

> <r_i_glide_esite>
0

> <r_i_glide_evdw>
-31.2778

> <r_i_glide_gscore>
-6.1313

> <r_i_glide_hbond>
0

> <r_i_glide_ligand_efficiency>
-0.340628

> <r_i_glide_ligand_efficiency_ln>
-1.57602

> <r_i_glide_ligand_efficiency_sa>
-0.892697

> <r_i_glide_lipo>
-2.71317

> <r_i_glide_metal>
0

> <r_i_glide_rewards>
-2.26129

> <s_i_glide_gridfile>
wee1_glide-grid

> <s_m_Source_File>
wee1_decoys_glide_SP.sdf

> <s_m_Source_Path>
/Users/zhangxujun/Desktop

> <s_m_entry_id>
3185

> <s_m_entry_name>
wee1_decoys_glide_SP.2910

> <s_m_subgroup_title>
wee1_decoys_glide_SP

> <s_m_subgroupid>
wee1_decoys_glide_SP


$$$$
