ZINC14526522_4090
                    3D
 Schrodinger Suite 2024-2.
 60 64  0  0  1  0            999 V2000
    2.1845   49.2969   22.1176 C   0  0  0  0  0  0
    1.9800   50.1387   20.8464 C   0  0  2  0  0  0
    2.0418   49.2756   19.5718 C   0  0  0  0  0  0
    1.7117   50.1095   18.3200 C   0  0  0  0  0  0
    2.7044   51.2969   18.2270 N   0  3  2  0  0  0
    2.7567   52.1519   19.5249 C   0  0  0  0  0  0
    3.0529   51.2298   20.7180 C   0  0  0  0  0  0
    2.4423   52.1351   16.9460 C   0  0  0  0  0  0
    3.7110   52.8692   16.5538 C   0  0  0  0  0  0
    4.6383   52.5090   15.5761 C   0  0  0  0  0  0
    6.0293   53.5465   15.6795 S   0  0  0  0  0  0
    5.2274   54.3783   16.9860 C   0  0  0  0  0  0
    4.0287   53.9398   17.2555 N   0  0  0  0  0  0
    5.7821   55.3595   17.7870 N   0  0  0  0  0  0
    7.0607   55.7825   17.8312 C   0  0  0  0  0  0
    7.9435   55.4495   17.0421 O   0  0  0  0  0  0
    7.4228   56.7219   18.9906 C   0  0  0  0  0  0
    6.3613   56.5980   20.4805 S   0  0  0  0  0  0
    6.6674   54.8970   21.0332 C   0  0  0  0  0  0
    5.9951   54.6456   22.3711 C   0  0  0  0  0  0
    6.7046   54.9705   23.5088 N   0  0  0  0  0  0
    7.6586   55.2956   23.4102 H   0  0  0  0  0  0
    6.3039   54.8949   24.8125 C   0  0  0  0  0  0
    7.0687   55.2333   25.7118 O   0  0  0  0  0  0
    4.9316   54.3963   24.8932 C   0  0  0  0  0  0
    4.1367   54.1506   26.0198 C   0  0  0  0  0  0
    2.8769   53.6967   25.6917 C   0  0  0  0  0  0
    2.6026   53.6049   23.9796 S   0  0  0  0  0  0
    4.2500   54.0963   23.6996 C   0  0  0  0  0  0
    4.7843   54.1999   22.4448 N   0  0  0  0  0  0
    2.0509   53.3725   26.9063 C   0  0  0  0  0  0
    3.1243   53.3845   28.0102 C   0  0  0  0  0  0
    4.2822   54.2682   27.5153 C   0  0  0  0  0  0
    3.1043   48.7130   22.0782 H   0  0  0  0  0  0
    2.2295   49.9225   23.0106 H   0  0  0  0  0  0
    1.3593   48.6008   22.2611 H   0  0  0  0  0  0
    0.9993   50.6167   20.9047 H   0  0  0  0  0  0
    1.3360   48.4482   19.6540 H   0  0  0  0  0  0
    3.0167   48.7929   19.4713 H   0  0  0  0  0  0
    0.6995   50.5186   18.3265 H   0  0  0  0  0  0
    1.8731   49.5047   17.4248 H   0  0  0  0  0  0
    3.5832   52.8532   19.4379 H   0  0  0  0  0  0
    1.8146   52.6948   19.6168 H   0  0  0  0  0  0
    4.0513   50.7956   20.6438 H   0  0  0  0  0  0
    3.0843   51.8249   21.6309 H   0  0  0  0  0  0
    1.5765   52.7704   17.1404 H   0  0  0  0  0  0
    2.1674   51.4145   16.1736 H   0  0  0  0  0  0
    4.6122   51.6717   14.8941 H   0  0  0  0  0  0
    5.1682   55.7359   18.4946 H   0  0  0  0  0  0
    7.3819   57.7460   18.6174 H   0  0  0  0  0  0
    8.4578   56.5356   19.2813 H   0  0  0  0  0  0
    7.7487   54.7800   21.1111 H   0  0  0  0  0  0
    6.3044   54.1970   20.2790 H   0  0  0  0  0  0
    1.5670   52.3965   26.8497 H   0  0  0  0  0  0
    1.2766   54.1165   27.0915 H   0  0  0  0  0  0
    3.4943   52.3685   28.1614 H   0  0  0  0  0  0
    2.7278   53.7187   28.9694 H   0  0  0  0  0  0
    4.1424   55.2950   27.8526 H   0  0  0  0  0  0
    5.2476   53.9267   27.8919 H   0  0  0  0  0  0
    3.6304   50.8729   18.1097 H   0  0  0  0  0  0
  1  2  1  0  0  0
  1 34  1  0  0  0
  1 35  1  0  0  0
  1 36  1  0  0  0
  2  7  1  0  0  0
  2  3  1  0  0  0
  2 37  1  0  0  0
  3  4  1  0  0  0
  3 38  1  0  0  0
  3 39  1  0  0  0
  4  5  1  0  0  0
  4 40  1  0  0  0
  4 41  1  0  0  0
  5  6  1  0  0  0
  5  8  1  0  0  0
  5 60  1  0  0  0
  6  7  1  0  0  0
  6 42  1  0  0  0
  6 43  1  0  0  0
  7 44  1  0  0  0
  7 45  1  0  0  0
  8  9  1  0  0  0
  8 46  1  0  0  0
  8 47  1  0  0  0
  9 13  1  0  0  0
  9 10  2  0  0  0
 10 11  1  0  0  0
 10 48  1  0  0  0
 11 12  1  0  0  0
 12 13  2  0  0  0
 12 14  1  0  0  0
 14 15  1  0  0  0
 14 49  1  0  0  0
 15 16  2  0  0  0
 15 17  1  0  0  0
 17 18  1  0  0  0
 17 50  1  0  0  0
 17 51  1  0  0  0
 18 19  1  0  0  0
 19 20  1  0  0  0
 19 52  1  0  0  0
 19 53  1  0  0  0
 20 30  2  0  0  0
 20 21  1  0  0  0
 21 22  1  0  0  0
 21 23  1  0  0  0
 23 24  2  0  0  0
 23 25  1  0  0  0
 25 29  2  0  0  0
 25 26  1  0  0  0
 26 33  1  0  0  0
 26 27  2  0  0  0
 27 28  1  0  0  0
 27 31  1  0  0  0
 28 29  1  0  0  0
 29 30  1  0  0  0
 31 32  1  0  0  0
 31 54  1  0  0  0
 31 55  1  0  0  0
 32 33  1  0  0  0
 32 56  1  0  0  0
 32 57  1  0  0  0
 33 58  1  0  0  0
 33 59  1  0  0  0
M  CHG  1   5   1
M  END
> <i_i_glide_confnum>
158

> <i_i_glide_lignum>
4091

> <i_i_glide_posenum>
266

> <i_i_glide_rotatable_bonds>
8

> <i_m_Source_File_Index>
5427

> <b_m_subgroup_collapsed>
0

> <r_i_docking_score>
-7.54754

> <r_i_glide_ecoul>
-9.03847

> <r_i_glide_eff_state_penalty>
0

> <r_i_glide_einternal>
6.72719

> <r_i_glide_emodel>
-74.1429

> <r_i_glide_energy>
-48.693

> <r_i_glide_erotb>
0.414189

> <r_i_glide_esite>
-0.0956238

> <r_i_glide_evdw>
-39.6546

> <r_i_glide_gscore>
-7.54754

> <r_i_glide_hbond>
-0.851496

> <r_i_glide_ligand_efficiency>
-0.235861

> <r_i_glide_ligand_efficiency_ln>
-1.6901

> <r_i_glide_ligand_efficiency_sa>
-0.748811

> <r_i_glide_lipo>
-2.45631

> <r_i_glide_metal>
0

> <r_i_glide_rewards>
-1.2198

> <s_i_glide_gridfile>
wee1_glide-grid

> <s_m_Source_File>
wee1_decoys_glide_SP.sdf

> <s_m_Source_Path>
/Users/zhangxujun/Desktop

> <s_m_entry_id>
5702

> <s_m_entry_name>
wee1_decoys_glide_SP.5427

> <s_m_subgroup_title>
wee1_decoys_glide_SP

> <s_m_subgroupid>
wee1_decoys_glide_SP


$$$$
