ZINC03011410_4071
                    3D
 Schrodinger Suite 2024-2.
 53 56  0  0  1  0            999 V2000
    1.0996   42.8944   13.7161 C   0  0  0  0  0  0
    1.5042   44.2510   13.5498 O   0  0  0  0  0  0
    1.5016   45.0963   14.6402 C   0  0  0  0  0  0
    1.9895   46.3815   14.4259 C   0  0  0  0  0  0
    2.0672   47.2975   15.4690 C   0  0  0  0  0  0
    1.6230   46.9525   16.7461 C   0  0  0  0  0  0
    1.1031   45.6633   16.9918 C   0  0  0  0  0  0
    1.0547   44.7465   15.9244 C   0  0  0  0  0  0
    0.7046   45.3456   18.2806 O   0  0  0  0  0  0
    0.1630   44.0618   18.5601 C   0  0  0  0  0  0
    1.7778   47.9335   17.7431 N   0  0  0  0  0  0
    0.8008   48.3812   18.5611 C   0  0  0  0  0  0
   -0.3645   47.9720   18.5378 O   0  0  0  0  0  0
    1.2093   49.3835   19.5234 C   0  0  0  0  0  0
    2.3323   50.2328   19.4615 C   0  0  0  0  0  0
    2.2612   51.0618   20.5680 C   0  0  0  0  0  0
    1.1318   50.6585   21.2480 N   0  0  0  0  0  0
    0.4840   49.6918   20.5781 N   0  0  0  0  0  0
    0.5545   51.3178   22.4241 C   0  0  2  0  0  0
   -0.1063   52.0992   22.0475 H   0  0  0  0  0  0
    1.7239   52.0096   23.1583 C   0  0  0  0  0  0
    2.6541   52.8505   22.2340 C   0  0  2  0  0  0
    2.0792   53.6840   21.8228 H   0  0  0  0  0  0
    3.0795   52.0658   21.0558 N   0  0  0  0  0  0
    3.7943   53.5670   22.9974 C   0  0  0  0  0  0
    3.5623   54.1085   24.2714 C   0  0  0  0  0  0
    4.5890   54.7198   24.9867 C   0  0  0  0  0  0
    5.8543   54.8323   24.4209 C   0  0  0  0  0  0
    6.1031   54.3205   23.1510 C   0  0  0  0  0  0
    5.0791   53.6942   22.4433 C   0  0  0  0  0  0
    7.1044   55.6485   25.2828 Cl  0  0  0  0  0  0
   -0.3001   50.4046   23.3447 C   0  0  0  0  0  0
   -0.6947   51.0663   24.4351 F   0  0  0  0  0  0
   -1.4055   49.9721   22.7362 F   0  0  0  0  0  0
    0.3839   49.3383   23.7627 F   0  0  0  0  0  0
    1.1985   42.3680   12.7675 H   0  0  0  0  0  0
    0.0550   42.8235   14.0225 H   0  0  0  0  0  0
    1.7248   42.3789   14.4467 H   0  0  0  0  0  0
    2.3179   46.6725   13.4406 H   0  0  0  0  0  0
    2.4755   48.2806   15.2824 H   0  0  0  0  0  0
    0.6733   43.7539   16.0926 H   0  0  0  0  0  0
   -0.1019   44.0113   19.6168 H   0  0  0  0  0  0
   -0.7422   43.8742   17.9818 H   0  0  0  0  0  0
    0.8895   43.2726   18.3618 H   0  0  0  0  0  0
    2.6663   48.4234   17.7403 H   0  0  0  0  0  0
    3.1043   50.2497   18.7016 H   0  0  0  0  0  0
    1.2862   52.6267   23.9400 H   0  0  0  0  0  0
    2.3037   51.2582   23.6964 H   0  0  0  0  0  0
    3.5827   52.6362   20.3910 H   0  0  0  0  0  0
    2.5890   54.0696   24.7334 H   0  0  0  0  0  0
    4.3945   55.1271   25.9687 H   0  0  0  0  0  0
    7.0867   54.4145   22.7153 H   0  0  0  0  0  0
    5.3015   53.3031   21.4622 H   0  0  0  0  0  0
  1  2  1  0  0  0
  1 36  1  0  0  0
  1 37  1  0  0  0
  1 38  1  0  0  0
  2  3  1  0  0  0
  3  8  2  0  0  0
  3  4  1  0  0  0
  4  5  2  0  0  0
  4 39  1  0  0  0
  5  6  1  0  0  0
  5 40  1  0  0  0
  6  7  2  0  0  0
  6 11  1  0  0  0
  7  8  1  0  0  0
  7  9  1  0  0  0
  8 41  1  0  0  0
  9 10  1  0  0  0
 10 42  1  0  0  0
 10 43  1  0  0  0
 10 44  1  0  0  0
 11 12  1  0  0  0
 11 45  1  0  0  0
 12 13  2  0  0  0
 12 14  1  0  0  0
 14 18  2  0  0  0
 14 15  1  0  0  0
 15 16  2  0  0  0
 15 46  1  0  0  0
 16 24  1  0  0  0
 16 17  1  0  0  0
 17 18  1  0  0  0
 17 19  1  0  0  0
 19 20  1  0  0  0
 19 21  1  0  0  0
 19 32  1  0  0  0
 21 22  1  0  0  0
 21 47  1  0  0  0
 21 48  1  0  0  0
 22 23  1  0  0  0
 22 24  1  0  0  0
 22 25  1  0  0  0
 24 49  1  0  0  0
 25 30  2  0  0  0
 25 26  1  0  0  0
 26 27  2  0  0  0
 26 50  1  0  0  0
 27 28  1  0  0  0
 27 51  1  0  0  0
 28 29  2  0  0  0
 28 31  1  0  0  0
 29 30  1  0  0  0
 29 52  1  0  0  0
 30 53  1  0  0  0
 32 33  1  0  0  0
 32 34  1  0  0  0
 32 35  1  0  0  0
M  END
> <i_i_glide_confnum>
2

> <i_i_glide_lignum>
4072

> <i_i_glide_posenum>
128

> <i_i_glide_rotatable_bonds>
7

> <i_m_Source_File_Index>
4482

> <b_m_subgroup_collapsed>
0

> <r_i_docking_score>
-4.33413

> <r_i_glide_ecoul>
-5.08114

> <r_i_glide_eff_state_penalty>
0

> <r_i_glide_einternal>
11.0891

> <r_i_glide_emodel>
-43.177

> <r_i_glide_energy>
-37.705

> <r_i_glide_erotb>
0.350852

> <r_i_glide_esite>
-0.133295

> <r_i_glide_evdw>
-32.6239

> <r_i_glide_gscore>
-4.33413

> <r_i_glide_hbond>
-0.151508

> <r_i_glide_ligand_efficiency>
-0.131337

> <r_i_glide_ligand_efficiency_ln>
-0.963888

> <r_i_glide_ligand_efficiency_sa>
-0.421269

> <r_i_glide_lipo>
-1.77054

> <r_i_glide_metal>
0

> <r_i_glide_rewards>
-0.236267

> <s_i_glide_gridfile>
wee1_glide-grid

> <s_m_Source_File>
wee1_decoys_glide_SP.sdf

> <s_m_Source_Path>
/Users/zhangxujun/Desktop

> <s_m_entry_id>
4757

> <s_m_entry_name>
wee1_decoys_glide_SP.4482

> <s_m_subgroup_title>
wee1_decoys_glide_SP

> <s_m_subgroupid>
wee1_decoys_glide_SP


$$$$
