ZINC44900885_4652
                    3D
 Schrodinger Suite 2024-2.
 61 64  0  0  1  0            999 V2000
    6.4701   54.1628   25.2690 C   0  0  0  0  0  0
    5.4232   54.2931   26.3597 C   0  0  0  0  0  0
    4.0645   54.2977   26.0334 C   0  0  0  0  0  0
    3.1090   54.3969   27.0420 C   0  0  0  0  0  0
    3.5136   54.4848   28.3721 C   0  0  0  0  0  0
    4.8678   54.4931   28.6997 C   0  0  0  0  0  0
    5.8252   54.3944   27.6930 C   0  0  0  0  0  0
    2.3042   54.5862   29.6554 S   0  0  0  0  0  0
    1.8554   52.8681   30.0557 C   0  0  0  0  0  0
    0.9424   52.2538   29.0041 C   0  0  0  0  0  0
    1.4803   51.6973   27.8448 C   0  0  0  0  0  0
    0.6441   51.1500   26.8746 C   0  0  0  0  0  0
   -0.7470   51.1279   27.0609 C   0  0  0  0  0  0
   -1.2749   51.6889   28.2317 C   0  0  0  0  0  0
   -0.4385   52.2421   29.1983 C   0  0  0  0  0  0
   -1.6819   50.4783   26.0580 C   0  0  0  0  0  0
   -2.8654   50.8228   25.9985 O   0  0  0  0  0  0
   -1.1408   49.5100   25.2822 N   0  0  0  0  0  0
   -1.8034   48.5839   24.4545 C   0  0  0  0  0  0
   -1.1000   48.0963   23.3527 C   0  0  0  0  0  0
   -1.6605   47.1093   22.5432 C   0  0  0  0  0  0
   -2.9063   46.5609   22.8531 C   0  0  0  0  0  0
   -3.6261   47.0723   23.9395 C   0  0  0  0  0  0
   -3.0796   48.0776   24.7379 C   0  0  0  0  0  0
   -3.6063   45.2152   21.8622 S   0  0  0  0  0  0
   -4.6116   44.6081   22.7415 O   0  0  0  0  0  0
   -4.0957   45.8743   20.6472 O   0  0  0  0  0  0
   -2.3659   44.2523   21.6817 N   0  5  0  0  0  0
   -1.5033   44.2334   20.6144 C   0  0  0  0  0  0
   -1.6164   45.0968   19.5652 N   0  0  0  0  0  0
   -0.7112   45.0084   18.5583 C   0  0  0  0  0  0
    0.3231   44.0742   18.5683 C   0  0  0  0  0  0
    0.3902   43.2331   19.6771 C   0  0  0  0  0  0
   -0.5144   43.2967   20.6860 N   0  0  0  0  0  0
    1.5046   42.2179   19.8457 C   0  0  0  0  0  0
   -0.8825   45.9970   17.4231 C   0  0  0  0  0  0
    7.1042   53.2986   25.4677 H   0  0  0  0  0  0
    7.1102   55.0446   25.2474 H   0  0  0  0  0  0
    6.0251   54.0327   24.2818 H   0  0  0  0  0  0
    3.7460   54.2180   25.0041 H   0  0  0  0  0  0
    2.0575   54.3910   26.7948 H   0  0  0  0  0  0
    5.1781   54.5801   29.7282 H   0  0  0  0  0  0
    6.8740   54.3981   27.9541 H   0  0  0  0  0  0
    2.7613   52.2711   30.1667 H   0  0  0  0  0  0
    1.3572   52.8534   31.0266 H   0  0  0  0  0  0
    2.5490   51.6931   27.6898 H   0  0  0  0  0  0
    1.0980   50.7374   25.9853 H   0  0  0  0  0  0
   -2.3402   51.6692   28.4148 H   0  0  0  0  0  0
   -0.8664   52.6520   30.1017 H   0  0  0  0  0  0
   -0.1426   49.3898   25.3403 H   0  0  0  0  0  0
   -0.1146   48.4753   23.1199 H   0  0  0  0  0  0
   -1.1006   46.7465   21.6948 H   0  0  0  0  0  0
   -4.6019   46.6778   24.1843 H   0  0  0  0  0  0
   -3.6339   48.4247   25.5976 H   0  0  0  0  0  0
    1.0484   44.0226   17.7694 H   0  0  0  0  0  0
    2.1293   42.1571   18.9537 H   0  0  0  0  0  0
    2.1427   42.4979   20.6845 H   0  0  0  0  0  0
    1.1053   41.2252   20.0491 H   0  0  0  0  0  0
   -0.0978   45.8902   16.6739 H   0  0  0  0  0  0
   -1.8439   45.8470   16.9318 H   0  0  0  0  0  0
   -0.8489   47.0185   17.8031 H   0  0  0  0  0  0
  1  2  1  0  0  0
  1 37  1  0  0  0
  1 38  1  0  0  0
  1 39  1  0  0  0
  2  7  2  0  0  0
  2  3  1  0  0  0
  3  4  2  0  0  0
  3 40  1  0  0  0
  4  5  1  0  0  0
  4 41  1  0  0  0
  5  6  2  0  0  0
  5  8  1  0  0  0
  6  7  1  0  0  0
  6 42  1  0  0  0
  7 43  1  0  0  0
  8  9  1  0  0  0
  9 10  1  0  0  0
  9 44  1  0  0  0
  9 45  1  0  0  0
 10 15  2  0  0  0
 10 11  1  0  0  0
 11 12  2  0  0  0
 11 46  1  0  0  0
 12 13  1  0  0  0
 12 47  1  0  0  0
 13 14  2  0  0  0
 13 16  1  0  0  0
 14 15  1  0  0  0
 14 48  1  0  0  0
 15 49  1  0  0  0
 16 17  2  0  0  0
 16 18  1  0  0  0
 18 19  1  0  0  0
 18 50  1  0  0  0
 19 24  2  0  0  0
 19 20  1  0  0  0
 20 21  2  0  0  0
 20 51  1  0  0  0
 21 22  1  0  0  0
 21 52  1  0  0  0
 22 23  2  0  0  0
 22 25  1  0  0  0
 23 24  1  0  0  0
 23 53  1  0  0  0
 24 54  1  0  0  0
 25 26  2  0  0  0
 25 27  2  0  0  0
 25 28  1  0  0  0
 28 29  1  0  0  0
 29 34  2  0  0  0
 29 30  1  0  0  0
 30 31  2  0  0  0
 31 32  1  0  0  0
 31 36  1  0  0  0
 32 33  2  0  0  0
 32 55  1  0  0  0
 33 34  1  0  0  0
 33 35  1  0  0  0
 35 56  1  0  0  0
 35 57  1  0  0  0
 35 58  1  0  0  0
 36 59  1  0  0  0
 36 60  1  0  0  0
 36 61  1  0  0  0
M  CHG  1  28  -1
M  END
> <i_i_glide_confnum>
255

> <i_i_glide_lignum>
4653

> <i_i_glide_posenum>
251

> <i_i_glide_rotatable_bonds>
9

> <i_m_Source_File_Index>
1452

> <b_m_subgroup_collapsed>
0

> <r_i_docking_score>
-4.21691

> <r_i_glide_ecoul>
-2.4313

> <r_i_glide_eff_state_penalty>
0

> <r_i_glide_einternal>
9.90401

> <r_i_glide_emodel>
-53.8071

> <r_i_glide_energy>
-45.5645

> <r_i_glide_erotb>
0.689666

> <r_i_glide_esite>
-0.237418

> <r_i_glide_evdw>
-43.1332

> <r_i_glide_gscore>
-4.21691

> <r_i_glide_hbond>
-0.36

> <r_i_glide_ligand_efficiency>
-0.117136

> <r_i_glide_ligand_efficiency_ln>
-0.920016

> <r_i_glide_ligand_efficiency_sa>
-0.386776

> <r_i_glide_lipo>
-2.3076

> <r_i_glide_metal>
0

> <r_i_glide_rewards>
0.5198

> <s_i_glide_gridfile>
wee1_glide-grid

> <s_m_Source_File>
wee1_decoys_glide_SP.sdf

> <s_m_Source_Path>
/Users/zhangxujun/Desktop

> <s_m_entry_id>
1727

> <s_m_entry_name>
wee1_decoys_glide_SP.1452

> <s_m_subgroup_title>
wee1_decoys_glide_SP

> <s_m_subgroupid>
wee1_decoys_glide_SP


$$$$
