ZINC28198341_2629
                    3D
 Schrodinger Suite 2024-2.
 48 50  0  0  1  0            999 V2000
    3.5787   53.3053   19.5540 C   0  0  0  0  0  0
    4.3176   53.7258   20.8112 C   0  0  0  0  0  0
    3.8557   53.3362   22.0671 C   0  0  0  0  0  0
    4.5532   53.7057   23.2151 C   0  0  0  0  0  0
    5.7200   54.4775   23.1353 C   0  0  0  0  0  0
    6.1901   54.8584   21.8627 C   0  0  0  0  0  0
    5.4763   54.4959   20.7156 C   0  0  0  0  0  0
    7.5051   55.5934   21.6856 C   0  0  0  0  0  0
    6.6336   54.9452   24.6086 S   0  0  0  0  0  0
    5.6569   54.4763   26.0107 C   0  0  0  0  0  0
    6.2349   53.7047   27.0127 C   0  0  0  0  0  0
    5.4602   53.2970   28.0946 C   0  0  0  0  0  0
    4.1142   53.6484   28.2124 C   0  0  0  0  0  0
    3.5792   54.4968   27.2325 C   0  0  0  0  0  0
    4.3361   54.8968   26.1367 C   0  0  0  0  0  0
    3.4208   53.0935   29.2599 N   0  5  0  0  0  0
    1.9563   53.4613   29.6818 S   0  0  0  0  0  0
    1.6214   54.8772   29.4925 O   0  0  0  0  0  0
    1.6039   52.8717   30.9756 O   0  0  0  0  0  0
    0.8441   52.5977   28.5290 C   0  0  0  0  0  0
    0.9751   52.4396   27.1461 C   0  0  0  0  0  0
   -0.1567   51.8015   26.6321 C   0  0  0  0  0  0
   -1.0005   51.5697   27.7098 N   0  0  0  0  0  0
   -0.3719   52.0178   28.8486 C   0  0  0  0  0  0
   -2.3110   50.9307   27.7008 C   0  0  0  0  0  0
   -0.4803   51.5564   25.2443 C   0  0  0  0  0  0
   -1.6287   51.4259   24.8317 O   0  0  0  0  0  0
    0.5683   51.4902   24.4254 N   0  0  0  0  0  0
    3.4373   54.1636   18.8958 H   0  0  0  0  0  0
    4.1559   52.5592   19.0053 H   0  0  0  0  0  0
    2.5907   52.8998   19.7757 H   0  0  0  0  0  0
    2.9635   52.7344   22.1562 H   0  0  0  0  0  0
    4.1808   53.3453   24.1588 H   0  0  0  0  0  0
    5.8406   54.7801   19.7388 H   0  0  0  0  0  0
    7.7127   55.8597   20.6488 H   0  0  0  0  0  0
    7.5226   56.4967   22.2844 H   0  0  0  0  0  0
    8.3038   54.9528   22.0502 H   0  0  0  0  0  0
    7.2655   53.3897   26.9414 H   0  0  0  0  0  0
    5.9044   52.6707   28.8500 H   0  0  0  0  0  0
    2.5552   54.8284   27.2802 H   0  0  0  0  0  0
    3.8852   55.5193   25.3811 H   0  0  0  0  0  0
    1.8076   52.7826   26.5551 H   0  0  0  0  0  0
   -0.8572   51.9138   29.8095 H   0  0  0  0  0  0
   -2.5537   50.5525   28.6945 H   0  0  0  0  0  0
   -3.0614   51.6620   27.4044 H   0  0  0  0  0  0
   -2.3149   50.0954   27.0009 H   0  0  0  0  0  0
    1.5048   51.5376   24.7933 H   0  0  0  0  0  0
    0.4118   51.3164   23.4454 H   0  0  0  0  0  0
  1  2  1  0  0  0
  1 29  1  0  0  0
  1 30  1  0  0  0
  1 31  1  0  0  0
  2  7  2  0  0  0
  2  3  1  0  0  0
  3  4  2  0  0  0
  3 32  1  0  0  0
  4  5  1  0  0  0
  4 33  1  0  0  0
  5  6  2  0  0  0
  5  9  1  0  0  0
  6  7  1  0  0  0
  6  8  1  0  0  0
  7 34  1  0  0  0
  8 35  1  0  0  0
  8 36  1  0  0  0
  8 37  1  0  0  0
  9 10  1  0  0  0
 10 15  2  0  0  0
 10 11  1  0  0  0
 11 12  2  0  0  0
 11 38  1  0  0  0
 12 13  1  0  0  0
 12 39  1  0  0  0
 13 14  2  0  0  0
 13 16  1  0  0  0
 14 15  1  0  0  0
 14 40  1  0  0  0
 15 41  1  0  0  0
 16 17  1  0  0  0
 17 18  2  0  0  0
 17 19  2  0  0  0
 17 20  1  0  0  0
 20 24  2  0  0  0
 20 21  1  0  0  0
 21 22  2  0  0  0
 21 42  1  0  0  0
 22 23  1  0  0  0
 22 26  1  0  0  0
 23 24  1  0  0  0
 23 25  1  0  0  0
 24 43  1  0  0  0
 25 44  1  0  0  0
 25 45  1  0  0  0
 25 46  1  0  0  0
 26 27  2  0  0  0
 26 28  1  0  0  0
 28 47  1  0  0  0
 28 48  1  0  0  0
M  CHG  1  16  -1
M  END
> <i_i_glide_confnum>
25

> <i_i_glide_lignum>
2630

> <i_i_glide_posenum>
389

> <i_i_glide_rotatable_bonds>
6

> <i_m_Source_File_Index>
2139

> <b_m_subgroup_collapsed>
0

> <r_i_docking_score>
-6.04656

> <r_i_glide_ecoul>
-3.49957

> <r_i_glide_eff_state_penalty>
0

> <r_i_glide_einternal>
3.25068

> <r_i_glide_emodel>
-65.938

> <r_i_glide_energy>
-49.3598

> <r_i_glide_erotb>
0.574358

> <r_i_glide_esite>
-0.12008

> <r_i_glide_evdw>
-45.8602

> <r_i_glide_gscore>
-6.04656

> <r_i_glide_hbond>
0

> <r_i_glide_ligand_efficiency>
-0.215948

> <r_i_glide_ligand_efficiency_ln>
-1.39572

> <r_i_glide_ligand_efficiency_sa>
-0.655747

> <r_i_glide_lipo>
-3.35065

> <r_i_glide_metal>
0

> <r_i_glide_rewards>
-0.33224

> <s_i_glide_gridfile>
wee1_glide-grid

> <s_m_Source_File>
wee1_decoys_glide_SP.sdf

> <s_m_Source_Path>
/Users/zhangxujun/Desktop

> <s_m_entry_id>
2414

> <s_m_entry_name>
wee1_decoys_glide_SP.2139

> <s_m_subgroup_title>
wee1_decoys_glide_SP

> <s_m_subgroupid>
wee1_decoys_glide_SP


$$$$
