ZINC12549417_5030
                    3D
 Schrodinger Suite 2024-2.
 70 73  0  0  1  0            999 V2000
    8.2789   55.8733   21.1523 C   0  0  0  0  0  0
    6.9669   55.2965   20.6621 C   0  0  0  0  0  0
    6.7967   55.0236   19.3035 C   0  0  0  0  0  0
    5.6213   54.4213   18.8486 C   0  0  0  0  0  0
    4.6034   54.1239   19.7552 C   0  0  0  0  0  0
    4.7518   54.3997   21.1168 C   0  0  0  0  0  0
    5.9495   54.9808   21.5700 C   0  0  0  0  0  0
    3.6401   54.0965   21.9255 N   0  0  0  0  0  0
    3.5051   54.0954   23.2689 C   0  0  0  0  0  0
    4.4162   54.3341   24.0667 O   0  0  0  0  0  0
    2.0754   53.8190   23.7803 C   0  0  0  0  0  0
    2.0727   53.1309   25.0533 N   0  0  0  0  0  0
    0.9516   52.5106   25.6426 C   0  0  0  0  0  0
   -0.0369   51.9538   24.8178 C   0  0  0  0  0  0
   -1.2011   51.3986   25.3511 C   0  0  0  0  0  0
   -1.3868   51.3954   26.7295 C   0  0  0  0  0  0
   -0.3984   51.9043   27.5616 C   0  0  0  0  0  0
    0.7830   52.4694   27.0547 C   0  0  0  0  0  0
    1.6982   52.9588   27.9945 N   0  0  0  0  0  0
    1.2562   53.7650   29.1469 C   0  0  0  0  0  0
    1.8904   53.2424   30.4464 C   0  0  0  0  0  0
    3.4256   53.3121   30.3729 C   0  0  0  0  0  0
    3.9186   52.6329   29.0856 C   0  0  0  0  0  0
    3.1555   53.1101   27.8247 C   0  0  0  0  0  0
   -2.4540   50.6934   24.2766 S   0  0  0  0  0  0
   -3.6997   51.4221   24.5500 O   0  0  0  0  0  0
   -1.8897   50.6789   22.9184 O   0  0  0  0  0  0
   -2.6586   49.0054   24.7931 N   0  0  0  0  0  0
   -1.4278   48.1759   24.7618 C   0  0  0  0  0  0
   -1.7842   46.6778   24.8446 C   0  0  0  0  0  0
   -2.6955   46.3651   26.0493 C   0  0  0  0  0  0
   -3.9275   47.2932   26.0810 C   0  0  0  0  0  0
   -3.5245   48.7754   25.9820 C   0  0  0  0  0  0
    5.4417   54.0962   17.3787 C   0  0  0  0  0  0
    8.1393   56.4901   22.0397 H   0  0  0  0  0  0
    8.7471   56.4925   20.3863 H   0  0  0  0  0  0
    8.9721   55.0696   21.3957 H   0  0  0  0  0  0
    7.5875   55.2520   18.6052 H   0  0  0  0  0  0
    3.6922   53.6699   19.3890 H   0  0  0  0  0  0
    6.1059   55.2024   22.6144 H   0  0  0  0  0  0
    2.8072   53.8809   21.3983 H   0  0  0  0  0  0
    1.6103   54.7987   23.8760 H   0  0  0  0  0  0
    1.5174   53.3085   22.9928 H   0  0  0  0  0  0
    2.7266   53.4977   25.7309 H   0  0  0  0  0  0
    0.0864   51.9477   23.7470 H   0  0  0  0  0  0
   -2.2788   50.9826   27.1680 H   0  0  0  0  0  0
   -0.5608   51.8340   28.6279 H   0  0  0  0  0  0
    1.5489   54.8033   28.9705 H   0  0  0  0  0  0
    0.1711   53.7854   29.2520 H   0  0  0  0  0  0
    1.5041   53.8248   31.2801 H   0  0  0  0  0  0
    1.5584   52.2196   30.6296 H   0  0  0  0  0  0
    3.8792   52.8430   31.2466 H   0  0  0  0  0  0
    3.7522   54.3528   30.3694 H   0  0  0  0  0  0
    3.8376   51.5495   29.1700 H   0  0  0  0  0  0
    4.9846   52.8296   28.9553 H   0  0  0  0  0  0
    3.5073   52.4976   26.9990 H   0  0  0  0  0  0
    3.3985   54.1488   27.5834 H   0  0  0  0  0  0
   -0.8567   48.3834   23.8552 H   0  0  0  0  0  0
   -0.8451   48.3887   25.6633 H   0  0  0  0  0  0
   -2.2698   46.3708   23.9181 H   0  0  0  0  0  0
   -0.8665   46.0968   24.9136 H   0  0  0  0  0  0
   -2.1257   46.4971   26.9692 H   0  0  0  0  0  0
   -3.0102   45.3224   26.0451 H   0  0  0  0  0  0
   -4.4945   47.1263   26.9993 H   0  0  0  0  0  0
   -4.6031   47.0427   25.2605 H   0  0  0  0  0  0
   -2.9389   48.9651   26.8812 H   0  0  0  0  0  0
   -4.4136   49.4067   25.9313 H   0  0  0  0  0  0
    4.4230   54.3214   17.0609 H   0  0  0  0  0  0
    6.1073   54.6852   16.7478 H   0  0  0  0  0  0
    5.6231   53.0352   17.1987 H   0  0  0  0  0  0
  1  2  1  0  0  0
  1 35  1  0  0  0
  1 36  1  0  0  0
  1 37  1  0  0  0
  2  7  2  0  0  0
  2  3  1  0  0  0
  3  4  2  0  0  0
  3 38  1  0  0  0
  4  5  1  0  0  0
  4 34  1  0  0  0
  5  6  2  0  0  0
  5 39  1  0  0  0
  6  7  1  0  0  0
  6  8  1  0  0  0
  7 40  1  0  0  0
  8  9  1  0  0  0
  8 41  1  0  0  0
  9 10  2  0  0  0
  9 11  1  0  0  0
 11 12  1  0  0  0
 11 42  1  0  0  0
 11 43  1  0  0  0
 12 13  1  0  0  0
 12 44  1  0  0  0
 13 18  2  0  0  0
 13 14  1  0  0  0
 14 15  2  0  0  0
 14 45  1  0  0  0
 15 16  1  0  0  0
 15 25  1  0  0  0
 16 17  2  0  0  0
 16 46  1  0  0  0
 17 18  1  0  0  0
 17 47  1  0  0  0
 18 19  1  0  0  0
 19 24  1  0  0  0
 19 20  1  0  0  0
 20 21  1  0  0  0
 20 48  1  0  0  0
 20 49  1  0  0  0
 21 22  1  0  0  0
 21 50  1  0  0  0
 21 51  1  0  0  0
 22 23  1  0  0  0
 22 52  1  0  0  0
 22 53  1  0  0  0
 23 24  1  0  0  0
 23 54  1  0  0  0
 23 55  1  0  0  0
 24 56  1  0  0  0
 24 57  1  0  0  0
 25 26  2  0  0  0
 25 27  2  0  0  0
 25 28  1  0  0  0
 28 33  1  0  0  0
 28 29  1  0  0  0
 29 30  1  0  0  0
 29 58  1  0  0  0
 29 59  1  0  0  0
 30 31  1  0  0  0
 30 60  1  0  0  0
 30 61  1  0  0  0
 31 32  1  0  0  0
 31 62  1  0  0  0
 31 63  1  0  0  0
 32 33  1  0  0  0
 32 64  1  0  0  0
 32 65  1  0  0  0
 33 66  1  0  0  0
 33 67  1  0  0  0
 34 68  1  0  0  0
 34 69  1  0  0  0
 34 70  1  0  0  0
M  END
> <i_i_glide_confnum>
315

> <i_i_glide_lignum>
5031

> <i_i_glide_posenum>
196

> <i_i_glide_rotatable_bonds>
8

> <i_m_Source_File_Index>
845

> <b_m_subgroup_collapsed>
0

> <r_i_docking_score>
-3.62256

> <r_i_glide_ecoul>
-3.953

> <r_i_glide_eff_state_penalty>
0

> <r_i_glide_einternal>
4.47609

> <r_i_glide_emodel>
-50.9675

> <r_i_glide_energy>
-45.637

> <r_i_glide_erotb>
0.691709

> <r_i_glide_esite>
-0.0373307

> <r_i_glide_evdw>
-41.684

> <r_i_glide_gscore>
-3.62256

> <r_i_glide_hbond>
-0.0456581

> <r_i_glide_ligand_efficiency>
-0.106546

> <r_i_glide_ligand_efficiency_ln>
-0.800325

> <r_i_glide_ligand_efficiency_sa>
-0.345167

> <r_i_glide_lipo>
-1.87552

> <r_i_glide_metal>
0

> <r_i_glide_rewards>
0.321395

> <s_i_glide_gridfile>
wee1_glide-grid

> <s_m_Source_File>
wee1_decoys_glide_SP.sdf

> <s_m_Source_Path>
/Users/zhangxujun/Desktop

> <s_m_entry_id>
1120

> <s_m_entry_name>
wee1_decoys_glide_SP.845

> <s_m_subgroup_title>
wee1_decoys_glide_SP

> <s_m_subgroupid>
wee1_decoys_glide_SP


$$$$
