ZINC08386049_5929
                    3D
 Schrodinger Suite 2024-2.
 48 51  0  0  1  0            999 V2000
    8.0994   53.0131   15.3862 C   0  0  0  0  0  0
    7.3734   53.8897   14.5824 C   0  0  0  0  0  0
    6.1963   54.4555   15.0663 C   0  0  0  0  0  0
    5.7455   54.1425   16.3522 C   0  0  0  0  0  0
    6.4854   53.2665   17.1536 C   0  0  0  0  0  0
    7.6603   52.6984   16.6692 C   0  0  0  0  0  0
    4.4497   54.7716   16.8924 C   0  0  0  0  0  0
    4.2702   56.2796   16.6894 C   0  0  0  0  0  0
    4.4897   55.7469   18.0848 C   0  0  2  0  0  0
    3.6430   55.7713   18.7729 H   0  0  0  0  0  0
    5.8470   56.0761   18.7443 C   0  0  0  0  0  0
    6.7997   56.5073   18.0875 O   0  0  0  0  0  0
    5.9044   55.7839   20.0553 N   0  0  0  0  0  0
    7.0522   55.7529   20.7565 N   0  0  0  0  0  0
    6.9982   55.2967   21.9498 C   0  0  0  0  0  0
    5.8898   54.6756   22.7319 C   0  0  0  0  0  0
    4.8776   53.9399   22.0899 C   0  0  0  0  0  0
    3.7468   53.4750   22.7694 C   0  0  0  0  0  0
    3.6576   53.6978   24.1454 C   0  0  0  0  0  0
    4.6865   54.3308   24.8351 C   0  0  0  0  0  0
    5.8049   54.8217   24.1419 C   0  0  0  0  0  0
    4.5101   54.4963   26.7321 Br  0  0  0  0  0  0
    2.6728   52.7466   22.0503 N   0  3  0  0  0  0
    2.8291   52.4967   20.8591 O   0  0  0  0  0  0
    1.6706   52.4145   22.6776 O   0  5  0  0  0  0
    3.1959   53.8610   16.8018 C   0  0  0  0  0  0
    1.9198   54.3641   17.1040 C   0  0  0  0  0  0
    0.7914   53.5527   17.0316 C   0  0  0  0  0  0
    0.9236   52.2204   16.6571 C   0  0  0  0  0  0
    2.1764   51.6967   16.3550 C   0  0  0  0  0  0
    3.3017   52.5121   16.4233 C   0  0  0  0  0  0
    9.0109   52.5717   15.0109 H   0  0  0  0  0  0
    7.7216   54.1287   13.5890 H   0  0  0  0  0  0
    5.6330   55.1324   14.4421 H   0  0  0  0  0  0
    6.1383   53.0106   18.1447 H   0  0  0  0  0  0
    8.2235   52.0118   17.2828 H   0  0  0  0  0  0
    5.0625   56.8547   16.2053 H   0  0  0  0  0  0
    3.2937   56.6892   16.4324 H   0  0  0  0  0  0
    5.0899   55.4464   20.5454 H   0  0  0  0  0  0
    7.9045   55.3750   22.5244 H   0  0  0  0  0  0
    4.9481   53.7239   21.0335 H   0  0  0  0  0  0
    2.8034   53.3396   24.7028 H   0  0  0  0  0  0
    1.7840   55.3872   17.4171 H   0  0  0  0  0  0
   -0.1804   53.9546   17.2755 H   0  0  0  0  0  0
    0.0519   51.5849   16.6090 H   0  0  0  0  0  0
    2.2872   50.6566   16.0827 H   0  0  0  0  0  0
    4.2556   52.0609   16.1961 H   0  0  0  0  0  0
    6.7046   55.4325   24.8155 O   0  5  0  0  0  0
  1  6  2  0  0  0
  1  2  1  0  0  0
  1 32  1  0  0  0
  2  3  2  0  0  0
  2 33  1  0  0  0
  3  4  1  0  0  0
  3 34  1  0  0  0
  4  5  2  0  0  0
  4  7  1  0  0  0
  5  6  1  0  0  0
  5 35  1  0  0  0
  6 36  1  0  0  0
  7  9  1  0  0  0
  7  8  1  0  0  0
  7 26  1  0  0  0
  8  9  1  0  0  0
  8 37  1  0  0  0
  8 38  1  0  0  0
  9 10  1  0  0  0
  9 11  1  0  0  0
 11 12  2  0  0  0
 11 13  1  0  0  0
 13 14  1  0  0  0
 13 39  1  0  0  0
 14 15  2  0  0  0
 15 16  1  0  0  0
 15 40  1  0  0  0
 16 21  2  0  0  0
 16 17  1  0  0  0
 17 18  2  0  0  0
 17 41  1  0  0  0
 18 19  1  0  0  0
 18 23  1  0  0  0
 19 20  2  0  0  0
 19 42  1  0  0  0
 20 21  1  0  0  0
 20 22  1  0  0  0
 21 48  1  0  0  0
 23 24  2  0  0  0
 23 25  1  0  0  0
 26 31  2  0  0  0
 26 27  1  0  0  0
 27 28  2  0  0  0
 27 43  1  0  0  0
 28 29  1  0  0  0
 28 44  1  0  0  0
 29 30  2  0  0  0
 29 45  1  0  0  0
 30 31  1  0  0  0
 30 46  1  0  0  0
 31 47  1  0  0  0
M  CHG  3  23   1  25  -1  48  -1
M  END
> <i_i_glide_confnum>
149

> <i_i_glide_lignum>
5930

> <i_i_glide_posenum>
284

> <i_i_glide_rotatable_bonds>
7

> <i_m_Source_File_Index>
58

> <b_m_subgroup_collapsed>
0

> <r_i_docking_score>
-3.57508

> <r_i_glide_ecoul>
-1.25457

> <r_i_glide_eff_state_penalty>
0

> <r_i_glide_einternal>
6.00807

> <r_i_glide_emodel>
-38.0354

> <r_i_glide_energy>
-34.6877

> <r_i_glide_erotb>
0.529422

> <r_i_glide_esite>
-0.0117033

> <r_i_glide_evdw>
-33.4331

> <r_i_glide_gscore>
-3.57508

> <r_i_glide_hbond>
-0.026139

> <r_i_glide_ligand_efficiency>
-0.115325

> <r_i_glide_ligand_efficiency_ln>
-0.80629

> <r_i_glide_ligand_efficiency_sa>
-0.36228

> <r_i_glide_lipo>
-1.68415

> <r_i_glide_metal>
0

> <r_i_glide_rewards>
-0.522667

> <s_i_glide_gridfile>
wee1_glide-grid

> <s_m_Source_File>
wee1_decoys_glide_SP.sdf

> <s_m_Source_Path>
/Users/zhangxujun/Desktop

> <s_m_entry_id>
333

> <s_m_entry_name>
wee1_decoys_glide_SP.58

> <s_m_subgroup_title>
wee1_decoys_glide_SP

> <s_m_subgroupid>
wee1_decoys_glide_SP


$$$$
