ZINC06812811_1714
                    3D
 Schrodinger Suite 2024-2.
 35 37  0  0  1  0            999 V2000
    2.0659   54.4948   23.3781 C   0  0  0  0  0  0
    3.4549   54.2873   23.9258 C   0  0  0  0  0  0
    3.9692   54.2441   25.2185 C   0  0  0  0  0  0
    5.3560   54.1172   25.0095 C   0  0  0  0  0  0
    5.7097   54.0534   23.7486 N   0  0  0  0  0  0
    4.5408   54.1102   23.1051 N   0  0  0  0  0  0
    4.4901   54.0925   22.0967 H   0  0  0  0  0  0
    6.3082   54.0588   25.9964 O   0  0  0  0  0  0
    5.8126   53.9262   27.2552 C   0  0  0  0  0  0
    4.5090   53.9696   27.6250 C   0  0  0  0  0  0
    3.3660   54.2837   26.6336 C   0  0  2  0  0  0
    3.0987   55.3233   26.8028 H   0  0  0  0  0  0
    2.0577   53.4984   26.8852 C   0  0  0  0  0  0
    1.6223   52.4977   26.0060 C   0  0  0  0  0  0
    0.4969   51.7174   26.2683 C   0  0  0  0  0  0
   -0.2349   51.9604   27.4398 C   0  0  0  0  0  0
    0.1468   52.9873   28.3022 C   0  0  0  0  0  0
    1.2721   53.7623   28.0196 C   0  0  0  0  0  0
    1.5778   54.7909   28.8445 F   0  0  0  0  0  0
    0.1996   50.7449   25.3355 O   0  0  0  0  0  0
   -0.7933   49.7713   25.6374 C   0  0  0  0  0  0
    4.1785   53.7149   28.9875 C   0  0  0  0  0  0
    3.9008   53.4694   30.0822 N   0  0  0  0  0  0
    6.8783   53.6968   28.0795 N   0  0  0  0  0  0
    1.5042   55.1869   24.0015 H   0  0  0  0  0  0
    1.4988   53.5659   23.3299 H   0  0  0  0  0  0
    2.0839   54.8968   22.3686 H   0  0  0  0  0  0
    2.1960   52.2609   25.1249 H   0  0  0  0  0  0
   -1.1026   51.3675   27.6903 H   0  0  0  0  0  0
   -0.4321   53.1859   29.1911 H   0  0  0  0  0  0
   -0.9165   49.1083   24.7812 H   0  0  0  0  0  0
   -0.4895   49.1543   26.4813 H   0  0  0  0  0  0
   -1.7647   50.2188   25.8466 H   0  0  0  0  0  0
    6.7917   53.8012   29.0803 H   0  0  0  0  0  0
    7.7195   53.2735   27.7208 H   0  0  0  0  0  0
  1  2  1  0  0  0
  1 25  1  0  0  0
  1 26  1  0  0  0
  1 27  1  0  0  0
  2  6  1  0  0  0
  2  3  2  0  0  0
  3 11  1  0  0  0
  3  4  1  0  0  0
  4  5  2  0  0  0
  4  8  1  0  0  0
  5  6  1  0  0  0
  6  7  1  0  0  0
  8  9  1  0  0  0
  9 10  2  0  0  0
  9 24  1  0  0  0
 10 11  1  0  0  0
 10 22  1  0  0  0
 11 12  1  0  0  0
 11 13  1  0  0  0
 13 18  2  0  0  0
 13 14  1  0  0  0
 14 15  2  0  0  0
 14 28  1  0  0  0
 15 16  1  0  0  0
 15 20  1  0  0  0
 16 17  2  0  0  0
 16 29  1  0  0  0
 17 18  1  0  0  0
 17 30  1  0  0  0
 18 19  1  0  0  0
 20 21  1  0  0  0
 21 31  1  0  0  0
 21 32  1  0  0  0
 21 33  1  0  0  0
 22 23  3  0  0  0
 24 34  1  0  0  0
 24 35  1  0  0  0
M  END
> <i_i_glide_confnum>
2

> <i_i_glide_lignum>
1715

> <i_i_glide_posenum>
219

> <i_i_glide_rotatable_bonds>
3

> <i_m_Source_File_Index>
5273

> <b_m_subgroup_collapsed>
0

> <r_i_docking_score>
-6.80482

> <r_i_glide_ecoul>
-4.71842

> <r_i_glide_eff_state_penalty>
0

> <r_i_glide_einternal>
2.23536

> <r_i_glide_emodel>
-52.0145

> <r_i_glide_energy>
-37.6845

> <r_i_glide_erotb>
0.203824

> <r_i_glide_esite>
0

> <r_i_glide_evdw>
-32.966

> <r_i_glide_gscore>
-6.80482

> <r_i_glide_hbond>
-0.212665

> <r_i_glide_ligand_efficiency>
-0.30931

> <r_i_glide_ligand_efficiency_ln>
-1.66335

> <r_i_glide_ligand_efficiency_sa>
-0.866698

> <r_i_glide_lipo>
-2.22854

> <r_i_glide_metal>
0

> <r_i_glide_rewards>
-2.21137

> <s_i_glide_gridfile>
wee1_glide-grid

> <s_m_Source_File>
wee1_decoys_glide_SP.sdf

> <s_m_Source_Path>
/Users/zhangxujun/Desktop

> <s_m_entry_id>
5548

> <s_m_entry_name>
wee1_decoys_glide_SP.5273

> <s_m_subgroup_title>
wee1_decoys_glide_SP

> <s_m_subgroupid>
wee1_decoys_glide_SP


$$$$
