ZINC09320603_973
                    3D
 Schrodinger Suite 2024-2.
 57 62  0  0  1  0            999 V2000
   -7.0585   49.9528   32.4099 C   0  0  0  0  0  0
   -6.6242   49.6705   30.9650 C   0  0  2  0  0  0
   -7.0956   48.7491   30.6155 H   0  0  0  0  0  0
   -5.1060   49.5449   30.7549 C   0  0  0  0  0  0
   -4.9193   50.2944   29.4779 C   0  0  0  0  0  0
   -3.7980   50.4966   28.6789 C   0  0  0  0  0  0
   -3.8410   51.3934   27.6000 C   0  0  0  0  0  0
   -5.0789   51.9912   27.2816 C   0  0  0  0  0  0
   -6.2088   51.7884   28.0816 C   0  0  0  0  0  0
   -6.0964   50.9474   29.1829 C   0  0  0  0  0  0
   -7.0929   50.7052   30.0935 O   0  0  0  0  0  0
   -2.6362   51.6969   26.7481 C   0  0  0  0  0  0
   -2.8188   52.0069   25.5677 O   0  0  0  0  0  0
   -1.2527   51.8301   27.2819 C   0  0  0  0  0  0
   -0.7307   51.8093   28.5219 C   0  0  0  0  0  0
    0.7000   52.0423   28.5472 C   0  0  0  0  0  0
    1.4556   52.0339   29.5302 O   0  0  0  0  0  0
    1.0390   52.3394   27.2631 N   0  0  0  0  0  0
   -0.0923   52.0901   26.3508 C   0  0  1  0  0  0
   -0.2916   53.0141   25.8116 H   0  0  0  0  0  0
    0.1182   51.0283   25.2497 C   0  0  0  0  0  0
    0.4758   51.4364   23.9588 C   0  0  0  0  0  0
    0.5723   50.5201   22.9173 C   0  0  0  0  0  0
    0.2365   49.1892   23.1367 C   0  0  0  0  0  0
   -0.1990   48.7610   24.3907 C   0  0  0  0  0  0
   -0.2116   49.6783   25.4566 C   0  0  0  0  0  0
   -0.6286   47.4525   24.4836 O   0  0  0  0  0  0
   -1.6399   47.1555   25.4459 C   0  0  0  0  0  0
    2.2592   52.9288   26.8854 C   0  0  0  0  0  0
    3.3041   53.0463   27.6730 N   0  0  0  0  0  0
    4.3305   53.6967   27.0736 C   0  0  0  0  0  0
    5.5787   53.9490   27.6618 C   0  0  0  0  0  0
    6.5403   54.6227   26.9059 C   0  0  0  0  0  0
    6.2745   55.0348   25.5987 C   0  0  0  0  0  0
    5.0453   54.7875   24.9976 C   0  0  0  0  0  0
    4.0709   54.1270   25.7492 C   0  0  0  0  0  0
    2.4311   53.6964   25.3150 S   0  0  0  0  0  0
    7.2115   55.6968   24.8933 F   0  0  0  0  0  0
   -1.2955   51.6967   29.6685 O   0  5  0  0  0  0
   -6.7221   49.1624   33.0818 H   0  0  0  0  0  0
   -8.1441   50.0164   32.4852 H   0  0  0  0  0  0
   -6.6427   50.8949   32.7701 H   0  0  0  0  0  0
   -4.5551   50.0574   31.5464 H   0  0  0  0  0  0
   -4.7778   48.5057   30.7095 H   0  0  0  0  0  0
   -2.8956   49.9685   28.9280 H   0  0  0  0  0  0
   -5.1625   52.6574   26.4343 H   0  0  0  0  0  0
   -7.1380   52.2866   27.8503 H   0  0  0  0  0  0
    0.6550   52.4757   23.7370 H   0  0  0  0  0  0
    0.8642   50.8494   21.9309 H   0  0  0  0  0  0
    0.2654   48.4969   22.3101 H   0  0  0  0  0  0
   -0.5298   49.3589   26.4393 H   0  0  0  0  0  0
   -1.9644   46.1232   25.3148 H   0  0  0  0  0  0
   -1.2955   47.2546   26.4735 H   0  0  0  0  0  0
   -2.5142   47.7957   25.3137 H   0  0  0  0  0  0
    5.7910   53.6292   28.6710 H   0  0  0  0  0  0
    7.5034   54.8322   27.3479 H   0  0  0  0  0  0
    4.8534   55.1027   23.9846 H   0  0  0  0  0  0
  1  2  1  0  0  0
  1 40  1  0  0  0
  1 41  1  0  0  0
  1 42  1  0  0  0
  2  3  1  0  0  0
  2 11  1  0  0  0
  2  4  1  0  0  0
  4  5  1  0  0  0
  4 43  1  0  0  0
  4 44  1  0  0  0
  5 10  2  0  0  0
  5  6  1  0  0  0
  6  7  2  0  0  0
  6 45  1  0  0  0
  7  8  1  0  0  0
  7 12  1  0  0  0
  8  9  2  0  0  0
  8 46  1  0  0  0
  9 10  1  0  0  0
  9 47  1  0  0  0
 10 11  1  0  0  0
 12 13  2  0  0  0
 12 14  1  0  0  0
 14 19  1  0  0  0
 14 15  2  0  0  0
 15 16  1  0  0  0
 15 39  1  0  0  0
 16 17  2  0  0  0
 16 18  1  0  0  0
 18 19  1  0  0  0
 18 29  1  0  0  0
 19 20  1  0  0  0
 19 21  1  0  0  0
 21 26  2  0  0  0
 21 22  1  0  0  0
 22 23  2  0  0  0
 22 48  1  0  0  0
 23 24  1  0  0  0
 23 49  1  0  0  0
 24 25  2  0  0  0
 24 50  1  0  0  0
 25 26  1  0  0  0
 25 27  1  0  0  0
 26 51  1  0  0  0
 27 28  1  0  0  0
 28 52  1  0  0  0
 28 53  1  0  0  0
 28 54  1  0  0  0
 29 37  1  0  0  0
 29 30  2  0  0  0
 30 31  1  0  0  0
 31 36  2  0  0  0
 31 32  1  0  0  0
 32 33  2  0  0  0
 32 55  1  0  0  0
 33 34  1  0  0  0
 33 56  1  0  0  0
 34 35  2  0  0  0
 34 38  1  0  0  0
 35 36  1  0  0  0
 35 57  1  0  0  0
 36 37  1  0  0  0
M  CHG  1  39  -1
M  END
> <i_i_glide_confnum>
18

> <i_i_glide_lignum>
974

> <i_i_glide_posenum>
61

> <i_i_glide_rotatable_bonds>
5

> <i_m_Source_File_Index>
1522

> <b_m_subgroup_collapsed>
0

> <r_i_docking_score>
-5.27183

> <r_i_glide_ecoul>
-4.83477

> <r_i_glide_eff_state_penalty>
0

> <r_i_glide_einternal>
10.3159

> <r_i_glide_emodel>
-59.7083

> <r_i_glide_energy>
-49.9779

> <r_i_glide_erotb>
0.308829

> <r_i_glide_esite>
-0.0599633

> <r_i_glide_evdw>
-45.1432

> <r_i_glide_gscore>
-5.27183

> <r_i_glide_hbond>
0

> <r_i_glide_ligand_efficiency>
-0.142482

> <r_i_glide_ligand_efficiency_ln>
-1.14334

> <r_i_glide_ligand_efficiency_sa>
-0.474782

> <r_i_glide_lipo>
-2.23885

> <r_i_glide_metal>
0

> <r_i_glide_rewards>
-0.299478

> <s_i_glide_gridfile>
wee1_glide-grid

> <s_m_Source_File>
wee1_decoys_glide_SP.sdf

> <s_m_Source_Path>
/Users/zhangxujun/Desktop

> <s_m_entry_id>
1797

> <s_m_entry_name>
wee1_decoys_glide_SP.1522

> <s_m_subgroup_title>
wee1_decoys_glide_SP

> <s_m_subgroupid>
wee1_decoys_glide_SP


$$$$
