ZINC01781247_5675
                    3D
 Schrodinger Suite 2024-2.
 72 76  0  0  1  0            999 V2000
    3.4960   52.0991   20.7621 C   0  0  0  0  0  0
    2.3789   51.5067   21.3476 C   0  0  0  0  0  0
    1.7900   52.0963   22.4638 C   0  0  0  0  0  0
    2.3228   53.2745   23.0023 C   0  0  0  0  0  0
    3.4432   53.8653   22.4031 C   0  0  0  0  0  0
    4.0270   53.2782   21.2830 C   0  0  0  0  0  0
    1.7022   53.9215   24.2375 C   0  0  0  0  0  0
    1.9411   53.5355   26.8048 C   0  0  0  0  0  0
    3.4183   53.8374   27.0710 C   0  0  0  0  0  0
    3.7778   54.2144   28.3686 C   0  0  0  0  0  0
    5.1054   54.4956   28.6789 C   0  0  0  0  0  0
    6.0781   54.4202   27.6851 C   0  0  0  0  0  0
    5.7351   54.0537   26.3877 C   0  0  0  0  0  0
    4.4103   53.7469   26.0866 C   0  0  0  0  0  0
    0.0635   52.3683   25.5011 C   0  0  0  0  0  0
    0.0302   50.8331   25.6944 C   0  0  2  0  0  0
    0.5211   50.3455   24.8509 H   0  0  0  0  0  0
   -1.3818   50.2265   25.8511 C   0  0  0  0  0  0
   -2.3944   50.6640   24.8812 N   0  0  0  0  0  0
   -2.1847   50.4195   23.5092 C   0  0  0  0  0  0
   -1.9808   51.5162   22.6647 C   0  0  0  0  0  0
   -1.6708   51.3521   21.3217 C   0  0  0  0  0  0
   -1.5780   50.0817   20.7707 C   0  0  0  0  0  0
   -1.8375   48.9393   21.5632 C   0  0  0  0  0  0
   -2.1579   49.1005   22.9495 C   0  0  0  0  0  0
   -2.4639   47.9314   23.7046 C   0  0  0  0  0  0
   -2.4327   46.6722   23.1164 C   0  0  0  0  0  0
   -2.0951   46.5254   21.7774 C   0  0  0  0  0  0
   -1.7962   47.6395   21.0006 C   0  0  0  0  0  0
   -3.6894   51.7451   25.4689 S   0  0  0  0  0  0
   -3.0226   52.8978   26.0844 O   0  0  0  0  0  0
   -4.6484   51.9197   24.3714 O   0  0  0  0  0  0
   -4.4953   50.8119   26.7712 C   0  0  0  0  0  0
   -4.0248   50.8967   28.0857 C   0  0  0  0  0  0
   -4.5824   50.0936   29.0762 C   0  0  0  0  0  0
   -5.6148   49.2163   28.7511 C   0  0  0  0  0  0
   -6.0891   49.1309   27.4433 C   0  0  0  0  0  0
   -5.5237   49.9249   26.4484 C   0  0  0  0  0  0
    0.7041   50.4954   26.8822 O   0  0  0  0  0  0
    3.9473   51.6463   19.8891 H   0  0  0  0  0  0
    1.9718   50.5943   20.9347 H   0  0  0  0  0  0
    0.9219   51.6270   22.9018 H   0  0  0  0  0  0
    3.8638   54.7812   22.7964 H   0  0  0  0  0  0
    4.8862   53.7368   20.8146 H   0  0  0  0  0  0
    2.3375   54.7340   24.5930 H   0  0  0  0  0  0
    0.7364   54.3757   24.0107 H   0  0  0  0  0  0
    1.3541   54.4452   26.9094 H   0  0  0  0  0  0
    1.5899   52.8207   27.5512 H   0  0  0  0  0  0
    3.0277   54.2895   29.1414 H   0  0  0  0  0  0
    5.3818   54.7945   29.6797 H   0  0  0  0  0  0
    7.1065   54.6433   27.9318 H   0  0  0  0  0  0
    6.4957   53.9763   25.6251 H   0  0  0  0  0  0
    4.1806   53.4208   25.0862 H   0  0  0  0  0  0
   -0.4729   52.8913   26.2921 H   0  0  0  0  0  0
   -0.4180   52.6248   24.5622 H   0  0  0  0  0  0
   -1.2993   49.1401   25.8408 H   0  0  0  0  0  0
   -1.7392   50.4695   26.8507 H   0  0  0  0  0  0
   -2.0450   52.5200   23.0591 H   0  0  0  0  0  0
   -1.4877   52.2178   20.7029 H   0  0  0  0  0  0
   -1.3330   49.9624   19.7241 H   0  0  0  0  0  0
   -2.7518   48.0185   24.7414 H   0  0  0  0  0  0
   -2.6793   45.8054   23.7087 H   0  0  0  0  0  0
   -2.0705   45.5412   21.3331 H   0  0  0  0  0  0
   -1.5499   47.5189   19.9542 H   0  0  0  0  0  0
   -3.2095   51.5580   28.3381 H   0  0  0  0  0  0
   -4.2000   50.1322   30.0873 H   0  0  0  0  0  0
   -6.0412   48.5861   29.5182 H   0  0  0  0  0  0
   -6.8829   48.4411   27.1990 H   0  0  0  0  0  0
   -5.8755   49.8397   25.4301 H   0  0  0  0  0  0
    0.4030   49.6238   27.1649 H   0  0  0  0  0  0
    1.5134   52.9432   25.4335 N   0  3  0  0  0  0
    2.1307   52.1597   25.2621 H   0  0  0  0  0  0
  1  6  2  0  0  0
  1  2  1  0  0  0
  1 40  1  0  0  0
  2  3  2  0  0  0
  2 41  1  0  0  0
  3  4  1  0  0  0
  3 42  1  0  0  0
  4  5  2  0  0  0
  4  7  1  0  0  0
  5  6  1  0  0  0
  5 43  1  0  0  0
  6 44  1  0  0  0
  7 45  1  0  0  0
  7 46  1  0  0  0
  7 71  1  0  0  0
  8  9  1  0  0  0
  8 47  1  0  0  0
  8 48  1  0  0  0
  8 71  1  0  0  0
  9 14  2  0  0  0
  9 10  1  0  0  0
 10 11  2  0  0  0
 10 49  1  0  0  0
 11 12  1  0  0  0
 11 50  1  0  0  0
 12 13  2  0  0  0
 12 51  1  0  0  0
 13 14  1  0  0  0
 13 52  1  0  0  0
 14 53  1  0  0  0
 15 16  1  0  0  0
 15 54  1  0  0  0
 15 55  1  0  0  0
 15 71  1  0  0  0
 16 17  1  0  0  0
 16 18  1  0  0  0
 16 39  1  0  0  0
 18 19  1  0  0  0
 18 56  1  0  0  0
 18 57  1  0  0  0
 19 20  1  0  0  0
 19 30  1  0  0  0
 20 25  2  0  0  0
 20 21  1  0  0  0
 21 22  2  0  0  0
 21 58  1  0  0  0
 22 23  1  0  0  0
 22 59  1  0  0  0
 23 24  2  0  0  0
 23 60  1  0  0  0
 24 29  1  0  0  0
 24 25  1  0  0  0
 25 26  1  0  0  0
 26 27  2  0  0  0
 26 61  1  0  0  0
 27 28  1  0  0  0
 27 62  1  0  0  0
 28 29  2  0  0  0
 28 63  1  0  0  0
 29 64  1  0  0  0
 30 31  2  0  0  0
 30 32  2  0  0  0
 30 33  1  0  0  0
 33 38  2  0  0  0
 33 34  1  0  0  0
 34 35  2  0  0  0
 34 65  1  0  0  0
 35 36  1  0  0  0
 35 66  1  0  0  0
 36 37  2  0  0  0
 36 67  1  0  0  0
 37 38  1  0  0  0
 37 68  1  0  0  0
 38 69  1  0  0  0
 39 70  1  0  0  0
 71 72  1  0  0  0
M  CHG  1  71   1
M  END
> <i_i_glide_confnum>
316

> <i_i_glide_lignum>
5676

> <i_i_glide_posenum>
95

> <i_i_glide_rotatable_bonds>
12

> <i_m_Source_File_Index>
253

> <b_m_subgroup_collapsed>
0

> <r_i_docking_score>
-3.81134

> <r_i_glide_ecoul>
-1.43333

> <r_i_glide_eff_state_penalty>
0

> <r_i_glide_einternal>
15.5175

> <r_i_glide_emodel>
-46.5917

> <r_i_glide_energy>
-43.6224

> <r_i_glide_erotb>
0.643077

> <r_i_glide_esite>
-0.0190146

> <r_i_glide_evdw>
-42.1891

> <r_i_glide_gscore>
-3.81134

> <r_i_glide_hbond>
0

> <r_i_glide_ligand_efficiency>
-0.0977268

> <r_i_glide_ligand_efficiency_ln>
-0.81726

> <r_i_glide_ligand_efficiency_sa>
-0.331412

> <r_i_glide_lipo>
-2.42669

> <r_i_glide_metal>
0

> <r_i_glide_rewards>
0.315734

> <s_i_glide_gridfile>
wee1_glide-grid

> <s_m_Source_File>
wee1_decoys_glide_SP.sdf

> <s_m_Source_Path>
/Users/zhangxujun/Desktop

> <s_m_entry_id>
528

> <s_m_entry_name>
wee1_decoys_glide_SP.253

> <s_m_subgroup_title>
wee1_decoys_glide_SP

> <s_m_subgroupid>
wee1_decoys_glide_SP


$$$$
