ZINC16643927_2253
                    3D
 Schrodinger Suite 2024-2.
 54 56  0  0  1  0            999 V2000
    2.2837   58.5266   16.0389 C   0  0  0  0  0  0
    3.4999   57.6587   16.3032 C   0  0  0  0  0  0
    3.3694   56.2711   16.3799 C   0  0  0  0  0  0
    4.4918   55.4819   16.6189 C   0  0  0  0  0  0
    5.7403   56.0895   16.7810 C   0  0  0  0  0  0
    5.8676   57.4776   16.7209 C   0  0  0  0  0  0
    4.7449   58.2611   16.4838 C   0  0  0  0  0  0
    7.2101   55.1145   17.0769 S   0  0  0  0  0  0
    8.2021   55.5607   16.0927 O   0  0  0  0  0  0
    6.8193   53.7013   17.1469 O   0  0  0  0  0  0
    7.7750   55.6091   18.7156 N   0  0  0  0  0  0
    9.1045   56.2210   18.7899 C   0  0  0  0  0  0
    7.0786   55.2959   19.9163 C   0  0  0  0  0  0
    7.6347   55.5824   21.1730 C   0  0  0  0  0  0
    6.9891   55.2144   22.3488 C   0  0  0  0  0  0
    5.7554   54.5442   22.3132 C   0  0  0  0  0  0
    5.1779   54.2916   21.0632 C   0  0  0  0  0  0
    5.8276   54.6643   19.8899 C   0  0  0  0  0  0
    5.0164   54.1460   23.5773 C   0  0  0  0  0  0
    3.8668   53.7123   23.5063 O   0  0  0  0  0  0
    5.6937   54.3264   24.7331 N   0  0  0  0  0  0
    5.2969   54.0968   26.0626 C   0  0  0  0  0  0
    6.2988   54.2388   27.0242 C   0  0  0  0  0  0
    6.0273   54.0060   28.3674 C   0  0  0  0  0  0
    4.7481   53.6384   28.7690 C   0  0  0  0  0  0
    3.7229   53.4843   27.8272 C   0  0  0  0  0  0
    4.0080   53.7115   26.4761 C   0  0  0  0  0  0
    2.4144   53.0674   28.1472 N   0  0  0  0  0  0
    1.8231   52.9586   29.3567 C   0  0  0  0  0  0
    2.3251   53.2825   30.4331 O   0  0  0  0  0  0
    0.4049   52.3997   29.3412 C   0  0  0  0  0  0
    1.3865   58.0906   16.4792 H   0  0  0  0  0  0
    2.4001   59.5173   16.4806 H   0  0  0  0  0  0
    2.1237   58.6462   14.9694 H   0  0  0  0  0  0
    2.4035   55.8026   16.2469 H   0  0  0  0  0  0
    4.3928   54.4064   16.6647 H   0  0  0  0  0  0
    6.8316   57.9496   16.8540 H   0  0  0  0  0  0
    4.8491   59.3349   16.4314 H   0  0  0  0  0  0
    9.0961   57.1128   19.4177 H   0  0  0  0  0  0
    9.8205   55.5046   19.1979 H   0  0  0  0  0  0
    9.4790   56.5371   17.8191 H   0  0  0  0  0  0
    8.5970   56.0644   21.2689 H   0  0  0  0  0  0
    7.4925   55.4546   23.2754 H   0  0  0  0  0  0
    4.2196   53.7957   20.9868 H   0  0  0  0  0  0
    5.3346   54.4202   18.9644 H   0  0  0  0  0  0
    6.6383   54.6550   24.6271 H   0  0  0  0  0  0
    7.3034   54.5119   26.7390 H   0  0  0  0  0  0
    6.8168   54.0973   29.0991 H   0  0  0  0  0  0
    4.5853   53.4518   29.8167 H   0  0  0  0  0  0
    3.2145   53.5829   25.7585 H   0  0  0  0  0  0
    1.8505   52.8123   27.3534 H   0  0  0  0  0  0
    0.4288   51.3121   29.2828 H   0  0  0  0  0  0
   -0.1616   52.7805   28.4903 H   0  0  0  0  0  0
   -0.1241   52.6774   30.2548 H   0  0  0  0  0  0
  1  2  1  0  0  0
  1 32  1  0  0  0
  1 33  1  0  0  0
  1 34  1  0  0  0
  2  7  2  0  0  0
  2  3  1  0  0  0
  3  4  2  0  0  0
  3 35  1  0  0  0
  4  5  1  0  0  0
  4 36  1  0  0  0
  5  6  2  0  0  0
  5  8  1  0  0  0
  6  7  1  0  0  0
  6 37  1  0  0  0
  7 38  1  0  0  0
  8  9  2  0  0  0
  8 10  2  0  0  0
  8 11  1  0  0  0
 11 12  1  0  0  0
 11 13  1  0  0  0
 12 39  1  0  0  0
 12 40  1  0  0  0
 12 41  1  0  0  0
 13 18  2  0  0  0
 13 14  1  0  0  0
 14 15  2  0  0  0
 14 42  1  0  0  0
 15 16  1  0  0  0
 15 43  1  0  0  0
 16 17  2  0  0  0
 16 19  1  0  0  0
 17 18  1  0  0  0
 17 44  1  0  0  0
 18 45  1  0  0  0
 19 20  2  0  0  0
 19 21  1  0  0  0
 21 22  1  0  0  0
 21 46  1  0  0  0
 22 27  2  0  0  0
 22 23  1  0  0  0
 23 24  2  0  0  0
 23 47  1  0  0  0
 24 25  1  0  0  0
 24 48  1  0  0  0
 25 26  2  0  0  0
 25 49  1  0  0  0
 26 27  1  0  0  0
 26 28  1  0  0  0
 27 50  1  0  0  0
 28 29  1  0  0  0
 28 51  1  0  0  0
 29 30  2  0  0  0
 29 31  1  0  0  0
 31 52  1  0  0  0
 31 53  1  0  0  0
 31 54  1  0  0  0
M  END
> <i_i_glide_confnum>
160

> <i_i_glide_lignum>
2254

> <i_i_glide_posenum>
166

> <i_i_glide_rotatable_bonds>
8

> <i_m_Source_File_Index>
2583

> <b_m_subgroup_collapsed>
0

> <r_i_docking_score>
-5.20429

> <r_i_glide_ecoul>
-5.26201

> <r_i_glide_eff_state_penalty>
0

> <r_i_glide_einternal>
4.982

> <r_i_glide_emodel>
-58.8364

> <r_i_glide_energy>
-47.456

> <r_i_glide_erotb>
0.729265

> <r_i_glide_esite>
-0.0158996

> <r_i_glide_evdw>
-42.194

> <r_i_glide_gscore>
-5.20429

> <r_i_glide_hbond>
-0.298147

> <r_i_glide_ligand_efficiency>
-0.16788

> <r_i_glide_ligand_efficiency_ln>
-1.17373

> <r_i_glide_ligand_efficiency_sa>
-0.527376

> <r_i_glide_lipo>
-2.40579

> <r_i_glide_metal>
0

> <r_i_glide_rewards>
-0.314711

> <s_i_glide_gridfile>
wee1_glide-grid

> <s_m_Source_File>
wee1_decoys_glide_SP.sdf

> <s_m_Source_Path>
/Users/zhangxujun/Desktop

> <s_m_entry_id>
2858

> <s_m_entry_name>
wee1_decoys_glide_SP.2583

> <s_m_subgroup_title>
wee1_decoys_glide_SP

> <s_m_subgroupid>
wee1_decoys_glide_SP


$$$$
