ZINC09238155_6087
                    3D
 Schrodinger Suite 2024-2.
 55 59  0  0  1  0            999 V2000
   -3.2994   48.3977   22.3538 C   0  0  0  0  0  0
   -2.2204   49.4233   22.6490 C   0  0  0  0  0  0
   -2.3174   50.7076   22.1110 C   0  0  0  0  0  0
   -1.3369   51.6555   22.3916 C   0  0  0  0  0  0
   -0.2571   51.3239   23.2143 C   0  0  0  0  0  0
   -0.1639   50.0332   23.7505 C   0  0  0  0  0  0
   -1.1450   49.0871   23.4718 C   0  0  0  0  0  0
    0.8274   52.3650   23.5137 C   0  0  2  0  0  0
    0.4510   53.3205   23.1448 H   0  0  0  0  0  0
    2.2047   52.1114   22.8082 C   0  0  2  0  0  0
    2.7041   51.2674   23.2809 H   0  0  0  0  0  0
    3.2752   53.6107   22.9402 S   0  0  0  0  0  0
    3.0839   53.8391   24.6748 C   0  0  0  0  0  0
    3.8981   54.5038   25.4536 N   0  0  0  0  0  0
    3.4082   54.4056   26.7502 N   0  0  0  0  0  0
    2.3021   53.6962   26.7116 C   0  0  0  0  0  0
    2.0556   53.2894   25.4110 N   0  0  0  0  0  0
    0.9909   52.4980   24.9662 N   0  0  0  0  0  0
    1.5122   53.3373   27.9415 C   0  0  0  0  0  0
    0.8172   52.1255   28.0547 C   0  0  0  0  0  0
    0.0881   51.8343   29.2045 C   0  0  0  0  0  0
    0.0609   52.7453   30.2567 C   0  0  0  0  0  0
    0.7487   53.9523   30.1628 C   0  0  0  0  0  0
    1.4755   54.2441   29.0102 C   0  0  0  0  0  0
    2.1022   51.6501   21.3215 C   0  0  0  0  0  0
    1.6975   50.5103   21.0890 O   0  0  0  0  0  0
    2.4943   52.4968   20.3450 N   0  0  0  0  0  0
    2.4755   52.3117   18.9515 C   0  0  0  0  0  0
    1.4341   51.6070   18.3277 C   0  0  0  0  0  0
    1.4015   51.4731   16.9422 C   0  0  0  0  0  0
    2.4022   52.0477   16.1650 C   0  0  0  0  0  0
    3.4404   52.7501   16.7728 C   0  0  0  0  0  0
    3.4950   52.8966   18.1672 C   0  0  0  0  0  0
    4.6812   53.6443   18.7990 C   0  0  0  0  0  0
    5.2732   52.8966   19.7304 F   0  0  0  0  0  0
    5.6116   53.9853   17.9044 F   0  0  0  0  0  0
    4.2499   54.7630   19.3782 F   0  0  0  0  0  0
   -4.2812   48.8723   22.3221 H   0  0  0  0  0  0
   -3.1182   47.9185   21.3913 H   0  0  0  0  0  0
   -3.3459   47.6338   23.1310 H   0  0  0  0  0  0
   -3.1494   50.9689   21.4743 H   0  0  0  0  0  0
   -1.4172   52.6428   21.9651 H   0  0  0  0  0  0
    0.6701   49.7599   24.3812 H   0  0  0  0  0  0
   -1.0634   48.0971   23.8966 H   0  0  0  0  0  0
    0.1410   52.8905   25.3448 H   0  0  0  0  0  0
    0.8460   51.3869   27.2683 H   0  0  0  0  0  0
   -0.4472   50.8978   29.2836 H   0  0  0  0  0  0
   -0.4961   52.5086   31.1539 H   0  0  0  0  0  0
    0.7173   54.6573   30.9811 H   0  0  0  0  0  0
    2.0029   55.1852   28.9446 H   0  0  0  0  0  0
    2.8859   53.3791   20.6443 H   0  0  0  0  0  0
    0.6384   51.1663   18.9092 H   0  0  0  0  0  0
    0.6022   50.9204   16.4714 H   0  0  0  0  0  0
    2.3855   51.9328   15.0915 H   0  0  0  0  0  0
    4.2141   53.1661   16.1444 H   0  0  0  0  0  0
  1  2  1  0  0  0
  1 38  1  0  0  0
  1 39  1  0  0  0
  1 40  1  0  0  0
  2  7  2  0  0  0
  2  3  1  0  0  0
  3  4  2  0  0  0
  3 41  1  0  0  0
  4  5  1  0  0  0
  4 42  1  0  0  0
  5  6  2  0  0  0
  5  8  1  0  0  0
  6  7  1  0  0  0
  6 43  1  0  0  0
  7 44  1  0  0  0
  8  9  1  0  0  0
  8 18  1  0  0  0
  8 10  1  0  0  0
 10 11  1  0  0  0
 10 12  1  0  0  0
 10 25  1  0  0  0
 12 13  1  0  0  0
 13 17  1  0  0  0
 13 14  2  0  0  0
 14 15  1  0  0  0
 15 16  2  0  0  0
 16 17  1  0  0  0
 16 19  1  0  0  0
 17 18  1  0  0  0
 18 45  1  0  0  0
 19 24  2  0  0  0
 19 20  1  0  0  0
 20 21  2  0  0  0
 20 46  1  0  0  0
 21 22  1  0  0  0
 21 47  1  0  0  0
 22 23  2  0  0  0
 22 48  1  0  0  0
 23 24  1  0  0  0
 23 49  1  0  0  0
 24 50  1  0  0  0
 25 26  2  0  0  0
 25 27  1  0  0  0
 27 28  1  0  0  0
 27 51  1  0  0  0
 28 33  2  0  0  0
 28 29  1  0  0  0
 29 30  2  0  0  0
 29 52  1  0  0  0
 30 31  1  0  0  0
 30 53  1  0  0  0
 31 32  2  0  0  0
 31 54  1  0  0  0
 32 33  1  0  0  0
 32 55  1  0  0  0
 33 34  1  0  0  0
 34 35  1  0  0  0
 34 36  1  0  0  0
 34 37  1  0  0  0
M  END
> <i_i_glide_confnum>
96

> <i_i_glide_lignum>
6088

> <i_i_glide_posenum>
356

> <i_i_glide_rotatable_bonds>
6

> <i_m_Source_File_Index>
1966

> <b_m_subgroup_collapsed>
0

> <r_i_docking_score>
-3.90958

> <r_i_glide_ecoul>
-0.896602

> <r_i_glide_eff_state_penalty>
0

> <r_i_glide_einternal>
5.92675

> <r_i_glide_emodel>
-47.5994

> <r_i_glide_energy>
-40.9964

> <r_i_glide_erotb>
0.415124

> <r_i_glide_esite>
-0.118278

> <r_i_glide_evdw>
-40.0998

> <r_i_glide_gscore>
-3.90958

> <r_i_glide_hbond>
0

> <r_i_glide_ligand_efficiency>
-0.111702

> <r_i_glide_ligand_efficiency_ln>
-0.858239

> <r_i_glide_ligand_efficiency_sa>
-0.365385

> <r_i_glide_lipo>
-1.1435

> <r_i_glide_metal>
0

> <r_i_glide_rewards>
-0.92344

> <s_i_glide_gridfile>
wee1_glide-grid

> <s_m_Source_File>
wee1_decoys_glide_SP.sdf

> <s_m_Source_Path>
/Users/zhangxujun/Desktop

> <s_m_entry_id>
2241

> <s_m_entry_name>
wee1_decoys_glide_SP.1966

> <s_m_subgroup_title>
wee1_decoys_glide_SP

> <s_m_subgroupid>
wee1_decoys_glide_SP


$$$$
