ZINC13391236_1939
                    3D
 Schrodinger Suite 2024-2.
 55 57  0  0  1  0            999 V2000
    1.9631   53.9282   24.2842 C   0  0  0  0  0  0
    2.8453   53.8810   25.5300 C   0  0  0  0  0  0
    4.1338   54.4198   25.4507 C   0  0  0  0  0  0
    5.0091   54.3670   26.5430 C   0  0  0  0  0  0
    4.5571   53.7937   27.7385 C   0  0  0  0  0  0
    3.2690   53.2779   27.8393 C   0  0  0  0  0  0
    2.4004   53.3092   26.7386 C   0  0  0  0  0  0
    1.1066   52.7587   26.7678 N   0  0  0  0  0  0
    0.3045   52.4573   27.8154 C   0  0  0  0  0  0
    0.6370   52.5421   29.0024 O   0  0  0  0  0  0
   -1.0887   51.9988   27.4505 C   0  0  0  0  0  0
   -1.8680   51.2979   28.3845 C   0  0  0  0  0  0
   -3.1668   50.8965   28.0732 C   0  0  0  0  0  0
   -3.7035   51.1676   26.8183 C   0  0  0  0  0  0
   -2.9422   51.8613   25.8751 C   0  0  0  0  0  0
   -1.6496   52.2786   26.1927 C   0  0  0  0  0  0
   -3.5911   52.1645   24.2405 S   0  0  0  0  0  0
   -5.0537   52.1953   24.3595 O   0  0  0  0  0  0
   -2.8499   53.3013   23.6823 O   0  0  0  0  0  0
   -3.1254   50.7256   23.3191 N   0  0  0  0  0  0
   -1.7101   50.4593   22.9646 C   0  0  0  0  0  0
   -1.5457   50.3742   21.4254 C   0  0  1  0  0  0
   -0.5639   49.9363   21.2360 H   0  0  0  0  0  0
   -2.5997   49.3906   20.8379 C   0  0  0  0  0  0
   -4.0537   49.7215   21.2776 C   0  0  2  0  0  0
   -4.2948   50.7243   20.9205 H   0  0  0  0  0  0
   -4.1164   49.7465   22.8210 C   0  0  0  0  0  0
   -5.0770   48.7403   20.6853 C   0  0  0  0  0  0
   -1.5822   51.7703   20.7708 C   0  0  0  0  0  0
    6.4053   54.8905   26.4341 C   0  0  0  0  0  0
    7.2353   54.4972   27.2806 O   0  0  0  0  0  0
    1.0485   54.4874   24.4816 H   0  0  0  0  0  0
    2.4657   54.3957   23.4340 H   0  0  0  0  0  0
    1.6741   52.9200   23.9850 H   0  0  0  0  0  0
    4.4751   54.8579   24.5210 H   0  0  0  0  0  0
    5.2081   53.7341   28.6000 H   0  0  0  0  0  0
    2.9860   52.8260   28.7754 H   0  0  0  0  0  0
    0.7005   52.6368   25.8532 H   0  0  0  0  0  0
   -1.4759   51.0514   29.3624 H   0  0  0  0  0  0
   -3.7378   50.3363   28.7998 H   0  0  0  0  0  0
   -4.6981   50.8220   26.5751 H   0  0  0  0  0  0
   -1.0956   52.8288   25.4467 H   0  0  0  0  0  0
   -1.0912   51.2567   23.3804 H   0  0  0  0  0  0
   -1.4175   49.5318   23.4569 H   0  0  0  0  0  0
   -2.5416   49.3717   19.7479 H   0  0  0  0  0  0
   -2.3584   48.3729   21.1480 H   0  0  0  0  0  0
   -3.8782   48.7768   23.2583 H   0  0  0  0  0  0
   -5.1123   50.0241   23.1670 H   0  0  0  0  0  0
   -4.8783   47.7166   21.0028 H   0  0  0  0  0  0
   -6.0923   48.9937   20.9954 H   0  0  0  0  0  0
   -5.0560   48.7600   19.5949 H   0  0  0  0  0  0
   -2.5109   52.2958   20.9876 H   0  0  0  0  0  0
   -0.7637   52.3934   21.1348 H   0  0  0  0  0  0
   -1.4817   51.7034   19.6862 H   0  0  0  0  0  0
    6.6814   55.6970   25.5154 O   0  5  0  0  0  0
  1  2  1  0  0  0
  1 32  1  0  0  0
  1 33  1  0  0  0
  1 34  1  0  0  0
  2  7  2  0  0  0
  2  3  1  0  0  0
  3  4  2  0  0  0
  3 35  1  0  0  0
  4  5  1  0  0  0
  4 30  1  0  0  0
  5  6  2  0  0  0
  5 36  1  0  0  0
  6  7  1  0  0  0
  6 37  1  0  0  0
  7  8  1  0  0  0
  8  9  1  0  0  0
  8 38  1  0  0  0
  9 10  2  0  0  0
  9 11  1  0  0  0
 11 16  2  0  0  0
 11 12  1  0  0  0
 12 13  2  0  0  0
 12 39  1  0  0  0
 13 14  1  0  0  0
 13 40  1  0  0  0
 14 15  2  0  0  0
 14 41  1  0  0  0
 15 16  1  0  0  0
 15 17  1  0  0  0
 16 42  1  0  0  0
 17 18  2  0  0  0
 17 19  2  0  0  0
 17 20  1  0  0  0
 20 27  1  0  0  0
 20 21  1  0  0  0
 21 22  1  0  0  0
 21 43  1  0  0  0
 21 44  1  0  0  0
 22 23  1  0  0  0
 22 24  1  0  0  0
 22 29  1  0  0  0
 24 25  1  0  0  0
 24 45  1  0  0  0
 24 46  1  0  0  0
 25 26  1  0  0  0
 25 27  1  0  0  0
 25 28  1  0  0  0
 27 47  1  0  0  0
 27 48  1  0  0  0
 28 49  1  0  0  0
 28 50  1  0  0  0
 28 51  1  0  0  0
 29 52  1  0  0  0
 29 53  1  0  0  0
 29 54  1  0  0  0
 30 31  2  0  0  0
 30 55  1  0  0  0
M  CHG  1  55  -1
M  END
> <i_i_glide_confnum>
138

> <i_i_glide_lignum>
1940

> <i_i_glide_posenum>
371

> <i_i_glide_rotatable_bonds>
6

> <i_m_Source_File_Index>
5124

> <b_m_subgroup_collapsed>
0

> <r_i_docking_score>
-4.65005

> <r_i_glide_ecoul>
-4.02146

> <r_i_glide_eff_state_penalty>
0

> <r_i_glide_einternal>
2.75442

> <r_i_glide_emodel>
-49.2036

> <r_i_glide_energy>
-37.3798

> <r_i_glide_erotb>
0.538627

> <r_i_glide_esite>
-0.000131586

> <r_i_glide_evdw>
-33.3584

> <r_i_glide_gscore>
-4.65005

> <r_i_glide_hbond>
-0.231771

> <r_i_glide_ligand_efficiency>
-0.155002

> <r_i_glide_ligand_efficiency_ln>
-1.05654

> <r_i_glide_ligand_efficiency_sa>
-0.481626

> <r_i_glide_lipo>
-1.63602

> <r_i_glide_metal>
0

> <r_i_glide_rewards>
-1.04962

> <s_i_glide_gridfile>
wee1_glide-grid

> <s_m_Source_File>
wee1_decoys_glide_SP.sdf

> <s_m_Source_Path>
/Users/zhangxujun/Desktop

> <s_m_entry_id>
5399

> <s_m_entry_name>
wee1_decoys_glide_SP.5124

> <s_m_subgroup_title>
wee1_decoys_glide_SP

> <s_m_subgroupid>
wee1_decoys_glide_SP


$$$$
