ZINC05976283_4291
                    3D
 Schrodinger Suite 2024-2.
 52 54  0  0  1  0            999 V2000
    5.8738   54.1005   28.4350 C   0  0  0  0  0  0
    5.9514   54.3915   26.9430 C   0  0  0  0  0  0
    6.9736   54.8962   26.4818 O   0  0  0  0  0  0
    4.8494   54.0745   26.2298 N   0  0  0  0  0  0
    4.6743   54.0971   24.8337 C   0  0  0  0  0  0
    3.3615   54.1220   24.3502 C   0  0  0  0  0  0
    3.1222   54.1196   22.9752 C   0  0  0  0  0  0
    4.1841   54.0590   22.0731 C   0  0  0  0  0  0
    5.4839   53.9724   22.5660 C   0  0  0  0  0  0
    5.7396   54.0241   23.9285 C   0  0  0  0  0  0
    3.9042   54.1141   20.6971 N   0  0  0  0  0  0
    4.9169   54.0500   19.6349 C   0  0  2  0  0  0
    5.5383   53.1707   19.8223 H   0  0  0  0  0  0
    5.7873   55.3387   19.6177 C   0  0  0  0  0  0
    6.9386   55.1915   18.6025 C   0  0  0  0  0  0
    6.3948   54.8788   17.1888 C   0  0  0  0  0  0
    5.3795   53.7156   17.2032 C   0  0  0  0  0  0
    4.2475   53.9744   18.2314 C   0  0  1  0  0  0
    3.7498   54.9088   17.9800 H   0  0  0  0  0  0
    3.2988   52.8350   18.1771 N   0  0  0  0  0  0
    2.1207   52.6514   16.8701 S   0  0  0  0  0  0
    2.8288   52.6647   15.5860 O   0  0  0  0  0  0
    1.2428   51.5325   17.2315 O   0  0  0  0  0  0
    1.1094   54.1373   16.8824 C   0  0  0  0  0  0
   -0.2278   54.0683   17.2827 C   0  0  0  0  0  0
   -1.0123   55.2196   17.2798 C   0  0  0  0  0  0
   -0.4562   56.4366   16.8879 C   0  0  0  0  0  0
    0.8711   56.5071   16.4735 C   0  0  0  0  0  0
    1.6516   55.3533   16.4574 C   0  0  0  0  0  0
   -1.4197   57.8684   16.9244 Cl  0  0  0  0  0  0
    5.2905   54.8713   28.9390 H   0  0  0  0  0  0
    6.8701   54.0980   28.8768 H   0  0  0  0  0  0
    5.4117   53.1296   28.6198 H   0  0  0  0  0  0
    4.0413   53.7834   26.7581 H   0  0  0  0  0  0
    2.5272   54.1594   25.0337 H   0  0  0  0  0  0
    2.1039   54.1695   22.6123 H   0  0  0  0  0  0
    6.3053   53.8792   21.8883 H   0  0  0  0  0  0
    6.7659   53.9542   24.2564 H   0  0  0  0  0  0
    3.0017   54.5157   20.4467 H   0  0  0  0  0  0
    5.1768   56.1996   19.3407 H   0  0  0  0  0  0
    6.2090   55.5842   20.5897 H   0  0  0  0  0  0
    7.6098   54.3917   18.9194 H   0  0  0  0  0  0
    7.5416   56.1001   18.5771 H   0  0  0  0  0  0
    7.2202   54.6478   16.5120 H   0  0  0  0  0  0
    5.9127   55.7703   16.7835 H   0  0  0  0  0  0
    5.8943   52.7821   17.4392 H   0  0  0  0  0  0
    4.9892   53.5882   16.1968 H   0  0  0  0  0  0
    3.0017   52.4852   19.0912 H   0  0  0  0  0  0
   -0.6619   53.1302   17.5953 H   0  0  0  0  0  0
   -2.0435   55.1697   17.5929 H   0  0  0  0  0  0
    1.2941   57.4513   16.1659 H   0  0  0  0  0  0
    2.6744   55.4069   16.1123 H   0  0  0  0  0  0
  1  2  1  0  0  0
  1 31  1  0  0  0
  1 32  1  0  0  0
  1 33  1  0  0  0
  2  3  2  0  0  0
  2  4  1  0  0  0
  4  5  1  0  0  0
  4 34  1  0  0  0
  5 10  2  0  0  0
  5  6  1  0  0  0
  6  7  2  0  0  0
  6 35  1  0  0  0
  7  8  1  0  0  0
  7 36  1  0  0  0
  8  9  2  0  0  0
  8 11  1  0  0  0
  9 10  1  0  0  0
  9 37  1  0  0  0
 10 38  1  0  0  0
 11 12  1  0  0  0
 11 39  1  0  0  0
 12 13  1  0  0  0
 12 18  1  0  0  0
 12 14  1  0  0  0
 14 15  1  0  0  0
 14 40  1  0  0  0
 14 41  1  0  0  0
 15 16  1  0  0  0
 15 42  1  0  0  0
 15 43  1  0  0  0
 16 17  1  0  0  0
 16 44  1  0  0  0
 16 45  1  0  0  0
 17 18  1  0  0  0
 17 46  1  0  0  0
 17 47  1  0  0  0
 18 19  1  0  0  0
 18 20  1  0  0  0
 20 21  1  0  0  0
 20 48  1  0  0  0
 21 22  2  0  0  0
 21 23  2  0  0  0
 21 24  1  0  0  0
 24 29  2  0  0  0
 24 25  1  0  0  0
 25 26  2  0  0  0
 25 49  1  0  0  0
 26 27  1  0  0  0
 26 50  1  0  0  0
 27 28  2  0  0  0
 27 30  1  0  0  0
 28 29  1  0  0  0
 28 51  1  0  0  0
 29 52  1  0  0  0
M  END
> <i_i_glide_confnum>
108

> <i_i_glide_lignum>
4292

> <i_i_glide_posenum>
257

> <i_i_glide_rotatable_bonds>
7

> <i_m_Source_File_Index>
3560

> <b_m_subgroup_collapsed>
0

> <r_i_docking_score>
-5.25345

> <r_i_glide_ecoul>
-5.19773

> <r_i_glide_eff_state_penalty>
0

> <r_i_glide_einternal>
11.1006

> <r_i_glide_emodel>
-52.5584

> <r_i_glide_energy>
-43.8598

> <r_i_glide_erotb>
0.667488

> <r_i_glide_esite>
-0.144

> <r_i_glide_evdw>
-38.662

> <r_i_glide_gscore>
-5.25345

> <r_i_glide_hbond>
-0.608

> <r_i_glide_ligand_efficiency>
-0.187623

> <r_i_glide_ligand_efficiency_ln>
-1.21265

> <r_i_glide_ligand_efficiency_sa>
-0.569735

> <r_i_glide_lipo>
-2.01617

> <r_i_glide_metal>
0

> <r_i_glide_rewards>
-0.440012

> <s_i_glide_gridfile>
wee1_glide-grid

> <s_m_Source_File>
wee1_decoys_glide_SP.sdf

> <s_m_Source_Path>
/Users/zhangxujun/Desktop

> <s_m_entry_id>
3835

> <s_m_entry_name>
wee1_decoys_glide_SP.3560

> <s_m_subgroup_title>
wee1_decoys_glide_SP

> <s_m_subgroupid>
wee1_decoys_glide_SP


$$$$
