ZINC12556453_567
                    3D
 Schrodinger Suite 2024-2.
 70 72  0  0  1  0            999 V2000
   -1.2441   51.4571   14.9301 C   0  0  0  0  0  0
   -0.0339   52.1929   15.4759 C   0  0  0  0  0  0
    1.2478   51.7388   15.1588 C   0  0  0  0  0  0
    2.3651   52.4074   15.6508 C   0  0  0  0  0  0
    2.1944   53.5281   16.4677 C   0  0  0  0  0  0
    0.9143   53.9865   16.7845 C   0  0  0  0  0  0
   -0.2008   53.3184   16.2859 C   0  0  0  0  0  0
    3.6138   54.3740   17.1511 S   0  0  0  0  0  0
    4.8271   53.7227   16.6456 O   0  0  0  0  0  0
    3.3801   55.8064   16.9415 O   0  0  0  0  0  0
    3.5093   54.0942   18.8824 N   0  0  0  0  0  0
    3.9205   52.7789   19.4540 C   0  0  2  0  0  0
    4.8616   52.4961   18.9788 H   0  0  0  0  0  0
    2.8335   51.6968   19.1585 C   0  0  0  0  0  0
    2.8571   50.3629   19.9568 C   0  0  0  0  0  0
    2.2223   50.4747   21.3614 C   0  0  0  0  0  0
    2.2267   49.2041   19.1564 C   0  0  0  0  0  0
    4.2504   52.9502   20.9582 C   0  0  0  0  0  0
    5.0821   52.1870   21.4573 O   0  0  0  0  0  0
    3.5444   53.8669   21.6574 N   0  0  0  0  0  0
    3.4812   53.9267   23.0518 C   0  0  0  0  0  0
    2.2171   53.7428   23.6104 C   0  0  0  0  0  0
    2.0616   53.6916   24.9912 C   0  0  0  0  0  0
    3.1601   53.8440   25.8455 C   0  0  0  0  0  0
    4.4156   54.0970   25.2742 C   0  0  0  0  0  0
    4.5954   54.1368   23.8886 C   0  0  0  0  0  0
    5.9896   54.4396   23.3501 C   0  0  0  0  0  0
    3.0259   53.7066   27.2231 N   0  0  0  0  0  0
    3.7457   54.5619   28.1782 C   0  0  0  0  0  0
    4.3052   53.7860   29.3805 C   0  0  0  0  0  0
    2.4366   52.0995   29.0913 C   0  0  0  0  0  0
    1.9670   52.9014   27.8589 C   0  0  0  0  0  0
    3.7052   52.2299   31.2878 C   0  0  0  0  0  0
   -2.1796   51.9642   15.1706 H   0  0  0  0  0  0
   -1.2823   50.4437   15.3315 H   0  0  0  0  0  0
   -1.1746   51.3758   13.8445 H   0  0  0  0  0  0
    1.3826   50.8651   14.5371 H   0  0  0  0  0  0
    3.3544   52.0379   15.4160 H   0  0  0  0  0  0
    0.7867   54.8539   17.4167 H   0  0  0  0  0  0
   -1.1896   53.6763   16.5316 H   0  0  0  0  0  0
    2.6411   54.4740   19.2830 H   0  0  0  0  0  0
    1.8319   52.1267   19.2125 H   0  0  0  0  0  0
    2.9777   51.4378   18.1107 H   0  0  0  0  0  0
    3.9047   50.0972   20.0825 H   0  0  0  0  0  0
    1.7736   51.4518   21.5315 H   0  0  0  0  0  0
    1.4424   49.7331   21.5303 H   0  0  0  0  0  0
    2.9730   50.3222   22.1356 H   0  0  0  0  0  0
    1.1718   49.0628   19.3922 H   0  0  0  0  0  0
    2.2962   49.3569   18.0795 H   0  0  0  0  0  0
    2.7414   48.2663   19.3682 H   0  0  0  0  0  0
    2.8537   54.4018   21.1475 H   0  0  0  0  0  0
    1.3540   53.5960   22.9772 H   0  0  0  0  0  0
    1.0748   53.5172   25.3896 H   0  0  0  0  0  0
    5.2825   54.2130   25.9074 H   0  0  0  0  0  0
    6.5246   55.1211   24.0123 H   0  0  0  0  0  0
    6.5744   53.5241   23.2579 H   0  0  0  0  0  0
    5.9466   54.9323   22.3786 H   0  0  0  0  0  0
    4.5361   55.1416   27.7018 H   0  0  0  0  0  0
    3.0143   55.2970   28.5195 H   0  0  0  0  0  0
    4.7043   54.4920   30.1097 H   0  0  0  0  0  0
    5.0725   53.0630   29.0934 H   0  0  0  0  0  0
    1.5746   51.6977   29.6282 H   0  0  0  0  0  0
    3.1240   51.2977   28.8234 H   0  0  0  0  0  0
    1.2072   53.6232   28.1631 H   0  0  0  0  0  0
    1.4911   52.2259   27.1470 H   0  0  0  0  0  0
    4.3378   51.4280   30.9056 H   0  0  0  0  0  0
    4.2973   52.8971   31.9175 H   0  0  0  0  0  0
    2.8489   51.8385   31.8417 H   0  0  0  0  0  0
    3.1585   53.0319   30.0825 N   0  3  0  0  0  0
    2.4731   53.7117   30.3823 H   0  0  0  0  0  0
  1  2  1  0  0  0
  1 34  1  0  0  0
  1 35  1  0  0  0
  1 36  1  0  0  0
  2  7  2  0  0  0
  2  3  1  0  0  0
  3  4  2  0  0  0
  3 37  1  0  0  0
  4  5  1  0  0  0
  4 38  1  0  0  0
  5  6  2  0  0  0
  5  8  1  0  0  0
  6  7  1  0  0  0
  6 39  1  0  0  0
  7 40  1  0  0  0
  8  9  2  0  0  0
  8 10  2  0  0  0
  8 11  1  0  0  0
 11 12  1  0  0  0
 11 41  1  0  0  0
 12 13  1  0  0  0
 12 14  1  0  0  0
 12 18  1  0  0  0
 14 15  1  0  0  0
 14 42  1  0  0  0
 14 43  1  0  0  0
 15 16  1  0  0  0
 15 17  1  0  0  0
 15 44  1  0  0  0
 16 45  1  0  0  0
 16 46  1  0  0  0
 16 47  1  0  0  0
 17 48  1  0  0  0
 17 49  1  0  0  0
 17 50  1  0  0  0
 18 19  2  0  0  0
 18 20  1  0  0  0
 20 21  1  0  0  0
 20 51  1  0  0  0
 21 26  2  0  0  0
 21 22  1  0  0  0
 22 23  2  0  0  0
 22 52  1  0  0  0
 23 24  1  0  0  0
 23 53  1  0  0  0
 24 25  2  0  0  0
 24 28  1  0  0  0
 25 26  1  0  0  0
 25 54  1  0  0  0
 26 27  1  0  0  0
 27 55  1  0  0  0
 27 56  1  0  0  0
 27 57  1  0  0  0
 28 32  1  0  0  0
 28 29  1  0  0  0
 29 30  1  0  0  0
 29 58  1  0  0  0
 29 59  1  0  0  0
 30 60  1  0  0  0
 30 61  1  0  0  0
 30 69  1  0  0  0
 31 32  1  0  0  0
 31 62  1  0  0  0
 31 63  1  0  0  0
 31 69  1  0  0  0
 32 64  1  0  0  0
 32 65  1  0  0  0
 33 66  1  0  0  0
 33 67  1  0  0  0
 33 68  1  0  0  0
 33 69  1  0  0  0
 69 70  1  0  0  0
M  CHG  1  69   1
M  END
> <i_i_glide_confnum>
164

> <i_i_glide_lignum>
568

> <i_i_glide_posenum>
171

> <i_i_glide_rotatable_bonds>
9

> <i_m_Source_File_Index>
1875

> <b_m_subgroup_collapsed>
0

> <r_i_docking_score>
-5.07976

> <r_i_glide_ecoul>
-3.61946

> <r_i_glide_eff_state_penalty>
0

> <r_i_glide_einternal>
7.02839

> <r_i_glide_emodel>
-51.6225

> <r_i_glide_energy>
-42.0167

> <r_i_glide_erotb>
0.721353

> <r_i_glide_esite>
-0.0452725

> <r_i_glide_evdw>
-38.3973

> <r_i_glide_gscore>
-5.07976

> <r_i_glide_hbond>
-0.608

> <r_i_glide_ligand_efficiency>
-0.153932

> <r_i_glide_ligand_efficiency_ln>
-1.12971

> <r_i_glide_ligand_efficiency_sa>
-0.493743

> <r_i_glide_lipo>
-2.68858

> <r_i_glide_metal>
0

> <r_i_glide_rewards>
0.0035224

> <s_i_glide_gridfile>
wee1_glide-grid

> <s_m_Source_File>
wee1_decoys_glide_SP.sdf

> <s_m_Source_Path>
/Users/zhangxujun/Desktop

> <s_m_entry_id>
2150

> <s_m_entry_name>
wee1_decoys_glide_SP.1875

> <s_m_subgroup_title>
wee1_decoys_glide_SP

> <s_m_subgroupid>
wee1_decoys_glide_SP


$$$$
