ZINC14018915_421
                    3D
 Schrodinger Suite 2024-2.
 55 58  0  0  1  0            999 V2000
    2.0301   51.6186   18.3851 C   0  0  0  0  0  0
    3.1178   52.4875   18.4042 C   0  0  0  0  0  0
    3.5664   53.0066   19.6153 C   0  0  0  0  0  0
    2.9098   52.6808   20.8061 C   0  0  0  0  0  0
    1.8144   51.8093   20.7754 C   0  0  0  0  0  0
    1.3760   51.2764   19.5660 C   0  0  0  0  0  0
    3.3854   53.2654   22.0938 C   0  0  0  0  0  0
    4.6680   53.6226   22.4862 C   0  0  0  0  0  0
    4.7777   54.0970   23.8175 C   0  0  0  0  0  0
    3.5170   54.1095   24.4379 C   0  0  0  0  0  0
    2.2522   53.6568   23.3417 S   0  0  0  0  0  0
    3.1067   54.4492   25.7182 N   0  0  0  0  0  0
    3.6414   53.9950   26.8727 C   0  0  0  0  0  0
    4.6536   53.2969   26.9261 O   0  0  0  0  0  0
    2.9320   54.4365   28.1854 C   0  0  2  0  0  0
    3.1400   55.5058   28.2204 H   0  0  0  0  0  0
    3.5005   53.7397   29.4535 C   0  0  0  0  0  0
    3.0590   52.2600   29.6095 C   0  0  0  0  0  0
    1.5344   52.0577   29.4078 C   0  0  0  0  0  0
    1.0535   52.7762   28.2060 N   0  0  0  0  0  0
    1.3946   54.2194   28.1504 C   0  0  0  0  0  0
    0.3372   51.9167   26.8182 S   0  0  0  0  0  0
    0.5835   52.7104   25.6138 O   0  0  0  0  0  0
    0.7046   50.5004   26.8831 O   0  0  0  0  0  0
   -1.4383   51.9288   27.0438 C   0  0  0  0  0  0
   -2.2711   52.4666   26.0567 C   0  0  0  0  0  0
   -3.6535   52.3519   26.1778 C   0  0  0  0  0  0
   -4.1975   51.6949   27.2801 C   0  0  0  0  0  0
   -3.3701   51.1712   28.2718 C   0  0  0  0  0  0
   -1.9883   51.2966   28.1581 C   0  0  0  0  0  0
   -5.9095   51.5478   27.4285 Cl  0  0  0  0  0  0
    6.0067   54.6048   24.3848 C   0  0  0  0  0  0
    6.0531   55.4678   25.2597 O   0  0  0  0  0  0
    7.1045   54.1009   23.8355 N   0  0  0  0  0  0
    1.7036   51.1963   17.4460 H   0  0  0  0  0  0
    3.6303   52.7314   17.4851 H   0  0  0  0  0  0
    4.4152   53.6737   19.6187 H   0  0  0  0  0  0
    1.3052   51.5339   21.6869 H   0  0  0  0  0  0
    0.5377   50.5965   19.5436 H   0  0  0  0  0  0
    5.5063   53.5300   21.8124 H   0  0  0  0  0  0
    2.1818   54.8423   25.7791 H   0  0  0  0  0  0
    4.5821   53.8736   29.5216 H   0  0  0  0  0  0
    3.1814   54.3301   30.3087 H   0  0  0  0  0  0
    3.5964   51.6573   28.8782 H   0  0  0  0  0  0
    3.3633   51.8805   30.5855 H   0  0  0  0  0  0
    1.3086   50.9969   29.2908 H   0  0  0  0  0  0
    0.9575   52.4021   30.2669 H   0  0  0  0  0  0
    0.9241   54.6780   29.0219 H   0  0  0  0  0  0
    0.9526   54.6859   27.2817 H   0  0  0  0  0  0
   -1.8548   52.9393   25.1797 H   0  0  0  0  0  0
   -4.2989   52.7557   25.4118 H   0  0  0  0  0  0
   -3.7883   50.6517   29.1221 H   0  0  0  0  0  0
   -1.3490   50.8672   28.9155 H   0  0  0  0  0  0
    7.0452   53.2974   23.2334 H   0  0  0  0  0  0
    8.0127   54.4970   24.0557 H   0  0  0  0  0  0
  1  6  2  0  0  0
  1  2  1  0  0  0
  1 35  1  0  0  0
  2  3  2  0  0  0
  2 36  1  0  0  0
  3  4  1  0  0  0
  3 37  1  0  0  0
  4  5  2  0  0  0
  4  7  1  0  0  0
  5  6  1  0  0  0
  5 38  1  0  0  0
  6 39  1  0  0  0
  7 11  1  0  0  0
  7  8  2  0  0  0
  8  9  1  0  0  0
  8 40  1  0  0  0
  9 10  2  0  0  0
  9 32  1  0  0  0
 10 11  1  0  0  0
 10 12  1  0  0  0
 12 13  1  0  0  0
 12 41  1  0  0  0
 13 14  2  0  0  0
 13 15  1  0  0  0
 15 16  1  0  0  0
 15 21  1  0  0  0
 15 17  1  0  0  0
 17 18  1  0  0  0
 17 42  1  0  0  0
 17 43  1  0  0  0
 18 19  1  0  0  0
 18 44  1  0  0  0
 18 45  1  0  0  0
 19 20  1  0  0  0
 19 46  1  0  0  0
 19 47  1  0  0  0
 20 21  1  0  0  0
 20 22  1  0  0  0
 21 48  1  0  0  0
 21 49  1  0  0  0
 22 23  2  0  0  0
 22 24  2  0  0  0
 22 25  1  0  0  0
 25 30  2  0  0  0
 25 26  1  0  0  0
 26 27  2  0  0  0
 26 50  1  0  0  0
 27 28  1  0  0  0
 27 51  1  0  0  0
 28 29  2  0  0  0
 28 31  1  0  0  0
 29 30  1  0  0  0
 29 52  1  0  0  0
 30 53  1  0  0  0
 32 33  2  0  0  0
 32 34  1  0  0  0
 34 54  1  0  0  0
 34 55  1  0  0  0
M  END
> <i_i_glide_confnum>
183

> <i_i_glide_lignum>
422

> <i_i_glide_posenum>
73

> <i_i_glide_rotatable_bonds>
7

> <i_m_Source_File_Index>
5891

> <b_m_subgroup_collapsed>
0

> <r_i_docking_score>
-4.24829

> <r_i_glide_ecoul>
0.532593

> <r_i_glide_eff_state_penalty>
0

> <r_i_glide_einternal>
14.5391

> <r_i_glide_emodel>
-49.931

> <r_i_glide_energy>
-46.3059

> <r_i_glide_erotb>
0.482851

> <r_i_glide_esite>
-0.0442238

> <r_i_glide_evdw>
-46.8385

> <r_i_glide_gscore>
-4.24829

> <r_i_glide_hbond>
-0.32

> <r_i_glide_ligand_efficiency>
-0.128736

> <r_i_glide_ligand_efficiency_ln>
-0.944798

> <r_i_glide_ligand_efficiency_sa>
-0.412925

> <r_i_glide_lipo>
-1.86242

> <r_i_glide_metal>
0

> <r_i_glide_rewards>
-0.242462

> <s_i_glide_gridfile>
wee1_glide-grid

> <s_m_Source_File>
wee1_decoys_glide_SP.sdf

> <s_m_Source_Path>
/Users/zhangxujun/Desktop

> <s_m_entry_id>
6166

> <s_m_entry_name>
wee1_decoys_glide_SP.5891

> <s_m_subgroup_title>
wee1_decoys_glide_SP

> <s_m_subgroupid>
wee1_decoys_glide_SP


$$$$
