ZINC61360905_1915
                    3D
 Schrodinger Suite 2024-2.
 39 42  0  0  1  0            999 V2000
    2.4184   53.3678   24.3493 C   0  0  0  0  0  0
    1.9177   53.0703   23.0917 C   0  0  0  0  0  0
    3.1043   53.2964   21.8528 S   0  0  0  0  0  0
    4.2681   53.8245   23.0224 C   0  0  0  0  0  0
    3.7564   53.7966   24.3268 C   0  0  0  0  0  0
    4.6289   54.1063   25.5437 C   0  0  1  0  0  0
    4.9963   53.1525   25.9197 H   0  0  0  0  0  0
    5.8386   54.9705   25.1091 C   0  0  0  0  0  0
    6.5589   54.3730   23.8858 C   0  0  0  0  0  0
    5.6547   54.3104   22.6360 C   0  0  0  0  0  0
    3.9047   54.8204   26.5932 N   0  0  0  0  0  0
    3.5587   54.1352   27.7734 C   0  0  0  0  0  0
    2.2278   54.2333   28.1993 C   0  0  0  0  0  0
    1.8011   53.5526   29.3339 C   0  0  0  0  0  0
    2.7129   52.8013   30.0859 C   0  0  0  0  0  0
    4.0349   52.7018   29.6813 C   0  0  0  0  0  0
    4.4779   53.3872   28.5489 C   0  0  0  0  0  0
    5.8445   53.3360   28.2577 N   0  0  0  0  0  0
    2.3463   52.0967   31.2122 O   0  0  0  0  0  0
    1.0507   52.4288   31.7207 C   0  0  0  0  0  0
    0.0382   52.6348   30.5757 C   0  0  0  0  0  0
    0.4800   53.6828   29.7065 O   0  0  0  0  0  0
    1.8449   53.2605   25.2582 H   0  0  0  0  0  0
    0.9304   52.7159   22.8368 H   0  0  0  0  0  0
    6.5444   55.0614   25.9352 H   0  0  0  0  0  0
    5.5175   55.9885   24.8811 H   0  0  0  0  0  0
    6.9142   53.3708   24.1304 H   0  0  0  0  0  0
    7.4516   54.9559   23.6562 H   0  0  0  0  0  0
    6.0957   53.6795   21.8718 H   0  0  0  0  0  0
    5.5799   55.2965   22.1873 H   0  0  0  0  0  0
    3.2039   55.4521   26.2358 H   0  0  0  0  0  0
    1.5053   54.8221   27.6569 H   0  0  0  0  0  0
    4.7046   52.0967   30.2684 H   0  0  0  0  0  0
    6.4805   52.8996   28.9078 H   0  0  0  0  0  0
    6.1910   53.9282   27.5168 H   0  0  0  0  0  0
    0.7100   51.6440   32.3950 H   0  0  0  0  0  0
    1.1014   53.3430   32.3095 H   0  0  0  0  0  0
   -0.0802   51.7043   30.0154 H   0  0  0  0  0  0
   -0.9211   52.8958   31.0017 H   0  0  0  0  0  0
  1  5  1  0  0  0
  1  2  2  0  0  0
  1 23  1  0  0  0
  2  3  1  0  0  0
  2 24  1  0  0  0
  3  4  1  0  0  0
  4 10  1  0  0  0
  4  5  2  0  0  0
  5  6  1  0  0  0
  6  7  1  0  0  0
  6  8  1  0  0  0
  6 11  1  0  0  0
  8  9  1  0  0  0
  8 25  1  0  0  0
  8 26  1  0  0  0
  9 10  1  0  0  0
  9 27  1  0  0  0
  9 28  1  0  0  0
 10 29  1  0  0  0
 10 30  1  0  0  0
 11 12  1  0  0  0
 11 31  1  0  0  0
 12 17  2  0  0  0
 12 13  1  0  0  0
 13 14  2  0  0  0
 13 32  1  0  0  0
 14 22  1  0  0  0
 14 15  1  0  0  0
 15 16  2  0  0  0
 15 19  1  0  0  0
 16 17  1  0  0  0
 16 33  1  0  0  0
 17 18  1  0  0  0
 18 34  1  0  0  0
 18 35  1  0  0  0
 19 20  1  0  0  0
 20 21  1  0  0  0
 20 36  1  0  0  0
 20 37  1  0  0  0
 21 22  1  0  0  0
 21 38  1  0  0  0
 21 39  1  0  0  0
M  END
> <i_i_glide_confnum>
12

> <i_i_glide_lignum>
1916

> <i_i_glide_posenum>
98

> <i_i_glide_rotatable_bonds>
2

> <i_m_Source_File_Index>
3779

> <b_m_subgroup_collapsed>
0

> <r_i_docking_score>
-6.71183

> <r_i_glide_ecoul>
-1.75472

> <r_i_glide_eff_state_penalty>
0

> <r_i_glide_einternal>
6.21724

> <r_i_glide_emodel>
-52.3592

> <r_i_glide_energy>
-39.5673

> <r_i_glide_erotb>
0.402694

> <r_i_glide_esite>
0

> <r_i_glide_evdw>
-37.8126

> <r_i_glide_gscore>
-6.71183

> <r_i_glide_hbond>
-0.314854

> <r_i_glide_ligand_efficiency>
-0.319611

> <r_i_glide_ligand_efficiency_ln>
-1.65949

> <r_i_glide_ligand_efficiency_sa>
-0.881782

> <r_i_glide_lipo>
-3.20908

> <r_i_glide_metal>
0

> <r_i_glide_rewards>
-1.43676

> <s_i_glide_gridfile>
wee1_glide-grid

> <s_m_Source_File>
wee1_decoys_glide_SP.sdf

> <s_m_Source_Path>
/Users/zhangxujun/Desktop

> <s_m_entry_id>
4054

> <s_m_entry_name>
wee1_decoys_glide_SP.3779

> <s_m_subgroup_title>
wee1_decoys_glide_SP

> <s_m_subgroupid>
wee1_decoys_glide_SP


$$$$
