ZINC39696196_792
                    3D
 Schrodinger Suite 2024-2.
 66 69  0  0  1  0            999 V2000
    6.7781   53.3146   27.8913 C   0  0  0  0  0  0
    6.4419   54.6743   27.2723 C   0  0  0  0  0  0
    5.8643   54.5595   25.8704 C   0  0  0  0  0  0
    6.7085   54.5000   24.7618 C   0  0  0  0  0  0
    6.1837   54.4418   23.4738 C   0  0  0  0  0  0
    4.7961   54.4384   23.2839 C   0  0  0  0  0  0
    3.9588   54.4765   24.3975 C   0  0  0  0  0  0
    4.4837   54.5272   25.6853 C   0  0  0  0  0  0
    4.1430   54.4849   21.8932 C   0  0  1  0  0  0
    3.3987   55.2794   21.9603 H   0  0  0  0  0  0
    5.0859   54.9070   20.7377 C   0  0  0  0  0  0
    3.3722   53.2794   21.5684 N   0  0  0  0  0  0
    3.9005   52.0784   21.2818 C   0  0  0  0  0  0
    5.1045   51.8711   21.2834 O   0  0  0  0  0  0
    2.9702   50.9265   20.8680 C   0  0  1  0  0  0
    3.6440   50.0825   20.7505 H   0  0  0  0  0  0
    1.9441   50.5477   21.9256 C   0  0  0  0  0  0
    0.7225   51.2168   21.4619 N   0  0  0  0  0  0
    0.8280   51.6993   20.0744 C   0  0  0  0  0  0
    2.1804   51.1478   19.5506 C   0  0  0  0  0  0
    2.0106   49.7339   18.9067 C   0  0  0  0  0  0
    1.1718   49.7393   17.6202 C   0  0  0  0  0  0
    1.9044   50.6492   16.6203 N   0  3  0  0  0  0
    2.0853   52.0905   17.1423 C   0  0  0  0  0  0
    2.8688   52.0370   18.4680 C   0  0  0  0  0  0
   -0.3672   51.4438   22.2360 C   0  0  0  0  0  0
   -1.3460   52.0966   21.8676 O   0  0  0  0  0  0
   -0.3611   50.8102   23.5313 C   0  0  0  0  0  0
   -1.0112   49.6037   23.7766 C   0  0  0  0  0  0
   -0.6944   48.9879   25.3606 S   0  0  0  0  0  0
    0.3038   50.3571   25.7233 C   0  0  0  0  0  0
    0.4065   51.2341   24.6380 C   0  0  0  0  0  0
    1.2106   52.3448   24.5949 O   0  0  0  0  0  0
    1.1045   53.2132   25.7117 C   0  0  0  0  0  0
    1.0326   50.4968   27.2812 Cl  0  0  0  0  0  0
    7.2112   53.4415   28.8815 H   0  0  0  0  0  0
    7.5043   52.7816   27.2828 H   0  0  0  0  0  0
    5.8918   52.6874   27.9881 H   0  0  0  0  0  0
    5.7416   55.2135   27.9125 H   0  0  0  0  0  0
    7.3380   55.2954   27.2497 H   0  0  0  0  0  0
    7.7804   54.5085   24.8821 H   0  0  0  0  0  0
    6.8669   54.4175   22.6382 H   0  0  0  0  0  0
    2.8947   54.4990   24.2426 H   0  0  0  0  0  0
    3.8206   54.5721   26.5359 H   0  0  0  0  0  0
    5.5199   55.8881   20.9237 H   0  0  0  0  0  0
    5.9060   54.2069   20.5839 H   0  0  0  0  0  0
    4.5425   54.9705   19.7943 H   0  0  0  0  0  0
    2.3677   53.3577   21.6195 H   0  0  0  0  0  0
    1.8087   49.4648   21.9029 H   0  0  0  0  0  0
    2.3029   50.8236   22.9188 H   0  0  0  0  0  0
    0.9049   52.7866   20.1211 H   0  0  0  0  0  0
   -0.0200   51.4684   19.4322 H   0  0  0  0  0  0
    2.9862   49.2864   18.7055 H   0  0  0  0  0  0
    1.5313   49.0512   19.6105 H   0  0  0  0  0  0
    1.1335   48.7549   17.1541 H   0  0  0  0  0  0
    0.1597   50.1258   17.7357 H   0  0  0  0  0  0
    2.8327   50.2309   16.4817 H   0  0  0  0  0  0
    2.6300   52.6330   16.3688 H   0  0  0  0  0  0
    1.0883   52.5223   17.2489 H   0  0  0  0  0  0
    2.9863   53.0567   18.8360 H   0  0  0  0  0  0
    3.8895   51.6974   18.2824 H   0  0  0  0  0  0
   -1.6361   49.0388   23.1005 H   0  0  0  0  0  0
    1.1045   54.2381   25.3476 H   0  0  0  0  0  0
    0.2054   53.0658   26.3133 H   0  0  0  0  0  0
    1.9694   53.0913   26.3625 H   0  0  0  0  0  0
    1.4437   50.6427   15.7214 H   0  0  0  0  0  0
  1  2  1  0  0  0
  1 36  1  0  0  0
  1 37  1  0  0  0
  1 38  1  0  0  0
  2  3  1  0  0  0
  2 39  1  0  0  0
  2 40  1  0  0  0
  3  8  2  0  0  0
  3  4  1  0  0  0
  4  5  2  0  0  0
  4 41  1  0  0  0
  5  6  1  0  0  0
  5 42  1  0  0  0
  6  7  2  0  0  0
  6  9  1  0  0  0
  7  8  1  0  0  0
  7 43  1  0  0  0
  8 44  1  0  0  0
  9 10  1  0  0  0
  9 11  1  0  0  0
  9 12  1  0  0  0
 11 45  1  0  0  0
 11 46  1  0  0  0
 11 47  1  0  0  0
 12 13  1  0  0  0
 12 48  1  0  0  0
 13 14  2  0  0  0
 13 15  1  0  0  0
 15 16  1  0  0  0
 15 20  1  0  0  0
 15 17  1  0  0  0
 17 18  1  0  0  0
 17 49  1  0  0  0
 17 50  1  0  0  0
 18 19  1  0  0  0
 18 26  1  0  0  0
 19 20  1  0  0  0
 19 51  1  0  0  0
 19 52  1  0  0  0
 20 25  1  0  0  0
 20 21  1  0  0  0
 21 22  1  0  0  0
 21 53  1  0  0  0
 21 54  1  0  0  0
 22 23  1  0  0  0
 22 55  1  0  0  0
 22 56  1  0  0  0
 23 24  1  0  0  0
 23 57  1  0  0  0
 23 66  1  0  0  0
 24 25  1  0  0  0
 24 58  1  0  0  0
 24 59  1  0  0  0
 25 60  1  0  0  0
 25 61  1  0  0  0
 26 27  2  0  0  0
 26 28  1  0  0  0
 28 32  1  0  0  0
 28 29  2  0  0  0
 29 30  1  0  0  0
 29 62  1  0  0  0
 30 31  1  0  0  0
 31 32  2  0  0  0
 31 35  1  0  0  0
 32 33  1  0  0  0
 33 34  1  0  0  0
 34 63  1  0  0  0
 34 64  1  0  0  0
 34 65  1  0  0  0
M  CHG  1  23   1
M  END
> <i_i_glide_confnum>
311

> <i_i_glide_lignum>
793

> <i_i_glide_posenum>
95

> <i_i_glide_rotatable_bonds>
8

> <i_m_Source_File_Index>
2041

> <b_m_subgroup_collapsed>
0

> <r_i_docking_score>
-5.80667

> <r_i_glide_ecoul>
-9.19817

> <r_i_glide_eff_state_penalty>
0

> <r_i_glide_einternal>
22.447

> <r_i_glide_emodel>
-57.3756

> <r_i_glide_energy>
-48.207

> <r_i_glide_erotb>
0.506455

> <r_i_glide_esite>
-0.0947725

> <r_i_glide_evdw>
-39.0089

> <r_i_glide_gscore>
-5.80667

> <r_i_glide_hbond>
-0.2

> <r_i_glide_ligand_efficiency>
-0.17596

> <r_i_glide_ligand_efficiency_ln>
-1.29137

> <r_i_glide_ligand_efficiency_sa>
-0.564397

> <r_i_glide_lipo>
-2.54962

> <r_i_glide_metal>
0

> <r_i_glide_rewards>
-0.138561

> <s_i_glide_gridfile>
wee1_glide-grid

> <s_m_Source_File>
wee1_decoys_glide_SP.sdf

> <s_m_Source_Path>
/Users/zhangxujun/Desktop

> <s_m_entry_id>
2316

> <s_m_entry_name>
wee1_decoys_glide_SP.2041

> <s_m_subgroup_title>
wee1_decoys_glide_SP

> <s_m_subgroupid>
wee1_decoys_glide_SP


$$$$
