ZINC37934304_1837
                    3D
 Schrodinger Suite 2024-2.
 44 46  0  0  1  0            999 V2000
    0.2618   52.0947   26.5071 C   0  0  0  0  0  0
   -0.4988   51.3342   25.6215 C   0  0  0  0  0  0
   -0.0875   51.1864   24.2953 C   0  0  0  0  0  0
    1.1064   51.7686   23.8639 C   0  0  0  0  0  0
    1.8733   52.5033   24.7703 C   0  0  0  0  0  0
    1.4672   52.6858   26.1046 C   0  0  0  0  0  0
    2.2639   53.3667   27.0280 N   0  0  0  0  0  0
    1.7011   54.2587   28.0669 C   0  0  0  0  0  0
    2.4631   54.2084   29.4048 C   0  0  0  0  0  0
    3.9586   54.4550   29.2079 C   0  0  0  0  0  0
    4.5076   53.4508   28.1795 C   0  0  1  0  0  0
    4.3201   52.4479   28.5684 H   0  0  0  0  0  0
    3.7222   53.5468   26.8369 C   0  0  2  0  0  0
    4.0990   52.7005   26.2679 H   0  0  0  0  0  0
    4.0991   54.8036   26.0152 C   0  0  0  0  0  0
    5.6218   54.8970   25.7806 C   0  0  0  0  0  0
    6.4229   54.7988   27.0928 C   0  0  0  0  0  0
    6.0317   53.5691   27.9304 C   0  0  0  0  0  0
    1.6926   51.5134   22.1852 S   0  0  0  0  0  0
    1.4120   50.1155   21.8413 O   0  0  0  0  0  0
    3.0461   52.0668   22.0818 O   0  0  0  0  0  0
    0.6674   52.4966   21.1814 N   0  0  0  0  0  0
   -1.6499   50.6913   26.0753 N   0  0  0  0  0  0
   -0.0658   52.1676   27.5323 H   0  0  0  0  0  0
   -0.6720   50.5909   23.6088 H   0  0  0  0  0  0
    2.8100   52.9114   24.4294 H   0  0  0  0  0  0
    1.6881   55.2772   27.6816 H   0  0  0  0  0  0
    0.6625   54.0056   28.2717 H   0  0  0  0  0  0
    2.0538   54.9652   30.0755 H   0  0  0  0  0  0
    2.2774   53.2554   29.9018 H   0  0  0  0  0  0
    4.1313   55.4752   28.8823 H   0  0  0  0  0  0
    4.4992   54.3637   30.1494 H   0  0  0  0  0  0
    3.5969   54.8085   25.0487 H   0  0  0  0  0  0
    3.7449   55.6945   26.5156 H   0  0  0  0  0  0
    5.9339   54.0930   25.1115 H   0  0  0  0  0  0
    5.8642   55.8284   25.2665 H   0  0  0  0  0  0
    7.4911   54.7660   26.8793 H   0  0  0  0  0  0
    6.2660   55.6955   27.6886 H   0  0  0  0  0  0
    6.5667   53.5902   28.8789 H   0  0  0  0  0  0
    6.3815   52.6749   27.4161 H   0  0  0  0  0  0
    1.1054   53.3937   20.9350 H   0  0  0  0  0  0
    0.3560   51.9971   20.3437 H   0  0  0  0  0  0
   -1.6859   50.4624   27.0614 H   0  0  0  0  0  0
   -2.0519   50.0068   25.4518 H   0  0  0  0  0  0
  1  6  2  0  0  0
  1  2  1  0  0  0
  1 24  1  0  0  0
  2  3  2  0  0  0
  2 23  1  0  0  0
  3  4  1  0  0  0
  3 25  1  0  0  0
  4  5  2  0  0  0
  4 19  1  0  0  0
  5  6  1  0  0  0
  5 26  1  0  0  0
  6  7  1  0  0  0
  7 13  1  0  0  0
  7  8  1  0  0  0
  8  9  1  0  0  0
  8 27  1  0  0  0
  8 28  1  0  0  0
  9 10  1  0  0  0
  9 29  1  0  0  0
  9 30  1  0  0  0
 10 11  1  0  0  0
 10 31  1  0  0  0
 10 32  1  0  0  0
 11 12  1  0  0  0
 11 18  1  0  0  0
 11 13  1  0  0  0
 13 14  1  0  0  0
 13 15  1  0  0  0
 15 16  1  0  0  0
 15 33  1  0  0  0
 15 34  1  0  0  0
 16 17  1  0  0  0
 16 35  1  0  0  0
 16 36  1  0  0  0
 17 18  1  0  0  0
 17 37  1  0  0  0
 17 38  1  0  0  0
 18 39  1  0  0  0
 18 40  1  0  0  0
 19 20  2  0  0  0
 19 21  2  0  0  0
 19 22  1  0  0  0
 22 41  1  0  0  0
 22 42  1  0  0  0
 23 43  1  0  0  0
 23 44  1  0  0  0
M  END
> <i_i_glide_confnum>
2

> <i_i_glide_lignum>
1838

> <i_i_glide_posenum>
86

> <i_i_glide_rotatable_bonds>
2

> <i_m_Source_File_Index>
1623

> <b_m_subgroup_collapsed>
0

> <r_i_docking_score>
-6.39651

> <r_i_glide_ecoul>
-3.2138

> <r_i_glide_eff_state_penalty>
0

> <r_i_glide_einternal>
0.32605

> <r_i_glide_emodel>
-47.0799

> <r_i_glide_energy>
-34.1217

> <r_i_glide_erotb>
0.193388

> <r_i_glide_esite>
-0.0847179

> <r_i_glide_evdw>
-30.9079

> <r_i_glide_gscore>
-6.39651

> <r_i_glide_hbond>
-0.32

> <r_i_glide_ligand_efficiency>
-0.304596

> <r_i_glide_ligand_efficiency_ln>
-1.58152

> <r_i_glide_ligand_efficiency_sa>
-0.840356

> <r_i_glide_lipo>
-2.63552

> <r_i_glide_metal>
0

> <r_i_glide_rewards>
-1.52219

> <s_i_glide_gridfile>
wee1_glide-grid

> <s_m_Source_File>
wee1_decoys_glide_SP.sdf

> <s_m_Source_Path>
/Users/zhangxujun/Desktop

> <s_m_entry_id>
1898

> <s_m_entry_name>
wee1_decoys_glide_SP.1623

> <s_m_subgroup_title>
wee1_decoys_glide_SP

> <s_m_subgroupid>
wee1_decoys_glide_SP


$$$$
