ZINC21520850_4776
                    3D
 Schrodinger Suite 2024-2.
 41 42  0  0  1  0            999 V2000
    6.9522   54.0216   23.6749 C   0  0  0  0  0  0
    5.9008   54.1978   24.7628 C   0  0  0  0  0  0
    6.3049   54.2467   26.1012 C   0  0  0  0  0  0
    5.3653   54.3928   27.1205 C   0  0  0  0  0  0
    4.0085   54.4904   26.8080 C   0  0  0  0  0  0
    3.6004   54.4384   25.4729 C   0  0  0  0  0  0
    4.5337   54.2839   24.4465 C   0  0  0  0  0  0
    4.0443   54.2222   23.0066 C   0  0  0  0  0  0
    3.0710   54.7047   27.8229 N   0  0  0  0  0  0
    2.4996   53.4170   28.8942 S   0  0  0  0  0  0
    1.9722   54.0952   30.0823 O   0  0  0  0  0  0
    3.5750   52.4275   29.0195 O   0  0  0  0  0  0
    1.1158   52.6229   28.0725 C   0  0  0  0  0  0
   -0.0524   52.3263   28.7781 C   0  0  0  0  0  0
   -1.1191   51.6805   28.1469 C   0  0  0  0  0  0
   -1.0293   51.3356   26.7840 C   0  0  0  0  0  0
    0.1531   51.6338   26.0837 C   0  0  0  0  0  0
    1.2126   52.2596   26.7342 C   0  0  0  0  0  0
    0.3228   51.2964   24.7394 N   0  0  0  0  0  0
   -2.2001   50.6405   26.0851 C   0  0  0  0  0  0
   -2.3326   51.2957   28.9827 C   0  0  0  0  0  0
    7.1031   54.9577   23.1345 H   0  0  0  0  0  0
    7.9051   53.6847   24.0822 H   0  0  0  0  0  0
    6.6342   53.2661   22.9553 H   0  0  0  0  0  0
    7.3499   54.1641   26.3629 H   0  0  0  0  0  0
    5.6933   54.4329   28.1495 H   0  0  0  0  0  0
    2.5496   54.4984   25.2317 H   0  0  0  0  0  0
    4.1560   53.2145   22.6060 H   0  0  0  0  0  0
    3.0012   54.5275   22.9110 H   0  0  0  0  0  0
    4.6256   54.8950   22.3759 H   0  0  0  0  0  0
    2.6810   55.6262   27.9421 H   0  0  0  0  0  0
   -0.1199   52.5753   29.8279 H   0  0  0  0  0  0
    2.1271   52.4443   26.1979 H   0  0  0  0  0  0
    1.2293   51.4363   24.3167 H   0  0  0  0  0  0
   -0.3180   50.6251   24.3379 H   0  0  0  0  0  0
   -2.2309   50.8514   25.0145 H   0  0  0  0  0  0
   -3.1575   50.9910   26.4733 H   0  0  0  0  0  0
   -2.1384   49.5604   26.2332 H   0  0  0  0  0  0
   -2.0965   51.2945   30.0495 H   0  0  0  0  0  0
   -3.1873   51.9385   28.7776 H   0  0  0  0  0  0
   -2.6480   50.2774   28.7562 H   0  0  0  0  0  0
  1  2  1  0  0  0
  1 22  1  0  0  0
  1 23  1  0  0  0
  1 24  1  0  0  0
  2  7  2  0  0  0
  2  3  1  0  0  0
  3  4  2  0  0  0
  3 25  1  0  0  0
  4  5  1  0  0  0
  4 26  1  0  0  0
  5  6  2  0  0  0
  5  9  1  0  0  0
  6  7  1  0  0  0
  6 27  1  0  0  0
  7  8  1  0  0  0
  8 28  1  0  0  0
  8 29  1  0  0  0
  8 30  1  0  0  0
  9 10  1  0  0  0
  9 31  1  0  0  0
 10 11  2  0  0  0
 10 12  2  0  0  0
 10 13  1  0  0  0
 13 18  2  0  0  0
 13 14  1  0  0  0
 14 15  2  0  0  0
 14 32  1  0  0  0
 15 16  1  0  0  0
 15 21  1  0  0  0
 16 17  2  0  0  0
 16 20  1  0  0  0
 17 18  1  0  0  0
 17 19  1  0  0  0
 18 33  1  0  0  0
 19 34  1  0  0  0
 19 35  1  0  0  0
 20 36  1  0  0  0
 20 37  1  0  0  0
 20 38  1  0  0  0
 21 39  1  0  0  0
 21 40  1  0  0  0
 21 41  1  0  0  0
M  END
> <i_i_glide_confnum>
12

> <i_i_glide_lignum>
4777

> <i_i_glide_posenum>
104

> <i_i_glide_rotatable_bonds>
3

> <i_m_Source_File_Index>
2963

> <b_m_subgroup_collapsed>
0

> <r_i_docking_score>
-4.69154

> <r_i_glide_ecoul>
-2.99313

> <r_i_glide_eff_state_penalty>
0

> <r_i_glide_einternal>
5.59237

> <r_i_glide_emodel>
-41.6033

> <r_i_glide_energy>
-35.4297

> <r_i_glide_erotb>
0.59705

> <r_i_glide_esite>
-0.00147803

> <r_i_glide_evdw>
-32.4366

> <r_i_glide_gscore>
-4.69154

> <r_i_glide_hbond>
0

> <r_i_glide_ligand_efficiency>
-0.223407

> <r_i_glide_ligand_efficiency_ln>
-1.15997

> <r_i_glide_ligand_efficiency_sa>
-0.616362

> <r_i_glide_lipo>
-2.21918

> <r_i_glide_metal>
0

> <r_i_glide_rewards>
-0.997135

> <s_i_glide_gridfile>
wee1_glide-grid

> <s_m_Source_File>
wee1_decoys_glide_SP.sdf

> <s_m_Source_Path>
/Users/zhangxujun/Desktop

> <s_m_entry_id>
3238

> <s_m_entry_name>
wee1_decoys_glide_SP.2963

> <s_m_subgroup_title>
wee1_decoys_glide_SP

> <s_m_subgroupid>
wee1_decoys_glide_SP


$$$$
