ZINC02291747_3510
                    3D
 Schrodinger Suite 2024-2.
 52 56  0  0  1  0            999 V2000
   -1.1865   50.4285   25.9031 C   0  0  0  0  0  0
   -0.7404   51.8795   26.1977 C   0  0  1  0  0  0
   -1.5642   52.5361   25.9138 H   0  0  0  0  0  0
   -0.5019   52.1930   27.6934 C   0  0  0  0  0  0
   -1.1396   51.4471   28.6936 C   0  0  0  0  0  0
   -0.8955   51.6969   30.0413 C   0  0  0  0  0  0
   -0.0167   52.7098   30.4077 C   0  0  0  0  0  0
    0.6164   53.4782   29.4348 C   0  0  0  0  0  0
    0.3756   53.2182   28.0864 C   0  0  0  0  0  0
    0.3998   52.2590   25.3610 N   0  0  0  0  0  0
    0.4187   52.5010   24.0389 C   0  0  0  0  0  0
   -0.5603   52.3943   23.2995 O   0  0  0  0  0  0
    1.7183   52.9288   23.5616 C   0  0  0  0  0  0
    2.8203   53.4651   24.3008 C   0  0  0  0  0  0
    3.8928   53.7170   23.4162 C   0  0  0  0  0  0
    5.0922   54.1254   23.8556 N   0  0  0  0  0  0
    5.2728   54.2845   25.1969 C   0  0  0  0  0  0
    6.5411   54.6082   25.7246 C   0  0  0  0  0  0
    6.7052   54.6944   27.1082 C   0  0  0  0  0  0
    5.6387   54.4965   27.9780 C   0  0  0  0  0  0
    4.3751   54.1925   27.4870 C   0  0  0  0  0  0
    4.1827   54.0736   26.0926 C   0  0  0  0  0  0
    2.9745   53.6966   25.6089 N   0  0  0  0  0  0
    3.4628   53.4499   22.1195 N   0  0  0  0  0  0
    2.1568   52.9319   22.2290 C   0  0  0  0  0  0
    1.4520   52.4968   21.1339 N   0  0  0  0  0  0
    4.2214   53.7044   20.9270 C   0  0  0  0  0  0
    4.1400   52.8569   19.8154 C   0  0  0  0  0  0
    4.8497   53.1498   18.6522 C   0  0  0  0  0  0
    5.7018   54.2470   18.6064 C   0  0  0  0  0  0
    5.8393   55.0695   19.7169 C   0  0  0  0  0  0
    5.1044   54.7979   20.8671 C   0  0  0  0  0  0
    6.6979   54.6159   17.0276 Br  0  0  0  0  0  0
   -2.1549   50.1993   26.3469 H   0  0  0  0  0  0
   -1.2913   50.2457   24.8339 H   0  0  0  0  0  0
   -0.4631   49.7075   26.2881 H   0  0  0  0  0  0
   -1.8221   50.6443   28.4522 H   0  0  0  0  0  0
   -1.3799   51.0984   30.8005 H   0  0  0  0  0  0
    0.1643   52.8987   31.4567 H   0  0  0  0  0  0
    1.2901   54.2713   29.7217 H   0  0  0  0  0  0
    0.8776   53.8275   27.3513 H   0  0  0  0  0  0
    1.2882   52.2801   25.8363 H   0  0  0  0  0  0
    7.3753   54.7496   25.0515 H   0  0  0  0  0  0
    7.6754   54.9087   27.5288 H   0  0  0  0  0  0
    5.8019   54.5749   29.0417 H   0  0  0  0  0  0
    3.5493   54.0190   28.1604 H   0  0  0  0  0  0
    0.5141   52.1399   21.2582 H   0  0  0  0  0  0
    1.7157   52.7753   20.1999 H   0  0  0  0  0  0
    3.5419   51.9587   19.8234 H   0  0  0  0  0  0
    4.7659   52.4970   17.7969 H   0  0  0  0  0  0
    6.5043   55.9205   19.6827 H   0  0  0  0  0  0
    5.2103   55.4849   21.6866 H   0  0  0  0  0  0
  1  2  1  0  0  0
  1 34  1  0  0  0
  1 35  1  0  0  0
  1 36  1  0  0  0
  2  3  1  0  0  0
  2  4  1  0  0  0
  2 10  1  0  0  0
  4  9  2  0  0  0
  4  5  1  0  0  0
  5  6  2  0  0  0
  5 37  1  0  0  0
  6  7  1  0  0  0
  6 38  1  0  0  0
  7  8  2  0  0  0
  7 39  1  0  0  0
  8  9  1  0  0  0
  8 40  1  0  0  0
  9 41  1  0  0  0
 10 11  1  0  0  0
 10 42  1  0  0  0
 11 12  2  0  0  0
 11 13  1  0  0  0
 13 25  2  0  0  0
 13 14  1  0  0  0
 14 23  2  0  0  0
 14 15  1  0  0  0
 15 16  2  0  0  0
 15 24  1  0  0  0
 16 17  1  0  0  0
 17 22  2  0  0  0
 17 18  1  0  0  0
 18 19  2  0  0  0
 18 43  1  0  0  0
 19 20  1  0  0  0
 19 44  1  0  0  0
 20 21  2  0  0  0
 20 45  1  0  0  0
 21 22  1  0  0  0
 21 46  1  0  0  0
 22 23  1  0  0  0
 24 25  1  0  0  0
 24 27  1  0  0  0
 25 26  1  0  0  0
 26 47  1  0  0  0
 26 48  1  0  0  0
 27 32  2  0  0  0
 27 28  1  0  0  0
 28 29  2  0  0  0
 28 49  1  0  0  0
 29 30  1  0  0  0
 29 50  1  0  0  0
 30 31  2  0  0  0
 30 33  1  0  0  0
 31 32  1  0  0  0
 31 51  1  0  0  0
 32 52  1  0  0  0
M  END
> <i_i_glide_confnum>
14

> <i_i_glide_lignum>
3511

> <i_i_glide_posenum>
351

> <i_i_glide_rotatable_bonds>
5

> <i_m_Source_File_Index>
885

> <b_m_subgroup_collapsed>
0

> <r_i_docking_score>
-5.76669

> <r_i_glide_ecoul>
-2.83089

> <r_i_glide_eff_state_penalty>
0

> <r_i_glide_einternal>
6.91057

> <r_i_glide_emodel>
-60.3567

> <r_i_glide_energy>
-46.4314

> <r_i_glide_erotb>
0.343636

> <r_i_glide_esite>
-0.0310049

> <r_i_glide_evdw>
-43.6005

> <r_i_glide_gscore>
-5.76669

> <r_i_glide_hbond>
0

> <r_i_glide_ligand_efficiency>
-0.180209

> <r_i_glide_ligand_efficiency_ln>
-1.29132

> <r_i_glide_ligand_efficiency_sa>
-0.572128

> <r_i_glide_lipo>
-2.67277

> <r_i_glide_metal>
0

> <r_i_glide_rewards>
-0.801883

> <s_i_glide_gridfile>
wee1_glide-grid

> <s_m_Source_File>
wee1_decoys_glide_SP.sdf

> <s_m_Source_Path>
/Users/zhangxujun/Desktop

> <s_m_entry_id>
1160

> <s_m_entry_name>
wee1_decoys_glide_SP.885

> <s_m_subgroup_title>
wee1_decoys_glide_SP

> <s_m_subgroupid>
wee1_decoys_glide_SP


$$$$
