ZINC60160282_4911
                    3D
 Schrodinger Suite 2024-2.
 65 67  0  0  1  0            999 V2000
   -1.9014   52.4603   26.6081 C   0  0  0  0  0  0
   -0.7221   52.4841   27.6057 C   0  0  0  0  0  0
   -0.8449   51.2959   28.5742 C   0  0  0  0  0  0
    0.6880   52.6395   26.9377 C   0  0  2  0  0  0
    0.9304   53.6962   26.9014 H   0  0  0  0  0  0
    0.8265   52.1151   25.5038 C   0  0  0  0  0  0
    1.0796   53.0159   24.4658 C   0  0  0  0  0  0
    1.2367   52.5631   23.1611 C   0  0  0  0  0  0
    1.1448   51.1959   22.8602 C   0  0  0  0  0  0
    0.8718   50.3012   23.9058 C   0  0  0  0  0  0
    0.7040   50.7532   25.2121 C   0  0  0  0  0  0
    1.3315   50.6581   21.4180 C   0  0  0  0  0  0
    1.4443   51.7817   20.3498 C   0  0  0  0  0  0
    0.1263   49.7698   21.0151 C   0  0  0  0  0  0
    2.6265   49.8168   21.3559 C   0  0  0  0  0  0
    1.7936   52.0887   27.8670 N   0  3  0  0  0  0
    2.5274   53.0974   28.7750 C   0  0  0  0  0  0
    3.7556   53.5630   28.0261 C   0  0  0  0  0  0
    4.9822   53.2945   28.4073 N   0  0  0  0  0  0
    5.9470   53.6999   27.4923 N   0  0  0  0  0  0
    5.4328   54.2497   26.4171 C   0  0  0  0  0  0
    3.7046   54.4423   26.5314 S   0  0  0  0  0  0
    6.0892   54.6928   25.2256 C   0  0  0  0  0  0
    7.1042   55.3814   25.2909 O   0  0  0  0  0  0
    5.4841   54.2456   24.1001 N   0  0  0  0  0  0
    5.7703   54.4965   22.7488 C   0  0  0  0  0  0
    6.8254   55.2969   22.2968 C   0  0  0  0  0  0
    7.0165   55.4938   20.9330 C   0  0  0  0  0  0
    6.1492   54.9010   20.0034 C   0  0  0  0  0  0
    5.0984   54.1083   20.4608 C   0  0  0  0  0  0
    4.9103   53.9017   21.8233 C   0  0  0  0  0  0
    6.2624   55.0388   18.6352 O   0  0  0  0  0  0
    7.3418   55.7933   18.0953 C   0  0  0  0  0  0
   -1.9064   51.5472   26.0129 H   0  0  0  0  0  0
   -2.8574   52.4964   27.1342 H   0  0  0  0  0  0
   -1.8706   53.2967   25.9118 H   0  0  0  0  0  0
   -0.8685   53.3743   28.2188 H   0  0  0  0  0  0
   -0.4959   50.3905   28.0828 H   0  0  0  0  0  0
   -0.2581   51.4371   29.4802 H   0  0  0  0  0  0
   -1.8755   51.1292   28.8973 H   0  0  0  0  0  0
    1.1634   54.0738   24.6621 H   0  0  0  0  0  0
    1.4381   53.2973   22.3956 H   0  0  0  0  0  0
    0.8042   49.2408   23.7177 H   0  0  0  0  0  0
    0.5017   50.0345   25.9956 H   0  0  0  0  0  0
    1.5459   51.3710   19.3431 H   0  0  0  0  0  0
    2.3168   52.4156   20.5116 H   0  0  0  0  0  0
    0.5630   52.4237   20.3433 H   0  0  0  0  0  0
    0.0396   48.8770   21.6358 H   0  0  0  0  0  0
   -0.8137   50.3155   21.0914 H   0  0  0  0  0  0
    0.2151   49.4178   19.9848 H   0  0  0  0  0  0
    2.6140   48.9798   22.0545 H   0  0  0  0  0  0
    2.7857   49.3982   20.3611 H   0  0  0  0  0  0
    3.5037   50.4227   21.5900 H   0  0  0  0  0  0
    1.3577   51.3736   28.4345 H   0  0  0  0  0  0
    1.8125   53.8798   29.0416 H   0  0  0  0  0  0
    2.7650   52.5246   29.6719 H   0  0  0  0  0  0
    4.6739   53.6632   24.2441 H   0  0  0  0  0  0
    7.5052   55.7768   22.9797 H   0  0  0  0  0  0
    7.8529   56.0964   20.6164 H   0  0  0  0  0  0
    4.4287   53.6470   19.7486 H   0  0  0  0  0  0
    4.0876   53.2814   22.1477 H   0  0  0  0  0  0
    7.2801   55.7770   17.0057 H   0  0  0  0  0  0
    7.3029   56.8352   18.4129 H   0  0  0  0  0  0
    8.3065   55.3682   18.3743 H   0  0  0  0  0  0
    2.4864   51.6284   27.2920 H   0  0  0  0  0  0
  1  2  1  0  0  0
  1 34  1  0  0  0
  1 35  1  0  0  0
  1 36  1  0  0  0
  2  3  1  0  0  0
  2  4  1  0  0  0
  2 37  1  0  0  0
  3 38  1  0  0  0
  3 39  1  0  0  0
  3 40  1  0  0  0
  4  5  1  0  0  0
  4  6  1  0  0  0
  4 16  1  0  0  0
  6 11  2  0  0  0
  6  7  1  0  0  0
  7  8  2  0  0  0
  7 41  1  0  0  0
  8  9  1  0  0  0
  8 42  1  0  0  0
  9 10  2  0  0  0
  9 12  1  0  0  0
 10 11  1  0  0  0
 10 43  1  0  0  0
 11 44  1  0  0  0
 12 13  1  0  0  0
 12 14  1  0  0  0
 12 15  1  0  0  0
 13 45  1  0  0  0
 13 46  1  0  0  0
 13 47  1  0  0  0
 14 48  1  0  0  0
 14 49  1  0  0  0
 14 50  1  0  0  0
 15 51  1  0  0  0
 15 52  1  0  0  0
 15 53  1  0  0  0
 16 17  1  0  0  0
 16 54  1  0  0  0
 16 65  1  0  0  0
 17 18  1  0  0  0
 17 55  1  0  0  0
 17 56  1  0  0  0
 18 22  1  0  0  0
 18 19  2  0  0  0
 19 20  1  0  0  0
 20 21  2  0  0  0
 21 22  1  0  0  0
 21 23  1  0  0  0
 23 24  2  0  0  0
 23 25  1  0  0  0
 25 26  1  0  0  0
 25 57  1  0  0  0
 26 31  2  0  0  0
 26 27  1  0  0  0
 27 28  2  0  0  0
 27 58  1  0  0  0
 28 29  1  0  0  0
 28 59  1  0  0  0
 29 30  2  0  0  0
 29 32  1  0  0  0
 30 31  1  0  0  0
 30 60  1  0  0  0
 31 61  1  0  0  0
 32 33  1  0  0  0
 33 62  1  0  0  0
 33 63  1  0  0  0
 33 64  1  0  0  0
M  CHG  1  16   1
M  END
> <i_i_glide_confnum>
193

> <i_i_glide_lignum>
4912

> <i_i_glide_posenum>
117

> <i_i_glide_rotatable_bonds>
10

> <i_m_Source_File_Index>
620

> <b_m_subgroup_collapsed>
0

> <r_i_docking_score>
-5.70221

> <r_i_glide_ecoul>
-2.88727

> <r_i_glide_eff_state_penalty>
0

> <r_i_glide_einternal>
16.1196

> <r_i_glide_emodel>
-58.63

> <r_i_glide_energy>
-48.3565

> <r_i_glide_erotb>
0.682902

> <r_i_glide_esite>
0

> <r_i_glide_evdw>
-45.4692

> <r_i_glide_gscore>
-5.70221

> <r_i_glide_hbond>
-0.32

> <r_i_glide_ligand_efficiency>
-0.178194

> <r_i_glide_ligand_efficiency_ln>
-1.27688

> <r_i_glide_ligand_efficiency_sa>
-0.565731

> <r_i_glide_lipo>
-2.55088

> <r_i_glide_metal>
0

> <r_i_glide_rewards>
-0.807682

> <s_i_glide_gridfile>
wee1_glide-grid

> <s_m_Source_File>
wee1_decoys_glide_SP.sdf

> <s_m_Source_Path>
/Users/zhangxujun/Desktop

> <s_m_entry_id>
895

> <s_m_entry_name>
wee1_decoys_glide_SP.620

> <s_m_subgroup_title>
wee1_decoys_glide_SP

> <s_m_subgroupid>
wee1_decoys_glide_SP


$$$$
