ZINC34976345_4549
                    3D
 Schrodinger Suite 2024-2.
 56 58  0  0  1  0            999 V2000
    1.9079   44.4892   15.0318 C   0  0  0  0  0  0
    1.3860   45.1453   16.2936 C   0  0  0  0  0  0
    0.3564   44.5441   17.0196 C   0  0  0  0  0  0
   -0.1221   45.1433   18.1833 C   0  0  0  0  0  0
    0.4278   46.3458   18.6288 C   0  0  0  0  0  0
    1.4638   46.9608   17.9056 C   0  0  0  0  0  0
    1.9272   46.3571   16.7330 C   0  0  0  0  0  0
    2.0885   48.1679   18.2622 N   0  0  0  0  0  0
    1.9054   48.9458   19.3444 C   0  0  0  0  0  0
    1.1706   48.6979   20.3008 O   0  0  0  0  0  0
    2.6127   50.0789   19.2261 N   0  0  0  0  0  0
    2.4250   51.2850   20.0240 C   0  0  0  0  0  0
    3.4281   51.3320   21.1882 C   0  0  0  0  0  0
    3.3007   52.5038   22.0815 N   0  0  0  0  0  0
    4.3245   53.4809   21.9526 C   0  0  0  0  0  0
    4.4890   54.1106   20.7129 C   0  0  0  0  0  0
    5.5456   54.9935   20.5072 C   0  0  0  0  0  0
    6.4460   55.2495   21.5362 C   0  0  0  0  0  0
    6.2996   54.6278   22.7745 C   0  0  0  0  0  0
    5.2359   53.7491   22.9876 C   0  0  0  0  0  0
    7.4766   56.0975   21.3265 F   0  0  0  0  0  0
    2.3044   52.4994   23.0292 C   0  0  0  0  0  0
    1.4238   51.6367   23.0240 O   0  0  0  0  0  0
    2.4203   53.3998   24.0372 N   0  0  0  0  0  0
    1.9606   53.2541   25.3657 C   0  0  0  0  0  0
    0.8343   52.4971   25.7364 C   0  0  0  0  0  0
    0.4788   52.3687   27.0781 C   0  0  0  0  0  0
    1.2304   53.0031   28.0635 C   0  0  0  0  0  0
    2.3499   53.7700   27.7203 C   0  0  0  0  0  0
    2.7051   53.8877   26.3687 C   0  0  0  0  0  0
    3.1806   54.4533   28.8068 C   0  0  0  0  0  0
    3.1216   53.7828   29.9605 F   0  0  0  0  0  0
    2.7042   55.6820   29.0122 F   0  0  0  0  0  0
    4.4639   54.5456   28.4505 F   0  0  0  0  0  0
    1.1133   43.9557   14.5084 H   0  0  0  0  0  0
    2.3020   45.2311   14.3366 H   0  0  0  0  0  0
    2.7005   43.7833   15.2818 H   0  0  0  0  0  0
   -0.0748   43.6130   16.6827 H   0  0  0  0  0  0
   -0.9218   44.6796   18.7424 H   0  0  0  0  0  0
    0.0269   46.7769   19.5325 H   0  0  0  0  0  0
    2.7255   46.8208   16.1684 H   0  0  0  0  0  0
    2.7910   48.4966   17.6029 H   0  0  0  0  0  0
    3.3457   50.1150   18.5245 H   0  0  0  0  0  0
    1.3984   51.3505   20.3931 H   0  0  0  0  0  0
    2.5570   52.1491   19.3735 H   0  0  0  0  0  0
    4.4405   51.3032   20.7809 H   0  0  0  0  0  0
    3.3289   50.4224   21.7864 H   0  0  0  0  0  0
    3.8023   53.9195   19.9007 H   0  0  0  0  0  0
    5.6709   55.4768   19.5491 H   0  0  0  0  0  0
    7.0122   54.8278   23.5616 H   0  0  0  0  0  0
    5.1443   53.2707   23.9515 H   0  0  0  0  0  0
    3.1324   54.1007   23.9084 H   0  0  0  0  0  0
    0.2148   52.0013   25.0061 H   0  0  0  0  0  0
   -0.3819   51.7764   27.3520 H   0  0  0  0  0  0
    0.9375   52.8917   29.0979 H   0  0  0  0  0  0
    3.5759   54.4714   26.1000 H   0  0  0  0  0  0
  1  2  1  0  0  0
  1 35  1  0  0  0
  1 36  1  0  0  0
  1 37  1  0  0  0
  2  7  2  0  0  0
  2  3  1  0  0  0
  3  4  2  0  0  0
  3 38  1  0  0  0
  4  5  1  0  0  0
  4 39  1  0  0  0
  5  6  2  0  0  0
  5 40  1  0  0  0
  6  7  1  0  0  0
  6  8  1  0  0  0
  7 41  1  0  0  0
  8  9  1  0  0  0
  8 42  1  0  0  0
  9 10  2  0  0  0
  9 11  1  0  0  0
 11 12  1  0  0  0
 11 43  1  0  0  0
 12 13  1  0  0  0
 12 44  1  0  0  0
 12 45  1  0  0  0
 13 14  1  0  0  0
 13 46  1  0  0  0
 13 47  1  0  0  0
 14 15  1  0  0  0
 14 22  1  0  0  0
 15 20  2  0  0  0
 15 16  1  0  0  0
 16 17  2  0  0  0
 16 48  1  0  0  0
 17 18  1  0  0  0
 17 49  1  0  0  0
 18 19  2  0  0  0
 18 21  1  0  0  0
 19 20  1  0  0  0
 19 50  1  0  0  0
 20 51  1  0  0  0
 22 23  2  0  0  0
 22 24  1  0  0  0
 24 25  1  0  0  0
 24 52  1  0  0  0
 25 30  2  0  0  0
 25 26  1  0  0  0
 26 27  2  0  0  0
 26 53  1  0  0  0
 27 28  1  0  0  0
 27 54  1  0  0  0
 28 29  2  0  0  0
 28 55  1  0  0  0
 29 30  1  0  0  0
 29 31  1  0  0  0
 30 56  1  0  0  0
 31 32  1  0  0  0
 31 33  1  0  0  0
 31 34  1  0  0  0
M  END
> <i_i_glide_confnum>
280

> <i_i_glide_lignum>
4550

> <i_i_glide_posenum>
66

> <i_i_glide_rotatable_bonds>
11

> <i_m_Source_File_Index>
4049

> <b_m_subgroup_collapsed>
0

> <r_i_docking_score>
-5.48513

> <r_i_glide_ecoul>
-6.64059

> <r_i_glide_eff_state_penalty>
0

> <r_i_glide_einternal>
10.8244

> <r_i_glide_emodel>
-56.0968

> <r_i_glide_energy>
-46.0308

> <r_i_glide_erotb>
0.80903

> <r_i_glide_esite>
-0.287081

> <r_i_glide_evdw>
-39.3902

> <r_i_glide_gscore>
-5.48513

> <r_i_glide_hbond>
-0.346307

> <r_i_glide_ligand_efficiency>
-0.161327

> <r_i_glide_ligand_efficiency_ln>
-1.21182

> <r_i_glide_ligand_efficiency_sa>
-0.522638

> <r_i_glide_lipo>
-2.31717

> <r_i_glide_metal>
0

> <r_i_glide_rewards>
-0.378005

> <s_i_glide_gridfile>
wee1_glide-grid

> <s_m_Source_File>
wee1_decoys_glide_SP.sdf

> <s_m_Source_Path>
/Users/zhangxujun/Desktop

> <s_m_entry_id>
4324

> <s_m_entry_name>
wee1_decoys_glide_SP.4049

> <s_m_subgroup_title>
wee1_decoys_glide_SP

> <s_m_subgroupid>
wee1_decoys_glide_SP


$$$$
