ZINC36024324_595
                    3D
 Schrodinger Suite 2024-2.
 64 67  0  0  1  0            999 V2000
   -6.2417   49.9618   25.3936 C   0  0  0  0  0  0
   -4.7218   50.0360   25.1865 C   0  0  0  0  0  0
   -3.9806   50.8631   26.2613 C   0  0  2  0  0  0
   -4.2946   50.4564   27.2257 H   0  0  0  0  0  0
   -4.4343   52.3422   26.2146 C   0  0  0  0  0  0
   -2.4367   50.6577   26.1489 C   0  0  1  0  0  0
   -2.1697   49.6035   26.0477 H   0  0  0  0  0  0
   -1.7007   51.5139   25.1059 C   0  0  0  0  0  0
   -2.0544   51.6065   23.9299 O   0  0  0  0  0  0
   -0.6237   52.0847   25.6912 N   0  0  0  0  0  0
   -0.5400   51.8555   27.1415 C   0  0  0  0  0  0
   -1.8197   51.0693   27.4438 N   0  3  0  0  0  0
    0.6307   50.9692   27.5786 C   0  0  0  0  0  0
    1.9747   51.7105   27.6526 C   0  0  0  0  0  0
    1.8495   52.9210   28.4790 N   0  0  0  0  0  0
    0.8052   53.8989   28.1694 C   0  0  0  0  0  0
   -0.5235   53.1352   28.0242 C   0  0  0  0  0  0
    2.9461   53.3372   29.1732 C   0  0  0  0  0  0
    3.5044   52.4966   30.4818 S   0  0  0  0  0  0
    3.5812   54.4661   28.7541 N   0  0  0  0  0  0
    4.4486   54.4760   27.6621 C   0  0  0  0  0  0
    5.8189   54.4953   27.9141 C   0  0  0  0  0  0
    6.7087   54.4953   26.8483 C   0  0  0  0  0  0
    6.2314   54.4963   25.5401 C   0  0  0  0  0  0
    4.8624   54.4971   25.2853 C   0  0  0  0  0  0
    3.9651   54.4900   26.3493 C   0  0  0  0  0  0
    7.1042   54.4936   24.5100 F   0  0  0  0  0  0
    0.3189   52.8966   24.9007 C   0  0  0  0  0  0
    1.0884   52.2149   23.7662 C   0  0  0  0  0  0
    1.6030   53.0161   22.7426 C   0  0  0  0  0  0
    2.2915   52.4380   21.6800 C   0  0  0  0  0  0
    2.4635   51.0571   21.6382 C   0  0  0  0  0  0
    1.9517   50.2488   22.6494 C   0  0  0  0  0  0
    1.2625   50.8258   23.7118 C   0  0  0  0  0  0
    3.1347   50.4968   20.6091 F   0  0  0  0  0  0
   -6.6630   49.1084   24.8612 H   0  0  0  0  0  0
   -6.5010   49.8511   26.4468 H   0  0  0  0  0  0
   -6.7366   50.8579   25.0170 H   0  0  0  0  0  0
   -4.5184   50.4461   24.1961 H   0  0  0  0  0  0
   -4.3287   49.0186   25.1716 H   0  0  0  0  0  0
   -4.3287   52.7608   25.2129 H   0  0  0  0  0  0
   -5.4818   52.4459   26.4989 H   0  0  0  0  0  0
   -3.8513   52.9687   26.8864 H   0  0  0  0  0  0
   -2.4531   51.6379   27.9837 H   0  0  0  0  0  0
    0.4231   50.5681   28.5717 H   0  0  0  0  0  0
    0.7180   50.0949   26.9301 H   0  0  0  0  0  0
    2.7044   51.0249   28.0725 H   0  0  0  0  0  0
    2.3042   52.0544   26.6729 H   0  0  0  0  0  0
    0.7151   54.6373   28.9696 H   0  0  0  0  0  0
    1.1032   54.4386   27.2752 H   0  0  0  0  0  0
   -1.2742   53.8385   27.6816 H   0  0  0  0  0  0
   -0.8388   52.8681   29.0362 H   0  0  0  0  0  0
    3.9255   55.0547   29.4978 H   0  0  0  0  0  0
    6.2003   54.4973   28.9259 H   0  0  0  0  0  0
    7.7689   54.4863   27.0443 H   0  0  0  0  0  0
    4.5024   54.4991   24.2670 H   0  0  0  0  0  0
    2.9088   54.4947   26.1432 H   0  0  0  0  0  0
    1.0583   53.3443   25.5541 H   0  0  0  0  0  0
   -0.2418   53.7292   24.4745 H   0  0  0  0  0  0
    1.4716   54.0890   22.7608 H   0  0  0  0  0  0
    2.6862   53.0553   20.8854 H   0  0  0  0  0  0
    2.0975   49.1790   22.6118 H   0  0  0  0  0  0
    0.8737   50.1858   24.4896 H   0  0  0  0  0  0
   -1.6222   50.2460   28.0118 H   0  0  0  0  0  0
  1  2  1  0  0  0
  1 36  1  0  0  0
  1 37  1  0  0  0
  1 38  1  0  0  0
  2  3  1  0  0  0
  2 39  1  0  0  0
  2 40  1  0  0  0
  3  4  1  0  0  0
  3  5  1  0  0  0
  3  6  1  0  0  0
  5 41  1  0  0  0
  5 42  1  0  0  0
  5 43  1  0  0  0
  6  7  1  0  0  0
  6 12  1  0  0  0
  6  8  1  0  0  0
  8  9  2  0  0  0
  8 10  1  0  0  0
 10 11  1  0  0  0
 10 28  1  0  0  0
 11 17  1  0  0  0
 11 12  1  0  0  0
 11 13  1  0  0  0
 12 44  1  0  0  0
 12 64  1  0  0  0
 13 14  1  0  0  0
 13 45  1  0  0  0
 13 46  1  0  0  0
 14 15  1  0  0  0
 14 47  1  0  0  0
 14 48  1  0  0  0
 15 16  1  0  0  0
 15 18  1  0  0  0
 16 17  1  0  0  0
 16 49  1  0  0  0
 16 50  1  0  0  0
 17 51  1  0  0  0
 17 52  1  0  0  0
 18 19  2  0  0  0
 18 20  1  0  0  0
 20 21  1  0  0  0
 20 53  1  0  0  0
 21 26  2  0  0  0
 21 22  1  0  0  0
 22 23  2  0  0  0
 22 54  1  0  0  0
 23 24  1  0  0  0
 23 55  1  0  0  0
 24 25  2  0  0  0
 24 27  1  0  0  0
 25 26  1  0  0  0
 25 56  1  0  0  0
 26 57  1  0  0  0
 28 29  1  0  0  0
 28 58  1  0  0  0
 28 59  1  0  0  0
 29 34  2  0  0  0
 29 30  1  0  0  0
 30 31  2  0  0  0
 30 60  1  0  0  0
 31 32  1  0  0  0
 31 61  1  0  0  0
 32 33  2  0  0  0
 32 35  1  0  0  0
 33 34  1  0  0  0
 33 62  1  0  0  0
 34 63  1  0  0  0
M  CHG  1  12   1
M  END
> <i_i_glide_confnum>
6

> <i_i_glide_lignum>
596

> <i_i_glide_posenum>
11

> <i_i_glide_rotatable_bonds>
7

> <i_m_Source_File_Index>
4175

> <b_m_subgroup_collapsed>
0

> <r_i_docking_score>
-4.13778

> <r_i_glide_ecoul>
-3.66304

> <r_i_glide_eff_state_penalty>
0

> <r_i_glide_einternal>
11.4243

> <r_i_glide_emodel>
-41.2814

> <r_i_glide_energy>
-42.3509

> <r_i_glide_erotb>
0.541118

> <r_i_glide_esite>
-0.166591

> <r_i_glide_evdw>
-38.6879

> <r_i_glide_gscore>
-4.13778

> <r_i_glide_hbond>
-0.2

> <r_i_glide_ligand_efficiency>
-0.125387

> <r_i_glide_ligand_efficiency_ln>
-0.920221

> <r_i_glide_ligand_efficiency_sa>
-0.402184

> <r_i_glide_lipo>
-2.68759

> <r_i_glide_metal>
0

> <r_i_glide_rewards>
0.85913

> <s_i_glide_gridfile>
wee1_glide-grid

> <s_m_Source_File>
wee1_decoys_glide_SP.sdf

> <s_m_Source_Path>
/Users/zhangxujun/Desktop

> <s_m_entry_id>
4450

> <s_m_entry_name>
wee1_decoys_glide_SP.4175

> <s_m_subgroup_title>
wee1_decoys_glide_SP

> <s_m_subgroupid>
wee1_decoys_glide_SP


$$$$
