ZINC59434887_5219
                    3D
 Schrodinger Suite 2024-2.
 40 42  0  0  1  0            999 V2000
    2.1210   53.8069   29.0131 C   0  0  0  0  0  0
    3.2969   54.0168   28.0789 C   0  0  0  0  0  0
    4.5774   54.1748   28.6232 C   0  0  0  0  0  0
    5.6993   54.3479   27.8126 C   0  0  0  0  0  0
    5.5166   54.3744   26.4254 C   0  0  0  0  0  0
    4.2149   54.2151   25.8884 C   0  0  0  0  0  0
    3.0887   54.0270   26.6949 C   0  0  0  0  0  0
    4.4112   54.2921   24.5328 N   0  0  0  0  0  0
    5.7572   54.4908   24.3190 C   0  0  0  0  0  0
    6.4448   54.5406   25.4345 N   0  0  0  0  0  0
    6.5190   54.6486   22.7396 S   0  0  0  0  0  0
    5.0686   54.6131   21.6280 C   0  0  0  0  0  0
    4.5749   53.2192   21.2268 C   0  0  0  0  0  0
    5.1043   52.2039   21.6812 O   0  0  0  0  0  0
    3.5470   53.2231   20.3576 N   0  0  0  0  0  0
    2.9078   52.1310   19.7474 C   0  0  0  0  0  0
    2.8205   50.8639   20.3425 C   0  0  0  0  0  0
    2.1910   49.8161   19.6744 C   0  0  0  0  0  0
    1.6124   50.0101   18.4171 C   0  0  0  0  0  0
    1.6896   51.2830   17.8311 C   0  0  0  0  0  0
    2.3324   52.3346   18.4840 C   0  0  0  0  0  0
    2.4183   54.0308   17.6105 Br  0  0  0  0  0  0
    1.0038   48.9202   17.8266 O   0  0  0  0  0  0
    0.5254   49.0290   16.4932 C   0  0  0  0  0  0
    2.1505   48.0957   20.4818 Br  0  0  0  0  0  0
    1.7121   54.7686   29.3256 H   0  0  0  0  0  0
    1.3362   53.2204   28.5322 H   0  0  0  0  0  0
    2.4268   53.2517   29.9019 H   0  0  0  0  0  0
    4.7041   54.1678   29.6938 H   0  0  0  0  0  0
    6.6817   54.4641   28.2452 H   0  0  0  0  0  0
    2.1035   53.8970   26.2740 H   0  0  0  0  0  0
    5.3646   55.1237   20.7100 H   0  0  0  0  0  0
    4.2455   55.1852   22.0538 H   0  0  0  0  0  0
    3.2507   54.1265   20.0100 H   0  0  0  0  0  0
    3.2378   50.6734   21.3189 H   0  0  0  0  0  0
    1.2667   51.4724   16.8571 H   0  0  0  0  0  0
    0.1311   48.0631   16.1770 H   0  0  0  0  0  0
    1.3275   49.3003   15.8048 H   0  0  0  0  0  0
   -0.2825   49.7581   16.4175 H   0  0  0  0  0  0
    3.7318   54.2161   23.7901 H   0  0  0  0  0  0
  1  2  1  0  0  0
  1 26  1  0  0  0
  1 27  1  0  0  0
  1 28  1  0  0  0
  2  7  2  0  0  0
  2  3  1  0  0  0
  3  4  2  0  0  0
  3 29  1  0  0  0
  4  5  1  0  0  0
  4 30  1  0  0  0
  5 10  1  0  0  0
  5  6  2  0  0  0
  6  7  1  0  0  0
  6  8  1  0  0  0
  7 31  1  0  0  0
  8  9  1  0  0  0
  8 40  1  0  0  0
  9 10  2  0  0  0
  9 11  1  0  0  0
 11 12  1  0  0  0
 12 13  1  0  0  0
 12 32  1  0  0  0
 12 33  1  0  0  0
 13 14  2  0  0  0
 13 15  1  0  0  0
 15 16  1  0  0  0
 15 34  1  0  0  0
 16 21  2  0  0  0
 16 17  1  0  0  0
 17 18  2  0  0  0
 17 35  1  0  0  0
 18 19  1  0  0  0
 18 25  1  0  0  0
 19 20  2  0  0  0
 19 23  1  0  0  0
 20 21  1  0  0  0
 20 36  1  0  0  0
 21 22  1  0  0  0
 23 24  1  0  0  0
 24 37  1  0  0  0
 24 38  1  0  0  0
 24 39  1  0  0  0
M  END
> <i_i_glide_confnum>
5

> <i_i_glide_lignum>
5220

> <i_i_glide_posenum>
287

> <i_i_glide_rotatable_bonds>
6

> <i_m_Source_File_Index>
5776

> <b_m_subgroup_collapsed>
0

> <r_i_docking_score>
-5.05831

> <r_i_glide_ecoul>
-3.15808

> <r_i_glide_eff_state_penalty>
0

> <r_i_glide_einternal>
0.533967

> <r_i_glide_emodel>
-58.3869

> <r_i_glide_energy>
-42.5043

> <r_i_glide_erotb>
0.431441

> <r_i_glide_esite>
-0.00157866

> <r_i_glide_evdw>
-39.3462

> <r_i_glide_gscore>
-5.05831

> <r_i_glide_hbond>
-0.150847

> <r_i_glide_ligand_efficiency>
-0.202332

> <r_i_glide_ligand_efficiency_ln>
-1.19897

> <r_i_glide_ligand_efficiency_sa>
-0.591623

> <r_i_glide_lipo>
-2.15204

> <r_i_glide_metal>
0

> <r_i_glide_rewards>
-0.744261

> <s_i_glide_gridfile>
wee1_glide-grid

> <s_m_Source_File>
wee1_decoys_glide_SP.sdf

> <s_m_Source_Path>
/Users/zhangxujun/Desktop

> <s_m_entry_id>
6051

> <s_m_entry_name>
wee1_decoys_glide_SP.5776

> <s_m_subgroup_title>
wee1_decoys_glide_SP

> <s_m_subgroupid>
wee1_decoys_glide_SP


$$$$
