ZINC12698024_3274
                    3D
 Schrodinger Suite 2024-2.
 62 64  0  0  1  0            999 V2000
    7.0300   55.8124   24.1454 C   0  0  0  0  0  0
    6.4558   54.4822   24.6041 C   0  0  2  0  0  0
    7.2241   53.7284   24.4124 H   0  0  0  0  0  0
    5.2209   54.0967   23.7026 C   0  0  0  0  0  0
    4.0817   54.4965   23.9613 O   0  0  0  0  0  0
    5.4920   53.3468   22.6027 N   0  0  0  0  0  0
    4.6478   52.8082   21.6816 C   0  0  0  0  0  0
    5.1058   52.0959   20.7992 O   0  0  0  0  0  0
    3.3178   53.0085   21.8064 N   0  0  0  0  0  0
    2.2726   52.1069   21.3124 C   0  0  0  0  0  0
    2.1853   51.9281   19.7707 C   0  0  0  0  0  0
    1.0550   50.9819   19.3213 C   0  0  0  0  0  0
    1.0922   49.6387   20.0690 C   0  0  0  0  0  0
    1.0339   49.8525   21.5893 C   0  0  0  0  0  0
    2.1659   50.7692   22.0891 C   0  0  0  0  0  0
    6.2444   54.5523   26.0850 N   0  0  0  0  0  0
    6.4833   53.2510   26.7441 C   0  0  0  0  0  0
    6.0724   53.0879   28.2398 C   0  0  0  0  0  0
    4.8524   53.8413   28.5592 N   0  0  0  0  0  0
    4.9058   55.2004   28.0642 C   0  0  0  0  0  0
    4.9780   55.1370   26.5343 C   0  0  0  0  0  0
    3.4129   53.1693   29.3709 S   0  0  0  0  0  0
    3.8093   51.9376   30.0664 O   0  0  0  0  0  0
    2.7481   54.2665   30.0812 O   0  0  0  0  0  0
    2.2502   52.6830   28.0847 C   0  0  0  0  0  0
    1.5511   51.4847   28.2010 C   0  0  0  0  0  0
    0.6948   51.0658   27.1851 C   0  0  0  0  0  0
    0.5315   51.8468   26.0382 C   0  0  0  0  0  0
    1.2144   53.0613   25.9355 C   0  0  0  0  0  0
    2.0075   53.5051   26.9885 C   0  0  0  0  0  0
   -0.4122   51.3779   24.9322 C   0  0  0  0  0  0
   -1.6679   51.4478   25.3723 F   0  0  0  0  0  0
   -0.3168   52.1285   23.8311 F   0  0  0  0  0  0
   -0.1441   50.1134   24.6044 F   0  0  0  0  0  0
    7.3250   55.7690   23.0962 H   0  0  0  0  0  0
    6.3027   56.6074   24.2769 H   0  0  0  0  0  0
    7.9043   56.0850   24.7333 H   0  0  0  0  0  0
    6.4620   53.1220   22.4527 H   0  0  0  0  0  0
    3.0539   53.5827   22.5968 H   0  0  0  0  0  0
    1.3544   52.6475   21.5495 H   0  0  0  0  0  0
    3.1174   51.5030   19.3934 H   0  0  0  0  0  0
    2.0650   52.8971   19.2845 H   0  0  0  0  0  0
    1.1288   50.8092   18.2468 H   0  0  0  0  0  0
    0.0911   51.4658   19.4877 H   0  0  0  0  0  0
    2.0054   49.1011   19.8065 H   0  0  0  0  0  0
    0.2616   49.0093   19.7481 H   0  0  0  0  0  0
    1.0822   48.8961   22.1098 H   0  0  0  0  0  0
    0.0711   50.2915   21.8525 H   0  0  0  0  0  0
    2.0392   50.9563   23.1563 H   0  0  0  0  0  0
    3.1047   50.2231   21.9792 H   0  0  0  0  0  0
    5.7019   52.6717   26.2604 H   0  0  0  0  0  0
    7.4984   52.8948   26.5639 H   0  0  0  0  0  0
    6.8654   53.4808   28.8782 H   0  0  0  0  0  0
    5.9047   52.0459   28.4815 H   0  0  0  0  0  0
    5.7657   55.6967   28.5096 H   0  0  0  0  0  0
    3.9916   55.6966   28.3967 H   0  0  0  0  0  0
    4.8016   56.0969   26.0676 H   0  0  0  0  0  0
    4.2075   54.4542   26.2146 H   0  0  0  0  0  0
    1.6703   50.8967   29.0912 H   0  0  0  0  0  0
    0.1493   50.1375   27.2817 H   0  0  0  0  0  0
    1.1022   53.6960   25.0678 H   0  0  0  0  0  0
    2.4148   54.4964   26.9552 H   0  0  0  0  0  0
  1  2  1  0  0  0
  1 35  1  0  0  0
  1 36  1  0  0  0
  1 37  1  0  0  0
  2  3  1  0  0  0
  2  4  1  0  0  0
  2 16  1  0  0  0
  4  5  2  0  0  0
  4  6  1  0  0  0
  6  7  1  0  0  0
  6 38  1  0  0  0
  7  8  2  0  0  0
  7  9  1  0  0  0
  9 10  1  0  0  0
  9 39  1  0  0  0
 10 15  1  0  0  0
 10 11  1  0  0  0
 10 40  1  0  0  0
 11 12  1  0  0  0
 11 41  1  0  0  0
 11 42  1  0  0  0
 12 13  1  0  0  0
 12 43  1  0  0  0
 12 44  1  0  0  0
 13 14  1  0  0  0
 13 45  1  0  0  0
 13 46  1  0  0  0
 14 15  1  0  0  0
 14 47  1  0  0  0
 14 48  1  0  0  0
 15 49  1  0  0  0
 15 50  1  0  0  0
 16 21  1  0  0  0
 16 17  1  0  0  0
 17 18  1  0  0  0
 17 51  1  0  0  0
 17 52  1  0  0  0
 18 19  1  0  0  0
 18 53  1  0  0  0
 18 54  1  0  0  0
 19 20  1  0  0  0
 19 22  1  0  0  0
 20 21  1  0  0  0
 20 55  1  0  0  0
 20 56  1  0  0  0
 21 57  1  0  0  0
 21 58  1  0  0  0
 22 23  2  0  0  0
 22 24  2  0  0  0
 22 25  1  0  0  0
 25 30  2  0  0  0
 25 26  1  0  0  0
 26 27  2  0  0  0
 26 59  1  0  0  0
 27 28  1  0  0  0
 27 60  1  0  0  0
 28 29  2  0  0  0
 28 31  1  0  0  0
 29 30  1  0  0  0
 29 61  1  0  0  0
 30 62  1  0  0  0
 31 32  1  0  0  0
 31 33  1  0  0  0
 31 34  1  0  0  0
M  END
> <i_i_glide_confnum>
335

> <i_i_glide_lignum>
3275

> <i_i_glide_posenum>
365

> <i_i_glide_rotatable_bonds>
9

> <i_m_Source_File_Index>
4253

> <b_m_subgroup_collapsed>
0

> <r_i_docking_score>
-4.32688

> <r_i_glide_ecoul>
-6.40527

> <r_i_glide_eff_state_penalty>
0

> <r_i_glide_einternal>
11.9115

> <r_i_glide_emodel>
-45.5085

> <r_i_glide_energy>
-42.9937

> <r_i_glide_erotb>
0.592024

> <r_i_glide_esite>
-0.0887303

> <r_i_glide_evdw>
-36.5885

> <r_i_glide_gscore>
-4.32688

> <r_i_glide_hbond>
0

> <r_i_glide_ligand_efficiency>
-0.131118

> <r_i_glide_ligand_efficiency_ln>
-0.962276

> <r_i_glide_ligand_efficiency_sa>
-0.420564

> <r_i_glide_lipo>
-2.09495

> <r_i_glide_metal>
0

> <r_i_glide_rewards>
0.0549858

> <s_i_glide_gridfile>
wee1_glide-grid

> <s_m_Source_File>
wee1_decoys_glide_SP.sdf

> <s_m_Source_Path>
/Users/zhangxujun/Desktop

> <s_m_entry_id>
4528

> <s_m_entry_name>
wee1_decoys_glide_SP.4253

> <s_m_subgroup_title>
wee1_decoys_glide_SP

> <s_m_subgroupid>
wee1_decoys_glide_SP


$$$$
