ZINC21710596_2465
                    3D
 Schrodinger Suite 2024-2.
 65 69  0  0  1  0            999 V2000
    1.1620   53.9011   23.3005 C   0  0  0  0  0  0
    2.3908   54.3384   23.7773 C   0  0  0  0  0  0
    3.5822   53.7327   23.3598 C   0  0  0  0  0  0
    3.5054   52.7908   22.3219 C   0  0  0  0  0  0
    2.2776   52.3410   21.8288 C   0  0  0  0  0  0
    1.1023   52.8965   22.3419 C   0  0  0  0  0  0
    2.2777   51.2972   20.8913 N   0  0  0  0  0  0
    0.8187   50.4633   20.3312 S   0  0  0  0  0  0
   -0.1218   51.4729   19.8298 O   0  0  0  0  0  0
    1.2710   49.3618   19.4769 O   0  0  0  0  0  0
    0.0746   49.7051   21.7704 C   0  0  0  0  0  0
    0.8393   49.3411   22.8779 C   0  0  0  0  0  0
    0.2154   48.7848   23.9908 C   0  0  0  0  0  0
   -1.1638   48.5555   24.0133 C   0  0  0  0  0  0
   -1.9344   48.8829   22.8743 C   0  0  0  0  0  0
   -1.2994   49.4687   21.7741 C   0  0  0  0  0  0
   -3.4295   48.5654   22.8054 C   0  0  0  0  0  0
   -4.0665   48.3556   24.1897 C   0  0  0  0  0  0
   -3.2100   47.4027   25.0341 C   0  0  0  0  0  0
   -1.8193   48.0132   25.2824 C   0  0  0  0  0  0
    4.9324   54.0968   23.9517 C   0  0  0  0  0  0
    5.8971   54.0950   23.1829 O   0  0  0  0  0  0
    5.0667   54.4319   25.2778 N   0  0  0  0  0  0
    6.3735   54.9566   25.7421 C   0  0  0  0  0  0
    6.8673   54.1026   26.9210 C   0  0  0  0  0  0
    5.8718   54.0998   28.0818 C   0  0  0  0  0  0
    4.5302   53.5476   27.5614 C   0  0  2  0  0  0
    4.6827   52.4972   27.3171 H   0  0  0  0  0  0
    3.9945   54.2953   26.3066 C   0  0  0  0  0  0
    3.4602   53.5997   28.6770 C   0  0  0  0  0  0
    3.4683   54.4964   29.5237 O   0  0  0  0  0  0
    2.5355   52.6238   28.6680 N   0  0  0  0  0  0
    1.4716   52.4848   29.6587 C   0  0  0  0  0  0
    0.3506   53.4992   29.6874 C   0  0  0  0  0  0
    0.0919   52.0969   29.1825 C   0  0  0  0  0  0
    0.2550   54.3446   23.6817 H   0  0  0  0  0  0
    2.4012   55.1522   24.4812 H   0  0  0  0  0  0
    4.4130   52.3419   21.9435 H   0  0  0  0  0  0
    0.1307   52.5675   22.0095 H   0  0  0  0  0  0
    3.1576   50.8595   20.6657 H   0  0  0  0  0  0
    1.9078   49.5031   22.8958 H   0  0  0  0  0  0
    0.8126   48.5321   24.8557 H   0  0  0  0  0  0
   -1.8828   49.7266   20.9022 H   0  0  0  0  0  0
   -3.9625   49.3473   22.2634 H   0  0  0  0  0  0
   -3.5477   47.6521   22.2215 H   0  0  0  0  0  0
   -5.0774   47.9597   24.0788 H   0  0  0  0  0  0
   -4.1656   49.3135   24.7031 H   0  0  0  0  0  0
   -3.1122   46.4430   24.5276 H   0  0  0  0  0  0
   -3.6974   47.1999   25.9891 H   0  0  0  0  0  0
   -1.1703   47.2916   25.7771 H   0  0  0  0  0  0
   -1.9213   48.8390   25.9877 H   0  0  0  0  0  0
    6.2171   55.9823   26.0766 H   0  0  0  0  0  0
    7.1403   54.9749   24.9659 H   0  0  0  0  0  0
    7.8196   54.4943   27.2809 H   0  0  0  0  0  0
    7.0783   53.0857   26.5858 H   0  0  0  0  0  0
    5.7874   55.1388   28.4101 H   0  0  0  0  0  0
    6.2919   53.4687   28.8675 H   0  0  0  0  0  0
    3.1761   53.6674   25.9544 H   0  0  0  0  0  0
    3.6547   55.2964   26.5746 H   0  0  0  0  0  0
    2.6805   51.8365   28.0542 H   0  0  0  0  0  0
    1.8151   52.1027   30.6207 H   0  0  0  0  0  0
    0.3815   54.3282   28.9801 H   0  0  0  0  0  0
   -0.0470   53.7976   30.6578 H   0  0  0  0  0  0
   -0.4951   51.4091   29.7959 H   0  0  0  0  0  0
   -0.0694   51.9333   28.1170 H   0  0  0  0  0  0
  1  6  2  0  0  0
  1  2  1  0  0  0
  1 36  1  0  0  0
  2  3  2  0  0  0
  2 37  1  0  0  0
  3  4  1  0  0  0
  3 21  1  0  0  0
  4  5  2  0  0  0
  4 38  1  0  0  0
  5  6  1  0  0  0
  5  7  1  0  0  0
  6 39  1  0  0  0
  7  8  1  0  0  0
  7 40  1  0  0  0
  8  9  2  0  0  0
  8 10  2  0  0  0
  8 11  1  0  0  0
 11 16  2  0  0  0
 11 12  1  0  0  0
 12 13  2  0  0  0
 12 41  1  0  0  0
 13 14  1  0  0  0
 13 42  1  0  0  0
 14 20  1  0  0  0
 14 15  2  0  0  0
 15 16  1  0  0  0
 15 17  1  0  0  0
 16 43  1  0  0  0
 17 18  1  0  0  0
 17 44  1  0  0  0
 17 45  1  0  0  0
 18 19  1  0  0  0
 18 46  1  0  0  0
 18 47  1  0  0  0
 19 20  1  0  0  0
 19 48  1  0  0  0
 19 49  1  0  0  0
 20 50  1  0  0  0
 20 51  1  0  0  0
 21 22  2  0  0  0
 21 23  1  0  0  0
 23 29  1  0  0  0
 23 24  1  0  0  0
 24 25  1  0  0  0
 24 52  1  0  0  0
 24 53  1  0  0  0
 25 26  1  0  0  0
 25 54  1  0  0  0
 25 55  1  0  0  0
 26 27  1  0  0  0
 26 56  1  0  0  0
 26 57  1  0  0  0
 27 28  1  0  0  0
 27 29  1  0  0  0
 27 30  1  0  0  0
 29 58  1  0  0  0
 29 59  1  0  0  0
 30 31  2  0  0  0
 30 32  1  0  0  0
 32 33  1  0  0  0
 32 60  1  0  0  0
 33 35  1  0  0  0
 33 34  1  0  0  0
 33 61  1  0  0  0
 34 35  1  0  0  0
 34 62  1  0  0  0
 34 63  1  0  0  0
 35 64  1  0  0  0
 35 65  1  0  0  0
M  END
> <i_i_glide_confnum>
57

> <i_i_glide_lignum>
2466

> <i_i_glide_posenum>
252

> <i_i_glide_rotatable_bonds>
8

> <i_m_Source_File_Index>
899

> <b_m_subgroup_collapsed>
0

> <r_i_docking_score>
-5.09973

> <r_i_glide_ecoul>
-2.00361

> <r_i_glide_eff_state_penalty>
0

> <r_i_glide_einternal>
4.1039

> <r_i_glide_emodel>
-65.0502

> <r_i_glide_energy>
-51.3724

> <r_i_glide_erotb>
0.699732

> <r_i_glide_esite>
-0.0423307

> <r_i_glide_evdw>
-49.3688

> <r_i_glide_gscore>
-5.09973

> <r_i_glide_hbond>
-0.0898111

> <r_i_glide_ligand_efficiency>
-0.149992

> <r_i_glide_ligand_efficiency_ln>
-1.12667

> <r_i_glide_ligand_efficiency_sa>
-0.485916

> <r_i_glide_lipo>
-2.45581

> <r_i_glide_metal>
0

> <r_i_glide_rewards>
-0.442522

> <s_i_glide_gridfile>
wee1_glide-grid

> <s_m_Source_File>
wee1_decoys_glide_SP.sdf

> <s_m_Source_Path>
/Users/zhangxujun/Desktop

> <s_m_entry_id>
1174

> <s_m_entry_name>
wee1_decoys_glide_SP.899

> <s_m_subgroup_title>
wee1_decoys_glide_SP

> <s_m_subgroupid>
wee1_decoys_glide_SP


$$$$
