ZINC12533003_2707
                    3D
 Schrodinger Suite 2024-2.
 54 59  0  0  1  0            999 V2000
    9.3629   54.4871   18.0175 C   0  0  0  0  0  0
    8.4980   55.7626   17.9609 C   0  0  2  0  0  0
    8.9538   56.4043   17.2046 H   0  0  0  0  0  0
    8.4927   56.5893   19.2649 C   0  0  0  0  0  0
    7.8998   55.8064   20.4587 C   0  0  0  0  0  0
    6.5988   55.1265   20.0289 C   0  0  0  0  0  0
    6.2302   54.9796   18.6888 C   0  0  0  0  0  0
    4.6936   54.1734   18.4614 S   0  0  0  0  0  0
    4.5452   53.9413   20.1868 C   0  0  0  0  0  0
    5.6463   54.5026   20.9025 C   0  0  0  0  0  0
    5.6030   54.3164   22.3042 C   0  0  0  0  0  0
    4.5586   53.6958   22.8970 N   0  0  0  0  0  0
    3.5671   53.2303   22.0980 C   0  0  0  0  0  0
    3.5102   53.3032   20.7459 N   0  0  0  0  0  0
    2.3746   52.5956   22.7974 C   0  0  0  0  0  0
    1.3731   53.8202   23.6968 S   0  0  0  0  0  0
    2.1420   53.6946   25.2839 C   0  0  0  0  0  0
    3.2874   54.2546   25.5810 N   0  0  0  0  0  0
    3.5543   53.9888   26.9156 N   0  0  0  0  0  0
    2.5473   53.2971   27.3889 C   0  0  0  0  0  0
    1.6324   53.0285   26.3828 N   0  0  0  0  0  0
    0.3837   52.2694   26.4553 C   0  0  0  0  0  0
    0.2275   51.0340   25.5863 C   0  0  0  0  0  0
    0.3988   50.8811   27.0715 C   0  0  0  0  0  0
    2.4530   52.8771   28.8241 C   0  0  0  0  0  0
    1.2359   52.8854   29.5181 C   0  0  0  0  0  0
    1.2144   52.4984   30.8601 C   0  0  0  0  0  0
    2.3277   52.0968   31.5258 N   0  0  0  0  0  0
    3.5043   52.0977   30.8523 C   0  0  0  0  0  0
    3.6105   52.4887   29.5159 C   0  0  0  0  0  0
    6.6285   54.7213   23.1606 N   0  0  0  0  0  0
    7.0443   55.5009   17.5045 C   0  0  0  0  0  0
    8.9376   53.7397   18.6861 H   0  0  0  0  0  0
    9.4493   54.0270   17.0334 H   0  0  0  0  0  0
   10.3722   54.7039   18.3657 H   0  0  0  0  0  0
    7.9321   57.5142   19.1129 H   0  0  0  0  0  0
    9.5107   56.8825   19.5234 H   0  0  0  0  0  0
    8.6192   55.0679   20.8152 H   0  0  0  0  0  0
    7.7232   56.4946   21.2856 H   0  0  0  0  0  0
    1.7306   52.0909   22.0760 H   0  0  0  0  0  0
    2.7041   51.8120   23.4753 H   0  0  0  0  0  0
   -0.4896   52.8953   26.6242 H   0  0  0  0  0  0
   -0.7499   50.8312   25.1456 H   0  0  0  0  0  0
    1.0421   50.7271   24.9314 H   0  0  0  0  0  0
    1.3401   50.4960   27.4657 H   0  0  0  0  0  0
   -0.4565   50.5537   27.6677 H   0  0  0  0  0  0
    0.3219   53.1966   29.0370 H   0  0  0  0  0  0
    0.2930   52.4947   31.4237 H   0  0  0  0  0  0
    4.3718   51.7864   31.4125 H   0  0  0  0  0  0
    4.5714   52.4858   29.0224 H   0  0  0  0  0  0
    7.4749   55.1392   22.7996 H   0  0  0  0  0  0
    6.5294   54.5224   24.1454 H   0  0  0  0  0  0
    6.6053   56.4228   17.1205 H   0  0  0  0  0  0
    7.0279   54.7907   16.6766 H   0  0  0  0  0  0
  1  2  1  0  0  0
  1 33  1  0  0  0
  1 34  1  0  0  0
  1 35  1  0  0  0
  2  3  1  0  0  0
  2 32  1  0  0  0
  2  4  1  0  0  0
  4  5  1  0  0  0
  4 36  1  0  0  0
  4 37  1  0  0  0
  5  6  1  0  0  0
  5 38  1  0  0  0
  5 39  1  0  0  0
  6 10  1  0  0  0
  6  7  2  0  0  0
  7  8  1  0  0  0
  7 32  1  0  0  0
  8  9  1  0  0  0
  9 14  2  0  0  0
  9 10  1  0  0  0
 10 11  2  0  0  0
 11 12  1  0  0  0
 11 31  1  0  0  0
 12 13  2  0  0  0
 13 14  1  0  0  0
 13 15  1  0  0  0
 15 16  1  0  0  0
 15 40  1  0  0  0
 15 41  1  0  0  0
 16 17  1  0  0  0
 17 21  1  0  0  0
 17 18  2  0  0  0
 18 19  1  0  0  0
 19 20  2  0  0  0
 20 21  1  0  0  0
 20 25  1  0  0  0
 21 22  1  0  0  0
 22 24  1  0  0  0
 22 23  1  0  0  0
 22 42  1  0  0  0
 23 24  1  0  0  0
 23 43  1  0  0  0
 23 44  1  0  0  0
 24 45  1  0  0  0
 24 46  1  0  0  0
 25 30  2  0  0  0
 25 26  1  0  0  0
 26 27  2  0  0  0
 26 47  1  0  0  0
 27 28  1  0  0  0
 27 48  1  0  0  0
 28 29  2  0  0  0
 29 30  1  0  0  0
 29 49  1  0  0  0
 30 50  1  0  0  0
 31 51  1  0  0  0
 31 52  1  0  0  0
 32 53  1  0  0  0
 32 54  1  0  0  0
M  END
> <i_i_glide_confnum>
306

> <i_i_glide_lignum>
2708

> <i_i_glide_posenum>
196

> <i_i_glide_rotatable_bonds>
5

> <i_m_Source_File_Index>
1363

> <b_m_subgroup_collapsed>
0

> <r_i_docking_score>
-5.84899

> <r_i_glide_ecoul>
-2.27637

> <r_i_glide_eff_state_penalty>
0

> <r_i_glide_einternal>
1.23888

> <r_i_glide_emodel>
-66.0649

> <r_i_glide_energy>
-49.2256

> <r_i_glide_erotb>
0.495757

> <r_i_glide_esite>
0

> <r_i_glide_evdw>
-46.9492

> <r_i_glide_gscore>
-5.84899

> <r_i_glide_hbond>
-0.262343

> <r_i_glide_ligand_efficiency>
-0.188677

> <r_i_glide_ligand_efficiency_ln>
-1.31913

> <r_i_glide_ligand_efficiency_sa>
-0.592707

> <r_i_glide_lipo>
-2.0968

> <r_i_glide_metal>
0

> <r_i_glide_rewards>
-1.29669

> <s_i_glide_gridfile>
wee1_glide-grid

> <s_m_Source_File>
wee1_decoys_glide_SP.sdf

> <s_m_Source_Path>
/Users/zhangxujun/Desktop

> <s_m_entry_id>
1638

> <s_m_entry_name>
wee1_decoys_glide_SP.1363

> <s_m_subgroup_title>
wee1_decoys_glide_SP

> <s_m_subgroupid>
wee1_decoys_glide_SP


$$$$
