ZINC15073494_1428
                    3D
 Schrodinger Suite 2024-2.
 53 56  0  0  1  0            999 V2000
   -2.2204   52.6362   25.4653 C   0  0  0  0  0  0
   -1.0321   52.7489   24.6915 O   0  0  0  0  0  0
   -1.0221   52.2928   23.3824 C   0  0  0  0  0  0
   -2.1314   51.6765   22.7757 C   0  0  0  0  0  0
   -2.0784   51.2560   21.4488 C   0  0  0  0  0  0
   -0.9167   51.4471   20.7054 C   0  0  0  0  0  0
    0.1948   52.0518   21.2890 C   0  0  0  0  0  0
    0.1568   52.4693   22.6318 C   0  0  0  0  0  0
    1.2377   53.1091   23.2753 N   0  0  0  0  0  0
    2.5361   53.1585   22.9194 C   0  0  0  0  0  0
    3.0279   52.5759   21.9540 O   0  0  0  0  0  0
    3.2307   53.9116   23.7908 N   0  0  0  0  0  0
    4.6043   54.0968   23.7646 C   0  0  0  0  0  0
    5.4932   54.0712   22.6962 C   0  0  0  0  0  0
    6.7325   54.3918   23.2329 C   0  0  0  0  0  0
    6.6773   54.5937   24.5229 N   0  0  0  0  0  0
    5.3906   54.4108   24.8703 N   0  0  0  0  0  0
    5.0822   54.6250   26.3044 C   0  0  0  0  0  0
    3.5858   54.4868   26.6347 C   0  0  0  0  0  0
    3.2864   54.6639   28.1367 C   0  0  0  0  0  0
    4.0922   53.6417   28.8305 N   0  0  0  0  0  0
    5.5493   53.8232   28.6745 C   0  0  0  0  0  0
    5.8757   53.6289   27.1817 C   0  0  0  0  0  0
    3.5860   52.5479   29.4689 C   0  0  0  0  0  0
    4.2776   51.7084   30.0469 O   0  0  0  0  0  0
    2.1612   52.3486   29.4304 C   0  0  0  0  0  0
    1.2900   52.6165   30.5035 C   0  0  0  0  0  0
   -0.0335   52.3383   30.1949 C   0  0  0  0  0  0
   -0.2373   51.7630   28.5725 S   0  0  0  0  0  0
    1.4677   51.9108   28.2996 C   0  0  0  0  0  0
   -2.0559   53.0911   26.4442 H   0  0  0  0  0  0
   -3.0559   53.1598   24.9967 H   0  0  0  0  0  0
   -2.4894   51.5902   25.6290 H   0  0  0  0  0  0
   -3.0496   51.5108   23.3211 H   0  0  0  0  0  0
   -2.9390   50.7798   20.9974 H   0  0  0  0  0  0
   -0.8744   51.1275   19.6745 H   0  0  0  0  0  0
    1.0678   52.2058   20.6707 H   0  0  0  0  0  0
    0.9884   53.5240   24.1597 H   0  0  0  0  0  0
    2.7346   54.3122   24.5689 H   0  0  0  0  0  0
    5.2623   53.8642   21.6603 H   0  0  0  0  0  0
    7.6672   54.4652   22.6901 H   0  0  0  0  0  0
    5.4119   55.6516   26.4772 H   0  0  0  0  0  0
    3.1579   53.5522   26.2732 H   0  0  0  0  0  0
    3.1051   55.2981   26.1113 H   0  0  0  0  0  0
    2.2246   54.6372   28.3824 H   0  0  0  0  0  0
    3.6258   55.6431   28.4860 H   0  0  0  0  0  0
    5.8027   54.8351   28.9996 H   0  0  0  0  0  0
    6.1485   53.1590   29.2794 H   0  0  0  0  0  0
    6.9444   53.8239   27.0791 H   0  0  0  0  0  0
    5.7266   52.5879   26.8782 H   0  0  0  0  0  0
    1.6082   52.9795   31.4747 H   0  0  0  0  0  0
   -0.8945   52.4106   30.8493 H   0  0  0  0  0  0
    1.8808   51.6537   27.3343 H   0  0  0  0  0  0
  1  2  1  0  0  0
  1 31  1  0  0  0
  1 32  1  0  0  0
  1 33  1  0  0  0
  2  3  1  0  0  0
  3  8  2  0  0  0
  3  4  1  0  0  0
  4  5  2  0  0  0
  4 34  1  0  0  0
  5  6  1  0  0  0
  5 35  1  0  0  0
  6  7  2  0  0  0
  6 36  1  0  0  0
  7  8  1  0  0  0
  7 37  1  0  0  0
  8  9  1  0  0  0
  9 10  1  0  0  0
  9 38  1  0  0  0
 10 11  2  0  0  0
 10 12  1  0  0  0
 12 13  1  0  0  0
 12 39  1  0  0  0
 13 17  1  0  0  0
 13 14  2  0  0  0
 14 15  1  0  0  0
 14 40  1  0  0  0
 15 16  2  0  0  0
 15 41  1  0  0  0
 16 17  1  0  0  0
 17 18  1  0  0  0
 18 23  1  0  0  0
 18 19  1  0  0  0
 18 42  1  0  0  0
 19 20  1  0  0  0
 19 43  1  0  0  0
 19 44  1  0  0  0
 20 21  1  0  0  0
 20 45  1  0  0  0
 20 46  1  0  0  0
 21 22  1  0  0  0
 21 24  1  0  0  0
 22 23  1  0  0  0
 22 47  1  0  0  0
 22 48  1  0  0  0
 23 49  1  0  0  0
 23 50  1  0  0  0
 24 25  2  0  0  0
 24 26  1  0  0  0
 26 30  2  0  0  0
 26 27  1  0  0  0
 27 28  2  0  0  0
 27 51  1  0  0  0
 28 29  1  0  0  0
 28 52  1  0  0  0
 29 30  1  0  0  0
 30 53  1  0  0  0
M  END
> <i_i_glide_confnum>
87

> <i_i_glide_lignum>
1429

> <i_i_glide_posenum>
385

> <i_i_glide_rotatable_bonds>
8

> <i_m_Source_File_Index>
829

> <b_m_subgroup_collapsed>
0

> <r_i_docking_score>
-6.34107

> <r_i_glide_ecoul>
-3.31915

> <r_i_glide_eff_state_penalty>
0

> <r_i_glide_einternal>
15.4273

> <r_i_glide_emodel>
-64.3181

> <r_i_glide_energy>
-50.7111

> <r_i_glide_erotb>
0.766977

> <r_i_glide_esite>
0

> <r_i_glide_evdw>
-47.392

> <r_i_glide_gscore>
-6.34107

> <r_i_glide_hbond>
-0.13879

> <r_i_glide_ligand_efficiency>
-0.211369

> <r_i_glide_ligand_efficiency_ln>
-1.44076

> <r_i_glide_ligand_efficiency_sa>
-0.656773

> <r_i_glide_lipo>
-2.40251

> <r_i_glide_metal>
0

> <r_i_glide_rewards>
-1.69927

> <s_i_glide_gridfile>
wee1_glide-grid

> <s_m_Source_File>
wee1_decoys_glide_SP.sdf

> <s_m_Source_Path>
/Users/zhangxujun/Desktop

> <s_m_entry_id>
1104

> <s_m_entry_name>
wee1_decoys_glide_SP.829

> <s_m_subgroup_title>
wee1_decoys_glide_SP

> <s_m_subgroupid>
wee1_decoys_glide_SP


$$$$
