ZINC21595761_3534
                    3D
 Schrodinger Suite 2024-2.
 52 55  0  0  1  0            999 V2000
    5.1549   54.2149   20.3180 C   0  0  0  0  0  0
    4.3721   53.6090   21.2972 C   0  0  0  0  0  0
    4.7160   53.7514   22.6390 C   0  0  0  0  0  0
    5.8446   54.4969   23.0025 C   0  0  0  0  0  0
    6.6312   55.0930   22.0095 C   0  0  0  0  0  0
    6.2809   54.9584   20.6669 C   0  0  0  0  0  0
    6.1850   54.7198   24.4372 C   0  0  0  0  0  0
    7.1486   55.4783   25.0843 C   0  0  0  0  0  0
    6.9569   55.2865   26.4538 C   0  0  0  0  0  0
    5.8517   54.4897   26.6112 C   0  0  0  0  0  0
    5.3994   54.1294   25.3778 O   0  0  0  0  0  0
    5.1170   54.0986   27.7862 C   0  0  0  0  0  0
    4.0348   53.3101   27.7486 C   0  0  0  0  0  0
    3.2036   53.0273   28.8883 C   0  0  0  0  0  0
    3.4633   53.3647   30.0483 O   0  0  0  0  0  0
    2.1015   52.3948   28.4489 N   0  0  0  0  0  0
    0.8749   52.1064   28.9780 C   0  0  0  0  0  0
    0.3046   52.5197   30.4841 S   0  0  0  0  0  0
    0.0527   51.4216   28.1286 N   0  0  0  0  0  0
    0.2398   51.2216   26.7481 C   0  0  0  0  0  0
    0.1307   49.9333   26.2289 C   0  0  0  0  0  0
    0.3607   49.7119   24.8725 C   0  0  0  0  0  0
    0.6952   50.7797   24.0336 C   0  0  0  0  0  0
    0.8053   52.0742   24.5599 C   0  0  0  0  0  0
    0.5724   52.2929   25.9088 C   0  0  0  0  0  0
    0.9549   50.4731   22.6896 N   0  0  0  0  0  0
    0.9359   51.2993   21.6187 C   0  0  0  0  0  0
    0.6312   52.4939   21.6533 O   0  0  0  0  0  0
    1.3261   50.6896   20.3720 C   0  0  0  0  0  0
    1.5622   51.3573   19.1693 C   0  0  0  0  0  0
    1.9044   50.4990   18.1223 C   0  0  0  0  0  0
    1.9042   49.1658   18.5008 C   0  0  0  0  0  0
    1.5001   48.9570   20.1704 S   0  0  0  0  0  0
    4.8859   54.1063   19.2780 H   0  0  0  0  0  0
    3.4934   53.0455   21.0159 H   0  0  0  0  0  0
    4.0895   53.2983   23.3946 H   0  0  0  0  0  0
    7.5047   55.6715   22.2744 H   0  0  0  0  0  0
    6.8796   55.4230   19.8970 H   0  0  0  0  0  0
    7.9032   56.0918   24.6074 H   0  0  0  0  0  0
    7.5045   55.6966   27.2814 H   0  0  0  0  0  0
    5.4798   54.5210   28.7143 H   0  0  0  0  0  0
    3.7339   52.8961   26.7940 H   0  0  0  0  0  0
    2.1921   52.0859   27.4928 H   0  0  0  0  0  0
   -0.8094   51.0590   28.5127 H   0  0  0  0  0  0
   -0.0952   49.1004   26.8816 H   0  0  0  0  0  0
    0.2928   48.7032   24.4908 H   0  0  0  0  0  0
    1.0960   52.9185   23.9533 H   0  0  0  0  0  0
    0.6941   53.2928   26.3013 H   0  0  0  0  0  0
    1.1679   49.5051   22.5043 H   0  0  0  0  0  0
    1.5083   52.4321   19.0560 H   0  0  0  0  0  0
    2.1608   50.8320   17.1266 H   0  0  0  0  0  0
    2.1697   48.3195   17.8820 H   0  0  0  0  0  0
  1  6  2  0  0  0
  1  2  1  0  0  0
  1 34  1  0  0  0
  2  3  2  0  0  0
  2 35  1  0  0  0
  3  4  1  0  0  0
  3 36  1  0  0  0
  4  5  2  0  0  0
  4  7  1  0  0  0
  5  6  1  0  0  0
  5 37  1  0  0  0
  6 38  1  0  0  0
  7 11  1  0  0  0
  7  8  2  0  0  0
  8  9  1  0  0  0
  8 39  1  0  0  0
  9 10  2  0  0  0
  9 40  1  0  0  0
 10 11  1  0  0  0
 10 12  1  0  0  0
 12 13  2  0  0  0
 12 41  1  0  0  0
 13 14  1  0  0  0
 13 42  1  0  0  0
 14 15  2  0  0  0
 14 16  1  0  0  0
 16 17  1  0  0  0
 16 43  1  0  0  0
 17 18  2  0  0  0
 17 19  1  0  0  0
 19 20  1  0  0  0
 19 44  1  0  0  0
 20 25  2  0  0  0
 20 21  1  0  0  0
 21 22  2  0  0  0
 21 45  1  0  0  0
 22 23  1  0  0  0
 22 46  1  0  0  0
 23 24  2  0  0  0
 23 26  1  0  0  0
 24 25  1  0  0  0
 24 47  1  0  0  0
 25 48  1  0  0  0
 26 27  1  0  0  0
 26 49  1  0  0  0
 27 28  2  0  0  0
 27 29  1  0  0  0
 29 33  1  0  0  0
 29 30  2  0  0  0
 30 31  1  0  0  0
 30 50  1  0  0  0
 31 32  2  0  0  0
 31 51  1  0  0  0
 32 33  1  0  0  0
 32 52  1  0  0  0
M  END
> <i_i_glide_confnum>
19

> <i_i_glide_lignum>
3535

> <i_i_glide_posenum>
149

> <i_i_glide_rotatable_bonds>
10

> <i_m_Source_File_Index>
1036

> <b_m_subgroup_collapsed>
0

> <r_i_docking_score>
-5.74409

> <r_i_glide_ecoul>
-7.59309

> <r_i_glide_eff_state_penalty>
0

> <r_i_glide_einternal>
8.75123

> <r_i_glide_emodel>
-70.1118

> <r_i_glide_energy>
-55.8391

> <r_i_glide_erotb>
0.901982

> <r_i_glide_esite>
-0.0763587

> <r_i_glide_evdw>
-48.246

> <r_i_glide_gscore>
-5.74409

> <r_i_glide_hbond>
-0.251556

> <r_i_glide_ligand_efficiency>
-0.174063

> <r_i_glide_ligand_efficiency_ln>
-1.27745

> <r_i_glide_ligand_efficiency_sa>
-0.558314

> <r_i_glide_lipo>
-2.34121

> <r_i_glide_metal>
0

> <r_i_glide_rewards>
-0.425676

> <s_i_glide_gridfile>
wee1_glide-grid

> <s_m_Source_File>
wee1_decoys_glide_SP.sdf

> <s_m_Source_Path>
/Users/zhangxujun/Desktop

> <s_m_entry_id>
1311

> <s_m_entry_name>
wee1_decoys_glide_SP.1036

> <s_m_subgroup_title>
wee1_decoys_glide_SP

> <s_m_subgroupid>
wee1_decoys_glide_SP


$$$$
