ZINC21323622_2871
                    3D
 Schrodinger Suite 2024-2.
 50 53  0  0  1  0            999 V2000
    0.0787   49.5287   25.8382 C   0  0  0  0  0  0
    0.4109   51.0300   25.7846 C   0  0  0  0  0  0
    0.7214   51.6542   24.7109 N   0  0  0  0  0  0
    0.7735   50.9820   23.4809 N   0  0  0  0  0  0
    1.8056   51.2036   22.5953 C   0  0  0  0  0  0
    2.5046   50.2475   22.0454 N   0  0  0  0  0  0
    3.4596   50.8619   21.2430 N   0  0  0  0  0  0
    3.3042   52.1556   21.3451 C   0  0  0  0  0  0
    2.2308   52.4472   22.1653 N   0  0  0  0  0  0
    1.7129   53.6962   22.4819 N   0  0  0  0  0  0
    4.3168   53.2857   20.4547 S   0  0  0  0  0  0
    4.6864   54.4413   21.8093 C   0  0  0  0  0  0
    6.1509   54.8984   21.7566 C   0  0  0  0  0  0
    6.8215   54.7075   22.7713 O   0  0  0  0  0  0
    6.7207   55.5275   20.5135 C   0  0  0  0  0  0
    5.9100   55.9744   19.4575 C   0  0  0  0  0  0
    6.4768   56.5655   18.3311 C   0  0  0  0  0  0
    7.8579   56.7101   18.2464 C   0  0  0  0  0  0
    8.6767   56.2723   19.2822 C   0  0  0  0  0  0
    8.1100   55.6968   20.4167 C   0  0  0  0  0  0
    8.6334   57.5145   16.7053 Br  0  0  0  0  0  0
    0.3367   51.7690   27.0670 C   0  0  0  0  0  0
   -0.4988   51.3484   28.1068 C   0  0  0  0  0  0
   -0.5461   52.0071   29.3298 C   0  0  0  0  0  0
    0.1941   53.1898   29.5278 C   0  0  0  0  0  0
    0.1155   53.9183   30.7361 C   0  0  0  0  0  0
    0.7711   55.1374   30.8573 C   0  0  0  0  0  0
    1.5642   55.6256   29.8231 C   0  0  0  0  0  0
    1.7120   54.8983   28.6448 C   0  0  0  0  0  0
    1.0181   53.6745   28.4706 C   0  0  0  0  0  0
    1.1040   52.9260   27.2707 C   0  0  0  0  0  0
    0.3312   49.0849   26.8005 H   0  0  0  0  0  0
   -0.9894   49.3688   25.6919 H   0  0  0  0  0  0
    0.6012   48.9483   25.0781 H   0  0  0  0  0  0
    0.5150   50.0146   23.6043 H   0  0  0  0  0  0
    2.3666   54.2111   23.0501 H   0  0  0  0  0  0
    1.5101   54.2031   21.6231 H   0  0  0  0  0  0
    4.0236   55.2966   21.7320 H   0  0  0  0  0  0
    4.5170   53.9569   22.7713 H   0  0  0  0  0  0
    4.8366   55.8637   19.4788 H   0  0  0  0  0  0
    5.8466   56.9066   17.5220 H   0  0  0  0  0  0
    9.7488   56.3894   19.2135 H   0  0  0  0  0  0
    8.7675   55.3741   21.2137 H   0  0  0  0  0  0
   -1.1449   50.4963   27.9819 H   0  0  0  0  0  0
   -1.1848   51.6346   30.1201 H   0  0  0  0  0  0
   -0.4878   53.5370   31.5499 H   0  0  0  0  0  0
    0.7049   55.6954   31.7765 H   0  0  0  0  0  0
    2.0797   56.5685   29.9433 H   0  0  0  0  0  0
    2.3359   55.2770   27.8483 H   0  0  0  0  0  0
    1.7536   53.2952   26.4894 H   0  0  0  0  0  0
  1  2  1  0  0  0
  1 32  1  0  0  0
  1 33  1  0  0  0
  1 34  1  0  0  0
  2  3  2  0  0  0
  2 22  1  0  0  0
  3  4  1  0  0  0
  4  5  1  0  0  0
  4 35  1  0  0  0
  5  9  1  0  0  0
  5  6  2  0  0  0
  6  7  1  0  0  0
  7  8  2  0  0  0
  8  9  1  0  0  0
  8 11  1  0  0  0
  9 10  1  0  0  0
 10 36  1  0  0  0
 10 37  1  0  0  0
 11 12  1  0  0  0
 12 13  1  0  0  0
 12 38  1  0  0  0
 12 39  1  0  0  0
 13 14  2  0  0  0
 13 15  1  0  0  0
 15 20  2  0  0  0
 15 16  1  0  0  0
 16 17  2  0  0  0
 16 40  1  0  0  0
 17 18  1  0  0  0
 17 41  1  0  0  0
 18 19  2  0  0  0
 18 21  1  0  0  0
 19 20  1  0  0  0
 19 42  1  0  0  0
 20 43  1  0  0  0
 22 31  2  0  0  0
 22 23  1  0  0  0
 23 24  2  0  0  0
 23 44  1  0  0  0
 24 25  1  0  0  0
 24 45  1  0  0  0
 25 30  2  0  0  0
 25 26  1  0  0  0
 26 27  2  0  0  0
 26 46  1  0  0  0
 27 28  1  0  0  0
 27 47  1  0  0  0
 28 29  2  0  0  0
 28 48  1  0  0  0
 29 30  1  0  0  0
 29 49  1  0  0  0
 30 31  1  0  0  0
 31 50  1  0  0  0
M  END
> <i_i_glide_confnum>
34

> <i_i_glide_lignum>
2872

> <i_i_glide_posenum>
112

> <i_i_glide_rotatable_bonds>
7

> <i_m_Source_File_Index>
5910

> <b_m_subgroup_collapsed>
0

> <r_i_docking_score>
-5.62145

> <r_i_glide_ecoul>
-5.87374

> <r_i_glide_eff_state_penalty>
0

> <r_i_glide_einternal>
7.62977

> <r_i_glide_emodel>
-63.074

> <r_i_glide_energy>
-49.4162

> <r_i_glide_erotb>
0.415315

> <r_i_glide_esite>
-0.0142746

> <r_i_glide_evdw>
-43.5425

> <r_i_glide_gscore>
-5.62145

> <r_i_glide_hbond>
-0.32

> <r_i_glide_ligand_efficiency>
-0.181337

> <r_i_glide_ligand_efficiency_ln>
-1.26781

> <r_i_glide_ligand_efficiency_sa>
-0.569649

> <r_i_glide_lipo>
-2.03509

> <r_i_glide_metal>
0

> <r_i_glide_rewards>
-0.609224

> <s_i_glide_gridfile>
wee1_glide-grid

> <s_m_Source_File>
wee1_decoys_glide_SP.sdf

> <s_m_Source_Path>
/Users/zhangxujun/Desktop

> <s_m_entry_id>
6185

> <s_m_entry_name>
wee1_decoys_glide_SP.5910

> <s_m_subgroup_title>
wee1_decoys_glide_SP

> <s_m_subgroupid>
wee1_decoys_glide_SP


$$$$
