ZINC13038806_2904
                    3D
 Schrodinger Suite 2024-2.
 70 72  0  0  1  0            999 V2000
    4.7679   54.6912   29.2821 C   0  0  0  0  0  0
    5.1794   53.4304   28.5120 C   0  0  0  0  0  0
    4.7870   53.5120   27.1458 O   0  0  0  0  0  0
    5.5282   54.1563   26.2072 C   0  0  0  0  0  0
    6.5993   54.7208   26.4435 O   0  0  0  0  0  0
    4.8938   54.0967   24.8617 C   0  0  0  0  0  0
    5.5971   54.3538   23.6385 C   0  0  0  0  0  0
    4.7696   54.2348   22.4984 C   0  0  0  0  0  0
    3.1269   53.9036   22.9154 S   0  0  0  0  0  0
    3.5392   53.7671   24.5977 C   0  0  0  0  0  0
    2.6101   53.3118   25.5372 N   0  0  0  0  0  0
    1.3160   52.9733   25.3722 C   0  0  0  0  0  0
    0.6348   53.2280   24.3768 O   0  0  0  0  0  0
    0.7084   52.2182   26.5722 C   0  0  0  0  0  0
   -1.3181   51.1461   27.5543 C   0  0  0  0  0  0
   -0.5539   50.4757   25.1389 C   0  0  0  0  0  0
    0.1145   49.1740   25.6398 C   0  0  0  0  0  0
    0.1664   48.1299   24.5086 C   0  0  0  0  0  0
   -1.2321   47.8430   23.9228 C   0  0  0  0  0  0
   -1.9330   49.1347   23.4472 C   0  0  0  0  0  0
   -1.9644   50.2136   24.5511 C   0  0  0  0  0  0
    5.1054   54.4966   21.1130 C   0  0  0  0  0  0
    6.0178   55.2693   20.8314 O   0  0  0  0  0  0
    4.3288   53.8535   20.2078 N   0  0  0  0  0  0
    4.3058   53.9473   18.8006 C   0  0  0  0  0  0
    4.9494   54.9705   18.0833 C   0  0  0  0  0  0
    4.8808   55.0153   16.6919 C   0  0  0  0  0  0
    4.1619   54.0463   15.9928 C   0  0  0  0  0  0
    3.5168   53.0286   16.6952 C   0  0  0  0  0  0
    3.5716   52.9762   18.0901 C   0  0  0  0  0  0
    2.8439   51.8372   18.7969 C   0  0  0  0  0  0
    4.0997   54.0853   14.4777 C   0  0  0  0  0  0
    7.1000   54.6035   23.5570 C   0  0  0  0  0  0
    4.7041   54.5019   30.3520 H   0  0  0  0  0  0
    5.5058   55.4757   29.1329 H   0  0  0  0  0  0
    3.7950   55.0625   28.9584 H   0  0  0  0  0  0
    4.6700   52.5657   28.9407 H   0  0  0  0  0  0
    6.2513   53.2386   28.6064 H   0  0  0  0  0  0
    3.0161   53.1416   26.4476 H   0  0  0  0  0  0
    0.5039   52.9358   27.3697 H   0  0  0  0  0  0
    1.3620   51.4380   26.9610 H   0  0  0  0  0  0
   -0.6241   50.4982   28.0942 H   0  0  0  0  0  0
   -1.5364   52.0436   28.1329 H   0  0  0  0  0  0
   -2.2403   50.6109   27.3273 H   0  0  0  0  0  0
    0.0429   50.8391   24.3026 H   0  0  0  0  0  0
   -0.4393   48.7628   26.4815 H   0  0  0  0  0  0
    1.1042   49.3615   26.0484 H   0  0  0  0  0  0
    0.6133   47.2119   24.8817 H   0  0  0  0  0  0
    0.8265   48.4904   23.7167 H   0  0  0  0  0  0
   -1.8462   47.3563   24.6833 H   0  0  0  0  0  0
   -1.1527   47.1365   23.0954 H   0  0  0  0  0  0
   -2.9482   48.9098   23.1210 H   0  0  0  0  0  0
   -1.4120   49.5258   22.5723 H   0  0  0  0  0  0
   -2.4151   51.1432   24.1987 H   0  0  0  0  0  0
   -2.6375   49.8691   25.3363 H   0  0  0  0  0  0
    3.6516   53.2096   20.5776 H   0  0  0  0  0  0
    5.5016   55.7539   18.5754 H   0  0  0  0  0  0
    5.3828   55.8130   16.1610 H   0  0  0  0  0  0
    2.9731   52.2695   16.1516 H   0  0  0  0  0  0
    2.5042   51.0708   18.1004 H   0  0  0  0  0  0
    3.5069   51.3376   19.5040 H   0  0  0  0  0  0
    1.9859   52.2165   19.3537 H   0  0  0  0  0  0
    4.0355   53.0768   14.0671 H   0  0  0  0  0  0
    3.2321   54.6541   14.1426 H   0  0  0  0  0  0
    4.9990   54.5356   14.0567 H   0  0  0  0  0  0
    7.3521   55.6320   23.8185 H   0  0  0  0  0  0
    7.6405   53.9597   24.2492 H   0  0  0  0  0  0
    7.5398   54.3788   22.5871 H   0  0  0  0  0  0
   -0.6263   51.5856   26.2386 N   0  3  2  0  0  0
   -1.1934   52.3139   25.8267 H   0  0  0  0  0  0
  1  2  1  0  0  0
  1 34  1  0  0  0
  1 35  1  0  0  0
  1 36  1  0  0  0
  2  3  1  0  0  0
  2 37  1  0  0  0
  2 38  1  0  0  0
  3  4  1  0  0  0
  4  5  2  0  0  0
  4  6  1  0  0  0
  6 10  2  0  0  0
  6  7  1  0  0  0
  7  8  2  0  0  0
  7 33  1  0  0  0
  8  9  1  0  0  0
  8 22  1  0  0  0
  9 10  1  0  0  0
 10 11  1  0  0  0
 11 12  1  0  0  0
 11 39  1  0  0  0
 12 13  2  0  0  0
 12 14  1  0  0  0
 14 40  1  0  0  0
 14 41  1  0  0  0
 14 69  1  0  0  0
 15 42  1  0  0  0
 15 43  1  0  0  0
 15 44  1  0  0  0
 15 69  1  0  0  0
 16 21  1  0  0  0
 16 17  1  0  0  0
 16 45  1  0  0  0
 16 69  1  0  0  0
 17 18  1  0  0  0
 17 46  1  0  0  0
 17 47  1  0  0  0
 18 19  1  0  0  0
 18 48  1  0  0  0
 18 49  1  0  0  0
 19 20  1  0  0  0
 19 50  1  0  0  0
 19 51  1  0  0  0
 20 21  1  0  0  0
 20 52  1  0  0  0
 20 53  1  0  0  0
 21 54  1  0  0  0
 21 55  1  0  0  0
 22 23  2  0  0  0
 22 24  1  0  0  0
 24 25  1  0  0  0
 24 56  1  0  0  0
 25 30  2  0  0  0
 25 26  1  0  0  0
 26 27  2  0  0  0
 26 57  1  0  0  0
 27 28  1  0  0  0
 27 58  1  0  0  0
 28 29  2  0  0  0
 28 32  1  0  0  0
 29 30  1  0  0  0
 29 59  1  0  0  0
 30 31  1  0  0  0
 31 60  1  0  0  0
 31 61  1  0  0  0
 31 62  1  0  0  0
 32 63  1  0  0  0
 32 64  1  0  0  0
 32 65  1  0  0  0
 33 66  1  0  0  0
 33 67  1  0  0  0
 33 68  1  0  0  0
 69 70  1  0  0  0
M  CHG  1  69   1
M  END
> <i_i_glide_confnum>
325

> <i_i_glide_lignum>
2905

> <i_i_glide_posenum>
175

> <i_i_glide_rotatable_bonds>
11

> <i_m_Source_File_Index>
5723

> <b_m_subgroup_collapsed>
0

> <r_i_docking_score>
-4.52887

> <r_i_glide_ecoul>
-3.67261

> <r_i_glide_eff_state_penalty>
0

> <r_i_glide_einternal>
4.10501

> <r_i_glide_emodel>
-62.6019

> <r_i_glide_energy>
-47.4084

> <r_i_glide_erotb>
0.772354

> <r_i_glide_esite>
-0.0264371

> <r_i_glide_evdw>
-43.7358

> <r_i_glide_gscore>
-4.52887

> <r_i_glide_hbond>
-0.106119

> <r_i_glide_ligand_efficiency>
-0.133202

> <r_i_glide_ligand_efficiency_ln>
-1.00055

> <r_i_glide_ligand_efficiency_sa>
-0.431523

> <r_i_glide_lipo>
-1.58086

> <r_i_glide_metal>
0

> <r_i_glide_rewards>
-0.850127

> <s_i_glide_gridfile>
wee1_glide-grid

> <s_m_Source_File>
wee1_decoys_glide_SP.sdf

> <s_m_Source_Path>
/Users/zhangxujun/Desktop

> <s_m_entry_id>
5998

> <s_m_entry_name>
wee1_decoys_glide_SP.5723

> <s_m_subgroup_title>
wee1_decoys_glide_SP

> <s_m_subgroupid>
wee1_decoys_glide_SP


$$$$
