ZINC58095081_450
                    3D
 Schrodinger Suite 2024-2.
 56 59  0  0  1  0            999 V2000
    1.1054   45.5508   16.8204 C   0  0  0  0  0  0
    0.9761   46.5475   17.9573 C   0  0  0  0  0  0
    1.8960   47.5910   18.0781 C   0  0  0  0  0  0
    1.7740   48.5125   19.1133 C   0  0  0  0  0  0
    0.7141   48.3961   20.0172 C   0  0  0  0  0  0
   -0.2045   47.3508   19.9045 C   0  0  0  0  0  0
   -0.0739   46.4275   18.8699 C   0  0  0  0  0  0
    0.5801   49.3030   21.0772 N   0  0  0  0  0  0
    0.2263   50.6229   21.0446 C   0  0  0  0  0  0
   -0.1653   51.4621   19.6347 S   0  0  0  0  0  0
    0.2228   51.1696   22.2979 N   0  0  0  0  0  0
    0.1608   52.4955   22.5658 N   0  0  0  0  0  0
    0.1433   52.8480   23.7906 C   0  0  0  0  0  0
    0.0052   52.0057   24.9851 C   0  0  0  0  0  0
   -0.7624   50.8626   25.1789 C   0  0  0  0  0  0
   -0.6733   50.4411   26.4818 N   0  0  0  0  0  0
   -1.1600   49.6262   26.8502 H   0  0  0  0  0  0
    0.1503   51.2862   27.1873 C   0  0  0  0  0  0
    0.6171   52.2615   26.2631 C   0  0  0  0  0  0
    1.5044   53.2421   26.7264 C   0  0  0  0  0  0
    1.9170   53.2357   28.0597 C   0  0  0  0  0  0
    1.4196   52.2791   28.9449 C   0  0  0  0  0  0
    0.5197   51.2967   28.5337 C   0  0  0  0  0  0
    3.0311   54.5138   28.6461 S   0  0  0  0  0  0
    2.3044   55.7763   28.4817 O   0  0  0  0  0  0
    3.4902   54.0969   29.9790 O   0  0  0  0  0  0
    4.4280   54.4966   27.5299 N   0  0  0  0  0  0
    5.7982   54.4160   28.0809 C   0  0  0  0  0  0
    6.6612   53.5346   27.1622 C   0  0  0  0  0  0
    6.5985   54.0085   25.6851 C   0  0  0  0  0  0
    5.1522   54.2471   25.1837 C   0  0  0  0  0  0
    4.3627   55.1173   26.1759 C   0  0  0  0  0  0
    0.1339   45.3825   16.3538 H   0  0  0  0  0  0
    1.4703   44.5928   17.1911 H   0  0  0  0  0  0
    1.7773   45.9118   16.0403 H   0  0  0  0  0  0
    2.7044   47.6961   17.3690 H   0  0  0  0  0  0
    2.4941   49.3158   19.1956 H   0  0  0  0  0  0
   -1.0198   47.2575   20.6070 H   0  0  0  0  0  0
   -0.7902   45.6246   18.7750 H   0  0  0  0  0  0
    0.6273   48.8801   21.9919 H   0  0  0  0  0  0
    0.4018   50.5878   23.1032 H   0  0  0  0  0  0
    0.2212   53.8988   24.0562 H   0  0  0  0  0  0
   -1.4024   50.3213   24.4951 H   0  0  0  0  0  0
    1.8376   53.9994   26.0433 H   0  0  0  0  0  0
    1.7148   52.3054   29.9844 H   0  0  0  0  0  0
    0.1181   50.5790   29.2318 H   0  0  0  0  0  0
    6.2192   55.4217   28.0914 H   0  0  0  0  0  0
    5.7786   54.0428   29.1038 H   0  0  0  0  0  0
    7.6906   53.5358   27.5141 H   0  0  0  0  0  0
    6.3179   52.5018   27.2559 H   0  0  0  0  0  0
    7.1038   53.2967   25.0340 H   0  0  0  0  0  0
    7.1554   54.9411   25.5907 H   0  0  0  0  0  0
    4.6363   53.2967   25.0508 H   0  0  0  0  0  0
    5.1691   54.7196   24.2007 H   0  0  0  0  0  0
    3.3380   55.2927   25.8720 H   0  0  0  0  0  0
    4.8453   56.0938   26.1847 H   0  0  0  0  0  0
  1  2  1  0  0  0
  1 33  1  0  0  0
  1 34  1  0  0  0
  1 35  1  0  0  0
  2  7  2  0  0  0
  2  3  1  0  0  0
  3  4  2  0  0  0
  3 36  1  0  0  0
  4  5  1  0  0  0
  4 37  1  0  0  0
  5  6  2  0  0  0
  5  8  1  0  0  0
  6  7  1  0  0  0
  6 38  1  0  0  0
  7 39  1  0  0  0
  8  9  1  0  0  0
  8 40  1  0  0  0
  9 10  2  0  0  0
  9 11  1  0  0  0
 11 12  1  0  0  0
 11 41  1  0  0  0
 12 13  2  0  0  0
 13 14  1  0  0  0
 13 42  1  0  0  0
 14 19  1  0  0  0
 14 15  2  0  0  0
 15 16  1  0  0  0
 15 43  1  0  0  0
 16 17  1  0  0  0
 16 18  1  0  0  0
 18 23  2  0  0  0
 18 19  1  0  0  0
 19 20  2  0  0  0
 20 21  1  0  0  0
 20 44  1  0  0  0
 21 22  2  0  0  0
 21 24  1  0  0  0
 22 23  1  0  0  0
 22 45  1  0  0  0
 23 46  1  0  0  0
 24 25  2  0  0  0
 24 26  2  0  0  0
 24 27  1  0  0  0
 27 32  1  0  0  0
 27 28  1  0  0  0
 28 29  1  0  0  0
 28 47  1  0  0  0
 28 48  1  0  0  0
 29 30  1  0  0  0
 29 49  1  0  0  0
 29 50  1  0  0  0
 30 31  1  0  0  0
 30 51  1  0  0  0
 30 52  1  0  0  0
 31 32  1  0  0  0
 31 53  1  0  0  0
 31 54  1  0  0  0
 32 55  1  0  0  0
 32 56  1  0  0  0
M  END
> <i_i_glide_confnum>
125

> <i_i_glide_lignum>
451

> <i_i_glide_posenum>
179

> <i_i_glide_rotatable_bonds>
7

> <i_m_Source_File_Index>
3993

> <b_m_subgroup_collapsed>
0

> <r_i_docking_score>
-3.28513

> <r_i_glide_ecoul>
-7.02708

> <r_i_glide_eff_state_penalty>
0

> <r_i_glide_einternal>
14.0302

> <r_i_glide_emodel>
-39.3694

> <r_i_glide_energy>
-45.053

> <r_i_glide_erotb>
0.677519

> <r_i_glide_esite>
-0.148202

> <r_i_glide_evdw>
-38.0259

> <r_i_glide_gscore>
-3.28513

> <r_i_glide_hbond>
-0.154002

> <r_i_glide_ligand_efficiency>
-0.105972

> <r_i_glide_ligand_efficiency_ln>
-0.740899

> <r_i_glide_ligand_efficiency_sa>
-0.332899

> <r_i_glide_lipo>
-1.92497

> <r_i_glide_metal>
0

> <r_i_glide_rewards>
1.21987

> <s_i_glide_gridfile>
wee1_glide-grid

> <s_m_Source_File>
wee1_decoys_glide_SP.sdf

> <s_m_Source_Path>
/Users/zhangxujun/Desktop

> <s_m_entry_id>
4268

> <s_m_entry_name>
wee1_decoys_glide_SP.3993

> <s_m_subgroup_title>
wee1_decoys_glide_SP

> <s_m_subgroupid>
wee1_decoys_glide_SP


$$$$
