ZINC38893656_5452
                    3D
 Schrodinger Suite 2024-2.
 75 79  0  0  1  0            999 V2000
   10.4884   53.5310   17.0374 C   0  0  0  0  0  0
    9.3796   52.9811   16.1603 C   0  0  0  0  0  0
    9.6725   52.1138   15.1061 C   0  0  0  0  0  0
    8.6479   51.6329   14.2946 C   0  0  0  0  0  0
    7.3302   52.0201   14.5344 C   0  0  0  0  0  0
    7.0025   52.8713   15.6110 C   0  0  0  0  0  0
    8.0536   53.3476   16.4068 C   0  0  0  0  0  0
    5.5484   53.2950   15.8441 C   0  0  1  0  0  0
    5.4774   54.3148   15.4574 H   0  0  0  0  0  0
    4.6092   52.4148   14.9952 C   0  0  0  0  0  0
    5.1416   52.1716   13.5603 C   0  0  0  0  0  0
    6.3846   51.4673   13.6870 O   0  0  0  0  0  0
    5.3464   53.4843   12.7682 C   0  0  0  0  0  0
    4.2087   51.1813   12.8413 C   0  0  0  0  0  0
    5.1475   53.2967   17.2505 N   0  0  0  0  0  0
    4.8863   54.3630   18.0292 C   0  0  0  0  0  0
    4.9786   55.5209   17.6212 O   0  0  0  0  0  0
    4.4641   54.1197   19.5003 C   0  0  1  0  0  0
    3.5067   54.6441   19.5657 H   0  0  0  0  0  0
    4.2411   52.6141   19.8019 C   0  0  0  0  0  0
    3.8526   52.4452   21.2719 C   0  0  0  0  0  0
    4.9679   52.9567   22.1920 C   0  0  0  0  0  0
    5.2430   54.4573   21.9193 N   0  3  2  0  0  0
    5.5352   54.7698   20.4240 C   0  0  0  0  0  0
    6.3996   54.9885   22.8163 C   0  0  0  0  0  0
    6.1258   54.8432   24.3088 C   0  0  0  0  0  0
    5.0042   54.6292   24.9435 N   0  0  0  0  0  0
    5.4058   54.4969   26.1966 C   0  0  0  0  0  0
    6.6965   54.6629   26.4062 N   0  0  0  0  0  0
    7.1933   54.9027   25.1322 O   0  0  0  0  0  0
    4.4538   54.1881   27.3141 C   0  0  0  0  0  0
    4.8404   54.3906   28.6422 C   0  0  0  0  0  0
    3.9489   54.1532   29.6817 C   0  0  0  0  0  0
    2.6527   53.7118   29.4193 C   0  0  0  0  0  0
    2.2489   53.4621   28.0975 C   0  0  0  0  0  0
    3.1629   53.7044   27.0572 C   0  0  0  0  0  0
    0.9590   53.0082   27.8923 O   0  0  0  0  0  0
    0.5821   52.5248   26.6061 C   0  0  0  0  0  0
    1.7897   53.5847   30.4812 O   0  0  0  0  0  0
    1.4844   52.2507   30.8640 C   0  0  0  0  0  0
   11.4649   53.1134   16.7837 H   0  0  0  0  0  0
   10.2829   53.2992   18.0818 H   0  0  0  0  0  0
   10.5389   54.6183   16.9529 H   0  0  0  0  0  0
   10.6919   51.8151   14.9078 H   0  0  0  0  0  0
    8.8745   50.9627   13.4789 H   0  0  0  0  0  0
    7.8381   54.0203   17.2242 H   0  0  0  0  0  0
    3.6028   52.8352   14.9729 H   0  0  0  0  0  0
    4.5174   51.4451   15.4899 H   0  0  0  0  0  0
    4.4182   54.0518   12.6976 H   0  0  0  0  0  0
    6.0997   54.1334   13.2142 H   0  0  0  0  0  0
    5.6833   53.2714   11.7531 H   0  0  0  0  0  0
    3.2126   51.6013   12.7028 H   0  0  0  0  0  0
    4.5977   50.9191   11.8568 H   0  0  0  0  0  0
    4.1058   50.2522   13.4044 H   0  0  0  0  0  0
    5.1054   52.3713   17.6692 H   0  0  0  0  0  0
    3.4326   52.1907   19.2014 H   0  0  0  0  0  0
    5.1651   52.0471   19.6816 H   0  0  0  0  0  0
    2.9174   52.9699   21.4791 H   0  0  0  0  0  0
    3.6617   51.3907   21.4843 H   0  0  0  0  0  0
    4.6135   52.8969   23.2151 H   0  0  0  0  0  0
    5.9033   52.4051   22.0837 H   0  0  0  0  0  0
    6.5436   54.4066   20.2182 H   0  0  0  0  0  0
    5.5044   55.8598   20.3517 H   0  0  0  0  0  0
    7.2848   54.4227   22.5172 H   0  0  0  0  0  0
    6.5575   56.0303   22.5322 H   0  0  0  0  0  0
    5.8311   54.7549   28.8820 H   0  0  0  0  0  0
    4.2802   54.3266   30.6922 H   0  0  0  0  0  0
    2.8739   53.5334   26.0330 H   0  0  0  0  0  0
   -0.4573   52.1973   26.6327 H   0  0  0  0  0  0
    0.6681   53.2943   25.8382 H   0  0  0  0  0  0
    1.1877   51.6660   26.3147 H   0  0  0  0  0  0
    0.8147   52.2664   31.7241 H   0  0  0  0  0  0
    0.9845   51.6963   30.0694 H   0  0  0  0  0  0
    2.3858   51.7120   31.1569 H   0  0  0  0  0  0
    4.3839   54.9427   22.1476 H   0  0  0  0  0  0
  1  2  1  0  0  0
  1 41  1  0  0  0
  1 42  1  0  0  0
  1 43  1  0  0  0
  2  7  2  0  0  0
  2  3  1  0  0  0
  3  4  2  0  0  0
  3 44  1  0  0  0
  4  5  1  0  0  0
  4 45  1  0  0  0
  5 12  1  0  0  0
  5  6  2  0  0  0
  6  7  1  0  0  0
  6  8  1  0  0  0
  7 46  1  0  0  0
  8  9  1  0  0  0
  8 10  1  0  0  0
  8 15  1  0  0  0
 10 11  1  0  0  0
 10 47  1  0  0  0
 10 48  1  0  0  0
 11 12  1  0  0  0
 11 13  1  0  0  0
 11 14  1  0  0  0
 13 49  1  0  0  0
 13 50  1  0  0  0
 13 51  1  0  0  0
 14 52  1  0  0  0
 14 53  1  0  0  0
 14 54  1  0  0  0
 15 16  1  0  0  0
 15 55  1  0  0  0
 16 17  2  0  0  0
 16 18  1  0  0  0
 18 19  1  0  0  0
 18 24  1  0  0  0
 18 20  1  0  0  0
 20 21  1  0  0  0
 20 56  1  0  0  0
 20 57  1  0  0  0
 21 22  1  0  0  0
 21 58  1  0  0  0
 21 59  1  0  0  0
 22 23  1  0  0  0
 22 60  1  0  0  0
 22 61  1  0  0  0
 23 24  1  0  0  0
 23 25  1  0  0  0
 23 75  1  0  0  0
 24 62  1  0  0  0
 24 63  1  0  0  0
 25 26  1  0  0  0
 25 64  1  0  0  0
 25 65  1  0  0  0
 26 30  1  0  0  0
 26 27  2  0  0  0
 27 28  1  0  0  0
 28 29  2  0  0  0
 28 31  1  0  0  0
 29 30  1  0  0  0
 31 36  2  0  0  0
 31 32  1  0  0  0
 32 33  2  0  0  0
 32 66  1  0  0  0
 33 34  1  0  0  0
 33 67  1  0  0  0
 34 35  2  0  0  0
 34 39  1  0  0  0
 35 36  1  0  0  0
 35 37  1  0  0  0
 36 68  1  0  0  0
 37 38  1  0  0  0
 38 69  1  0  0  0
 38 70  1  0  0  0
 38 71  1  0  0  0
 39 40  1  0  0  0
 40 72  1  0  0  0
 40 73  1  0  0  0
 40 74  1  0  0  0
M  CHG  1  23   1
M  END
> <i_i_glide_confnum>
29

> <i_i_glide_lignum>
5453

> <i_i_glide_posenum>
263

> <i_i_glide_rotatable_bonds>
8

> <i_m_Source_File_Index>
4388

> <b_m_subgroup_collapsed>
0

> <r_i_docking_score>
-5.19714

> <r_i_glide_ecoul>
-3.1984

> <r_i_glide_eff_state_penalty>
0

> <r_i_glide_einternal>
12.0521

> <r_i_glide_emodel>
-58.3727

> <r_i_glide_energy>
-46.7981

> <r_i_glide_erotb>
0.453342

> <r_i_glide_esite>
-0.0889231

> <r_i_glide_evdw>
-43.5997

> <r_i_glide_gscore>
-5.19714

> <r_i_glide_hbond>
-0.369081

> <r_i_glide_ligand_efficiency>
-0.136767

> <r_i_glide_ligand_efficiency_ln>
-1.12066

> <r_i_glide_ligand_efficiency_sa>
-0.459807

> <r_i_glide_lipo>
-2.03568

> <r_i_glide_metal>
0

> <r_i_glide_rewards>
-0.497057

> <s_i_glide_gridfile>
wee1_glide-grid

> <s_m_Source_File>
wee1_decoys_glide_SP.sdf

> <s_m_Source_Path>
/Users/zhangxujun/Desktop

> <s_m_entry_id>
4663

> <s_m_entry_name>
wee1_decoys_glide_SP.4388

> <s_m_subgroup_title>
wee1_decoys_glide_SP

> <s_m_subgroupid>
wee1_decoys_glide_SP


$$$$
