ZINC36188741_3017
                    3D
 Schrodinger Suite 2024-2.
 62 65  0  0  1  0            999 V2000
    1.6690   50.1820   22.3636 C   0  0  0  0  0  0
    2.4253   49.8783   21.0643 C   0  0  0  0  0  0
    2.7557   51.0505   20.3209 O   0  0  0  0  0  0
    3.7736   51.8748   20.6681 C   0  0  0  0  0  0
    4.4609   51.7240   21.6815 O   0  0  0  0  0  0
    3.9790   52.9933   19.7114 C   0  0  0  0  0  0
    3.4305   53.1091   18.3873 C   0  0  0  0  0  0
    3.8926   54.2662   17.7278 C   0  0  0  0  0  0
    4.8551   55.2831   18.7288 S   0  0  0  0  0  0
    4.7871   54.1165   20.0154 C   0  0  0  0  0  0
    5.4494   54.3195   21.2275 N   0  0  0  0  0  0
    6.3082   55.2951   21.5983 C   0  0  0  0  0  0
    6.7025   56.2154   20.8809 O   0  0  0  0  0  0
    6.8866   55.1780   23.0133 C   0  0  0  0  0  0
    5.8809   54.7537   23.9411 O   0  0  0  0  0  0
    6.0675   54.8708   25.2832 C   0  0  0  0  0  0
    7.1043   55.3086   25.7821 O   0  0  0  0  0  0
    4.9239   54.3548   26.1041 C   0  0  0  0  0  0
    5.0936   54.2187   27.4896 C   0  0  0  0  0  0
    4.1030   53.6987   28.3223 C   0  0  0  0  0  0
    2.9155   53.2876   27.7123 C   0  0  0  0  0  0
    2.6923   53.4252   26.3100 C   0  0  0  0  0  0
    3.7022   53.9919   25.5162 C   0  0  0  0  0  0
    1.3823   52.9039   26.0353 C   0  0  0  0  0  0
    0.8851   52.4259   27.2398 C   0  0  0  0  0  0
    1.7839   52.7007   28.2378 N   0  0  0  0  0  0
    1.6021   52.4610   29.2005 H   0  0  0  0  0  0
   -0.4819   51.7976   27.4598 C   0  0  0  0  0  0
   -1.3636   52.0691   26.2172 C   0  0  0  0  0  0
   -0.6002   51.8769   24.8877 C   0  0  0  0  0  0
    0.5926   52.8532   24.7334 C   0  0  0  0  0  0
    3.6024   54.7487   16.4056 C   0  0  0  0  0  0
    3.2453   55.9081   16.2022 O   0  0  0  0  0  0
    3.7948   53.8334   15.4428 N   0  0  0  0  0  0
    3.5866   54.0659   14.0180 C   0  0  0  0  0  0
    2.4774   52.1036   17.7400 C   0  0  0  0  0  0
    1.3464   49.2610   22.8491 H   0  0  0  0  0  0
    0.7817   50.7857   22.1748 H   0  0  0  0  0  0
    2.3048   50.7122   23.0715 H   0  0  0  0  0  0
    3.3184   49.2977   21.2817 H   0  0  0  0  0  0
    1.8012   49.2514   20.4271 H   0  0  0  0  0  0
    5.2822   53.5897   21.9079 H   0  0  0  0  0  0
    7.6311   54.3840   22.9616 H   0  0  0  0  0  0
    7.4038   56.0929   23.3109 H   0  0  0  0  0  0
    6.0282   54.5134   27.9492 H   0  0  0  0  0  0
    4.2684   53.5959   29.3846 H   0  0  0  0  0  0
    3.5407   54.0947   24.4525 H   0  0  0  0  0  0
   -0.3690   50.7190   27.5880 H   0  0  0  0  0  0
   -0.9626   52.1676   28.3654 H   0  0  0  0  0  0
   -2.2365   51.4156   26.2444 H   0  0  0  0  0  0
   -1.7535   53.0877   26.2645 H   0  0  0  0  0  0
   -0.2376   50.8491   24.8312 H   0  0  0  0  0  0
   -1.2809   51.9979   24.0446 H   0  0  0  0  0  0
    0.2312   53.8499   24.4819 H   0  0  0  0  0  0
    1.2258   52.5491   23.9016 H   0  0  0  0  0  0
    4.1412   52.9253   15.7151 H   0  0  0  0  0  0
    3.0097   53.2452   13.5917 H   0  0  0  0  0  0
    3.0490   54.9943   13.8174 H   0  0  0  0  0  0
    4.5477   54.1091   13.5050 H   0  0  0  0  0  0
    2.1535   52.3492   16.7294 H   0  0  0  0  0  0
    2.9240   51.1080   17.7010 H   0  0  0  0  0  0
    1.5646   51.9958   18.3260 H   0  0  0  0  0  0
  1  2  1  0  0  0
  1 37  1  0  0  0
  1 38  1  0  0  0
  1 39  1  0  0  0
  2  3  1  0  0  0
  2 40  1  0  0  0
  2 41  1  0  0  0
  3  4  1  0  0  0
  4  5  2  0  0  0
  4  6  1  0  0  0
  6 10  2  0  0  0
  6  7  1  0  0  0
  7  8  2  0  0  0
  7 36  1  0  0  0
  8  9  1  0  0  0
  8 32  1  0  0  0
  9 10  1  0  0  0
 10 11  1  0  0  0
 11 12  1  0  0  0
 11 42  1  0  0  0
 12 13  2  0  0  0
 12 14  1  0  0  0
 14 15  1  0  0  0
 14 43  1  0  0  0
 14 44  1  0  0  0
 15 16  1  0  0  0
 16 17  2  0  0  0
 16 18  1  0  0  0
 18 23  2  0  0  0
 18 19  1  0  0  0
 19 20  2  0  0  0
 19 45  1  0  0  0
 20 21  1  0  0  0
 20 46  1  0  0  0
 21 26  1  0  0  0
 21 22  2  0  0  0
 22 23  1  0  0  0
 22 24  1  0  0  0
 23 47  1  0  0  0
 24 31  1  0  0  0
 24 25  2  0  0  0
 25 26  1  0  0  0
 25 28  1  0  0  0
 26 27  1  0  0  0
 28 29  1  0  0  0
 28 48  1  0  0  0
 28 49  1  0  0  0
 29 30  1  0  0  0
 29 50  1  0  0  0
 29 51  1  0  0  0
 30 31  1  0  0  0
 30 52  1  0  0  0
 30 53  1  0  0  0
 31 54  1  0  0  0
 31 55  1  0  0  0
 32 33  2  0  0  0
 32 34  1  0  0  0
 34 35  1  0  0  0
 34 56  1  0  0  0
 35 57  1  0  0  0
 35 58  1  0  0  0
 35 59  1  0  0  0
 36 60  1  0  0  0
 36 61  1  0  0  0
 36 62  1  0  0  0
M  END
> <i_i_glide_confnum>
48

> <i_i_glide_lignum>
3018

> <i_i_glide_posenum>
203

> <i_i_glide_rotatable_bonds>
11

> <i_m_Source_File_Index>
6073

> <b_m_subgroup_collapsed>
0

> <r_i_docking_score>
-6.47811

> <r_i_glide_ecoul>
-6.45914

> <r_i_glide_eff_state_penalty>
0

> <r_i_glide_einternal>
6.23046

> <r_i_glide_emodel>
-73.8301

> <r_i_glide_energy>
-52.9336

> <r_i_glide_erotb>
0.659207

> <r_i_glide_esite>
-0.0309261

> <r_i_glide_evdw>
-46.4744

> <r_i_glide_gscore>
-6.47811

> <r_i_glide_hbond>
-0.356824

> <r_i_glide_ligand_efficiency>
-0.185089

> <r_i_glide_ligand_efficiency_ln>
-1.42209

> <r_i_glide_ligand_efficiency_sa>
-0.605438

> <r_i_glide_lipo>
-2.2041

> <r_i_glide_metal>
0

> <r_i_glide_rewards>
-1.25288

> <s_i_glide_gridfile>
wee1_glide-grid

> <s_m_Source_File>
wee1_decoys_glide_SP.sdf

> <s_m_Source_Path>
/Users/zhangxujun/Desktop

> <s_m_entry_id>
6348

> <s_m_entry_name>
wee1_decoys_glide_SP.6073

> <s_m_subgroup_title>
wee1_decoys_glide_SP

> <s_m_subgroupid>
wee1_decoys_glide_SP


$$$$
