ZINC16134262_3447
                    3D
 Schrodinger Suite 2024-2.
 53 57  0  0  1  0            999 V2000
    2.5806   53.5793   27.4713 C   0  0  0  0  0  0
    1.2791   52.8289   27.7371 C   0  0  0  0  0  0
    0.7946   52.7796   29.0496 C   0  0  0  0  0  0
   -0.3843   52.0966   29.3436 C   0  0  0  0  0  0
   -1.0917   51.4674   28.3240 C   0  0  0  0  0  0
   -0.6259   51.5142   27.0120 C   0  0  0  0  0  0
    0.5620   52.1958   26.7001 C   0  0  0  0  0  0
    1.1041   52.2468   25.3990 N   0  0  0  0  0  0
    0.5540   51.9499   24.1975 C   0  0  0  0  0  0
   -0.6225   51.6146   24.0286 O   0  0  0  0  0  0
    1.5155   52.0640   23.0257 C   0  0  0  0  0  0
    2.4654   53.0837   23.0433 C   0  0  0  0  0  0
    3.3873   53.2534   22.0004 C   0  0  0  0  0  0
    4.3604   54.2793   22.0842 C   0  0  0  0  0  0
    5.2554   54.4981   21.0473 C   0  0  0  0  0  0
    5.2049   53.7080   19.9119 C   0  0  0  0  0  0
    4.2807   52.6753   19.8135 C   0  0  0  0  0  0
    3.3436   52.3909   20.8624 C   0  0  0  0  0  0
    2.3866   51.3027   20.8330 C   0  0  0  0  0  0
    1.4871   51.1776   21.9295 C   0  0  0  0  0  0
    0.5776   50.1431   21.9498 O   0  0  0  0  0  0
    2.3848   50.3372   19.6849 C   0  0  0  0  0  0
    1.7247   49.2531   19.6255 N   0  0  0  0  0  0
    1.9036   48.4511   18.4825 N   0  0  0  0  0  0
    1.2239   47.2813   18.2334 C   0  0  0  0  0  0
    1.5087   46.4969   17.2369 N   0  0  0  0  0  0
    0.7200   45.3907   17.2427 C   0  0  0  0  0  0
    0.8160   44.3425   16.3168 C   0  0  0  0  0  0
   -0.0492   43.2556   16.4487 C   0  0  0  0  0  0
   -0.9971   43.2084   17.4724 C   0  0  0  0  0  0
   -1.1155   44.2400   18.4058 C   0  0  0  0  0  0
   -0.2417   45.3291   18.2869 C   0  0  0  0  0  0
   -0.0891   46.7691   19.2809 S   0  0  0  0  0  0
    3.3361   52.8994   27.0757 H   0  0  0  0  0  0
    2.4201   54.3615   26.7296 H   0  0  0  0  0  0
    2.9832   54.0494   28.3709 H   0  0  0  0  0  0
    1.3333   53.2604   29.8535 H   0  0  0  0  0  0
   -0.7448   52.0413   30.3620 H   0  0  0  0  0  0
   -1.9931   50.9142   28.5520 H   0  0  0  0  0  0
   -1.1929   50.9852   26.2628 H   0  0  0  0  0  0
    2.0643   52.5524   25.3700 H   0  0  0  0  0  0
    2.5112   53.7886   23.8644 H   0  0  0  0  0  0
    4.4014   54.8963   22.9670 H   0  0  0  0  0  0
    5.9876   55.2901   21.1158 H   0  0  0  0  0  0
    5.8964   53.8846   19.0997 H   0  0  0  0  0  0
    4.3094   52.0972   18.9048 H   0  0  0  0  0  0
    0.6850   49.5826   21.1731 H   0  0  0  0  0  0
    3.0049   50.6125   18.8410 H   0  0  0  0  0  0
    2.6336   48.7728   17.8458 H   0  0  0  0  0  0
    1.5476   44.3745   15.5243 H   0  0  0  0  0  0
    0.0079   42.4391   15.7426 H   0  0  0  0  0  0
   -1.6561   42.3541   17.5359 H   0  0  0  0  0  0
   -1.8558   44.2018   19.1915 H   0  0  0  0  0  0
  1  2  1  0  0  0
  1 34  1  0  0  0
  1 35  1  0  0  0
  1 36  1  0  0  0
  2  7  2  0  0  0
  2  3  1  0  0  0
  3  4  2  0  0  0
  3 37  1  0  0  0
  4  5  1  0  0  0
  4 38  1  0  0  0
  5  6  2  0  0  0
  5 39  1  0  0  0
  6  7  1  0  0  0
  6 40  1  0  0  0
  7  8  1  0  0  0
  8  9  1  0  0  0
  8 41  1  0  0  0
  9 10  2  0  0  0
  9 11  1  0  0  0
 11 20  2  0  0  0
 11 12  1  0  0  0
 12 13  2  0  0  0
 12 42  1  0  0  0
 13 18  1  0  0  0
 13 14  1  0  0  0
 14 15  2  0  0  0
 14 43  1  0  0  0
 15 16  1  0  0  0
 15 44  1  0  0  0
 16 17  2  0  0  0
 16 45  1  0  0  0
 17 18  1  0  0  0
 17 46  1  0  0  0
 18 19  2  0  0  0
 19 20  1  0  0  0
 19 22  1  0  0  0
 20 21  1  0  0  0
 21 47  1  0  0  0
 22 23  2  0  0  0
 22 48  1  0  0  0
 23 24  1  0  0  0
 24 25  1  0  0  0
 24 49  1  0  0  0
 25 33  1  0  0  0
 25 26  2  0  0  0
 26 27  1  0  0  0
 27 32  2  0  0  0
 27 28  1  0  0  0
 28 29  2  0  0  0
 28 50  1  0  0  0
 29 30  1  0  0  0
 29 51  1  0  0  0
 30 31  2  0  0  0
 30 52  1  0  0  0
 31 32  1  0  0  0
 31 53  1  0  0  0
 32 33  1  0  0  0
M  END
> <i_i_glide_confnum>
1

> <i_i_glide_lignum>
3448

> <i_i_glide_posenum>
377

> <i_i_glide_rotatable_bonds>
7

> <i_m_Source_File_Index>
4623

> <b_m_subgroup_collapsed>
0

> <r_i_docking_score>
-3.93158

> <r_i_glide_ecoul>
-3.58973

> <r_i_glide_eff_state_penalty>
0

> <r_i_glide_einternal>
2.68066

> <r_i_glide_emodel>
-53.8913

> <r_i_glide_energy>
-41.4563

> <r_i_glide_erotb>
0.489931

> <r_i_glide_esite>
-0.143678

> <r_i_glide_evdw>
-37.8665

> <r_i_glide_gscore>
-3.93158

> <r_i_glide_hbond>
-0.16

> <r_i_glide_ligand_efficiency>
-0.119139

> <r_i_glide_ligand_efficiency_ln>
-0.874364

> <r_i_glide_ligand_efficiency_sa>
-0.382142

> <r_i_glide_lipo>
-1.24673

> <r_i_glide_metal>
0

> <r_i_glide_rewards>
-0.439324

> <s_i_glide_gridfile>
wee1_glide-grid

> <s_m_Source_File>
wee1_decoys_glide_SP.sdf

> <s_m_Source_Path>
/Users/zhangxujun/Desktop

> <s_m_entry_id>
4898

> <s_m_entry_name>
wee1_decoys_glide_SP.4623

> <s_m_subgroup_title>
wee1_decoys_glide_SP

> <s_m_subgroupid>
wee1_decoys_glide_SP


$$$$
