ZINC35703250_5689
                    3D
 Schrodinger Suite 2024-2.
 86 91  0  0  1  0            999 V2000
    3.4694   53.8947   28.6078 C   0  0  0  0  0  0
    3.4738   53.8570   27.0924 C   0  0  0  0  0  0
    2.3197   53.4849   26.3974 C   0  0  0  0  0  0
    2.3130   53.4558   25.0017 C   0  0  0  0  0  0
    3.4455   53.7896   24.3013 N   0  0  0  0  0  0
    4.6094   54.1879   25.0003 C   0  0  0  0  0  0
    4.6307   54.2233   26.4035 C   0  0  0  0  0  0
    5.5248   54.4953   24.0583 N   0  3  0  0  0  0
    5.0135   54.3525   22.7814 C   0  0  0  0  0  0
    3.7142   53.8300   22.9276 C   0  0  0  0  0  0
    2.7621   53.4719   21.9961 N   0  0  0  0  0  0
    2.5393   52.1572   21.3796 C   0  0  0  0  0  0
    1.8242   52.4216   20.0373 C   0  0  0  0  0  0
    3.8949   51.4734   21.0516 C   0  0  0  0  0  0
    1.6718   51.2807   22.3536 C   0  0  0  0  0  0
    0.8596   50.0069   21.9110 C   0  0  0  0  0  0
   -0.4311   50.3782   21.1389 C   0  0  0  0  0  0
    0.4130   49.2807   23.2040 C   0  0  0  0  0  0
    1.6853   49.0045   21.0765 C   0  0  0  0  0  0
    5.8287   54.7482   21.5765 C   0  0  0  0  0  0
    7.1061   55.2995   21.7411 C   0  0  0  0  0  0
    7.8866   55.6566   20.6447 C   0  0  0  0  0  0
    7.4149   55.4513   19.3485 C   0  0  0  0  0  0
    6.1229   54.9322   19.1500 C   0  0  0  0  0  0
    5.3448   54.5933   20.2721 C   0  0  0  0  0  0
    5.6985   54.7698   17.8436 O   0  0  0  0  0  0
    4.5407   53.9818   17.5785 C   0  0  0  0  0  0
    8.2475   55.7685   18.2936 O   0  0  0  0  0  0
    8.7997   54.7613   17.5426 C   0  0  0  0  0  0
    8.5630   53.5593   17.6817 O   0  0  0  0  0  0
    9.7972   55.2484   16.4503 C   0  0  0  0  0  0
    9.6627   54.3610   15.1675 C   0  0  0  0  0  0
   10.7024   54.7916   14.0992 C   0  0  1  0  0  0
   10.4689   56.2766   13.7188 C   0  0  0  0  0  0
   10.6216   57.1703   14.9778 C   0  0  1  0  0  0
    9.5806   56.7456   16.0476 C   0  0  0  0  0  0
   12.0520   57.0005   15.5553 C   0  0  0  0  0  0
   12.2886   55.5174   15.9425 C   0  0  2  0  0  0
   12.1315   54.6246   14.6819 C   0  0  0  0  0  0
   11.2479   55.0900   17.0094 C   0  0  0  0  0  0
    4.0478   54.7458   28.9747 H   0  0  0  0  0  0
    2.4587   54.0046   29.0045 H   0  0  0  0  0  0
    3.9113   52.9837   29.0144 H   0  0  0  0  0  0
    1.4242   53.2165   26.9390 H   0  0  0  0  0  0
    1.4381   53.1851   24.4275 H   0  0  0  0  0  0
    5.5240   54.5204   26.9356 H   0  0  0  0  0  0
    2.4257   54.1873   21.3584 H   0  0  0  0  0  0
    0.8478   52.8884   20.1872 H   0  0  0  0  0  0
    2.3973   53.1003   19.4092 H   0  0  0  0  0  0
    1.6911   51.5176   19.4505 H   0  0  0  0  0  0
    3.7801   50.5147   20.5517 H   0  0  0  0  0  0
    4.4979   52.0765   20.3774 H   0  0  0  0  0  0
    4.4970   51.3019   21.9376 H   0  0  0  0  0  0
    0.9158   51.9430   22.7777 H   0  0  0  0  0  0
    2.3037   51.0163   23.2046 H   0  0  0  0  0  0
   -1.0615   49.4999   20.9789 H   0  0  0  0  0  0
   -0.2394   50.7908   20.1506 H   0  0  0  0  0  0
   -1.0317   51.1045   21.6889 H   0  0  0  0  0  0
    1.2626   48.9151   23.7790 H   0  0  0  0  0  0
   -0.1586   49.9378   23.8589 H   0  0  0  0  0  0
   -0.2174   48.4171   22.9878 H   0  0  0  0  0  0
    2.6020   48.7090   21.5873 H   0  0  0  0  0  0
    1.1196   48.0966   20.8799 H   0  0  0  0  0  0
    1.9541   49.3975   20.0983 H   0  0  0  0  0  0
    7.5193   55.4585   22.7255 H   0  0  0  0  0  0
    8.8780   56.0593   20.7981 H   0  0  0  0  0  0
    4.3533   54.2008   20.1270 H   0  0  0  0  0  0
    4.4415   53.8410   16.5017 H   0  0  0  0  0  0
    4.6144   52.9905   18.0317 H   0  0  0  0  0  0
    3.6352   54.4784   17.9318 H   0  0  0  0  0  0
    9.8121   53.3044   15.4007 H   0  0  0  0  0  0
    8.6564   54.4363   14.7508 H   0  0  0  0  0  0
   10.5958   54.1648   13.2121 H   0  0  0  0  0  0
    9.4768   56.4031   13.2823 H   0  0  0  0  0  0
   11.1782   56.5859   12.9490 H   0  0  0  0  0  0
   10.4599   58.2130   14.7052 H   0  0  0  0  0  0
    8.5695   56.8951   15.6630 H   0  0  0  0  0  0
    9.6739   57.3994   16.9164 H   0  0  0  0  0  0
   12.7947   57.3219   14.8239 H   0  0  0  0  0  0
   12.1884   57.6446   16.4250 H   0  0  0  0  0  0
   13.2942   55.3994   16.3489 H   0  0  0  0  0  0
   12.3183   53.5788   14.9324 H   0  0  0  0  0  0
   12.8805   54.8953   13.9336 H   0  0  0  0  0  0
   11.3771   55.6959   17.9065 H   0  0  0  0  0  0
   11.4385   54.0579   17.3142 H   0  0  0  0  0  0
    6.4565   54.8303   24.2561 H   0  0  0  0  0  0
  1  2  1  0  0  0
  1 41  1  0  0  0
  1 42  1  0  0  0
  1 43  1  0  0  0
  2  7  2  0  0  0
  2  3  1  0  0  0
  3  4  2  0  0  0
  3 44  1  0  0  0
  4  5  1  0  0  0
  4 45  1  0  0  0
  5 10  1  0  0  0
  5  6  1  0  0  0
  6  7  1  0  0  0
  6  8  2  0  0  0
  7 46  1  0  0  0
  8  9  1  0  0  0
  8 86  1  0  0  0
  9 10  2  0  0  0
  9 20  1  0  0  0
 10 11  1  0  0  0
 11 12  1  0  0  0
 11 47  1  0  0  0
 12 13  1  0  0  0
 12 14  1  0  0  0
 12 15  1  0  0  0
 13 48  1  0  0  0
 13 49  1  0  0  0
 13 50  1  0  0  0
 14 51  1  0  0  0
 14 52  1  0  0  0
 14 53  1  0  0  0
 15 16  1  0  0  0
 15 54  1  0  0  0
 15 55  1  0  0  0
 16 17  1  0  0  0
 16 18  1  0  0  0
 16 19  1  0  0  0
 17 56  1  0  0  0
 17 57  1  0  0  0
 17 58  1  0  0  0
 18 59  1  0  0  0
 18 60  1  0  0  0
 18 61  1  0  0  0
 19 62  1  0  0  0
 19 63  1  0  0  0
 19 64  1  0  0  0
 20 25  2  0  0  0
 20 21  1  0  0  0
 21 22  2  0  0  0
 21 65  1  0  0  0
 22 23  1  0  0  0
 22 66  1  0  0  0
 23 24  2  0  0  0
 23 28  1  0  0  0
 24 25  1  0  0  0
 24 26  1  0  0  0
 25 67  1  0  0  0
 26 27  1  0  0  0
 27 68  1  0  0  0
 27 69  1  0  0  0
 27 70  1  0  0  0
 28 29  1  0  0  0
 29 30  2  0  0  0
 29 31  1  0  0  0
 31 36  1  0  0  0
 31 40  1  0  0  0
 31 32  1  0  0  0
 32 33  1  0  0  0
 32 71  1  0  0  0
 32 72  1  0  0  0
 33 39  1  0  0  0
 33 34  1  0  0  0
 33 73  1  0  0  0
 34 35  1  0  0  0
 34 74  1  0  0  0
 34 75  1  0  0  0
 35 36  1  0  0  0
 35 37  1  0  0  0
 35 76  1  0  0  0
 36 77  1  0  0  0
 36 78  1  0  0  0
 37 38  1  0  0  0
 37 79  1  0  0  0
 37 80  1  0  0  0
 38 39  1  0  0  0
 38 40  1  0  0  0
 38 81  1  0  0  0
 39 82  1  0  0  0
 39 83  1  0  0  0
 40 84  1  0  0  0
 40 85  1  0  0  0
M  CHG  1   8   1
M  END
> <i_i_glide_confnum>
111

> <i_i_glide_lignum>
5690

> <i_i_glide_posenum>
268

> <i_i_glide_rotatable_bonds>
9

> <i_m_Source_File_Index>
3188

> <b_m_subgroup_collapsed>
0

> <r_i_docking_score>
-5.32576

> <r_i_glide_ecoul>
-3.03245

> <r_i_glide_eff_state_penalty>
0

> <r_i_glide_einternal>
4.23659

> <r_i_glide_emodel>
-52.4085

> <r_i_glide_energy>
-40.7902

> <r_i_glide_erotb>
0.488292

> <r_i_glide_esite>
-0.00233097

> <r_i_glide_evdw>
-37.7578

> <r_i_glide_gscore>
-5.32576

> <r_i_glide_hbond>
-0.32

> <r_i_glide_ligand_efficiency>
-0.133144

> <r_i_glide_ligand_efficiency_ln>
-1.13583

> <r_i_glide_ligand_efficiency_sa>
-0.455346

> <r_i_glide_lipo>
-2.41185

> <r_i_glide_metal>
0

> <r_i_glide_rewards>
-0.737114

> <s_i_glide_gridfile>
wee1_glide-grid

> <s_m_Source_File>
wee1_decoys_glide_SP.sdf

> <s_m_Source_Path>
/Users/zhangxujun/Desktop

> <s_m_entry_id>
3463

> <s_m_entry_name>
wee1_decoys_glide_SP.3188

> <s_m_subgroup_title>
wee1_decoys_glide_SP

> <s_m_subgroupid>
wee1_decoys_glide_SP


$$$$
