ZINC00869707_5021
                    3D
 Schrodinger Suite 2024-2.
 63 67  0  0  1  0            999 V2000
    6.7156   54.6964   23.3525 C   0  0  0  0  0  0
    7.1038   54.1998   24.6284 O   0  0  0  0  0  0
    6.2099   54.2683   25.6773 C   0  0  0  0  0  0
    6.6196   53.7058   26.8835 C   0  0  0  0  0  0
    5.7720   53.6915   27.9829 C   0  0  0  0  0  0
    4.4965   54.2450   27.8973 C   0  0  0  0  0  0
    4.0900   54.8375   26.6986 C   0  0  0  0  0  0
    4.9371   54.8473   25.5944 C   0  0  0  0  0  0
    3.6797   54.1557   29.0348 N   0  0  0  0  0  0
    1.9541   54.5641   29.0952 S   0  0  0  0  0  0
    1.7602   55.8770   28.4797 O   0  0  0  0  0  0
    1.5470   54.3567   30.4817 O   0  0  0  0  0  0
    1.1165   53.2984   28.1446 C   0  0  0  0  0  0
    0.4470   52.2885   28.8289 C   0  0  0  0  0  0
   -0.2003   51.2958   28.1159 C   0  0  0  0  0  0
   -0.1605   51.2606   26.7255 C   0  0  0  0  0  0
    0.4385   52.3105   26.0090 C   0  0  0  0  0  0
    1.1046   53.2966   26.7470 C   0  0  0  0  0  0
    0.3202   52.4069   24.4845 C   0  0  1  0  0  0
   -0.2759   53.2959   24.2704 H   0  0  0  0  0  0
    1.6494   52.4564   23.7526 C   0  0  0  0  0  0
    1.9041   51.3002   23.1140 C   0  0  0  0  0  0
    0.7913   50.2997   23.3217 C   0  0  0  0  0  0
   -0.3500   51.1760   23.8529 C   0  0  1  0  0  0
   -0.8945   51.5262   22.9730 H   0  0  0  0  0  0
   -1.4027   50.4807   24.7589 C   0  0  2  0  0  0
   -2.2142   51.1882   24.9362 H   0  0  0  0  0  0
   -0.8399   50.2152   26.0818 N   0  0  0  0  0  0
   -2.0438   49.2733   24.0675 C   0  0  0  0  0  0
   -1.5375   47.9817   24.2732 C   0  0  0  0  0  0
   -2.0976   46.8895   23.6160 C   0  0  0  0  0  0
   -3.1653   47.0750   22.7412 C   0  0  0  0  0  0
   -3.6782   48.3530   22.5189 C   0  0  0  0  0  0
   -3.1310   49.4567   23.1977 C   0  0  0  0  0  0
   -3.6387   50.7217   23.0064 O   0  0  0  0  0  0
   -4.8813   50.9533   23.6588 C   0  0  0  0  0  0
   -4.7320   48.4885   21.6483 O   0  0  0  0  0  0
   -4.3942   49.0829   20.3994 C   0  0  0  0  0  0
    7.5047   54.4978   22.6287 H   0  0  0  0  0  0
    5.8092   54.2108   22.9884 H   0  0  0  0  0  0
    6.5620   55.7750   23.3812 H   0  0  0  0  0  0
    7.5874   53.2402   26.9627 H   0  0  0  0  0  0
    6.1138   53.2277   28.8929 H   0  0  0  0  0  0
    3.1210   55.2977   26.6061 H   0  0  0  0  0  0
    4.5820   55.2967   24.6819 H   0  0  0  0  0  0
    4.0078   53.5590   29.7777 H   0  0  0  0  0  0
    0.4133   52.2593   29.9090 H   0  0  0  0  0  0
   -0.7181   50.5162   28.6538 H   0  0  0  0  0  0
    1.5553   54.0970   26.1936 H   0  0  0  0  0  0
    2.2913   53.3237   23.7772 H   0  0  0  0  0  0
    2.7795   51.0681   22.5257 H   0  0  0  0  0  0
    1.0849   49.5179   24.0250 H   0  0  0  0  0  0
    0.5075   49.8071   22.3907 H   0  0  0  0  0  0
   -1.3201   49.5148   26.6404 H   0  0  0  0  0  0
   -0.7037   47.8221   24.9444 H   0  0  0  0  0  0
   -1.6957   45.9023   23.7783 H   0  0  0  0  0  0
   -3.5946   46.2302   22.2244 H   0  0  0  0  0  0
   -5.0862   52.0252   23.6812 H   0  0  0  0  0  0
   -5.7016   50.4688   23.1242 H   0  0  0  0  0  0
   -4.8811   50.5981   24.6926 H   0  0  0  0  0  0
   -5.2720   49.0860   19.7548 H   0  0  0  0  0  0
   -4.0664   50.1169   20.5146 H   0  0  0  0  0  0
   -3.6103   48.5205   19.8866 H   0  0  0  0  0  0
  1  2  1  0  0  0
  1 39  1  0  0  0
  1 40  1  0  0  0
  1 41  1  0  0  0
  2  3  1  0  0  0
  3  8  2  0  0  0
  3  4  1  0  0  0
  4  5  2  0  0  0
  4 42  1  0  0  0
  5  6  1  0  0  0
  5 43  1  0  0  0
  6  7  2  0  0  0
  6  9  1  0  0  0
  7  8  1  0  0  0
  7 44  1  0  0  0
  8 45  1  0  0  0
  9 10  1  0  0  0
  9 46  1  0  0  0
 10 11  2  0  0  0
 10 12  2  0  0  0
 10 13  1  0  0  0
 13 18  2  0  0  0
 13 14  1  0  0  0
 14 15  2  0  0  0
 14 47  1  0  0  0
 15 16  1  0  0  0
 15 48  1  0  0  0
 16 28  1  0  0  0
 16 17  2  0  0  0
 17 18  1  0  0  0
 17 19  1  0  0  0
 18 49  1  0  0  0
 19 20  1  0  0  0
 19 24  1  0  0  0
 19 21  1  0  0  0
 21 22  2  0  0  0
 21 50  1  0  0  0
 22 23  1  0  0  0
 22 51  1  0  0  0
 23 24  1  0  0  0
 23 52  1  0  0  0
 23 53  1  0  0  0
 24 25  1  0  0  0
 24 26  1  0  0  0
 26 27  1  0  0  0
 26 28  1  0  0  0
 26 29  1  0  0  0
 28 54  1  0  0  0
 29 34  2  0  0  0
 29 30  1  0  0  0
 30 31  2  0  0  0
 30 55  1  0  0  0
 31 32  1  0  0  0
 31 56  1  0  0  0
 32 33  2  0  0  0
 32 57  1  0  0  0
 33 34  1  0  0  0
 33 37  1  0  0  0
 34 35  1  0  0  0
 35 36  1  0  0  0
 36 58  1  0  0  0
 36 59  1  0  0  0
 36 60  1  0  0  0
 37 38  1  0  0  0
 38 61  1  0  0  0
 38 62  1  0  0  0
 38 63  1  0  0  0
M  END
> <i_i_glide_confnum>
1

> <i_i_glide_lignum>
5022

> <i_i_glide_posenum>
164

> <i_i_glide_rotatable_bonds>
7

> <i_m_Source_File_Index>
4878

> <b_m_subgroup_collapsed>
0

> <r_i_docking_score>
-5.49769

> <r_i_glide_ecoul>
-2.94565

> <r_i_glide_eff_state_penalty>
0

> <r_i_glide_einternal>
6.15349

> <r_i_glide_emodel>
-56.6204

> <r_i_glide_energy>
-44.0857

> <r_i_glide_erotb>
0.33573

> <r_i_glide_esite>
-0.078939

> <r_i_glide_evdw>
-41.1401

> <r_i_glide_gscore>
-5.49769

> <r_i_glide_hbond>
-0.133555

> <r_i_glide_ligand_efficiency>
-0.157077

> <r_i_glide_ligand_efficiency_ln>
-1.20687

> <r_i_glide_ligand_efficiency_sa>
-0.513809

> <r_i_glide_lipo>
-2.83454

> <r_i_glide_metal>
0

> <r_i_glide_rewards>
-0.287538

> <s_i_glide_gridfile>
wee1_glide-grid

> <s_m_Source_File>
wee1_decoys_glide_SP.sdf

> <s_m_Source_Path>
/Users/zhangxujun/Desktop

> <s_m_entry_id>
5153

> <s_m_entry_name>
wee1_decoys_glide_SP.4878

> <s_m_subgroup_title>
wee1_decoys_glide_SP

> <s_m_subgroupid>
wee1_decoys_glide_SP


$$$$
