ZINC36218733_5405
                    3D
 Schrodinger Suite 2024-2.
 65 69  0  0  1  0            999 V2000
   -8.0205   54.4981   25.0389 C   0  0  0  0  0  0
   -6.9323   53.6494   25.6700 C   0  0  0  0  0  0
   -7.1647   53.0200   26.8938 C   0  0  0  0  0  0
   -6.1755   52.2241   27.4678 C   0  0  0  0  0  0
   -4.9485   52.0576   26.8251 C   0  0  0  0  0  0
   -4.6939   52.6794   25.5886 C   0  0  0  0  0  0
   -5.7000   53.4848   25.0309 C   0  0  0  0  0  0
   -3.3776   52.4996   24.8583 C   0  0  0  0  0  0
   -3.0462   53.2964   23.9771 O   0  0  0  0  0  0
   -2.6590   51.4149   25.2249 N   0  0  0  0  0  0
   -1.4068   50.9561   24.7775 C   0  0  0  0  0  0
   -0.9310   49.8003   25.4013 C   0  0  0  0  0  0
    0.3052   49.2664   25.0477 C   0  0  0  0  0  0
    1.0831   49.8919   24.0782 C   0  0  0  0  0  0
    0.6361   51.0584   23.4476 C   0  0  0  0  0  0
   -0.6206   51.5764   23.7895 C   0  0  0  0  0  0
    1.5063   51.7837   22.4103 C   0  0  1  0  0  0
    0.9049   51.8053   21.4995 H   0  0  0  0  0  0
    2.0201   53.2062   22.6798 C   0  0  2  0  0  0
    1.2995   53.9415   22.3235 H   0  0  0  0  0  0
    3.2254   53.2245   21.8512 N   0  0  0  0  0  0
    3.6604   51.9198   21.6052 C   0  0  0  0  0  0
    4.7043   51.5004   21.1134 O   0  0  0  0  0  0
    2.7020   51.1007   22.0770 O   0  0  0  0  0  0
    4.0497   54.4219   21.6377 C   0  0  0  0  0  0
    4.8724   54.4980   20.3531 C   0  0  0  0  0  0
    4.3451   54.0648   19.1307 C   0  0  0  0  0  0
    5.1244   54.1204   17.9792 C   0  0  0  0  0  0
    6.4224   54.6240   18.0471 C   0  0  0  0  0  0
    6.9482   55.0730   19.2567 C   0  0  0  0  0  0
    6.1719   55.0102   20.4110 C   0  0  0  0  0  0
    2.2397   53.5463   24.1858 C   0  0  0  0  0  0
    1.2402   53.6973   24.8821 O   0  0  0  0  0  0
    3.5037   53.6967   24.6433 N   0  0  0  0  0  0
    3.9775   53.9900   25.9384 C   0  0  0  0  0  0
    5.3578   54.1992   26.0512 C   0  0  0  0  0  0
    5.9404   54.4521   27.2932 C   0  0  0  0  0  0
    5.1469   54.4964   28.4374 C   0  0  0  0  0  0
    3.7720   54.2888   28.3420 C   0  0  0  0  0  0
    3.1858   54.0367   27.1002 C   0  0  0  0  0  0
    3.0086   54.3315   29.4583 F   0  0  0  0  0  0
   -8.3846   55.2382   25.7542 H   0  0  0  0  0  0
   -7.6686   55.0299   24.1530 H   0  0  0  0  0  0
   -8.8670   53.8688   24.7547 H   0  0  0  0  0  0
   -8.1129   53.1390   27.3982 H   0  0  0  0  0  0
   -6.3590   51.7333   28.4139 H   0  0  0  0  0  0
   -4.2074   51.4379   27.3126 H   0  0  0  0  0  0
   -5.5368   53.9747   24.0818 H   0  0  0  0  0  0
   -3.0725   50.8392   25.9416 H   0  0  0  0  0  0
   -1.5071   49.3032   26.1728 H   0  0  0  0  0  0
    0.6666   48.3749   25.5406 H   0  0  0  0  0  0
    2.0461   49.4658   23.8318 H   0  0  0  0  0  0
   -0.9451   52.4795   23.3001 H   0  0  0  0  0  0
    4.7333   54.5176   22.4802 H   0  0  0  0  0  0
    3.3930   55.2889   21.6816 H   0  0  0  0  0  0
    3.3393   53.6710   19.0744 H   0  0  0  0  0  0
    4.7261   53.7679   17.0387 H   0  0  0  0  0  0
    7.0269   54.6622   17.1524 H   0  0  0  0  0  0
    7.9562   55.4590   19.2982 H   0  0  0  0  0  0
    6.5881   55.3497   21.3493 H   0  0  0  0  0  0
    4.2305   53.5689   23.9580 H   0  0  0  0  0  0
    5.9924   54.1594   25.1756 H   0  0  0  0  0  0
    7.0064   54.6105   27.3754 H   0  0  0  0  0  0
    5.5988   54.6982   29.3967 H   0  0  0  0  0  0
    2.1213   53.8659   27.0743 H   0  0  0  0  0  0
  1  2  1  0  0  0
  1 42  1  0  0  0
  1 43  1  0  0  0
  1 44  1  0  0  0
  2  7  2  0  0  0
  2  3  1  0  0  0
  3  4  2  0  0  0
  3 45  1  0  0  0
  4  5  1  0  0  0
  4 46  1  0  0  0
  5  6  2  0  0  0
  5 47  1  0  0  0
  6  7  1  0  0  0
  6  8  1  0  0  0
  7 48  1  0  0  0
  8  9  2  0  0  0
  8 10  1  0  0  0
 10 11  1  0  0  0
 10 49  1  0  0  0
 11 16  2  0  0  0
 11 12  1  0  0  0
 12 13  2  0  0  0
 12 50  1  0  0  0
 13 14  1  0  0  0
 13 51  1  0  0  0
 14 15  2  0  0  0
 14 52  1  0  0  0
 15 16  1  0  0  0
 15 17  1  0  0  0
 16 53  1  0  0  0
 17 18  1  0  0  0
 17 24  1  0  0  0
 17 19  1  0  0  0
 19 20  1  0  0  0
 19 21  1  0  0  0
 19 32  1  0  0  0
 21 22  1  0  0  0
 21 25  1  0  0  0
 22 23  2  0  0  0
 22 24  1  0  0  0
 25 26  1  0  0  0
 25 54  1  0  0  0
 25 55  1  0  0  0
 26 31  2  0  0  0
 26 27  1  0  0  0
 27 28  2  0  0  0
 27 56  1  0  0  0
 28 29  1  0  0  0
 28 57  1  0  0  0
 29 30  2  0  0  0
 29 58  1  0  0  0
 30 31  1  0  0  0
 30 59  1  0  0  0
 31 60  1  0  0  0
 32 33  2  0  0  0
 32 34  1  0  0  0
 34 35  1  0  0  0
 34 61  1  0  0  0
 35 40  2  0  0  0
 35 36  1  0  0  0
 36 37  2  0  0  0
 36 62  1  0  0  0
 37 38  1  0  0  0
 37 63  1  0  0  0
 38 39  2  0  0  0
 38 64  1  0  0  0
 39 40  1  0  0  0
 39 41  1  0  0  0
 40 65  1  0  0  0
M  END
> <i_i_glide_confnum>
149

> <i_i_glide_lignum>
5406

> <i_i_glide_posenum>
236

> <i_i_glide_rotatable_bonds>
9

> <i_m_Source_File_Index>
4679

> <b_m_subgroup_collapsed>
0

> <r_i_docking_score>
-5.53862

> <r_i_glide_ecoul>
-6.18631

> <r_i_glide_eff_state_penalty>
0

> <r_i_glide_einternal>
7.12918

> <r_i_glide_emodel>
-69.3358

> <r_i_glide_energy>
-54.5863

> <r_i_glide_erotb>
0.675418

> <r_i_glide_esite>
-0.0172679

> <r_i_glide_evdw>
-48.4

> <r_i_glide_gscore>
-5.53862

> <r_i_glide_hbond>
0

> <r_i_glide_ligand_efficiency>
-0.142016

> <r_i_glide_ligand_efficiency_ln>
-1.18764

> <r_i_glide_ligand_efficiency_sa>
-0.481606

> <r_i_glide_lipo>
-2.1651

> <r_i_glide_metal>
0

> <r_i_glide_rewards>
-0.683719

> <s_i_glide_gridfile>
wee1_glide-grid

> <s_m_Source_File>
wee1_decoys_glide_SP.sdf

> <s_m_Source_Path>
/Users/zhangxujun/Desktop

> <s_m_entry_id>
4954

> <s_m_entry_name>
wee1_decoys_glide_SP.4679

> <s_m_subgroup_title>
wee1_decoys_glide_SP

> <s_m_subgroupid>
wee1_decoys_glide_SP


$$$$
