ZINC09090245_4311
                    3D
 Schrodinger Suite 2024-2.
 59 64  0  0  1  0            999 V2000
    5.9053   54.8379   22.8452 C   0  0  0  0  0  0
    5.0250   54.4278   24.0240 C   0  0  0  0  0  0
    5.5109   54.6471   25.1992 N   0  0  0  0  0  0
    4.7607   54.2615   26.2637 C   0  0  0  0  0  0
    3.5154   53.6459   26.1870 C   0  0  0  0  0  0
    2.9615   53.3672   27.4529 C   0  0  0  0  0  0
    3.8075   53.7919   28.4877 C   0  0  0  0  0  0
    5.2850   54.4948   27.8948 S   0  0  0  0  0  0
    3.4542   53.7309   29.9628 C   0  0  0  0  0  0
    2.2871   52.7446   30.1787 C   0  0  0  0  0  0
    1.1468   52.9822   29.1768 C   0  0  0  0  0  0
    1.5930   52.7305   27.7208 C   0  0  0  0  0  0
    2.9736   53.3029   24.8721 C   0  0  0  0  0  0
    1.9458   52.6480   24.6969 O   0  0  0  0  0  0
    3.7838   53.7861   23.8414 N   0  0  0  0  0  0
    3.1629   53.7493   22.5583 N   0  0  0  0  0  0
    3.2702   52.6917   21.6863 C   0  0  0  0  0  0
    4.7042   52.0961   21.1215 S   0  0  0  0  0  0
    2.1523   52.0970   21.1756 N   0  0  0  0  0  0
    0.8458   52.1930   21.5114 C   0  0  0  0  0  0
    0.4253   52.8967   22.4285 O   0  0  0  0  0  0
   -0.1419   51.3325   20.6699 C   0  0  0  0  0  0
   -0.1280   51.8320   19.1895 C   0  0  0  0  0  0
   -1.0999   50.9774   18.3350 C   0  0  2  0  0  0
   -2.5387   51.1111   18.9001 C   0  0  0  0  0  0
   -2.5754   50.6073   20.3667 C   0  0  2  0  0  0
   -1.6030   51.4549   21.2260 C   0  0  0  0  0  0
   -2.1366   49.1201   20.4140 C   0  0  0  0  0  0
   -0.6958   48.9808   19.8563 C   0  0  1  0  0  0
   -0.6589   49.4895   18.3900 C   0  0  0  0  0  0
    0.2780   49.8255   20.7188 C   0  0  0  0  0  0
    6.5659   55.6671   23.1096 H   0  0  0  0  0  0
    6.5475   54.0122   22.5388 H   0  0  0  0  0  0
    5.3241   55.1576   21.9803 H   0  0  0  0  0  0
    4.3042   53.4418   30.5763 H   0  0  0  0  0  0
    3.1517   54.7284   30.2840 H   0  0  0  0  0  0
    2.6461   51.7200   30.0789 H   0  0  0  0  0  0
    1.9077   52.8317   31.1978 H   0  0  0  0  0  0
    0.2985   52.3362   29.4134 H   0  0  0  0  0  0
    0.7809   54.0059   29.2794 H   0  0  0  0  0  0
    0.8332   53.1146   27.0389 H   0  0  0  0  0  0
    1.6506   51.6568   27.5346 H   0  0  0  0  0  0
    2.3100   54.2936   22.5623 H   0  0  0  0  0  0
    2.3432   51.4505   20.4247 H   0  0  0  0  0  0
    0.8737   51.7670   18.7579 H   0  0  0  0  0  0
   -0.4089   52.8846   19.1281 H   0  0  0  0  0  0
   -1.0788   51.3257   17.3015 H   0  0  0  0  0  0
   -3.2369   50.5384   18.2879 H   0  0  0  0  0  0
   -2.8698   52.1495   18.8455 H   0  0  0  0  0  0
   -3.5888   50.6992   20.7616 H   0  0  0  0  0  0
   -1.9325   52.4955   21.2312 H   0  0  0  0  0  0
   -1.6491   51.1222   22.2645 H   0  0  0  0  0  0
   -2.8274   48.5046   19.8359 H   0  0  0  0  0  0
   -2.1842   48.7424   21.4364 H   0  0  0  0  0  0
   -0.3917   47.9332   19.8848 H   0  0  0  0  0  0
    0.3447   49.3741   17.9774 H   0  0  0  0  0  0
   -1.3119   48.8804   17.7622 H   0  0  0  0  0  0
    0.2784   49.4575   21.7475 H   0  0  0  0  0  0
    1.2952   49.6819   20.3473 H   0  0  0  0  0  0
  1  2  1  0  0  0
  1 32  1  0  0  0
  1 33  1  0  0  0
  1 34  1  0  0  0
  2 15  1  0  0  0
  2  3  2  0  0  0
  3  4  1  0  0  0
  4  8  1  0  0  0
  4  5  2  0  0  0
  5  6  1  0  0  0
  5 13  1  0  0  0
  6 12  1  0  0  0
  6  7  2  0  0  0
  7  8  1  0  0  0
  7  9  1  0  0  0
  9 10  1  0  0  0
  9 35  1  0  0  0
  9 36  1  0  0  0
 10 11  1  0  0  0
 10 37  1  0  0  0
 10 38  1  0  0  0
 11 12  1  0  0  0
 11 39  1  0  0  0
 11 40  1  0  0  0
 12 41  1  0  0  0
 12 42  1  0  0  0
 13 14  2  0  0  0
 13 15  1  0  0  0
 15 16  1  0  0  0
 16 17  1  0  0  0
 16 43  1  0  0  0
 17 18  2  0  0  0
 17 19  1  0  0  0
 19 20  1  0  0  0
 19 44  1  0  0  0
 20 21  2  0  0  0
 20 22  1  0  0  0
 22 27  1  0  0  0
 22 31  1  0  0  0
 22 23  1  0  0  0
 23 24  1  0  0  0
 23 45  1  0  0  0
 23 46  1  0  0  0
 24 30  1  0  0  0
 24 25  1  0  0  0
 24 47  1  0  0  0
 25 26  1  0  0  0
 25 48  1  0  0  0
 25 49  1  0  0  0
 26 27  1  0  0  0
 26 28  1  0  0  0
 26 50  1  0  0  0
 27 51  1  0  0  0
 27 52  1  0  0  0
 28 29  1  0  0  0
 28 53  1  0  0  0
 28 54  1  0  0  0
 29 30  1  0  0  0
 29 31  1  0  0  0
 29 55  1  0  0  0
 30 56  1  0  0  0
 30 57  1  0  0  0
 31 58  1  0  0  0
 31 59  1  0  0  0
M  END
> <i_i_glide_confnum>
27

> <i_i_glide_lignum>
4312

> <i_i_glide_posenum>
225

> <i_i_glide_rotatable_bonds>
5

> <i_m_Source_File_Index>
3089

> <b_m_subgroup_collapsed>
0

> <r_i_docking_score>
-4.74025

> <r_i_glide_ecoul>
-0.852703

> <r_i_glide_eff_state_penalty>
0

> <r_i_glide_einternal>
16.1788

> <r_i_glide_emodel>
-44.5209

> <r_i_glide_energy>
-40.7049

> <r_i_glide_erotb>
0.385569

> <r_i_glide_esite>
-0.00679695

> <r_i_glide_evdw>
-39.8522

> <r_i_glide_gscore>
-4.74025

> <r_i_glide_hbond>
0

> <r_i_glide_ligand_efficiency>
-0.152911

> <r_i_glide_ligand_efficiency_ln>
-1.06907

> <r_i_glide_ligand_efficiency_sa>
-0.480353

> <r_i_glide_lipo>
-1.84174

> <r_i_glide_metal>
0

> <r_i_glide_rewards>
-1.15677

> <s_i_glide_gridfile>
wee1_glide-grid

> <s_m_Source_File>
wee1_decoys_glide_SP.sdf

> <s_m_Source_Path>
/Users/zhangxujun/Desktop

> <s_m_entry_id>
3364

> <s_m_entry_name>
wee1_decoys_glide_SP.3089

> <s_m_subgroup_title>
wee1_decoys_glide_SP

> <s_m_subgroupid>
wee1_decoys_glide_SP


$$$$
