ZINC20728439_204
                    3D
 Schrodinger Suite 2024-2.
 52 54  0  0  1  0            999 V2000
   -5.0620   53.0111   24.8819 C   0  0  0  0  0  0
   -3.8762   52.3979   25.3677 O   0  0  0  0  0  0
   -2.9618   51.8796   24.5098 C   0  0  0  0  0  0
   -3.1046   51.8612   23.2818 O   0  0  0  0  0  0
   -1.7503   51.2630   25.2288 C   0  0  2  0  0  0
   -2.0436   50.2474   25.4960 H   0  0  0  0  0  0
   -1.3130   51.9931   26.5349 C   0  0  0  0  0  0
   -0.4152   51.1604   27.4623 C   0  0  0  0  0  0
    0.5478   52.1024   28.6802 S   0  0  0  0  0  0
    1.7947   52.8606   27.6040 C   0  0  0  0  0  0
   -0.5917   51.1353   24.3054 N   0  0  0  0  0  0
    0.0680   52.1241   23.6479 C   0  0  0  0  0  0
   -0.3215   53.2928   23.7007 O   0  0  0  0  0  0
    1.1762   51.7604   22.9378 N   0  0  0  0  0  0
    1.6965   50.3605   22.8773 C   0  0  0  0  0  0
    1.6499   49.8117   21.4184 C   0  0  0  0  0  0
    2.1651   50.8836   20.4776 C   0  0  0  0  0  0
    2.3172   52.2149   20.8383 C   0  0  0  0  0  0
    2.8022   52.8966   19.7352 N   0  3  0  0  0  0
    3.0687   51.9877   18.7368 C   0  0  0  0  0  0
    2.7043   50.7431   19.2075 N   0  0  0  0  0  0
    2.8485   49.8737   18.7016 H   0  0  0  0  0  0
    1.9663   52.8028   22.2039 C   0  0  2  0  0  0
    1.3218   53.6709   22.0518 H   0  0  0  0  0  0
    3.1568   53.4012   22.9890 C   0  0  0  0  0  0
    4.4704   53.3976   22.4822 C   0  0  0  0  0  0
    5.5171   53.9495   23.2176 C   0  0  0  0  0  0
    5.2688   54.4965   24.4732 C   0  0  0  0  0  0
    3.9785   54.4967   24.9953 C   0  0  0  0  0  0
    2.9276   53.9708   24.2476 C   0  0  0  0  0  0
    6.6997   55.2567   25.4765 Br  0  0  0  0  0  0
   -5.6754   52.3005   24.3266 H   0  0  0  0  0  0
   -5.6489   53.3833   25.7219 H   0  0  0  0  0  0
   -4.8299   53.8540   24.2294 H   0  0  0  0  0  0
   -0.7967   52.9084   26.2800 H   0  0  0  0  0  0
   -2.1761   52.3004   27.1244 H   0  0  0  0  0  0
   -1.0609   50.4967   28.0322 H   0  0  0  0  0  0
    0.2661   50.5246   26.8937 H   0  0  0  0  0  0
    2.5350   53.3911   28.2054 H   0  0  0  0  0  0
    2.3078   52.0977   27.0179 H   0  0  0  0  0  0
    1.3331   53.5744   26.9229 H   0  0  0  0  0  0
   -0.1831   50.2142   24.2864 H   0  0  0  0  0  0
    2.7270   50.4087   23.2056 H   0  0  0  0  0  0
    1.2493   49.6798   23.6010 H   0  0  0  0  0  0
    2.2304   48.8915   21.3398 H   0  0  0  0  0  0
    0.6232   49.5452   21.1644 H   0  0  0  0  0  0
    3.5244   52.1882   17.7747 H   0  0  0  0  0  0
    4.7050   52.9611   21.5235 H   0  0  0  0  0  0
    6.5201   53.9489   22.8188 H   0  0  0  0  0  0
    3.7889   54.9271   25.9667 H   0  0  0  0  0  0
    1.9312   54.0091   24.6587 H   0  0  0  0  0  0
    2.9303   53.9032   19.6828 H   0  0  0  0  0  0
  1  2  1  0  0  0
  1 32  1  0  0  0
  1 33  1  0  0  0
  1 34  1  0  0  0
  2  3  1  0  0  0
  3  4  2  0  0  0
  3  5  1  0  0  0
  5  6  1  0  0  0
  5  7  1  0  0  0
  5 11  1  0  0  0
  7  8  1  0  0  0
  7 35  1  0  0  0
  7 36  1  0  0  0
  8  9  1  0  0  0
  8 37  1  0  0  0
  8 38  1  0  0  0
  9 10  1  0  0  0
 10 39  1  0  0  0
 10 40  1  0  0  0
 10 41  1  0  0  0
 11 12  1  0  0  0
 11 42  1  0  0  0
 12 13  2  0  0  0
 12 14  1  0  0  0
 14 23  1  0  0  0
 14 15  1  0  0  0
 15 16  1  0  0  0
 15 43  1  0  0  0
 15 44  1  0  0  0
 16 17  1  0  0  0
 16 45  1  0  0  0
 16 46  1  0  0  0
 17 21  1  0  0  0
 17 18  2  0  0  0
 18 19  1  0  0  0
 18 23  1  0  0  0
 19 20  2  0  0  0
 19 52  1  0  0  0
 20 21  1  0  0  0
 20 47  1  0  0  0
 21 22  1  0  0  0
 23 24  1  0  0  0
 23 25  1  0  0  0
 25 30  2  0  0  0
 25 26  1  0  0  0
 26 27  2  0  0  0
 26 48  1  0  0  0
 27 28  1  0  0  0
 27 49  1  0  0  0
 28 29  2  0  0  0
 28 31  1  0  0  0
 29 30  1  0  0  0
 29 50  1  0  0  0
 30 51  1  0  0  0
M  CHG  1  19   1
M  END
> <i_i_glide_confnum>
118

> <i_i_glide_lignum>
205

> <i_i_glide_posenum>
201

> <i_i_glide_rotatable_bonds>
9

> <i_m_Source_File_Index>
143

> <b_m_subgroup_collapsed>
0

> <r_i_docking_score>
-5.22001

> <r_i_glide_ecoul>
-7.82629

> <r_i_glide_eff_state_penalty>
0

> <r_i_glide_einternal>
7.30001

> <r_i_glide_emodel>
-56.3602

> <r_i_glide_energy>
-42.8199

> <r_i_glide_erotb>
0.644187

> <r_i_glide_esite>
-0.196595

> <r_i_glide_evdw>
-34.9937

> <r_i_glide_gscore>
-5.22001

> <r_i_glide_hbond>
0

> <r_i_glide_ligand_efficiency>
-0.186429

> <r_i_glide_ligand_efficiency_ln>
-1.20493

> <r_i_glide_ligand_efficiency_sa>
-0.566108

> <r_i_glide_lipo>
-2.25069

> <r_i_glide_metal>
0

> <r_i_glide_rewards>
-0.493293

> <s_i_glide_gridfile>
wee1_glide-grid

> <s_m_Source_File>
wee1_decoys_glide_SP.sdf

> <s_m_Source_Path>
/Users/zhangxujun/Desktop

> <s_m_entry_id>
418

> <s_m_entry_name>
wee1_decoys_glide_SP.143

> <s_m_subgroup_title>
wee1_decoys_glide_SP

> <s_m_subgroupid>
wee1_decoys_glide_SP


$$$$
