ZINC14457445_4271
                    3D
 Schrodinger Suite 2024-2.
 58 61  0  0  1  0            999 V2000
   -7.9264   53.2487   26.8228 C   0  0  0  0  0  0
   -6.4958   53.5580   27.3005 C   0  0  0  0  0  0
   -5.3637   52.8894   26.4845 C   0  0  2  0  0  0
   -4.4135   53.2482   26.8818 H   0  0  0  0  0  0
   -5.3884   53.2463   24.9879 C   0  0  0  0  0  0
   -5.3857   51.4192   26.6476 N   0  0  0  0  0  0
   -4.4196   50.6643   27.9178 S   0  0  0  0  0  0
   -4.7803   51.2965   29.1925 O   0  0  0  0  0  0
   -4.5334   49.2162   27.7254 O   0  0  0  0  0  0
   -2.7238   51.1169   27.5604 C   0  0  0  0  0  0
   -2.3037   51.2217   26.2369 C   0  0  0  0  0  0
   -1.0242   51.6813   25.9531 C   0  0  0  0  0  0
   -0.1636   52.0475   26.9875 C   0  0  0  0  0  0
   -0.5324   51.8782   28.3369 C   0  0  0  0  0  0
   -1.8211   51.3838   28.5966 C   0  0  0  0  0  0
    0.4456   52.2261   29.4695 C   0  0  2  0  0  0
    0.7736   51.2967   29.9191 H   0  0  0  0  0  0
   -0.0955   53.1794   30.5159 C   0  0  0  0  0  0
    0.3783   54.4265   30.3417 C   0  0  0  0  0  0
    1.3414   54.4823   29.1763 C   0  0  0  0  0  0
    1.6723   52.9992   28.9859 C   0  0  2  0  0  0
    2.4696   52.7772   29.6982 H   0  0  0  0  0  0
    2.1928   52.5516   27.5987 C   0  0  1  0  0  0
    2.5325   51.5198   27.6922 H   0  0  0  0  0  0
    1.1040   52.5194   26.6198 N   0  0  0  0  0  0
    3.4384   53.3294   27.1601 C   0  0  0  0  0  0
    3.4888   53.9944   25.9295 C   0  0  0  0  0  0
    4.6445   54.6468   25.5243 C   0  0  0  0  0  0
    5.7763   54.6900   26.3541 C   0  0  0  0  0  0
    5.7121   54.0568   27.6032 C   0  0  0  0  0  0
    4.5672   53.3622   27.9858 C   0  0  0  0  0  0
    6.7625   54.0963   28.4809 O   0  0  0  0  0  0
    6.9499   55.3267   25.9979 O   0  0  0  0  0  0
    7.0770   55.8054   24.6627 C   0  0  0  0  0  0
   -8.6630   53.7143   27.4787 H   0  0  0  0  0  0
   -8.1211   52.1755   26.8210 H   0  0  0  0  0  0
   -8.1055   53.6246   25.8148 H   0  0  0  0  0  0
   -6.3452   54.6385   27.3014 H   0  0  0  0  0  0
   -6.4166   53.2536   28.3451 H   0  0  0  0  0  0
   -5.3899   54.3260   24.8396 H   0  0  0  0  0  0
   -4.5095   52.8540   24.4753 H   0  0  0  0  0  0
   -6.2683   52.8430   24.4845 H   0  0  0  0  0  0
   -5.3439   50.9067   25.7645 H   0  0  0  0  0  0
   -2.9709   50.9715   25.4259 H   0  0  0  0  0  0
   -0.7146   51.7753   24.9224 H   0  0  0  0  0  0
   -2.1342   51.2389   29.6213 H   0  0  0  0  0  0
   -0.7990   52.8586   31.2730 H   0  0  0  0  0  0
    0.1326   55.2969   30.9318 H   0  0  0  0  0  0
    2.2391   55.0556   29.4111 H   0  0  0  0  0  0
    0.8919   54.9281   28.2875 H   0  0  0  0  0  0
    1.4044   52.4282   25.6613 H   0  0  0  0  0  0
    2.6435   53.9992   25.2583 H   0  0  0  0  0  0
    4.6292   55.1141   24.5529 H   0  0  0  0  0  0
    4.5664   52.8508   28.9363 H   0  0  0  0  0  0
    7.1280   54.9829   28.6151 H   0  0  0  0  0  0
    7.9899   56.3790   24.5584 H   0  0  0  0  0  0
    7.1007   54.9873   23.9411 H   0  0  0  0  0  0
    6.2793   56.4965   24.4025 H   0  0  0  0  0  0
  1  2  1  0  0  0
  1 35  1  0  0  0
  1 36  1  0  0  0
  1 37  1  0  0  0
  2  3  1  0  0  0
  2 38  1  0  0  0
  2 39  1  0  0  0
  3  4  1  0  0  0
  3  5  1  0  0  0
  3  6  1  0  0  0
  5 40  1  0  0  0
  5 41  1  0  0  0
  5 42  1  0  0  0
  6  7  1  0  0  0
  6 43  1  0  0  0
  7  8  2  0  0  0
  7  9  2  0  0  0
  7 10  1  0  0  0
 10 15  2  0  0  0
 10 11  1  0  0  0
 11 12  2  0  0  0
 11 44  1  0  0  0
 12 13  1  0  0  0
 12 45  1  0  0  0
 13 25  1  0  0  0
 13 14  2  0  0  0
 14 15  1  0  0  0
 14 16  1  0  0  0
 15 46  1  0  0  0
 16 17  1  0  0  0
 16 21  1  0  0  0
 16 18  1  0  0  0
 18 19  2  0  0  0
 18 47  1  0  0  0
 19 20  1  0  0  0
 19 48  1  0  0  0
 20 21  1  0  0  0
 20 49  1  0  0  0
 20 50  1  0  0  0
 21 22  1  0  0  0
 21 23  1  0  0  0
 23 24  1  0  0  0
 23 25  1  0  0  0
 23 26  1  0  0  0
 25 51  1  0  0  0
 26 31  2  0  0  0
 26 27  1  0  0  0
 27 28  2  0  0  0
 27 52  1  0  0  0
 28 29  1  0  0  0
 28 53  1  0  0  0
 29 30  2  0  0  0
 29 33  1  0  0  0
 30 31  1  0  0  0
 30 32  1  0  0  0
 31 54  1  0  0  0
 32 55  1  0  0  0
 33 34  1  0  0  0
 34 56  1  0  0  0
 34 57  1  0  0  0
 34 58  1  0  0  0
M  END
> <i_i_glide_confnum>
20

> <i_i_glide_lignum>
4272

> <i_i_glide_posenum>
168

> <i_i_glide_rotatable_bonds>
7

> <i_m_Source_File_Index>
7

> <b_m_subgroup_collapsed>
0

> <r_i_docking_score>
-4.96487

> <r_i_glide_ecoul>
-4.98122

> <r_i_glide_eff_state_penalty>
0

> <r_i_glide_einternal>
7.43914

> <r_i_glide_emodel>
-50.0329

> <r_i_glide_energy>
-40.9446

> <r_i_glide_erotb>
0.43266

> <r_i_glide_esite>
-0.155144

> <r_i_glide_evdw>
-35.9634

> <r_i_glide_gscore>
-4.96487

> <r_i_glide_hbond>
-0.304

> <r_i_glide_ligand_efficiency>
-0.165496

> <r_i_glide_ligand_efficiency_ln>
-1.12807

> <r_i_glide_ligand_efficiency_sa>
-0.514234

> <r_i_glide_lipo>
-2.53337

> <r_i_glide_metal>
0

> <r_i_glide_rewards>
0.140339

> <s_i_glide_gridfile>
wee1_glide-grid

> <s_m_Source_File>
wee1_decoys_glide_SP.sdf

> <s_m_Source_Path>
/Users/zhangxujun/Desktop

> <s_m_entry_id>
282

> <s_m_entry_name>
wee1_decoys_glide_SP.7

> <s_m_subgroup_title>
wee1_decoys_glide_SP

> <s_m_subgroupid>
wee1_decoys_glide_SP


$$$$
