ZINC44848602_5917
                    3D
 Schrodinger Suite 2024-2.
 53 56  0  0  1  0            999 V2000
   -0.2509   52.3655   24.9308 C   0  0  0  0  0  0
    0.9953   52.7812   25.4720 O   0  0  0  0  0  0
    1.8707   53.4829   24.7253 C   0  0  0  0  0  0
    1.6710   53.8168   23.5549 O   0  0  0  0  0  0
    3.1186   53.7874   25.4583 C   0  0  0  0  0  0
    3.2917   53.8135   26.8792 C   0  0  0  0  0  0
    4.6059   54.1168   27.2710 C   0  0  0  0  0  0
    5.6340   54.4266   25.9281 S   0  0  0  0  0  0
    4.3333   54.0971   24.8106 C   0  0  0  0  0  0
    4.5105   54.1301   23.4237 N   0  0  0  0  0  0
    5.6187   54.4168   22.7135 C   0  0  0  0  0  0
    6.7051   54.7350   23.1889 O   0  0  0  0  0  0
    5.4394   54.4109   21.2178 C   0  0  0  0  0  0
    5.9050   55.5103   20.4895 C   0  0  0  0  0  0
    5.8143   55.5415   19.1002 C   0  0  0  0  0  0
    5.3030   54.4545   18.3765 C   0  0  0  0  0  0
    4.8479   53.3578   19.1140 C   0  0  0  0  0  0
    4.9043   53.3172   20.5078 C   0  0  0  0  0  0
    4.3269   51.8794   21.2816 Cl  0  0  0  0  0  0
    5.2041   54.3611   17.0099 N   0  5  0  0  0  0
    5.6686   55.4310   15.9554 S   0  0  0  0  0  0
    6.7566   56.3162   16.3861 O   0  0  0  0  0  0
    5.7731   54.8778   14.6021 O   0  0  0  0  0  0
    4.1886   56.4524   15.8824 C   0  0  0  0  0  0
    4.2406   57.8128   16.2021 C   0  0  0  0  0  0
    3.0881   58.5872   16.0951 C   0  0  0  0  0  0
    1.8932   58.0038   15.6840 C   0  0  0  0  0  0
    1.8334   56.6486   15.3770 C   0  0  0  0  0  0
    2.9840   55.8722   15.4698 C   0  0  0  0  0  0
    5.1038   54.2476   28.7056 C   0  0  0  0  0  0
    4.0559   53.6663   29.6730 C   0  0  0  0  0  0
    2.6345   54.1302   29.3190 C   0  0  0  0  0  0
    2.1917   53.6101   27.9336 C   0  0  0  0  0  0
   -0.8321   51.8527   25.6969 H   0  0  0  0  0  0
   -0.8337   53.2188   24.5797 H   0  0  0  0  0  0
   -0.1055   51.6779   24.0966 H   0  0  0  0  0  0
    3.6799   53.9182   22.8872 H   0  0  0  0  0  0
    6.3339   56.3614   20.9982 H   0  0  0  0  0  0
    6.1657   56.4294   18.6052 H   0  0  0  0  0  0
    4.4562   52.4974   18.5863 H   0  0  0  0  0  0
    5.1674   58.2726   16.5162 H   0  0  0  0  0  0
    3.1168   59.6409   16.3397 H   0  0  0  0  0  0
    1.0035   58.6127   15.6137 H   0  0  0  0  0  0
    0.9013   56.2015   15.0639 H   0  0  0  0  0  0
    2.9503   54.8194   15.2229 H   0  0  0  0  0  0
    5.2696   55.2964   28.9454 H   0  0  0  0  0  0
    6.0597   53.7399   28.8424 H   0  0  0  0  0  0
    4.3028   53.9566   30.6934 H   0  0  0  0  0  0
    4.1001   52.5765   29.6497 H   0  0  0  0  0  0
    2.5913   55.2210   29.3344 H   0  0  0  0  0  0
    1.9289   53.7928   30.0794 H   0  0  0  0  0  0
    1.9473   52.5489   28.0016 H   0  0  0  0  0  0
    1.2690   54.1160   27.6469 H   0  0  0  0  0  0
  1  2  1  0  0  0
  1 34  1  0  0  0
  1 35  1  0  0  0
  1 36  1  0  0  0
  2  3  1  0  0  0
  3  4  2  0  0  0
  3  5  1  0  0  0
  5  9  2  0  0  0
  5  6  1  0  0  0
  6 33  1  0  0  0
  6  7  2  0  0  0
  7  8  1  0  0  0
  7 30  1  0  0  0
  8  9  1  0  0  0
  9 10  1  0  0  0
 10 11  1  0  0  0
 10 37  1  0  0  0
 11 12  2  0  0  0
 11 13  1  0  0  0
 13 18  2  0  0  0
 13 14  1  0  0  0
 14 15  2  0  0  0
 14 38  1  0  0  0
 15 16  1  0  0  0
 15 39  1  0  0  0
 16 17  2  0  0  0
 16 20  1  0  0  0
 17 18  1  0  0  0
 17 40  1  0  0  0
 18 19  1  0  0  0
 20 21  1  0  0  0
 21 22  2  0  0  0
 21 23  2  0  0  0
 21 24  1  0  0  0
 24 29  2  0  0  0
 24 25  1  0  0  0
 25 26  2  0  0  0
 25 41  1  0  0  0
 26 27  1  0  0  0
 26 42  1  0  0  0
 27 28  2  0  0  0
 27 43  1  0  0  0
 28 29  1  0  0  0
 28 44  1  0  0  0
 29 45  1  0  0  0
 30 31  1  0  0  0
 30 46  1  0  0  0
 30 47  1  0  0  0
 31 32  1  0  0  0
 31 48  1  0  0  0
 31 49  1  0  0  0
 32 33  1  0  0  0
 32 50  1  0  0  0
 32 51  1  0  0  0
 33 52  1  0  0  0
 33 53  1  0  0  0
M  CHG  1  20  -1
M  END
> <i_i_glide_confnum>
85

> <i_i_glide_lignum>
5918

> <i_i_glide_posenum>
255

> <i_i_glide_rotatable_bonds>
8

> <i_m_Source_File_Index>
2956

> <b_m_subgroup_collapsed>
0

> <r_i_docking_score>
-3.77342

> <r_i_glide_ecoul>
-0.420289

> <r_i_glide_eff_state_penalty>
0

> <r_i_glide_einternal>
3.41909

> <r_i_glide_emodel>
-51.0044

> <r_i_glide_energy>
-44.7365

> <r_i_glide_erotb>
0.563374

> <r_i_glide_esite>
0

> <r_i_glide_evdw>
-44.3162

> <r_i_glide_gscore>
-3.77342

> <r_i_glide_hbond>
0

> <r_i_glide_ligand_efficiency>
-0.114346

> <r_i_glide_ligand_efficiency_ln>
-0.839189

> <r_i_glide_ligand_efficiency_sa>
-0.366769

> <r_i_glide_lipo>
-2.18079

> <r_i_glide_metal>
0

> <r_i_glide_rewards>
0.122847

> <s_i_glide_gridfile>
wee1_glide-grid

> <s_m_Source_File>
wee1_decoys_glide_SP.sdf

> <s_m_Source_Path>
/Users/zhangxujun/Desktop

> <s_m_entry_id>
3231

> <s_m_entry_name>
wee1_decoys_glide_SP.2956

> <s_m_subgroup_title>
wee1_decoys_glide_SP

> <s_m_subgroupid>
wee1_decoys_glide_SP


$$$$
