ZINC09934815_2543
                    3D
 Schrodinger Suite 2024-2.
 41 42  0  0  1  0            999 V2000
    4.1258   53.8061   29.1956 C   0  0  0  0  0  0
    4.6834   54.0911   27.8150 C   0  0  0  0  0  0
    3.8202   54.2463   26.7302 C   0  0  0  0  0  0
    4.3357   54.4931   25.4592 C   0  0  0  0  0  0
    5.7205   54.5820   25.2655 C   0  0  0  0  0  0
    6.5752   54.4358   26.3579 C   0  0  0  0  0  0
    6.0625   54.1832   27.6276 C   0  0  0  0  0  0
    6.2884   54.8302   24.0050 N   0  0  0  0  0  0
    5.6892   54.4409   22.7441 C   0  0  0  0  0  0
    6.1834   55.2861   21.5486 C   0  0  0  0  0  0
    7.1082   56.0954   21.6776 O   0  0  0  0  0  0
    5.5276   55.0809   20.3877 N   0  0  0  0  0  0
    5.7215   55.8479   19.2909 N   0  0  0  0  0  0
    5.0348   55.4650   18.2905 C   0  0  0  0  0  0
    4.9724   56.1446   16.9781 C   0  0  0  0  0  0
    4.3294   55.4451   15.9451 C   0  0  0  0  0  0
    4.2230   55.9741   14.6620 C   0  0  0  0  0  0
    4.7581   57.2241   14.3835 C   0  0  0  0  0  0
    5.3954   57.9592   15.3862 C   0  0  0  0  0  0
    5.5000   57.4282   16.6851 C   0  0  0  0  0  0
    6.0987   58.2111   17.6436 O   0  0  0  0  0  0
    5.9671   59.3276   15.0424 C   0  0  0  0  0  0
    3.2729   54.8792   13.1543 I   0  0  0  0  0  0
    4.6976   53.0148   29.6800 H   0  0  0  0  0  0
    3.0907   53.4707   29.1574 H   0  0  0  0  0  0
    4.1963   54.6950   29.8210 H   0  0  0  0  0  0
    2.7519   54.1759   26.8685 H   0  0  0  0  0  0
    3.6424   54.6160   24.6406 H   0  0  0  0  0  0
    7.6409   54.4956   26.2317 H   0  0  0  0  0  0
    6.7385   54.0596   28.4638 H   0  0  0  0  0  0
    7.2980   54.9109   23.9889 H   0  0  0  0  0  0
    5.9113   53.4005   22.5039 H   0  0  0  0  0  0
    4.5997   54.4966   22.7371 H   0  0  0  0  0  0
    4.8096   54.3759   20.3048 H   0  0  0  0  0  0
    4.4232   54.5637   18.3346 H   0  0  0  0  0  0
    3.9090   54.4633   16.1225 H   0  0  0  0  0  0
    4.6710   57.6255   13.3861 H   0  0  0  0  0  0
    6.2481   59.1064   17.3212 H   0  0  0  0  0  0
    5.7882   59.6111   14.0047 H   0  0  0  0  0  0
    5.5236   60.0948   15.6757 H   0  0  0  0  0  0
    7.0427   59.3440   15.2210 H   0  0  0  0  0  0
  1  2  1  0  0  0
  1 24  1  0  0  0
  1 25  1  0  0  0
  1 26  1  0  0  0
  2  7  2  0  0  0
  2  3  1  0  0  0
  3  4  2  0  0  0
  3 27  1  0  0  0
  4  5  1  0  0  0
  4 28  1  0  0  0
  5  6  2  0  0  0
  5  8  1  0  0  0
  6  7  1  0  0  0
  6 29  1  0  0  0
  7 30  1  0  0  0
  8  9  1  0  0  0
  8 31  1  0  0  0
  9 10  1  0  0  0
  9 32  1  0  0  0
  9 33  1  0  0  0
 10 11  2  0  0  0
 10 12  1  0  0  0
 12 13  1  0  0  0
 12 34  1  0  0  0
 13 14  2  0  0  0
 14 15  1  0  0  0
 14 35  1  0  0  0
 15 20  2  0  0  0
 15 16  1  0  0  0
 16 17  2  0  0  0
 16 36  1  0  0  0
 17 18  1  0  0  0
 17 23  1  0  0  0
 18 19  2  0  0  0
 18 37  1  0  0  0
 19 20  1  0  0  0
 19 22  1  0  0  0
 20 21  1  0  0  0
 21 38  1  0  0  0
 22 39  1  0  0  0
 22 40  1  0  0  0
 22 41  1  0  0  0
M  END
> <i_i_glide_confnum>
44

> <i_i_glide_lignum>
2544

> <i_i_glide_posenum>
137

> <i_i_glide_rotatable_bonds>
7

> <i_m_Source_File_Index>
4690

> <b_m_subgroup_collapsed>
0

> <r_i_docking_score>
-4.63093

> <r_i_glide_ecoul>
-4.4063

> <r_i_glide_eff_state_penalty>
0

> <r_i_glide_einternal>
3.74892

> <r_i_glide_emodel>
-45.8704

> <r_i_glide_energy>
-34.8934

> <r_i_glide_erotb>
0.663765

> <r_i_glide_esite>
0

> <r_i_glide_evdw>
-30.4871

> <r_i_glide_gscore>
-4.63093

> <r_i_glide_hbond>
-0.0651455

> <r_i_glide_ligand_efficiency>
-0.201345

> <r_i_glide_ligand_efficiency_ln>
-1.1198

> <r_i_glide_ligand_efficiency_sa>
-0.572598

> <r_i_glide_lipo>
-2.16189

> <r_i_glide_metal>
0

> <r_i_glide_rewards>
-0.882366

> <s_i_glide_gridfile>
wee1_glide-grid

> <s_m_Source_File>
wee1_decoys_glide_SP.sdf

> <s_m_Source_Path>
/Users/zhangxujun/Desktop

> <s_m_entry_id>
4965

> <s_m_entry_name>
wee1_decoys_glide_SP.4690

> <s_m_subgroup_title>
wee1_decoys_glide_SP

> <s_m_subgroupid>
wee1_decoys_glide_SP


$$$$
