ZINC39668752_3072
                    3D
 Schrodinger Suite 2024-2.
 69 73  0  0  1  0            999 V2000
    2.1637   47.8912   18.3868 C   0  0  0  0  0  0
    0.8502   47.8901   19.1776 C   0  0  1  0  0  0
    1.1276   47.7785   20.2287 H   0  0  0  0  0  0
    0.0354   49.1918   18.9503 C   0  0  0  0  0  0
    0.2547   50.1992   19.9945 N   0  0  0  0  0  0
   -0.6054   50.4834   20.9883 C   0  0  0  0  0  0
   -1.7153   49.9576   21.0546 O   0  0  0  0  0  0
   -0.2396   51.5385   22.0679 C   0  0  2  0  0  0
   -0.9230   52.3748   21.9170 H   0  0  0  0  0  0
    1.1858   52.0938   21.8610 C   0  0  0  0  0  0
    1.5799   52.5469   23.1956 N   0  0  0  0  0  0
    0.6505   52.0696   24.2257 C   0  0  0  0  0  0
   -0.2509   51.0221   23.5356 C   0  0  0  0  0  0
    0.3483   49.5825   23.6964 C   0  0  0  0  0  0
    0.4277   49.1265   25.1708 C   0  0  0  0  0  0
   -0.9799   49.2176   25.7961 N   0  3  0  0  0  0
   -1.6544   50.5943   25.6352 C   0  0  0  0  0  0
   -1.6782   50.9411   24.1331 C   0  0  0  0  0  0
    2.7063   53.2968   23.3660 C   0  0  0  0  0  0
    3.4207   53.6240   22.4172 O   0  0  0  0  0  0
    3.1007   53.7199   24.6974 C   0  0  0  0  0  0
    4.2683   54.3430   25.1278 C   0  0  0  0  0  0
    4.1370   54.5622   26.4996 C   0  0  0  0  0  0
    2.8819   54.0966   26.8598 C   0  0  0  0  0  0
    2.2656   53.5882   25.7628 O   0  0  0  0  0  0
    2.0993   54.1028   28.1175 C   0  0  0  0  0  0
    1.3142   52.9994   28.4628 C   0  0  0  0  0  0
    0.5726   53.0171   29.6410 C   0  0  0  0  0  0
    0.6119   54.1400   30.4624 C   0  0  0  0  0  0
    1.3737   55.2518   30.1093 C   0  0  0  0  0  0
    2.1275   55.2315   28.9389 C   0  0  0  0  0  0
   -0.0954   54.1508   31.6130 F   0  0  0  0  0  0
    0.1305   46.7300   18.7443 O   0  0  0  0  0  0
   -0.8641   46.1877   19.5377 C   0  0  0  0  0  0
   -1.3123   46.7278   20.7546 C   0  0  0  0  0  0
   -2.3394   46.1003   21.4616 C   0  0  0  0  0  0
   -2.8878   44.9248   20.9389 C   0  0  0  0  0  0
   -2.4630   44.3661   19.7768 N   0  0  0  0  0  0
   -1.4742   45.0039   19.0978 C   0  0  0  0  0  0
    2.8405   48.6742   18.7297 H   0  0  0  0  0  0
    2.6811   46.9359   18.4787 H   0  0  0  0  0  0
    1.9892   48.0525   17.3203 H   0  0  0  0  0  0
    0.2937   49.6377   17.9887 H   0  0  0  0  0  0
   -1.0263   48.9525   18.8507 H   0  0  0  0  0  0
    1.1139   50.7259   19.9241 H   0  0  0  0  0  0
    1.8861   51.2949   21.6086 H   0  0  0  0  0  0
    1.2080   52.8912   21.1145 H   0  0  0  0  0  0
    0.0241   52.9206   24.5037 H   0  0  0  0  0  0
    1.1057   51.6854   25.1371 H   0  0  0  0  0  0
   -0.2156   48.8475   23.1212 H   0  0  0  0  0  0
    1.3602   49.5541   23.2850 H   0  0  0  0  0  0
    0.7140   48.0833   25.2593 H   0  0  0  0  0  0
    1.0980   49.7149   25.7956 H   0  0  0  0  0  0
   -1.5695   48.5207   25.3698 H   0  0  0  0  0  0
   -2.6540   50.4892   26.0581 H   0  0  0  0  0  0
   -1.0865   51.3028   26.2392 H   0  0  0  0  0  0
   -2.1625   51.9135   24.0246 H   0  0  0  0  0  0
   -2.3071   50.2431   23.5767 H   0  0  0  0  0  0
    5.1162   54.6038   24.5101 H   0  0  0  0  0  0
    4.8642   55.0250   27.1487 H   0  0  0  0  0  0
    1.2859   52.1265   27.8265 H   0  0  0  0  0  0
   -0.0315   52.1648   29.9231 H   0  0  0  0  0  0
    1.3884   56.1199   30.7544 H   0  0  0  0  0  0
    2.7123   56.0968   28.6690 H   0  0  0  0  0  0
   -0.8881   47.6335   21.1599 H   0  0  0  0  0  0
   -2.7036   46.5263   22.3870 H   0  0  0  0  0  0
   -3.6935   44.4193   21.4487 H   0  0  0  0  0  0
   -1.1574   44.5503   18.1691 H   0  0  0  0  0  0
   -0.9538   48.9509   26.7822 H   0  0  0  0  0  0
  1  2  1  0  0  0
  1 40  1  0  0  0
  1 41  1  0  0  0
  1 42  1  0  0  0
  2  3  1  0  0  0
  2  4  1  0  0  0
  2 33  1  0  0  0
  4  5  1  0  0  0
  4 43  1  0  0  0
  4 44  1  0  0  0
  5  6  1  0  0  0
  5 45  1  0  0  0
  6  7  2  0  0  0
  6  8  1  0  0  0
  8  9  1  0  0  0
  8 13  1  0  0  0
  8 10  1  0  0  0
 10 11  1  0  0  0
 10 46  1  0  0  0
 10 47  1  0  0  0
 11 12  1  0  0  0
 11 19  1  0  0  0
 12 13  1  0  0  0
 12 48  1  0  0  0
 12 49  1  0  0  0
 13 18  1  0  0  0
 13 14  1  0  0  0
 14 15  1  0  0  0
 14 50  1  0  0  0
 14 51  1  0  0  0
 15 16  1  0  0  0
 15 52  1  0  0  0
 15 53  1  0  0  0
 16 17  1  0  0  0
 16 54  1  0  0  0
 16 69  1  0  0  0
 17 18  1  0  0  0
 17 55  1  0  0  0
 17 56  1  0  0  0
 18 57  1  0  0  0
 18 58  1  0  0  0
 19 20  2  0  0  0
 19 21  1  0  0  0
 21 25  1  0  0  0
 21 22  2  0  0  0
 22 23  1  0  0  0
 22 59  1  0  0  0
 23 24  2  0  0  0
 23 60  1  0  0  0
 24 25  1  0  0  0
 24 26  1  0  0  0
 26 31  2  0  0  0
 26 27  1  0  0  0
 27 28  2  0  0  0
 27 61  1  0  0  0
 28 29  1  0  0  0
 28 62  1  0  0  0
 29 30  2  0  0  0
 29 32  1  0  0  0
 30 31  1  0  0  0
 30 63  1  0  0  0
 31 64  1  0  0  0
 33 34  1  0  0  0
 34 39  2  0  0  0
 34 35  1  0  0  0
 35 36  2  0  0  0
 35 65  1  0  0  0
 36 37  1  0  0  0
 36 66  1  0  0  0
 37 38  2  0  0  0
 37 67  1  0  0  0
 38 39  1  0  0  0
 39 68  1  0  0  0
M  CHG  1  16   1
M  END
> <i_i_glide_confnum>
66

> <i_i_glide_lignum>
3073

> <i_i_glide_posenum>
362

> <i_i_glide_rotatable_bonds>
9

> <i_m_Source_File_Index>
5814

> <b_m_subgroup_collapsed>
0

> <r_i_docking_score>
-5.2988

> <r_i_glide_ecoul>
-4.18051

> <r_i_glide_eff_state_penalty>
0

> <r_i_glide_einternal>
18.4793

> <r_i_glide_emodel>
-52.0631

> <r_i_glide_energy>
-44.1104

> <r_i_glide_erotb>
0.635556

> <r_i_glide_esite>
-0.134432

> <r_i_glide_evdw>
-39.9299

> <r_i_glide_gscore>
-5.2988

> <r_i_glide_hbond>
-0.2

> <r_i_glide_ligand_efficiency>
-0.143211

> <r_i_glide_ligand_efficiency_ln>
-1.14918

> <r_i_glide_ligand_efficiency_sa>
-0.47721

> <r_i_glide_lipo>
-2.53506

> <r_i_glide_metal>
0

> <r_i_glide_rewards>
-0.441294

> <s_i_glide_gridfile>
wee1_glide-grid

> <s_m_Source_File>
wee1_decoys_glide_SP.sdf

> <s_m_Source_Path>
/Users/zhangxujun/Desktop

> <s_m_entry_id>
6089

> <s_m_entry_name>
wee1_decoys_glide_SP.5814

> <s_m_subgroup_title>
wee1_decoys_glide_SP

> <s_m_subgroupid>
wee1_decoys_glide_SP


$$$$
