ZINC49066665_5263
                    3D
 Schrodinger Suite 2024-2.
 68 72  0  0  1  0            999 V2000
   -3.3719   52.6129   25.0191 C   0  0  0  0  0  0
   -1.8838   52.1952   24.9705 C   0  0  2  0  0  0
   -1.3665   52.8761   25.6518 H   0  0  0  0  0  0
   -1.2803   52.4917   23.5820 C   0  0  0  0  0  0
    0.1687   52.2211   23.6470 N   0  0  0  0  0  0
    0.5111   50.8070   23.8603 C   0  0  0  0  0  0
   -0.0771   50.3678   25.2306 C   0  0  1  0  0  0
    0.4956   50.9503   25.9568 H   0  0  0  0  0  0
   -1.5941   50.7370   25.4688 C   0  0  2  0  0  0
   -2.6207   49.7111   24.8903 C   0  0  0  0  0  0
   -3.7028   49.2544   25.6718 C   0  0  0  0  0  0
   -4.6333   48.3551   25.1589 C   0  0  0  0  0  0
   -4.4982   47.8946   23.8520 C   0  0  0  0  0  0
   -3.4437   48.3342   23.0560 C   0  0  0  0  0  0
   -2.5203   49.2406   23.5695 C   0  0  0  0  0  0
   -1.7351   50.8077   26.8803 O   0  0  0  0  0  0
    0.2681   48.8967   25.5200 C   0  0  0  0  0  0
    1.0619   53.2483   23.7350 C   0  0  0  0  0  0
    0.7046   54.4174   23.6818 O   0  0  0  0  0  0
    2.5834   52.9777   23.7765 C   0  0  1  0  0  0
    2.7041   52.1105   24.4153 H   0  0  0  0  0  0
    3.1053   52.7418   22.3445 C   0  0  0  0  0  0
    4.2407   53.6655   22.1813 N   0  0  0  0  0  0
    4.6968   54.0971   23.5126 C   0  0  0  0  0  0
    3.4391   54.1146   24.3909 C   0  0  2  0  0  0
    2.9644   55.0834   24.2194 H   0  0  0  0  0  0
    3.6534   54.0892   25.9232 C   0  0  0  0  0  0
    2.5932   53.6955   26.7564 C   0  0  0  0  0  0
    2.7285   53.6870   28.1428 C   0  0  0  0  0  0
    3.9261   54.0841   28.7278 C   0  0  0  0  0  0
    4.9902   54.4863   27.9244 C   0  0  0  0  0  0
    4.8581   54.4976   26.5337 C   0  0  0  0  0  0
    5.9114   54.9310   25.8028 F   0  0  0  0  0  0
    4.0438   54.0914   30.0744 F   0  0  0  0  0  0
    4.9086   53.9118   20.9406 C   0  0  0  0  0  0
    5.9515   54.8437   20.8137 C   0  0  0  0  0  0
    6.5889   55.0056   19.5790 C   0  0  0  0  0  0
    6.1870   54.2347   18.4856 C   0  0  0  0  0  0
    5.1423   53.3224   18.6412 C   0  0  0  0  0  0
    4.5445   53.2097   19.8428 N   0  3  0  0  0  0
   -3.9768   52.0471   24.3094 H   0  0  0  0  0  0
   -3.7918   52.4530   26.0125 H   0  0  0  0  0  0
   -3.4936   53.6703   24.7821 H   0  0  0  0  0  0
   -1.4991   53.5110   23.2649 H   0  0  0  0  0  0
   -1.7311   51.8621   22.8141 H   0  0  0  0  0  0
    0.0810   50.2410   23.0402 H   0  0  0  0  0  0
    1.5696   50.5799   23.7465 H   0  0  0  0  0  0
   -3.8436   49.5969   26.6884 H   0  0  0  0  0  0
   -5.4594   48.0198   25.7729 H   0  0  0  0  0  0
   -5.2226   47.1992   23.4541 H   0  0  0  0  0  0
   -3.3472   47.9801   22.0380 H   0  0  0  0  0  0
   -1.7386   49.5699   22.9113 H   0  0  0  0  0  0
   -1.6189   49.9166   27.2523 H   0  0  0  0  0  0
   -0.1319   48.2245   24.7618 H   0  0  0  0  0  0
    1.3449   48.7467   25.5537 H   0  0  0  0  0  0
   -0.1218   48.5684   26.4825 H   0  0  0  0  0  0
    2.3688   53.0077   21.5813 H   0  0  0  0  0  0
    3.4339   51.7174   22.1658 H   0  0  0  0  0  0
    5.1576   55.0809   23.4764 H   0  0  0  0  0  0
    5.4423   53.3775   23.8531 H   0  0  0  0  0  0
    1.6400   53.3985   26.3471 H   0  0  0  0  0  0
    1.9008   53.3835   28.7663 H   0  0  0  0  0  0
    5.9162   54.8092   28.3801 H   0  0  0  0  0  0
    6.2838   55.4332   21.6537 H   0  0  0  0  0  0
    7.3992   55.7131   19.4729 H   0  0  0  0  0  0
    6.6845   54.3365   17.5316 H   0  0  0  0  0  0
    4.7806   52.6595   17.8636 H   0  0  0  0  0  0
    3.8005   52.5338   19.9363 H   0  0  0  0  0  0
  1  2  1  0  0  0
  1 41  1  0  0  0
  1 42  1  0  0  0
  1 43  1  0  0  0
  2  3  1  0  0  0
  2  9  1  0  0  0
  2  4  1  0  0  0
  4  5  1  0  0  0
  4 44  1  0  0  0
  4 45  1  0  0  0
  5  6  1  0  0  0
  5 18  1  0  0  0
  6  7  1  0  0  0
  6 46  1  0  0  0
  6 47  1  0  0  0
  7  8  1  0  0  0
  7  9  1  0  0  0
  7 17  1  0  0  0
  9 10  1  0  0  0
  9 16  1  0  0  0
 10 15  2  0  0  0
 10 11  1  0  0  0
 11 12  2  0  0  0
 11 48  1  0  0  0
 12 13  1  0  0  0
 12 49  1  0  0  0
 13 14  2  0  0  0
 13 50  1  0  0  0
 14 15  1  0  0  0
 14 51  1  0  0  0
 15 52  1  0  0  0
 16 53  1  0  0  0
 17 54  1  0  0  0
 17 55  1  0  0  0
 17 56  1  0  0  0
 18 19  2  0  0  0
 18 20  1  0  0  0
 20 21  1  0  0  0
 20 25  1  0  0  0
 20 22  1  0  0  0
 22 23  1  0  0  0
 22 57  1  0  0  0
 22 58  1  0  0  0
 23 24  1  0  0  0
 23 35  1  0  0  0
 24 25  1  0  0  0
 24 59  1  0  0  0
 24 60  1  0  0  0
 25 26  1  0  0  0
 25 27  1  0  0  0
 27 32  2  0  0  0
 27 28  1  0  0  0
 28 29  2  0  0  0
 28 61  1  0  0  0
 29 30  1  0  0  0
 29 62  1  0  0  0
 30 31  2  0  0  0
 30 34  1  0  0  0
 31 32  1  0  0  0
 31 63  1  0  0  0
 32 33  1  0  0  0
 35 40  2  0  0  0
 35 36  1  0  0  0
 36 37  2  0  0  0
 36 64  1  0  0  0
 37 38  1  0  0  0
 37 65  1  0  0  0
 38 39  2  0  0  0
 38 66  1  0  0  0
 39 40  1  0  0  0
 39 67  1  0  0  0
 40 68  1  0  0  0
M  CHG  1  40   1
M  END
> <i_i_glide_confnum>
100

> <i_i_glide_lignum>
5264

> <i_i_glide_posenum>
101

> <i_i_glide_rotatable_bonds>
6

> <i_m_Source_File_Index>
5791

> <b_m_subgroup_collapsed>
0

> <r_i_docking_score>
-6.59576

> <r_i_glide_ecoul>
-6.74292

> <r_i_glide_eff_state_penalty>
0

> <r_i_glide_einternal>
9.84197

> <r_i_glide_emodel>
-61.5028

> <r_i_glide_energy>
-45.3039

> <r_i_glide_erotb>
0.419674

> <r_i_glide_esite>
-0.0711451

> <r_i_glide_evdw>
-38.561

> <r_i_glide_gscore>
-6.59576

> <r_i_glide_hbond>
-0.16

> <r_i_glide_ligand_efficiency>
-0.183216

> <r_i_glide_ligand_efficiency_ln>
-1.43902

> <r_i_glide_ligand_efficiency_sa>
-0.604964

> <r_i_glide_lipo>
-2.65907

> <r_i_glide_metal>
0

> <r_i_glide_rewards>
-1.18573

> <s_i_glide_gridfile>
wee1_glide-grid

> <s_m_Source_File>
wee1_decoys_glide_SP.sdf

> <s_m_Source_Path>
/Users/zhangxujun/Desktop

> <s_m_entry_id>
6066

> <s_m_entry_name>
wee1_decoys_glide_SP.5791

> <s_m_subgroup_title>
wee1_decoys_glide_SP

> <s_m_subgroupid>
wee1_decoys_glide_SP


$$$$
