ZINC59015564_3751
                    3D
 Schrodinger Suite 2024-2.
 44 46  0  0  1  0            999 V2000
    6.6274   54.8399   23.7613 C   0  0  0  0  0  0
    6.7131   54.8969   22.3728 C   0  0  0  0  0  0
    5.6151   54.5413   21.5930 C   0  0  0  0  0  0
    4.4272   54.1335   22.1902 C   0  0  0  0  0  0
    4.3364   54.0957   23.5783 C   0  0  0  0  0  0
    5.4341   54.4392   24.3783 C   0  0  0  0  0  0
    5.2949   54.3522   25.8336 C   0  0  0  0  0  0
    6.2079   54.6420   26.6790 N   0  0  0  0  0  0
    5.9677   54.4970   28.0751 N   0  0  0  0  0  0
    4.8036   54.0818   28.6888 C   0  0  0  0  0  0
    3.8135   54.8254   29.1026 N   0  0  0  0  0  0
    2.9285   53.9283   29.5201 C   0  0  0  0  0  0
    3.3094   52.6633   29.4474 N   0  0  0  0  0  0
    4.5141   52.7698   28.8915 N   0  0  0  0  0  0
    1.3307   54.4450   30.0816 S   0  0  0  0  0  0
    0.5000   52.8429   30.4023 C   0  0  0  0  0  0
   -0.1495   52.2187   29.1623 C   0  0  0  0  0  0
   -1.2554   51.6967   29.2751 O   0  0  0  0  0  0
    0.5406   52.3304   28.0077 N   0  0  0  0  0  0
    0.2144   51.8870   26.7190 C   0  0  0  0  0  0
   -0.7391   50.8966   26.4489 C   0  0  0  0  0  0
   -0.9860   50.5100   25.1345 C   0  0  0  0  0  0
   -0.2882   51.1096   24.0797 C   0  0  0  0  0  0
    0.6702   52.0898   24.3550 C   0  0  0  0  0  0
    0.9253   52.4727   25.6688 C   0  0  0  0  0  0
   -0.5463   50.7002   22.6304 C   0  0  0  0  0  0
   -1.3048   49.6061   22.5366 F   0  0  0  0  0  0
    0.6094   50.4570   22.0098 F   0  0  0  0  0  0
   -1.1671   51.6990   21.9997 F   0  0  0  0  0  0
    5.7449   54.6133   19.6966 Br  0  0  0  0  0  0
    7.4993   55.1054   24.3446 H   0  0  0  0  0  0
    7.6364   55.2080   21.9033 H   0  0  0  0  0  0
    3.5774   53.8619   21.5782 H   0  0  0  0  0  0
    3.4023   53.7821   24.0225 H   0  0  0  0  0  0
    4.3173   54.0023   26.1576 H   0  0  0  0  0  0
    6.7357   54.8431   28.6434 H   0  0  0  0  0  0
   -0.2835   53.0208   31.1408 H   0  0  0  0  0  0
    1.1752   52.1255   30.8678 H   0  0  0  0  0  0
    1.3895   52.8728   28.0670 H   0  0  0  0  0  0
   -1.2817   50.4006   27.2404 H   0  0  0  0  0  0
   -1.7205   49.7394   24.9511 H   0  0  0  0  0  0
    1.2203   52.5543   23.5489 H   0  0  0  0  0  0
    1.6698   53.2304   25.8645 H   0  0  0  0  0  0
    5.0987   51.9846   28.6400 H   0  0  0  0  0  0
  1  6  2  0  0  0
  1  2  1  0  0  0
  1 31  1  0  0  0
  2  3  2  0  0  0
  2 32  1  0  0  0
  3  4  1  0  0  0
  3 30  1  0  0  0
  4  5  2  0  0  0
  4 33  1  0  0  0
  5  6  1  0  0  0
  5 34  1  0  0  0
  6  7  1  0  0  0
  7  8  2  0  0  0
  7 35  1  0  0  0
  8  9  1  0  0  0
  9 10  1  0  0  0
  9 36  1  0  0  0
 10 14  1  0  0  0
 10 11  2  0  0  0
 11 12  1  0  0  0
 12 13  2  0  0  0
 12 15  1  0  0  0
 13 14  1  0  0  0
 14 44  1  0  0  0
 15 16  1  0  0  0
 16 17  1  0  0  0
 16 37  1  0  0  0
 16 38  1  0  0  0
 17 18  2  0  0  0
 17 19  1  0  0  0
 19 20  1  0  0  0
 19 39  1  0  0  0
 20 25  2  0  0  0
 20 21  1  0  0  0
 21 22  2  0  0  0
 21 40  1  0  0  0
 22 23  1  0  0  0
 22 41  1  0  0  0
 23 24  2  0  0  0
 23 26  1  0  0  0
 24 25  1  0  0  0
 24 42  1  0  0  0
 25 43  1  0  0  0
 26 27  1  0  0  0
 26 28  1  0  0  0
 26 29  1  0  0  0
M  END
> <i_i_glide_confnum>
40

> <i_i_glide_lignum>
3752

> <i_i_glide_posenum>
285

> <i_i_glide_rotatable_bonds>
9

> <i_m_Source_File_Index>
5534

> <b_m_subgroup_collapsed>
0

> <r_i_docking_score>
-6.52389

> <r_i_glide_ecoul>
-5.42335

> <r_i_glide_eff_state_penalty>
0

> <r_i_glide_einternal>
6.31761

> <r_i_glide_emodel>
-75.3012

> <r_i_glide_energy>
-54.8521

> <r_i_glide_erotb>
0.573119

> <r_i_glide_esite>
-0.00801498

> <r_i_glide_evdw>
-49.4288

> <r_i_glide_gscore>
-6.52389

> <r_i_glide_hbond>
-0.32

> <r_i_glide_ligand_efficiency>
-0.217463

> <r_i_glide_ligand_efficiency_ln>
-1.4823

> <r_i_glide_ligand_efficiency_sa>
-0.675708

> <r_i_glide_lipo>
-1.84827

> <r_i_glide_metal>
0

> <r_i_glide_rewards>
-1.63577

> <s_i_glide_gridfile>
wee1_glide-grid

> <s_m_Source_File>
wee1_decoys_glide_SP.sdf

> <s_m_Source_Path>
/Users/zhangxujun/Desktop

> <s_m_entry_id>
5809

> <s_m_entry_name>
wee1_decoys_glide_SP.5534

> <s_m_subgroup_title>
wee1_decoys_glide_SP

> <s_m_subgroupid>
wee1_decoys_glide_SP


$$$$
