ZINC39633445_779
                    3D
 Schrodinger Suite 2024-2.
 66 69  0  0  1  0            999 V2000
    5.3217   53.6991   27.2040 C   0  0  0  0  0  0
    4.7984   53.4301   28.4658 C   0  0  0  0  0  0
    3.4244   53.4778   28.6902 C   0  0  0  0  0  0
    2.5788   53.8324   27.6319 C   0  0  0  0  0  0
    3.1031   54.0979   26.3705 C   0  0  0  0  0  0
    4.4785   54.0095   26.1223 C   0  0  0  0  0  0
    5.1007   54.2588   24.7548 C   0  0  0  0  0  0
    6.2446   54.7195   24.7177 O   0  0  0  0  0  0
    4.4402   53.9278   23.6053 N   0  0  0  0  0  0
    5.0624   54.0967   22.2893 C   0  0  0  0  0  0
    3.8805   53.9373   21.3123 C   0  0  2  0  0  0
    3.3683   54.8962   21.2765 H   0  0  0  0  0  0
    2.9899   52.8515   21.9867 C   0  0  0  0  0  0
    3.1212   53.2965   23.4684 C   0  0  0  0  0  0
    3.4754   51.3906   21.6817 C   0  0  0  0  0  0
    2.6665   50.3003   22.4290 C   0  0  0  0  0  0
    1.1763   50.4428   22.0704 N   0  3  0  0  0  0
    0.6310   51.8669   22.3070 C   0  0  0  0  0  0
    1.5164   52.8514   21.5185 C   0  0  0  0  0  0
    4.4051   53.5948   19.8934 C   0  0  0  0  0  0
    5.5588   53.2247   19.6960 O   0  0  0  0  0  0
    3.5041   53.7002   18.9099 N   0  0  0  0  0  0
    3.6863   53.3236   17.5034 C   0  0  0  0  0  0
    2.7542   52.1410   17.1487 C   0  0  0  0  0  0
    1.2899   52.4989   16.8232 C   0  0  0  0  0  0
    1.0590   52.8929   15.3516 C   0  0  0  0  0  0
    1.6910   54.2224   14.8974 C   0  0  0  0  0  0
    3.2101   54.3695   15.1277 C   0  0  0  0  0  0
    3.5979   54.5826   16.6048 C   0  0  0  0  0  0
    2.9910   53.1766   29.9678 O   0  0  0  0  0  0
    1.6094   52.8995   30.2078 C   0  0  0  0  0  0
    1.5049   52.4813   31.4660 F   0  0  0  0  0  0
    0.8594   53.9977   30.0820 F   0  0  0  0  0  0
    1.1554   51.9225   29.4195 F   0  0  0  0  0  0
    6.3916   53.6327   27.0667 H   0  0  0  0  0  0
    5.4637   53.1666   29.2730 H   0  0  0  0  0  0
    1.5116   53.9145   27.7668 H   0  0  0  0  0  0
    2.4061   54.4075   25.6127 H   0  0  0  0  0  0
    5.7768   53.2758   22.1783 H   0  0  0  0  0  0
    5.5807   55.0482   22.1599 H   0  0  0  0  0  0
    2.3849   54.0888   23.5953 H   0  0  0  0  0  0
    2.8916   52.4970   24.1701 H   0  0  0  0  0  0
    3.4615   51.1761   20.6121 H   0  0  0  0  0  0
    4.5247   51.2972   21.9653 H   0  0  0  0  0  0
    2.9588   49.2898   22.1357 H   0  0  0  0  0  0
    2.7042   50.3719   23.5152 H   0  0  0  0  0  0
    1.0554   50.2036   21.0951 H   0  0  0  0  0  0
   -0.4007   51.8611   21.9510 H   0  0  0  0  0  0
    0.6376   52.0407   23.3854 H   0  0  0  0  0  0
    1.1048   53.8389   21.6841 H   0  0  0  0  0  0
    1.4357   52.6806   20.4438 H   0  0  0  0  0  0
    2.6079   54.1098   19.1412 H   0  0  0  0  0  0
    4.6958   52.9214   17.3774 H   0  0  0  0  0  0
    2.7831   51.4105   17.9601 H   0  0  0  0  0  0
    3.1763   51.6003   16.2989 H   0  0  0  0  0  0
    0.9279   53.2824   17.4911 H   0  0  0  0  0  0
    0.6725   51.6242   17.0320 H   0  0  0  0  0  0
   -0.0146   52.9450   15.1692 H   0  0  0  0  0  0
    1.4222   52.0908   14.7065 H   0  0  0  0  0  0
    1.1719   55.0516   15.3841 H   0  0  0  0  0  0
    1.4920   54.3448   13.8310 H   0  0  0  0  0  0
    3.5503   55.2391   14.5615 H   0  0  0  0  0  0
    3.7484   53.5182   14.7072 H   0  0  0  0  0  0
    4.5777   55.0640   16.6299 H   0  0  0  0  0  0
    2.9332   55.3267   17.0499 H   0  0  0  0  0  0
    0.6349   49.7743   22.6025 H   0  0  0  0  0  0
  1  6  2  0  0  0
  1  2  1  0  0  0
  1 35  1  0  0  0
  2  3  2  0  0  0
  2 36  1  0  0  0
  3  4  1  0  0  0
  3 30  1  0  0  0
  4  5  2  0  0  0
  4 37  1  0  0  0
  5  6  1  0  0  0
  5 38  1  0  0  0
  6  7  1  0  0  0
  7  8  2  0  0  0
  7  9  1  0  0  0
  9 14  1  0  0  0
  9 10  1  0  0  0
 10 11  1  0  0  0
 10 39  1  0  0  0
 10 40  1  0  0  0
 11 12  1  0  0  0
 11 13  1  0  0  0
 11 20  1  0  0  0
 13 19  1  0  0  0
 13 14  1  0  0  0
 13 15  1  0  0  0
 14 41  1  0  0  0
 14 42  1  0  0  0
 15 16  1  0  0  0
 15 43  1  0  0  0
 15 44  1  0  0  0
 16 17  1  0  0  0
 16 45  1  0  0  0
 16 46  1  0  0  0
 17 18  1  0  0  0
 17 47  1  0  0  0
 17 66  1  0  0  0
 18 19  1  0  0  0
 18 48  1  0  0  0
 18 49  1  0  0  0
 19 50  1  0  0  0
 19 51  1  0  0  0
 20 21  2  0  0  0
 20 22  1  0  0  0
 22 23  1  0  0  0
 22 52  1  0  0  0
 23 29  1  0  0  0
 23 24  1  0  0  0
 23 53  1  0  0  0
 24 25  1  0  0  0
 24 54  1  0  0  0
 24 55  1  0  0  0
 25 26  1  0  0  0
 25 56  1  0  0  0
 25 57  1  0  0  0
 26 27  1  0  0  0
 26 58  1  0  0  0
 26 59  1  0  0  0
 27 28  1  0  0  0
 27 60  1  0  0  0
 27 61  1  0  0  0
 28 29  1  0  0  0
 28 62  1  0  0  0
 28 63  1  0  0  0
 29 64  1  0  0  0
 29 65  1  0  0  0
 30 31  1  0  0  0
 31 32  1  0  0  0
 31 33  1  0  0  0
 31 34  1  0  0  0
M  CHG  1  17   1
M  END
> <i_i_glide_confnum>
2329

> <i_i_glide_lignum>
780

> <i_i_glide_posenum>
329

> <i_i_glide_rotatable_bonds>
7

> <i_m_Source_File_Index>
5380

> <b_m_subgroup_collapsed>
0

> <r_i_docking_score>
-5.80682

> <r_i_glide_ecoul>
-4.37301

> <r_i_glide_eff_state_penalty>
0

> <r_i_glide_einternal>
1.41364

> <r_i_glide_emodel>
-54.4699

> <r_i_glide_energy>
-40.0952

> <r_i_glide_erotb>
0.551852

> <r_i_glide_esite>
-0.0914998

> <r_i_glide_evdw>
-35.7222

> <r_i_glide_gscore>
-5.80682

> <r_i_glide_hbond>
-0.46818

> <r_i_glide_ligand_efficiency>
-0.175964

> <r_i_glide_ligand_efficiency_ln>
-1.29141

> <r_i_glide_ligand_efficiency_sa>
-0.564411

> <r_i_glide_lipo>
-2.0479

> <r_i_glide_metal>
0

> <r_i_glide_rewards>
-1.30903

> <s_i_glide_gridfile>
wee1_glide-grid

> <s_m_Source_File>
wee1_decoys_glide_SP.sdf

> <s_m_Source_Path>
/Users/zhangxujun/Desktop

> <s_m_entry_id>
5655

> <s_m_entry_name>
wee1_decoys_glide_SP.5380

> <s_m_subgroup_title>
wee1_decoys_glide_SP

> <s_m_subgroupid>
wee1_decoys_glide_SP


$$$$
