ZINC09298121_4314
                    3D
 Schrodinger Suite 2024-2.
 59 62  0  0  1  0            999 V2000
    6.0014   53.9839   28.5961 C   0  0  0  0  0  0
    5.4981   53.7955   27.1587 C   0  0  1  0  0  0
    5.6357   52.7416   26.9136 H   0  0  0  0  0  0
    4.0166   54.1876   27.0319 C   0  0  0  0  0  0
    3.4204   53.7930   25.6658 C   0  0  0  0  0  0
    4.4024   54.0969   24.5159 C   0  0  0  0  0  0
    5.7185   54.5144   24.7951 C   0  0  0  0  0  0
    6.6113   54.8960   23.3725 S   0  0  0  0  0  0
    5.2753   54.4075   22.3643 C   0  0  0  0  0  0
    4.1707   53.9377   23.1110 C   0  0  0  0  0  0
    2.9998   53.3063   22.4825 C   0  0  0  0  0  0
    3.0573   52.8969   21.3189 O   0  0  0  0  0  0
    1.9061   53.2100   23.2683 N   0  0  0  0  0  0
    0.7151   52.6501   22.9840 C   0  0  0  0  0  0
    0.3890   52.0968   21.9309 O   0  0  0  0  0  0
   -0.0608   52.8416   24.1035 O   0  0  0  0  0  0
   -1.3902   52.3431   24.0349 C   0  0  0  0  0  0
    5.3599   54.4484   20.9763 N   0  0  0  0  0  0
    6.1479   55.2225   20.1992 C   0  0  0  0  0  0
    6.8947   56.1093   20.6241 O   0  0  0  0  0  0
    6.0245   54.9598   18.6771 C   0  0  0  0  0  0
    7.3016   54.3551   18.0585 C   0  0  0  0  0  0
    8.5709   54.9219   18.2551 C   0  0  0  0  0  0
    9.6995   54.3428   17.6816 C   0  0  0  0  0  0
    9.5684   53.1923   16.9091 C   0  0  0  0  0  0
    8.3183   52.6132   16.7097 C   0  0  0  0  0  0
    7.1897   53.1940   17.2816 C   0  0  0  0  0  0
    5.4697   56.1884   17.9407 C   0  0  0  0  0  0
    4.1321   56.1914   17.5225 C   0  0  0  0  0  0
    3.6058   57.2982   16.8609 C   0  0  0  0  0  0
    4.4126   58.4074   16.6220 C   0  0  0  0  0  0
    5.7379   58.4224   17.0462 C   0  0  0  0  0  0
    6.2646   57.3182   17.7081 C   0  0  0  0  0  0
    6.3268   54.6542   26.1840 C   0  0  0  0  0  0
    5.9032   55.0179   28.9267 H   0  0  0  0  0  0
    5.4278   53.3610   29.2815 H   0  0  0  0  0  0
    7.0509   53.7012   28.6931 H   0  0  0  0  0  0
    3.4402   53.6939   27.8155 H   0  0  0  0  0  0
    3.8875   55.2495   27.2397 H   0  0  0  0  0  0
    2.4911   54.3517   25.5473 H   0  0  0  0  0  0
    3.1550   52.7358   25.6768 H   0  0  0  0  0  0
    1.9820   53.5963   24.1929 H   0  0  0  0  0  0
   -1.9053   52.5498   24.9721 H   0  0  0  0  0  0
   -1.9515   52.8201   23.2328 H   0  0  0  0  0  0
   -1.4057   51.2643   23.8773 H   0  0  0  0  0  0
    4.6296   53.9249   20.5090 H   0  0  0  0  0  0
    5.2625   54.1853   18.5615 H   0  0  0  0  0  0
    8.6978   55.8078   18.8583 H   0  0  0  0  0  0
   10.6738   54.7807   17.8459 H   0  0  0  0  0  0
   10.4463   52.7403   16.4713 H   0  0  0  0  0  0
    8.2228   51.7136   16.1188 H   0  0  0  0  0  0
    6.2279   52.7240   17.1230 H   0  0  0  0  0  0
    3.4933   55.3397   17.7085 H   0  0  0  0  0  0
    2.5730   57.3044   16.5426 H   0  0  0  0  0  0
    4.0062   59.2773   16.1240 H   0  0  0  0  0  0
    6.3492   59.2964   16.8752 H   0  0  0  0  0  0
    7.2897   57.3541   18.0428 H   0  0  0  0  0  0
    7.3690   54.3364   26.1920 H   0  0  0  0  0  0
    6.3089   55.6979   26.4940 H   0  0  0  0  0  0
  1  2  1  0  0  0
  1 35  1  0  0  0
  1 36  1  0  0  0
  1 37  1  0  0  0
  2  3  1  0  0  0
  2 34  1  0  0  0
  2  4  1  0  0  0
  4  5  1  0  0  0
  4 38  1  0  0  0
  4 39  1  0  0  0
  5  6  1  0  0  0
  5 40  1  0  0  0
  5 41  1  0  0  0
  6 10  1  0  0  0
  6  7  2  0  0  0
  7  8  1  0  0  0
  7 34  1  0  0  0
  8  9  1  0  0  0
  9 10  2  0  0  0
  9 18  1  0  0  0
 10 11  1  0  0  0
 11 12  2  0  0  0
 11 13  1  0  0  0
 13 14  1  0  0  0
 13 42  1  0  0  0
 14 15  2  0  0  0
 14 16  1  0  0  0
 16 17  1  0  0  0
 17 43  1  0  0  0
 17 44  1  0  0  0
 17 45  1  0  0  0
 18 19  1  0  0  0
 18 46  1  0  0  0
 19 20  2  0  0  0
 19 21  1  0  0  0
 21 22  1  0  0  0
 21 28  1  0  0  0
 21 47  1  0  0  0
 22 27  2  0  0  0
 22 23  1  0  0  0
 23 24  2  0  0  0
 23 48  1  0  0  0
 24 25  1  0  0  0
 24 49  1  0  0  0
 25 26  2  0  0  0
 25 50  1  0  0  0
 26 27  1  0  0  0
 26 51  1  0  0  0
 27 52  1  0  0  0
 28 33  2  0  0  0
 28 29  1  0  0  0
 29 30  2  0  0  0
 29 53  1  0  0  0
 30 31  1  0  0  0
 30 54  1  0  0  0
 31 32  2  0  0  0
 31 55  1  0  0  0
 32 33  1  0  0  0
 32 56  1  0  0  0
 33 57  1  0  0  0
 34 58  1  0  0  0
 34 59  1  0  0  0
M  END
> <i_i_glide_confnum>
279

> <i_i_glide_lignum>
4315

> <i_i_glide_posenum>
337

> <i_i_glide_rotatable_bonds>
9

> <i_m_Source_File_Index>
2298

> <b_m_subgroup_collapsed>
0

> <r_i_docking_score>
-5.8524

> <r_i_glide_ecoul>
-2.64381

> <r_i_glide_eff_state_penalty>
0

> <r_i_glide_einternal>
10.0023

> <r_i_glide_emodel>
-62.9309

> <r_i_glide_energy>
-48.6358

> <r_i_glide_erotb>
0.75321

> <r_i_glide_esite>
0

> <r_i_glide_evdw>
-45.992

> <r_i_glide_gscore>
-5.8524

> <r_i_glide_hbond>
-0.0113731

> <r_i_glide_ligand_efficiency>
-0.177345

> <r_i_glide_ligand_efficiency_ln>
-1.30154

> <r_i_glide_ligand_efficiency_sa>
-0.568841

> <r_i_glide_lipo>
-3.12836

> <r_i_glide_metal>
0

> <r_i_glide_rewards>
-0.769709

> <s_i_glide_gridfile>
wee1_glide-grid

> <s_m_Source_File>
wee1_decoys_glide_SP.sdf

> <s_m_Source_Path>
/Users/zhangxujun/Desktop

> <s_m_entry_id>
2573

> <s_m_entry_name>
wee1_decoys_glide_SP.2298

> <s_m_subgroup_title>
wee1_decoys_glide_SP

> <s_m_subgroupid>
wee1_decoys_glide_SP


$$$$
