ZINC08817835_2082
                    3D
 Schrodinger Suite 2024-2.
 79 83  0  0  1  0            999 V2000
    0.6309   52.9869   31.5988 C   0  0  0  0  0  0
    0.7382   53.6609   30.2395 C   0  0  0  0  0  0
   -0.2612   54.0963   29.6852 O   0  0  0  0  0  0
    2.1406   53.7906   29.6209 C   0  0  2  0  0  0
    2.8017   53.8709   30.4811 H   0  0  0  0  0  0
    2.3183   55.0738   28.7697 C   0  0  0  0  0  0
    3.1848   54.6365   27.5879 C   0  0  0  0  0  0
    2.7365   53.1950   27.2893 C   0  0  1  0  0  0
    3.5390   52.6861   26.7561 H   0  0  0  0  0  0
    2.5934   52.5817   28.7211 C   0  0  2  0  0  0
    1.7116   51.2902   28.6868 C   0  0  0  0  0  0
    0.4430   51.3470   27.8214 C   0  0  0  0  0  0
    0.7598   51.7347   26.3663 C   0  0  2  0  0  0
    1.5006   51.0642   25.9757 H   0  0  0  0  0  0
    1.4527   53.1182   26.3808 C   0  0  2  0  0  0
    0.7049   53.7633   26.8186 H   0  0  0  0  0  0
    1.8164   53.4907   24.9241 C   0  0  0  0  0  0
    0.6120   53.5131   23.9822 C   0  0  0  0  0  0
   -0.1367   52.1829   24.0064 C   0  0  0  0  0  0
   -0.5284   51.5986   22.8526 C   0  0  0  0  0  0
   -1.3396   50.4126   22.7172 C   0  0  0  0  0  0
   -1.8008   49.9273   21.6290 N   0  0  0  0  0  0
   -1.3569   50.6300   20.4908 O   0  0  0  0  0  0
   -2.4730   51.2191   19.8320 C   0  0  0  0  0  0
   -2.0249   51.8640   18.5160 C   0  0  0  0  0  0
   -2.7301   52.7366   18.0113 O   0  0  0  0  0  0
   -0.8730   51.4347   17.9721 N   0  0  0  0  0  0
   -0.3241   51.7891   16.6525 C   0  0  1  0  0  0
   -1.0959   51.5239   15.9262 H   0  0  0  0  0  0
   -0.0464   53.2978   16.4476 C   0  0  0  0  0  0
    0.8325   53.9592   17.5223 C   0  0  0  0  0  0
    2.2306   53.3445   17.7079 C   0  0  0  0  0  0
    2.2442   51.8715   18.1634 C   0  0  0  0  0  0
    1.9044   50.8954   17.1259 N   0  0  0  0  0  0
    0.8625   50.8689   16.2701 C   0  0  0  0  0  0
    0.8316   50.1467   15.2760 O   0  0  0  0  0  0
   -1.7428   49.7236   24.0233 C   0  0  0  0  0  0
   -0.7914   50.0706   25.1932 C   0  0  0  0  0  0
   -0.4820   51.5922   25.3986 C   0  0  1  0  0  0
   -1.7556   52.2937   25.9378 C   0  0  0  0  0  0
    4.0046   52.1815   29.2481 C   0  0  0  0  0  0
    1.4140   52.2428   31.7367 H   0  0  0  0  0  0
   -0.3359   52.4956   31.6808 H   0  0  0  0  0  0
    0.7031   53.7245   32.3970 H   0  0  0  0  0  0
    1.3768   55.4746   28.3887 H   0  0  0  0  0  0
    2.7937   55.8752   29.3373 H   0  0  0  0  0  0
    3.1039   55.3015   26.7349 H   0  0  0  0  0  0
    4.2377   54.6518   27.8735 H   0  0  0  0  0  0
    2.3042   50.4908   28.2450 H   0  0  0  0  0  0
    1.4878   50.9340   29.6824 H   0  0  0  0  0  0
   -0.3151   52.0005   28.2451 H   0  0  0  0  0  0
   -0.0316   50.3683   27.8337 H   0  0  0  0  0  0
    2.3036   54.4641   24.8824 H   0  0  0  0  0  0
    2.5720   52.7996   24.5461 H   0  0  0  0  0  0
    0.9652   53.7407   22.9745 H   0  0  0  0  0  0
   -0.0649   54.3237   24.2294 H   0  0  0  0  0  0
   -0.2278   52.1086   21.9500 H   0  0  0  0  0  0
   -3.2530   50.4886   19.6111 H   0  0  0  0  0  0
   -2.8956   51.9998   20.4643 H   0  0  0  0  0  0
   -0.4236   50.6449   18.4153 H   0  0  0  0  0  0
    0.4225   53.4469   15.4733 H   0  0  0  0  0  0
   -0.9931   53.8340   16.3857 H   0  0  0  0  0  0
    0.3046   53.9415   18.4759 H   0  0  0  0  0  0
    0.9460   55.0158   17.2765 H   0  0  0  0  0  0
    2.7433   53.9350   18.4680 H   0  0  0  0  0  0
    2.8229   53.4586   16.7991 H   0  0  0  0  0  0
    1.6139   51.7156   19.0401 H   0  0  0  0  0  0
    3.2507   51.6268   18.5069 H   0  0  0  0  0  0
    2.6497   50.2462   16.8794 H   0  0  0  0  0  0
   -2.7681   50.0019   24.2686 H   0  0  0  0  0  0
   -1.7402   48.6415   23.8825 H   0  0  0  0  0  0
    0.1411   49.5291   25.0224 H   0  0  0  0  0  0
   -1.2025   49.6360   26.1054 H   0  0  0  0  0  0
   -2.1843   51.7513   26.7812 H   0  0  0  0  0  0
   -1.5537   53.2965   26.2952 H   0  0  0  0  0  0
   -2.5357   52.3671   25.1794 H   0  0  0  0  0  0
    4.6007   51.6969   28.4846 H   0  0  0  0  0  0
    4.6016   53.0422   29.5534 H   0  0  0  0  0  0
    3.9455   51.5186   30.1111 H   0  0  0  0  0  0
  1  2  1  0  0  0
  1 42  1  0  0  0
  1 43  1  0  0  0
  1 44  1  0  0  0
  2  3  2  0  0  0
  2  4  1  0  0  0
  4  5  1  0  0  0
  4 10  1  0  0  0
  4  6  1  0  0  0
  6  7  1  0  0  0
  6 45  1  0  0  0
  6 46  1  0  0  0
  7  8  1  0  0  0
  7 47  1  0  0  0
  7 48  1  0  0  0
  8  9  1  0  0  0
  8 15  1  0  0  0
  8 10  1  0  0  0
 10 11  1  0  0  0
 10 41  1  0  0  0
 11 12  1  0  0  0
 11 49  1  0  0  0
 11 50  1  0  0  0
 12 13  1  0  0  0
 12 51  1  0  0  0
 12 52  1  0  0  0
 13 14  1  0  0  0
 13 39  1  0  0  0
 13 15  1  0  0  0
 15 16  1  0  0  0
 15 17  1  0  0  0
 17 18  1  0  0  0
 17 53  1  0  0  0
 17 54  1  0  0  0
 18 19  1  0  0  0
 18 55  1  0  0  0
 18 56  1  0  0  0
 19 39  1  0  0  0
 19 20  2  0  0  0
 20 21  1  0  0  0
 20 57  1  0  0  0
 21 22  2  0  0  0
 21 37  1  0  0  0
 22 23  1  0  0  0
 23 24  1  0  0  0
 24 25  1  0  0  0
 24 58  1  0  0  0
 24 59  1  0  0  0
 25 26  2  0  0  0
 25 27  1  0  0  0
 27 28  1  0  0  0
 27 60  1  0  0  0
 28 29  1  0  0  0
 28 35  1  0  0  0
 28 30  1  0  0  0
 30 31  1  0  0  0
 30 61  1  0  0  0
 30 62  1  0  0  0
 31 32  1  0  0  0
 31 63  1  0  0  0
 31 64  1  0  0  0
 32 33  1  0  0  0
 32 65  1  0  0  0
 32 66  1  0  0  0
 33 34  1  0  0  0
 33 67  1  0  0  0
 33 68  1  0  0  0
 34 35  1  0  0  0
 34 69  1  0  0  0
 35 36  2  0  0  0
 37 38  1  0  0  0
 37 70  1  0  0  0
 37 71  1  0  0  0
 38 39  1  0  0  0
 38 72  1  0  0  0
 38 73  1  0  0  0
 39 40  1  0  0  0
 40 74  1  0  0  0
 40 75  1  0  0  0
 40 76  1  0  0  0
 41 77  1  0  0  0
 41 78  1  0  0  0
 41 79  1  0  0  0
M  END
> <i_i_glide_confnum>
9

> <i_i_glide_lignum>
2083

> <i_i_glide_posenum>
148

> <i_i_glide_rotatable_bonds>
6

> <i_m_Source_File_Index>
2289

> <b_m_subgroup_collapsed>
0

> <r_i_docking_score>
-1.76434

> <r_i_glide_ecoul>
-2.9511

> <r_i_glide_eff_state_penalty>
0

> <r_i_glide_einternal>
6.63579

> <r_i_glide_emodel>
-23.5876

> <r_i_glide_energy>
-28.8525

> <r_i_glide_erotb>
0.329476

> <r_i_glide_esite>
-0.153426

> <r_i_glide_evdw>
-25.9014

> <r_i_glide_gscore>
-1.76434

> <r_i_glide_hbond>
-0.16

> <r_i_glide_ligand_efficiency>
-0.0490093

> <r_i_glide_ligand_efficiency_ln>
-0.38493

> <r_i_glide_ligand_efficiency_sa>
-0.161825

> <r_i_glide_lipo>
-1.85131

> <r_i_glide_metal>
0

> <r_i_glide_rewards>
1.80866

> <s_i_glide_gridfile>
wee1_glide-grid

> <s_m_Source_File>
wee1_decoys_glide_SP.sdf

> <s_m_Source_Path>
/Users/zhangxujun/Desktop

> <s_m_entry_id>
2564

> <s_m_entry_name>
wee1_decoys_glide_SP.2289

> <s_m_subgroup_title>
wee1_decoys_glide_SP

> <s_m_subgroupid>
wee1_decoys_glide_SP


$$$$
