ZINC45403713_1398
                    3D
 Schrodinger Suite 2024-2.
 50 53  0  0  1  0            999 V2000
    6.5506   54.2578   27.0833 C   0  0  0  0  0  0
    5.0289   54.5212   26.9178 C   0  0  2  0  0  0
    4.9062   55.6011   26.9711 H   0  0  0  0  0  0
    4.1773   53.9268   28.0517 C   0  0  0  0  0  0
    4.6735   52.8973   28.8814 C   0  0  0  0  0  0
    3.9038   52.3544   29.9155 C   0  0  0  0  0  0
    2.6183   52.8450   30.0824 C   0  0  0  0  0  0
    2.1208   53.8468   29.2997 C   0  0  0  0  0  0
    2.8773   54.4235   28.2814 C   0  0  0  0  0  0
    0.8668   54.1596   29.7256 O   0  0  0  0  0  0
    0.5178   53.1512   30.6420 C   0  0  0  0  0  0
    1.6991   52.4970   31.0189 O   0  0  0  0  0  0
    4.4827   54.0969   25.6222 N   0  0  0  0  0  0
    5.0002   54.2953   24.3987 C   0  0  0  0  0  0
    6.0491   54.8966   24.1721 O   0  0  0  0  0  0
    4.2631   53.6968   23.4493 N   0  0  0  0  0  0
    4.7307   53.3572   22.1022 C   0  0  1  0  0  0
    5.7843   53.0804   22.1980 H   0  0  0  0  0  0
    3.9821   52.1495   21.5175 C   0  0  0  0  0  0
    4.4323   51.8865   20.0910 C   0  0  0  0  0  0
    4.3179   53.1239   19.1905 C   0  0  0  0  0  0
    5.0499   54.2947   19.7142 N   0  0  0  0  0  0
    4.6736   54.5510   21.1223 C   0  0  0  0  0  0
    5.4405   55.3440   18.8691 C   0  0  0  0  0  0
    5.3963   55.1320   17.5205 N   0  0  0  0  0  0
    5.7990   56.1464   16.7125 C   0  0  0  0  0  0
    6.2610   57.3624   17.2157 C   0  0  0  0  0  0
    6.3040   57.4907   18.6032 C   0  0  0  0  0  0
    5.9069   56.4955   19.4393 N   0  0  0  0  0  0
    6.8914   54.4968   28.0911 H   0  0  0  0  0  0
    6.8070   53.2180   26.8780 H   0  0  0  0  0  0
    7.1395   54.8752   26.4080 H   0  0  0  0  0  0
    5.6626   52.4974   28.7281 H   0  0  0  0  0  0
    4.3076   51.5858   30.5555 H   0  0  0  0  0  0
    2.4753   55.2260   27.6819 H   0  0  0  0  0  0
    0.0111   53.5613   31.5179 H   0  0  0  0  0  0
   -0.1481   52.4312   30.1597 H   0  0  0  0  0  0
    3.5494   53.7178   25.6658 H   0  0  0  0  0  0
    3.2694   53.6206   23.6009 H   0  0  0  0  0  0
    4.1530   51.2380   22.0817 H   0  0  0  0  0  0
    2.9074   52.3409   21.5132 H   0  0  0  0  0  0
    5.4605   51.5245   20.0817 H   0  0  0  0  0  0
    3.8296   51.0761   19.6808 H   0  0  0  0  0  0
    4.7158   52.8370   18.2162 H   0  0  0  0  0  0
    3.2732   53.4001   19.0369 H   0  0  0  0  0  0
    3.6412   54.8966   21.1154 H   0  0  0  0  0  0
    5.2597   55.3614   21.5547 H   0  0  0  0  0  0
    5.7417   55.9686   15.6484 H   0  0  0  0  0  0
    6.5681   58.1688   16.5646 H   0  0  0  0  0  0
    6.6448   58.4090   19.0588 H   0  0  0  0  0  0
  1  2  1  0  0  0
  1 30  1  0  0  0
  1 31  1  0  0  0
  1 32  1  0  0  0
  2  3  1  0  0  0
  2  4  1  0  0  0
  2 13  1  0  0  0
  4  9  2  0  0  0
  4  5  1  0  0  0
  5  6  2  0  0  0
  5 33  1  0  0  0
  6  7  1  0  0  0
  6 34  1  0  0  0
  7 12  1  0  0  0
  7  8  2  0  0  0
  8  9  1  0  0  0
  8 10  1  0  0  0
  9 35  1  0  0  0
 10 11  1  0  0  0
 11 12  1  0  0  0
 11 36  1  0  0  0
 11 37  1  0  0  0
 13 14  1  0  0  0
 13 38  1  0  0  0
 14 15  2  0  0  0
 14 16  1  0  0  0
 16 17  1  0  0  0
 16 39  1  0  0  0
 17 18  1  0  0  0
 17 23  1  0  0  0
 17 19  1  0  0  0
 19 20  1  0  0  0
 19 40  1  0  0  0
 19 41  1  0  0  0
 20 21  1  0  0  0
 20 42  1  0  0  0
 20 43  1  0  0  0
 21 22  1  0  0  0
 21 44  1  0  0  0
 21 45  1  0  0  0
 22 23  1  0  0  0
 22 24  1  0  0  0
 23 46  1  0  0  0
 23 47  1  0  0  0
 24 29  2  0  0  0
 24 25  1  0  0  0
 25 26  2  0  0  0
 26 27  1  0  0  0
 26 48  1  0  0  0
 27 28  2  0  0  0
 27 49  1  0  0  0
 28 29  1  0  0  0
 28 50  1  0  0  0
M  END
> <i_i_glide_confnum>
35

> <i_i_glide_lignum>
1399

> <i_i_glide_posenum>
120

> <i_i_glide_rotatable_bonds>
6

> <i_m_Source_File_Index>
2867

> <b_m_subgroup_collapsed>
0

> <r_i_docking_score>
-4.86506

> <r_i_glide_ecoul>
-0.774825

> <r_i_glide_eff_state_penalty>
0

> <r_i_glide_einternal>
4.3058

> <r_i_glide_emodel>
-52.1237

> <r_i_glide_energy>
-40.5907

> <r_i_glide_erotb>
0.706414

> <r_i_glide_esite>
0

> <r_i_glide_evdw>
-39.8159

> <r_i_glide_gscore>
-4.86506

> <r_i_glide_hbond>
0

> <r_i_glide_ligand_efficiency>
-0.180188

> <r_i_glide_ligand_efficiency_ln>
-1.13251

> <r_i_glide_ligand_efficiency_sa>
-0.540563

> <r_i_glide_lipo>
-2.11267

> <r_i_glide_metal>
0

> <r_i_glide_rewards>
-1.35178

> <s_i_glide_gridfile>
wee1_glide-grid

> <s_m_Source_File>
wee1_decoys_glide_SP.sdf

> <s_m_Source_Path>
/Users/zhangxujun/Desktop

> <s_m_entry_id>
3142

> <s_m_entry_name>
wee1_decoys_glide_SP.2867

> <s_m_subgroup_title>
wee1_decoys_glide_SP

> <s_m_subgroupid>
wee1_decoys_glide_SP


$$$$
