ZINC13250948_5789
                    3D
 Schrodinger Suite 2024-2.
 55 56  0  0  1  0            999 V2000
    1.6813   47.6306   19.2605 C   0  0  0  0  0  0
    1.0112   48.8828   19.8461 C   0  0  0  0  0  0
    1.9177   49.6777   20.8128 C   0  0  2  0  0  0
    2.8404   49.8802   20.2636 H   0  0  0  0  0  0
    2.3096   48.9125   22.0846 C   0  0  0  0  0  0
    1.3120   50.9966   21.1623 N   0  0  0  0  0  0
    1.9014   52.2131   20.5775 C   0  0  0  0  0  0
    3.3616   52.5080   20.9986 C   0  0  0  0  0  0
    4.0132   51.7170   21.6815 O   0  0  0  0  0  0
    3.8442   53.6976   20.5868 N   0  0  0  0  0  0
    5.0620   54.3049   20.9451 C   0  0  0  0  0  0
    5.5281   54.2443   22.2684 C   0  0  0  0  0  0
    6.7044   54.8966   22.6331 C   0  0  0  0  0  0
    7.4242   55.6127   21.6817 C   0  0  0  0  0  0
    6.9658   55.6898   20.3687 C   0  0  0  0  0  0
    5.7815   55.0439   19.9814 C   0  0  0  0  0  0
    5.3046   55.1435   18.5249 C   0  0  0  0  0  0
    4.0898   55.6940   18.4812 F   0  0  0  0  0  0
    6.1172   55.8866   17.7694 F   0  0  0  0  0  0
    5.2419   53.9267   17.9849 F   0  0  0  0  0  0
   -0.1375   51.1037   22.2039 S   0  0  0  0  0  0
   -0.6961   49.7612   22.3977 O   0  0  0  0  0  0
   -0.9915   52.1694   21.6701 O   0  0  0  0  0  0
    0.4488   51.6733   23.8086 C   0  0  0  0  0  0
    0.2258   50.9003   24.9524 C   0  0  0  0  0  0
    0.7030   51.3293   26.1896 C   0  0  0  0  0  0
    1.4312   52.5218   26.2922 C   0  0  0  0  0  0
    1.6331   53.2967   25.1468 C   0  0  0  0  0  0
    1.1325   52.8864   23.9138 C   0  0  0  0  0  0
    2.0505   52.9582   27.5620 C   0  0  0  0  0  0
    2.4262   52.1485   28.5775 C   0  0  0  0  0  0
    3.0799   52.6307   29.8866 C   0  0  0  0  0  0
    3.1035   53.8695   30.0816 O   0  0  0  0  0  0
    1.0322   47.1478   18.5309 H   0  0  0  0  0  0
    2.6147   47.8801   18.7527 H   0  0  0  0  0  0
    1.9037   46.8976   20.0340 H   0  0  0  0  0  0
    0.0805   48.5930   20.3328 H   0  0  0  0  0  0
    0.7295   49.5292   19.0132 H   0  0  0  0  0  0
    2.9862   48.0968   21.8472 H   0  0  0  0  0  0
    2.8367   49.5563   22.7894 H   0  0  0  0  0  0
    1.4516   48.4970   22.6080 H   0  0  0  0  0  0
    1.8368   52.1746   19.4894 H   0  0  0  0  0  0
    1.3033   53.0788   20.8521 H   0  0  0  0  0  0
    3.2436   54.2511   19.9890 H   0  0  0  0  0  0
    4.9772   53.7023   23.0239 H   0  0  0  0  0  0
    7.0641   54.8400   23.6500 H   0  0  0  0  0  0
    8.3458   56.0973   21.9663 H   0  0  0  0  0  0
    7.5501   56.2469   19.6503 H   0  0  0  0  0  0
   -0.3094   49.9630   24.8929 H   0  0  0  0  0  0
    0.5224   50.7132   27.0605 H   0  0  0  0  0  0
    2.1974   54.2163   25.2043 H   0  0  0  0  0  0
    1.3004   53.5041   23.0452 H   0  0  0  0  0  0
    2.2006   54.0237   27.6719 H   0  0  0  0  0  0
    2.2762   51.0848   28.4782 H   0  0  0  0  0  0
    3.5044   51.6985   30.6057 O   0  5  0  0  0  0
  1  2  1  0  0  0
  1 34  1  0  0  0
  1 35  1  0  0  0
  1 36  1  0  0  0
  2  3  1  0  0  0
  2 37  1  0  0  0
  2 38  1  0  0  0
  3  4  1  0  0  0
  3  5  1  0  0  0
  3  6  1  0  0  0
  5 39  1  0  0  0
  5 40  1  0  0  0
  5 41  1  0  0  0
  6  7  1  0  0  0
  6 21  1  0  0  0
  7  8  1  0  0  0
  7 42  1  0  0  0
  7 43  1  0  0  0
  8  9  2  0  0  0
  8 10  1  0  0  0
 10 11  1  0  0  0
 10 44  1  0  0  0
 11 16  2  0  0  0
 11 12  1  0  0  0
 12 13  2  0  0  0
 12 45  1  0  0  0
 13 14  1  0  0  0
 13 46  1  0  0  0
 14 15  2  0  0  0
 14 47  1  0  0  0
 15 16  1  0  0  0
 15 48  1  0  0  0
 16 17  1  0  0  0
 17 18  1  0  0  0
 17 19  1  0  0  0
 17 20  1  0  0  0
 21 22  2  0  0  0
 21 23  2  0  0  0
 21 24  1  0  0  0
 24 29  2  0  0  0
 24 25  1  0  0  0
 25 26  2  0  0  0
 25 49  1  0  0  0
 26 27  1  0  0  0
 26 50  1  0  0  0
 27 28  2  0  0  0
 27 30  1  0  0  0
 28 29  1  0  0  0
 28 51  1  0  0  0
 29 52  1  0  0  0
 30 31  2  0  0  0
 30 53  1  0  0  0
 31 32  1  0  0  0
 31 54  1  0  0  0
 32 33  2  0  0  0
 32 55  1  0  0  0
M  CHG  1  55  -1
M  END
> <i_i_glide_confnum>
314

> <i_i_glide_lignum>
5790

> <i_i_glide_posenum>
117

> <i_i_glide_rotatable_bonds>
11

> <i_m_Source_File_Index>
4942

> <b_m_subgroup_collapsed>
0

> <r_i_docking_score>
-5.24185

> <r_i_glide_ecoul>
-11.9513

> <r_i_glide_eff_state_penalty>
0

> <r_i_glide_einternal>
5.73371

> <r_i_glide_emodel>
-61.4052

> <r_i_glide_energy>
-48.6269

> <r_i_glide_erotb>
0.78163

> <r_i_glide_esite>
-0.0442665

> <r_i_glide_evdw>
-36.6756

> <r_i_glide_gscore>
-5.24185

> <r_i_glide_hbond>
-0.531237

> <r_i_glide_ligand_efficiency>
-0.158844

> <r_i_glide_ligand_efficiency_ln>
-1.16576

> <r_i_glide_ligand_efficiency_sa>
-0.509498

> <r_i_glide_lipo>
-2.14037

> <r_i_glide_metal>
0

> <r_i_glide_rewards>
0.318875

> <s_i_glide_gridfile>
wee1_glide-grid

> <s_m_Source_File>
wee1_decoys_glide_SP.sdf

> <s_m_Source_Path>
/Users/zhangxujun/Desktop

> <s_m_entry_id>
5217

> <s_m_entry_name>
wee1_decoys_glide_SP.4942

> <s_m_subgroup_title>
wee1_decoys_glide_SP

> <s_m_subgroupid>
wee1_decoys_glide_SP


$$$$
