ZINC33695519_3979
                    3D
 Schrodinger Suite 2024-2.
 78 82  0  0  1  0            999 V2000
    2.7329   51.2936   28.9546 C   0  0  0  0  0  0
    3.2120   52.4816   28.1062 C   0  0  2  0  0  0
    3.9885   52.1044   27.4486 H   0  0  0  0  0  0
    3.8799   53.5845   28.9518 C   0  0  0  0  0  0
    2.8587   54.2125   29.9153 C   0  0  0  0  0  0
    1.6359   54.7448   29.1471 C   0  0  0  0  0  0
    1.0532   53.6780   28.1983 C   0  0  0  0  0  0
    2.0873   53.0727   27.2333 C   0  0  2  0  0  0
    2.5342   53.8981   26.6716 H   0  0  0  0  0  0
    1.4990   52.1322   26.2689 N   0  0  0  0  0  0
    1.0799   52.4304   25.0236 C   0  0  0  0  0  0
    1.0502   53.5890   24.6037 O   0  0  0  0  0  0
    0.5780   51.2421   24.1495 C   0  0  2  0  0  0
    0.7049   50.3273   24.7296 H   0  0  0  0  0  0
    1.3015   51.1222   22.7783 C   0  0  1  0  0  0
    1.8887   52.3546   22.0679 C   0  0  0  0  0  0
    2.6086   51.8865   21.0412 C   0  0  0  0  0  0
    2.3536   50.3955   21.0512 C   0  0  1  0  0  0
    3.1108   49.7825   20.5625 H   0  0  0  0  0  0
    2.3166   50.1842   22.4752 O   0  0  0  0  0  0
    0.8638   50.0345   20.6851 C   0  0  1  0  0  0
    0.8214   48.9625   20.4863 H   0  0  0  0  0  0
    0.2380   50.3365   22.0655 C   0  0  2  0  0  0
    0.0656   49.3487   22.5040 H   0  0  0  0  0  0
   -1.0258   51.1138   22.3946 C   0  0  0  0  0  0
   -1.9822   51.3433   21.6505 O   0  0  0  0  0  0
   -0.8646   51.3620   23.7335 N   0  0  0  0  0  0
   -2.0442   51.5851   24.6355 C   0  0  0  0  0  0
   -3.1981   50.5681   24.3829 C   0  0  0  0  0  0
   -2.5652   53.0115   24.3791 C   0  0  0  0  0  0
   -1.7105   51.4506   26.1477 C   0  0  0  0  0  0
    0.1591   50.6845   19.4559 C   0  0  0  0  0  0
   -0.6848   50.0142   18.8577 O   0  0  0  0  0  0
    0.4860   51.9401   19.0922 N   0  0  0  0  0  0
   -0.1681   52.7748   18.1722 C   0  0  0  0  0  0
   -1.5626   52.7885   18.0298 C   0  0  0  0  0  0
   -2.1677   53.7497   17.2222 C   0  0  0  0  0  0
   -1.3896   54.6976   16.5469 C   0  0  0  0  0  0
    0.0011   54.6639   16.6784 C   0  0  0  0  0  0
    0.6109   53.7065   17.4838 C   0  0  0  0  0  0
   -2.0243   55.7962   15.6793 C   0  0  0  0  0  0
   -3.3259   55.3670   14.9698 C   0  0  0  0  0  0
   -2.2145   57.0948   16.4812 C   0  0  0  0  0  0
    1.9763   51.5509   29.6923 H   0  0  0  0  0  0
    2.3032   50.4983   28.3447 H   0  0  0  0  0  0
    3.5767   50.9032   29.5116 H   0  0  0  0  0  0
    4.3093   54.3584   28.3095 H   0  0  0  0  0  0
    4.6994   53.1599   29.5358 H   0  0  0  0  0  0
    2.5377   53.4807   30.6580 H   0  0  0  0  0  0
    3.3367   55.0097   30.4673 H   0  0  0  0  0  0
    0.8747   55.0861   29.8453 H   0  0  0  0  0  0
    1.9279   55.6264   28.5747 H   0  0  0  0  0  0
    0.5414   52.9057   28.7689 H   0  0  0  0  0  0
    0.2991   54.0968   27.5825 H   0  0  0  0  0  0
    1.4714   51.1677   26.5619 H   0  0  0  0  0  0
    1.7307   53.3884   22.3331 H   0  0  0  0  0  0
    3.1730   52.4216   20.2912 H   0  0  0  0  0  0
   -2.8399   49.5415   24.4752 H   0  0  0  0  0  0
   -4.0124   50.6906   25.0994 H   0  0  0  0  0  0
   -3.6561   50.6751   23.3980 H   0  0  0  0  0  0
   -1.7210   53.6956   24.4062 H   0  0  0  0  0  0
   -3.0357   53.1138   23.3970 H   0  0  0  0  0  0
   -3.2741   53.3445   25.1353 H   0  0  0  0  0  0
   -1.1370   52.2956   26.5262 H   0  0  0  0  0  0
   -2.6150   51.4286   26.7602 H   0  0  0  0  0  0
   -1.1563   50.5340   26.3649 H   0  0  0  0  0  0
    1.2706   52.3528   19.5609 H   0  0  0  0  0  0
   -2.1801   52.0825   18.5681 H   0  0  0  0  0  0
   -3.2425   53.7661   17.1455 H   0  0  0  0  0  0
    0.6156   55.3930   16.1718 H   0  0  0  0  0  0
    1.6866   53.7189   17.5954 H   0  0  0  0  0  0
   -1.3150   56.0148   14.8753 H   0  0  0  0  0  0
   -3.2039   54.4219   14.4350 H   0  0  0  0  0  0
   -4.1525   55.2471   15.6742 H   0  0  0  0  0  0
   -3.6211   56.1182   14.2324 H   0  0  0  0  0  0
   -1.2715   57.4396   16.9195 H   0  0  0  0  0  0
   -2.5889   57.9067   15.8517 H   0  0  0  0  0  0
   -2.9284   56.9557   17.2914 H   0  0  0  0  0  0
  1  2  1  0  0  0
  1 44  1  0  0  0
  1 45  1  0  0  0
  1 46  1  0  0  0
  2  3  1  0  0  0
  2  8  1  0  0  0
  2  4  1  0  0  0
  4  5  1  0  0  0
  4 47  1  0  0  0
  4 48  1  0  0  0
  5  6  1  0  0  0
  5 49  1  0  0  0
  5 50  1  0  0  0
  6  7  1  0  0  0
  6 51  1  0  0  0
  6 52  1  0  0  0
  7  8  1  0  0  0
  7 53  1  0  0  0
  7 54  1  0  0  0
  8  9  1  0  0  0
  8 10  1  0  0  0
 10 11  1  0  0  0
 10 55  1  0  0  0
 11 12  2  0  0  0
 11 13  1  0  0  0
 13 14  1  0  0  0
 13 27  1  0  0  0
 13 15  1  0  0  0
 15 20  1  0  0  0
 15 23  1  0  0  0
 15 16  1  0  0  0
 16 17  2  0  0  0
 16 56  1  0  0  0
 17 18  1  0  0  0
 17 57  1  0  0  0
 18 19  1  0  0  0
 18 20  1  0  0  0
 18 21  1  0  0  0
 21 22  1  0  0  0
 21 23  1  0  0  0
 21 32  1  0  0  0
 23 24  1  0  0  0
 23 25  1  0  0  0
 25 26  2  0  0  0
 25 27  1  0  0  0
 27 28  1  0  0  0
 28 29  1  0  0  0
 28 30  1  0  0  0
 28 31  1  0  0  0
 29 58  1  0  0  0
 29 59  1  0  0  0
 29 60  1  0  0  0
 30 61  1  0  0  0
 30 62  1  0  0  0
 30 63  1  0  0  0
 31 64  1  0  0  0
 31 65  1  0  0  0
 31 66  1  0  0  0
 32 33  2  0  0  0
 32 34  1  0  0  0
 34 35  1  0  0  0
 34 67  1  0  0  0
 35 40  2  0  0  0
 35 36  1  0  0  0
 36 37  2  0  0  0
 36 68  1  0  0  0
 37 38  1  0  0  0
 37 69  1  0  0  0
 38 39  2  0  0  0
 38 41  1  0  0  0
 39 40  1  0  0  0
 39 70  1  0  0  0
 40 71  1  0  0  0
 41 42  1  0  0  0
 41 43  1  0  0  0
 41 72  1  0  0  0
 42 73  1  0  0  0
 42 74  1  0  0  0
 42 75  1  0  0  0
 43 76  1  0  0  0
 43 77  1  0  0  0
 43 78  1  0  0  0
M  END
> <i_i_glide_confnum>
162

> <i_i_glide_lignum>
3980

> <i_i_glide_posenum>
312

> <i_i_glide_rotatable_bonds>
8

> <i_m_Source_File_Index>
5476

> <b_m_subgroup_collapsed>
0

> <r_i_docking_score>
-2.92922

> <r_i_glide_ecoul>
-2.23681

> <r_i_glide_eff_state_penalty>
0

> <r_i_glide_einternal>
10.9969

> <r_i_glide_emodel>
-30.7185

> <r_i_glide_energy>
-30.0589

> <r_i_glide_erotb>
0.476516

> <r_i_glide_esite>
-0.0199872

> <r_i_glide_evdw>
-27.8221

> <r_i_glide_gscore>
-2.92922

> <r_i_glide_hbond>
0

> <r_i_glide_ligand_efficiency>
-0.0791681

> <r_i_glide_ligand_efficiency_ln>
-0.635279

> <r_i_glide_ligand_efficiency_sa>
-0.263806

> <r_i_glide_lipo>
-1.55792

> <r_i_glide_metal>
0

> <r_i_glide_rewards>
-0.101205

> <s_i_glide_gridfile>
wee1_glide-grid

> <s_m_Source_File>
wee1_decoys_glide_SP.sdf

> <s_m_Source_Path>
/Users/zhangxujun/Desktop

> <s_m_entry_id>
5751

> <s_m_entry_name>
wee1_decoys_glide_SP.5476

> <s_m_subgroup_title>
wee1_decoys_glide_SP

> <s_m_subgroupid>
wee1_decoys_glide_SP


$$$$
