ZINC14532681_4274
                    3D
 Schrodinger Suite 2024-2.
 58 62  0  0  1  0            999 V2000
    0.5216   52.7450   31.5934 C   0  0  0  0  0  0
    1.0360   52.8704   30.2376 N   0  0  0  0  0  0
    0.4427   52.4472   29.0819 C   0  0  0  0  0  0
    1.2998   52.8170   28.0484 C   0  0  0  0  0  0
    2.4232   53.3873   28.7095 C   0  0  0  0  0  0
    2.2488   53.3903   30.0209 N   0  0  0  0  0  0
    3.6521   53.8285   28.0810 C   0  0  0  0  0  0
    4.7207   53.8671   28.6913 O   0  0  0  0  0  0
    3.5140   54.1851   26.7939 N   0  0  0  0  0  0
    4.5845   54.5754   25.8770 C   0  0  0  0  0  0
    4.2936   54.2683   24.4056 C   0  0  0  0  0  0
    2.9767   54.1518   23.9292 C   0  0  0  0  0  0
    2.7272   53.8643   22.5893 C   0  0  0  0  0  0
    3.7876   53.6956   21.7049 C   0  0  0  0  0  0
    5.0978   53.8157   22.1618 C   0  0  0  0  0  0
    5.3531   54.0968   23.5048 C   0  0  0  0  0  0
    6.6341   54.2084   23.9247 F   0  0  0  0  0  0
    0.9818   52.4727   26.5809 C   0  0  0  0  0  0
   -0.1767   51.4415   26.4986 C   0  0  2  0  0  0
   -0.5948   51.4442   25.4898 H   0  0  0  0  0  0
   -1.3194   51.8595   27.4529 C   0  0  0  0  0  0
   -0.9130   51.7762   28.9418 C   0  0  0  0  0  0
    0.3044   50.0957   26.7662 N   0  0  0  0  0  0
    0.6934   49.3075   25.5988 C   0  0  0  0  0  0
   -0.4849   48.6159   24.9356 C   0  0  0  0  0  0
   -0.7904   48.4100   23.6024 C   0  0  0  0  0  0
   -1.9757   47.6071   23.5377 C   0  0  0  0  0  0
   -2.7402   47.0619   22.4935 C   0  0  0  0  0  0
   -3.8738   46.3109   22.8054 C   0  0  0  0  0  0
   -4.2521   46.0943   24.1289 C   0  0  0  0  0  0
   -3.5140   46.6061   25.1979 C   0  0  0  0  0  0
   -2.3807   47.3624   24.8801 C   0  0  0  0  0  0
   -1.4607   47.9955   25.6817 N   0  0  0  0  0  0
   -1.4528   48.0229   26.7027 H   0  0  0  0  0  0
   -0.4964   53.1187   31.6237 H   0  0  0  0  0  0
    0.5309   51.6972   31.8930 H   0  0  0  0  0  0
    1.1070   53.3201   32.3051 H   0  0  0  0  0  0
    2.5726   54.3443   26.4718 H   0  0  0  0  0  0
    5.5263   54.1025   26.1720 H   0  0  0  0  0  0
    4.7542   55.6493   25.9667 H   0  0  0  0  0  0
    2.1339   54.3022   24.5823 H   0  0  0  0  0  0
    1.7115   53.7907   22.2286 H   0  0  0  0  0  0
    3.5934   53.4859   20.6618 H   0  0  0  0  0  0
    5.9055   53.6943   21.4629 H   0  0  0  0  0  0
    0.7049   53.3520   26.0145 H   0  0  0  0  0  0
    1.8694   52.0971   26.0691 H   0  0  0  0  0  0
   -2.2093   51.2599   27.2621 H   0  0  0  0  0  0
   -1.5975   52.8892   27.2271 H   0  0  0  0  0  0
   -0.8203   50.7352   29.2327 H   0  0  0  0  0  0
   -1.6751   52.1974   29.5941 H   0  0  0  0  0  0
   -0.3541   49.5744   27.3482 H   0  0  0  0  0  0
    1.2466   49.9162   24.8824 H   0  0  0  0  0  0
    1.3955   48.5483   25.9471 H   0  0  0  0  0  0
   -0.2049   48.7796   22.7721 H   0  0  0  0  0  0
   -2.4612   47.2266   21.4638 H   0  0  0  0  0  0
   -4.4760   45.8988   22.0096 H   0  0  0  0  0  0
   -5.1452   45.5190   24.3306 H   0  0  0  0  0  0
   -3.8144   46.4355   26.2223 H   0  0  0  0  0  0
  1  2  1  0  0  0
  1 35  1  0  0  0
  1 36  1  0  0  0
  1 37  1  0  0  0
  2  6  1  0  0  0
  2  3  1  0  0  0
  3 22  1  0  0  0
  3  4  2  0  0  0
  4  5  1  0  0  0
  4 18  1  0  0  0
  5  6  2  0  0  0
  5  7  1  0  0  0
  7  8  2  0  0  0
  7  9  1  0  0  0
  9 10  1  0  0  0
  9 38  1  0  0  0
 10 11  1  0  0  0
 10 39  1  0  0  0
 10 40  1  0  0  0
 11 16  2  0  0  0
 11 12  1  0  0  0
 12 13  2  0  0  0
 12 41  1  0  0  0
 13 14  1  0  0  0
 13 42  1  0  0  0
 14 15  2  0  0  0
 14 43  1  0  0  0
 15 16  1  0  0  0
 15 44  1  0  0  0
 16 17  1  0  0  0
 18 19  1  0  0  0
 18 45  1  0  0  0
 18 46  1  0  0  0
 19 20  1  0  0  0
 19 21  1  0  0  0
 19 23  1  0  0  0
 21 22  1  0  0  0
 21 47  1  0  0  0
 21 48  1  0  0  0
 22 49  1  0  0  0
 22 50  1  0  0  0
 23 24  1  0  0  0
 23 51  1  0  0  0
 24 25  1  0  0  0
 24 52  1  0  0  0
 24 53  1  0  0  0
 25 33  1  0  0  0
 25 26  2  0  0  0
 26 27  1  0  0  0
 26 54  1  0  0  0
 27 32  2  0  0  0
 27 28  1  0  0  0
 28 29  2  0  0  0
 28 55  1  0  0  0
 29 30  1  0  0  0
 29 56  1  0  0  0
 30 31  2  0  0  0
 30 57  1  0  0  0
 31 32  1  0  0  0
 31 58  1  0  0  0
 32 33  1  0  0  0
 33 34  1  0  0  0
M  END
> <i_i_glide_confnum>
308

> <i_i_glide_lignum>
4275

> <i_i_glide_posenum>
218

> <i_i_glide_rotatable_bonds>
7

> <i_m_Source_File_Index>
3667

> <b_m_subgroup_collapsed>
0

> <r_i_docking_score>
-6.49802

> <r_i_glide_ecoul>
-8.80077

> <r_i_glide_eff_state_penalty>
0

> <r_i_glide_einternal>
14.717

> <r_i_glide_emodel>
-64.785

> <r_i_glide_energy>
-49.5888

> <r_i_glide_erotb>
0.640949

> <r_i_glide_esite>
-0.1

> <r_i_glide_evdw>
-40.788

> <r_i_glide_gscore>
-6.49802

> <r_i_glide_hbond>
-0.447745

> <r_i_glide_ligand_efficiency>
-0.203063

> <r_i_glide_ligand_efficiency_ln>
-1.45508

> <r_i_glide_ligand_efficiency_sa>
-0.644686

> <r_i_glide_lipo>
-1.90658

> <r_i_glide_metal>
0

> <r_i_glide_rewards>
-1.32513

> <s_i_glide_gridfile>
wee1_glide-grid

> <s_m_Source_File>
wee1_decoys_glide_SP.sdf

> <s_m_Source_Path>
/Users/zhangxujun/Desktop

> <s_m_entry_id>
3942

> <s_m_entry_name>
wee1_decoys_glide_SP.3667

> <s_m_subgroup_title>
wee1_decoys_glide_SP

> <s_m_subgroupid>
wee1_decoys_glide_SP


$$$$
