ZINC00669049_4261
                    3D
 Schrodinger Suite 2024-2.
 56 59  0  0  1  0            999 V2000
    0.1507   54.0792   30.8558 C   0  0  0  0  0  0
    0.8257   52.7472   30.4437 C   0  0  0  0  0  0
    1.3828   52.0973   31.7355 C   0  0  0  0  0  0
   -0.2667   51.8130   29.8549 C   0  0  0  0  0  0
    1.9859   52.9510   29.4001 C   0  0  2  0  0  0
    2.4292   51.9625   29.2566 H   0  0  0  0  0  0
    3.0980   53.9148   29.8855 C   0  0  0  0  0  0
    4.3649   53.8593   29.0218 C   0  0  0  0  0  0
    4.0097   53.8766   27.5302 C   0  0  0  0  0  0
    2.6909   53.6543   27.1022 C   0  0  0  0  0  0
    2.5371   53.6967   25.3854 S   0  0  0  0  0  0
    4.2242   54.0951   25.2088 C   0  0  0  0  0  0
    4.8954   54.1507   26.4469 C   0  0  0  0  0  0
    6.3042   54.5139   26.5662 C   0  0  0  0  0  0
    6.8987   55.1562   25.7018 O   0  0  0  0  0  0
    6.9431   54.0941   27.6560 N   0  0  0  0  0  0
    4.8260   54.2774   23.9673 N   0  0  0  0  0  0
    4.3258   54.0957   22.7294 C   0  0  0  0  0  0
    3.1825   53.7258   22.4611 O   0  0  0  0  0  0
    5.3185   54.3946   21.7277 C   0  0  0  0  0  0
    5.1307   54.1907   20.4075 C   0  0  0  0  0  0
    6.1501   54.4847   19.3831 C   0  0  0  0  0  0
    6.1914   53.6988   18.2133 C   0  0  0  0  0  0
    7.2012   53.8761   17.2565 C   0  0  0  0  0  0
    8.1614   54.8496   17.5081 C   0  0  0  0  0  0
    8.1208   55.6260   18.6304 C   0  0  0  0  0  0
    7.1277   55.4776   19.5882 C   0  0  0  0  0  0
    9.1513   56.5092   18.6084 O   0  0  0  0  0  0
    9.9840   56.0721   17.5684 C   0  0  0  0  0  0
    9.2292   55.2155   16.7515 O   0  0  0  0  0  0
    1.4889   53.4406   28.0129 C   0  0  0  0  0  0
   -0.4957   53.9246   31.7181 H   0  0  0  0  0  0
   -0.4592   54.4966   30.0553 H   0  0  0  0  0  0
    0.8627   54.8436   31.1607 H   0  0  0  0  0  0
    2.0866   51.2968   31.5304 H   0  0  0  0  0  0
    1.9040   52.8181   32.3573 H   0  0  0  0  0  0
    0.5923   51.6910   32.3650 H   0  0  0  0  0  0
    0.1637   50.9437   29.3550 H   0  0  0  0  0  0
   -0.9501   51.4450   30.6224 H   0  0  0  0  0  0
   -0.8837   52.3221   29.1142 H   0  0  0  0  0  0
    2.7259   54.9349   29.9882 H   0  0  0  0  0  0
    3.4182   53.6207   30.8813 H   0  0  0  0  0  0
    5.0038   54.7002   29.2956 H   0  0  0  0  0  0
    4.9191   52.9487   29.2536 H   0  0  0  0  0  0
    6.4590   53.5467   28.3493 H   0  0  0  0  0  0
    7.9035   54.3564   27.8079 H   0  0  0  0  0  0
    5.7965   54.5549   24.0263 H   0  0  0  0  0  0
    6.2613   54.7865   22.0842 H   0  0  0  0  0  0
    4.1883   53.7969   20.0468 H   0  0  0  0  0  0
    5.4576   52.9193   18.0548 H   0  0  0  0  0  0
    7.2324   53.2612   16.3692 H   0  0  0  0  0  0
    7.1236   56.0998   20.4694 H   0  0  0  0  0  0
   10.8248   55.5195   17.9950 H   0  0  0  0  0  0
   10.3702   56.9170   16.9982 H   0  0  0  0  0  0
    0.8059   52.7220   27.5598 H   0  0  0  0  0  0
    0.9398   54.3774   28.1113 H   0  0  0  0  0  0
  1  2  1  0  0  0
  1 32  1  0  0  0
  1 33  1  0  0  0
  1 34  1  0  0  0
  2  3  1  0  0  0
  2  4  1  0  0  0
  2  5  1  0  0  0
  3 35  1  0  0  0
  3 36  1  0  0  0
  3 37  1  0  0  0
  4 38  1  0  0  0
  4 39  1  0  0  0
  4 40  1  0  0  0
  5  6  1  0  0  0
  5 31  1  0  0  0
  5  7  1  0  0  0
  7  8  1  0  0  0
  7 41  1  0  0  0
  7 42  1  0  0  0
  8  9  1  0  0  0
  8 43  1  0  0  0
  8 44  1  0  0  0
  9 13  1  0  0  0
  9 10  2  0  0  0
 10 11  1  0  0  0
 10 31  1  0  0  0
 11 12  1  0  0  0
 12 13  2  0  0  0
 12 17  1  0  0  0
 13 14  1  0  0  0
 14 15  2  0  0  0
 14 16  1  0  0  0
 16 45  1  0  0  0
 16 46  1  0  0  0
 17 18  1  0  0  0
 17 47  1  0  0  0
 18 19  2  0  0  0
 18 20  1  0  0  0
 20 21  2  0  0  0
 20 48  1  0  0  0
 21 22  1  0  0  0
 21 49  1  0  0  0
 22 27  2  0  0  0
 22 23  1  0  0  0
 23 24  2  0  0  0
 23 50  1  0  0  0
 24 25  1  0  0  0
 24 51  1  0  0  0
 25 30  1  0  0  0
 25 26  2  0  0  0
 26 27  1  0  0  0
 26 28  1  0  0  0
 27 52  1  0  0  0
 28 29  1  0  0  0
 29 30  1  0  0  0
 29 53  1  0  0  0
 29 54  1  0  0  0
 31 55  1  0  0  0
 31 56  1  0  0  0
M  END
> <i_i_glide_confnum>
1

> <i_i_glide_lignum>
4262

> <i_i_glide_posenum>
349

> <i_i_glide_rotatable_bonds>
6

> <i_m_Source_File_Index>
5799

> <b_m_subgroup_collapsed>
0

> <r_i_docking_score>
-6.05259

> <r_i_glide_ecoul>
-1.05644

> <r_i_glide_eff_state_penalty>
0

> <r_i_glide_einternal>
1.09709

> <r_i_glide_emodel>
-64.5064

> <r_i_glide_energy>
-46.8007

> <r_i_glide_erotb>
0.327277

> <r_i_glide_esite>
-0.0157719

> <r_i_glide_evdw>
-45.7442

> <r_i_glide_gscore>
-6.05259

> <r_i_glide_hbond>
-0.32

> <r_i_glide_ligand_efficiency>
-0.201753

> <r_i_glide_ligand_efficiency_ln>
-1.37521

> <r_i_glide_ligand_efficiency_sa>
-0.626893

> <r_i_glide_lipo>
-2.35016

> <r_i_glide_metal>
0

> <r_i_glide_rewards>
-1.24825

> <s_i_glide_gridfile>
wee1_glide-grid

> <s_m_Source_File>
wee1_decoys_glide_SP.sdf

> <s_m_Source_Path>
/Users/zhangxujun/Desktop

> <s_m_entry_id>
6074

> <s_m_entry_name>
wee1_decoys_glide_SP.5799

> <s_m_subgroup_title>
wee1_decoys_glide_SP

> <s_m_subgroupid>
wee1_decoys_glide_SP


$$$$
