ZINC13632786_2855
                    3D
 Schrodinger Suite 2024-2.
 68 70  0  0  1  0            999 V2000
   10.1050   56.5405   17.3982 C   0  0  0  0  0  0
    8.7311   55.8573   17.1658 C   0  0  0  0  0  0
    7.9243   56.7714   16.2084 C   0  0  0  0  0  0
    8.9961   54.4975   16.4748 C   0  0  0  0  0  0
    7.9344   55.6239   18.4749 C   0  0  0  0  0  0
    8.4597   55.9341   19.7367 C   0  0  0  0  0  0
    7.7247   55.6966   20.8941 C   0  0  0  0  0  0
    6.4394   55.1370   20.8232 C   0  0  0  0  0  0
    5.9087   54.8374   19.5612 C   0  0  0  0  0  0
    6.6478   55.0723   18.4067 C   0  0  0  0  0  0
    5.6289   54.8200   22.0631 C   0  0  0  0  0  0
    4.4450   54.4938   21.9515 O   0  0  0  0  0  0
    6.2829   54.8901   23.2476 N   0  0  0  0  0  0
    5.7694   54.6728   24.5427 C   0  0  0  0  0  0
    6.7047   54.4607   25.5510 C   0  0  0  0  0  0
    6.2984   54.1547   26.8480 C   0  0  0  0  0  0
    4.9376   54.0972   27.1511 C   0  0  0  0  0  0
    3.9943   54.4352   26.1717 C   0  0  0  0  0  0
    4.4051   54.6830   24.8689 C   0  0  0  0  0  0
    4.5782   53.6847   28.4489 N   0  0  0  0  0  0
    3.5380   52.8985   28.8640 C   0  0  0  0  0  0
    3.5042   52.4966   30.4808 S   0  0  0  0  0  0
    2.6472   52.5148   27.8953 N   0  0  0  0  0  0
    1.4903   51.8140   27.9030 C   0  0  0  0  0  0
    0.9643   51.2982   28.8860 O   0  0  0  0  0  0
    0.9024   51.7716   26.5868 C   0  0  0  0  0  0
   -0.1643   51.0047   26.2736 C   0  0  0  0  0  0
   -0.8112   50.9497   24.9431 C   0  0  0  0  0  0
   -2.0448   50.3087   24.8213 C   0  0  0  0  0  0
   -2.7113   50.2734   23.5986 C   0  0  0  0  0  0
   -2.1564   50.8797   22.4587 C   0  0  0  0  0  0
   -0.9090   51.5174   22.5605 C   0  0  0  0  0  0
   -0.2500   51.5415   23.8025 C   0  0  0  0  0  0
   -0.3895   52.0947   21.4121 O   0  0  0  0  0  0
    0.9586   52.5596   21.4010 C   0  0  0  0  0  0
   -2.7724   50.8816   21.2183 O   0  0  0  0  0  0
   -3.9694   50.1320   21.0288 C   0  0  0  0  0  0
   10.6362   56.7052   16.4592 H   0  0  0  0  0  0
   10.7586   55.9302   18.0246 H   0  0  0  0  0  0
    9.9973   57.5151   17.8777 H   0  0  0  0  0  0
    6.9812   56.3189   15.9028 H   0  0  0  0  0  0
    7.6890   57.7292   16.6750 H   0  0  0  0  0  0
    8.4785   56.9846   15.2936 H   0  0  0  0  0  0
    8.0709   53.9894   16.2035 H   0  0  0  0  0  0
    9.5731   54.6160   15.5569 H   0  0  0  0  0  0
    9.5578   53.8232   17.1251 H   0  0  0  0  0  0
    9.4473   56.3562   19.8488 H   0  0  0  0  0  0
    8.1855   55.9489   21.8389 H   0  0  0  0  0  0
    4.9263   54.3962   19.4611 H   0  0  0  0  0  0
    6.2137   54.8074   17.4533 H   0  0  0  0  0  0
    7.2756   55.0670   23.2038 H   0  0  0  0  0  0
    7.7559   54.4968   25.3144 H   0  0  0  0  0  0
    7.0394   53.9360   27.6039 H   0  0  0  0  0  0
    2.9388   54.4888   26.3907 H   0  0  0  0  0  0
    3.6453   54.8993   24.1353 H   0  0  0  0  0  0
    5.2535   53.9179   29.1621 H   0  0  0  0  0  0
    2.9437   52.7632   26.9658 H   0  0  0  0  0  0
    1.3621   52.4046   25.8422 H   0  0  0  0  0  0
   -0.6024   50.3661   27.0346 H   0  0  0  0  0  0
   -2.5004   49.8366   25.6808 H   0  0  0  0  0  0
   -3.6652   49.7702   23.5581 H   0  0  0  0  0  0
    0.7059   52.0305   23.8781 H   0  0  0  0  0  0
    1.2111   52.8966   20.3949 H   0  0  0  0  0  0
    1.1038   53.4078   22.0722 H   0  0  0  0  0  0
    1.6603   51.7667   21.6685 H   0  0  0  0  0  0
   -4.2889   50.2279   19.9918 H   0  0  0  0  0  0
   -3.8121   49.0716   21.2290 H   0  0  0  0  0  0
   -4.7820   50.4993   21.6573 H   0  0  0  0  0  0
  1  2  1  0  0  0
  1 38  1  0  0  0
  1 39  1  0  0  0
  1 40  1  0  0  0
  2  3  1  0  0  0
  2  4  1  0  0  0
  2  5  1  0  0  0
  3 41  1  0  0  0
  3 42  1  0  0  0
  3 43  1  0  0  0
  4 44  1  0  0  0
  4 45  1  0  0  0
  4 46  1  0  0  0
  5 10  2  0  0  0
  5  6  1  0  0  0
  6  7  2  0  0  0
  6 47  1  0  0  0
  7  8  1  0  0  0
  7 48  1  0  0  0
  8  9  2  0  0  0
  8 11  1  0  0  0
  9 10  1  0  0  0
  9 49  1  0  0  0
 10 50  1  0  0  0
 11 12  2  0  0  0
 11 13  1  0  0  0
 13 14  1  0  0  0
 13 51  1  0  0  0
 14 19  2  0  0  0
 14 15  1  0  0  0
 15 16  2  0  0  0
 15 52  1  0  0  0
 16 17  1  0  0  0
 16 53  1  0  0  0
 17 18  2  0  0  0
 17 20  1  0  0  0
 18 19  1  0  0  0
 18 54  1  0  0  0
 19 55  1  0  0  0
 20 21  1  0  0  0
 20 56  1  0  0  0
 21 22  2  0  0  0
 21 23  1  0  0  0
 23 24  1  0  0  0
 23 57  1  0  0  0
 24 25  2  0  0  0
 24 26  1  0  0  0
 26 27  2  0  0  0
 26 58  1  0  0  0
 27 28  1  0  0  0
 27 59  1  0  0  0
 28 33  2  0  0  0
 28 29  1  0  0  0
 29 30  2  0  0  0
 29 60  1  0  0  0
 30 31  1  0  0  0
 30 61  1  0  0  0
 31 32  2  0  0  0
 31 36  1  0  0  0
 32 33  1  0  0  0
 32 34  1  0  0  0
 33 62  1  0  0  0
 34 35  1  0  0  0
 35 63  1  0  0  0
 35 64  1  0  0  0
 35 65  1  0  0  0
 36 37  1  0  0  0
 37 66  1  0  0  0
 37 67  1  0  0  0
 37 68  1  0  0  0
M  END
> <i_i_glide_confnum>
127

> <i_i_glide_lignum>
2856

> <i_i_glide_posenum>
136

> <i_i_glide_rotatable_bonds>
12

> <i_m_Source_File_Index>
3429

> <b_m_subgroup_collapsed>
0

> <r_i_docking_score>
-6.1282

> <r_i_glide_ecoul>
-7.28842

> <r_i_glide_eff_state_penalty>
0

> <r_i_glide_einternal>
9.423

> <r_i_glide_emodel>
-70.2725

> <r_i_glide_energy>
-54.8387

> <r_i_glide_erotb>
0.689676

> <r_i_glide_esite>
0

> <r_i_glide_evdw>
-47.5502

> <r_i_glide_gscore>
-6.1282

> <r_i_glide_hbond>
0

> <r_i_glide_ligand_efficiency>
-0.165627

> <r_i_glide_ligand_efficiency_ln>
-1.32906

> <r_i_glide_ligand_efficiency_sa>
-0.551906

> <r_i_glide_lipo>
-2.48684

> <r_i_glide_metal>
0

> <r_i_glide_rewards>
-0.860259

> <s_i_glide_gridfile>
wee1_glide-grid

> <s_m_Source_File>
wee1_decoys_glide_SP.sdf

> <s_m_Source_Path>
/Users/zhangxujun/Desktop

> <s_m_entry_id>
3704

> <s_m_entry_name>
wee1_decoys_glide_SP.3429

> <s_m_subgroup_title>
wee1_decoys_glide_SP

> <s_m_subgroupid>
wee1_decoys_glide_SP


$$$$
