ZINC20682281_2496
                    3D
 Schrodinger Suite 2024-2.
 55 58  0  0  1  0            999 V2000
    6.1867   53.7543   27.8452 C   0  0  0  0  0  0
    4.8699   54.2490   28.4694 C   0  0  0  0  0  0
    3.7864   53.1582   28.6337 C   0  0  1  0  0  0
    3.6554   52.6752   27.6642 H   0  0  0  0  0  0
    4.1729   52.0972   29.6773 C   0  0  0  0  0  0
    2.5024   53.8048   28.9872 N   0  0  0  0  0  0
    0.9827   52.9078   28.8999 S   0  0  0  0  0  0
    1.0809   51.7292   29.7616 O   0  0  0  0  0  0
   -0.0954   53.8839   29.0752 O   0  0  0  0  0  0
    0.8645   52.3081   27.2232 C   0  0  0  0  0  0
    0.3228   51.0521   26.9481 C   0  0  0  0  0  0
    0.3044   50.5812   25.6371 C   0  0  0  0  0  0
    0.8343   51.3573   24.6017 C   0  0  0  0  0  0
    1.2905   52.6662   24.8542 C   0  0  0  0  0  0
    1.3197   53.1069   26.1795 C   0  0  0  0  0  0
    1.7331   53.6022   23.7334 C   0  0  1  0  0  0
    1.0153   54.4230   23.7207 H   0  0  0  0  0  0
    3.1430   54.1401   23.8944 C   0  0  0  0  0  0
    3.9675   53.6965   22.9316 C   0  0  0  0  0  0
    3.2542   52.7704   21.9730 C   0  0  0  0  0  0
    1.7745   52.9371   22.3553 C   0  0  1  0  0  0
    1.3907   53.6966   21.6814 H   0  0  0  0  0  0
    0.8187   51.7236   22.1566 C   0  0  2  0  0  0
   -0.1986   52.1180   22.1534 H   0  0  0  0  0  0
    0.8322   50.8200   23.3057 N   0  0  0  0  0  0
    0.9960   51.0599   20.7818 C   0  0  0  0  0  0
    0.2353   51.5547   19.7124 C   0  0  0  0  0  0
    0.3832   51.0302   18.4292 C   0  0  0  0  0  0
    1.3130   50.0216   18.1949 C   0  0  0  0  0  0
    2.0743   49.5160   19.2446 C   0  0  0  0  0  0
    1.9166   50.0185   20.5329 C   0  0  0  0  0  0
    2.7018   49.4774   21.5159 O   0  0  0  0  0  0
    1.5047   49.5432   16.9293 O   0  0  0  0  0  0
    6.8744   54.5854   27.6843 H   0  0  0  0  0  0
    6.0123   53.2797   26.8782 H   0  0  0  0  0  0
    6.6984   53.0345   28.4817 H   0  0  0  0  0  0
    5.0749   54.7266   29.4297 H   0  0  0  0  0  0
    4.4819   55.0403   27.8267 H   0  0  0  0  0  0
    5.1044   51.6163   29.4044 H   0  0  0  0  0  0
    4.2808   52.5194   30.6773 H   0  0  0  0  0  0
    3.4427   51.2957   29.7224 H   0  0  0  0  0  0
    2.4198   54.7703   28.6638 H   0  0  0  0  0  0
   -0.0739   50.4354   27.7426 H   0  0  0  0  0  0
   -0.0905   49.5941   25.4411 H   0  0  0  0  0  0
    1.6936   54.0965   26.3959 H   0  0  0  0  0  0
    3.4143   54.8066   24.7000 H   0  0  0  0  0  0
    5.0159   53.9355   22.8259 H   0  0  0  0  0  0
    3.6108   51.7488   22.0821 H   0  0  0  0  0  0
    3.4236   53.0639   20.9355 H   0  0  0  0  0  0
    0.4538   49.9022   23.1245 H   0  0  0  0  0  0
   -0.4624   52.3647   19.8685 H   0  0  0  0  0  0
   -0.1996   51.4239   17.6087 H   0  0  0  0  0  0
    2.8021   48.7416   19.0434 H   0  0  0  0  0  0
    3.3385   48.8390   21.1765 H   0  0  0  0  0  0
    2.4420   49.2966   16.8047 H   0  0  0  0  0  0
  1  2  1  0  0  0
  1 34  1  0  0  0
  1 35  1  0  0  0
  1 36  1  0  0  0
  2  3  1  0  0  0
  2 37  1  0  0  0
  2 38  1  0  0  0
  3  4  1  0  0  0
  3  5  1  0  0  0
  3  6  1  0  0  0
  5 39  1  0  0  0
  5 40  1  0  0  0
  5 41  1  0  0  0
  6  7  1  0  0  0
  6 42  1  0  0  0
  7  8  2  0  0  0
  7  9  2  0  0  0
  7 10  1  0  0  0
 10 15  2  0  0  0
 10 11  1  0  0  0
 11 12  2  0  0  0
 11 43  1  0  0  0
 12 13  1  0  0  0
 12 44  1  0  0  0
 13 25  1  0  0  0
 13 14  2  0  0  0
 14 15  1  0  0  0
 14 16  1  0  0  0
 15 45  1  0  0  0
 16 17  1  0  0  0
 16 21  1  0  0  0
 16 18  1  0  0  0
 18 19  2  0  0  0
 18 46  1  0  0  0
 19 20  1  0  0  0
 19 47  1  0  0  0
 20 21  1  0  0  0
 20 48  1  0  0  0
 20 49  1  0  0  0
 21 22  1  0  0  0
 21 23  1  0  0  0
 23 24  1  0  0  0
 23 25  1  0  0  0
 23 26  1  0  0  0
 25 50  1  0  0  0
 26 31  2  0  0  0
 26 27  1  0  0  0
 27 28  2  0  0  0
 27 51  1  0  0  0
 28 29  1  0  0  0
 28 52  1  0  0  0
 29 30  2  0  0  0
 29 33  1  0  0  0
 30 31  1  0  0  0
 30 53  1  0  0  0
 31 32  1  0  0  0
 32 54  1  0  0  0
 33 55  1  0  0  0
M  END
> <i_i_glide_confnum>
24

> <i_i_glide_lignum>
2497

> <i_i_glide_posenum>
279

> <i_i_glide_rotatable_bonds>
7

> <i_m_Source_File_Index>
3232

> <b_m_subgroup_collapsed>
0

> <r_i_docking_score>
-5.65213

> <r_i_glide_ecoul>
-9.43499

> <r_i_glide_eff_state_penalty>
0

> <r_i_glide_einternal>
6.89487

> <r_i_glide_emodel>
-55.9191

> <r_i_glide_energy>
-45.5385

> <r_i_glide_erotb>
0.459495

> <r_i_glide_esite>
-0.00720334

> <r_i_glide_evdw>
-36.1035

> <r_i_glide_gscore>
-5.65213

> <r_i_glide_hbond>
-0.456

> <r_i_glide_ligand_efficiency>
-0.194901

> <r_i_glide_ligand_efficiency_ln>
-1.29419

> <r_i_glide_ligand_efficiency_sa>
-0.598797

> <r_i_glide_lipo>
-2.35756

> <r_i_glide_metal>
0

> <r_i_glide_rewards>
-0.0704304

> <s_i_glide_gridfile>
wee1_glide-grid

> <s_m_Source_File>
wee1_decoys_glide_SP.sdf

> <s_m_Source_Path>
/Users/zhangxujun/Desktop

> <s_m_entry_id>
3507

> <s_m_entry_name>
wee1_decoys_glide_SP.3232

> <s_m_subgroup_title>
wee1_decoys_glide_SP

> <s_m_subgroupid>
wee1_decoys_glide_SP


$$$$
