ZINC53735903_1757
                    3D
 Schrodinger Suite 2024-2.
 37 39  0  0  1  0            999 V2000
    1.3042   56.5026   30.4809 C   0  0  0  0  0  0
    1.4228   55.2199   29.6770 C   0  0  0  0  0  0
    0.7072   54.0806   30.0519 C   0  0  0  0  0  0
    0.7623   52.9344   29.2603 C   0  0  0  0  0  0
    1.5408   52.9096   28.1016 C   0  0  0  0  0  0
    2.3047   54.0336   27.7414 C   0  0  0  0  0  0
    2.2051   55.1930   28.5224 C   0  0  0  0  0  0
    3.1122   54.0569   26.5727 N   0  0  0  0  0  0
    2.7118   53.7299   25.2818 C   0  0  0  0  0  0
    1.5053   53.2977   24.7130 C   0  0  0  0  0  0
    1.5116   53.0417   23.3389 C   0  0  0  0  0  0
    2.6539   53.2187   22.5593 C   0  0  0  0  0  0
    3.8375   53.6969   23.1097 C   0  0  0  0  0  0
    3.8637   53.9464   24.4859 C   0  0  0  0  0  0
    4.9160   54.3573   25.2412 N   0  0  0  0  0  0
    4.4690   54.3804   26.4747 C   0  0  0  0  0  0
    5.3939   54.6341   27.6728 C   0  0  1  0  0  0
    4.9116   55.2809   28.4040 H   0  0  0  0  0  0
    5.8171   53.3275   28.3539 C   0  0  0  0  0  0
    6.5908   55.2957   27.2818 O   0  0  0  0  0  0
    2.6304   52.8963   21.2082 N   0  0  0  0  0  0
    1.5366   51.7892   27.3498 F   0  0  0  0  0  0
    0.3030   56.6225   30.8769 H   0  0  0  0  0  0
    1.5045   57.3826   29.8673 H   0  0  0  0  0  0
    1.9825   56.5007   31.3259 H   0  0  0  0  0  0
    0.0899   54.0855   30.9401 H   0  0  0  0  0  0
    0.1879   52.0613   29.5376 H   0  0  0  0  0  0
    2.7062   56.0966   28.2249 H   0  0  0  0  0  0
    0.6159   53.1367   25.3041 H   0  0  0  0  0  0
    0.6091   52.6690   22.8753 H   0  0  0  0  0  0
    4.7204   53.8414   22.5045 H   0  0  0  0  0  0
    4.9675   52.8122   28.7987 H   0  0  0  0  0  0
    6.2831   52.6427   27.6441 H   0  0  0  0  0  0
    6.5472   53.5160   29.1400 H   0  0  0  0  0  0
    7.0891   55.4927   28.0901 H   0  0  0  0  0  0
    3.4707   53.0955   20.6863 H   0  0  0  0  0  0
    1.7491   53.0320   20.7266 H   0  0  0  0  0  0
  1  2  1  0  0  0
  1 23  1  0  0  0
  1 24  1  0  0  0
  1 25  1  0  0  0
  2  7  2  0  0  0
  2  3  1  0  0  0
  3  4  2  0  0  0
  3 26  1  0  0  0
  4  5  1  0  0  0
  4 27  1  0  0  0
  5  6  2  0  0  0
  5 22  1  0  0  0
  6  7  1  0  0  0
  6  8  1  0  0  0
  7 28  1  0  0  0
  8 16  1  0  0  0
  8  9  1  0  0  0
  9 14  2  0  0  0
  9 10  1  0  0  0
 10 11  2  0  0  0
 10 29  1  0  0  0
 11 12  1  0  0  0
 11 30  1  0  0  0
 12 13  2  0  0  0
 12 21  1  0  0  0
 13 14  1  0  0  0
 13 31  1  0  0  0
 14 15  1  0  0  0
 15 16  2  0  0  0
 16 17  1  0  0  0
 17 18  1  0  0  0
 17 19  1  0  0  0
 17 20  1  0  0  0
 19 32  1  0  0  0
 19 33  1  0  0  0
 19 34  1  0  0  0
 20 35  1  0  0  0
 21 36  1  0  0  0
 21 37  1  0  0  0
M  END
> <i_i_glide_confnum>
6

> <i_i_glide_lignum>
1758

> <i_i_glide_posenum>
52

> <i_i_glide_rotatable_bonds>
3

> <i_m_Source_File_Index>
3568

> <b_m_subgroup_collapsed>
0

> <r_i_docking_score>
-8.13467

> <r_i_glide_ecoul>
-5.36922

> <r_i_glide_eff_state_penalty>
0

> <r_i_glide_einternal>
1.42526

> <r_i_glide_emodel>
-56.7682

> <r_i_glide_energy>
-39.027

> <r_i_glide_erotb>
0.44571

> <r_i_glide_esite>
-0.0186422

> <r_i_glide_evdw>
-33.6578

> <r_i_glide_gscore>
-8.13467

> <r_i_glide_hbond>
-0.394109

> <r_i_glide_ligand_efficiency>
-0.387365

> <r_i_glide_ligand_efficiency_ln>
-2.01128

> <r_i_glide_ligand_efficiency_sa>
-1.06871

> <r_i_glide_lipo>
-3.4538

> <r_i_glide_metal>
0

> <r_i_glide_rewards>
-2.22556

> <s_i_glide_gridfile>
wee1_glide-grid

> <s_m_Source_File>
wee1_decoys_glide_SP.sdf

> <s_m_Source_Path>
/Users/zhangxujun/Desktop

> <s_m_entry_id>
3843

> <s_m_entry_name>
wee1_decoys_glide_SP.3568

> <s_m_subgroup_title>
wee1_decoys_glide_SP

> <s_m_subgroupid>
wee1_decoys_glide_SP


$$$$
