ZINC38984178_3481
                    3D
 Schrodinger Suite 2024-2.
 53 56  0  0  1  0            999 V2000
    3.3664   52.6462   29.3362 C   0  0  0  0  0  0
    2.5677   52.6830   28.0453 C   0  0  0  0  0  0
    1.3046   52.0964   27.9735 C   0  0  0  0  0  0
    0.5771   52.1542   26.7874 C   0  0  0  0  0  0
    1.0993   52.7867   25.6527 C   0  0  0  0  0  0
    2.4024   53.3269   25.6967 C   0  0  0  0  0  0
    3.1057   53.2967   26.9116 C   0  0  0  0  0  0
    3.1826   54.1428   24.2753 S   0  0  0  0  0  0
    4.5459   54.4380   24.7355 O   0  0  0  0  0  0
    2.3044   55.2857   24.0817 O   0  0  0  0  0  0
    2.9975   52.8967   23.0659 N   0  0  0  0  0  0
    3.6243   53.0307   21.9667 C   0  0  0  0  0  0
    3.5097   51.8541   20.9259 C   0  0  2  0  0  0
    4.0282   50.9972   21.3525 H   0  0  0  0  0  0
    4.3044   52.0967   19.6817 N   0  3  0  0  0  0
    5.0442   53.1755   19.4606 C   0  0  0  0  0  0
    5.7921   53.2967   18.2881 C   0  0  0  0  0  0
    6.5516   54.4075   18.0948 C   0  0  0  0  0  0
    6.6116   55.4896   19.0798 C   0  0  0  0  0  0
    5.9045   55.3929   20.2316 C   0  0  0  0  0  0
    5.0723   54.2498   20.5427 C   0  0  0  0  0  0
    4.4271   54.1340   21.6447 N   0  0  0  0  0  0
    2.1312   51.4299   20.6340 N   0  0  0  0  0  0
    1.3396   50.6811   21.5257 C   0  0  0  0  0  0
   -0.0328   50.6053   21.2815 C   0  0  0  0  0  0
   -0.8820   49.9956   22.2057 C   0  0  0  0  0  0
   -0.3644   49.4676   23.3952 C   0  0  0  0  0  0
    1.0188   49.4858   23.6001 C   0  0  0  0  0  0
    1.8650   50.0648   22.6652 C   0  0  0  0  0  0
   -1.2804   48.8968   24.4490 C   0  0  0  0  0  0
   -2.4464   48.5851   24.2183 O   0  0  0  0  0  0
   -0.7091   48.8017   25.6817 O   0  0  0  0  0  0
    0.1858   52.9302   24.4413 C   0  0  0  0  0  0
    2.8114   52.1838   30.1533 H   0  0  0  0  0  0
    4.2955   52.0944   29.1881 H   0  0  0  0  0  0
    3.6363   53.6587   29.6386 H   0  0  0  0  0  0
    0.8737   51.6069   28.8356 H   0  0  0  0  0  0
   -0.4124   51.7199   26.7635 H   0  0  0  0  0  0
    4.0909   53.7341   26.9844 H   0  0  0  0  0  0
    5.7683   52.5022   17.5516 H   0  0  0  0  0  0
    7.1347   54.4918   17.1877 H   0  0  0  0  0  0
    7.2185   56.3623   18.8817 H   0  0  0  0  0  0
    5.9643   56.2063   20.9402 H   0  0  0  0  0  0
    1.6546   51.9071   19.8809 H   0  0  0  0  0  0
   -0.4538   51.0550   20.3942 H   0  0  0  0  0  0
   -1.9456   49.9779   22.0103 H   0  0  0  0  0  0
    1.4573   49.0708   24.4976 H   0  0  0  0  0  0
    2.9204   50.0699   22.8817 H   0  0  0  0  0  0
   -1.2956   48.4957   26.3855 H   0  0  0  0  0  0
   -0.8474   52.6711   24.6752 H   0  0  0  0  0  0
    0.1715   53.9582   24.0817 H   0  0  0  0  0  0
    0.5131   52.3011   23.6211 H   0  0  0  0  0  0
    4.3722   51.3464   18.9827 H   0  0  0  0  0  0
  1  2  1  0  0  0
  1 34  1  0  0  0
  1 35  1  0  0  0
  1 36  1  0  0  0
  2  7  2  0  0  0
  2  3  1  0  0  0
  3  4  2  0  0  0
  3 37  1  0  0  0
  4  5  1  0  0  0
  4 38  1  0  0  0
  5  6  2  0  0  0
  5 33  1  0  0  0
  6  7  1  0  0  0
  6  8  1  0  0  0
  7 39  1  0  0  0
  8  9  2  0  0  0
  8 10  2  0  0  0
  8 11  1  0  0  0
 11 12  2  0  0  0
 12 22  1  0  0  0
 12 13  1  0  0  0
 13 14  1  0  0  0
 13 15  1  0  0  0
 13 23  1  0  0  0
 15 16  2  0  0  0
 15 53  1  0  0  0
 16 21  1  0  0  0
 16 17  1  0  0  0
 17 18  2  0  0  0
 17 40  1  0  0  0
 18 19  1  0  0  0
 18 41  1  0  0  0
 19 20  2  0  0  0
 19 42  1  0  0  0
 20 21  1  0  0  0
 20 43  1  0  0  0
 21 22  2  0  0  0
 23 24  1  0  0  0
 23 44  1  0  0  0
 24 29  2  0  0  0
 24 25  1  0  0  0
 25 26  2  0  0  0
 25 45  1  0  0  0
 26 27  1  0  0  0
 26 46  1  0  0  0
 27 28  2  0  0  0
 27 30  1  0  0  0
 28 29  1  0  0  0
 28 47  1  0  0  0
 29 48  1  0  0  0
 30 31  2  0  0  0
 30 32  1  0  0  0
 32 49  1  0  0  0
 33 50  1  0  0  0
 33 51  1  0  0  0
 33 52  1  0  0  0
M  CHG  1  15   1
M  END
> <i_i_glide_confnum>
11

> <i_i_glide_lignum>
3482

> <i_i_glide_posenum>
255

> <i_i_glide_rotatable_bonds>
6

> <i_m_Source_File_Index>
1004

> <b_m_subgroup_collapsed>
0

> <r_i_docking_score>
-4.11362

> <r_i_glide_ecoul>
-8.09628

> <r_i_glide_eff_state_penalty>
0

> <r_i_glide_einternal>
14.8004

> <r_i_glide_emodel>
-41.1193

> <r_i_glide_energy>
-37.3076

> <r_i_glide_erotb>
0.495944

> <r_i_glide_esite>
-0.151827

> <r_i_glide_evdw>
-29.2113

> <r_i_glide_gscore>
-4.11362

> <r_i_glide_hbond>
-0.182303

> <r_i_glide_ligand_efficiency>
-0.128551

> <r_i_glide_ligand_efficiency_ln>
-0.921152

> <r_i_glide_ligand_efficiency_sa>
-0.408123

> <r_i_glide_lipo>
-1.52773

> <r_i_glide_metal>
0

> <r_i_glide_rewards>
-0.0726995

> <s_i_glide_gridfile>
wee1_glide-grid

> <s_m_Source_File>
wee1_decoys_glide_SP.sdf

> <s_m_Source_Path>
/Users/zhangxujun/Desktop

> <s_m_entry_id>
1279

> <s_m_entry_name>
wee1_decoys_glide_SP.1004

> <s_m_subgroup_title>
wee1_decoys_glide_SP

> <s_m_subgroupid>
wee1_decoys_glide_SP


$$$$
