ZINC12973203_1120
                    3D
 Schrodinger Suite 2024-2.
 51 54  0  0  1  0            999 V2000
   -2.5884   48.0884   22.5105 C   0  0  0  0  0  0
   -2.8744   47.9643   23.8700 C   0  0  0  0  0  0
   -1.9105   48.3063   24.8183 C   0  0  0  0  0  0
   -0.6623   48.7820   24.4131 C   0  0  0  0  0  0
   -0.3691   48.9110   23.0458 C   0  0  0  0  0  0
   -1.3402   48.5558   22.0973 C   0  0  0  0  0  0
    0.8927   49.3672   22.6342 N   0  0  0  0  0  0
    1.1189   50.4292   21.8300 C   0  0  0  0  0  0
    0.2263   51.1444   21.3704 O   0  0  0  0  0  0
    2.5953   50.7301   21.5308 C   0  0  0  0  0  0
    2.8605   52.0052   19.2636 C   0  0  0  0  0  0
    3.4971   53.3309   18.8399 C   0  0  0  0  0  0
    4.2180   53.9115   20.0648 C   0  0  0  0  0  0
    3.9891   52.9309   21.2240 C   0  0  1  0  0  0
    4.7894   52.1850   21.2409 H   0  0  0  0  0  0
    3.8547   53.5270   22.6308 C   0  0  0  0  0  0
    2.6128   53.6557   23.2652 C   0  0  0  0  0  0
    2.5377   54.0961   24.5812 C   0  0  0  0  0  0
    3.6873   54.4474   25.2871 C   0  0  0  0  0  0
    4.9413   54.3622   24.6528 C   0  0  0  0  0  0
    5.0077   53.9105   23.3297 C   0  0  0  0  0  0
    6.1028   54.7229   25.2973 O   0  0  0  0  0  0
    6.4505   53.9673   26.4536 C   0  0  0  0  0  0
    5.6660   54.3424   27.7138 C   0  0  0  0  0  0
    4.1567   54.1035   27.5930 C   0  0  0  0  0  0
    3.5521   54.8965   26.5797 O   0  0  0  0  0  0
    0.7044   49.2969   25.9119 I   0  0  0  0  0  0
   -3.3345   47.8231   21.7759 H   0  0  0  0  0  0
   -3.8412   47.6047   24.1919 H   0  0  0  0  0  0
   -2.1244   48.2082   25.8750 H   0  0  0  0  0  0
   -1.1312   48.6473   21.0410 H   0  0  0  0  0  0
    1.6823   48.9075   23.0672 H   0  0  0  0  0  0
    3.1097   50.8298   22.4817 H   0  0  0  0  0  0
    3.0836   49.9531   20.9396 H   0  0  0  0  0  0
    3.5041   51.1543   19.0325 H   0  0  0  0  0  0
    1.8649   51.8115   18.8601 H   0  0  0  0  0  0
    4.1920   53.1661   18.0156 H   0  0  0  0  0  0
    2.7324   54.0210   18.4786 H   0  0  0  0  0  0
    5.2837   54.0543   19.8744 H   0  0  0  0  0  0
    3.7997   54.8946   20.2952 H   0  0  0  0  0  0
    1.6944   53.3909   22.7618 H   0  0  0  0  0  0
    1.5740   54.1676   25.0630 H   0  0  0  0  0  0
    5.9755   53.8353   22.8564 H   0  0  0  0  0  0
    7.5048   54.1496   26.6435 H   0  0  0  0  0  0
    6.3799   52.8968   26.2580 H   0  0  0  0  0  0
    5.8566   55.3866   27.9586 H   0  0  0  0  0  0
    6.0532   53.7696   28.5566 H   0  0  0  0  0  0
    3.6804   54.3738   28.5364 H   0  0  0  0  0  0
    3.9301   53.0429   27.4486 H   0  0  0  0  0  0
    2.7596   52.0943   20.7978 N   0  3  2  0  0  0
    1.9339   52.6434   21.0050 H   0  0  0  0  0  0
  1  6  2  0  0  0
  1  2  1  0  0  0
  1 28  1  0  0  0
  2  3  2  0  0  0
  2 29  1  0  0  0
  3  4  1  0  0  0
  3 30  1  0  0  0
  4  5  2  0  0  0
  4 27  1  0  0  0
  5  6  1  0  0  0
  5  7  1  0  0  0
  6 31  1  0  0  0
  7  8  1  0  0  0
  7 32  1  0  0  0
  8  9  2  0  0  0
  8 10  1  0  0  0
 10 33  1  0  0  0
 10 34  1  0  0  0
 10 50  1  0  0  0
 11 12  1  0  0  0
 11 35  1  0  0  0
 11 36  1  0  0  0
 11 50  1  0  0  0
 12 13  1  0  0  0
 12 37  1  0  0  0
 12 38  1  0  0  0
 13 14  1  0  0  0
 13 39  1  0  0  0
 13 40  1  0  0  0
 14 15  1  0  0  0
 14 16  1  0  0  0
 14 50  1  0  0  0
 16 21  2  0  0  0
 16 17  1  0  0  0
 17 18  2  0  0  0
 17 41  1  0  0  0
 18 19  1  0  0  0
 18 42  1  0  0  0
 19 26  1  0  0  0
 19 20  2  0  0  0
 20 21  1  0  0  0
 20 22  1  0  0  0
 21 43  1  0  0  0
 22 23  1  0  0  0
 23 24  1  0  0  0
 23 44  1  0  0  0
 23 45  1  0  0  0
 24 25  1  0  0  0
 24 46  1  0  0  0
 24 47  1  0  0  0
 25 26  1  0  0  0
 25 48  1  0  0  0
 25 49  1  0  0  0
 50 51  1  0  0  0
M  CHG  1  50   1
M  END
> <i_i_glide_confnum>
150

> <i_i_glide_lignum>
1121

> <i_i_glide_posenum>
47

> <i_i_glide_rotatable_bonds>
5

> <i_m_Source_File_Index>
4126

> <b_m_subgroup_collapsed>
0

> <r_i_docking_score>
-4.84233

> <r_i_glide_ecoul>
-3.93438

> <r_i_glide_eff_state_penalty>
0

> <r_i_glide_einternal>
3.17729

> <r_i_glide_emodel>
-49.7833

> <r_i_glide_energy>
-38.1262

> <r_i_glide_erotb>
0.352909

> <r_i_glide_esite>
-0.00838558

> <r_i_glide_evdw>
-34.1918

> <r_i_glide_gscore>
-4.84233

> <r_i_glide_hbond>
-0.0731485

> <r_i_glide_ligand_efficiency>
-0.179346

> <r_i_glide_ligand_efficiency_ln>
-1.12722

> <r_i_glide_ligand_efficiency_sa>
-0.538037

> <r_i_glide_lipo>
-2.50376

> <r_i_glide_metal>
0

> <r_i_glide_rewards>
-0.310195

> <s_i_glide_gridfile>
wee1_glide-grid

> <s_m_Source_File>
wee1_decoys_glide_SP.sdf

> <s_m_Source_Path>
/Users/zhangxujun/Desktop

> <s_m_entry_id>
4401

> <s_m_entry_name>
wee1_decoys_glide_SP.4126

> <s_m_subgroup_title>
wee1_decoys_glide_SP

> <s_m_subgroupid>
wee1_decoys_glide_SP


$$$$
