ZINC08411495_2812
                    3D
 Schrodinger Suite 2024-2.
 53 55  0  0  1  0            999 V2000
    2.4654   51.4445   19.1555 C   0  0  0  0  0  0
    1.5814   50.9155   20.2987 C   0  0  0  0  0  0
    0.0936   51.1055   19.9196 C   0  0  0  0  0  0
    1.9053   49.4248   20.5562 C   0  0  0  0  0  0
    1.9373   51.7342   21.4254 O   0  0  0  0  0  0
    1.3958   51.6387   22.6787 C   0  0  0  0  0  0
    0.5760   50.7739   22.9963 O   0  0  0  0  0  0
    1.8868   52.6399   23.5397 N   0  0  0  0  0  0
    2.7890   53.6940   23.0486 C   0  0  0  0  0  0
    3.5905   54.2236   24.2253 C   0  0  0  0  0  0
    3.3709   53.9774   25.5391 C   0  0  0  0  0  0
    2.1924   53.0891   25.9944 C   0  0  2  0  0  0
    2.6185   52.1250   26.2436 H   0  0  0  0  0  0
    1.1939   52.8499   24.8195 C   0  0  0  0  0  0
    1.5724   53.6189   27.3478 C   0  0  2  0  0  0
    1.1072   54.5750   27.1103 H   0  0  0  0  0  0
    2.7024   53.9212   28.4191 C   0  0  0  0  0  0
    4.0121   54.4891   27.8502 C   0  0  0  0  0  0
    4.3010   54.4960   26.5345 C   0  0  0  0  0  0
    5.6030   54.9424   26.1221 C   0  0  0  0  0  0
    6.6648   55.2967   25.8212 N   0  0  0  0  0  0
    4.9272   54.8934   28.8062 N   0  0  0  0  0  0
    3.1466   52.7029   29.1299 C   0  0  0  0  0  0
    3.5039   51.7559   29.6882 N   0  0  0  0  0  0
    2.1395   54.9117   29.3580 C   0  0  0  0  0  0
    1.6936   55.6939   30.0821 N   0  0  0  0  0  0
    0.3379   52.8221   27.9109 C   0  0  0  0  0  0
    0.2299   52.4458   29.2661 C   0  0  0  0  0  0
   -0.8456   51.6967   29.7409 C   0  0  0  0  0  0
   -1.8543   51.2967   28.8746 C   0  0  0  0  0  0
   -1.8146   51.6969   27.5468 C   0  0  0  0  0  0
   -0.7641   52.4948   27.0964 C   0  0  0  0  0  0
   -3.2307   51.2285   26.3640 Br  0  0  0  0  0  0
    2.3026   50.8940   18.2280 H   0  0  0  0  0  0
    3.5239   51.3541   19.3990 H   0  0  0  0  0  0
    2.2723   52.4986   18.9507 H   0  0  0  0  0  0
   -0.5775   50.7215   20.6877 H   0  0  0  0  0  0
   -0.1448   52.1605   19.7809 H   0  0  0  0  0  0
   -0.1467   50.5865   18.9918 H   0  0  0  0  0  0
    1.2427   48.9818   21.2992 H   0  0  0  0  0  0
    1.8126   48.8342   19.6449 H   0  0  0  0  0  0
    2.9252   49.3022   20.9228 H   0  0  0  0  0  0
    3.4923   53.3096   22.3084 H   0  0  0  0  0  0
    2.2316   54.4970   22.5653 H   0  0  0  0  0  0
    4.4290   54.8508   23.9521 H   0  0  0  0  0  0
    0.4831   53.6667   24.6865 H   0  0  0  0  0  0
    0.6311   51.9468   25.0634 H   0  0  0  0  0  0
    4.7339   54.8247   29.7947 H   0  0  0  0  0  0
    5.8392   55.2503   28.5468 H   0  0  0  0  0  0
    0.9547   52.7203   30.0104 H   0  0  0  0  0  0
   -0.8964   51.4075   30.7828 H   0  0  0  0  0  0
   -2.6639   50.6801   29.2404 H   0  0  0  0  0  0
   -0.8601   52.8577   26.0920 H   0  0  0  0  0  0
  1  2  1  0  0  0
  1 34  1  0  0  0
  1 35  1  0  0  0
  1 36  1  0  0  0
  2  3  1  0  0  0
  2  4  1  0  0  0
  2  5  1  0  0  0
  3 37  1  0  0  0
  3 38  1  0  0  0
  3 39  1  0  0  0
  4 40  1  0  0  0
  4 41  1  0  0  0
  4 42  1  0  0  0
  5  6  1  0  0  0
  6  7  2  0  0  0
  6  8  1  0  0  0
  8 14  1  0  0  0
  8  9  1  0  0  0
  9 10  1  0  0  0
  9 43  1  0  0  0
  9 44  1  0  0  0
 10 11  2  0  0  0
 10 45  1  0  0  0
 11 19  1  0  0  0
 11 12  1  0  0  0
 12 13  1  0  0  0
 12 14  1  0  0  0
 12 15  1  0  0  0
 14 46  1  0  0  0
 14 47  1  0  0  0
 15 16  1  0  0  0
 15 17  1  0  0  0
 15 27  1  0  0  0
 17 18  1  0  0  0
 17 23  1  0  0  0
 17 25  1  0  0  0
 18 19  2  0  0  0
 18 22  1  0  0  0
 19 20  1  0  0  0
 20 21  3  0  0  0
 22 48  1  0  0  0
 22 49  1  0  0  0
 23 24  3  0  0  0
 25 26  3  0  0  0
 27 32  2  0  0  0
 27 28  1  0  0  0
 28 29  2  0  0  0
 28 50  1  0  0  0
 29 30  1  0  0  0
 29 51  1  0  0  0
 30 31  2  0  0  0
 30 52  1  0  0  0
 31 32  1  0  0  0
 31 33  1  0  0  0
 32 53  1  0  0  0
M  END
> <i_i_glide_confnum>
7

> <i_i_glide_lignum>
2813

> <i_i_glide_posenum>
245

> <i_i_glide_rotatable_bonds>
7

> <i_m_Source_File_Index>
2973

> <b_m_subgroup_collapsed>
0

> <r_i_docking_score>
-6.67622

> <r_i_glide_ecoul>
-5.22151

> <r_i_glide_eff_state_penalty>
0

> <r_i_glide_einternal>
33.1706

> <r_i_glide_emodel>
-45.2304

> <r_i_glide_energy>
-45.1741

> <r_i_glide_erotb>
0.26365

> <r_i_glide_esite>
0

> <r_i_glide_evdw>
-39.9525

> <r_i_glide_gscore>
-6.67622

> <r_i_glide_hbond>
-0.598653

> <r_i_glide_ligand_efficiency>
-0.215362

> <r_i_glide_ligand_efficiency_ln>
-1.50569

> <r_i_glide_ligand_efficiency_sa>
-0.676534

> <r_i_glide_lipo>
-1.99542

> <r_i_glide_metal>
0

> <r_i_glide_rewards>
-1.56494

> <s_i_glide_gridfile>
wee1_glide-grid

> <s_m_Source_File>
wee1_decoys_glide_SP.sdf

> <s_m_Source_Path>
/Users/zhangxujun/Desktop

> <s_m_entry_id>
3248

> <s_m_entry_name>
wee1_decoys_glide_SP.2973

> <s_m_subgroup_title>
wee1_decoys_glide_SP

> <s_m_subgroupid>
wee1_decoys_glide_SP


$$$$
