ZINC21180808_5149
                    3D
 Schrodinger Suite 2024-2.
 58 61  0  0  1  0            999 V2000
    0.4789   51.3720   29.2028 C   0  0  0  0  0  0
   -0.3127   52.4243   28.4277 C   0  0  1  0  0  0
   -1.2955   52.4635   28.8959 H   0  0  0  0  0  0
    0.2636   53.8324   28.5968 C   0  0  0  0  0  0
    1.6974   53.9093   28.0471 C   0  0  0  0  0  0
    1.7006   53.3684   26.6137 C   0  0  0  0  0  0
    0.6746   52.5479   26.1115 C   0  0  0  0  0  0
    0.8472   52.2723   24.3978 S   0  0  0  0  0  0
    2.2891   53.2317   24.3624 C   0  0  0  0  0  0
    2.6375   53.6966   25.6197 C   0  0  0  0  0  0
    3.8701   54.4453   25.7782 C   0  0  0  0  0  0
    4.2716   54.8967   26.8525 O   0  0  0  0  0  0
    4.5673   54.5533   24.5762 N   0  0  0  0  0  0
    4.1193   54.0966   23.3258 C   0  0  0  0  0  0
    2.9972   53.4628   23.2261 N   0  0  0  0  0  0
    5.0981   54.3618   21.8032 S   0  0  0  0  0  0
    4.0834   53.6354   20.4773 C   0  0  0  0  0  0
    3.9158   52.1101   20.4811 C   0  0  0  0  0  0
    4.6327   51.3870   21.1781 O   0  0  0  0  0  0
    2.9230   51.6778   19.6817 N   0  0  0  0  0  0
    2.6840   50.3172   19.5261 N   0  0  0  0  0  0
    1.4949   49.8554   19.9782 C   0  0  0  0  0  0
    0.7459   50.4814   20.7371 O   0  0  0  0  0  0
    1.1443   48.5301   19.5217 C   0  0  0  0  0  0
    1.7827   47.7198   18.5778 C   0  0  0  0  0  0
    1.0925   46.5335   18.3097 C   0  0  0  0  0  0
   -0.0700   46.4114   19.0552 C   0  0  0  0  0  0
   -0.3313   47.7833   20.0811 S   0  0  0  0  0  0
    5.8852   55.2356   24.7123 C   0  0  0  0  0  0
    7.0803   54.3217   25.0857 C   0  0  0  0  0  0
    6.8837   53.5449   26.4149 C   0  0  0  0  0  0
    7.5044   53.4625   23.8783 C   0  0  0  0  0  0
   -0.5285   52.0721   26.9275 C   0  0  0  0  0  0
    1.4096   51.0947   28.7071 H   0  0  0  0  0  0
    0.7073   51.6981   30.2177 H   0  0  0  0  0  0
   -0.1431   50.4967   29.2817 H   0  0  0  0  0  0
    0.2773   54.1163   29.6506 H   0  0  0  0  0  0
   -0.3806   54.5356   28.0817 H   0  0  0  0  0  0
    2.0307   54.9467   28.0842 H   0  0  0  0  0  0
    2.3959   53.3491   28.6695 H   0  0  0  0  0  0
    3.1045   54.0966   20.5463 H   0  0  0  0  0  0
    4.5140   53.9321   19.5212 H   0  0  0  0  0  0
    2.5075   52.2415   18.9546 H   0  0  0  0  0  0
    3.1892   49.9200   18.7428 H   0  0  0  0  0  0
    2.7045   47.9808   18.0816 H   0  0  0  0  0  0
    1.4284   45.7988   17.5929 H   0  0  0  0  0  0
   -0.7842   45.6022   19.0402 H   0  0  0  0  0  0
    6.1395   55.7598   23.7925 H   0  0  0  0  0  0
    5.8197   56.0434   25.4444 H   0  0  0  0  0  0
    7.9044   55.0004   25.2596 H   0  0  0  0  0  0
    6.0109   52.8967   26.3848 H   0  0  0  0  0  0
    7.7074   52.8983   26.7024 H   0  0  0  0  0  0
    6.7439   54.2366   27.2464 H   0  0  0  0  0  0
    6.6629   52.8967   23.4959 H   0  0  0  0  0  0
    7.8400   54.0913   23.0528 H   0  0  0  0  0  0
    8.3105   52.7634   24.0816 H   0  0  0  0  0  0
   -0.6778   50.9972   26.8119 H   0  0  0  0  0  0
   -1.4406   52.5558   26.5759 H   0  0  0  0  0  0
  1  2  1  0  0  0
  1 34  1  0  0  0
  1 35  1  0  0  0
  1 36  1  0  0  0
  2  3  1  0  0  0
  2 33  1  0  0  0
  2  4  1  0  0  0
  4  5  1  0  0  0
  4 37  1  0  0  0
  4 38  1  0  0  0
  5  6  1  0  0  0
  5 39  1  0  0  0
  5 40  1  0  0  0
  6 10  1  0  0  0
  6  7  2  0  0  0
  7  8  1  0  0  0
  7 33  1  0  0  0
  8  9  1  0  0  0
  9 15  1  0  0  0
  9 10  2  0  0  0
 10 11  1  0  0  0
 11 12  2  0  0  0
 11 13  1  0  0  0
 13 14  1  0  0  0
 13 29  1  0  0  0
 14 15  2  0  0  0
 14 16  1  0  0  0
 16 17  1  0  0  0
 17 18  1  0  0  0
 17 41  1  0  0  0
 17 42  1  0  0  0
 18 19  2  0  0  0
 18 20  1  0  0  0
 20 21  1  0  0  0
 20 43  1  0  0  0
 21 22  1  0  0  0
 21 44  1  0  0  0
 22 23  2  0  0  0
 22 24  1  0  0  0
 24 28  1  0  0  0
 24 25  2  0  0  0
 25 26  1  0  0  0
 25 45  1  0  0  0
 26 27  2  0  0  0
 26 46  1  0  0  0
 27 28  1  0  0  0
 27 47  1  0  0  0
 29 30  1  0  0  0
 29 48  1  0  0  0
 29 49  1  0  0  0
 30 31  1  0  0  0
 30 32  1  0  0  0
 30 50  1  0  0  0
 31 51  1  0  0  0
 31 52  1  0  0  0
 31 53  1  0  0  0
 32 54  1  0  0  0
 32 55  1  0  0  0
 32 56  1  0  0  0
 33 57  1  0  0  0
 33 58  1  0  0  0
M  END
> <i_i_glide_confnum>
152

> <i_i_glide_lignum>
5150

> <i_i_glide_posenum>
21

> <i_i_glide_rotatable_bonds>
9

> <i_m_Source_File_Index>
750

> <b_m_subgroup_collapsed>
0

> <r_i_docking_score>
-5.14178

> <r_i_glide_ecoul>
-5.37126

> <r_i_glide_eff_state_penalty>
0

> <r_i_glide_einternal>
2.07877

> <r_i_glide_emodel>
-61.1305

> <r_i_glide_energy>
-46.1225

> <r_i_glide_erotb>
0.59175

> <r_i_glide_esite>
-0.183199

> <r_i_glide_evdw>
-40.7512

> <r_i_glide_gscore>
-5.14178

> <r_i_glide_hbond>
-0.0355972

> <r_i_glide_ligand_efficiency>
-0.160681

> <r_i_glide_ligand_efficiency_ln>
-1.15139

> <r_i_glide_ligand_efficiency_sa>
-0.51013

> <r_i_glide_lipo>
-2.04007

> <r_i_glide_metal>
0

> <r_i_glide_rewards>
-0.631414

> <s_i_glide_gridfile>
wee1_glide-grid

> <s_m_Source_File>
wee1_decoys_glide_SP.sdf

> <s_m_Source_Path>
/Users/zhangxujun/Desktop

> <s_m_entry_id>
1025

> <s_m_entry_name>
wee1_decoys_glide_SP.750

> <s_m_subgroup_title>
wee1_decoys_glide_SP

> <s_m_subgroupid>
wee1_decoys_glide_SP


$$$$
