ZINC43666597_3890
                    3D
 Schrodinger Suite 2024-2.
 39 40  0  0  1  0            999 V2000
    5.5732   54.4220   28.4657 C   0  0  0  0  0  0
    4.2862   53.6319   28.1841 C   0  0  1  0  0  0
    4.3996   53.1289   27.2235 H   0  0  0  0  0  0
    4.0514   52.4945   29.2063 C   0  0  0  0  0  0
    2.7038   51.7843   28.9560 C   0  0  0  0  0  0
    1.5105   52.7636   29.0294 C   0  0  2  0  0  0
    0.6203   52.1653   28.8584 H   0  0  0  0  0  0
    1.6861   53.7977   27.8649 C   0  0  1  0  0  0
    0.8977   54.5458   27.9222 H   0  0  0  0  0  0
    3.0433   54.5554   28.0494 C   0  0  0  0  0  0
    1.5043   53.2283   26.4942 N   0  0  0  0  0  0
    0.4408   52.4907   25.9913 C   0  0  0  0  0  0
    0.7143   52.3039   24.6479 C   0  0  0  0  0  0
    1.9226   52.9612   24.4332 C   0  0  0  0  0  0
    2.3913   53.5172   25.5208 N   0  0  0  0  0  0
   -0.4672   51.2629   23.1985 I   0  0  0  0  0  0
   -0.6456   52.0965   26.7203 N   0  0  0  0  0  0
    1.2893   53.3961   30.4450 C   0  0  0  0  0  0
    0.1217   54.3979   30.4847 C   0  0  0  0  0  0
    1.0897   52.3446   31.5585 C   0  0  0  0  0  0
    5.5137   54.9524   29.4178 H   0  0  0  0  0  0
    6.4434   53.7653   28.5051 H   0  0  0  0  0  0
    5.7640   55.1617   27.6882 H   0  0  0  0  0  0
    4.8809   51.7872   29.1820 H   0  0  0  0  0  0
    4.0684   52.9015   30.2166 H   0  0  0  0  0  0
    2.5823   50.9884   29.6774 H   0  0  0  0  0  0
    2.7048   51.2967   27.9843 H   0  0  0  0  0  0
    3.1856   55.2968   27.2642 H   0  0  0  0  0  0
    2.9518   55.2018   28.9228 H   0  0  0  0  0  0
    2.4463   53.0329   23.4909 H   0  0  0  0  0  0
   -1.2910   51.4142   26.3458 H   0  0  0  0  0  0
   -0.7018   52.2480   27.7165 H   0  0  0  0  0  0
    2.1772   53.9653   30.7027 H   0  0  0  0  0  0
   -0.7883   53.9640   30.0729 H   0  0  0  0  0  0
   -0.0952   54.7166   31.5049 H   0  0  0  0  0  0
    0.3549   55.3028   29.9296 H   0  0  0  0  0  0
    0.2334   51.7034   31.3491 H   0  0  0  0  0  0
    1.9641   51.7104   31.6958 H   0  0  0  0  0  0
    0.8987   52.8167   32.5232 H   0  0  0  0  0  0
  1  2  1  0  0  0
  1 21  1  0  0  0
  1 22  1  0  0  0
  1 23  1  0  0  0
  2  3  1  0  0  0
  2 10  1  0  0  0
  2  4  1  0  0  0
  4  5  1  0  0  0
  4 24  1  0  0  0
  4 25  1  0  0  0
  5  6  1  0  0  0
  5 26  1  0  0  0
  5 27  1  0  0  0
  6  7  1  0  0  0
  6  8  1  0  0  0
  6 18  1  0  0  0
  8  9  1  0  0  0
  8 10  1  0  0  0
  8 11  1  0  0  0
 10 28  1  0  0  0
 10 29  1  0  0  0
 11 15  1  0  0  0
 11 12  1  0  0  0
 12 13  2  0  0  0
 12 17  1  0  0  0
 13 14  1  0  0  0
 13 16  1  0  0  0
 14 15  2  0  0  0
 14 30  1  0  0  0
 17 31  1  0  0  0
 17 32  1  0  0  0
 18 19  1  0  0  0
 18 20  1  0  0  0
 18 33  1  0  0  0
 19 34  1  0  0  0
 19 35  1  0  0  0
 19 36  1  0  0  0
 20 37  1  0  0  0
 20 38  1  0  0  0
 20 39  1  0  0  0
M  END
> <i_i_glide_confnum>
6

> <i_i_glide_lignum>
3891

> <i_i_glide_posenum>
384

> <i_i_glide_rotatable_bonds>
2

> <i_m_Source_File_Index>
57

> <b_m_subgroup_collapsed>
0

> <r_i_docking_score>
-4.12935

> <r_i_glide_ecoul>
1.30907

> <r_i_glide_eff_state_penalty>
0

> <r_i_glide_einternal>
0.0661983

> <r_i_glide_emodel>
-30.2267

> <r_i_glide_energy>
-23.3354

> <r_i_glide_erotb>
0.157761

> <r_i_glide_esite>
-0.0208221

> <r_i_glide_evdw>
-24.6445

> <r_i_glide_gscore>
-4.12935

> <r_i_glide_hbond>
0

> <r_i_glide_ligand_efficiency>
-0.242903

> <r_i_glide_ligand_efficiency_ln>
-1.07725

> <r_i_glide_ligand_efficiency_sa>
-0.624571

> <r_i_glide_lipo>
-1.98358

> <r_i_glide_metal>
0

> <r_i_glide_rewards>
-1.24684

> <s_i_glide_gridfile>
wee1_glide-grid

> <s_m_Source_File>
wee1_decoys_glide_SP.sdf

> <s_m_Source_Path>
/Users/zhangxujun/Desktop

> <s_m_entry_id>
332

> <s_m_entry_name>
wee1_decoys_glide_SP.57

> <s_m_subgroup_title>
wee1_decoys_glide_SP

> <s_m_subgroupid>
wee1_decoys_glide_SP


$$$$
