ZINC59271865_4349
                    3D
 Schrodinger Suite 2024-2.
 52 55  0  0  1  0            999 V2000
    6.9059   55.5620   20.7227 C   0  0  0  0  0  0
    6.0162   54.9958   19.8186 C   0  0  0  0  0  0
    5.0061   54.1555   20.2755 C   0  0  0  0  0  0
    4.8566   53.8652   21.6398 C   0  0  0  0  0  0
    5.7588   54.4543   22.5657 C   0  0  0  0  0  0
    6.7780   55.2968   22.0829 C   0  0  0  0  0  0
    5.5885   54.1888   23.9474 N   0  0  0  0  0  0
    6.0602   54.8496   25.0308 C   0  0  0  0  0  0
    6.9521   55.6967   25.0071 O   0  0  0  0  0  0
    5.4204   54.4951   26.3539 C   0  0  0  0  0  0
    6.1021   54.7515   27.5488 C   0  0  0  0  0  0
    5.5026   54.4963   28.7785 C   0  0  0  0  0  0
    4.2302   53.9342   28.8444 C   0  0  0  0  0  0
    3.5344   53.6540   27.6620 C   0  0  0  0  0  0
    4.1247   53.9625   26.4352 C   0  0  0  0  0  0
    2.2467   53.0986   27.6029 N   0  0  0  0  0  0
    1.5548   52.4269   28.5463 C   0  0  0  0  0  0
    1.9410   52.1821   29.6909 O   0  0  0  0  0  0
    0.2611   52.0069   28.0747 C   0  0  0  0  0  0
   -0.2128   51.7199   26.7934 C   0  0  0  0  0  0
   -1.5334   51.2969   26.9364 C   0  0  0  0  0  0
   -1.8019   51.2968   28.2933 C   0  0  0  0  0  0
   -0.7039   51.7028   28.9852 O   0  0  0  0  0  0
   -3.3626   50.8380   29.2790 Br  0  0  0  0  0  0
    3.8261   53.0002   22.0143 N   0  0  0  0  0  0
    2.8477   53.2672   23.0829 C   0  0  0  0  0  0
    1.3767   53.1945   22.6313 C   0  0  0  0  0  0
    1.0539   51.9357   21.8149 C   0  0  0  0  0  0
    2.0960   51.7553   20.7032 C   0  0  0  0  0  0
    3.5223   51.7567   21.2830 C   0  0  0  0  0  0
    7.7041   56.1967   20.3667 H   0  0  0  0  0  0
    6.1123   55.1992   18.7619 H   0  0  0  0  0  0
    4.3259   53.7288   19.5522 H   0  0  0  0  0  0
    7.5037   55.7484   22.7385 H   0  0  0  0  0  0
    4.8885   53.4875   24.1327 H   0  0  0  0  0  0
    7.0938   55.1827   27.5433 H   0  0  0  0  0  0
    6.0316   54.7498   29.6816 H   0  0  0  0  0  0
    3.7984   53.7436   29.8137 H   0  0  0  0  0  0
    3.5560   53.7821   25.5425 H   0  0  0  0  0  0
    1.7913   53.1837   26.7088 H   0  0  0  0  0  0
    0.3293   51.8023   25.8629 H   0  0  0  0  0  0
   -2.2106   50.9960   26.1512 H   0  0  0  0  0  0
    3.0123   52.5533   23.8890 H   0  0  0  0  0  0
    3.0181   54.2701   23.4757 H   0  0  0  0  0  0
    0.7345   53.2257   23.5119 H   0  0  0  0  0  0
    1.1212   54.0972   22.0819 H   0  0  0  0  0  0
    0.0514   52.0036   21.3909 H   0  0  0  0  0  0
    1.0595   51.0609   22.4674 H   0  0  0  0  0  0
    2.0004   52.5398   19.9504 H   0  0  0  0  0  0
    1.9184   50.8174   20.1759 H   0  0  0  0  0  0
    4.2546   51.5688   20.4960 H   0  0  0  0  0  0
    3.6248   50.9291   21.9861 H   0  0  0  0  0  0
  1  6  2  0  0  0
  1  2  1  0  0  0
  1 31  1  0  0  0
  2  3  2  0  0  0
  2 32  1  0  0  0
  3  4  1  0  0  0
  3 33  1  0  0  0
  4  5  2  0  0  0
  4 25  1  0  0  0
  5  6  1  0  0  0
  5  7  1  0  0  0
  6 34  1  0  0  0
  7  8  1  0  0  0
  7 35  1  0  0  0
  8  9  2  0  0  0
  8 10  1  0  0  0
 10 15  2  0  0  0
 10 11  1  0  0  0
 11 12  2  0  0  0
 11 36  1  0  0  0
 12 13  1  0  0  0
 12 37  1  0  0  0
 13 14  2  0  0  0
 13 38  1  0  0  0
 14 15  1  0  0  0
 14 16  1  0  0  0
 15 39  1  0  0  0
 16 17  1  0  0  0
 16 40  1  0  0  0
 17 18  2  0  0  0
 17 19  1  0  0  0
 19 23  1  0  0  0
 19 20  2  0  0  0
 20 21  1  0  0  0
 20 41  1  0  0  0
 21 22  2  0  0  0
 21 42  1  0  0  0
 22 23  1  0  0  0
 22 24  1  0  0  0
 25 30  1  0  0  0
 25 26  1  0  0  0
 26 27  1  0  0  0
 26 43  1  0  0  0
 26 44  1  0  0  0
 27 28  1  0  0  0
 27 45  1  0  0  0
 27 46  1  0  0  0
 28 29  1  0  0  0
 28 47  1  0  0  0
 28 48  1  0  0  0
 29 30  1  0  0  0
 29 49  1  0  0  0
 29 50  1  0  0  0
 30 51  1  0  0  0
 30 52  1  0  0  0
M  END
> <i_i_glide_confnum>
245

> <i_i_glide_lignum>
4350

> <i_i_glide_posenum>
139

> <i_i_glide_rotatable_bonds>
7

> <i_m_Source_File_Index>
345

> <b_m_subgroup_collapsed>
0

> <r_i_docking_score>
-6.26642

> <r_i_glide_ecoul>
-3.8549

> <r_i_glide_eff_state_penalty>
0

> <r_i_glide_einternal>
2.0157

> <r_i_glide_emodel>
-72.3941

> <r_i_glide_energy>
-53.222

> <r_i_glide_erotb>
0.644302

> <r_i_glide_esite>
0

> <r_i_glide_evdw>
-49.3671

> <r_i_glide_gscore>
-6.26642

> <r_i_glide_hbond>
-0.32

> <r_i_glide_ligand_efficiency>
-0.208881

> <r_i_glide_ligand_efficiency_ln>
-1.4238

> <r_i_glide_ligand_efficiency_sa>
-0.64904

> <r_i_glide_lipo>
-2.42753

> <r_i_glide_metal>
0

> <r_i_glide_rewards>
-1.1166

> <s_i_glide_gridfile>
wee1_glide-grid

> <s_m_Source_File>
wee1_decoys_glide_SP.sdf

> <s_m_Source_Path>
/Users/zhangxujun/Desktop

> <s_m_entry_id>
620

> <s_m_entry_name>
wee1_decoys_glide_SP.345

> <s_m_subgroup_title>
wee1_decoys_glide_SP

> <s_m_subgroupid>
wee1_decoys_glide_SP


$$$$
