ZINC46938548_1820
                    3D
 Schrodinger Suite 2024-2.
 45 47  0  0  1  0            999 V2000
    0.8137   51.6953   23.3766 C   0  0  0  0  0  0
    1.0320   52.8823   24.0648 C   0  0  0  0  0  0
    2.0793   53.7145   23.6833 C   0  0  0  0  0  0
    2.9373   53.3792   22.6239 C   0  0  0  0  0  0
    2.6702   52.2009   21.8838 C   0  0  0  0  0  0
    1.6245   51.3640   22.2941 C   0  0  0  0  0  0
    3.4448   51.8584   20.6086 C   0  0  0  0  0  0
    4.7914   52.5914   20.5020 C   0  0  0  0  0  0
    4.6287   54.0832   20.8354 C   0  0  0  0  0  0
    4.1438   54.2790   22.2876 C   0  0  2  0  0  0
    3.7555   55.2962   22.3267 H   0  0  0  0  0  0
    5.3262   54.1888   23.3005 C   0  0  0  0  0  0
    4.9227   54.0978   24.7032 N   0  0  0  0  0  0
    5.5685   54.5944   25.7744 C   0  0  0  0  0  0
    6.6670   55.1505   25.6870 O   0  0  0  0  0  0
    4.9400   54.3792   26.9589 N   0  0  0  0  0  0
    5.5657   54.7194   28.2418 C   0  0  0  0  0  0
    4.3921   54.7100   29.2247 C   0  0  0  0  0  0
    3.4757   53.6378   28.6454 C   0  0  2  0  0  0
    3.8251   52.6422   28.9286 H   0  0  0  0  0  0
    3.5792   53.8291   27.1286 C   0  0  0  0  0  0
    2.0213   53.6728   29.1576 C   0  0  0  0  0  0
    1.6275   54.5490   29.9221 O   0  0  0  0  0  0
    1.2068   52.6916   28.7676 N   0  0  0  0  0  0
    0.0049   51.0403   23.6694 H   0  0  0  0  0  0
    0.3969   53.1551   24.8954 H   0  0  0  0  0  0
    2.2401   54.6284   24.2356 H   0  0  0  0  0  0
    1.4164   50.4560   21.7448 H   0  0  0  0  0  0
    2.8249   52.1484   19.7581 H   0  0  0  0  0  0
    3.5947   50.7805   20.5171 H   0  0  0  0  0  0
    5.1949   52.4819   19.4937 H   0  0  0  0  0  0
    5.5060   52.1202   21.1745 H   0  0  0  0  0  0
    3.9034   54.5132   20.1424 H   0  0  0  0  0  0
    5.5626   54.6176   20.6577 H   0  0  0  0  0  0
    5.9945   55.0399   23.1467 H   0  0  0  0  0  0
    5.9350   53.3084   23.0913 H   0  0  0  0  0  0
    4.0891   53.5531   24.8758 H   0  0  0  0  0  0
    6.0442   55.6967   28.2175 H   0  0  0  0  0  0
    6.2829   53.9435   28.5174 H   0  0  0  0  0  0
    3.9075   55.6937   29.2369 H   0  0  0  0  0  0
    4.7052   54.4970   30.2454 H   0  0  0  0  0  0
    3.4195   52.8903   26.5929 H   0  0  0  0  0  0
    2.8881   54.6078   26.8012 H   0  0  0  0  0  0
    1.5269   51.9668   28.1446 H   0  0  0  0  0  0
    0.2603   52.6730   29.1168 H   0  0  0  0  0  0
  1  6  2  0  0  0
  1  2  1  0  0  0
  1 25  1  0  0  0
  2  3  2  0  0  0
  2 26  1  0  0  0
  3  4  1  0  0  0
  3 27  1  0  0  0
  4 10  1  0  0  0
  4  5  2  0  0  0
  5  6  1  0  0  0
  5  7  1  0  0  0
  6 28  1  0  0  0
  7  8  1  0  0  0
  7 29  1  0  0  0
  7 30  1  0  0  0
  8  9  1  0  0  0
  8 31  1  0  0  0
  8 32  1  0  0  0
  9 10  1  0  0  0
  9 33  1  0  0  0
  9 34  1  0  0  0
 10 11  1  0  0  0
 10 12  1  0  0  0
 12 13  1  0  0  0
 12 35  1  0  0  0
 12 36  1  0  0  0
 13 14  1  0  0  0
 13 37  1  0  0  0
 14 15  2  0  0  0
 14 16  1  0  0  0
 16 21  1  0  0  0
 16 17  1  0  0  0
 17 18  1  0  0  0
 17 38  1  0  0  0
 17 39  1  0  0  0
 18 19  1  0  0  0
 18 40  1  0  0  0
 18 41  1  0  0  0
 19 20  1  0  0  0
 19 21  1  0  0  0
 19 22  1  0  0  0
 21 42  1  0  0  0
 21 43  1  0  0  0
 22 23  2  0  0  0
 22 24  1  0  0  0
 24 44  1  0  0  0
 24 45  1  0  0  0
M  END
> <i_i_glide_confnum>
12

> <i_i_glide_lignum>
1821

> <i_i_glide_posenum>
221

> <i_i_glide_rotatable_bonds>
5

> <i_m_Source_File_Index>
6008

> <b_m_subgroup_collapsed>
0

> <r_i_docking_score>
-6.48863

> <r_i_glide_ecoul>
-3.75354

> <r_i_glide_eff_state_penalty>
0

> <r_i_glide_einternal>
2.14913

> <r_i_glide_emodel>
-55.1871

> <r_i_glide_energy>
-39.8139

> <r_i_glide_erotb>
0.607587

> <r_i_glide_esite>
0

> <r_i_glide_evdw>
-36.0603

> <r_i_glide_gscore>
-6.48863

> <r_i_glide_hbond>
-0.310479

> <r_i_glide_ligand_efficiency>
-0.294938

> <r_i_glide_ligand_efficiency_ln>
-1.58606

> <r_i_glide_ligand_efficiency_sa>
-0.826427

> <r_i_glide_lipo>
-2.07012

> <r_i_glide_metal>
0

> <r_i_glide_rewards>
-2.34956

> <s_i_glide_gridfile>
wee1_glide-grid

> <s_m_Source_File>
wee1_decoys_glide_SP.sdf

> <s_m_Source_Path>
/Users/zhangxujun/Desktop

> <s_m_entry_id>
6283

> <s_m_entry_name>
wee1_decoys_glide_SP.6008

> <s_m_subgroup_title>
wee1_decoys_glide_SP

> <s_m_subgroupid>
wee1_decoys_glide_SP


$$$$
