ZINC27662601_2311
                    3D
 Schrodinger Suite 2024-2.
 58 62  0  0  1  0            999 V2000
    1.6755   52.5290   30.7470 C   0  0  0  0  0  0
    2.4775   52.9881   29.5415 C   0  0  0  0  0  0
    3.8238   53.3302   29.6804 C   0  0  0  0  0  0
    4.5636   53.7184   28.5650 C   0  0  0  0  0  0
    3.9635   53.7564   27.3014 C   0  0  0  0  0  0
    2.6120   53.4214   27.1707 C   0  0  0  0  0  0
    1.8717   53.0368   28.2854 C   0  0  0  0  0  0
    4.7552   54.0967   26.0815 C   0  0  0  0  0  0
    4.4743   54.1105   24.7288 C   0  0  0  0  0  0
    5.6911   54.3854   24.0822 C   0  0  0  0  0  0
    6.6298   54.6328   24.9764 N   0  0  0  0  0  0
    6.0627   54.4284   26.2346 O   0  0  0  0  0  0
    5.9054   54.4967   22.6539 C   0  0  0  0  0  0
    6.8492   55.1615   22.2218 O   0  0  0  0  0  0
    5.0013   53.8292   21.8931 N   0  0  0  0  0  0
    4.8986   53.7812   20.4945 C   0  0  0  0  0  0
    3.9912   53.0015   19.7337 C   0  0  0  0  0  0
    4.0726   53.2994   18.3432 C   0  0  0  0  0  0
    5.0860   54.2207   18.0467 C   0  0  0  0  0  0
    5.8962   54.7769   19.4598 S   0  0  0  0  0  0
    5.5105   54.6591   16.6515 C   0  0  0  0  0  0
    4.4225   54.2625   15.6341 C   0  0  0  0  0  0
    3.9396   52.8198   15.8520 C   0  0  0  0  0  0
    3.2516   52.6419   17.2228 C   0  0  0  0  0  0
    2.9886   52.0973   20.2772 C   0  0  0  0  0  0
    1.8745   51.9776   19.7645 O   0  0  0  0  0  0
    3.3565   51.4174   21.3791 N   0  0  0  0  0  0
    2.4805   50.4974   22.1150 C   0  0  0  0  0  0
    1.5046   51.1303   23.1083 C   0  0  0  0  0  0
    1.1892   52.4989   23.1178 C   0  0  0  0  0  0
    0.3013   53.0001   24.0703 C   0  0  0  0  0  0
   -0.2471   52.1154   25.0002 C   0  0  0  0  0  0
    0.0485   50.7922   25.0201 N   0  0  0  0  0  0
    0.9086   50.3204   24.0825 C   0  0  0  0  0  0
    2.3162   52.0973   31.5167 H   0  0  0  0  0  0
    1.1107   53.3559   31.1762 H   0  0  0  0  0  0
    0.9683   51.7500   30.4598 H   0  0  0  0  0  0
    4.3035   53.2830   30.6466 H   0  0  0  0  0  0
    5.6087   53.9669   28.6852 H   0  0  0  0  0  0
    2.1340   53.4351   26.2029 H   0  0  0  0  0  0
    0.8331   52.7623   28.1674 H   0  0  0  0  0  0
    3.5175   53.9001   24.2747 H   0  0  0  0  0  0
    4.3089   53.2899   22.3903 H   0  0  0  0  0  0
    5.6925   55.7336   16.6077 H   0  0  0  0  0  0
    6.4468   54.1674   16.3842 H   0  0  0  0  0  0
    3.5752   54.9463   15.7148 H   0  0  0  0  0  0
    4.8090   54.3797   14.6208 H   0  0  0  0  0  0
    3.2509   52.5298   15.0574 H   0  0  0  0  0  0
    4.7862   52.1339   15.7794 H   0  0  0  0  0  0
    3.1061   51.5763   17.4107 H   0  0  0  0  0  0
    2.2537   53.0813   17.1995 H   0  0  0  0  0  0
    4.3303   51.4312   21.6385 H   0  0  0  0  0  0
    3.1041   49.7915   22.6640 H   0  0  0  0  0  0
    1.8998   49.8947   21.4122 H   0  0  0  0  0  0
    1.6113   53.1798   22.3934 H   0  0  0  0  0  0
    0.0436   54.0486   24.0819 H   0  0  0  0  0  0
   -0.9396   52.4618   25.7530 H   0  0  0  0  0  0
    1.1252   49.2624   24.1363 H   0  0  0  0  0  0
  1  2  1  0  0  0
  1 35  1  0  0  0
  1 36  1  0  0  0
  1 37  1  0  0  0
  2  7  2  0  0  0
  2  3  1  0  0  0
  3  4  2  0  0  0
  3 38  1  0  0  0
  4  5  1  0  0  0
  4 39  1  0  0  0
  5  6  2  0  0  0
  5  8  1  0  0  0
  6  7  1  0  0  0
  6 40  1  0  0  0
  7 41  1  0  0  0
  8 12  1  0  0  0
  8  9  2  0  0  0
  9 10  1  0  0  0
  9 42  1  0  0  0
 10 11  2  0  0  0
 10 13  1  0  0  0
 11 12  1  0  0  0
 13 14  2  0  0  0
 13 15  1  0  0  0
 15 16  1  0  0  0
 15 43  1  0  0  0
 16 20  1  0  0  0
 16 17  2  0  0  0
 17 18  1  0  0  0
 17 25  1  0  0  0
 18 24  1  0  0  0
 18 19  2  0  0  0
 19 20  1  0  0  0
 19 21  1  0  0  0
 21 22  1  0  0  0
 21 44  1  0  0  0
 21 45  1  0  0  0
 22 23  1  0  0  0
 22 46  1  0  0  0
 22 47  1  0  0  0
 23 24  1  0  0  0
 23 48  1  0  0  0
 23 49  1  0  0  0
 24 50  1  0  0  0
 24 51  1  0  0  0
 25 26  2  0  0  0
 25 27  1  0  0  0
 27 28  1  0  0  0
 27 52  1  0  0  0
 28 29  1  0  0  0
 28 53  1  0  0  0
 28 54  1  0  0  0
 29 34  2  0  0  0
 29 30  1  0  0  0
 30 31  2  0  0  0
 30 55  1  0  0  0
 31 32  1  0  0  0
 31 56  1  0  0  0
 32 33  2  0  0  0
 32 57  1  0  0  0
 33 34  1  0  0  0
 34 58  1  0  0  0
M  END
> <i_i_glide_confnum>
246

> <i_i_glide_lignum>
2312

> <i_i_glide_posenum>
240

> <i_i_glide_rotatable_bonds>
8

> <i_m_Source_File_Index>
5449

> <b_m_subgroup_collapsed>
0

> <r_i_docking_score>
-5.07671

> <r_i_glide_ecoul>
0.254702

> <r_i_glide_eff_state_penalty>
0

> <r_i_glide_einternal>
6.13903

> <r_i_glide_emodel>
-62.5212

> <r_i_glide_energy>
-50.0707

> <r_i_glide_erotb>
0.63385

> <r_i_glide_esite>
-0.0236942

> <r_i_glide_evdw>
-50.3254

> <r_i_glide_gscore>
-5.07671

> <r_i_glide_hbond>
0

> <r_i_glide_ligand_efficiency>
-0.149315

> <r_i_glide_ligand_efficiency_ln>
-1.12159

> <r_i_glide_ligand_efficiency_sa>
-0.483722

> <r_i_glide_lipo>
-2.64046

> <r_i_glide_metal>
0

> <r_i_glide_rewards>
-0.568342

> <s_i_glide_gridfile>
wee1_glide-grid

> <s_m_Source_File>
wee1_decoys_glide_SP.sdf

> <s_m_Source_Path>
/Users/zhangxujun/Desktop

> <s_m_entry_id>
5724

> <s_m_entry_name>
wee1_decoys_glide_SP.5449

> <s_m_subgroup_title>
wee1_decoys_glide_SP

> <s_m_subgroupid>
wee1_decoys_glide_SP


$$$$
