ZINC12747267_2703
                    3D
 Schrodinger Suite 2024-2.
 60 62  0  0  1  0            999 V2000
    1.2249   51.7477   29.2407 C   0  0  0  0  0  0
    2.1840   52.6284   28.4574 C   0  0  0  0  0  0
    3.3602   53.1686   29.0044 C   0  0  0  0  0  0
    4.2600   54.0782   27.8197 S   0  0  0  0  0  0
    3.1123   53.6947   26.5965 C   0  0  0  0  0  0
    2.0809   52.9028   27.0724 C   0  0  0  0  0  0
    1.0550   52.4566   26.1254 C   0  0  0  0  0  0
    0.0808   51.7657   26.4259 O   0  0  0  0  0  0
    1.3391   52.8533   24.8130 N   0  0  0  0  0  0
    2.3665   53.7406   24.4641 C   0  0  0  0  0  0
    3.2523   54.1201   25.3170 N   0  0  0  0  0  0
    2.5256   54.4966   22.8338 S   0  0  0  0  0  0
    3.9023   53.5310   22.1025 C   0  0  2  0  0  0
    4.4854   53.1262   22.9313 H   0  0  0  0  0  0
    4.8679   54.4088   21.2838 C   0  0  0  0  0  0
    3.4283   52.3246   21.2676 C   0  0  0  0  0  0
    4.1100   51.2968   21.2816 O   0  0  0  0  0  0
    2.2959   52.4966   20.5391 N   0  0  0  0  0  0
    1.5522   51.6102   19.8385 C   0  0  0  0  0  0
    0.4581   51.9693   19.4081 O   0  0  0  0  0  0
    2.0243   50.3527   19.6804 N   0  0  0  0  0  0
    1.3402   49.1752   19.1278 C   0  0  0  0  0  0
    1.0081   49.3786   17.6316 C   0  0  0  0  0  0
    0.0540   48.8416   19.9204 C   0  0  0  0  0  0
    2.3043   47.9804   19.2557 C   0  0  0  0  0  0
    0.5623   52.1828   23.7185 C   0  0  0  0  0  0
    0.7562   50.6414   23.6471 C   0  0  0  0  0  0
   -0.6519   50.0336   23.6532 C   0  0  0  0  0  0
   -1.5548   51.1346   23.1024 C   0  0  0  0  0  0
   -0.9713   52.4142   23.7029 C   0  0  0  0  0  0
    3.9037   53.0373   30.4077 C   0  0  0  0  0  0
    1.6877   51.2972   30.1133 H   0  0  0  0  0  0
    0.3386   52.2938   29.5648 H   0  0  0  0  0  0
    0.8705   50.9003   28.6542 H   0  0  0  0  0  0
    5.6889   53.8268   20.8630 H   0  0  0  0  0  0
    4.3559   54.8965   20.4529 H   0  0  0  0  0  0
    5.3137   55.1873   21.9022 H   0  0  0  0  0  0
    1.9035   53.4298   20.5578 H   0  0  0  0  0  0
    2.9984   50.2109   19.9118 H   0  0  0  0  0  0
    0.5699   48.4816   17.1926 H   0  0  0  0  0  0
    1.9043   49.6166   17.0551 H   0  0  0  0  0  0
    0.2987   50.1917   17.4773 H   0  0  0  0  0  0
    0.2736   48.6703   20.9740 H   0  0  0  0  0  0
   -0.6800   49.6455   19.8663 H   0  0  0  0  0  0
   -0.4298   47.9423   19.5381 H   0  0  0  0  0  0
    2.5919   47.8025   20.2932 H   0  0  0  0  0  0
    1.8574   47.0601   18.8776 H   0  0  0  0  0  0
    3.2229   48.1432   18.6893 H   0  0  0  0  0  0
    0.8514   52.5192   22.7257 H   0  0  0  0  0  0
    1.2625   50.3722   22.7191 H   0  0  0  0  0  0
    1.3492   50.2279   24.4644 H   0  0  0  0  0  0
   -0.7147   49.1116   23.0751 H   0  0  0  0  0  0
   -0.9464   49.7928   24.6769 H   0  0  0  0  0  0
   -1.4907   51.1636   22.0126 H   0  0  0  0  0  0
   -2.6018   50.9867   23.3709 H   0  0  0  0  0  0
   -1.3920   52.5665   24.6957 H   0  0  0  0  0  0
   -1.2516   53.2967   23.1373 H   0  0  0  0  0  0
    3.1509   52.7166   31.1266 H   0  0  0  0  0  0
    4.7047   52.2989   30.4432 H   0  0  0  0  0  0
    4.3044   53.9828   30.7699 H   0  0  0  0  0  0
  1  2  1  0  0  0
  1 32  1  0  0  0
  1 33  1  0  0  0
  1 34  1  0  0  0
  2  6  1  0  0  0
  2  3  2  0  0  0
  3  4  1  0  0  0
  3 31  1  0  0  0
  4  5  1  0  0  0
  5 11  1  0  0  0
  5  6  2  0  0  0
  6  7  1  0  0  0
  7  8  2  0  0  0
  7  9  1  0  0  0
  9 10  1  0  0  0
  9 26  1  0  0  0
 10 11  2  0  0  0
 10 12  1  0  0  0
 12 13  1  0  0  0
 13 14  1  0  0  0
 13 15  1  0  0  0
 13 16  1  0  0  0
 15 35  1  0  0  0
 15 36  1  0  0  0
 15 37  1  0  0  0
 16 17  2  0  0  0
 16 18  1  0  0  0
 18 19  1  0  0  0
 18 38  1  0  0  0
 19 20  2  0  0  0
 19 21  1  0  0  0
 21 22  1  0  0  0
 21 39  1  0  0  0
 22 23  1  0  0  0
 22 24  1  0  0  0
 22 25  1  0  0  0
 23 40  1  0  0  0
 23 41  1  0  0  0
 23 42  1  0  0  0
 24 43  1  0  0  0
 24 44  1  0  0  0
 24 45  1  0  0  0
 25 46  1  0  0  0
 25 47  1  0  0  0
 25 48  1  0  0  0
 26 30  1  0  0  0
 26 27  1  0  0  0
 26 49  1  0  0  0
 27 28  1  0  0  0
 27 50  1  0  0  0
 27 51  1  0  0  0
 28 29  1  0  0  0
 28 52  1  0  0  0
 28 53  1  0  0  0
 29 30  1  0  0  0
 29 54  1  0  0  0
 29 55  1  0  0  0
 30 56  1  0  0  0
 30 57  1  0  0  0
 31 58  1  0  0  0
 31 59  1  0  0  0
 31 60  1  0  0  0
M  END
> <i_i_glide_confnum>
162

> <i_i_glide_lignum>
2704

> <i_i_glide_posenum>
296

> <i_i_glide_rotatable_bonds>
8

> <i_m_Source_File_Index>
3837

> <b_m_subgroup_collapsed>
0

> <r_i_docking_score>
-4.06092

> <r_i_glide_ecoul>
-2.79877

> <r_i_glide_eff_state_penalty>
0

> <r_i_glide_einternal>
14.1054

> <r_i_glide_emodel>
-46.1877

> <r_i_glide_energy>
-43.819

> <r_i_glide_erotb>
0.691197

> <r_i_glide_esite>
-0.0840362

> <r_i_glide_evdw>
-41.0202

> <r_i_glide_gscore>
-4.06092

> <r_i_glide_hbond>
-0.32

> <r_i_glide_ligand_efficiency>
-0.135364

> <r_i_glide_ligand_efficiency_ln>
-0.922685

> <r_i_glide_ligand_efficiency_sa>
-0.420607

> <r_i_glide_lipo>
-1.70896

> <r_i_glide_metal>
0

> <r_i_glide_rewards>
-0.168292

> <s_i_glide_gridfile>
wee1_glide-grid

> <s_m_Source_File>
wee1_decoys_glide_SP.sdf

> <s_m_Source_Path>
/Users/zhangxujun/Desktop

> <s_m_entry_id>
4112

> <s_m_entry_name>
wee1_decoys_glide_SP.3837

> <s_m_subgroup_title>
wee1_decoys_glide_SP

> <s_m_subgroupid>
wee1_decoys_glide_SP


$$$$
