ZINC39532683_2926
                    3D
 Schrodinger Suite 2024-2.
 69 72  0  0  1  0            999 V2000
    6.6898   54.7912   23.1297 C   0  0  0  0  0  0
    5.3161   54.2447   23.5456 C   0  0  0  0  0  0
    4.3780   53.9801   22.3456 C   0  0  0  0  0  0
    2.9881   53.4345   22.6835 C   0  0  0  0  0  0
    2.3065   52.6841   21.7221 C   0  0  0  0  0  0
    1.0305   52.1897   21.9832 C   0  0  0  0  0  0
    0.4078   52.4337   23.2137 C   0  0  0  0  0  0
    1.1028   53.1888   24.1770 C   0  0  0  0  0  0
    2.3727   53.6895   23.9125 C   0  0  0  0  0  0
   -1.0030   51.8337   23.4790 C   0  0  2  0  0  0
   -1.3256   51.3627   22.5476 H   0  0  0  0  0  0
   -2.0814   52.8967   23.8837 C   0  0  0  0  0  0
   -3.4235   52.4424   23.7009 N   0  5  0  0  0  0
   -4.4657   52.6225   24.8817 S   0  0  0  0  0  0
   -4.5425   53.9778   25.4481 O   0  0  0  0  0  0
   -5.7348   51.9695   24.5485 O   0  0  0  0  0  0
   -3.7493   51.6640   26.0666 O   0  0  0  0  0  0
   -4.3462   51.4394   27.2907 C   0  0  0  0  0  0
   -5.6956   51.6968   27.5793 C   0  0  0  0  0  0
   -6.2210   51.3808   28.8306 C   0  0  0  0  0  0
   -5.4043   50.8013   29.7981 C   0  0  0  0  0  0
   -4.0633   50.5486   29.5282 C   0  0  0  0  0  0
   -3.5364   50.8859   28.2840 C   0  0  0  0  0  0
   -1.0432   50.6614   24.5164 N   0  3  2  0  0  0
    0.3355   49.9941   24.7695 C   0  0  0  0  0  0
    0.2067   49.0410   25.9625 C   0  0  0  0  0  0
   -0.8956   48.0045   25.6817 N   0  3  0  0  0  0
   -2.2549   48.6405   25.3842 C   0  0  1  0  0  0
   -2.4822   49.2476   26.2611 H   0  0  0  0  0  0
   -2.0833   49.5538   24.1548 C   0  0  0  0  0  0
   -3.3089   47.5335   25.2682 C   0  0  0  0  0  0
   -3.4679   46.8464   24.0542 C   0  0  0  0  0  0
   -4.4739   45.8929   23.8990 C   0  0  0  0  0  0
   -5.3286   45.6022   24.9592 C   0  0  0  0  0  0
   -5.1749   46.2657   26.1738 C   0  0  0  0  0  0
   -4.1764   47.2254   26.3383 C   0  0  0  0  0  0
   -4.0956   47.8358   27.5652 O   0  0  0  0  0  0
    7.3142   54.9720   24.0049 H   0  0  0  0  0  0
    7.2234   54.0967   22.4830 H   0  0  0  0  0  0
    6.5988   55.7349   22.5920 H   0  0  0  0  0  0
    4.8677   54.9650   24.2290 H   0  0  0  0  0  0
    5.4540   53.3230   24.1131 H   0  0  0  0  0  0
    4.8728   53.2728   21.6772 H   0  0  0  0  0  0
    4.2398   54.8967   21.7712 H   0  0  0  0  0  0
    2.7608   52.4908   20.7604 H   0  0  0  0  0  0
    0.5315   51.6143   21.2168 H   0  0  0  0  0  0
    0.6635   53.3840   25.1438 H   0  0  0  0  0  0
    2.8624   54.2734   24.6758 H   0  0  0  0  0  0
   -1.8790   53.2216   24.9060 H   0  0  0  0  0  0
   -1.9352   53.7908   23.2817 H   0  0  0  0  0  0
   -6.3580   52.1325   26.8493 H   0  0  0  0  0  0
   -7.2626   51.5715   29.0437 H   0  0  0  0  0  0
   -5.8128   50.5394   30.7636 H   0  0  0  0  0  0
   -3.4282   50.0967   30.2788 H   0  0  0  0  0  0
   -2.4951   50.6828   28.0848 H   0  0  0  0  0  0
    0.6646   49.5161   23.8435 H   0  0  0  0  0  0
    1.0489   50.7656   25.0530 H   0  0  0  0  0  0
    1.1312   48.4967   26.1593 H   0  0  0  0  0  0
   -0.0956   49.5498   26.8816 H   0  0  0  0  0  0
   -0.9923   47.4606   26.5374 H   0  0  0  0  0  0
   -1.7334   49.0507   23.2523 H   0  0  0  0  0  0
   -3.0504   50.0061   23.9462 H   0  0  0  0  0  0
   -2.8307   47.0595   23.2089 H   0  0  0  0  0  0
   -4.6027   45.3912   22.9506 H   0  0  0  0  0  0
   -6.1158   44.8714   24.8403 H   0  0  0  0  0  0
   -5.8412   46.0428   26.9944 H   0  0  0  0  0  0
   -3.1964   48.0966   27.8414 H   0  0  0  0  0  0
   -0.6291   47.3451   24.9676 H   0  0  0  0  0  0
   -1.3575   51.1029   25.3717 H   0  0  0  0  0  0
  1  2  1  0  0  0
  1 38  1  0  0  0
  1 39  1  0  0  0
  1 40  1  0  0  0
  2  3  1  0  0  0
  2 41  1  0  0  0
  2 42  1  0  0  0
  3  4  1  0  0  0
  3 43  1  0  0  0
  3 44  1  0  0  0
  4  9  2  0  0  0
  4  5  1  0  0  0
  5  6  2  0  0  0
  5 45  1  0  0  0
  6  7  1  0  0  0
  6 46  1  0  0  0
  7  8  2  0  0  0
  7 10  1  0  0  0
  8  9  1  0  0  0
  8 47  1  0  0  0
  9 48  1  0  0  0
 10 11  1  0  0  0
 10 12  1  0  0  0
 10 24  1  0  0  0
 12 13  1  0  0  0
 12 49  1  0  0  0
 12 50  1  0  0  0
 13 14  1  0  0  0
 14 15  2  0  0  0
 14 16  2  0  0  0
 14 17  1  0  0  0
 17 18  1  0  0  0
 18 23  2  0  0  0
 18 19  1  0  0  0
 19 20  2  0  0  0
 19 51  1  0  0  0
 20 21  1  0  0  0
 20 52  1  0  0  0
 21 22  2  0  0  0
 21 53  1  0  0  0
 22 23  1  0  0  0
 22 54  1  0  0  0
 23 55  1  0  0  0
 24 30  1  0  0  0
 24 25  1  0  0  0
 24 69  1  0  0  0
 25 26  1  0  0  0
 25 56  1  0  0  0
 25 57  1  0  0  0
 26 27  1  0  0  0
 26 58  1  0  0  0
 26 59  1  0  0  0
 27 28  1  0  0  0
 27 60  1  0  0  0
 27 68  1  0  0  0
 28 29  1  0  0  0
 28 30  1  0  0  0
 28 31  1  0  0  0
 30 61  1  0  0  0
 30 62  1  0  0  0
 31 36  2  0  0  0
 31 32  1  0  0  0
 32 33  2  0  0  0
 32 63  1  0  0  0
 33 34  1  0  0  0
 33 64  1  0  0  0
 34 35  2  0  0  0
 34 65  1  0  0  0
 35 36  1  0  0  0
 35 66  1  0  0  0
 36 37  1  0  0  0
 37 67  1  0  0  0
M  CHG  3  13  -1  24   1  27   1
M  END
> <i_i_glide_confnum>
168

> <i_i_glide_lignum>
2927

> <i_i_glide_posenum>
306

> <i_i_glide_rotatable_bonds>
11

> <i_m_Source_File_Index>
5715

> <b_m_subgroup_collapsed>
0

> <r_i_docking_score>
-4.54949

> <r_i_glide_ecoul>
-10.2239

> <r_i_glide_eff_state_penalty>
0

> <r_i_glide_einternal>
13.3228

> <r_i_glide_emodel>
-56.1603

> <r_i_glide_energy>
-43.7

> <r_i_glide_erotb>
0.661451

> <r_i_glide_esite>
-0.109653

> <r_i_glide_evdw>
-33.4761

> <r_i_glide_gscore>
-4.54949

> <r_i_glide_hbond>
-0.24591

> <r_i_glide_ligand_efficiency>
-0.129986

> <r_i_glide_ligand_efficiency_ln>
-0.998715

> <r_i_glide_ligand_efficiency_sa>
-0.425191

> <r_i_glide_lipo>
-1.54495

> <r_i_glide_metal>
0

> <r_i_glide_rewards>
-0.103041

> <s_i_glide_gridfile>
wee1_glide-grid

> <s_m_Source_File>
wee1_decoys_glide_SP.sdf

> <s_m_Source_Path>
/Users/zhangxujun/Desktop

> <s_m_entry_id>
5990

> <s_m_entry_name>
wee1_decoys_glide_SP.5715

> <s_m_subgroup_title>
wee1_decoys_glide_SP

> <s_m_subgroupid>
wee1_decoys_glide_SP


$$$$
