ZINC48340435_1329
                    3D
 Schrodinger Suite 2024-2.
 52 54  0  0  1  0            999 V2000
    2.3030   49.6111   20.3223 C   0  0  0  0  0  0
    2.7888   50.9687   19.8652 C   0  0  0  0  0  0
    3.6337   51.6447   20.5222 N   0  0  0  0  0  0
    3.9250   52.7982   19.8642 N   0  0  0  0  0  0
    3.3326   53.0203   18.6507 C   0  0  0  0  0  0
    3.5047   54.2622   17.5491 S   0  0  0  0  0  0
    2.2514   51.6883   18.3397 S   0  0  0  0  0  0
    4.8963   53.7434   20.4540 C   0  0  0  0  0  0
    4.9142   53.7129   22.0093 N   0  3  1  0  0  0
    6.0928   54.5508   22.5430 C   0  0  0  0  0  0
    6.2056   54.3189   24.0542 C   0  0  0  0  0  0
    4.8991   54.5351   24.8646 C   0  0  1  0  0  0
    3.6183   54.0443   24.1319 C   0  0  0  0  0  0
    3.5947   54.2539   22.6035 C   0  0  0  0  0  0
    4.9520   54.0977   26.2652 N   0  0  0  0  0  0
    5.8436   54.4963   27.1924 C   0  0  0  0  0  0
    6.9666   54.9005   26.9013 O   0  0  0  0  0  0
    5.4296   54.4948   28.4739 N   0  0  0  0  0  0
    4.1328   54.0964   29.0440 C   0  0  0  0  0  0
    2.9450   55.0607   28.7610 C   0  0  0  0  0  0
    1.6073   54.6192   29.3968 C   0  0  0  0  0  0
    1.2732   53.1488   29.1003 C   0  0  0  0  0  0
    2.4169   52.2175   29.5309 C   0  0  0  0  0  0
    3.7559   52.6008   28.8722 C   0  0  0  0  0  0
    2.6186   49.3873   21.3424 H   0  0  0  0  0  0
    1.2145   49.5557   20.2864 H   0  0  0  0  0  0
    2.7032   48.8308   19.6736 H   0  0  0  0  0  0
    4.6813   54.7796   20.1913 H   0  0  0  0  0  0
    5.9017   53.4990   20.1047 H   0  0  0  0  0  0
    5.9278   55.5916   22.2605 H   0  0  0  0  0  0
    7.0097   54.1988   22.0816 H   0  0  0  0  0  0
    7.0026   54.9691   24.4170 H   0  0  0  0  0  0
    6.5417   53.2963   24.1957 H   0  0  0  0  0  0
    4.8100   55.6222   24.8811 H   0  0  0  0  0  0
    3.5040   52.9705   24.2904 H   0  0  0  0  0  0
    2.7385   54.5255   24.5622 H   0  0  0  0  0  0
    3.5024   55.2962   22.3083 H   0  0  0  0  0  0
    2.7719   53.6918   22.1599 H   0  0  0  0  0  0
    4.2180   53.4763   26.5680 H   0  0  0  0  0  0
    6.0204   55.0413   29.0876 H   0  0  0  0  0  0
    4.3105   54.1828   30.1177 H   0  0  0  0  0  0
    2.7862   55.1267   27.6862 H   0  0  0  0  0  0
    3.1760   56.0671   29.1111 H   0  0  0  0  0  0
    0.7910   55.2523   29.0442 H   0  0  0  0  0  0
    1.6506   54.7704   30.4758 H   0  0  0  0  0  0
    1.0789   53.0267   28.0335 H   0  0  0  0  0  0
    0.3505   52.8656   29.6095 H   0  0  0  0  0  0
    2.1626   51.1872   29.2799 H   0  0  0  0  0  0
    2.5206   52.2492   30.6174 H   0  0  0  0  0  0
    4.5502   51.9661   29.2676 H   0  0  0  0  0  0
    3.6640   52.3655   27.8134 H   0  0  0  0  0  0
    5.0322   52.7415   22.2713 H   0  0  0  0  0  0
  1  2  1  0  0  0
  1 25  1  0  0  0
  1 26  1  0  0  0
  1 27  1  0  0  0
  2  7  1  0  0  0
  2  3  2  0  0  0
  3  4  1  0  0  0
  4  5  1  0  0  0
  4  8  1  0  0  0
  5  6  2  0  0  0
  5  7  1  0  0  0
  8  9  1  0  0  0
  8 28  1  0  0  0
  8 29  1  0  0  0
  9 14  1  0  0  0
  9 10  1  0  0  0
  9 52  1  0  0  0
 10 11  1  0  0  0
 10 30  1  0  0  0
 10 31  1  0  0  0
 11 12  1  0  0  0
 11 32  1  0  0  0
 11 33  1  0  0  0
 12 13  1  0  0  0
 12 15  1  0  0  0
 12 34  1  0  0  0
 13 14  1  0  0  0
 13 35  1  0  0  0
 13 36  1  0  0  0
 14 37  1  0  0  0
 14 38  1  0  0  0
 15 16  1  0  0  0
 15 39  1  0  0  0
 16 17  2  0  0  0
 16 18  1  0  0  0
 18 19  1  0  0  0
 18 40  1  0  0  0
 19 24  1  0  0  0
 19 20  1  0  0  0
 19 41  1  0  0  0
 20 21  1  0  0  0
 20 42  1  0  0  0
 20 43  1  0  0  0
 21 22  1  0  0  0
 21 44  1  0  0  0
 21 45  1  0  0  0
 22 23  1  0  0  0
 22 46  1  0  0  0
 22 47  1  0  0  0
 23 24  1  0  0  0
 23 48  1  0  0  0
 23 49  1  0  0  0
 24 50  1  0  0  0
 24 51  1  0  0  0
M  CHG  1   9   1
M  END
> <i_i_glide_confnum>
83

> <i_i_glide_lignum>
1330

> <i_i_glide_posenum>
283

> <i_i_glide_rotatable_bonds>
6

> <i_m_Source_File_Index>
547

> <b_m_subgroup_collapsed>
0

> <r_i_docking_score>
-4.80851

> <r_i_glide_ecoul>
-2.18957

> <r_i_glide_eff_state_penalty>
0

> <r_i_glide_einternal>
9.43006

> <r_i_glide_emodel>
-45.3716

> <r_i_glide_energy>
-40.2689

> <r_i_glide_erotb>
0.491772

> <r_i_glide_esite>
-0.0269405

> <r_i_glide_evdw>
-38.0793

> <r_i_glide_gscore>
-4.80851

> <r_i_glide_hbond>
-0.47678

> <r_i_glide_ligand_efficiency>
-0.200355

> <r_i_glide_ligand_efficiency_ln>
-1.1509

> <r_i_glide_ligand_efficiency_sa>
-0.577923

> <r_i_glide_lipo>
-2.42219

> <r_i_glide_metal>
0

> <r_i_glide_rewards>
-0.141972

> <s_i_glide_gridfile>
wee1_glide-grid

> <s_m_Source_File>
wee1_decoys_glide_SP.sdf

> <s_m_Source_Path>
/Users/zhangxujun/Desktop

> <s_m_entry_id>
822

> <s_m_entry_name>
wee1_decoys_glide_SP.547

> <s_m_subgroup_title>
wee1_decoys_glide_SP

> <s_m_subgroupid>
wee1_decoys_glide_SP


$$$$
