ZINC21353397_1957
                    3D
 Schrodinger Suite 2024-2.
 46 49  0  0  1  0            999 V2000
    6.6375   54.8133   26.7028 C   0  0  0  0  0  0
    6.7446   55.0440   25.2990 O   0  0  0  0  0  0
    5.7158   54.6029   24.4815 C   0  0  0  0  0  0
    4.4871   54.0967   24.9406 C   0  0  0  0  0  0
    3.4691   53.6968   24.0706 C   0  0  0  0  0  0
    3.6695   53.7383   22.6837 C   0  0  0  0  0  0
    4.8794   54.2532   22.2096 C   0  0  0  0  0  0
    5.8991   54.7152   23.0838 C   0  0  0  0  0  0
    6.9467   55.3100   22.4481 N   0  0  0  0  0  0
    6.8278   55.2969   21.1490 C   0  0  0  0  0  0
    5.3815   54.4966   20.5536 S   0  0  0  0  0  0
    7.6681   55.9377   20.3187 N   0  5  0  0  0  0
    7.9363   55.6030   18.8055 S   0  0  0  0  0  0
    9.1041   56.3146   18.2769 O   0  0  0  0  0  0
    7.8193   54.1767   18.4821 O   0  0  0  0  0  0
    6.5427   56.3887   17.9750 C   0  0  0  0  0  0
    6.5478   57.7708   17.7710 C   0  0  0  0  0  0
    5.5001   58.3710   17.0772 C   0  0  0  0  0  0
    4.4341   57.5996   16.6222 C   0  0  0  0  0  0
    4.4173   56.2232   16.8299 C   0  0  0  0  0  0
    5.4792   55.6160   17.4934 C   0  0  0  0  0  0
    2.2845   53.2426   24.6856 N   0  0  0  0  0  0
    1.1073   52.8586   24.1392 C   0  0  0  0  0  0
    0.8418   52.8969   22.9368 O   0  0  0  0  0  0
    0.0583   52.3854   25.1216 C   0  0  0  0  0  0
    0.4118   51.8151   26.3568 C   0  0  0  0  0  0
   -0.5718   51.3599   27.2306 C   0  0  0  0  0  0
   -1.9136   51.4761   26.8820 C   0  0  0  0  0  0
   -2.2827   52.0443   25.6660 C   0  0  0  0  0  0
   -1.3002   52.4924   24.7871 C   0  0  0  0  0  0
    7.5043   55.2196   27.2191 H   0  0  0  0  0  0
    5.7596   55.2975   27.1311 H   0  0  0  0  0  0
    6.5947   53.7453   26.9230 H   0  0  0  0  0  0
    4.3064   54.0209   26.0022 H   0  0  0  0  0  0
    2.9195   53.4215   21.9748 H   0  0  0  0  0  0
    7.3734   58.3722   18.1237 H   0  0  0  0  0  0
    5.5096   59.4327   16.8848 H   0  0  0  0  0  0
    3.6190   58.0747   16.0959 H   0  0  0  0  0  0
    3.5931   55.6274   16.4660 H   0  0  0  0  0  0
    5.4736   54.5440   17.6296 H   0  0  0  0  0  0
    2.3257   53.2037   25.6914 H   0  0  0  0  0  0
    1.4451   51.6965   26.6482 H   0  0  0  0  0  0
   -0.3000   50.8999   28.1701 H   0  0  0  0  0  0
   -2.6706   51.1065   27.5590 H   0  0  0  0  0  0
   -3.3265   52.1253   25.4009 H   0  0  0  0  0  0
   -1.6026   52.9224   23.8422 H   0  0  0  0  0  0
  1  2  1  0  0  0
  1 31  1  0  0  0
  1 32  1  0  0  0
  1 33  1  0  0  0
  2  3  1  0  0  0
  3  8  2  0  0  0
  3  4  1  0  0  0
  4  5  2  0  0  0
  4 34  1  0  0  0
  5  6  1  0  0  0
  5 22  1  0  0  0
  6  7  2  0  0  0
  6 35  1  0  0  0
  7 11  1  0  0  0
  7  8  1  0  0  0
  8  9  1  0  0  0
  9 10  2  0  0  0
 10 11  1  0  0  0
 10 12  1  0  0  0
 12 13  1  0  0  0
 13 14  2  0  0  0
 13 15  2  0  0  0
 13 16  1  0  0  0
 16 21  2  0  0  0
 16 17  1  0  0  0
 17 18  2  0  0  0
 17 36  1  0  0  0
 18 19  1  0  0  0
 18 37  1  0  0  0
 19 20  2  0  0  0
 19 38  1  0  0  0
 20 21  1  0  0  0
 20 39  1  0  0  0
 21 40  1  0  0  0
 22 23  1  0  0  0
 22 41  1  0  0  0
 23 24  2  0  0  0
 23 25  1  0  0  0
 25 30  2  0  0  0
 25 26  1  0  0  0
 26 27  2  0  0  0
 26 42  1  0  0  0
 27 28  1  0  0  0
 27 43  1  0  0  0
 28 29  2  0  0  0
 28 44  1  0  0  0
 29 30  1  0  0  0
 29 45  1  0  0  0
 30 46  1  0  0  0
M  CHG  1  12  -1
M  END
> <i_i_glide_confnum>
7

> <i_i_glide_lignum>
1958

> <i_i_glide_posenum>
323

> <i_i_glide_rotatable_bonds>
7

> <i_m_Source_File_Index>
666

> <b_m_subgroup_collapsed>
0

> <r_i_docking_score>
-4.24387

> <r_i_glide_ecoul>
0.568349

> <r_i_glide_eff_state_penalty>
0

> <r_i_glide_einternal>
1.78446

> <r_i_glide_emodel>
-51.9063

> <r_i_glide_energy>
-40.0085

> <r_i_glide_erotb>
0.622529

> <r_i_glide_esite>
-0.0048063

> <r_i_glide_evdw>
-40.5768

> <r_i_glide_gscore>
-4.24387

> <r_i_glide_hbond>
-0.191055

> <r_i_glide_ligand_efficiency>
-0.141462

> <r_i_glide_ligand_efficiency_ln>
-0.964254

> <r_i_glide_ligand_efficiency_sa>
-0.439557

> <r_i_glide_lipo>
-2.02903

> <r_i_glide_metal>
0

> <r_i_glide_rewards>
-0.697924

> <s_i_glide_gridfile>
wee1_glide-grid

> <s_m_Source_File>
wee1_decoys_glide_SP.sdf

> <s_m_Source_Path>
/Users/zhangxujun/Desktop

> <s_m_entry_id>
941

> <s_m_entry_name>
wee1_decoys_glide_SP.666

> <s_m_subgroup_title>
wee1_decoys_glide_SP

> <s_m_subgroupid>
wee1_decoys_glide_SP


$$$$
