ZINC14037595_4424
                    3D
 Schrodinger Suite 2024-2.
 34 35  0  0  1  0            999 V2000
    6.6476   54.3891   27.0869 C   0  0  0  0  0  0
    6.2013   54.6192   25.7887 C   0  0  0  0  0  0
    4.8476   54.4792   25.4912 C   0  0  0  0  0  0
    3.9421   54.0969   26.4825 C   0  0  0  0  0  0
    4.3793   53.8502   27.7984 C   0  0  0  0  0  0
    5.7456   54.0146   28.0809 C   0  0  0  0  0  0
    3.4318   53.4535   28.9149 C   0  0  0  0  0  0
    3.7442   53.6996   30.0818 O   0  0  0  0  0  0
    2.2962   52.8058   28.5418 N   0  0  0  0  0  0
    1.1364   52.4932   29.2214 C   0  0  0  0  0  0
    0.7045   52.9385   30.7711 S   0  0  0  0  0  0
    0.2052   51.7447   28.5622 N   0  0  0  0  0  0
    0.4416   51.1973   27.3041 N   0  0  0  0  0  0
   -0.3517   51.5938   26.2901 C   0  0  0  0  0  0
   -1.1933   52.4958   26.3445 O   0  0  0  0  0  0
   -0.1281   50.8216   25.0212 C   0  0  0  0  0  0
   -0.3310   49.4325   25.0292 C   0  0  0  0  0  0
   -0.1020   48.6772   23.8816 C   0  0  0  0  0  0
    0.3363   49.2973   22.7142 C   0  0  0  0  0  0
    0.5508   50.6735   22.6966 C   0  0  0  0  0  0
    0.3252   51.4425   23.8400 C   0  0  0  0  0  0
    0.7049   53.5029   23.6859 I   0  0  0  0  0  0
    2.6379   53.9898   26.1452 F   0  0  0  0  0  0
    7.6919   54.5008   27.3350 H   0  0  0  0  0  0
    6.8993   54.9061   25.0153 H   0  0  0  0  0  0
    4.4938   54.6632   24.4873 H   0  0  0  0  0  0
    6.1297   53.8566   29.0777 H   0  0  0  0  0  0
    2.2470   52.6402   27.5475 H   0  0  0  0  0  0
   -0.3974   51.1394   29.1053 H   0  0  0  0  0  0
    0.7457   50.2363   27.3675 H   0  0  0  0  0  0
   -0.6700   48.9246   25.9250 H   0  0  0  0  0  0
   -0.2638   47.6104   23.9022 H   0  0  0  0  0  0
    0.5151   48.7156   21.8224 H   0  0  0  0  0  0
    0.8985   51.1465   21.7893 H   0  0  0  0  0  0
  1  6  2  0  0  0
  1  2  1  0  0  0
  1 24  1  0  0  0
  2  3  2  0  0  0
  2 25  1  0  0  0
  3  4  1  0  0  0
  3 26  1  0  0  0
  4  5  2  0  0  0
  4 23  1  0  0  0
  5  6  1  0  0  0
  5  7  1  0  0  0
  6 27  1  0  0  0
  7  8  2  0  0  0
  7  9  1  0  0  0
  9 10  1  0  0  0
  9 28  1  0  0  0
 10 11  2  0  0  0
 10 12  1  0  0  0
 12 13  1  0  0  0
 12 29  1  0  0  0
 13 14  1  0  0  0
 13 30  1  0  0  0
 14 15  2  0  0  0
 14 16  1  0  0  0
 16 21  2  0  0  0
 16 17  1  0  0  0
 17 18  2  0  0  0
 17 31  1  0  0  0
 18 19  1  0  0  0
 18 32  1  0  0  0
 19 20  2  0  0  0
 19 33  1  0  0  0
 20 21  1  0  0  0
 20 34  1  0  0  0
 21 22  1  0  0  0
M  END
> <i_i_glide_confnum>
75

> <i_i_glide_lignum>
4425

> <i_i_glide_posenum>
229

> <i_i_glide_rotatable_bonds>
7

> <i_m_Source_File_Index>
1512

> <b_m_subgroup_collapsed>
0

> <r_i_docking_score>
-5.7429

> <r_i_glide_ecoul>
-4.21435

> <r_i_glide_eff_state_penalty>
0

> <r_i_glide_einternal>
1.77355

> <r_i_glide_emodel>
-60.8061

> <r_i_glide_energy>
-45.7905

> <r_i_glide_erotb>
0.50876

> <r_i_glide_esite>
-0.0821043

> <r_i_glide_evdw>
-41.5762

> <r_i_glide_gscore>
-5.7429

> <r_i_glide_hbond>
-0.32

> <r_i_glide_ligand_efficiency>
-0.249691

> <r_i_glide_ligand_efficiency_ln>
-1.38869

> <r_i_glide_ligand_efficiency_sa>
-0.710089

> <r_i_glide_lipo>
-2.02096

> <r_i_glide_metal>
0

> <r_i_glide_rewards>
-1.11763

> <s_i_glide_gridfile>
wee1_glide-grid

> <s_m_Source_File>
wee1_decoys_glide_SP.sdf

> <s_m_Source_Path>
/Users/zhangxujun/Desktop

> <s_m_entry_id>
1787

> <s_m_entry_name>
wee1_decoys_glide_SP.1512

> <s_m_subgroup_title>
wee1_decoys_glide_SP

> <s_m_subgroupid>
wee1_decoys_glide_SP


$$$$
