ZINC36660347_5709
                    3D
 Schrodinger Suite 2024-2.
 61 64  0  0  1  0            999 V2000
    2.0609   51.5757   19.9931 C   0  0  0  0  0  0
    2.7249   51.4179   18.6088 N   0  3  0  0  0  0
    1.8365   50.5611   17.6790 C   0  0  0  0  0  0
    3.1528   52.7375   17.9155 C   0  0  0  0  0  0
    3.8024   53.7892   18.8477 C   0  0  0  0  0  0
    5.1378   53.4344   19.5364 C   0  0  0  0  0  0
    5.6245   54.5051   20.4414 N   0  0  0  0  0  0
    5.3757   54.3388   21.8123 C   0  0  0  0  0  0
    6.2801   54.4958   22.7466 N   0  0  0  0  0  0
    5.7344   54.4187   23.9877 C   0  0  0  0  0  0
    6.4475   54.5833   25.1804 C   0  0  0  0  0  0
    5.7565   54.5019   26.3911 C   0  0  0  0  0  0
    4.3807   54.2691   26.4225 C   0  0  0  0  0  0
    3.6485   54.0965   25.2461 C   0  0  0  0  0  0
    4.3381   54.1691   24.0270 C   0  0  0  0  0  0
    3.7433   54.0227   22.3805 S   0  0  0  0  0  0
    3.5684   54.1993   27.9433 Cl  0  0  0  0  0  0
    6.1970   55.6767   20.0027 C   0  0  0  0  0  0
    6.4328   56.6260   20.7634 O   0  0  0  0  0  0
    6.5083   55.8919   18.4931 C   0  0  1  0  0  0
    6.5675   54.9262   17.9987 H   0  0  0  0  0  0
    5.4897   56.8448   17.8200 C   0  0  0  0  0  0
    6.2977   57.9239   17.1214 C   0  0  0  0  0  0
    7.5678   58.0331   17.9466 C   0  0  0  0  0  0
    7.8071   56.6244   18.3525 N   0  0  0  0  0  0
    9.2114   55.7534   17.7308 S   0  0  0  0  0  0
   10.3366   56.6932   17.6748 O   0  0  0  0  0  0
    9.3131   54.4969   18.4806 O   0  0  0  0  0  0
    8.7843   55.3282   16.0440 C   0  0  0  0  0  0
    8.2397   54.0728   15.7590 C   0  0  0  0  0  0
    7.8918   53.7535   14.4496 C   0  0  0  0  0  0
    8.0893   54.6868   13.4344 C   0  0  0  0  0  0
    8.6348   55.9375   13.7158 C   0  0  0  0  0  0
    8.9855   56.2608   15.0241 C   0  0  0  0  0  0
    7.7477   54.3761   12.1638 F   0  0  0  0  0  0
    1.2229   52.2681   19.8887 H   0  0  0  0  0  0
    1.7303   50.5888   20.3220 H   0  0  0  0  0  0
    2.8160   51.9576   20.6760 H   0  0  0  0  0  0
    0.8568   51.0373   17.6115 H   0  0  0  0  0  0
    2.3059   50.5010   16.6964 H   0  0  0  0  0  0
    1.7704   49.5653   18.1215 H   0  0  0  0  0  0
    2.2397   53.1426   17.4745 H   0  0  0  0  0  0
    3.8307   52.4285   17.1161 H   0  0  0  0  0  0
    3.1043   54.0944   19.6145 H   0  0  0  0  0  0
    3.9410   54.6793   18.2421 H   0  0  0  0  0  0
    5.8953   53.1448   18.8077 H   0  0  0  0  0  0
    4.9946   52.5200   20.1138 H   0  0  0  0  0  0
    7.5043   54.7741   25.1491 H   0  0  0  0  0  0
    6.2935   54.6303   27.3214 H   0  0  0  0  0  0
    2.5840   53.9142   25.2783 H   0  0  0  0  0  0
    4.8870   56.3226   17.0767 H   0  0  0  0  0  0
    4.7961   57.2967   18.5306 H   0  0  0  0  0  0
    6.5398   57.6242   16.1004 H   0  0  0  0  0  0
    5.7656   58.8758   17.0581 H   0  0  0  0  0  0
    8.4346   58.5224   17.5007 H   0  0  0  0  0  0
    7.3629   58.6274   18.8392 H   0  0  0  0  0  0
    8.0865   53.3454   16.5439 H   0  0  0  0  0  0
    7.4717   52.7857   14.2186 H   0  0  0  0  0  0
    8.7840   56.6515   12.9198 H   0  0  0  0  0  0
    9.4067   57.2318   15.2434 H   0  0  0  0  0  0
    3.5977   50.8964   18.7161 H   0  0  0  0  0  0
  1  2  1  0  0  0
  1 36  1  0  0  0
  1 37  1  0  0  0
  1 38  1  0  0  0
  2  3  1  0  0  0
  2  4  1  0  0  0
  2 61  1  0  0  0
  3 39  1  0  0  0
  3 40  1  0  0  0
  3 41  1  0  0  0
  4  5  1  0  0  0
  4 42  1  0  0  0
  4 43  1  0  0  0
  5  6  1  0  0  0
  5 44  1  0  0  0
  5 45  1  0  0  0
  6  7  1  0  0  0
  6 46  1  0  0  0
  6 47  1  0  0  0
  7  8  1  0  0  0
  7 18  1  0  0  0
  8 16  1  0  0  0
  8  9  2  0  0  0
  9 10  1  0  0  0
 10 15  2  0  0  0
 10 11  1  0  0  0
 11 12  2  0  0  0
 11 48  1  0  0  0
 12 13  1  0  0  0
 12 49  1  0  0  0
 13 14  2  0  0  0
 13 17  1  0  0  0
 14 15  1  0  0  0
 14 50  1  0  0  0
 15 16  1  0  0  0
 18 19  2  0  0  0
 18 20  1  0  0  0
 20 21  1  0  0  0
 20 25  1  0  0  0
 20 22  1  0  0  0
 22 23  1  0  0  0
 22 51  1  0  0  0
 22 52  1  0  0  0
 23 24  1  0  0  0
 23 53  1  0  0  0
 23 54  1  0  0  0
 24 25  1  0  0  0
 24 55  1  0  0  0
 24 56  1  0  0  0
 25 26  1  0  0  0
 26 27  2  0  0  0
 26 28  2  0  0  0
 26 29  1  0  0  0
 29 34  2  0  0  0
 29 30  1  0  0  0
 30 31  2  0  0  0
 30 57  1  0  0  0
 31 32  1  0  0  0
 31 58  1  0  0  0
 32 33  2  0  0  0
 32 35  1  0  0  0
 33 34  1  0  0  0
 33 59  1  0  0  0
 34 60  1  0  0  0
M  CHG  1   2   1
M  END
> <i_i_glide_confnum>
300

> <i_i_glide_lignum>
5710

> <i_i_glide_posenum>
262

> <i_i_glide_rotatable_bonds>
9

> <i_m_Source_File_Index>
3854

> <b_m_subgroup_collapsed>
0

> <r_i_docking_score>
-5.09376

> <r_i_glide_ecoul>
-4.76198

> <r_i_glide_eff_state_penalty>
0

> <r_i_glide_einternal>
6.27913

> <r_i_glide_emodel>
-58.7718

> <r_i_glide_energy>
-43.9856

> <r_i_glide_erotb>
0.595103

> <r_i_glide_esite>
-0.105815

> <r_i_glide_evdw>
-39.2236

> <r_i_glide_gscore>
-5.09376

> <r_i_glide_hbond>
-0.356767

> <r_i_glide_ligand_efficiency>
-0.149816

> <r_i_glide_ligand_efficiency_ln>
-1.12535

> <r_i_glide_ligand_efficiency_sa>
-0.485347

> <r_i_glide_lipo>
-2.27732

> <r_i_glide_metal>
0

> <r_i_glide_rewards>
-0.27348

> <s_i_glide_gridfile>
wee1_glide-grid

> <s_m_Source_File>
wee1_decoys_glide_SP.sdf

> <s_m_Source_Path>
/Users/zhangxujun/Desktop

> <s_m_entry_id>
4129

> <s_m_entry_name>
wee1_decoys_glide_SP.3854

> <s_m_subgroup_title>
wee1_decoys_glide_SP

> <s_m_subgroupid>
wee1_decoys_glide_SP


$$$$
