ZINC25143390_4883
                    3D
 Schrodinger Suite 2024-2.
 66 69  0  0  1  0            999 V2000
    7.1880   58.5005   17.2237 C   0  0  0  0  0  0
    7.3313   57.4753   16.2931 C   0  0  0  0  0  0
    6.9283   56.1875   16.6257 C   0  0  0  0  0  0
    6.3691   55.9341   17.8812 C   0  0  0  0  0  0
    6.2486   56.9686   18.8232 C   0  0  0  0  0  0
    6.6526   58.2548   18.4855 C   0  0  0  0  0  0
    5.9509   54.6151   18.1168 N   0  0  0  0  0  0
    4.9788   54.1809   18.9425 C   0  0  0  0  0  0
    4.3089   54.8965   19.6828 O   0  0  0  0  0  0
    4.7104   52.6777   18.8738 C   0  0  0  0  0  0
    3.4474   52.2825   19.6810 N   0  3  1  0  0  0
    2.6389   51.1583   18.9750 C   0  0  0  0  0  0
    1.3624   50.8811   19.8044 C   0  0  0  0  0  0
    1.7497   50.4892   21.2460 C   0  0  1  0  0  0
    2.5406   51.6440   21.8664 C   0  0  0  0  0  0
    3.8504   51.8673   21.1169 C   0  0  0  0  0  0
    0.5194   50.2417   22.0568 N   0  0  0  0  0  0
   -0.5839   51.4942   22.6628 S   0  0  0  0  0  0
   -0.8013   52.4713   21.5906 O   0  0  0  0  0  0
   -1.7187   50.7980   23.2764 O   0  0  0  0  0  0
    0.2903   52.3273   23.9932 C   0  0  0  0  0  0
    0.3872   51.7176   25.2432 C   0  0  0  0  0  0
    1.1566   52.3110   26.2421 C   0  0  0  0  0  0
    1.8703   53.4873   25.9798 C   0  0  0  0  0  0
    1.7623   54.0961   24.7256 C   0  0  0  0  0  0
    0.9309   53.5476   23.7601 C   0  0  0  0  0  0
    2.7399   54.1230   27.0651 C   0  0  0  0  0  0
    1.9237   54.4775   28.3351 C   0  0  0  0  0  0
    2.8048   55.0902   29.4414 C   0  0  0  0  0  0
    4.0331   54.2118   29.7516 C   0  0  0  0  0  0
    4.8526   53.9044   28.4870 C   0  0  0  0  0  0
    3.9840   53.2664   27.3876 C   0  0  0  0  0  0
    7.4739   59.5084   16.9599 H   0  0  0  0  0  0
    7.7418   57.6831   15.3174 H   0  0  0  0  0  0
    7.0253   55.3987   15.8956 H   0  0  0  0  0  0
    5.8439   56.7942   19.8074 H   0  0  0  0  0  0
    6.5399   59.0720   19.1880 H   0  0  0  0  0  0
    6.3563   53.9309   17.4970 H   0  0  0  0  0  0
    4.5246   52.4138   17.8302 H   0  0  0  0  0  0
    5.5483   52.0969   19.2674 H   0  0  0  0  0  0
    2.3758   51.5251   17.9803 H   0  0  0  0  0  0
    3.2729   50.2752   18.8820 H   0  0  0  0  0  0
    0.7278   51.7674   19.7802 H   0  0  0  0  0  0
    0.7781   50.0838   19.3415 H   0  0  0  0  0  0
    2.3699   49.5896   21.2144 H   0  0  0  0  0  0
    2.7051   51.4813   22.9306 H   0  0  0  0  0  0
    1.9814   52.5669   21.7505 H   0  0  0  0  0  0
    4.4791   50.9752   21.0615 H   0  0  0  0  0  0
    4.4057   52.6995   21.5530 H   0  0  0  0  0  0
    0.4544   49.3311   22.5171 H   0  0  0  0  0  0
   -0.1185   50.7828   25.4396 H   0  0  0  0  0  0
    1.2229   51.8260   27.2057 H   0  0  0  0  0  0
    2.3085   54.9960   24.4872 H   0  0  0  0  0  0
    0.8525   54.0474   22.8075 H   0  0  0  0  0  0
    3.1050   55.0650   26.6494 H   0  0  0  0  0  0
    1.1460   55.2000   28.0856 H   0  0  0  0  0  0
    1.4342   53.5912   28.7405 H   0  0  0  0  0  0
    3.1301   56.0845   29.1411 H   0  0  0  0  0  0
    2.2096   55.2381   30.3439 H   0  0  0  0  0  0
    4.6786   54.6974   30.4800 H   0  0  0  0  0  0
    3.7077   53.2777   30.2123 H   0  0  0  0  0  0
    5.3005   54.8255   28.1101 H   0  0  0  0  0  0
    5.6841   53.2424   28.7389 H   0  0  0  0  0  0
    3.6739   52.2783   27.7254 H   0  0  0  0  0  0
    4.5987   53.1438   26.4953 H   0  0  0  0  0  0
    2.8623   53.1113   19.7225 H   0  0  0  0  0  0
  1  6  2  0  0  0
  1  2  1  0  0  0
  1 33  1  0  0  0
  2  3  2  0  0  0
  2 34  1  0  0  0
  3  4  1  0  0  0
  3 35  1  0  0  0
  4  5  2  0  0  0
  4  7  1  0  0  0
  5  6  1  0  0  0
  5 36  1  0  0  0
  6 37  1  0  0  0
  7  8  1  0  0  0
  7 38  1  0  0  0
  8  9  2  0  0  0
  8 10  1  0  0  0
 10 11  1  0  0  0
 10 39  1  0  0  0
 10 40  1  0  0  0
 11 16  1  0  0  0
 11 12  1  0  0  0
 11 66  1  0  0  0
 12 13  1  0  0  0
 12 41  1  0  0  0
 12 42  1  0  0  0
 13 14  1  0  0  0
 13 43  1  0  0  0
 13 44  1  0  0  0
 14 15  1  0  0  0
 14 17  1  0  0  0
 14 45  1  0  0  0
 15 16  1  0  0  0
 15 46  1  0  0  0
 15 47  1  0  0  0
 16 48  1  0  0  0
 16 49  1  0  0  0
 17 18  1  0  0  0
 17 50  1  0  0  0
 18 19  2  0  0  0
 18 20  2  0  0  0
 18 21  1  0  0  0
 21 26  2  0  0  0
 21 22  1  0  0  0
 22 23  2  0  0  0
 22 51  1  0  0  0
 23 24  1  0  0  0
 23 52  1  0  0  0
 24 25  2  0  0  0
 24 27  1  0  0  0
 25 26  1  0  0  0
 25 53  1  0  0  0
 26 54  1  0  0  0
 27 32  1  0  0  0
 27 28  1  0  0  0
 27 55  1  0  0  0
 28 29  1  0  0  0
 28 56  1  0  0  0
 28 57  1  0  0  0
 29 30  1  0  0  0
 29 58  1  0  0  0
 29 59  1  0  0  0
 30 31  1  0  0  0
 30 60  1  0  0  0
 30 61  1  0  0  0
 31 32  1  0  0  0
 31 62  1  0  0  0
 31 63  1  0  0  0
 32 64  1  0  0  0
 32 65  1  0  0  0
M  CHG  1  11   1
M  END
> <i_i_glide_confnum>
9

> <i_i_glide_lignum>
4884

> <i_i_glide_posenum>
90

> <i_i_glide_rotatable_bonds>
8

> <i_m_Source_File_Index>
5182

> <b_m_subgroup_collapsed>
0

> <r_i_docking_score>
-3.39951

> <r_i_glide_ecoul>
-3.16449

> <r_i_glide_eff_state_penalty>
0

> <r_i_glide_einternal>
4.0794

> <r_i_glide_emodel>
-37.8332

> <r_i_glide_energy>
-30.3923

> <r_i_glide_erotb>
0.674757

> <r_i_glide_esite>
-0.0644845

> <r_i_glide_evdw>
-27.2278

> <r_i_glide_gscore>
-3.39951

> <r_i_glide_hbond>
0

> <r_i_glide_ligand_efficiency>
-0.106235

> <r_i_glide_ligand_efficiency_ln>
-0.761244

> <r_i_glide_ligand_efficiency_sa>
-0.337275

> <r_i_glide_lipo>
-1.95167

> <r_i_glide_metal>
0

> <r_i_glide_rewards>
-0.222054

> <s_i_glide_gridfile>
wee1_glide-grid

> <s_m_Source_File>
wee1_decoys_glide_SP.sdf

> <s_m_Source_Path>
/Users/zhangxujun/Desktop

> <s_m_entry_id>
5457

> <s_m_entry_name>
wee1_decoys_glide_SP.5182

> <s_m_subgroup_title>
wee1_decoys_glide_SP

> <s_m_subgroupid>
wee1_decoys_glide_SP


$$$$
