ZINC39517953_2320
                    3D
 Schrodinger Suite 2024-2.
 47 50  0  0  1  0            999 V2000
    9.1047   54.9726   18.8295 C   0  0  0  0  0  0
    8.5683   56.3081   18.2548 C   0  0  1  0  0  0
    8.9280   57.1038   18.9110 H   0  0  0  0  0  0
    9.2145   56.5767   16.8684 C   0  0  0  0  0  0
    8.8433   57.9566   16.2822 C   0  0  0  0  0  0
    7.3181   58.1607   16.2202 C   0  0  0  0  0  0
    6.6800   57.9021   17.5969 C   0  0  0  0  0  0
    7.0105   56.4763   18.1382 C   0  0  2  0  0  0
    6.3779   56.3192   19.5140 C   0  0  0  0  0  0
    6.5507   57.0919   20.4630 O   0  0  0  0  0  0
    5.7045   55.1360   19.4716 N   0  0  0  0  0  0
    5.5862   54.6405   18.2107 C   0  0  0  0  0  0
    4.7813   53.8105   17.8017 O   0  0  0  0  0  0
    6.3625   55.4055   17.4376 N   0  0  0  0  0  0
    4.9207   54.4916   20.5634 C   0  0  0  0  0  0
    5.5389   54.5227   21.9774 C   0  0  0  0  0  0
    6.7065   54.8749   22.1623 O   0  0  0  0  0  0
    4.6726   54.1901   22.9533 N   0  0  0  0  0  0
    4.8814   54.2341   24.3253 C   0  0  0  0  0  0
    3.8790   54.0709   25.1460 N   0  0  0  0  0  0
    4.2225   54.0987   26.4241 C   0  0  0  0  0  0
    5.5895   54.3218   26.6349 C   0  0  0  0  0  0
    6.4147   54.4967   25.1167 S   0  0  0  0  0  0
    3.1911   53.8700   27.4520 C   0  0  0  0  0  0
    1.9403   53.2838   27.1607 C   0  0  0  0  0  0
    1.1038   53.1598   28.2574 C   0  0  0  0  0  0
    1.8325   53.7859   29.6864 S   0  0  0  0  0  0
    3.2798   54.1853   28.8135 C   0  0  0  0  0  0
    4.5845   54.8964   29.6813 Cl  0  0  0  0  0  0
   -0.4767   52.4929   28.3047 Cl  0  0  0  0  0  0
    8.6924   54.1120   18.3024 H   0  0  0  0  0  0
   10.1884   54.9017   18.7570 H   0  0  0  0  0  0
    8.8514   54.8737   19.8838 H   0  0  0  0  0  0
    8.9510   55.7802   16.1709 H   0  0  0  0  0  0
   10.3004   56.5160   16.9522 H   0  0  0  0  0  0
    9.2787   58.0693   15.2869 H   0  0  0  0  0  0
    9.2859   58.7407   16.8989 H   0  0  0  0  0  0
    6.8846   57.4886   15.4751 H   0  0  0  0  0  0
    7.0875   59.1761   15.8906 H   0  0  0  0  0  0
    6.9220   58.6888   18.3175 H   0  0  0  0  0  0
    5.6014   57.9947   17.4652 H   0  0  0  0  0  0
    6.7077   55.0934   16.5440 H   0  0  0  0  0  0
    3.9107   54.8964   20.5696 H   0  0  0  0  0  0
    4.8051   53.4299   20.3323 H   0  0  0  0  0  0
    3.7321   53.9646   22.6659 H   0  0  0  0  0  0
    6.1431   54.3706   27.5603 H   0  0  0  0  0  0
    1.6555   52.9480   26.1733 H   0  0  0  0  0  0
  1  2  1  0  0  0
  1 31  1  0  0  0
  1 32  1  0  0  0
  1 33  1  0  0  0
  2  3  1  0  0  0
  2  8  1  0  0  0
  2  4  1  0  0  0
  4  5  1  0  0  0
  4 34  1  0  0  0
  4 35  1  0  0  0
  5  6  1  0  0  0
  5 36  1  0  0  0
  5 37  1  0  0  0
  6  7  1  0  0  0
  6 38  1  0  0  0
  6 39  1  0  0  0
  7  8  1  0  0  0
  7 40  1  0  0  0
  7 41  1  0  0  0
  8 14  1  0  0  0
  8  9  1  0  0  0
  9 10  2  0  0  0
  9 11  1  0  0  0
 11 12  1  0  0  0
 11 15  1  0  0  0
 12 13  2  0  0  0
 12 14  1  0  0  0
 14 42  1  0  0  0
 15 16  1  0  0  0
 15 43  1  0  0  0
 15 44  1  0  0  0
 16 17  2  0  0  0
 16 18  1  0  0  0
 18 19  1  0  0  0
 18 45  1  0  0  0
 19 23  1  0  0  0
 19 20  2  0  0  0
 20 21  1  0  0  0
 21 22  2  0  0  0
 21 24  1  0  0  0
 22 23  1  0  0  0
 22 46  1  0  0  0
 24 28  2  0  0  0
 24 25  1  0  0  0
 25 26  2  0  0  0
 25 47  1  0  0  0
 26 27  1  0  0  0
 26 30  1  0  0  0
 27 28  1  0  0  0
 28 29  1  0  0  0
M  END
> <i_i_glide_confnum>
7

> <i_i_glide_lignum>
2321

> <i_i_glide_posenum>
345

> <i_i_glide_rotatable_bonds>
5

> <i_m_Source_File_Index>
5819

> <b_m_subgroup_collapsed>
0

> <r_i_docking_score>
-5.50292

> <r_i_glide_ecoul>
-4.19805

> <r_i_glide_eff_state_penalty>
0

> <r_i_glide_einternal>
1.92863

> <r_i_glide_emodel>
-62.6024

> <r_i_glide_energy>
-48.0655

> <r_i_glide_erotb>
0.451288

> <r_i_glide_esite>
-0.00587545

> <r_i_glide_evdw>
-43.8675

> <r_i_glide_gscore>
-5.50292

> <r_i_glide_hbond>
-0.32

> <r_i_glide_ligand_efficiency>
-0.189756

> <r_i_glide_ligand_efficiency_ln>
-1.26003

> <r_i_glide_ligand_efficiency_sa>
-0.58299

> <r_i_glide_lipo>
-2.15875

> <r_i_glide_metal>
0

> <r_i_glide_rewards>
-0.646504

> <s_i_glide_gridfile>
wee1_glide-grid

> <s_m_Source_File>
wee1_decoys_glide_SP.sdf

> <s_m_Source_Path>
/Users/zhangxujun/Desktop

> <s_m_entry_id>
6094

> <s_m_entry_name>
wee1_decoys_glide_SP.5819

> <s_m_subgroup_title>
wee1_decoys_glide_SP

> <s_m_subgroupid>
wee1_decoys_glide_SP


$$$$
