ZINC35729464_5398
                    3D
 Schrodinger Suite 2024-2.
 50 54  0  0  1  0            999 V2000
    7.6658   58.8969   18.0997 C   0  0  0  0  0  0
    6.5659   58.0605   17.9067 C   0  0  0  0  0  0
    6.7606   56.7239   17.5260 C   0  0  0  0  0  0
    8.0622   56.2480   17.3459 C   0  0  0  0  0  0
    9.1572   57.0924   17.5262 C   0  0  0  0  0  0
    8.9583   58.4167   17.9080 C   0  0  0  0  0  0
   10.9200   56.4401   17.2395 Br  0  0  0  0  0  0
    5.7293   55.7900   17.3473 N   0  0  0  0  0  0
    4.3951   55.9754   17.2160 C   0  0  0  0  0  0
    3.8685   57.0794   17.0851 O   0  0  0  0  0  0
    3.6692   54.8234   17.2182 N   0  0  0  0  0  0
    2.2578   54.7744   16.8394 C   0  0  0  0  0  0
    1.9895   53.3101   16.5182 C   0  0  0  0  0  0
    2.9020   52.5703   17.4825 C   0  0  0  0  0  0
    4.1413   53.4789   17.6291 C   0  0  2  0  0  0
    4.9033   53.1527   16.9169 H   0  0  0  0  0  0
    4.7301   53.4640   19.0543 C   0  0  0  0  0  0
    5.9031   53.1319   19.2049 O   0  0  0  0  0  0
    3.9061   53.9043   20.0254 N   0  0  0  0  0  0
    4.2113   53.9804   21.3656 C   0  0  0  0  0  0
    5.3966   54.0819   21.9252 N   0  0  0  0  0  0
    5.3151   54.1027   23.3095 N   0  0  0  0  0  0
    4.0789   54.0269   23.7543 C   0  0  0  0  0  0
    2.8954   53.8991   22.4828 S   0  0  0  0  0  0
    3.6983   53.9869   25.2016 C   0  0  0  0  0  0
    2.3758   53.6964   25.6082 C   0  0  0  0  0  0
    2.0316   53.6127   26.9652 C   0  0  0  0  0  0
    3.0437   53.8040   27.8920 C   0  0  0  0  0  0
    4.3254   54.0803   27.5123 C   0  0  0  0  0  0
    4.6892   54.1923   26.1803 C   0  0  0  0  0  0
    5.1020   54.2229   28.6131 O   0  0  0  0  0  0
    4.3027   53.8004   29.6805 C   0  0  0  0  0  0
    2.9726   53.7800   29.2467 O   0  0  0  0  0  0
    7.5075   59.9246   18.3918 H   0  0  0  0  0  0
    5.5794   58.4697   18.0662 H   0  0  0  0  0  0
    8.2380   55.2205   17.0590 H   0  0  0  0  0  0
    9.8058   59.0703   18.0494 H   0  0  0  0  0  0
    6.0385   54.8295   17.3520 H   0  0  0  0  0  0
    2.0261   55.4167   15.9874 H   0  0  0  0  0  0
    1.6517   55.1053   17.6817 H   0  0  0  0  0  0
    2.3016   53.1003   15.4944 H   0  0  0  0  0  0
    0.9405   53.0296   16.6117 H   0  0  0  0  0  0
    3.1598   51.5717   17.1237 H   0  0  0  0  0  0
    2.3859   52.4366   18.4335 H   0  0  0  0  0  0
    2.9580   54.1515   19.7695 H   0  0  0  0  0  0
    1.5992   53.5283   24.8785 H   0  0  0  0  0  0
    1.0196   53.3952   27.2678 H   0  0  0  0  0  0
    5.7111   54.4098   25.9048 H   0  0  0  0  0  0
    4.6009   52.7952   29.9885 H   0  0  0  0  0  0
    4.4270   54.4976   30.5008 H   0  0  0  0  0  0
  1  6  2  0  0  0
  1  2  1  0  0  0
  1 34  1  0  0  0
  2  3  2  0  0  0
  2 35  1  0  0  0
  3  4  1  0  0  0
  3  8  1  0  0  0
  4  5  2  0  0  0
  4 36  1  0  0  0
  5  6  1  0  0  0
  5  7  1  0  0  0
  6 37  1  0  0  0
  8  9  1  0  0  0
  8 38  1  0  0  0
  9 10  2  0  0  0
  9 11  1  0  0  0
 11 15  1  0  0  0
 11 12  1  0  0  0
 12 13  1  0  0  0
 12 39  1  0  0  0
 12 40  1  0  0  0
 13 14  1  0  0  0
 13 41  1  0  0  0
 13 42  1  0  0  0
 14 15  1  0  0  0
 14 43  1  0  0  0
 14 44  1  0  0  0
 15 16  1  0  0  0
 15 17  1  0  0  0
 17 18  2  0  0  0
 17 19  1  0  0  0
 19 20  1  0  0  0
 19 45  1  0  0  0
 20 24  1  0  0  0
 20 21  2  0  0  0
 21 22  1  0  0  0
 22 23  2  0  0  0
 23 24  1  0  0  0
 23 25  1  0  0  0
 25 30  2  0  0  0
 25 26  1  0  0  0
 26 27  2  0  0  0
 26 46  1  0  0  0
 27 28  1  0  0  0
 27 47  1  0  0  0
 28 33  1  0  0  0
 28 29  2  0  0  0
 29 30  1  0  0  0
 29 31  1  0  0  0
 30 48  1  0  0  0
 31 32  1  0  0  0
 32 33  1  0  0  0
 32 49  1  0  0  0
 32 50  1  0  0  0
M  END
> <i_i_glide_confnum>
88

> <i_i_glide_lignum>
5399

> <i_i_glide_posenum>
337

> <i_i_glide_rotatable_bonds>
7

> <i_m_Source_File_Index>
2768

> <b_m_subgroup_collapsed>
0

> <r_i_docking_score>
-4.05191

> <r_i_glide_ecoul>
-2.51214

> <r_i_glide_eff_state_penalty>
0

> <r_i_glide_einternal>
5.62708

> <r_i_glide_emodel>
-51.6409

> <r_i_glide_energy>
-41.706

> <r_i_glide_erotb>
0.538845

> <r_i_glide_esite>
-0.0667031

> <r_i_glide_evdw>
-39.1938

> <r_i_glide_gscore>
-4.05191

> <r_i_glide_hbond>
-0.308658

> <r_i_glide_ligand_efficiency>
-0.126622

> <r_i_glide_ligand_efficiency_ln>
-0.907332

> <r_i_glide_ligand_efficiency_sa>
-0.402

> <r_i_glide_lipo>
-1.70009

> <r_i_glide_metal>
0

> <r_i_glide_rewards>
-0.178784

> <s_i_glide_gridfile>
wee1_glide-grid

> <s_m_Source_File>
wee1_decoys_glide_SP.sdf

> <s_m_Source_Path>
/Users/zhangxujun/Desktop

> <s_m_entry_id>
3043

> <s_m_entry_name>
wee1_decoys_glide_SP.2768

> <s_m_subgroup_title>
wee1_decoys_glide_SP

> <s_m_subgroupid>
wee1_decoys_glide_SP


$$$$
