ZINC39006598_4995
                    3D
 Schrodinger Suite 2024-2.
 57 61  0  0  1  0            999 V2000
   -0.5784   53.2514   17.3259 C   0  0  0  0  0  0
    0.4983   53.0442   16.3679 C   0  0  0  0  0  0
    1.4686   52.1142   16.5650 C   0  0  0  0  0  0
    1.4692   51.3271   17.7220 C   0  0  0  0  0  0
    2.3044   50.3861   18.0817 N   0  3  0  0  0  0
    1.9203   49.8253   19.3839 C   0  0  0  0  0  0
    0.7002   50.6527   19.7190 C   0  0  0  0  0  0
    0.4736   51.4991   18.6896 C   0  0  0  0  0  0
   -0.5818   52.4969   18.4437 C   0  0  0  0  0  0
   -0.0765   50.5325   20.9139 C   0  0  0  0  0  0
   -0.4564   51.5533   21.5845 N   0  0  0  0  0  0
   -1.1712   51.4000   22.7516 N   0  0  0  0  0  0
   -2.0441   50.4327   23.1466 C   0  0  0  0  0  0
   -2.4872   49.5559   22.3984 O   0  0  0  0  0  0
   -2.5115   50.4750   24.6246 C   0  0  2  0  0  0
   -3.5980   50.5637   24.5853 H   0  0  0  0  0  0
   -1.8925   51.5538   25.4847 C   0  0  0  0  0  0
   -0.9787   50.9756   26.2828 C   0  0  0  0  0  0
   -1.0007   49.6020   26.0817 N   0  0  0  0  0  0
   -2.1653   49.2412   25.3009 N   0  0  0  0  0  0
   -0.0930   51.6336   27.2656 C   0  0  0  0  0  0
    1.1050   51.0491   27.6793 C   0  0  0  0  0  0
    1.9883   51.7385   28.5084 C   0  0  0  0  0  0
    1.6675   53.0221   28.9615 C   0  0  0  0  0  0
    0.4438   53.5769   28.6099 C   0  0  0  0  0  0
   -0.4069   52.8973   27.7465 C   0  0  0  0  0  0
    2.5121   53.8364   29.6898 O   0  0  0  0  0  0
    3.9245   53.6275   29.6438 C   0  0  0  0  0  0
    4.5865   54.0432   28.3220 C   0  0  0  0  0  0
    5.9803   53.9807   28.2326 C   0  0  0  0  0  0
    6.6328   54.3676   27.0683 C   0  0  0  0  0  0
    5.8956   54.8173   25.9761 C   0  0  0  0  0  0
    4.5065   54.8735   26.0446 C   0  0  0  0  0  0
    3.8546   54.4964   27.2148 C   0  0  0  0  0  0
    6.7052   55.3266   24.5428 Cl  0  0  0  0  0  0
   -1.3547   53.9792   17.1380 H   0  0  0  0  0  0
    0.5256   53.6485   15.4702 H   0  0  0  0  0  0
    2.2460   52.0000   15.8217 H   0  0  0  0  0  0
    1.7213   48.7617   19.2504 H   0  0  0  0  0  0
    2.7590   49.9680   20.0667 H   0  0  0  0  0  0
   -1.3887   52.6350   19.1461 H   0  0  0  0  0  0
   -0.2602   49.4989   21.1939 H   0  0  0  0  0  0
   -1.1218   52.2120   23.3464 H   0  0  0  0  0  0
   -2.1474   52.6007   25.4066 H   0  0  0  0  0  0
   -0.8951   48.8966   26.8235 H   0  0  0  0  0  0
   -2.8945   49.0878   25.9873 H   0  0  0  0  0  0
    1.3908   50.0869   27.2825 H   0  0  0  0  0  0
    2.9346   51.2892   28.7544 H   0  0  0  0  0  0
    0.1954   54.5668   28.9527 H   0  0  0  0  0  0
   -1.2956   53.3892   27.4039 H   0  0  0  0  0  0
    4.3361   54.2592   30.4310 H   0  0  0  0  0  0
    4.1984   52.6058   29.9103 H   0  0  0  0  0  0
    6.5726   53.6468   29.0715 H   0  0  0  0  0  0
    7.7096   54.3279   27.0266 H   0  0  0  0  0  0
    3.9341   55.2237   25.1985 H   0  0  0  0  0  0
    2.7803   54.5814   27.2472 H   0  0  0  0  0  0
    3.1036   50.0549   17.5257 H   0  0  0  0  0  0
  1  9  2  0  0  0
  1  2  1  0  0  0
  1 36  1  0  0  0
  2  3  2  0  0  0
  2 37  1  0  0  0
  3  4  1  0  0  0
  3 38  1  0  0  0
  4  8  1  0  0  0
  4  5  2  0  0  0
  5  6  1  0  0  0
  5 57  1  0  0  0
  6  7  1  0  0  0
  6 39  1  0  0  0
  6 40  1  0  0  0
  7  8  2  0  0  0
  7 10  1  0  0  0
  8  9  1  0  0  0
  9 41  1  0  0  0
 10 11  2  0  0  0
 10 42  1  0  0  0
 11 12  1  0  0  0
 12 13  1  0  0  0
 12 43  1  0  0  0
 13 14  2  0  0  0
 13 15  1  0  0  0
 15 16  1  0  0  0
 15 20  1  0  0  0
 15 17  1  0  0  0
 17 18  2  0  0  0
 17 44  1  0  0  0
 18 19  1  0  0  0
 18 21  1  0  0  0
 19 20  1  0  0  0
 19 45  1  0  0  0
 20 46  1  0  0  0
 21 26  2  0  0  0
 21 22  1  0  0  0
 22 23  2  0  0  0
 22 47  1  0  0  0
 23 24  1  0  0  0
 23 48  1  0  0  0
 24 25  2  0  0  0
 24 27  1  0  0  0
 25 26  1  0  0  0
 25 49  1  0  0  0
 26 50  1  0  0  0
 27 28  1  0  0  0
 28 29  1  0  0  0
 28 51  1  0  0  0
 28 52  1  0  0  0
 29 34  2  0  0  0
 29 30  1  0  0  0
 30 31  2  0  0  0
 30 53  1  0  0  0
 31 32  1  0  0  0
 31 54  1  0  0  0
 32 33  2  0  0  0
 32 35  1  0  0  0
 33 34  1  0  0  0
 33 55  1  0  0  0
 34 56  1  0  0  0
M  CHG  1   5   1
M  END
> <i_i_glide_confnum>
27

> <i_i_glide_lignum>
4996

> <i_i_glide_posenum>
74

> <i_i_glide_rotatable_bonds>
8

> <i_m_Source_File_Index>
3270

> <b_m_subgroup_collapsed>
0

> <r_i_docking_score>
-5.35597

> <r_i_glide_ecoul>
-4.25572

> <r_i_glide_eff_state_penalty>
0

> <r_i_glide_einternal>
15.2424

> <r_i_glide_emodel>
-52.6346

> <r_i_glide_energy>
-41.6658

> <r_i_glide_erotb>
0.632906

> <r_i_glide_esite>
-0.200499

> <r_i_glide_evdw>
-37.4101

> <r_i_glide_gscore>
-5.35597

> <r_i_glide_hbond>
-0.499422

> <r_i_glide_ligand_efficiency>
-0.157528

> <r_i_glide_ligand_efficiency_ln>
-1.18328

> <r_i_glide_ligand_efficiency_sa>
-0.510331

> <r_i_glide_lipo>
-2.65233

> <r_i_glide_metal>
0

> <r_i_glide_rewards>
-0.127763

> <s_i_glide_gridfile>
wee1_glide-grid

> <s_m_Source_File>
wee1_decoys_glide_SP.sdf

> <s_m_Source_Path>
/Users/zhangxujun/Desktop

> <s_m_entry_id>
3545

> <s_m_entry_name>
wee1_decoys_glide_SP.3270

> <s_m_subgroup_title>
wee1_decoys_glide_SP

> <s_m_subgroupid>
wee1_decoys_glide_SP


$$$$
