ZINC13262027_3303
                    3D
 Schrodinger Suite 2024-2.
 49 52  0  0  1  0            999 V2000
    6.8498   55.2969   20.6837 C   0  0  0  0  0  0
    5.8130   55.0275   19.7994 C   0  0  0  0  0  0
    4.6192   54.4965   20.2769 C   0  0  0  0  0  0
    4.4421   54.2202   21.6371 C   0  0  0  0  0  0
    5.5066   54.4626   22.5491 C   0  0  0  0  0  0
    6.6968   55.0115   22.0379 C   0  0  0  0  0  0
    5.4495   54.2146   24.0506 C   0  0  0  0  0  0
    6.5019   54.1037   24.6855 O   0  0  0  0  0  0
    4.2271   54.1802   24.6246 N   0  0  0  0  0  0
    3.8915   54.0771   25.9916 C   0  0  0  0  0  0
    4.7776   54.3550   27.0512 C   0  0  0  0  0  0
    4.3706   54.2112   28.3797 C   0  0  0  0  0  0
    3.0730   53.7927   28.6643 C   0  0  0  0  0  0
    2.1718   53.5453   27.6156 C   0  0  0  0  0  0
    2.5820   53.6815   26.2887 C   0  0  0  0  0  0
    0.8885   53.0893   27.8440 O   0  0  0  0  0  0
    0.4269   53.2749   29.1872 C   0  0  0  0  0  0
    1.5302   52.8965   30.2038 C   0  0  0  0  0  0
    2.7022   53.6954   29.9927 O   0  0  0  0  0  0
    3.1708   53.7608   22.0118 N   0  0  0  0  0  0
    2.7519   52.0606   21.7660 S   0  0  0  0  0  0
    4.0057   51.3041   21.6816 O   0  0  0  0  0  0
    1.7372   51.7488   22.7779 O   0  0  0  0  0  0
    1.9614   51.9772   20.1594 C   0  0  0  0  0  0
    2.7416   51.7844   19.0218 C   0  0  0  0  0  0
    2.1428   51.6975   17.7705 C   0  0  0  0  0  0
    0.7591   51.8020   17.6382 C   0  0  0  0  0  0
   -0.0545   51.9893   18.7749 C   0  0  0  0  0  0
    0.5725   52.0833   20.0328 C   0  0  0  0  0  0
   -1.5497   52.0959   18.6733 C   0  0  0  0  0  0
   -2.1748   52.4966   19.6817 O   0  0  0  0  0  0
    0.2431   51.7216   16.3880 F   0  0  0  0  0  0
    7.7795   55.7104   20.3202 H   0  0  0  0  0  0
    5.9275   55.2400   18.7462 H   0  0  0  0  0  0
    3.8130   54.3227   19.5782 H   0  0  0  0  0  0
    7.5237   55.2338   22.6968 H   0  0  0  0  0  0
    3.4536   54.1697   23.9729 H   0  0  0  0  0  0
    5.7865   54.6911   26.8729 H   0  0  0  0  0  0
    5.0604   54.4282   29.1824 H   0  0  0  0  0  0
    1.8822   53.4547   25.4967 H   0  0  0  0  0  0
    0.1541   54.3215   29.3312 H   0  0  0  0  0  0
   -0.4674   52.6719   29.3493 H   0  0  0  0  0  0
    1.1736   53.0300   31.2257 H   0  0  0  0  0  0
    1.7831   51.8425   30.0752 H   0  0  0  0  0  0
    2.4655   54.2925   21.5164 H   0  0  0  0  0  0
    3.8168   51.6964   19.0998 H   0  0  0  0  0  0
    2.7608   51.5346   16.8985 H   0  0  0  0  0  0
   -0.0213   52.2267   20.9257 H   0  0  0  0  0  0
   -2.1122   51.7852   17.6015 O   0  5  0  0  0  0
  1  6  2  0  0  0
  1  2  1  0  0  0
  1 33  1  0  0  0
  2  3  2  0  0  0
  2 34  1  0  0  0
  3  4  1  0  0  0
  3 35  1  0  0  0
  4  5  2  0  0  0
  4 20  1  0  0  0
  5  6  1  0  0  0
  5  7  1  0  0  0
  6 36  1  0  0  0
  7  8  2  0  0  0
  7  9  1  0  0  0
  9 10  1  0  0  0
  9 37  1  0  0  0
 10 15  2  0  0  0
 10 11  1  0  0  0
 11 12  2  0  0  0
 11 38  1  0  0  0
 12 13  1  0  0  0
 12 39  1  0  0  0
 13 19  1  0  0  0
 13 14  2  0  0  0
 14 15  1  0  0  0
 14 16  1  0  0  0
 15 40  1  0  0  0
 16 17  1  0  0  0
 17 18  1  0  0  0
 17 41  1  0  0  0
 17 42  1  0  0  0
 18 19  1  0  0  0
 18 43  1  0  0  0
 18 44  1  0  0  0
 20 21  1  0  0  0
 20 45  1  0  0  0
 21 22  2  0  0  0
 21 23  2  0  0  0
 21 24  1  0  0  0
 24 29  2  0  0  0
 24 25  1  0  0  0
 25 26  2  0  0  0
 25 46  1  0  0  0
 26 27  1  0  0  0
 26 47  1  0  0  0
 27 28  2  0  0  0
 27 32  1  0  0  0
 28 29  1  0  0  0
 28 30  1  0  0  0
 29 48  1  0  0  0
 30 31  2  0  0  0
 30 49  1  0  0  0
M  CHG  1  49  -1
M  END
> <i_i_glide_confnum>
31

> <i_i_glide_lignum>
3304

> <i_i_glide_posenum>
154

> <i_i_glide_rotatable_bonds>
7

> <i_m_Source_File_Index>
488

> <b_m_subgroup_collapsed>
0

> <r_i_docking_score>
-7.09766

> <r_i_glide_ecoul>
-11.2535

> <r_i_glide_eff_state_penalty>
0

> <r_i_glide_einternal>
10.1773

> <r_i_glide_emodel>
-75.0684

> <r_i_glide_energy>
-53.3641

> <r_i_glide_erotb>
0.545666

> <r_i_glide_esite>
-0.0271101

> <r_i_glide_evdw>
-42.1107

> <r_i_glide_gscore>
-7.09766

> <r_i_glide_hbond>
-0.76

> <r_i_glide_ligand_efficiency>
-0.215081

> <r_i_glide_ligand_efficiency_ln>
-1.57848

> <r_i_glide_ligand_efficiency_sa>
-0.689878

> <r_i_glide_lipo>
-2.35225

> <r_i_glide_metal>
0

> <r_i_glide_rewards>
-0.710414

> <s_i_glide_gridfile>
wee1_glide-grid

> <s_m_Source_File>
wee1_decoys_glide_SP.sdf

> <s_m_Source_Path>
/Users/zhangxujun/Desktop

> <s_m_entry_id>
763

> <s_m_entry_name>
wee1_decoys_glide_SP.488

> <s_m_subgroup_title>
wee1_decoys_glide_SP

> <s_m_subgroupid>
wee1_decoys_glide_SP


$$$$
