ZINC08455976_5307
                    3D
 Schrodinger Suite 2024-2.
 46 48  0  0  1  0            999 V2000
   -2.4978   52.7724   15.1709 C   0  0  0  0  0  0
   -1.4888   52.3704   16.2165 C   0  0  0  0  0  0
   -0.1903   51.8884   16.1698 C   0  0  0  0  0  0
    0.2177   51.6884   17.4892 C   0  0  0  0  0  0
   -0.8419   52.0937   18.3000 C   0  0  0  0  0  0
   -1.8852   52.4738   17.5123 O   0  0  0  0  0  0
   -1.0379   52.0668   19.7243 C   0  0  0  0  0  0
   -2.1699   52.0967   20.2100 O   0  0  0  0  0  0
    0.1165   52.0559   20.4211 N   0  0  0  0  0  0
    0.3048   52.0969   21.8122 C   0  0  0  0  0  0
   -0.6546   51.7131   22.7580 C   0  0  0  0  0  0
   -0.3667   51.8010   24.1199 C   0  0  0  0  0  0
    0.8762   52.2753   24.5745 C   0  0  0  0  0  0
    1.8227   52.6435   23.5997 C   0  0  0  0  0  0
    1.5478   52.5478   22.2419 C   0  0  0  0  0  0
    1.2131   52.3730   26.0259 C   0  0  0  0  0  0
    2.3048   52.9536   26.3637 N   0  0  0  0  0  0
    2.7089   52.9360   27.6479 N   0  0  0  0  0  0
    3.8927   53.4368   28.0686 C   0  0  0  0  0  0
    4.2536   53.1576   29.2132 O   0  0  0  0  0  0
    4.7698   54.4108   27.1979 C   0  0  1  0  0  0
    5.8460   55.1876   27.9251 C   0  0  0  0  0  0
    6.2487   54.0701   27.0305 C   0  0  0  0  0  0
    7.1043   54.4986   25.2806 Br  0  0  0  0  0  0
    7.2643   52.7728   28.0817 Br  0  0  0  0  0  0
    4.0914   55.1677   26.0404 C   0  0  0  0  0  0
    0.1985   51.7660   27.0136 C   0  0  0  0  0  0
   -2.1069   52.6449   14.1621 H   0  0  0  0  0  0
   -3.4068   52.1760   15.2423 H   0  0  0  0  0  0
   -2.7860   53.8179   15.2754 H   0  0  0  0  0  0
    0.3901   51.6905   15.2807 H   0  0  0  0  0  0
    1.1741   51.2953   17.8068 H   0  0  0  0  0  0
    0.9625   52.1265   19.8762 H   0  0  0  0  0  0
   -1.6192   51.3331   22.4589 H   0  0  0  0  0  0
   -1.1350   51.4903   24.8119 H   0  0  0  0  0  0
    2.8019   53.0017   23.8812 H   0  0  0  0  0  0
    2.3042   52.8470   21.5295 H   0  0  0  0  0  0
    2.1443   52.3790   28.2711 H   0  0  0  0  0  0
    5.9043   55.0843   29.0098 H   0  0  0  0  0  0
    6.3043   56.0967   27.5947 H   0  0  0  0  0  0
    4.6521   56.0529   25.7335 H   0  0  0  0  0  0
    3.9952   54.5429   25.1532 H   0  0  0  0  0  0
    3.1045   55.4912   26.3469 H   0  0  0  0  0  0
   -0.7528   52.2983   26.9704 H   0  0  0  0  0  0
    0.0216   50.7106   26.7980 H   0  0  0  0  0  0
    0.5133   51.8117   28.0550 H   0  0  0  0  0  0
  1  2  1  0  0  0
  1 28  1  0  0  0
  1 29  1  0  0  0
  1 30  1  0  0  0
  2  6  1  0  0  0
  2  3  2  0  0  0
  3  4  1  0  0  0
  3 31  1  0  0  0
  4  5  2  0  0  0
  4 32  1  0  0  0
  5  6  1  0  0  0
  5  7  1  0  0  0
  7  8  2  0  0  0
  7  9  1  0  0  0
  9 10  1  0  0  0
  9 33  1  0  0  0
 10 15  2  0  0  0
 10 11  1  0  0  0
 11 12  2  0  0  0
 11 34  1  0  0  0
 12 13  1  0  0  0
 12 35  1  0  0  0
 13 14  2  0  0  0
 13 16  1  0  0  0
 14 15  1  0  0  0
 14 36  1  0  0  0
 15 37  1  0  0  0
 16 17  2  0  0  0
 16 27  1  0  0  0
 17 18  1  0  0  0
 18 19  1  0  0  0
 18 38  1  0  0  0
 19 20  2  0  0  0
 19 21  1  0  0  0
 21 23  1  0  0  0
 21 22  1  0  0  0
 21 26  1  0  0  0
 22 23  1  0  0  0
 22 39  1  0  0  0
 22 40  1  0  0  0
 23 24  1  0  0  0
 23 25  1  0  0  0
 26 41  1  0  0  0
 26 42  1  0  0  0
 26 43  1  0  0  0
 27 44  1  0  0  0
 27 45  1  0  0  0
 27 46  1  0  0  0
M  END
> <i_i_glide_confnum>
83

> <i_i_glide_lignum>
5308

> <i_i_glide_posenum>
127

> <i_i_glide_rotatable_bonds>
7

> <i_m_Source_File_Index>
2309

> <b_m_subgroup_collapsed>
0

> <r_i_docking_score>
-3.84718

> <r_i_glide_ecoul>
-5.98479

> <r_i_glide_eff_state_penalty>
0

> <r_i_glide_einternal>
10.6635

> <r_i_glide_emodel>
-32.3621

> <r_i_glide_energy>
-29.8462

> <r_i_glide_erotb>
0.495105

> <r_i_glide_esite>
-0.0377568

> <r_i_glide_evdw>
-23.8614

> <r_i_glide_gscore>
-3.84718

> <r_i_glide_hbond>
-0.32

> <r_i_glide_ligand_efficiency>
-0.142488

> <r_i_glide_ligand_efficiency_ln>
-0.89556

> <r_i_glide_ligand_efficiency_sa>
-0.427464

> <r_i_glide_lipo>
-1.43495

> <r_i_glide_metal>
0

> <r_i_glide_rewards>
-0.458784

> <s_i_glide_gridfile>
wee1_glide-grid

> <s_m_Source_File>
wee1_decoys_glide_SP.sdf

> <s_m_Source_Path>
/Users/zhangxujun/Desktop

> <s_m_entry_id>
2584

> <s_m_entry_name>
wee1_decoys_glide_SP.2309

> <s_m_subgroup_title>
wee1_decoys_glide_SP

> <s_m_subgroupid>
wee1_decoys_glide_SP


$$$$
