ZINC33008275_3935
                    3D
 Schrodinger Suite 2024-2.
 49 51  0  0  1  0            999 V2000
    5.4072   56.7692   14.5849 C   0  0  0  0  0  0
    4.7575   55.8457   15.6350 C   0  0  0  0  0  0
    5.4463   55.8475   17.0086 C   0  0  0  0  0  0
    6.5299   56.4138   17.1567 O   0  0  0  0  0  0
    4.7730   55.1963   17.9775 N   0  0  0  0  0  0
    5.1276   55.0313   19.3069 C   0  0  0  0  0  0
    4.3071   54.4145   20.1060 N   0  0  0  0  0  0
    4.7775   54.3816   21.3830 C   0  0  0  0  0  0
    4.0995   53.8127   22.4782 C   0  0  0  0  0  0
    4.7354   53.8619   23.7230 C   0  0  0  0  0  0
    5.9971   54.4513   23.9062 C   0  0  0  0  0  0
    6.6713   55.0143   22.8196 C   0  0  0  0  0  0
    6.0506   54.9844   21.5672 C   0  0  0  0  0  0
    6.6141   55.6308   20.0366 S   0  0  0  0  0  0
    6.6999   54.4416   25.1287 N   0  0  0  0  0  0
    6.2768   54.3137   26.4074 C   0  0  0  0  0  0
    7.1037   54.0969   27.2867 O   0  0  0  0  0  0
    4.9615   54.4706   26.6578 N   0  0  0  0  0  0
    4.2623   54.1900   27.8480 C   0  0  0  0  0  0
    3.0526   54.8613   28.0399 C   0  0  0  0  0  0
    2.2513   54.5738   29.1435 C   0  0  0  0  0  0
    2.6472   53.6049   30.0656 C   0  0  0  0  0  0
    3.8712   52.9546   29.9139 C   0  0  0  0  0  0
    4.6723   53.2386   28.7999 C   0  0  0  0  0  0
    4.3020   51.9428   30.9595 C   0  0  0  0  0  0
    0.9378   55.2955   29.3119 C   0  0  0  0  0  0
    2.7348   53.1465   22.3651 C   0  0  0  0  0  0
    4.8518   56.7238   13.6470 H   0  0  0  0  0  0
    6.4307   56.4652   14.3563 H   0  0  0  0  0  0
    5.4053   57.8128   14.9060 H   0  0  0  0  0  0
    3.7105   56.1306   15.7629 H   0  0  0  0  0  0
    4.7599   54.8207   15.2594 H   0  0  0  0  0  0
    3.8909   54.7768   17.7255 H   0  0  0  0  0  0
    4.2378   53.3785   24.5487 H   0  0  0  0  0  0
    7.6405   55.4720   22.9260 H   0  0  0  0  0  0
    7.7004   54.4956   25.0196 H   0  0  0  0  0  0
    4.4107   54.8645   25.9121 H   0  0  0  0  0  0
    2.7095   55.5896   27.3228 H   0  0  0  0  0  0
    1.9997   53.3572   30.8966 H   0  0  0  0  0  0
    5.5954   52.6945   28.6650 H   0  0  0  0  0  0
    3.4686   51.2987   31.2279 H   0  0  0  0  0  0
    5.1043   51.3015   30.6044 H   0  0  0  0  0  0
    4.6192   52.4411   31.8757 H   0  0  0  0  0  0
    0.3006   54.8314   30.0672 H   0  0  0  0  0  0
    1.1055   56.3443   29.5668 H   0  0  0  0  0  0
    0.4068   55.2608   28.3582 H   0  0  0  0  0  0
    2.4225   52.6614   23.2922 H   0  0  0  0  0  0
    1.9792   53.8819   22.0860 H   0  0  0  0  0  0
    2.7555   52.3894   21.5802 H   0  0  0  0  0  0
  1  2  1  0  0  0
  1 28  1  0  0  0
  1 29  1  0  0  0
  1 30  1  0  0  0
  2  3  1  0  0  0
  2 31  1  0  0  0
  2 32  1  0  0  0
  3  4  2  0  0  0
  3  5  1  0  0  0
  5  6  1  0  0  0
  5 33  1  0  0  0
  6 14  1  0  0  0
  6  7  2  0  0  0
  7  8  1  0  0  0
  8 13  2  0  0  0
  8  9  1  0  0  0
  9 10  2  0  0  0
  9 27  1  0  0  0
 10 11  1  0  0  0
 10 34  1  0  0  0
 11 12  2  0  0  0
 11 15  1  0  0  0
 12 13  1  0  0  0
 12 35  1  0  0  0
 13 14  1  0  0  0
 15 16  1  0  0  0
 15 36  1  0  0  0
 16 17  2  0  0  0
 16 18  1  0  0  0
 18 19  1  0  0  0
 18 37  1  0  0  0
 19 24  2  0  0  0
 19 20  1  0  0  0
 20 21  2  0  0  0
 20 38  1  0  0  0
 21 22  1  0  0  0
 21 26  1  0  0  0
 22 23  2  0  0  0
 22 39  1  0  0  0
 23 24  1  0  0  0
 23 25  1  0  0  0
 24 40  1  0  0  0
 25 41  1  0  0  0
 25 42  1  0  0  0
 25 43  1  0  0  0
 26 44  1  0  0  0
 26 45  1  0  0  0
 26 46  1  0  0  0
 27 47  1  0  0  0
 27 48  1  0  0  0
 27 49  1  0  0  0
M  END
> <i_i_glide_confnum>
69

> <i_i_glide_lignum>
3936

> <i_i_glide_posenum>
231

> <i_i_glide_rotatable_bonds>
7

> <i_m_Source_File_Index>
4004

> <b_m_subgroup_collapsed>
0

> <r_i_docking_score>
-4.01881

> <r_i_glide_ecoul>
0.0911309

> <r_i_glide_eff_state_penalty>
0

> <r_i_glide_einternal>
6.86739

> <r_i_glide_emodel>
-47.1974

> <r_i_glide_energy>
-40.8019

> <r_i_glide_erotb>
0.557605

> <r_i_glide_esite>
0

> <r_i_glide_evdw>
-40.8931

> <r_i_glide_gscore>
-4.01881

> <r_i_glide_hbond>
-0.00223591

> <r_i_glide_ligand_efficiency>
-0.148845

> <r_i_glide_ligand_efficiency_ln>
-0.935512

> <r_i_glide_ligand_efficiency_sa>
-0.446534

> <r_i_glide_lipo>
-3.18415

> <r_i_glide_metal>
0

> <r_i_glide_rewards>
0.640957

> <s_i_glide_gridfile>
wee1_glide-grid

> <s_m_Source_File>
wee1_decoys_glide_SP.sdf

> <s_m_Source_Path>
/Users/zhangxujun/Desktop

> <s_m_entry_id>
4279

> <s_m_entry_name>
wee1_decoys_glide_SP.4004

> <s_m_subgroup_title>
wee1_decoys_glide_SP

> <s_m_subgroupid>
wee1_decoys_glide_SP


$$$$
