ZINC40217518_1583
                    3D
 Schrodinger Suite 2024-2.
 33 34  0  0  1  0            999 V2000
    3.4966   54.0961   22.4840 C   0  0  0  0  0  0
    3.4016   54.0537   23.8710 C   0  0  0  0  0  0
    4.5418   54.2505   24.6700 C   0  0  0  0  0  0
    5.7711   54.4971   24.0445 C   0  0  0  0  0  0
    5.8665   54.5711   22.6506 C   0  0  0  0  0  0
    4.7206   54.3541   21.8774 C   0  0  0  0  0  0
    7.1012   54.8968   22.0724 N   0  0  0  0  0  0
    7.2717   55.7229   20.5128 S   0  0  0  0  0  0
    6.3204   56.8376   20.5093 O   0  0  0  0  0  0
    8.7044   55.9465   20.3327 O   0  0  0  0  0  0
    6.7724   54.5848   19.2829 N   0  0  0  0  0  0
    4.5420   54.2413   26.0803 N   0  0  0  0  0  0
    3.5244   53.9987   26.9346 C   0  0  0  0  0  0
    2.3807   53.6956   26.5948 O   0  0  0  0  0  0
    3.8744   54.1236   28.4262 C   0  0  0  0  0  0
    2.6697   54.0174   29.3454 C   0  0  0  0  0  0
    1.7342   54.9959   29.6833 C   0  0  0  0  0  0
    0.7039   54.5436   30.5122 C   0  0  0  0  0  0
    0.8161   53.1995   30.8187 C   0  0  0  0  0  0
    2.2090   52.4967   30.0692 S   0  0  0  0  0  0
    2.6157   53.9468   21.8763 H   0  0  0  0  0  0
    2.4254   53.8689   24.2863 H   0  0  0  0  0  0
    6.6558   54.6629   24.6420 H   0  0  0  0  0  0
    4.7445   54.4066   20.8034 H   0  0  0  0  0  0
    7.9216   54.9144   22.6660 H   0  0  0  0  0  0
    7.3914   53.7829   19.1525 H   0  0  0  0  0  0
    5.7747   54.3745   19.2425 H   0  0  0  0  0  0
    5.4369   54.4311   26.5022 H   0  0  0  0  0  0
    4.3616   55.0874   28.5775 H   0  0  0  0  0  0
    4.6194   53.3673   28.6745 H   0  0  0  0  0  0
    1.7979   56.0150   29.3299 H   0  0  0  0  0  0
   -0.0943   55.1733   30.8763 H   0  0  0  0  0  0
    0.1579   52.5979   31.4338 H   0  0  0  0  0  0
  1  6  2  0  0  0
  1  2  1  0  0  0
  1 21  1  0  0  0
  2  3  2  0  0  0
  2 22  1  0  0  0
  3  4  1  0  0  0
  3 12  1  0  0  0
  4  5  2  0  0  0
  4 23  1  0  0  0
  5  6  1  0  0  0
  5  7  1  0  0  0
  6 24  1  0  0  0
  7  8  1  0  0  0
  7 25  1  0  0  0
  8  9  2  0  0  0
  8 10  2  0  0  0
  8 11  1  0  0  0
 11 26  1  0  0  0
 11 27  1  0  0  0
 12 13  1  0  0  0
 12 28  1  0  0  0
 13 14  2  0  0  0
 13 15  1  0  0  0
 15 16  1  0  0  0
 15 29  1  0  0  0
 15 30  1  0  0  0
 16 20  1  0  0  0
 16 17  2  0  0  0
 17 18  1  0  0  0
 17 31  1  0  0  0
 18 19  2  0  0  0
 18 32  1  0  0  0
 19 20  1  0  0  0
 19 33  1  0  0  0
M  END
> <i_i_glide_confnum>
11

> <i_i_glide_lignum>
1584

> <i_i_glide_posenum>
377

> <i_i_glide_rotatable_bonds>
6

> <i_m_Source_File_Index>
4389

> <b_m_subgroup_collapsed>
0

> <r_i_docking_score>
-5.99731

> <r_i_glide_ecoul>
-3.68738

> <r_i_glide_eff_state_penalty>
0

> <r_i_glide_einternal>
6.33762

> <r_i_glide_emodel>
-54.4533

> <r_i_glide_energy>
-41.5324

> <r_i_glide_erotb>
0.765046

> <r_i_glide_esite>
-0.0408011

> <r_i_glide_evdw>
-37.845

> <r_i_glide_gscore>
-5.99731

> <r_i_glide_hbond>
-0.317484

> <r_i_glide_ligand_efficiency>
-0.299866

> <r_i_glide_ligand_efficiency_ln>
-1.50093

> <r_i_glide_ligand_efficiency_sa>
-0.81396

> <r_i_glide_lipo>
-2.09501

> <r_i_glide_metal>
0

> <r_i_glide_rewards>
-1.86371

> <s_i_glide_gridfile>
wee1_glide-grid

> <s_m_Source_File>
wee1_decoys_glide_SP.sdf

> <s_m_Source_Path>
/Users/zhangxujun/Desktop

> <s_m_entry_id>
4664

> <s_m_entry_name>
wee1_decoys_glide_SP.4389

> <s_m_subgroup_title>
wee1_decoys_glide_SP

> <s_m_subgroupid>
wee1_decoys_glide_SP


$$$$
