ZINC34923748_5642
                    3D
 Schrodinger Suite 2024-2.
 60 63  0  0  1  0            999 V2000
    5.6289   53.6492   16.8805 C   0  0  0  0  0  0
    5.8994   54.1889   18.2713 C   0  0  0  0  0  0
    7.1164   54.8059   18.5687 C   0  0  0  0  0  0
    7.3629   55.2970   19.8518 C   0  0  0  0  0  0
    6.3863   55.1641   20.8433 C   0  0  0  0  0  0
    5.1687   54.5351   20.5586 C   0  0  0  0  0  0
    4.9244   54.0726   19.2647 C   0  0  0  0  0  0
    4.1415   54.4097   21.5074 N   0  0  0  0  0  0
    4.1502   54.0967   22.8523 C   0  0  0  0  0  0
    5.3173   53.7408   23.2658 O   0  5  0  0  0  0
    2.9819   54.1775   23.5157 C   0  0  0  0  0  0
    2.7176   53.8361   24.9044 C   0  0  0  0  0  0
    3.6086   54.0126   25.8969 C   0  0  0  0  0  0
    3.0318   53.4670   27.4681 S   0  0  0  0  0  0
    1.4983   52.9784   26.7186 C   0  0  0  0  0  0
    0.5160   52.4896   27.3723 N   0  0  0  0  0  0
   -0.6624   52.2415   26.7211 C   0  0  0  0  0  0
   -0.8478   52.4956   25.3823 C   0  0  0  0  0  0
    0.3741   52.8882   24.4945 C   0  0  1  0  0  0
    0.1159   53.7990   23.9500 H   0  0  0  0  0  0
    1.5382   53.2579   25.3548 N   0  0  0  0  0  0
    0.7539   51.8092   23.4551 C   0  0  0  0  0  0
    0.9050   52.1716   22.1099 C   0  0  0  0  0  0
    1.2890   51.2301   21.1589 C   0  0  0  0  0  0
    1.5079   49.9099   21.5385 C   0  0  0  0  0  0
    1.3254   49.5298   22.8664 C   0  0  0  0  0  0
    0.9355   50.4655   23.8357 C   0  0  0  0  0  0
    0.7042   50.1459   25.1594 O   0  0  0  0  0  0
    0.6790   48.8031   25.6155 C   0  0  0  0  0  0
   -2.1072   52.2958   24.6322 C   0  0  0  0  0  0
   -2.3327   52.8887   23.5722 O   0  0  0  0  0  0
   -2.9472   51.3815   25.1654 O   0  0  0  0  0  0
   -4.1792   51.0658   24.5334 C   0  0  0  0  0  0
   -1.7018   51.7547   27.7278 C   0  0  0  0  0  0
    8.7048   55.9244   20.1678 C   0  0  0  0  0  0
    4.6549   53.9905   16.5255 H   0  0  0  0  0  0
    5.6101   52.5572   16.8947 H   0  0  0  0  0  0
    6.3762   53.9830   16.1584 H   0  0  0  0  0  0
    7.8769   54.8926   17.8052 H   0  0  0  0  0  0
    6.5762   55.5428   21.8363 H   0  0  0  0  0  0
    3.9791   53.6022   19.0298 H   0  0  0  0  0  0
    3.2374   54.3199   21.0692 H   0  0  0  0  0  0
    2.1275   54.5345   22.9589 H   0  0  0  0  0  0
    4.6014   54.4231   25.7898 H   0  0  0  0  0  0
    0.7488   53.1908   21.7938 H   0  0  0  0  0  0
    1.4252   51.5260   20.1301 H   0  0  0  0  0  0
    1.8156   49.1818   20.8014 H   0  0  0  0  0  0
    1.5025   48.4973   23.1284 H   0  0  0  0  0  0
    0.0184   48.7575   26.4803 H   0  0  0  0  0  0
    0.2932   48.0866   24.8908 H   0  0  0  0  0  0
    1.6648   48.4988   25.9576 H   0  0  0  0  0  0
   -4.7367   50.3576   25.1491 H   0  0  0  0  0  0
   -4.7954   51.9570   24.3987 H   0  0  0  0  0  0
   -4.0111   50.6094   23.5564 H   0  0  0  0  0  0
   -2.7068   52.0962   27.4833 H   0  0  0  0  0  0
   -1.7042   50.6647   27.7465 H   0  0  0  0  0  0
   -1.4992   52.0963   28.7439 H   0  0  0  0  0  0
    8.8705   56.0316   21.2420 H   0  0  0  0  0  0
    9.5034   55.2897   19.7797 H   0  0  0  0  0  0
    8.8007   56.8967   19.6798 H   0  0  0  0  0  0
  1  2  1  0  0  0
  1 36  1  0  0  0
  1 37  1  0  0  0
  1 38  1  0  0  0
  2  7  2  0  0  0
  2  3  1  0  0  0
  3  4  2  0  0  0
  3 39  1  0  0  0
  4  5  1  0  0  0
  4 35  1  0  0  0
  5  6  2  0  0  0
  5 40  1  0  0  0
  6  7  1  0  0  0
  6  8  1  0  0  0
  7 41  1  0  0  0
  8  9  1  0  0  0
  8 42  1  0  0  0
  9 10  1  0  0  0
  9 11  2  0  0  0
 11 12  1  0  0  0
 11 43  1  0  0  0
 12 21  1  0  0  0
 12 13  2  0  0  0
 13 14  1  0  0  0
 13 44  1  0  0  0
 14 15  1  0  0  0
 15 21  1  0  0  0
 15 16  2  0  0  0
 16 17  1  0  0  0
 17 18  2  0  0  0
 17 34  1  0  0  0
 18 19  1  0  0  0
 18 30  1  0  0  0
 19 20  1  0  0  0
 19 21  1  0  0  0
 19 22  1  0  0  0
 22 27  2  0  0  0
 22 23  1  0  0  0
 23 24  2  0  0  0
 23 45  1  0  0  0
 24 25  1  0  0  0
 24 46  1  0  0  0
 25 26  2  0  0  0
 25 47  1  0  0  0
 26 27  1  0  0  0
 26 48  1  0  0  0
 27 28  1  0  0  0
 28 29  1  0  0  0
 29 49  1  0  0  0
 29 50  1  0  0  0
 29 51  1  0  0  0
 30 31  2  0  0  0
 30 32  1  0  0  0
 32 33  1  0  0  0
 33 52  1  0  0  0
 33 53  1  0  0  0
 33 54  1  0  0  0
 34 55  1  0  0  0
 34 56  1  0  0  0
 34 57  1  0  0  0
 35 58  1  0  0  0
 35 59  1  0  0  0
 35 60  1  0  0  0
M  CHG  1  10  -1
M  END
> <i_i_glide_confnum>
48

> <i_i_glide_lignum>
5643

> <i_i_glide_posenum>
75

> <i_i_glide_rotatable_bonds>
7

> <i_m_Source_File_Index>
2002

> <b_m_subgroup_collapsed>
0

> <r_i_docking_score>
-5.19026

> <r_i_glide_ecoul>
-5.34279

> <r_i_glide_eff_state_penalty>
0

> <r_i_glide_einternal>
8.33328

> <r_i_glide_emodel>
-56.2273

> <r_i_glide_energy>
-47.626

> <r_i_glide_erotb>
0.445821

> <r_i_glide_esite>
0

> <r_i_glide_evdw>
-42.2832

> <r_i_glide_gscore>
-5.19026

> <r_i_glide_hbond>
-0.134894

> <r_i_glide_ligand_efficiency>
-0.152655

> <r_i_glide_ligand_efficiency_ln>
-1.14667

> <r_i_glide_ligand_efficiency_sa>
-0.494542

> <r_i_glide_lipo>
-2.03293

> <r_i_glide_metal>
0

> <r_i_glide_rewards>
-0.552684

> <s_i_glide_gridfile>
wee1_glide-grid

> <s_m_Source_File>
wee1_decoys_glide_SP.sdf

> <s_m_Source_Path>
/Users/zhangxujun/Desktop

> <s_m_entry_id>
2277

> <s_m_entry_name>
wee1_decoys_glide_SP.2002

> <s_m_subgroup_title>
wee1_decoys_glide_SP

> <s_m_subgroupid>
wee1_decoys_glide_SP


$$$$
