ZINC35970459_5653
                    3D
 Schrodinger Suite 2024-2.
 53 56  0  0  1  0            999 V2000
    6.4256   54.3208   24.3413 C   0  0  0  0  0  0
    6.1040   54.4831   22.8691 C   0  0  0  0  0  0
    6.8926   55.3062   22.0643 C   0  0  0  0  0  0
    6.5851   55.4772   20.7138 C   0  0  0  0  0  0
    5.4944   54.8011   20.1649 C   0  0  0  0  0  0
    4.7215   53.9398   20.9463 C   0  0  0  0  0  0
    5.0283   53.7921   22.3042 C   0  0  0  0  0  0
    3.6376   53.2960   20.3263 N   0  0  0  0  0  0
    3.1682   51.9956   20.3820 C   0  0  0  0  0  0
    3.7725   51.2963   21.2800 O   0  5  0  0  0  0
    2.1934   51.6307   19.5257 C   0  0  0  0  0  0
    1.6345   50.2944   19.3708 C   0  0  0  0  0  0
    2.3995   49.1939   19.3119 C   0  0  0  0  0  0
    1.4946   47.6962   19.1352 S   0  0  0  0  0  0
    0.0065   48.6432   18.9970 C   0  0  0  0  0  0
   -1.1419   48.1359   18.7621 N   0  0  0  0  0  0
   -2.1959   48.9875   18.5879 C   0  0  0  0  0  0
   -2.1503   50.3147   18.9441 C   0  0  0  0  0  0
   -0.8427   50.8947   19.5728 C   0  0  2  0  0  0
   -0.6021   51.8355   19.0738 H   0  0  0  0  0  0
    0.2889   49.9827   19.2591 N   0  0  0  0  0  0
   -0.9670   51.1268   21.0796 C   0  0  0  0  0  0
   -1.7718   50.3860   21.9654 C   0  0  0  0  0  0
   -1.6857   50.7980   23.2887 C   0  0  0  0  0  0
   -0.5888   52.1182   23.4864 S   0  0  0  0  0  0
   -0.2622   52.0971   21.7863 C   0  0  0  0  0  0
   -3.2641   51.2792   18.7929 C   0  0  0  0  0  0
   -3.0912   52.4963   18.8837 O   0  0  0  0  0  0
   -4.4773   50.7185   18.5939 O   0  0  0  0  0  0
   -5.6383   51.5093   18.3929 C   0  0  0  0  0  0
   -3.3274   48.2534   17.8694 C   0  0  0  0  0  0
    7.4488   56.3650   19.8351 C   0  0  0  0  0  0
    7.5046   54.2812   24.4939 H   0  0  0  0  0  0
    6.0300   55.1609   24.9149 H   0  0  0  0  0  0
    6.0185   53.3901   24.7409 H   0  0  0  0  0  0
    7.7410   55.8259   22.4863 H   0  0  0  0  0  0
    5.2645   54.9273   19.1158 H   0  0  0  0  0  0
    4.4201   53.1508   22.9243 H   0  0  0  0  0  0
    3.3470   53.7789   19.4881 H   0  0  0  0  0  0
    1.7983   52.3862   18.8634 H   0  0  0  0  0  0
    3.4794   49.1871   19.3316 H   0  0  0  0  0  0
   -2.3987   49.5679   21.6451 H   0  0  0  0  0  0
   -2.2011   50.3862   24.1438 H   0  0  0  0  0  0
    0.4515   52.7975   21.3752 H   0  0  0  0  0  0
   -6.4920   50.8629   18.1883 H   0  0  0  0  0  0
   -5.8609   52.0963   19.2829 H   0  0  0  0  0  0
   -5.5115   52.1859   17.5467 H   0  0  0  0  0  0
   -3.7715   48.8783   17.0921 H   0  0  0  0  0  0
   -2.9960   47.3389   17.3689 H   0  0  0  0  0  0
   -4.1048   47.9771   18.5839 H   0  0  0  0  0  0
    8.4492   56.4915   20.2508 H   0  0  0  0  0  0
    7.5790   55.9105   18.8511 H   0  0  0  0  0  0
    6.9812   57.3407   19.6971 H   0  0  0  0  0  0
  1  2  1  0  0  0
  1 33  1  0  0  0
  1 34  1  0  0  0
  1 35  1  0  0  0
  2  7  2  0  0  0
  2  3  1  0  0  0
  3  4  2  0  0  0
  3 36  1  0  0  0
  4  5  1  0  0  0
  4 32  1  0  0  0
  5  6  2  0  0  0
  5 37  1  0  0  0
  6  7  1  0  0  0
  6  8  1  0  0  0
  7 38  1  0  0  0
  8  9  1  0  0  0
  8 39  1  0  0  0
  9 10  1  0  0  0
  9 11  2  0  0  0
 11 12  1  0  0  0
 11 40  1  0  0  0
 12 21  1  0  0  0
 12 13  2  0  0  0
 13 14  1  0  0  0
 13 41  1  0  0  0
 14 15  1  0  0  0
 15 21  1  0  0  0
 15 16  2  0  0  0
 16 17  1  0  0  0
 17 18  2  0  0  0
 17 31  1  0  0  0
 18 19  1  0  0  0
 18 27  1  0  0  0
 19 20  1  0  0  0
 19 21  1  0  0  0
 19 22  1  0  0  0
 22 26  2  0  0  0
 22 23  1  0  0  0
 23 24  2  0  0  0
 23 42  1  0  0  0
 24 25  1  0  0  0
 24 43  1  0  0  0
 25 26  1  0  0  0
 26 44  1  0  0  0
 27 28  2  0  0  0
 27 29  1  0  0  0
 29 30  1  0  0  0
 30 45  1  0  0  0
 30 46  1  0  0  0
 30 47  1  0  0  0
 31 48  1  0  0  0
 31 49  1  0  0  0
 31 50  1  0  0  0
 32 51  1  0  0  0
 32 52  1  0  0  0
 32 53  1  0  0  0
M  CHG  1  10  -1
M  END
> <i_i_glide_confnum>
15

> <i_i_glide_lignum>
5654

> <i_i_glide_posenum>
344

> <i_i_glide_rotatable_bonds>
6

> <i_m_Source_File_Index>
2165

> <b_m_subgroup_collapsed>
0

> <r_i_docking_score>
-3.69702

> <r_i_glide_ecoul>
-4.9946

> <r_i_glide_eff_state_penalty>
0

> <r_i_glide_einternal>
6.66854

> <r_i_glide_emodel>
-42.4162

> <r_i_glide_energy>
-37.2526

> <r_i_glide_erotb>
0.489848

> <r_i_glide_esite>
-0.031477

> <r_i_glide_evdw>
-32.258

> <r_i_glide_gscore>
-3.69702

> <r_i_glide_hbond>
-0.32

> <r_i_glide_ligand_efficiency>
-0.119259

> <r_i_glide_ligand_efficiency_ln>
-0.833791

> <r_i_glide_ligand_efficiency_sa>
-0.374637

> <r_i_glide_lipo>
-1.39204

> <r_i_glide_metal>
0

> <r_i_glide_rewards>
-0.0812583

> <s_i_glide_gridfile>
wee1_glide-grid

> <s_m_Source_File>
wee1_decoys_glide_SP.sdf

> <s_m_Source_Path>
/Users/zhangxujun/Desktop

> <s_m_entry_id>
2440

> <s_m_entry_name>
wee1_decoys_glide_SP.2165

> <s_m_subgroup_title>
wee1_decoys_glide_SP

> <s_m_subgroupid>
wee1_decoys_glide_SP


$$$$
