ZINC15346749_2252
                    3D
 Schrodinger Suite 2024-2.
 51 53  0  0  1  0            999 V2000
   -2.2985   50.6434   25.7360 C   0  0  0  0  0  0
   -1.2053   51.2589   26.5892 C   0  0  0  0  0  0
    0.0346   51.5567   26.0232 C   0  0  0  0  0  0
    1.0429   52.0957   26.8157 C   0  0  0  0  0  0
    0.8099   52.3530   28.1684 C   0  0  0  0  0  0
   -0.4361   52.0676   28.7300 C   0  0  0  0  0  0
   -1.4415   51.5167   27.9400 C   0  0  0  0  0  0
    1.8232   52.8692   28.9866 N   0  0  0  0  0  0
    2.6696   51.8788   29.6287 C   0  0  0  0  0  0
    2.4679   54.5104   28.7754 S   0  0  0  0  0  0
    3.0065   54.8965   30.0817 O   0  0  0  0  0  0
    1.4221   55.2963   28.1148 O   0  0  0  0  0  0
    3.8576   54.3752   27.6505 C   0  0  0  0  0  0
    5.1592   54.2354   28.1374 C   0  0  0  0  0  0
    6.2253   54.1128   27.2484 C   0  0  0  0  0  0
    5.9943   54.0967   25.8717 C   0  0  0  0  0  0
    4.6861   54.1983   25.3636 C   0  0  0  0  0  0
    3.6319   54.3651   26.2744 C   0  0  0  0  0  0
    4.3749   54.1085   23.8830 C   0  0  0  0  0  0
    3.1975   54.0717   23.5083 O   0  0  0  0  0  0
    5.4303   54.0905   23.0376 N   0  0  0  0  0  0
    5.1517   53.9630   21.6755 N   0  0  0  0  0  0
    5.6438   54.8967   20.8323 C   0  0  0  0  0  0
    6.3049   55.8776   21.1940 O   0  0  0  0  0  0
    5.3057   54.7047   19.3697 C   0  0  0  0  0  0
    5.3204   55.8122   18.5087 C   0  0  0  0  0  0
    4.9946   55.6683   17.1629 C   0  0  0  0  0  0
    4.6547   54.4138   16.6643 C   0  0  0  0  0  0
    4.6411   53.3029   17.5015 C   0  0  0  0  0  0
    4.9666   53.4437   18.8476 C   0  0  0  0  0  0
    4.3398   54.2747   15.3570 F   0  0  0  0  0  0
   -2.2314   50.9902   24.7037 H   0  0  0  0  0  0
   -2.2187   49.5550   25.7504 H   0  0  0  0  0  0
   -3.2884   50.9246   26.1023 H   0  0  0  0  0  0
    0.2289   51.3512   24.9804 H   0  0  0  0  0  0
    2.0082   52.2866   26.3748 H   0  0  0  0  0  0
   -0.6209   52.2468   29.7799 H   0  0  0  0  0  0
   -2.3930   51.2645   28.3866 H   0  0  0  0  0  0
    3.1099   51.2193   28.8817 H   0  0  0  0  0  0
    3.4715   52.3438   30.2032 H   0  0  0  0  0  0
    2.0562   51.2968   30.3121 H   0  0  0  0  0  0
    5.3511   54.2391   29.2002 H   0  0  0  0  0  0
    7.2306   54.0189   27.6312 H   0  0  0  0  0  0
    6.8454   53.9775   25.2167 H   0  0  0  0  0  0
    2.6169   54.4724   25.9161 H   0  0  0  0  0  0
    6.3035   53.6555   23.2932 H   0  0  0  0  0  0
    5.0432   53.0012   21.3927 H   0  0  0  0  0  0
    5.5725   56.7978   18.8775 H   0  0  0  0  0  0
    5.0040   56.5267   16.5081 H   0  0  0  0  0  0
    4.3837   52.3282   17.1099 H   0  0  0  0  0  0
    4.9545   52.5527   19.4583 H   0  0  0  0  0  0
  1  2  1  0  0  0
  1 32  1  0  0  0
  1 33  1  0  0  0
  1 34  1  0  0  0
  2  7  2  0  0  0
  2  3  1  0  0  0
  3  4  2  0  0  0
  3 35  1  0  0  0
  4  5  1  0  0  0
  4 36  1  0  0  0
  5  6  2  0  0  0
  5  8  1  0  0  0
  6  7  1  0  0  0
  6 37  1  0  0  0
  7 38  1  0  0  0
  8  9  1  0  0  0
  8 10  1  0  0  0
  9 39  1  0  0  0
  9 40  1  0  0  0
  9 41  1  0  0  0
 10 11  2  0  0  0
 10 12  2  0  0  0
 10 13  1  0  0  0
 13 18  2  0  0  0
 13 14  1  0  0  0
 14 15  2  0  0  0
 14 42  1  0  0  0
 15 16  1  0  0  0
 15 43  1  0  0  0
 16 17  2  0  0  0
 16 44  1  0  0  0
 17 18  1  0  0  0
 17 19  1  0  0  0
 18 45  1  0  0  0
 19 20  2  0  0  0
 19 21  1  0  0  0
 21 22  1  0  0  0
 21 46  1  0  0  0
 22 23  1  0  0  0
 22 47  1  0  0  0
 23 24  2  0  0  0
 23 25  1  0  0  0
 25 30  2  0  0  0
 25 26  1  0  0  0
 26 27  2  0  0  0
 26 48  1  0  0  0
 27 28  1  0  0  0
 27 49  1  0  0  0
 28 29  2  0  0  0
 28 31  1  0  0  0
 29 30  1  0  0  0
 29 50  1  0  0  0
 30 51  1  0  0  0
M  END
> <i_i_glide_confnum>
92

> <i_i_glide_lignum>
2253

> <i_i_glide_posenum>
354

> <i_i_glide_rotatable_bonds>
8

> <i_m_Source_File_Index>
1348

> <b_m_subgroup_collapsed>
0

> <r_i_docking_score>
-3.51747

> <r_i_glide_ecoul>
-3.64509

> <r_i_glide_eff_state_penalty>
0

> <r_i_glide_einternal>
5.5206

> <r_i_glide_emodel>
-49.6586

> <r_i_glide_energy>
-47.254

> <r_i_glide_erotb>
0.717426

> <r_i_glide_esite>
-0.0600877

> <r_i_glide_evdw>
-43.6089

> <r_i_glide_gscore>
-3.51747

> <r_i_glide_hbond>
0

> <r_i_glide_ligand_efficiency>
-0.113467

> <r_i_glide_ligand_efficiency_ln>
-0.793297

> <r_i_glide_ligand_efficiency_sa>
-0.356442

> <r_i_glide_lipo>
-2.04819

> <r_i_glide_metal>
0

> <r_i_glide_rewards>
0.600586

> <s_i_glide_gridfile>
wee1_glide-grid

> <s_m_Source_File>
wee1_decoys_glide_SP.sdf

> <s_m_Source_Path>
/Users/zhangxujun/Desktop

> <s_m_entry_id>
1623

> <s_m_entry_name>
wee1_decoys_glide_SP.1348

> <s_m_subgroup_title>
wee1_decoys_glide_SP

> <s_m_subgroupid>
wee1_decoys_glide_SP


$$$$
