ZINC35685008_2742
                    3D
 Schrodinger Suite 2024-2.
 48 51  0  0  1  0            999 V2000
    6.6867   54.2083   27.1906 C   0  0  0  0  0  0
    5.2126   54.0411   26.8860 C   0  0  0  0  0  0
    4.5135   54.1011   25.6484 C   0  0  0  0  0  0
    3.2290   53.8559   25.8245 N   0  0  0  0  0  0
    3.0708   53.4674   27.0919 N   0  0  0  0  0  0
    4.2457   53.6021   27.7792 C   0  0  0  0  0  0
    4.2979   53.2399   29.1078 N   0  0  0  0  0  0
    3.3866   52.4955   29.7628 C   0  0  0  0  0  0
    3.5692   52.1193   30.9161 O   0  0  0  0  0  0
    2.1386   52.1013   28.9288 C   0  0  0  0  0  0
    1.7983   53.0621   27.7281 C   0  0  2  0  0  0
    1.3209   53.9571   28.1298 H   0  0  0  0  0  0
    0.7257   52.3992   26.8139 C   0  0  0  0  0  0
    0.9372   52.2496   25.6107 O   0  0  0  0  0  0
   -0.4225   52.0236   27.4228 N   0  0  0  0  0  0
   -1.5480   51.3672   26.8842 C   0  0  0  0  0  0
   -2.6737   51.2969   27.7086 C   0  0  0  0  0  0
   -3.8340   50.6616   27.2720 C   0  0  0  0  0  0
   -3.8751   50.0795   26.0072 C   0  0  0  0  0  0
   -2.7595   50.1089   25.1699 C   0  0  0  0  0  0
   -1.5964   50.7593   25.6164 C   0  0  0  0  0  0
   -2.8944   49.4779   23.9464 O   0  0  0  0  0  0
   -1.7762   49.3473   23.0684 C   0  0  0  0  0  0
   -1.3518   50.5365   22.6347 F   0  0  0  0  0  0
   -0.7790   48.6629   23.6323 F   0  0  0  0  0  0
   -2.1841   48.6544   22.0061 F   0  0  0  0  0  0
    5.0125   54.3870   24.2503 C   0  0  0  0  0  0
    6.2777   54.9402   24.0130 C   0  0  0  0  0  0
    6.7053   55.1970   22.7119 C   0  0  0  0  0  0
    5.8839   54.8940   21.6328 C   0  0  0  0  0  0
    4.6299   54.3335   21.8433 C   0  0  0  0  0  0
    4.1959   54.0894   23.1435 C   0  0  0  0  0  0
    6.3052   55.1527   20.3752 F   0  0  0  0  0  0
    7.3046   53.7563   26.4175 H   0  0  0  0  0  0
    6.9706   55.2577   27.2660 H   0  0  0  0  0  0
    6.9786   53.7121   28.1170 H   0  0  0  0  0  0
    5.1124   53.4648   29.6581 H   0  0  0  0  0  0
    2.3018   51.0810   28.5769 H   0  0  0  0  0  0
    1.3165   52.0939   29.6461 H   0  0  0  0  0  0
   -0.4978   52.2244   28.4075 H   0  0  0  0  0  0
   -2.6520   51.6972   28.7104 H   0  0  0  0  0  0
   -4.6938   50.6008   27.9225 H   0  0  0  0  0  0
   -4.7744   49.5787   25.6800 H   0  0  0  0  0  0
   -0.7286   50.7624   24.9816 H   0  0  0  0  0  0
    6.9342   55.2115   24.8212 H   0  0  0  0  0  0
    7.6763   55.6358   22.5339 H   0  0  0  0  0  0
    3.9918   54.1014   21.0024 H   0  0  0  0  0  0
    3.2153   53.6562   23.2796 H   0  0  0  0  0  0
  1  2  1  0  0  0
  1 34  1  0  0  0
  1 35  1  0  0  0
  1 36  1  0  0  0
  2  6  2  0  0  0
  2  3  1  0  0  0
  3  4  2  0  0  0
  3 27  1  0  0  0
  4  5  1  0  0  0
  5 11  1  0  0  0
  5  6  1  0  0  0
  6  7  1  0  0  0
  7  8  1  0  0  0
  7 37  1  0  0  0
  8  9  2  0  0  0
  8 10  1  0  0  0
 10 11  1  0  0  0
 10 38  1  0  0  0
 10 39  1  0  0  0
 11 12  1  0  0  0
 11 13  1  0  0  0
 13 14  2  0  0  0
 13 15  1  0  0  0
 15 16  1  0  0  0
 15 40  1  0  0  0
 16 21  2  0  0  0
 16 17  1  0  0  0
 17 18  2  0  0  0
 17 41  1  0  0  0
 18 19  1  0  0  0
 18 42  1  0  0  0
 19 20  2  0  0  0
 19 43  1  0  0  0
 20 21  1  0  0  0
 20 22  1  0  0  0
 21 44  1  0  0  0
 22 23  1  0  0  0
 23 24  1  0  0  0
 23 25  1  0  0  0
 23 26  1  0  0  0
 27 32  2  0  0  0
 27 28  1  0  0  0
 28 29  2  0  0  0
 28 45  1  0  0  0
 29 30  1  0  0  0
 29 46  1  0  0  0
 30 31  2  0  0  0
 30 33  1  0  0  0
 31 32  1  0  0  0
 31 47  1  0  0  0
 32 48  1  0  0  0
M  END
> <i_i_glide_confnum>
283

> <i_i_glide_lignum>
2743

> <i_i_glide_posenum>
185

> <i_i_glide_rotatable_bonds>
6

> <i_m_Source_File_Index>
425

> <b_m_subgroup_collapsed>
0

> <r_i_docking_score>
-6.19205

> <r_i_glide_ecoul>
-1.1916

> <r_i_glide_eff_state_penalty>
0

> <r_i_glide_einternal>
8.01904

> <r_i_glide_emodel>
-61.0653

> <r_i_glide_energy>
-46.9142

> <r_i_glide_erotb>
0.498225

> <r_i_glide_esite>
-0.0363571

> <r_i_glide_evdw>
-45.7226

> <r_i_glide_gscore>
-6.19205

> <r_i_glide_hbond>
-0.263424

> <r_i_glide_ligand_efficiency>
-0.193502

> <r_i_glide_ligand_efficiency_ln>
-1.38657

> <r_i_glide_ligand_efficiency_sa>
-0.614329

> <r_i_glide_lipo>
-2.68451

> <r_i_glide_metal>
0

> <r_i_glide_rewards>
-1.24111

> <s_i_glide_gridfile>
wee1_glide-grid

> <s_m_Source_File>
wee1_decoys_glide_SP.sdf

> <s_m_Source_Path>
/Users/zhangxujun/Desktop

> <s_m_entry_id>
700

> <s_m_entry_name>
wee1_decoys_glide_SP.425

> <s_m_subgroup_title>
wee1_decoys_glide_SP

> <s_m_subgroupid>
wee1_decoys_glide_SP


$$$$
