ZINC47378519_1380
                    3D
 Schrodinger Suite 2024-2.
 51 53  0  0  1  0            999 V2000
    7.9147   53.2555   17.0973 C   0  0  0  0  0  0
    6.4298   53.6493   17.1508 C   0  0  0  0  0  0
    6.1789   55.0639   17.7121 C   0  0  0  0  0  0
    6.5045   55.1798   19.1874 C   0  0  0  0  0  0
    7.5946   55.7510   19.6479 N   0  0  0  0  0  0
    7.7096   55.6965   21.0314 N   0  0  0  0  0  0
    6.7013   55.0833   21.5958 C   0  0  0  0  0  0
    5.5039   54.5178   20.4494 S   0  0  0  0  0  0
    6.6590   54.8972   22.9692 N   0  0  0  0  0  0
    5.6122   54.4562   23.7062 C   0  0  0  0  0  0
    4.6663   53.8304   23.2236 O   0  0  0  0  0  0
    5.6347   54.8255   25.0178 N   0  0  0  0  0  0
    6.8666   55.2178   25.7398 C   0  0  0  0  0  0
    7.0917   54.2141   26.8926 C   0  0  0  0  0  0
    5.8908   54.1264   27.8350 C   0  0  0  0  0  0
    4.6526   53.7358   27.0034 C   0  0  2  0  0  0
    4.8027   52.7242   26.6289 H   0  0  0  0  0  0
    4.4015   54.7099   25.8309 C   0  0  0  0  0  0
    3.4131   53.7442   27.9120 C   0  0  0  0  0  0
    3.1540   54.7328   28.6039 O   0  0  0  0  0  0
    2.6577   52.6334   27.8726 N   0  0  0  0  0  0
    1.5513   52.3589   28.6746 C   0  0  0  0  0  0
    1.5972   52.3761   30.0852 C   0  0  0  0  0  0
    0.4102   52.1102   30.7749 C   0  0  0  0  0  0
   -0.7360   51.7392   30.0723 C   0  0  0  0  0  0
   -0.6817   51.6969   28.6811 C   0  0  0  0  0  0
    0.4359   52.0111   27.9824 N   0  0  0  0  0  0
    2.8970   52.5233   30.8699 C   0  0  0  0  0  0
    8.0339   52.2384   16.7219 H   0  0  0  0  0  0
    8.3799   53.2982   18.0816 H   0  0  0  0  0  0
    8.4755   53.9189   16.4383 H   0  0  0  0  0  0
    6.0189   53.5894   16.1421 H   0  0  0  0  0  0
    5.8775   52.9109   17.7353 H   0  0  0  0  0  0
    6.7518   55.7869   17.1292 H   0  0  0  0  0  0
    5.1339   55.3314   17.5495 H   0  0  0  0  0  0
    7.4402   55.2971   23.4665 H   0  0  0  0  0  0
    7.7438   55.2616   25.0964 H   0  0  0  0  0  0
    6.7039   56.2159   26.1450 H   0  0  0  0  0  0
    7.3250   53.2272   26.4911 H   0  0  0  0  0  0
    7.9535   54.5073   27.4834 H   0  0  0  0  0  0
    6.1272   53.3715   28.5879 H   0  0  0  0  0  0
    5.7901   55.1179   28.2841 H   0  0  0  0  0  0
    4.1833   55.6967   26.2247 H   0  0  0  0  0  0
    3.5370   54.4026   25.2384 H   0  0  0  0  0  0
    2.8393   51.9696   27.1362 H   0  0  0  0  0  0
    0.3880   52.1003   31.8562 H   0  0  0  0  0  0
   -1.6266   51.4388   30.6061 H   0  0  0  0  0  0
   -1.5387   51.3754   28.1066 H   0  0  0  0  0  0
    2.7759   52.2577   31.9208 H   0  0  0  0  0  0
    3.6573   51.8606   30.4540 H   0  0  0  0  0  0
    3.2912   53.5332   30.8056 H   0  0  0  0  0  0
  1  2  1  0  0  0
  1 29  1  0  0  0
  1 30  1  0  0  0
  1 31  1  0  0  0
  2  3  1  0  0  0
  2 32  1  0  0  0
  2 33  1  0  0  0
  3  4  1  0  0  0
  3 34  1  0  0  0
  3 35  1  0  0  0
  4  8  1  0  0  0
  4  5  2  0  0  0
  5  6  1  0  0  0
  6  7  2  0  0  0
  7  8  1  0  0  0
  7  9  1  0  0  0
  9 10  1  0  0  0
  9 36  1  0  0  0
 10 11  2  0  0  0
 10 12  1  0  0  0
 12 18  1  0  0  0
 12 13  1  0  0  0
 13 14  1  0  0  0
 13 37  1  0  0  0
 13 38  1  0  0  0
 14 15  1  0  0  0
 14 39  1  0  0  0
 14 40  1  0  0  0
 15 16  1  0  0  0
 15 41  1  0  0  0
 15 42  1  0  0  0
 16 17  1  0  0  0
 16 18  1  0  0  0
 16 19  1  0  0  0
 18 43  1  0  0  0
 18 44  1  0  0  0
 19 20  2  0  0  0
 19 21  1  0  0  0
 21 22  1  0  0  0
 21 45  1  0  0  0
 22 27  2  0  0  0
 22 23  1  0  0  0
 23 24  2  0  0  0
 23 28  1  0  0  0
 24 25  1  0  0  0
 24 46  1  0  0  0
 25 26  2  0  0  0
 25 47  1  0  0  0
 26 27  1  0  0  0
 26 48  1  0  0  0
 28 49  1  0  0  0
 28 50  1  0  0  0
 28 51  1  0  0  0
M  END
> <i_i_glide_confnum>
43

> <i_i_glide_lignum>
1381

> <i_i_glide_posenum>
371

> <i_i_glide_rotatable_bonds>
8

> <i_m_Source_File_Index>
5869

> <b_m_subgroup_collapsed>
0

> <r_i_docking_score>
-5.06952

> <r_i_glide_ecoul>
-2.10263

> <r_i_glide_eff_state_penalty>
0

> <r_i_glide_einternal>
9.65554

> <r_i_glide_emodel>
-52.9343

> <r_i_glide_energy>
-44.5254

> <r_i_glide_erotb>
0.903717

> <r_i_glide_esite>
0

> <r_i_glide_evdw>
-42.4228

> <r_i_glide_gscore>
-5.06952

> <r_i_glide_hbond>
-0.132724

> <r_i_glide_ligand_efficiency>
-0.18776

> <r_i_glide_ligand_efficiency_ln>
-1.1801

> <r_i_glide_ligand_efficiency_sa>
-0.56328

> <r_i_glide_lipo>
-1.53955

> <r_i_glide_metal>
0

> <r_i_glide_rewards>
-1.86443

> <s_i_glide_gridfile>
wee1_glide-grid

> <s_m_Source_File>
wee1_decoys_glide_SP.sdf

> <s_m_Source_Path>
/Users/zhangxujun/Desktop

> <s_m_entry_id>
6144

> <s_m_entry_name>
wee1_decoys_glide_SP.5869

> <s_m_subgroup_title>
wee1_decoys_glide_SP

> <s_m_subgroupid>
wee1_decoys_glide_SP


$$$$
