ZINC63204481_1254
                    3D
 Schrodinger Suite 2024-2.
 59 63  0  0  1  0            999 V2000
   -0.2746   51.1752   24.0068 C   0  0  0  0  0  0
   -0.3602   52.5544   24.1770 C   0  0  0  0  0  0
    0.6986   53.3648   23.7753 C   0  0  0  0  0  0
    1.8515   52.8097   23.2090 C   0  0  0  0  0  0
    1.9043   51.4202   23.0183 C   0  0  0  0  0  0
    0.8527   50.6053   23.4249 C   0  0  0  0  0  0
    3.0024   53.7483   22.7780 C   0  0  1  0  0  0
    2.5290   54.7222   22.6427 H   0  0  0  0  0  0
    4.0554   54.0656   23.8686 C   0  0  0  0  0  0
    5.3897   54.3559   23.5388 C   0  0  0  0  0  0
    6.3291   54.6170   24.5311 C   0  0  0  0  0  0
    5.9422   54.5970   25.8676 C   0  0  0  0  0  0
    4.6216   54.3324   26.2160 C   0  0  0  0  0  0
    3.6841   54.0715   25.2216 C   0  0  0  0  0  0
    7.1046   54.8964   27.1031 Cl  0  0  0  0  0  0
    3.5070   53.5083   21.4161 N   0  0  0  0  0  0
    4.3689   52.5714   20.9681 C   0  0  0  0  0  0
    4.8614   51.7050   21.6817 O   0  0  0  0  0  0
    4.7931   52.5943   19.4910 C   0  0  0  0  0  0
    4.5393   53.8931   18.8373 N   0  0  0  0  0  0
    3.5039   54.0861   17.9948 C   0  0  0  0  0  0
    2.6263   53.2934   17.6545 O   0  0  0  0  0  0
    3.6430   55.5071   17.5070 C   0  0  1  0  0  0
    2.7755   56.0669   17.8630 H   0  0  0  0  0  0
    4.8421   55.9053   18.1906 N   0  0  0  0  0  0
    5.3242   54.9871   19.0290 C   0  0  0  0  0  0
    6.1131   55.1949   19.9485 O   0  0  0  0  0  0
    3.7705   55.5868   15.9659 C   0  0  0  0  0  0
    3.5542   56.9925   15.4334 C   0  0  0  0  0  0
    2.7269   57.4603   14.4792 C   0  0  0  0  0  0
    1.7815   56.7639   13.5923 C   0  0  0  0  0  0
    1.0223   57.4531   12.7165 C   0  0  0  0  0  0
    1.1598   58.9032   12.6843 C   0  0  0  0  0  0
    2.0218   59.5632   13.5023 C   0  0  0  0  0  0
    2.8192   58.8539   14.4092 C   0  0  0  0  0  0
    3.6871   59.2967   15.2842 N   0  3  0  0  0  0
    4.2829   58.1840   16.0217 C   0  0  0  0  0  0
   -1.0891   50.5415   24.3266 H   0  0  0  0  0  0
   -1.2405   52.9907   24.6235 H   0  0  0  0  0  0
    0.6261   54.4331   23.9225 H   0  0  0  0  0  0
    2.7590   50.9442   22.5716 H   0  0  0  0  0  0
    0.9160   49.5342   23.2916 H   0  0  0  0  0  0
    5.7174   54.3854   22.5113 H   0  0  0  0  0  0
    7.3540   54.8250   24.2594 H   0  0  0  0  0  0
    4.3255   54.3174   27.2548 H   0  0  0  0  0  0
    2.6695   53.8605   25.5219 H   0  0  0  0  0  0
    3.0571   54.0772   20.7118 H   0  0  0  0  0  0
    5.8588   52.3742   19.4232 H   0  0  0  0  0  0
    4.2642   51.7829   18.9961 H   0  0  0  0  0  0
    5.3749   56.7141   17.9090 H   0  0  0  0  0  0
    4.7458   55.2283   15.6325 H   0  0  0  0  0  0
    3.0367   54.9351   15.4894 H   0  0  0  0  0  0
    1.6780   55.6877   13.6147 H   0  0  0  0  0  0
    0.3286   56.9472   12.0583 H   0  0  0  0  0  0
    0.5536   59.4699   11.9910 H   0  0  0  0  0  0
    2.0799   60.6410   13.4406 H   0  0  0  0  0  0
    4.0793   58.3592   17.0786 H   0  0  0  0  0  0
    5.3585   58.1966   15.8363 H   0  0  0  0  0  0
    3.9043   60.2814   15.4895 H   0  0  0  0  0  0
  1  6  2  0  0  0
  1  2  1  0  0  0
  1 38  1  0  0  0
  2  3  2  0  0  0
  2 39  1  0  0  0
  3  4  1  0  0  0
  3 40  1  0  0  0
  4  5  2  0  0  0
  4  7  1  0  0  0
  5  6  1  0  0  0
  5 41  1  0  0  0
  6 42  1  0  0  0
  7  8  1  0  0  0
  7  9  1  0  0  0
  7 16  1  0  0  0
  9 14  2  0  0  0
  9 10  1  0  0  0
 10 11  2  0  0  0
 10 43  1  0  0  0
 11 12  1  0  0  0
 11 44  1  0  0  0
 12 13  2  0  0  0
 12 15  1  0  0  0
 13 14  1  0  0  0
 13 45  1  0  0  0
 14 46  1  0  0  0
 16 17  1  0  0  0
 16 47  1  0  0  0
 17 18  2  0  0  0
 17 19  1  0  0  0
 19 20  1  0  0  0
 19 48  1  0  0  0
 19 49  1  0  0  0
 20 26  1  0  0  0
 20 21  1  0  0  0
 21 22  2  0  0  0
 21 23  1  0  0  0
 23 24  1  0  0  0
 23 25  1  0  0  0
 23 28  1  0  0  0
 25 26  1  0  0  0
 25 50  1  0  0  0
 26 27  2  0  0  0
 28 29  1  0  0  0
 28 51  1  0  0  0
 28 52  1  0  0  0
 29 37  1  0  0  0
 29 30  2  0  0  0
 30 35  1  0  0  0
 30 31  1  0  0  0
 31 32  2  0  0  0
 31 53  1  0  0  0
 32 33  1  0  0  0
 32 54  1  0  0  0
 33 34  2  0  0  0
 33 55  1  0  0  0
 34 35  1  0  0  0
 34 56  1  0  0  0
 35 36  2  0  0  0
 36 37  1  0  0  0
 36 59  1  0  0  0
 37 57  1  0  0  0
 37 58  1  0  0  0
M  CHG  1  36   1
M  END
> <i_i_glide_confnum>
196

> <i_i_glide_lignum>
1255

> <i_i_glide_posenum>
292

> <i_i_glide_rotatable_bonds>
8

> <i_m_Source_File_Index>
5011

> <b_m_subgroup_collapsed>
0

> <r_i_docking_score>
-5.76332

> <r_i_glide_ecoul>
-8.83893

> <r_i_glide_eff_state_penalty>
0

> <r_i_glide_einternal>
4.98726

> <r_i_glide_emodel>
-64.6424

> <r_i_glide_energy>
-46.8896

> <r_i_glide_erotb>
0.68317

> <r_i_glide_esite>
-0.120338

> <r_i_glide_evdw>
-38.0506

> <r_i_glide_gscore>
-5.76332

> <r_i_glide_hbond>
-0.4507

> <r_i_glide_ligand_efficiency>
-0.164666

> <r_i_glide_ligand_efficiency_ln>
-1.26518

> <r_i_glide_ligand_efficiency_sa>
-0.538635

> <r_i_glide_lipo>
-2.40091

> <r_i_glide_metal>
0

> <r_i_glide_rewards>
-0.24618

> <s_i_glide_gridfile>
wee1_glide-grid

> <s_m_Source_File>
wee1_decoys_glide_SP.sdf

> <s_m_Source_Path>
/Users/zhangxujun/Desktop

> <s_m_entry_id>
5286

> <s_m_entry_name>
wee1_decoys_glide_SP.5011

> <s_m_subgroup_title>
wee1_decoys_glide_SP

> <s_m_subgroupid>
wee1_decoys_glide_SP


$$$$
