ZINC25382053_575
                    3D
 Schrodinger Suite 2024-2.
 64 66  0  0  1  0            999 V2000
    5.0417   56.8102   16.1948 C   0  0  0  0  0  0
    5.1552   55.7101   17.2646 C   0  0  1  0  0  0
    5.2075   56.3072   18.6782 C   0  0  0  0  0  0
    5.4387   55.2082   19.7332 C   0  0  0  0  0  0
    4.3039   54.1418   19.6528 N   0  3  1  0  0  0
    4.1431   53.5821   18.2076 C   0  0  0  0  0  0
    3.9570   54.7485   17.2195 C   0  0  0  0  0  0
    4.5220   53.0121   20.7101 C   0  0  2  0  0  0
    5.5068   52.6295   20.4462 H   0  0  0  0  0  0
    3.5245   51.8259   20.5666 C   0  0  0  0  0  0
    2.1312   52.1562   20.8817 N   0  0  0  0  0  0
    1.3318   51.3759   21.6289 C   0  0  0  0  0  0
    1.6663   50.2609   22.0366 O   0  0  0  0  0  0
   -0.0674   51.9443   21.9755 C   0  0  2  0  0  0
   -0.2209   52.8452   21.3793 H   0  0  0  0  0  0
   -0.1497   52.3538   23.4910 C   0  0  0  0  0  0
   -1.5546   52.8521   23.8906 C   0  0  0  0  0  0
    0.3298   51.3052   24.5250 C   0  0  0  0  0  0
   -1.0660   50.9364   21.6151 N   0  0  0  0  0  0
   -1.9945   51.0470   20.6513 C   0  0  0  0  0  0
   -2.1781   52.0919   20.0223 O   0  0  0  0  0  0
   -2.8197   49.8040   20.3828 C   0  0  0  0  0  0
   -2.2898   48.5075   20.5701 C   0  0  0  0  0  0
   -3.0631   47.3775   20.3127 C   0  0  0  0  0  0
   -4.3712   47.5072   19.8562 C   0  0  0  0  0  0
   -4.9053   48.7763   19.6522 C   0  0  0  0  0  0
   -4.1406   49.9130   19.9052 C   0  0  0  0  0  0
   -4.7109   51.1186   19.6757 F   0  0  0  0  0  0
   -1.0189   48.3108   20.9956 F   0  0  0  0  0  0
    4.5225   53.6114   22.1183 C   0  0  0  0  0  0
    3.4648   54.0965   22.8950 C   0  0  0  0  0  0
    3.8174   54.4967   24.1852 C   0  0  0  0  0  0
    5.1723   54.3760   24.4208 C   0  0  0  0  0  0
    5.9976   53.7411   23.0407 S   0  0  0  0  0  0
    4.1403   57.4109   16.3257 H   0  0  0  0  0  0
    5.8955   57.4870   16.2324 H   0  0  0  0  0  0
    5.0133   56.3846   15.1924 H   0  0  0  0  0  0
    6.0717   55.1425   17.0843 H   0  0  0  0  0  0
    4.3043   56.8843   18.8808 H   0  0  0  0  0  0
    6.0120   57.0422   18.7349 H   0  0  0  0  0  0
    5.4061   55.6570   20.7270 H   0  0  0  0  0  0
    6.3898   54.6893   19.5922 H   0  0  0  0  0  0
    5.0116   52.9563   17.9842 H   0  0  0  0  0  0
    3.2338   52.9810   18.1852 H   0  0  0  0  0  0
    3.8485   54.3490   16.2101 H   0  0  0  0  0  0
    3.0211   55.2804   17.4033 H   0  0  0  0  0  0
    3.8973   51.0380   21.2248 H   0  0  0  0  0  0
    3.5836   51.3519   19.5872 H   0  0  0  0  0  0
    1.7737   53.0307   20.5190 H   0  0  0  0  0  0
    0.5046   53.2177   23.6217 H   0  0  0  0  0  0
   -2.2999   52.0623   23.7947 H   0  0  0  0  0  0
   -1.5716   53.1869   24.9274 H   0  0  0  0  0  0
   -1.8767   53.6925   23.2815 H   0  0  0  0  0  0
   -0.1743   50.3491   24.3867 H   0  0  0  0  0  0
    1.4041   51.1298   24.4627 H   0  0  0  0  0  0
    0.1337   51.6353   25.5445 H   0  0  0  0  0  0
   -0.9287   50.0317   22.0429 H   0  0  0  0  0  0
   -2.6403   46.3953   20.4623 H   0  0  0  0  0  0
   -4.9678   46.6287   19.6556 H   0  0  0  0  0  0
   -5.9178   48.8812   19.2895 H   0  0  0  0  0  0
    2.4477   54.1468   22.5402 H   0  0  0  0  0  0
    3.1087   54.8713   24.9086 H   0  0  0  0  0  0
    5.7155   54.6173   25.3235 H   0  0  0  0  0  0
    3.4326   54.6127   19.8693 H   0  0  0  0  0  0
  1  2  1  0  0  0
  1 35  1  0  0  0
  1 36  1  0  0  0
  1 37  1  0  0  0
  2  7  1  0  0  0
  2  3  1  0  0  0
  2 38  1  0  0  0
  3  4  1  0  0  0
  3 39  1  0  0  0
  3 40  1  0  0  0
  4  5  1  0  0  0
  4 41  1  0  0  0
  4 42  1  0  0  0
  5  6  1  0  0  0
  5  8  1  0  0  0
  5 64  1  0  0  0
  6  7  1  0  0  0
  6 43  1  0  0  0
  6 44  1  0  0  0
  7 45  1  0  0  0
  7 46  1  0  0  0
  8  9  1  0  0  0
  8 10  1  0  0  0
  8 30  1  0  0  0
 10 11  1  0  0  0
 10 47  1  0  0  0
 10 48  1  0  0  0
 11 12  1  0  0  0
 11 49  1  0  0  0
 12 13  2  0  0  0
 12 14  1  0  0  0
 14 15  1  0  0  0
 14 16  1  0  0  0
 14 19  1  0  0  0
 16 17  1  0  0  0
 16 18  1  0  0  0
 16 50  1  0  0  0
 17 51  1  0  0  0
 17 52  1  0  0  0
 17 53  1  0  0  0
 18 54  1  0  0  0
 18 55  1  0  0  0
 18 56  1  0  0  0
 19 20  1  0  0  0
 19 57  1  0  0  0
 20 21  2  0  0  0
 20 22  1  0  0  0
 22 27  2  0  0  0
 22 23  1  0  0  0
 23 24  2  0  0  0
 23 29  1  0  0  0
 24 25  1  0  0  0
 24 58  1  0  0  0
 25 26  2  0  0  0
 25 59  1  0  0  0
 26 27  1  0  0  0
 26 60  1  0  0  0
 27 28  1  0  0  0
 30 34  1  0  0  0
 30 31  2  0  0  0
 31 32  1  0  0  0
 31 61  1  0  0  0
 32 33  2  0  0  0
 32 62  1  0  0  0
 33 34  1  0  0  0
 33 63  1  0  0  0
M  CHG  1   5   1
M  END
> <i_i_glide_confnum>
144

> <i_i_glide_lignum>
576

> <i_i_glide_posenum>
264

> <i_i_glide_rotatable_bonds>
10

> <i_m_Source_File_Index>
5520

> <b_m_subgroup_collapsed>
0

> <r_i_docking_score>
-3.87561

> <r_i_glide_ecoul>
-5.91166

> <r_i_glide_eff_state_penalty>
0

> <r_i_glide_einternal>
7.49858

> <r_i_glide_emodel>
-41.4762

> <r_i_glide_energy>
-35.298

> <r_i_glide_erotb>
0.74722

> <r_i_glide_esite>
-0.0242238

> <r_i_glide_evdw>
-29.3863

> <r_i_glide_gscore>
-3.87561

> <r_i_glide_hbond>
-0.448047

> <r_i_glide_ligand_efficiency>
-0.121113

> <r_i_glide_ligand_efficiency_ln>
-0.867855

> <r_i_glide_ligand_efficiency_sa>
-0.384509

> <r_i_glide_lipo>
-1.51076

> <r_i_glide_metal>
0

> <r_i_glide_rewards>
-0.28374

> <s_i_glide_gridfile>
wee1_glide-grid

> <s_m_Source_File>
wee1_decoys_glide_SP.sdf

> <s_m_Source_Path>
/Users/zhangxujun/Desktop

> <s_m_entry_id>
5795

> <s_m_entry_name>
wee1_decoys_glide_SP.5520

> <s_m_subgroup_title>
wee1_decoys_glide_SP

> <s_m_subgroupid>
wee1_decoys_glide_SP


$$$$
