ZINC28308813_5993
                    3D
 Schrodinger Suite 2024-2.
 58 60  0  0  1  0            999 V2000
   -3.6512   50.5423   19.7602 C   0  0  0  0  0  0
   -2.4058   51.0450   20.4662 C   0  0  0  0  0  0
   -2.4270   51.2968   21.8371 C   0  0  0  0  0  0
   -1.2823   51.7555   22.4845 C   0  0  0  0  0  0
   -0.0955   51.9746   21.7664 C   0  0  0  0  0  0
   -0.0635   51.6898   20.3880 C   0  0  0  0  0  0
   -1.2222   51.2314   19.7506 C   0  0  0  0  0  0
    1.2015   51.8734   19.5581 C   0  0  0  0  0  0
    1.0833   52.4370   22.3814 N   0  0  0  0  0  0
    1.2138   53.2399   23.4688 C   0  0  0  0  0  0
    0.2523   53.6964   24.0817 O   0  0  0  0  0  0
    2.5897   53.5277   23.8645 C   0  0  0  0  0  0
    2.9533   53.5590   25.1839 C   0  0  0  0  0  0
    2.2104   53.2964   26.4531 C   0  0  0  0  0  0
    1.1676   52.3642   26.5576 C   0  0  0  0  0  0
    0.5060   52.1539   27.7664 C   0  0  0  0  0  0
    0.8681   52.8650   28.9076 C   0  0  0  0  0  0
    1.9172   53.7897   28.8193 C   0  0  0  0  0  0
    2.5933   53.9922   27.6155 C   0  0  0  0  0  0
    3.6252   54.8954   27.5976 O   0  0  0  0  0  0
    4.8738   54.3620   28.0226 C   0  0  0  0  0  0
    0.1577   52.5952   30.0604 O   0  0  0  0  0  0
    0.5655   53.2053   31.2782 C   0  0  0  0  0  0
    3.4333   53.7809   22.7970 N   0  0  0  0  0  0
    4.7476   54.0963   22.7483 C   0  0  0  0  0  0
    5.4889   54.2449   23.7223 O   0  0  0  0  0  0
    5.2939   54.3025   21.3560 C   0  0  0  0  0  0
    4.8388   53.5298   20.2753 C   0  0  0  0  0  0
    5.3850   53.7042   19.0070 C   0  0  0  0  0  0
    6.3825   54.6564   18.8101 C   0  0  0  0  0  0
    6.8417   55.4311   19.8711 C   0  0  0  0  0  0
    6.3035   55.2539   21.1427 C   0  0  0  0  0  0
    7.1341   54.8888   17.0795 Br  0  0  0  0  0  0
   -4.3158   50.0241   20.4506 H   0  0  0  0  0  0
   -3.3889   49.8265   18.9811 H   0  0  0  0  0  0
   -4.1932   51.3674   19.2981 H   0  0  0  0  0  0
   -3.3269   51.1344   22.4122 H   0  0  0  0  0  0
   -1.3283   51.9227   23.5493 H   0  0  0  0  0  0
   -1.2021   51.0188   18.6911 H   0  0  0  0  0  0
    1.5699   52.8967   19.6467 H   0  0  0  0  0  0
    1.9893   51.2061   19.9104 H   0  0  0  0  0  0
    1.0380   51.6722   18.4971 H   0  0  0  0  0  0
    1.9319   52.1713   21.9078 H   0  0  0  0  0  0
    3.9823   53.7776   25.3948 H   0  0  0  0  0  0
    0.8680   51.7692   25.7074 H   0  0  0  0  0  0
   -0.2879   51.4226   27.8228 H   0  0  0  0  0  0
    2.2296   54.3593   29.6811 H   0  0  0  0  0  0
    5.6408   55.1341   27.9657 H   0  0  0  0  0  0
    4.8309   54.0153   29.0559 H   0  0  0  0  0  0
    5.1964   53.5279   27.3953 H   0  0  0  0  0  0
   -0.0945   52.8968   32.0819 H   0  0  0  0  0  0
    1.5727   52.8968   31.5577 H   0  0  0  0  0  0
    0.5209   54.2943   31.2233 H   0  0  0  0  0  0
    2.9699   53.8049   21.9015 H   0  0  0  0  0  0
    4.0827   52.7680   20.4024 H   0  0  0  0  0  0
    5.0480   53.0900   18.1844 H   0  0  0  0  0  0
    7.6245   56.1555   19.7073 H   0  0  0  0  0  0
    6.6841   55.8472   21.9630 H   0  0  0  0  0  0
  1  2  1  0  0  0
  1 34  1  0  0  0
  1 35  1  0  0  0
  1 36  1  0  0  0
  2  7  2  0  0  0
  2  3  1  0  0  0
  3  4  2  0  0  0
  3 37  1  0  0  0
  4  5  1  0  0  0
  4 38  1  0  0  0
  5  6  2  0  0  0
  5  9  1  0  0  0
  6  7  1  0  0  0
  6  8  1  0  0  0
  7 39  1  0  0  0
  8 40  1  0  0  0
  8 41  1  0  0  0
  8 42  1  0  0  0
  9 10  1  0  0  0
  9 43  1  0  0  0
 10 11  2  0  0  0
 10 12  1  0  0  0
 12 13  2  0  0  0
 12 24  1  0  0  0
 13 14  1  0  0  0
 13 44  1  0  0  0
 14 19  2  0  0  0
 14 15  1  0  0  0
 15 16  2  0  0  0
 15 45  1  0  0  0
 16 17  1  0  0  0
 16 46  1  0  0  0
 17 18  2  0  0  0
 17 22  1  0  0  0
 18 19  1  0  0  0
 18 47  1  0  0  0
 19 20  1  0  0  0
 20 21  1  0  0  0
 21 48  1  0  0  0
 21 49  1  0  0  0
 21 50  1  0  0  0
 22 23  1  0  0  0
 23 51  1  0  0  0
 23 52  1  0  0  0
 23 53  1  0  0  0
 24 25  1  0  0  0
 24 54  1  0  0  0
 25 26  2  0  0  0
 25 27  1  0  0  0
 27 32  2  0  0  0
 27 28  1  0  0  0
 28 29  2  0  0  0
 28 55  1  0  0  0
 29 30  1  0  0  0
 29 56  1  0  0  0
 30 31  2  0  0  0
 30 33  1  0  0  0
 31 32  1  0  0  0
 31 57  1  0  0  0
 32 58  1  0  0  0
M  END
> <i_i_glide_confnum>
4

> <i_i_glide_lignum>
5994

> <i_i_glide_posenum>
370

> <i_i_glide_rotatable_bonds>
9

> <i_m_Source_File_Index>
4458

> <b_m_subgroup_collapsed>
0

> <r_i_docking_score>
-4.82709

> <r_i_glide_ecoul>
-3.76069

> <r_i_glide_eff_state_penalty>
0

> <r_i_glide_einternal>
8.14417

> <r_i_glide_emodel>
-56.3915

> <r_i_glide_energy>
-46.8232

> <r_i_glide_erotb>
0.473553

> <r_i_glide_esite>
0

> <r_i_glide_evdw>
-43.0625

> <r_i_glide_gscore>
-4.82709

> <r_i_glide_hbond>
0

> <r_i_glide_ligand_efficiency>
-0.146276

> <r_i_glide_ligand_efficiency_ln>
-1.07352

> <r_i_glide_ligand_efficiency_sa>
-0.469184

> <r_i_glide_lipo>
-2.05468

> <r_i_glide_metal>
0

> <r_i_glide_rewards>
-0.528737

> <s_i_glide_gridfile>
wee1_glide-grid

> <s_m_Source_File>
wee1_decoys_glide_SP.sdf

> <s_m_Source_Path>
/Users/zhangxujun/Desktop

> <s_m_entry_id>
4733

> <s_m_entry_name>
wee1_decoys_glide_SP.4458

> <s_m_subgroup_title>
wee1_decoys_glide_SP

> <s_m_subgroupid>
wee1_decoys_glide_SP


$$$$
