ZINC17133584_827
                    3D
 Schrodinger Suite 2024-2.
 58 59  0  0  1  0            999 V2000
    7.4037   55.5221   21.7206 C   0  0  0  0  0  0
    6.0958   54.8768   21.3183 C   0  0  0  0  0  0
    5.7613   54.7146   19.9688 C   0  0  0  0  0  0
    4.3735   53.7181   19.7927 S   0  0  0  0  0  0
    4.1792   53.5566   21.5118 C   0  0  0  0  0  0
    5.1666   54.2823   22.2317 C   0  0  0  0  0  0
    5.2403   54.4363   23.7139 C   0  0  0  0  0  0
    5.9061   55.2921   24.2971 O   0  0  0  0  0  0
    4.4343   53.5347   24.3305 O   0  0  0  0  0  0
    3.8765   53.5451   25.6637 C   0  0  2  0  0  0
    3.4364   52.5671   25.7938 H   0  0  0  0  0  0
    2.7043   54.4967   25.5870 C   0  0  0  0  0  0
    4.8780   53.6784   26.8575 C   0  0  0  0  0  0
    6.0905   53.6976   26.6548 O   0  0  0  0  0  0
    4.4668   53.7221   28.1433 N   0  0  0  0  0  0
    3.1728   53.8882   28.6658 C   0  0  0  0  0  0
    2.9521   55.1143   29.2804 C   0  0  0  0  0  0
    1.7285   55.3975   29.8674 C   0  0  0  0  0  0
    0.7043   54.4648   29.8646 C   0  0  0  0  0  0
    0.9039   53.2406   29.2473 C   0  0  0  0  0  0
    2.1347   52.9285   28.6386 C   0  0  0  0  0  0
    2.3652   51.6955   28.0802 O   0  0  0  0  0  0
    1.2468   50.8992   27.6816 C   0  0  0  0  0  0
    1.5028   56.8963   30.6396 Cl  0  0  0  0  0  0
    3.1380   52.7882   22.0576 N   0  0  0  0  0  0
    2.1544   52.0901   21.4357 C   0  0  0  0  0  0
    1.9745   52.0951   20.2182 O   0  0  0  0  0  0
    1.1535   51.2860   22.3277 C   0  0  0  0  0  0
   -0.0850   52.1747   22.5986 C   0  0  0  0  0  0
    1.7610   50.8494   23.6847 C   0  0  0  0  0  0
    0.6942   49.9979   21.5922 C   0  0  0  0  0  0
    6.4597   55.2163   18.7225 C   0  0  0  0  0  0
    7.2498   56.4960   22.1585 H   0  0  0  0  0  0
    7.9006   54.9244   22.4786 H   0  0  0  0  0  0
    8.1314   55.6079   20.9165 H   0  0  0  0  0  0
    2.0742   54.4966   26.4698 H   0  0  0  0  0  0
    3.1089   55.4934   25.4247 H   0  0  0  0  0  0
    2.0518   54.2640   24.7445 H   0  0  0  0  0  0
    5.2182   53.8470   28.8038 H   0  0  0  0  0  0
    3.7343   55.8533   29.3125 H   0  0  0  0  0  0
   -0.2379   54.6813   30.3457 H   0  0  0  0  0  0
    0.0830   52.5416   29.2820 H   0  0  0  0  0  0
    1.5923   49.9493   27.2817 H   0  0  0  0  0  0
    0.5740   50.6646   28.5055 H   0  0  0  0  0  0
    0.6730   51.3991   26.9001 H   0  0  0  0  0  0
    3.1394   52.7612   23.0658 H   0  0  0  0  0  0
   -0.8372   51.6441   23.1845 H   0  0  0  0  0  0
   -0.5700   52.4899   21.6728 H   0  0  0  0  0  0
    0.1787   53.0754   23.1574 H   0  0  0  0  0  0
    2.6494   50.2270   23.5631 H   0  0  0  0  0  0
    2.0261   51.7048   24.3029 H   0  0  0  0  0  0
    1.0471   50.2616   24.2654 H   0  0  0  0  0  0
    1.5372   49.3380   21.3772 H   0  0  0  0  0  0
   -0.0147   49.4270   22.1928 H   0  0  0  0  0  0
    0.2023   50.2153   20.6423 H   0  0  0  0  0  0
    6.9931   54.4153   18.2167 H   0  0  0  0  0  0
    5.7507   55.6271   18.0031 H   0  0  0  0  0  0
    7.1834   56.0062   18.9225 H   0  0  0  0  0  0
  1  2  1  0  0  0
  1 33  1  0  0  0
  1 34  1  0  0  0
  1 35  1  0  0  0
  2  6  1  0  0  0
  2  3  2  0  0  0
  3  4  1  0  0  0
  3 32  1  0  0  0
  4  5  1  0  0  0
  5  6  2  0  0  0
  5 25  1  0  0  0
  6  7  1  0  0  0
  7  8  2  0  0  0
  7  9  1  0  0  0
  9 10  1  0  0  0
 10 11  1  0  0  0
 10 12  1  0  0  0
 10 13  1  0  0  0
 12 36  1  0  0  0
 12 37  1  0  0  0
 12 38  1  0  0  0
 13 14  2  0  0  0
 13 15  1  0  0  0
 15 16  1  0  0  0
 15 39  1  0  0  0
 16 21  2  0  0  0
 16 17  1  0  0  0
 17 18  2  0  0  0
 17 40  1  0  0  0
 18 19  1  0  0  0
 18 24  1  0  0  0
 19 20  2  0  0  0
 19 41  1  0  0  0
 20 21  1  0  0  0
 20 42  1  0  0  0
 21 22  1  0  0  0
 22 23  1  0  0  0
 23 43  1  0  0  0
 23 44  1  0  0  0
 23 45  1  0  0  0
 25 26  1  0  0  0
 25 46  1  0  0  0
 26 27  2  0  0  0
 26 28  1  0  0  0
 28 29  1  0  0  0
 28 30  1  0  0  0
 28 31  1  0  0  0
 29 47  1  0  0  0
 29 48  1  0  0  0
 29 49  1  0  0  0
 30 50  1  0  0  0
 30 51  1  0  0  0
 30 52  1  0  0  0
 31 53  1  0  0  0
 31 54  1  0  0  0
 31 55  1  0  0  0
 32 56  1  0  0  0
 32 57  1  0  0  0
 32 58  1  0  0  0
M  END
> <i_i_glide_confnum>
211

> <i_i_glide_lignum>
828

> <i_i_glide_posenum>
203

> <i_i_glide_rotatable_bonds>
10

> <i_m_Source_File_Index>
5012

> <b_m_subgroup_collapsed>
0

> <r_i_docking_score>
-3.08798

> <r_i_glide_ecoul>
0.467829

> <r_i_glide_eff_state_penalty>
0

> <r_i_glide_einternal>
11.5794

> <r_i_glide_emodel>
-31.6177

> <r_i_glide_energy>
-35.7874

> <r_i_glide_erotb>
0.740273

> <r_i_glide_esite>
0

> <r_i_glide_evdw>
-36.2552

> <r_i_glide_gscore>
-3.08798

> <r_i_glide_hbond>
0

> <r_i_glide_ligand_efficiency>
-0.0996121

> <r_i_glide_ligand_efficiency_ln>
-0.696433

> <r_i_glide_ligand_efficiency_sa>
-0.31292

> <r_i_glide_lipo>
-2.83068

> <r_i_glide_metal>
0

> <r_i_glide_rewards>
0.745022

> <s_i_glide_gridfile>
wee1_glide-grid

> <s_m_Source_File>
wee1_decoys_glide_SP.sdf

> <s_m_Source_Path>
/Users/zhangxujun/Desktop

> <s_m_entry_id>
5287

> <s_m_entry_name>
wee1_decoys_glide_SP.5012

> <s_m_subgroup_title>
wee1_decoys_glide_SP

> <s_m_subgroupid>
wee1_decoys_glide_SP


$$$$
