ZINC33033596_1273
                    3D
 Schrodinger Suite 2024-2.
 71 74  0  0  1  0            999 V2000
    6.2554   57.0831   17.6772 C   0  0  0  0  0  0
    5.8493   56.1447   18.8056 C   0  0  0  0  0  0
    6.6345   56.0857   19.9593 C   0  0  0  0  0  0
    6.2902   55.2581   21.0323 C   0  0  0  0  0  0
    5.1399   54.4492   20.9347 C   0  0  0  0  0  0
    4.3692   54.4967   19.7715 C   0  0  0  0  0  0
    4.7051   55.3378   18.7094 C   0  0  0  0  0  0
    3.7995   55.3828   17.4877 C   0  0  0  0  0  0
    4.5818   53.3055   22.2111 S   0  0  0  0  0  0
    5.1546   53.6968   23.5026 O   0  0  0  0  0  0
    4.7733   51.9520   21.6803 O   0  0  0  0  0  0
    2.8413   53.5899   22.3758 N   0  0  0  0  0  0
    2.0280   52.6652   23.0520 C   0  0  0  0  0  0
    1.6314   53.0099   24.3500 C   0  0  0  0  0  0
    0.8328   52.1514   25.1193 C   0  0  0  0  0  0
    0.3721   50.9690   24.5391 C   0  0  0  0  0  0
    0.7488   50.6208   23.2470 C   0  0  0  0  0  0
    1.6008   51.4384   22.4863 C   0  0  0  0  0  0
    1.9356   51.0478   21.1890 N   0  0  0  0  0  0
    2.0786   49.6167   20.8632 C   0  0  0  0  0  0
    2.8876   49.3425   19.5880 C   0  0  0  0  0  0
    2.3044   50.1061   18.4018 N   0  3  0  0  0  0
    2.2331   51.6029   18.7265 C   0  0  0  0  0  0
    1.4464   51.8330   20.0408 C   0  0  0  0  0  0
    0.4022   52.4960   26.5273 C   0  0  0  0  0  0
   -0.7893   52.3406   26.8096 O   0  0  0  0  0  0
    1.3104   52.9672   27.4296 N   0  0  0  0  0  0
    2.7774   52.8548   27.2724 C   0  0  0  0  0  0
    3.3957   54.2322   27.5893 C   0  0  0  0  0  0
    2.9832   54.7171   28.9886 C   0  0  0  0  0  0
    1.4470   54.7324   29.1222 C   0  0  1  0  0  0
    1.0613   55.4417   28.3866 H   0  0  0  0  0  0
    0.8500   53.3453   28.7850 C   0  0  0  0  0  0
    0.9833   55.1836   30.5137 C   0  0  0  0  0  0
    7.2038   55.2522   22.2481 C   0  0  0  0  0  0
    5.5288   57.8908   17.5739 H   0  0  0  0  0  0
    7.2422   57.5199   17.8365 H   0  0  0  0  0  0
    6.2904   56.5457   16.7292 H   0  0  0  0  0  0
    7.5287   56.6878   20.0165 H   0  0  0  0  0  0
    3.4759   53.8992   19.7086 H   0  0  0  0  0  0
    3.5270   56.4134   17.2564 H   0  0  0  0  0  0
    4.3142   54.9725   16.6170 H   0  0  0  0  0  0
    2.8693   54.8329   17.6404 H   0  0  0  0  0  0
    2.6740   54.5270   22.7087 H   0  0  0  0  0  0
    1.9610   53.9494   24.7702 H   0  0  0  0  0  0
   -0.2745   50.3011   25.0944 H   0  0  0  0  0  0
    0.3681   49.6932   22.8448 H   0  0  0  0  0  0
    2.5256   49.0793   21.7029 H   0  0  0  0  0  0
    1.0697   49.2314   20.7085 H   0  0  0  0  0  0
    2.9057   48.2909   19.2975 H   0  0  0  0  0  0
    3.9044   49.7138   19.6817 H   0  0  0  0  0  0
    1.3940   49.7439   18.1615 H   0  0  0  0  0  0
    1.7597   52.0734   17.8639 H   0  0  0  0  0  0
    3.2748   51.9255   18.7873 H   0  0  0  0  0  0
    0.4197   51.4983   19.8780 H   0  0  0  0  0  0
    1.4020   52.8960   20.2772 H   0  0  0  0  0  0
    3.1027   52.4998   26.2968 H   0  0  0  0  0  0
    3.1287   52.1287   28.0072 H   0  0  0  0  0  0
    3.1053   54.9555   26.8280 H   0  0  0  0  0  0
    4.4828   54.1644   27.5300 H   0  0  0  0  0  0
    3.3982   55.7022   29.2047 H   0  0  0  0  0  0
    3.4119   54.0585   29.7458 H   0  0  0  0  0  0
    1.1917   52.6013   29.5054 H   0  0  0  0  0  0
   -0.2371   53.4112   28.8601 H   0  0  0  0  0  0
    1.2131   54.4389   31.2758 H   0  0  0  0  0  0
   -0.0955   55.3060   30.5375 H   0  0  0  0  0  0
    1.4296   56.1344   30.8079 H   0  0  0  0  0  0
    8.1380   55.7833   22.0671 H   0  0  0  0  0  0
    6.7098   55.7119   23.1037 H   0  0  0  0  0  0
    7.4723   54.2327   22.5240 H   0  0  0  0  0  0
    2.9249   49.9416   17.6027 H   0  0  0  0  0  0
  1  2  1  0  0  0
  1 36  1  0  0  0
  1 37  1  0  0  0
  1 38  1  0  0  0
  2  7  2  0  0  0
  2  3  1  0  0  0
  3  4  2  0  0  0
  3 39  1  0  0  0
  4  5  1  0  0  0
  4 35  1  0  0  0
  5  6  2  0  0  0
  5  9  1  0  0  0
  6  7  1  0  0  0
  6 40  1  0  0  0
  7  8  1  0  0  0
  8 41  1  0  0  0
  8 42  1  0  0  0
  8 43  1  0  0  0
  9 10  2  0  0  0
  9 11  2  0  0  0
  9 12  1  0  0  0
 12 13  1  0  0  0
 12 44  1  0  0  0
 13 18  2  0  0  0
 13 14  1  0  0  0
 14 15  2  0  0  0
 14 45  1  0  0  0
 15 16  1  0  0  0
 15 25  1  0  0  0
 16 17  2  0  0  0
 16 46  1  0  0  0
 17 18  1  0  0  0
 17 47  1  0  0  0
 18 19  1  0  0  0
 19 24  1  0  0  0
 19 20  1  0  0  0
 20 21  1  0  0  0
 20 48  1  0  0  0
 20 49  1  0  0  0
 21 22  1  0  0  0
 21 50  1  0  0  0
 21 51  1  0  0  0
 22 23  1  0  0  0
 22 52  1  0  0  0
 22 71  1  0  0  0
 23 24  1  0  0  0
 23 53  1  0  0  0
 23 54  1  0  0  0
 24 55  1  0  0  0
 24 56  1  0  0  0
 25 26  2  0  0  0
 25 27  1  0  0  0
 27 33  1  0  0  0
 27 28  1  0  0  0
 28 29  1  0  0  0
 28 57  1  0  0  0
 28 58  1  0  0  0
 29 30  1  0  0  0
 29 59  1  0  0  0
 29 60  1  0  0  0
 30 31  1  0  0  0
 30 61  1  0  0  0
 30 62  1  0  0  0
 31 32  1  0  0  0
 31 33  1  0  0  0
 31 34  1  0  0  0
 33 63  1  0  0  0
 33 64  1  0  0  0
 34 65  1  0  0  0
 34 66  1  0  0  0
 34 67  1  0  0  0
 35 68  1  0  0  0
 35 69  1  0  0  0
 35 70  1  0  0  0
M  CHG  1  22   1
M  END
> <i_i_glide_confnum>
133

> <i_i_glide_lignum>
1274

> <i_i_glide_posenum>
382

> <i_i_glide_rotatable_bonds>
6

> <i_m_Source_File_Index>
4666

> <b_m_subgroup_collapsed>
0

> <r_i_docking_score>
-2.57737

> <r_i_glide_ecoul>
-4.79546

> <r_i_glide_eff_state_penalty>
0

> <r_i_glide_einternal>
15.8176

> <r_i_glide_emodel>
-37.3297

> <r_i_glide_energy>
-45.4163

> <r_i_glide_erotb>
0.516814

> <r_i_glide_esite>
-0.1

> <r_i_glide_evdw>
-40.6209

> <r_i_glide_gscore>
-2.57737

> <r_i_glide_hbond>
-0.2

> <r_i_glide_ligand_efficiency>
-0.075805

> <r_i_glide_ligand_efficiency_ln>
-0.569413

> <r_i_glide_ligand_efficiency_sa>
-0.245579

> <r_i_glide_lipo>
-2.53523

> <r_i_glide_metal>
0

> <r_i_glide_rewards>
2.49141

> <s_i_glide_gridfile>
wee1_glide-grid

> <s_m_Source_File>
wee1_decoys_glide_SP.sdf

> <s_m_Source_Path>
/Users/zhangxujun/Desktop

> <s_m_entry_id>
4941

> <s_m_entry_name>
wee1_decoys_glide_SP.4666

> <s_m_subgroup_title>
wee1_decoys_glide_SP

> <s_m_subgroupid>
wee1_decoys_glide_SP


$$$$
