ZINC44947451_2375
                    3D
 Schrodinger Suite 2024-2.
 57 60  0  0  1  0            999 V2000
    5.8516   58.0474   15.9200 C   0  0  0  0  0  0
    5.5296   56.9877   16.7681 C   0  0  0  0  0  0
    6.2896   56.7495   17.9209 C   0  0  0  0  0  0
    7.3862   57.5787   18.1948 C   0  0  0  0  0  0
    7.7192   58.6408   17.3467 C   0  0  0  0  0  0
    6.9376   58.8713   16.2065 C   0  0  0  0  0  0
    8.9103   59.5308   17.6891 C   0  0  0  0  0  0
    8.7163   60.0956   18.8814 F   0  0  0  0  0  0
   10.0215   58.7941   17.7488 F   0  0  0  0  0  0
    9.1044   60.5016   16.7945 F   0  0  0  0  0  0
    5.9126   55.6447   18.8497 C   0  0  0  0  0  0
    5.3468   54.4003   18.5394 C   0  0  0  0  0  0
    5.1499   53.7503   19.7435 C   0  0  0  0  0  0
    5.5958   54.6367   20.7010 N   0  0  0  0  0  0
    6.0868   55.7591   20.1472 N   0  0  0  0  0  0
    5.5863   54.5185   22.1084 C   0  0  0  0  0  0
    6.7045   54.9163   22.8484 C   0  0  0  0  0  0
    6.6530   54.8993   24.2352 C   0  0  0  0  0  0
    5.4945   54.4982   24.9063 C   0  0  0  0  0  0
    4.3798   54.0966   24.1562 C   0  0  0  0  0  0
    4.4262   54.0962   22.7634 C   0  0  0  0  0  0
    5.4861   54.4959   26.4171 C   0  0  0  0  0  0
    6.5445   54.5253   27.0502 O   0  0  0  0  0  0
    4.2786   54.4705   27.0111 N   0  0  0  0  0  0
    4.0352   54.3644   28.4516 C   0  0  0  0  0  0
    2.6850   55.0297   28.8172 C   0  0  0  0  0  0
    1.4318   54.1404   28.7365 C   0  0  0  0  0  0
    1.1718   53.3110   30.0097 C   0  0  0  0  0  0
    2.1523   52.1531   30.2703 C   0  0  0  0  0  0
    3.6531   52.5107   30.2837 C   0  0  0  0  0  0
    4.2160   52.8957   28.9032 C   0  0  0  0  0  0
    4.6869   52.4962   20.0190 N   0  0  0  0  0  0
    5.2455   58.2415   15.0472 H   0  0  0  0  0  0
    4.6727   56.3670   16.5413 H   0  0  0  0  0  0
    7.9830   57.3953   19.0775 H   0  0  0  0  0  0
    7.1583   59.6971   15.5465 H   0  0  0  0  0  0
    5.1165   54.0120   17.5569 H   0  0  0  0  0  0
    7.6075   55.2545   22.3563 H   0  0  0  0  0  0
    7.5209   55.2196   24.7875 H   0  0  0  0  0  0
    3.4687   53.7658   24.6319 H   0  0  0  0  0  0
    3.5474   53.8108   22.2006 H   0  0  0  0  0  0
    3.4656   54.5750   26.4295 H   0  0  0  0  0  0
    4.8057   54.9667   28.9454 H   0  0  0  0  0  0
    2.5279   55.9003   28.1766 H   0  0  0  0  0  0
    2.7514   55.4416   29.8232 H   0  0  0  0  0  0
    1.4717   53.4945   27.8578 H   0  0  0  0  0  0
    0.5660   54.7875   28.5814 H   0  0  0  0  0  0
    0.1643   52.8961   29.9558 H   0  0  0  0  0  0
    1.1576   53.9740   30.8769 H   0  0  0  0  0  0
    1.9786   51.3742   29.5278 H   0  0  0  0  0  0
    1.8928   51.6977   31.2283 H   0  0  0  0  0  0
    4.2026   51.6402   30.6436 H   0  0  0  0  0  0
    3.8655   53.2971   31.0072 H   0  0  0  0  0  0
    5.2887   52.6882   28.9132 H   0  0  0  0  0  0
    3.8213   52.2155   28.1475 H   0  0  0  0  0  0
    4.6986   51.7775   19.2914 H   0  0  0  0  0  0
    4.5427   52.1753   20.9644 H   0  0  0  0  0  0
  1  6  2  0  0  0
  1  2  1  0  0  0
  1 33  1  0  0  0
  2  3  2  0  0  0
  2 34  1  0  0  0
  3  4  1  0  0  0
  3 11  1  0  0  0
  4  5  2  0  0  0
  4 35  1  0  0  0
  5  6  1  0  0  0
  5  7  1  0  0  0
  6 36  1  0  0  0
  7  8  1  0  0  0
  7  9  1  0  0  0
  7 10  1  0  0  0
 11 15  2  0  0  0
 11 12  1  0  0  0
 12 13  2  0  0  0
 12 37  1  0  0  0
 13 14  1  0  0  0
 13 32  1  0  0  0
 14 15  1  0  0  0
 14 16  1  0  0  0
 16 21  2  0  0  0
 16 17  1  0  0  0
 17 18  2  0  0  0
 17 38  1  0  0  0
 18 19  1  0  0  0
 18 39  1  0  0  0
 19 20  2  0  0  0
 19 22  1  0  0  0
 20 21  1  0  0  0
 20 40  1  0  0  0
 21 41  1  0  0  0
 22 23  2  0  0  0
 22 24  1  0  0  0
 24 25  1  0  0  0
 24 42  1  0  0  0
 25 31  1  0  0  0
 25 26  1  0  0  0
 25 43  1  0  0  0
 26 27  1  0  0  0
 26 44  1  0  0  0
 26 45  1  0  0  0
 27 28  1  0  0  0
 27 46  1  0  0  0
 27 47  1  0  0  0
 28 29  1  0  0  0
 28 48  1  0  0  0
 28 49  1  0  0  0
 29 30  1  0  0  0
 29 50  1  0  0  0
 29 51  1  0  0  0
 30 31  1  0  0  0
 30 52  1  0  0  0
 30 53  1  0  0  0
 31 54  1  0  0  0
 31 55  1  0  0  0
 32 56  1  0  0  0
 32 57  1  0  0  0
M  END
> <i_i_glide_confnum>
525

> <i_i_glide_lignum>
2376

> <i_i_glide_posenum>
87

> <i_i_glide_rotatable_bonds>
6

> <i_m_Source_File_Index>
4743

> <b_m_subgroup_collapsed>
0

> <r_i_docking_score>
-6.56427

> <r_i_glide_ecoul>
-2.35647

> <r_i_glide_eff_state_penalty>
0

> <r_i_glide_einternal>
2.75134

> <r_i_glide_emodel>
-69.003

> <r_i_glide_energy>
-50.4415

> <r_i_glide_erotb>
0.510346

> <r_i_glide_esite>
-0.23553

> <r_i_glide_evdw>
-48.085

> <r_i_glide_gscore>
-6.56427

> <r_i_glide_hbond>
-0.16

> <r_i_glide_ligand_efficiency>
-0.205134

> <r_i_glide_ligand_efficiency_ln>
-1.46992

> <r_i_glide_ligand_efficiency_sa>
-0.651258

> <r_i_glide_lipo>
-2.87019

> <r_i_glide_metal>
0

> <r_i_glide_rewards>
-1.05117

> <s_i_glide_gridfile>
wee1_glide-grid

> <s_m_Source_File>
wee1_decoys_glide_SP.sdf

> <s_m_Source_Path>
/Users/zhangxujun/Desktop

> <s_m_entry_id>
5018

> <s_m_entry_name>
wee1_decoys_glide_SP.4743

> <s_m_subgroup_title>
wee1_decoys_glide_SP

> <s_m_subgroupid>
wee1_decoys_glide_SP


$$$$
