ZINC14467991_3919
                    3D
 Schrodinger Suite 2024-2.
 53 56  0  0  1  0            999 V2000
    4.2271   53.9330   24.0006 C   0  0  0  0  0  0
    4.6856   53.7019   22.5471 C   0  0  0  0  0  0
    3.5449   53.7717   21.4995 C   0  0  1  0  0  0
    3.1490   54.7873   21.5573 H   0  0  0  0  0  0
    4.0701   53.5924   20.0591 C   0  0  0  0  0  0
    2.3969   52.9034   21.7975 N   0  0  0  0  0  0
    2.4018   51.5634   21.8894 C   0  0  0  0  0  0
    3.4076   50.8967   21.6530 O   0  0  0  0  0  0
    1.1315   50.9113   22.3927 C   0  0  0  0  0  0
    1.1756   49.5960   22.8685 C   0  0  0  0  0  0
    0.0401   48.9887   23.3924 C   0  0  0  0  0  0
   -1.1700   49.6791   23.4351 C   0  0  0  0  0  0
   -1.2512   51.0082   22.9735 C   0  0  0  0  0  0
   -0.0958   51.5924   22.4376 C   0  0  0  0  0  0
   -2.5696   51.7851   23.0379 C   0  0  2  0  0  0
   -2.8503   51.9847   22.0025 H   0  0  0  0  0  0
   -2.5343   53.0991   23.7869 C   0  0  0  0  0  0
   -3.6736   53.3001   24.4747 C   0  0  0  0  0  0
   -4.6141   52.1235   24.3367 C   0  0  0  0  0  0
   -3.7086   51.0289   23.7487 C   0  0  2  0  0  0
   -4.2756   50.4938   22.9832 H   0  0  0  0  0  0
   -3.2258   49.9436   24.7652 C   0  0  1  0  0  0
   -4.0780   49.2888   24.9449 H   0  0  0  0  0  0
   -2.2468   49.0746   24.1072 N   0  0  0  0  0  0
   -2.8058   50.4691   26.1580 C   0  0  0  0  0  0
   -1.5011   50.9248   26.4005 C   0  0  0  0  0  0
   -1.1027   51.3251   27.6728 C   0  0  0  0  0  0
   -2.0117   51.2969   28.7236 C   0  0  0  0  0  0
   -3.3267   50.8953   28.5030 C   0  0  0  0  0  0
   -3.7176   50.4567   27.2321 C   0  0  0  0  0  0
   -5.0025   50.0049   27.0626 O   0  0  0  0  0  0
   -4.4459   50.8962   29.8254 Cl  0  0  0  0  0  0
    0.5223   51.8280   27.9528 Cl  0  0  0  0  0  0
    5.0759   53.8972   24.6840 H   0  0  0  0  0  0
    3.5103   53.1787   24.3262 H   0  0  0  0  0  0
    3.7491   54.9034   24.1131 H   0  0  0  0  0  0
    5.4435   54.4467   22.3023 H   0  0  0  0  0  0
    5.1859   52.7343   22.4836 H   0  0  0  0  0  0
    4.9174   54.2532   19.8734 H   0  0  0  0  0  0
    4.4258   52.5787   19.8704 H   0  0  0  0  0  0
    3.3109   53.8410   19.3176 H   0  0  0  0  0  0
    1.5137   53.3765   21.8972 H   0  0  0  0  0  0
    2.1014   49.0396   22.8621 H   0  0  0  0  0  0
    0.1141   47.9870   23.7926 H   0  0  0  0  0  0
   -0.1680   52.6035   22.0669 H   0  0  0  0  0  0
   -1.7164   53.7979   23.6889 H   0  0  0  0  0  0
   -3.9291   54.1740   25.0565 H   0  0  0  0  0  0
   -5.4510   52.3606   23.6818 H   0  0  0  0  0  0
   -5.0573   51.8435   25.2899 H   0  0  0  0  0  0
   -2.0876   48.2095   24.6035 H   0  0  0  0  0  0
   -0.7614   50.9487   25.6192 H   0  0  0  0  0  0
   -1.6946   51.5795   29.7161 H   0  0  0  0  0  0
   -5.4308   49.8640   27.9108 H   0  0  0  0  0  0
  1  2  1  0  0  0
  1 34  1  0  0  0
  1 35  1  0  0  0
  1 36  1  0  0  0
  2  3  1  0  0  0
  2 37  1  0  0  0
  2 38  1  0  0  0
  3  4  1  0  0  0
  3  5  1  0  0  0
  3  6  1  0  0  0
  5 39  1  0  0  0
  5 40  1  0  0  0
  5 41  1  0  0  0
  6  7  1  0  0  0
  6 42  1  0  0  0
  7  8  2  0  0  0
  7  9  1  0  0  0
  9 14  2  0  0  0
  9 10  1  0  0  0
 10 11  2  0  0  0
 10 43  1  0  0  0
 11 12  1  0  0  0
 11 44  1  0  0  0
 12 24  1  0  0  0
 12 13  2  0  0  0
 13 14  1  0  0  0
 13 15  1  0  0  0
 14 45  1  0  0  0
 15 16  1  0  0  0
 15 20  1  0  0  0
 15 17  1  0  0  0
 17 18  2  0  0  0
 17 46  1  0  0  0
 18 19  1  0  0  0
 18 47  1  0  0  0
 19 20  1  0  0  0
 19 48  1  0  0  0
 19 49  1  0  0  0
 20 21  1  0  0  0
 20 22  1  0  0  0
 22 23  1  0  0  0
 22 24  1  0  0  0
 22 25  1  0  0  0
 24 50  1  0  0  0
 25 30  2  0  0  0
 25 26  1  0  0  0
 26 27  2  0  0  0
 26 51  1  0  0  0
 27 28  1  0  0  0
 27 33  1  0  0  0
 28 29  2  0  0  0
 28 52  1  0  0  0
 29 30  1  0  0  0
 29 32  1  0  0  0
 30 31  1  0  0  0
 31 53  1  0  0  0
M  END
> <i_i_glide_confnum>
29

> <i_i_glide_lignum>
3920

> <i_i_glide_posenum>
258

> <i_i_glide_rotatable_bonds>
6

> <i_m_Source_File_Index>
5239

> <b_m_subgroup_collapsed>
0

> <r_i_docking_score>
-2.79906

> <r_i_glide_ecoul>
-1.25886

> <r_i_glide_eff_state_penalty>
0

> <r_i_glide_einternal>
1.64818

> <r_i_glide_emodel>
-36.2245

> <r_i_glide_energy>
-29.5045

> <r_i_glide_erotb>
0.427571

> <r_i_glide_esite>
-0.0114155

> <r_i_glide_evdw>
-28.2457

> <r_i_glide_gscore>
-2.79906

> <r_i_glide_hbond>
0

> <r_i_glide_ligand_efficiency>
-0.0965194

> <r_i_glide_ligand_efficiency_ln>
-0.640914

> <r_i_glide_ligand_efficiency_sa>
-0.296538

> <r_i_glide_lipo>
-1.00837

> <r_i_glide_metal>
0

> <r_i_glide_rewards>
-0.605737

> <s_i_glide_gridfile>
wee1_glide-grid

> <s_m_Source_File>
wee1_decoys_glide_SP.sdf

> <s_m_Source_Path>
/Users/zhangxujun/Desktop

> <s_m_entry_id>
5514

> <s_m_entry_name>
wee1_decoys_glide_SP.5239

> <s_m_subgroup_title>
wee1_decoys_glide_SP

> <s_m_subgroupid>
wee1_decoys_glide_SP


$$$$
