ZINC02250282_5973
                    3D
 Schrodinger Suite 2024-2.
 56 60  0  0  1  0            999 V2000
    3.0210   53.2301   17.5040 C   0  0  0  0  0  0
    3.8186   54.3804   17.7611 O   0  0  0  0  0  0
    3.4973   55.6026   17.2005 C   0  0  0  0  0  0
    2.3914   55.7658   16.3454 C   0  0  0  0  0  0
    2.1016   57.0010   15.7727 C   0  0  0  0  0  0
    2.9169   58.0943   16.0367 C   0  0  0  0  0  0
    4.0128   57.9528   16.8815 C   0  0  0  0  0  0
    4.3135   56.7227   17.4857 C   0  0  0  0  0  0
    5.4663   56.7259   18.4273 C   0  0  0  0  0  0
    5.8914   55.7403   19.2521 C   0  0  0  0  0  0
    7.0225   55.9048   20.1552 C   0  0  0  0  0  0
    7.9903   56.4966   19.6817 O   0  0  0  0  0  0
    7.1043   55.4883   21.4179 N   0  5  0  0  0  0
    6.1724   54.8966   22.0626 C   0  0  0  0  0  0
    5.0208   54.4660   21.6812 N   0  0  0  0  0  0
    4.3892   53.9190   22.7661 N   0  0  0  0  0  0
    2.9368   53.6582   22.7515 C   0  0  2  0  0  0
    2.4686   54.5520   22.3359 H   0  0  0  0  0  0
    2.4149   53.5218   24.1961 C   0  0  0  0  0  0
    3.2348   53.7336   25.2711 C   0  0  0  0  0  0
    4.5598   54.0968   25.1447 N   0  0  0  0  0  0
    5.0501   54.1802   23.9633 C   0  0  0  0  0  0
    6.2936   54.6158   23.4656 N   0  0  0  0  0  0
    2.7408   53.5389   26.6714 C   0  0  0  0  0  0
    1.6657   52.6717   26.9331 C   0  0  0  0  0  0
    1.1962   52.4763   28.2267 C   0  0  0  0  0  0
    1.7899   53.1556   29.2829 C   0  0  0  0  0  0
    2.8497   54.0308   29.0527 C   0  0  0  0  0  0
    3.3203   54.2188   27.7547 C   0  0  0  0  0  0
    1.2008   52.8966   30.8817 Cl  0  0  0  0  0  0
    2.4400   52.5185   21.8415 C   0  0  0  0  0  0
    1.0621   52.2888   21.7361 C   0  0  0  0  0  0
    0.5715   51.2707   20.9237 C   0  0  0  0  0  0
    1.4573   50.4795   20.2003 C   0  0  0  0  0  0
    2.8279   50.7018   20.2818 C   0  0  0  0  0  0
    3.3207   51.7149   21.1016 C   0  0  0  0  0  0
    0.9799   49.4903   19.4121 F   0  0  0  0  0  0
    3.4711   52.3692   17.9982 H   0  0  0  0  0  0
    2.0111   53.3510   17.8987 H   0  0  0  0  0  0
    2.9713   53.0018   16.4383 H   0  0  0  0  0  0
    1.7396   54.9391   16.1103 H   0  0  0  0  0  0
    1.2468   57.1096   15.1219 H   0  0  0  0  0  0
    2.6976   59.0581   15.5996 H   0  0  0  0  0  0
    4.6155   58.8297   17.0799 H   0  0  0  0  0  0
    6.0199   57.6564   18.4508 H   0  0  0  0  0  0
    5.4180   54.7770   19.2940 H   0  0  0  0  0  0
    1.3738   53.2894   24.3508 H   0  0  0  0  0  0
    7.0732   54.9033   24.0312 H   0  0  0  0  0  0
    1.1976   52.1096   26.1392 H   0  0  0  0  0  0
    0.3786   51.7929   28.4082 H   0  0  0  0  0  0
    3.3123   54.5629   29.8698 H   0  0  0  0  0  0
    4.1447   54.8973   27.5899 H   0  0  0  0  0  0
    0.3634   52.8970   22.2889 H   0  0  0  0  0  0
   -0.4907   51.0934   20.8511 H   0  0  0  0  0  0
    3.5044   50.0970   19.6960 H   0  0  0  0  0  0
    4.3881   51.8748   21.1435 H   0  0  0  0  0  0
  1  2  1  0  0  0
  1 38  1  0  0  0
  1 39  1  0  0  0
  1 40  1  0  0  0
  2  3  1  0  0  0
  3  8  2  0  0  0
  3  4  1  0  0  0
  4  5  2  0  0  0
  4 41  1  0  0  0
  5  6  1  0  0  0
  5 42  1  0  0  0
  6  7  2  0  0  0
  6 43  1  0  0  0
  7  8  1  0  0  0
  7 44  1  0  0  0
  8  9  1  0  0  0
  9 10  2  0  0  0
  9 45  1  0  0  0
 10 11  1  0  0  0
 10 46  1  0  0  0
 11 12  2  0  0  0
 11 13  1  0  0  0
 13 14  1  0  0  0
 14 23  1  0  0  0
 14 15  2  0  0  0
 15 16  1  0  0  0
 16 22  1  0  0  0
 16 17  1  0  0  0
 17 18  1  0  0  0
 17 19  1  0  0  0
 17 31  1  0  0  0
 19 20  2  0  0  0
 19 47  1  0  0  0
 20 21  1  0  0  0
 20 24  1  0  0  0
 21 22  2  0  0  0
 22 23  1  0  0  0
 23 48  1  0  0  0
 24 29  2  0  0  0
 24 25  1  0  0  0
 25 26  2  0  0  0
 25 49  1  0  0  0
 26 27  1  0  0  0
 26 50  1  0  0  0
 27 28  2  0  0  0
 27 30  1  0  0  0
 28 29  1  0  0  0
 28 51  1  0  0  0
 29 52  1  0  0  0
 31 36  2  0  0  0
 31 32  1  0  0  0
 32 33  2  0  0  0
 32 53  1  0  0  0
 33 34  1  0  0  0
 33 54  1  0  0  0
 34 35  2  0  0  0
 34 37  1  0  0  0
 35 36  1  0  0  0
 35 55  1  0  0  0
 36 56  1  0  0  0
M  CHG  1  13  -1
M  END
> <i_i_glide_confnum>
14

> <i_i_glide_lignum>
5974

> <i_i_glide_posenum>
39

> <i_i_glide_rotatable_bonds>
7

> <i_m_Source_File_Index>
5513

> <b_m_subgroup_collapsed>
0

> <r_i_docking_score>
-5.0801

> <r_i_glide_ecoul>
0.650141

> <r_i_glide_eff_state_penalty>
0

> <r_i_glide_einternal>
13.5501

> <r_i_glide_emodel>
-54.8425

> <r_i_glide_energy>
-46.2365

> <r_i_glide_erotb>
0.488331

> <r_i_glide_esite>
-0.0210071

> <r_i_glide_evdw>
-46.8867

> <r_i_glide_gscore>
-5.0801

> <r_i_glide_hbond>
-0.068911

> <r_i_glide_ligand_efficiency>
-0.141114

> <r_i_glide_ligand_efficiency_ln>
-1.10834

> <r_i_glide_ligand_efficiency_sa>
-0.465948

> <r_i_glide_lipo>
-2.30471

> <r_i_glide_metal>
0

> <r_i_glide_rewards>
-0.926991

> <s_i_glide_gridfile>
wee1_glide-grid

> <s_m_Source_File>
wee1_decoys_glide_SP.sdf

> <s_m_Source_Path>
/Users/zhangxujun/Desktop

> <s_m_entry_id>
5788

> <s_m_entry_name>
wee1_decoys_glide_SP.5513

> <s_m_subgroup_title>
wee1_decoys_glide_SP

> <s_m_subgroupid>
wee1_decoys_glide_SP


$$$$
