ZINC39965417_5609
                    3D
 Schrodinger Suite 2024-2.
 65 69  0  0  1  0            999 V2000
    5.7491   53.9588   14.0043 C   0  0  0  0  0  0
    4.2335   53.9756   13.7312 C   0  0  0  0  0  0
    3.3219   54.8393   14.6681 C   0  0  0  0  0  0
    3.6776   56.3402   14.4893 C   0  0  0  0  0  0
    1.8674   54.6782   14.1443 C   0  0  0  0  0  0
    3.3561   54.4231   16.1963 C   0  0  1  0  0  0
    2.4244   54.8007   16.6240 H   0  0  0  0  0  0
    3.3228   52.8848   16.4147 C   0  0  0  0  0  0
    2.9749   52.5028   17.8673 C   0  0  0  0  0  0
    3.8626   53.2945   18.8299 C   0  0  0  0  0  0
    4.5572   54.4398   18.4182 C   0  0  0  0  0  0
    5.5480   55.0872   19.6777 S   0  0  0  0  0  0
    5.0249   53.8429   20.7859 C   0  0  0  0  0  0
    4.1358   52.9523   20.1713 C   0  0  0  0  0  0
    3.5498   51.8021   20.8519 C   0  0  0  0  0  0
    3.0880   50.8948   21.3997 N   0  0  0  0  0  0
    5.4932   53.7340   22.0954 N   0  0  0  0  0  0
    6.3050   54.5688   22.7745 C   0  0  0  0  0  0
    6.7091   55.6537   22.3598 O   0  0  0  0  0  0
    6.7451   54.0680   24.1507 C   0  0  0  0  0  0
    6.7043   55.3204   25.4617 S   0  0  0  0  0  0
    5.8182   54.3942   26.6688 C   0  0  0  0  0  0
    6.3735   53.8878   27.7375 N   0  0  0  0  0  0
    5.3644   53.2943   28.4820 N   0  0  0  0  0  0
    4.2339   53.4505   27.8363 C   0  0  0  0  0  0
    4.4589   54.1562   26.6664 N   0  0  0  0  0  0
    3.5058   54.6316   25.6743 C   0  0  0  0  0  0
    2.9082   52.9858   28.3662 C   0  0  0  0  0  0
    2.6533   53.0606   29.7533 C   0  0  0  0  0  0
    1.3918   52.7431   30.2807 C   0  0  0  0  0  0
    0.4097   52.3352   29.3868 C   0  0  0  0  0  0
    0.6605   52.2051   28.0527 C   0  0  0  0  0  0
    1.9032   52.4994   27.5096 C   0  0  0  0  0  0
   -0.4700   51.8232   27.4069 O   0  0  0  0  0  0
   -1.4168   51.5705   28.4111 C   0  0  0  0  0  0
   -0.8952   52.0468   29.6268 O   0  0  0  0  0  0
    4.5321   55.0365   17.0160 C   0  0  0  0  0  0
    6.2738   53.4454   13.1988 H   0  0  0  0  0  0
    5.9938   53.4223   14.9195 H   0  0  0  0  0  0
    6.1695   54.9631   14.0681 H   0  0  0  0  0  0
    4.0990   54.3190   12.7044 H   0  0  0  0  0  0
    3.8785   52.9436   13.7157 H   0  0  0  0  0  0
    3.0309   56.9787   15.0950 H   0  0  0  0  0  0
    4.7046   56.5637   14.7724 H   0  0  0  0  0  0
    3.5684   56.6598   13.4515 H   0  0  0  0  0  0
    1.1603   55.2857   14.7126 H   0  0  0  0  0  0
    1.7784   54.9858   13.1004 H   0  0  0  0  0  0
    1.5214   53.6456   14.1952 H   0  0  0  0  0  0
    2.5505   52.4380   15.7894 H   0  0  0  0  0  0
    4.2442   52.4084   16.0770 H   0  0  0  0  0  0
    1.9261   52.7150   18.0753 H   0  0  0  0  0  0
    3.1041   51.4261   17.9982 H   0  0  0  0  0  0
    5.1668   52.9178   22.5902 H   0  0  0  0  0  0
    6.1032   53.2477   24.4491 H   0  0  0  0  0  0
    7.7590   53.6771   24.0637 H   0  0  0  0  0  0
    2.4828   54.4959   26.0108 H   0  0  0  0  0  0
    3.6664   55.6965   25.5165 H   0  0  0  0  0  0
    3.6446   54.0831   24.7418 H   0  0  0  0  0  0
    3.4326   53.3976   30.4209 H   0  0  0  0  0  0
    1.1875   52.8313   31.3378 H   0  0  0  0  0  0
    2.0711   52.3886   26.4494 H   0  0  0  0  0  0
   -1.5817   50.4968   28.4878 H   0  0  0  0  0  0
   -2.3527   52.0688   28.1614 H   0  0  0  0  0  0
    5.4865   54.8418   16.5339 H   0  0  0  0  0  0
    4.4199   56.1170   17.0865 H   0  0  0  0  0  0
  1  2  1  0  0  0
  1 38  1  0  0  0
  1 39  1  0  0  0
  1 40  1  0  0  0
  2  3  1  0  0  0
  2 41  1  0  0  0
  2 42  1  0  0  0
  3  4  1  0  0  0
  3  5  1  0  0  0
  3  6  1  0  0  0
  4 43  1  0  0  0
  4 44  1  0  0  0
  4 45  1  0  0  0
  5 46  1  0  0  0
  5 47  1  0  0  0
  5 48  1  0  0  0
  6  7  1  0  0  0
  6 37  1  0  0  0
  6  8  1  0  0  0
  8  9  1  0  0  0
  8 49  1  0  0  0
  8 50  1  0  0  0
  9 10  1  0  0  0
  9 51  1  0  0  0
  9 52  1  0  0  0
 10 14  1  0  0  0
 10 11  2  0  0  0
 11 12  1  0  0  0
 11 37  1  0  0  0
 12 13  1  0  0  0
 13 14  2  0  0  0
 13 17  1  0  0  0
 14 15  1  0  0  0
 15 16  3  0  0  0
 17 18  1  0  0  0
 17 53  1  0  0  0
 18 19  2  0  0  0
 18 20  1  0  0  0
 20 21  1  0  0  0
 20 54  1  0  0  0
 20 55  1  0  0  0
 21 22  1  0  0  0
 22 26  1  0  0  0
 22 23  2  0  0  0
 23 24  1  0  0  0
 24 25  2  0  0  0
 25 26  1  0  0  0
 25 28  1  0  0  0
 26 27  1  0  0  0
 27 56  1  0  0  0
 27 57  1  0  0  0
 27 58  1  0  0  0
 28 33  2  0  0  0
 28 29  1  0  0  0
 29 30  2  0  0  0
 29 59  1  0  0  0
 30 31  1  0  0  0
 30 60  1  0  0  0
 31 36  1  0  0  0
 31 32  2  0  0  0
 32 33  1  0  0  0
 32 34  1  0  0  0
 33 61  1  0  0  0
 34 35  1  0  0  0
 35 36  1  0  0  0
 35 62  1  0  0  0
 35 63  1  0  0  0
 37 64  1  0  0  0
 37 65  1  0  0  0
M  END
> <i_i_glide_confnum>
116

> <i_i_glide_lignum>
5610

> <i_i_glide_posenum>
325

> <i_i_glide_rotatable_bonds>
9

> <i_m_Source_File_Index>
3298

> <b_m_subgroup_collapsed>
0

> <r_i_docking_score>
-5.47504

> <r_i_glide_ecoul>
-1.51893

> <r_i_glide_eff_state_penalty>
0

> <r_i_glide_einternal>
2.49964

> <r_i_glide_emodel>
-69.3048

> <r_i_glide_energy>
-52.8236

> <r_i_glide_erotb>
0.525108

> <r_i_glide_esite>
-0.108459

> <r_i_glide_evdw>
-51.3047

> <r_i_glide_gscore>
-5.47504

> <r_i_glide_hbond>
0

> <r_i_glide_ligand_efficiency>
-0.152084

> <r_i_glide_ligand_efficiency_ln>
-1.19451

> <r_i_glide_ligand_efficiency_sa>
-0.502172

> <r_i_glide_lipo>
-1.61462

> <r_i_glide_metal>
0

> <r_i_glide_rewards>
-1.484

> <s_i_glide_gridfile>
wee1_glide-grid

> <s_m_Source_File>
wee1_decoys_glide_SP.sdf

> <s_m_Source_Path>
/Users/zhangxujun/Desktop

> <s_m_entry_id>
3573

> <s_m_entry_name>
wee1_decoys_glide_SP.3298

> <s_m_subgroup_title>
wee1_decoys_glide_SP

> <s_m_subgroupid>
wee1_decoys_glide_SP


$$$$
