ZINC27685238_1533
                    3D
 Schrodinger Suite 2024-2.
 47 50  0  0  1  0            999 V2000
    5.7995   54.3334   15.9502 C   0  0  0  0  0  0
    4.7235   53.4830   16.1888 C   0  0  0  0  0  0
    4.2405   53.2952   17.4821 C   0  0  0  0  0  0
    4.8463   53.9640   18.5718 C   0  0  0  0  0  0
    5.9525   54.8329   18.3273 C   0  0  0  0  0  0
    6.4171   55.0090   17.0008 C   0  0  0  0  0  0
    6.5428   55.4844   19.4358 C   0  0  0  0  0  0
    6.0358   55.2564   20.7124 C   0  0  0  0  0  0
    4.9486   54.3846   20.8758 C   0  0  0  0  0  0
    4.3597   53.7533   19.8260 N   0  0  0  0  0  0
    4.3652   54.0969   22.2379 C   0  0  0  0  0  0
    3.1587   53.8774   22.3905 O   0  0  0  0  0  0
    5.2649   54.0899   23.2395 N   0  0  0  0  0  0
    4.7878   53.9555   24.5346 N   0  0  0  0  0  0
    5.5378   54.4919   25.5153 C   0  0  0  0  0  0
    6.6045   55.0884   25.3074 O   0  0  0  0  0  0
    5.0274   54.3195   26.9311 C   0  0  0  0  0  0
    5.7664   54.8965   27.9657 C   0  0  0  0  0  0
    5.3309   54.8394   29.2814 C   0  0  0  0  0  0
    4.1968   54.1177   29.6035 C   0  0  0  0  0  0
    3.4604   53.4809   28.6138 C   0  0  0  0  0  0
    3.8557   53.6053   27.2687 C   0  0  0  0  0  0
    2.2971   52.8268   29.0433 N   0  0  0  0  0  0
    1.9148   51.5303   28.5092 C   0  0  0  0  0  0
    0.6342   51.6592   27.6703 C   0  0  0  0  0  0
    0.2177   53.1305   27.6815 C   0  0  0  0  0  0
    0.8388   53.7708   29.3197 S   0  0  0  0  0  0
   -0.0248   53.1877   30.3500 O   0  0  0  0  0  0
    1.1063   55.2121   29.2565 O   0  0  0  0  0  0
    6.1614   54.4660   14.9411 H   0  0  0  0  0  0
    4.2620   52.9569   15.3656 H   0  0  0  0  0  0
    3.4166   52.6197   17.6634 H   0  0  0  0  0  0
    7.2540   55.6650   16.8101 H   0  0  0  0  0  0
    7.3819   56.1473   19.2822 H   0  0  0  0  0  0
    6.4900   55.7591   21.5542 H   0  0  0  0  0  0
    6.0969   54.6627   23.2145 H   0  0  0  0  0  0
    3.7789   53.9129   24.5698 H   0  0  0  0  0  0
    6.6770   55.4386   27.7533 H   0  0  0  0  0  0
    5.9041   55.3074   30.0693 H   0  0  0  0  0  0
    3.9045   54.0385   30.6358 H   0  0  0  0  0  0
    3.2546   53.1351   26.5042 H   0  0  0  0  0  0
    1.8246   50.7678   29.2792 H   0  0  0  0  0  0
    2.6861   51.1510   27.8473 H   0  0  0  0  0  0
    0.7782   51.2963   26.6517 H   0  0  0  0  0  0
   -0.1490   51.0356   28.1070 H   0  0  0  0  0  0
    0.7052   53.6968   26.8902 H   0  0  0  0  0  0
   -0.8599   53.2762   27.6241 H   0  0  0  0  0  0
  1  6  2  0  0  0
  1  2  1  0  0  0
  1 30  1  0  0  0
  2  3  2  0  0  0
  2 31  1  0  0  0
  3  4  1  0  0  0
  3 32  1  0  0  0
  4 10  2  0  0  0
  4  5  1  0  0  0
  5  6  1  0  0  0
  5  7  2  0  0  0
  6 33  1  0  0  0
  7  8  1  0  0  0
  7 34  1  0  0  0
  8  9  2  0  0  0
  8 35  1  0  0  0
  9 10  1  0  0  0
  9 11  1  0  0  0
 11 12  2  0  0  0
 11 13  1  0  0  0
 13 14  1  0  0  0
 13 36  1  0  0  0
 14 15  1  0  0  0
 14 37  1  0  0  0
 15 16  2  0  0  0
 15 17  1  0  0  0
 17 22  2  0  0  0
 17 18  1  0  0  0
 18 19  2  0  0  0
 18 38  1  0  0  0
 19 20  1  0  0  0
 19 39  1  0  0  0
 20 21  2  0  0  0
 20 40  1  0  0  0
 21 22  1  0  0  0
 21 23  1  0  0  0
 22 41  1  0  0  0
 23 27  1  0  0  0
 23 24  1  0  0  0
 24 25  1  0  0  0
 24 42  1  0  0  0
 24 43  1  0  0  0
 25 26  1  0  0  0
 25 44  1  0  0  0
 25 45  1  0  0  0
 26 27  1  0  0  0
 26 46  1  0  0  0
 26 47  1  0  0  0
 27 28  2  0  0  0
 27 29  2  0  0  0
M  END
> <i_i_glide_confnum>
92

> <i_i_glide_lignum>
1534

> <i_i_glide_posenum>
322

> <i_i_glide_rotatable_bonds>
6

> <i_m_Source_File_Index>
2304

> <b_m_subgroup_collapsed>
0

> <r_i_docking_score>
-4.60505

> <r_i_glide_ecoul>
0.565395

> <r_i_glide_eff_state_penalty>
0

> <r_i_glide_einternal>
11.471

> <r_i_glide_emodel>
-47.6373

> <r_i_glide_energy>
-38.8385

> <r_i_glide_erotb>
0.584693

> <r_i_glide_esite>
-0.0149782

> <r_i_glide_evdw>
-39.4039

> <r_i_glide_gscore>
-4.60505

> <r_i_glide_hbond>
-0.105584

> <r_i_glide_ligand_efficiency>
-0.158795

> <r_i_glide_ligand_efficiency_ln>
-1.05444

> <r_i_glide_ligand_efficiency_sa>
-0.487868

> <r_i_glide_lipo>
-1.44468

> <r_i_glide_metal>
0

> <r_i_glide_rewards>
-1.73912

> <s_i_glide_gridfile>
wee1_glide-grid

> <s_m_Source_File>
wee1_decoys_glide_SP.sdf

> <s_m_Source_Path>
/Users/zhangxujun/Desktop

> <s_m_entry_id>
2579

> <s_m_entry_name>
wee1_decoys_glide_SP.2304

> <s_m_subgroup_title>
wee1_decoys_glide_SP

> <s_m_subgroupid>
wee1_decoys_glide_SP


$$$$
