ZINC36038924_5446
                    3D
 Schrodinger Suite 2024-2.
 68 72  0  0  1  0            999 V2000
    7.0338   57.6993   18.9192 C   0  0  0  0  0  0
    6.4943   56.5018   19.6790 C   0  0  0  0  0  0
    5.6546   55.5735   19.0642 C   0  0  0  0  0  0
    5.1701   54.5055   19.8411 C   0  0  0  0  0  0
    5.4791   54.4330   21.1705 N   0  0  0  0  0  0
    6.3175   55.3715   21.6814 C   0  0  0  0  0  0
    6.8492   56.4085   20.9844 N   0  0  0  0  0  0
    6.7043   55.2958   23.4115 S   0  0  0  0  0  0
    5.3892   54.3064   24.1943 C   0  0  0  0  0  0
    5.4599   54.2718   25.7073 C   0  0  0  0  0  0
    6.4790   54.0697   26.6197 C   0  0  0  0  0  0
    5.9238   54.0987   27.8963 C   0  0  0  0  0  0
    4.5701   54.3376   27.7257 C   0  0  0  0  0  0
    4.2960   54.4451   26.3897 O   0  0  0  0  0  0
    3.5164   54.4696   28.6958 C   0  0  0  0  0  0
    3.7070   54.2475   29.8932 O   0  0  0  0  0  0
    2.3472   54.8752   28.1735 N   0  0  0  0  0  0
    1.1062   55.1740   28.8862 C   0  0  0  0  0  0
    0.4607   53.9334   29.5343 C   0  0  0  0  0  0
    1.2424   56.3576   29.8711 C   0  0  0  0  0  0
    4.3100   53.5339   19.3141 N   0  0  0  0  0  0
    3.8247   52.3942   20.1250 C   0  0  0  0  0  0
    2.5323   51.7196   19.6190 C   0  0  0  0  0  0
    2.7043   51.3002   18.1489 N   0  3  0  0  0  0
    3.0656   52.5409   17.3126 C   0  0  0  0  0  0
    4.3334   53.2106   17.8713 C   0  0  0  0  0  0
    1.4379   50.6364   17.5580 C   0  0  0  0  0  0
    1.0024   49.3380   18.2192 C   0  0  0  0  0  0
    1.5044   48.1097   17.7459 C   0  0  0  0  0  0
    1.0553   46.8941   18.2766 C   0  0  0  0  0  0
    0.0963   46.9484   19.2810 C   0  0  0  0  0  0
   -0.3860   48.1354   19.7537 C   0  0  0  0  0  0
    0.0414   49.3559   19.2447 C   0  0  0  0  0  0
   -1.2849   47.8981   20.7434 O   0  0  0  0  0  0
   -1.4498   46.5060   20.7956 C   0  0  0  0  0  0
   -0.4969   45.9240   19.9454 O   0  0  0  0  0  0
    6.6761   57.7162   17.8889 H   0  0  0  0  0  0
    6.7089   58.6297   19.3889 H   0  0  0  0  0  0
    8.1239   57.6786   18.8910 H   0  0  0  0  0  0
    5.3912   55.7105   18.0294 H   0  0  0  0  0  0
    5.4856   53.2956   23.8022 H   0  0  0  0  0  0
    4.4172   54.6664   23.8547 H   0  0  0  0  0  0
    7.5044   53.8846   26.3758 H   0  0  0  0  0  0
    6.4431   53.9681   28.8355 H   0  0  0  0  0  0
    2.3085   54.9407   27.1676 H   0  0  0  0  0  0
    0.4370   55.4888   28.0822 H   0  0  0  0  0  0
   -0.4480   54.2067   30.0713 H   0  0  0  0  0  0
    1.1194   53.4643   30.2655 H   0  0  0  0  0  0
    0.1765   53.1923   28.7866 H   0  0  0  0  0  0
    0.3114   56.5351   30.4077 H   0  0  0  0  0  0
    1.9880   56.1606   30.6401 H   0  0  0  0  0  0
    1.5001   57.2863   29.3589 H   0  0  0  0  0  0
    4.6260   51.6539   20.0740 H   0  0  0  0  0  0
    3.6973   52.6706   21.1714 H   0  0  0  0  0  0
    1.6612   52.3738   19.6880 H   0  0  0  0  0  0
    2.3623   50.7935   20.1709 H   0  0  0  0  0  0
    2.2069   53.2127   17.2988 H   0  0  0  0  0  0
    3.2691   52.1626   16.3097 H   0  0  0  0  0  0
    4.5790   54.0568   17.2355 H   0  0  0  0  0  0
    5.1505   52.4969   17.7692 H   0  0  0  0  0  0
    0.6493   51.3902   17.6005 H   0  0  0  0  0  0
    1.6824   50.4583   16.5090 H   0  0  0  0  0  0
    2.2469   48.0971   16.9590 H   0  0  0  0  0  0
    1.4412   45.9565   17.9081 H   0  0  0  0  0  0
   -0.3618   50.2869   19.6176 H   0  0  0  0  0  0
   -2.4509   46.2546   20.4417 H   0  0  0  0  0  0
   -1.2956   46.1569   21.8161 H   0  0  0  0  0  0
    3.4855   50.6466   18.0806 H   0  0  0  0  0  0
  1  2  1  0  0  0
  1 37  1  0  0  0
  1 38  1  0  0  0
  1 39  1  0  0  0
  2  7  2  0  0  0
  2  3  1  0  0  0
  3  4  2  0  0  0
  3 40  1  0  0  0
  4  5  1  0  0  0
  4 21  1  0  0  0
  5  6  2  0  0  0
  6  7  1  0  0  0
  6  8  1  0  0  0
  8  9  1  0  0  0
  9 10  1  0  0  0
  9 41  1  0  0  0
  9 42  1  0  0  0
 10 14  1  0  0  0
 10 11  2  0  0  0
 11 12  1  0  0  0
 11 43  1  0  0  0
 12 13  2  0  0  0
 12 44  1  0  0  0
 13 14  1  0  0  0
 13 15  1  0  0  0
 15 16  2  0  0  0
 15 17  1  0  0  0
 17 18  1  0  0  0
 17 45  1  0  0  0
 18 19  1  0  0  0
 18 20  1  0  0  0
 18 46  1  0  0  0
 19 47  1  0  0  0
 19 48  1  0  0  0
 19 49  1  0  0  0
 20 50  1  0  0  0
 20 51  1  0  0  0
 20 52  1  0  0  0
 21 26  1  0  0  0
 21 22  1  0  0  0
 22 23  1  0  0  0
 22 53  1  0  0  0
 22 54  1  0  0  0
 23 24  1  0  0  0
 23 55  1  0  0  0
 23 56  1  0  0  0
 24 25  1  0  0  0
 24 27  1  0  0  0
 24 68  1  0  0  0
 25 26  1  0  0  0
 25 57  1  0  0  0
 25 58  1  0  0  0
 26 59  1  0  0  0
 26 60  1  0  0  0
 27 28  1  0  0  0
 27 61  1  0  0  0
 27 62  1  0  0  0
 28 33  2  0  0  0
 28 29  1  0  0  0
 29 30  2  0  0  0
 29 63  1  0  0  0
 30 31  1  0  0  0
 30 64  1  0  0  0
 31 36  1  0  0  0
 31 32  2  0  0  0
 32 33  1  0  0  0
 32 34  1  0  0  0
 33 65  1  0  0  0
 34 35  1  0  0  0
 35 36  1  0  0  0
 35 66  1  0  0  0
 35 67  1  0  0  0
M  CHG  1  24   1
M  END
> <i_i_glide_confnum>
129

> <i_i_glide_lignum>
5447

> <i_i_glide_posenum>
64

> <i_i_glide_rotatable_bonds>
9

> <i_m_Source_File_Index>
633

> <b_m_subgroup_collapsed>
0

> <r_i_docking_score>
-6.71444

> <r_i_glide_ecoul>
-5.23715

> <r_i_glide_eff_state_penalty>
0

> <r_i_glide_einternal>
5.84912

> <r_i_glide_emodel>
-75.2886

> <r_i_glide_energy>
-52.3364

> <r_i_glide_erotb>
0.628597

> <r_i_glide_esite>
-0.125754

> <r_i_glide_evdw>
-47.0992

> <r_i_glide_gscore>
-6.71444

> <r_i_glide_hbond>
-0.819786

> <r_i_glide_ligand_efficiency>
-0.186512

> <r_i_glide_ligand_efficiency_ln>
-1.46491

> <r_i_glide_ligand_efficiency_sa>
-0.615849

> <r_i_glide_lipo>
-2.49344

> <r_i_glide_metal>
0

> <r_i_glide_rewards>
-0.763521

> <s_i_glide_gridfile>
wee1_glide-grid

> <s_m_Source_File>
wee1_decoys_glide_SP.sdf

> <s_m_Source_Path>
/Users/zhangxujun/Desktop

> <s_m_entry_id>
908

> <s_m_entry_name>
wee1_decoys_glide_SP.633

> <s_m_subgroup_title>
wee1_decoys_glide_SP

> <s_m_subgroupid>
wee1_decoys_glide_SP


$$$$
