ZINC17287336_5528
                    3D
 Schrodinger Suite 2024-2.
 75 80  0  0  1  0            999 V2000
    6.7202   54.7634   27.2819 C   0  0  0  0  0  0
    6.7102   55.2732   25.9537 O   0  0  0  0  0  0
    5.7438   54.7918   25.1019 C   0  0  0  0  0  0
    4.4467   54.4776   25.5277 C   0  0  0  0  0  0
    3.4993   53.9481   24.6520 C   0  0  0  0  0  0
    3.8619   53.7206   23.3157 C   0  0  0  0  0  0
    5.1708   54.0972   22.8922 C   0  0  0  0  0  0
    6.1190   54.6346   23.7681 C   0  0  0  0  0  0
    5.2396   53.8267   21.5448 N   0  0  0  0  0  0
    6.0207   53.9942   20.9283 H   0  0  0  0  0  0
    4.0783   53.2383   21.1131 C   0  0  0  0  0  0
    3.1998   53.1413   22.1810 C   0  0  0  0  0  0
    1.8113   52.5440   22.0346 C   0  0  0  0  0  0
    1.7541   51.6752   20.7543 C   0  0  0  0  0  0
    3.8293   52.7522   19.6895 C   0  0  2  0  0  0
    4.3039   51.7807   19.5335 H   0  0  0  0  0  0
    4.2286   53.7511   18.5828 C   0  0  0  0  0  0
    3.8727   53.2471   17.1564 C   0  0  1  0  0  0
    4.4416   52.3226   17.0201 H   0  0  0  0  0  0
    2.3820   52.8263   17.0602 C   0  0  1  0  0  0
    2.2685   52.2852   16.1183 H   0  0  0  0  0  0
    1.9926   51.8451   18.1914 C   0  0  0  0  0  0
    1.4653   54.0682   16.9949 C   0  0  0  0  0  0
    1.8025   54.9723   15.7876 C   0  0  2  0  0  0
    1.6692   54.4079   14.8620 H   0  0  0  0  0  0
    3.2895   55.4267   15.8373 C   0  0  1  0  0  0
    3.4316   56.0871   16.6973 H   0  0  0  0  0  0
    4.2410   54.1957   15.9705 C   0  0  1  0  0  0
    4.1193   53.6170   15.0540 H   0  0  0  0  0  0
    5.7347   54.5847   15.9923 C   0  0  0  0  0  0
    6.5679   53.9051   15.3913 O   0  0  0  0  0  0
    5.9998   55.7014   16.7102 O   0  0  0  0  0  0
    7.3278   56.1942   16.8080 C   0  0  0  0  0  0
    3.6420   56.1181   14.6356 O   0  0  0  0  0  0
    3.5246   57.5359   14.6729 C   0  0  0  0  0  0
    0.9174   56.0962   15.7521 O   0  0  0  0  0  0
   -0.3645   55.9919   15.2996 C   0  0  0  0  0  0
   -0.8650   54.9294   14.9214 O   0  0  0  0  0  0
   -1.1176   57.2890   15.3269 C   0  0  0  0  0  0
   -0.4986   58.4976   15.6818 C   0  0  0  0  0  0
   -1.2216   59.6868   15.6815 C   0  0  0  0  0  0
   -2.5684   59.6803   15.3329 C   0  0  0  0  0  0
   -3.1987   58.4904   14.9818 C   0  0  0  0  0  0
   -2.4757   57.3000   14.9757 C   0  0  0  0  0  0
   -3.2915   60.8704   15.3428 N   0  0  0  0  0  0
    7.7223   54.8964   27.6830 H   0  0  0  0  0  0
    6.0176   55.2974   27.9224 H   0  0  0  0  0  0
    6.5002   53.6943   27.3243 H   0  0  0  0  0  0
    4.1659   54.6327   26.5587 H   0  0  0  0  0  0
    2.5128   53.6876   25.0061 H   0  0  0  0  0  0
    7.1156   54.9002   23.4455 H   0  0  0  0  0  0
    1.0861   53.3550   21.9738 H   0  0  0  0  0  0
    1.5444   51.9421   22.9041 H   0  0  0  0  0  0
    0.7194   51.4179   20.5219 H   0  0  0  0  0  0
    2.3570   50.7659   20.8144 H   0  0  0  0  0  0
    5.2974   53.9537   18.6483 H   0  0  0  0  0  0
    3.7516   54.7150   18.7666 H   0  0  0  0  0  0
    0.9179   51.6576   18.1772 H   0  0  0  0  0  0
    2.5338   50.8959   18.1410 H   0  0  0  0  0  0
    1.5520   54.6242   17.9256 H   0  0  0  0  0  0
    0.4325   53.7235   16.9355 H   0  0  0  0  0  0
    7.3427   57.1028   17.4097 H   0  0  0  0  0  0
    7.9850   55.4619   17.2797 H   0  0  0  0  0  0
    7.7299   56.4343   15.8224 H   0  0  0  0  0  0
    3.8524   57.9493   13.7190 H   0  0  0  0  0  0
    2.4993   57.8629   14.8357 H   0  0  0  0  0  0
    4.1568   57.9652   15.4518 H   0  0  0  0  0  0
    0.5427   58.5385   15.9709 H   0  0  0  0  0  0
   -0.7262   60.6048   15.9624 H   0  0  0  0  0  0
   -4.2442   58.4804   14.7109 H   0  0  0  0  0  0
   -2.9852   56.3886   14.6928 H   0  0  0  0  0  0
   -4.1893   60.8719   14.8814 H   0  0  0  0  0  0
   -2.7611   61.7283   15.3871 H   0  0  0  0  0  0
    2.3023   52.4962   19.5621 N   0  3  1  0  0  0
    1.8237   53.3913   19.5861 H   0  0  0  0  0  0
  1  2  1  0  0  0
  1 46  1  0  0  0
  1 47  1  0  0  0
  1 48  1  0  0  0
  2  3  1  0  0  0
  3  8  2  0  0  0
  3  4  1  0  0  0
  4  5  2  0  0  0
  4 49  1  0  0  0
  5  6  1  0  0  0
  5 50  1  0  0  0
  6 12  1  0  0  0
  6  7  2  0  0  0
  7  8  1  0  0  0
  7  9  1  0  0  0
  8 51  1  0  0  0
  9 10  1  0  0  0
  9 11  1  0  0  0
 11 15  1  0  0  0
 11 12  2  0  0  0
 12 13  1  0  0  0
 13 14  1  0  0  0
 13 52  1  0  0  0
 13 53  1  0  0  0
 14 54  1  0  0  0
 14 55  1  0  0  0
 14 74  1  0  0  0
 15 16  1  0  0  0
 15 17  1  0  0  0
 15 74  1  0  0  0
 17 18  1  0  0  0
 17 56  1  0  0  0
 17 57  1  0  0  0
 18 19  1  0  0  0
 18 28  1  0  0  0
 18 20  1  0  0  0
 20 21  1  0  0  0
 20 22  1  0  0  0
 20 23  1  0  0  0
 22 58  1  0  0  0
 22 59  1  0  0  0
 22 74  1  0  0  0
 23 24  1  0  0  0
 23 60  1  0  0  0
 23 61  1  0  0  0
 24 25  1  0  0  0
 24 26  1  0  0  0
 24 36  1  0  0  0
 26 27  1  0  0  0
 26 28  1  0  0  0
 26 34  1  0  0  0
 28 29  1  0  0  0
 28 30  1  0  0  0
 30 31  2  0  0  0
 30 32  1  0  0  0
 32 33  1  0  0  0
 33 62  1  0  0  0
 33 63  1  0  0  0
 33 64  1  0  0  0
 34 35  1  0  0  0
 35 65  1  0  0  0
 35 66  1  0  0  0
 35 67  1  0  0  0
 36 37  1  0  0  0
 37 38  2  0  0  0
 37 39  1  0  0  0
 39 44  2  0  0  0
 39 40  1  0  0  0
 40 41  2  0  0  0
 40 68  1  0  0  0
 41 42  1  0  0  0
 41 69  1  0  0  0
 42 43  2  0  0  0
 42 45  1  0  0  0
 43 44  1  0  0  0
 43 70  1  0  0  0
 44 71  1  0  0  0
 45 72  1  0  0  0
 45 73  1  0  0  0
 74 75  1  0  0  0
M  CHG  1  74   1
M  END
> <i_i_glide_confnum>
2

> <i_i_glide_lignum>
5529

> <i_i_glide_posenum>
94

> <i_i_glide_rotatable_bonds>
7

> <i_m_Source_File_Index>
3629

> <b_m_subgroup_collapsed>
0

> <r_i_docking_score>
-4.29848

> <r_i_glide_ecoul>
-4.99543

> <r_i_glide_eff_state_penalty>
0

> <r_i_glide_einternal>
4.40112

> <r_i_glide_emodel>
-48.5474

> <r_i_glide_energy>
-39.108

> <r_i_glide_erotb>
0.288843

> <r_i_glide_esite>
-0.0389853

> <r_i_glide_evdw>
-34.1126

> <r_i_glide_gscore>
-4.29848

> <r_i_glide_hbond>
-0.32

> <r_i_glide_ligand_efficiency>
-0.110217

> <r_i_glide_ligand_efficiency_ln>
-0.921716

> <r_i_glide_ligand_efficiency_sa>
-0.37377

> <r_i_glide_lipo>
-2.01925

> <r_i_glide_metal>
0

> <r_i_glide_rewards>
0.245857

> <s_i_glide_gridfile>
wee1_glide-grid

> <s_m_Source_File>
wee1_decoys_glide_SP.sdf

> <s_m_Source_Path>
/Users/zhangxujun/Desktop

> <s_m_entry_id>
3904

> <s_m_entry_name>
wee1_decoys_glide_SP.3629

> <s_m_subgroup_title>
wee1_decoys_glide_SP

> <s_m_subgroupid>
wee1_decoys_glide_SP


$$$$
