ZINC59984777_2330
                    3D
 Schrodinger Suite 2024-2.
 61 64  0  0  1  0            999 V2000
    2.2605   49.6968   21.7481 C   0  0  0  0  0  0
    0.9936   49.5392   22.3110 C   0  0  0  0  0  0
   -0.1183   50.1903   21.7564 C   0  0  0  0  0  0
    0.0694   51.0192   20.6473 C   0  0  0  0  0  0
    1.3353   51.1792   20.0854 C   0  0  0  0  0  0
    2.4309   50.5150   20.6308 C   0  0  0  0  0  0
    1.4954   51.9764   19.0062 F   0  0  0  0  0  0
   -1.4266   50.0640   22.2514 N   0  0  0  0  0  0
   -1.9070   49.1528   23.6929 S   0  0  0  0  0  0
   -1.2069   47.8617   23.6807 O   0  0  0  0  0  0
   -3.3733   49.2113   23.7220 O   0  0  0  0  0  0
   -1.3142   50.1314   25.0675 C   0  0  0  0  0  0
   -1.9754   51.3085   25.4237 C   0  0  0  0  0  0
   -1.4913   52.0914   26.4706 C   0  0  0  0  0  0
   -0.3483   51.7001   27.1739 C   0  0  0  0  0  0
    0.3054   50.5078   26.8030 C   0  0  0  0  0  0
   -0.1779   49.7266   25.7606 C   0  0  0  0  0  0
    0.0849   52.5723   28.2018 N   0  0  0  0  0  0
    1.0197   52.3413   29.1491 C   0  0  0  0  0  0
    1.6288   51.2966   29.2810 O   0  0  0  0  0  0
    1.4666   53.4680   30.0973 C   0  0  2  0  0  0
    1.8271   53.0190   31.0238 H   0  0  0  0  0  0
    0.3973   54.5216   30.4533 C   0  0  0  0  0  0
    1.1081   55.8625   30.3288 C   0  0  0  0  0  0
    2.1720   55.6045   29.2618 C   0  0  0  0  0  0
    2.5823   54.2216   29.4977 N   0  0  0  0  0  0
    3.7660   53.6358   29.1552 C   0  0  0  0  0  0
    4.1463   52.5927   29.6933 O   0  0  0  0  0  0
    4.6203   54.2568   28.0279 C   0  0  0  0  0  0
    6.0760   53.7187   28.0244 C   0  0  0  0  0  0
    6.8719   54.4680   26.9342 C   0  0  0  0  0  0
    6.2287   54.3281   25.5410 C   0  0  0  0  0  0
    4.7370   54.7187   25.5450 C   0  0  0  0  0  0
    3.9375   54.0060   26.6607 C   0  0  0  0  0  0
    3.1029   49.1787   22.1788 H   0  0  0  0  0  0
    0.9046   48.8942   23.1681 H   0  0  0  0  0  0
   -0.7667   51.5377   20.2026 H   0  0  0  0  0  0
    3.4064   50.6330   20.1804 H   0  0  0  0  0  0
   -2.1400   50.6428   21.8379 H   0  0  0  0  0  0
   -2.8615   51.6163   24.8885 H   0  0  0  0  0  0
   -2.0168   52.9985   26.7340 H   0  0  0  0  0  0
    1.2063   50.1664   27.2807 H   0  0  0  0  0  0
    0.3387   48.8111   25.5073 H   0  0  0  0  0  0
   -0.3757   53.4671   28.2286 H   0  0  0  0  0  0
    0.0009   54.3697   31.4597 H   0  0  0  0  0  0
   -0.4565   54.4878   29.7797 H   0  0  0  0  0  0
    1.5884   56.1002   31.2793 H   0  0  0  0  0  0
    0.4494   56.6942   30.0918 H   0  0  0  0  0  0
    2.9900   56.3179   29.3420 H   0  0  0  0  0  0
    1.7426   55.6850   28.2624 H   0  0  0  0  0  0
    4.6508   55.3036   28.2750 H   0  0  0  0  0  0
    6.1156   52.6575   27.7682 H   0  0  0  0  0  0
    6.5861   53.9213   28.9673 H   0  0  0  0  0  0
    7.9028   54.1039   26.9016 H   0  0  0  0  0  0
    6.9371   55.5251   27.1992 H   0  0  0  0  0  0
    6.3310   53.2968   25.2059 H   0  0  0  0  0  0
    6.7717   54.9368   24.8169 H   0  0  0  0  0  0
    4.2937   54.5047   24.5701 H   0  0  0  0  0  0
    4.6559   55.7955   25.6835 H   0  0  0  0  0  0
    2.9294   54.4232   26.6212 H   0  0  0  0  0  0
    3.9319   52.9421   26.4123 H   0  0  0  0  0  0
  1  6  2  0  0  0
  1  2  1  0  0  0
  1 35  1  0  0  0
  2  3  2  0  0  0
  2 36  1  0  0  0
  3  4  1  0  0  0
  3  8  1  0  0  0
  4  5  2  0  0  0
  4 37  1  0  0  0
  5  6  1  0  0  0
  5  7  1  0  0  0
  6 38  1  0  0  0
  8  9  1  0  0  0
  8 39  1  0  0  0
  9 10  2  0  0  0
  9 11  2  0  0  0
  9 12  1  0  0  0
 12 17  2  0  0  0
 12 13  1  0  0  0
 13 14  2  0  0  0
 13 40  1  0  0  0
 14 15  1  0  0  0
 14 41  1  0  0  0
 15 16  2  0  0  0
 15 18  1  0  0  0
 16 17  1  0  0  0
 16 42  1  0  0  0
 17 43  1  0  0  0
 18 19  1  0  0  0
 18 44  1  0  0  0
 19 20  2  0  0  0
 19 21  1  0  0  0
 21 22  1  0  0  0
 21 26  1  0  0  0
 21 23  1  0  0  0
 23 24  1  0  0  0
 23 45  1  0  0  0
 23 46  1  0  0  0
 24 25  1  0  0  0
 24 47  1  0  0  0
 24 48  1  0  0  0
 25 26  1  0  0  0
 25 49  1  0  0  0
 25 50  1  0  0  0
 26 27  1  0  0  0
 27 28  2  0  0  0
 27 29  1  0  0  0
 29 34  1  0  0  0
 29 30  1  0  0  0
 29 51  1  0  0  0
 30 31  1  0  0  0
 30 52  1  0  0  0
 30 53  1  0  0  0
 31 32  1  0  0  0
 31 54  1  0  0  0
 31 55  1  0  0  0
 32 33  1  0  0  0
 32 56  1  0  0  0
 32 57  1  0  0  0
 33 34  1  0  0  0
 33 58  1  0  0  0
 33 59  1  0  0  0
 34 60  1  0  0  0
 34 61  1  0  0  0
M  END
> <i_i_glide_confnum>
230

> <i_i_glide_lignum>
2331

> <i_i_glide_posenum>
385

> <i_i_glide_rotatable_bonds>
8

> <i_m_Source_File_Index>
2084

> <b_m_subgroup_collapsed>
0

> <r_i_docking_score>
-5.62747

> <r_i_glide_ecoul>
-1.88672

> <r_i_glide_eff_state_penalty>
0

> <r_i_glide_einternal>
15.8701

> <r_i_glide_emodel>
-61.8081

> <r_i_glide_energy>
-53.515

> <r_i_glide_erotb>
0.721606

> <r_i_glide_esite>
-0.0470582

> <r_i_glide_evdw>
-51.6283

> <r_i_glide_gscore>
-5.62747

> <r_i_glide_hbond>
-0.0564856

> <r_i_glide_ligand_efficiency>
-0.170529

> <r_i_glide_ligand_efficiency_ln>
-1.25152

> <r_i_glide_ligand_efficiency_sa>
-0.546979

> <r_i_glide_lipo>
-2.88442

> <r_i_glide_metal>
0

> <r_i_glide_rewards>
-0.496691

> <s_i_glide_gridfile>
wee1_glide-grid

> <s_m_Source_File>
wee1_decoys_glide_SP.sdf

> <s_m_Source_Path>
/Users/zhangxujun/Desktop

> <s_m_entry_id>
2359

> <s_m_entry_name>
wee1_decoys_glide_SP.2084

> <s_m_subgroup_title>
wee1_decoys_glide_SP

> <s_m_subgroupid>
wee1_decoys_glide_SP


$$$$
