ZINC39690270_399
                    3D
 Schrodinger Suite 2024-2.
 76 80  0  0  1  0            999 V2000
    0.1370   57.2608   16.2829 C   0  0  0  0  0  0
   -0.1899   55.7878   16.3371 C   0  0  0  0  0  0
   -0.2736   54.9513   17.4460 C   0  0  0  0  0  0
   -0.6206   53.6948   16.9805 C   0  0  0  0  0  0
   -0.6657   53.8315   15.5967 N   0  0  0  0  0  0
   -0.4404   55.1169   15.2382 N   0  0  0  0  0  0
   -0.9903   52.8262   14.5292 C   0  0  0  0  0  0
   -0.5328   53.3207   13.1246 C   0  0  0  0  0  0
   -2.5227   52.6247   14.4999 C   0  0  0  0  0  0
   -0.2598   51.4821   14.7878 C   0  0  0  0  0  0
   -0.8573   52.5075   17.7579 C   0  0  0  0  0  0
   -2.0079   52.0831   17.8791 O   0  0  0  0  0  0
    0.2241   51.9084   18.3188 N   0  0  0  0  0  0
    1.5872   52.4508   18.3698 C   0  0  0  0  0  0
    2.3675   51.4360   19.2455 C   0  0  2  0  0  0
    2.8725   50.7717   18.5390 H   0  0  0  0  0  0
    1.2760   50.7083   20.0868 C   0  0  0  0  0  0
    0.0938   50.6784   19.0957 C   0  0  0  0  0  0
    1.6352   49.2462   20.4735 C   0  0  0  0  0  0
    2.4652   49.1141   21.7537 C   0  0  0  0  0  0
    1.7056   49.7633   22.9144 N   0  3  0  0  0  0
    1.5383   51.2717   22.6730 C   0  0  0  0  0  0
    0.7821   51.5129   21.3468 C   0  0  0  0  0  0
    3.5171   52.1159   20.0435 C   0  0  0  0  0  0
    4.3691   51.4061   20.5742 O   0  0  0  0  0  0
    3.6170   53.4544   20.1090 N   0  0  0  0  0  0
    4.6873   54.1603   20.8254 C   0  0  0  0  0  0
    4.5600   54.1705   22.3503 C   0  0  0  0  0  0
    3.3071   54.2766   22.9576 C   0  0  0  0  0  0
    3.2012   54.3303   24.3433 C   0  0  0  0  0  0
    4.3481   54.2828   25.1518 C   0  0  0  0  0  0
    5.6031   54.1638   24.5342 C   0  0  0  0  0  0
    5.7060   54.0977   23.1465 C   0  0  0  0  0  0
    4.2372   54.3584   26.5723 N   0  0  0  0  0  0
    5.2591   54.4040   27.5084 C   0  0  0  0  0  0
    4.7411   54.4955   28.7939 C   0  0  0  0  0  0
    3.3559   54.4929   28.6709 C   0  0  0  0  0  0
    3.0718   54.4140   27.3179 C   0  0  0  0  0  0
    0.3428   57.6671   17.2736 H   0  0  0  0  0  0
    1.0182   57.4593   15.6690 H   0  0  0  0  0  0
   -0.6850   57.8425   15.8659 H   0  0  0  0  0  0
   -0.1058   55.2295   18.4783 H   0  0  0  0  0  0
   -0.7486   52.5844   12.3466 H   0  0  0  0  0  0
    0.5424   53.5142   13.0952 H   0  0  0  0  0  0
   -1.0391   54.2416   12.8284 H   0  0  0  0  0  0
   -2.8960   52.1990   15.4326 H   0  0  0  0  0  0
   -3.0473   53.5708   14.3441 H   0  0  0  0  0  0
   -2.8240   51.9507   13.6950 H   0  0  0  0  0  0
   -0.6766   50.9230   15.6247 H   0  0  0  0  0  0
   -0.3351   50.8172   13.9249 H   0  0  0  0  0  0
    0.8038   51.6344   14.9823 H   0  0  0  0  0  0
    2.0325   52.5620   17.3787 H   0  0  0  0  0  0
    1.4809   53.4039   18.8821 H   0  0  0  0  0  0
   -0.8681   50.5056   19.5828 H   0  0  0  0  0  0
    0.2657   49.8517   18.4048 H   0  0  0  0  0  0
    0.7065   48.7064   20.6736 H   0  0  0  0  0  0
    2.0820   48.7095   19.6337 H   0  0  0  0  0  0
    2.6820   48.0950   22.0415 H   0  0  0  0  0  0
    3.4140   49.6253   21.6828 H   0  0  0  0  0  0
    0.8028   49.3241   23.0281 H   0  0  0  0  0  0
    1.0077   51.6750   23.5377 H   0  0  0  0  0  0
    2.5480   51.6801   22.6627 H   0  0  0  0  0  0
    0.6491   52.5730   21.1212 H   0  0  0  0  0  0
   -0.2290   51.1756   21.5808 H   0  0  0  0  0  0
    2.8655   54.0272   19.7481 H   0  0  0  0  0  0
    5.6520   53.7378   20.5361 H   0  0  0  0  0  0
    4.7052   55.1955   20.4843 H   0  0  0  0  0  0
    2.4124   54.3421   22.3554 H   0  0  0  0  0  0
    2.2107   54.4286   24.7561 H   0  0  0  0  0  0
    6.5149   54.1092   25.1071 H   0  0  0  0  0  0
    6.6844   54.0149   22.6952 H   0  0  0  0  0  0
    6.2913   54.3829   27.2004 H   0  0  0  0  0  0
    5.3024   54.5622   29.7158 H   0  0  0  0  0  0
    2.6347   54.5523   29.4738 H   0  0  0  0  0  0
    2.1098   54.3878   26.8331 H   0  0  0  0  0  0
    2.2184   49.5927   23.7715 H   0  0  0  0  0  0
  1  2  1  0  0  0
  1 39  1  0  0  0
  1 40  1  0  0  0
  1 41  1  0  0  0
  2  6  2  0  0  0
  2  3  1  0  0  0
  3  4  2  0  0  0
  3 42  1  0  0  0
  4  5  1  0  0  0
  4 11  1  0  0  0
  5  6  1  0  0  0
  5  7  1  0  0  0
  7  8  1  0  0  0
  7  9  1  0  0  0
  7 10  1  0  0  0
  8 43  1  0  0  0
  8 44  1  0  0  0
  8 45  1  0  0  0
  9 46  1  0  0  0
  9 47  1  0  0  0
  9 48  1  0  0  0
 10 49  1  0  0  0
 10 50  1  0  0  0
 10 51  1  0  0  0
 11 12  2  0  0  0
 11 13  1  0  0  0
 13 18  1  0  0  0
 13 14  1  0  0  0
 14 15  1  0  0  0
 14 52  1  0  0  0
 14 53  1  0  0  0
 15 16  1  0  0  0
 15 17  1  0  0  0
 15 24  1  0  0  0
 17 23  1  0  0  0
 17 18  1  0  0  0
 17 19  1  0  0  0
 18 54  1  0  0  0
 18 55  1  0  0  0
 19 20  1  0  0  0
 19 56  1  0  0  0
 19 57  1  0  0  0
 20 21  1  0  0  0
 20 58  1  0  0  0
 20 59  1  0  0  0
 21 22  1  0  0  0
 21 60  1  0  0  0
 21 76  1  0  0  0
 22 23  1  0  0  0
 22 61  1  0  0  0
 22 62  1  0  0  0
 23 63  1  0  0  0
 23 64  1  0  0  0
 24 25  2  0  0  0
 24 26  1  0  0  0
 26 27  1  0  0  0
 26 65  1  0  0  0
 27 28  1  0  0  0
 27 66  1  0  0  0
 27 67  1  0  0  0
 28 33  2  0  0  0
 28 29  1  0  0  0
 29 30  2  0  0  0
 29 68  1  0  0  0
 30 31  1  0  0  0
 30 69  1  0  0  0
 31 32  2  0  0  0
 31 34  1  0  0  0
 32 33  1  0  0  0
 32 70  1  0  0  0
 33 71  1  0  0  0
 34 38  1  0  0  0
 34 35  1  0  0  0
 35 36  2  0  0  0
 35 72  1  0  0  0
 36 37  1  0  0  0
 36 73  1  0  0  0
 37 38  2  0  0  0
 37 74  1  0  0  0
 38 75  1  0  0  0
M  CHG  1  21   1
M  END
> <i_i_glide_confnum>
253

> <i_i_glide_lignum>
400

> <i_i_glide_posenum>
319

> <i_i_glide_rotatable_bonds>
8

> <i_m_Source_File_Index>
3430

> <b_m_subgroup_collapsed>
0

> <r_i_docking_score>
-5.51798

> <r_i_glide_ecoul>
-6.53355

> <r_i_glide_eff_state_penalty>
0

> <r_i_glide_einternal>
10.2911

> <r_i_glide_emodel>
-48.1997

> <r_i_glide_energy>
-41.4176

> <r_i_glide_erotb>
0.564074

> <r_i_glide_esite>
-0.0749586

> <r_i_glide_evdw>
-34.884

> <r_i_glide_gscore>
-5.51798

> <r_i_glide_hbond>
-0.313114

> <r_i_glide_ligand_efficiency>
-0.149134

> <r_i_glide_ligand_efficiency_ln>
-1.19672

> <r_i_glide_ligand_efficiency_sa>
-0.496949

> <r_i_glide_lipo>
-2.65236

> <r_i_glide_metal>
0

> <r_i_glide_rewards>
-0.317385

> <s_i_glide_gridfile>
wee1_glide-grid

> <s_m_Source_File>
wee1_decoys_glide_SP.sdf

> <s_m_Source_Path>
/Users/zhangxujun/Desktop

> <s_m_entry_id>
3705

> <s_m_entry_name>
wee1_decoys_glide_SP.3430

> <s_m_subgroup_title>
wee1_decoys_glide_SP

> <s_m_subgroupid>
wee1_decoys_glide_SP


$$$$
