ZINC49036209_2481
                    3D
 Schrodinger Suite 2024-2.
 68 72  0  0  1  0            999 V2000
    6.9645   54.2265   23.0079 C   0  0  0  0  0  0
    7.1044   55.1689   24.2062 C   0  0  0  0  0  0
    5.8342   55.2681   24.8161 O   0  0  0  0  0  0
    5.5419   54.6251   25.9654 C   0  0  0  0  0  0
    6.3764   54.3301   26.8233 O   0  0  0  0  0  0
    4.1120   54.2963   26.0600 C   0  0  0  0  0  0
    3.5596   53.9320   27.2314 C   0  0  0  0  0  0
    2.2242   53.5816   27.3415 N   0  0  0  0  0  0
    1.5608   53.0179   26.2087 C   0  0  0  0  0  0
    0.4694   52.1123   26.3020 C   0  0  0  0  0  0
   -0.1678   51.6588   25.1153 C   0  0  0  0  0  0
    0.3043   52.1066   23.8654 C   0  0  0  0  0  0
    1.4020   52.9499   23.7913 C   0  0  0  0  0  0
    2.0521   53.3990   24.9340 C   0  0  0  0  0  0
    3.2900   54.2884   24.7661 C   0  0  0  0  0  0
   -0.2873   51.7246   22.6544 N   0  0  0  0  0  0
   -1.2702   50.8029   25.1088 N   0  0  0  0  0  0
   -1.1390   49.3840   25.4148 C   0  0  0  0  0  0
   -2.2192   48.5706   24.6898 C   0  0  0  0  0  0
   -3.6186   49.1404   24.9114 C   0  0  0  0  0  0
   -3.8318   50.4405   25.2859 C   0  0  0  0  0  0
   -2.5798   51.3133   25.5176 C   0  0  0  0  0  0
   -5.1762   51.0510   25.4474 C   0  0  0  0  0  0
   -5.4964   52.2455   25.8102 N   0  0  0  0  0  0
   -4.4442   53.1194   26.1129 O   0  0  0  0  0  0
   -4.9287   54.4490   26.0243 C   0  0  0  0  0  0
   -6.3916   50.1476   25.0662 C   0  0  1  0  0  0
   -6.4359   50.1246   23.9760 H   0  0  0  0  0  0
   -6.1929   48.7127   25.5711 C   0  0  0  0  0  0
   -4.8785   47.8981   24.6501 S   0  0  0  0  0  0
   -7.7735   50.6817   25.5397 C   0  0  0  0  0  0
    0.0289   51.5906   27.6778 C   0  0  0  0  0  0
    1.4190   54.1242   28.4540 C   0  0  0  0  0  0
    1.8302   53.7532   29.8702 C   0  0  0  0  0  0
    2.0056   55.1712   29.4024 C   0  0  0  0  0  0
    7.9073   54.1349   22.4817 H   0  0  0  0  0  0
    6.2246   54.5959   22.2970 H   0  0  0  0  0  0
    6.6549   53.2298   23.3214 H   0  0  0  0  0  0
    7.8873   54.8149   24.8846 H   0  0  0  0  0  0
    7.4094   56.1519   23.8567 H   0  0  0  0  0  0
    4.1264   53.8822   28.1515 H   0  0  0  0  0  0
    1.7638   53.2652   22.8225 H   0  0  0  0  0  0
    2.9866   55.2960   24.4872 H   0  0  0  0  0  0
    3.8826   53.8947   23.9385 H   0  0  0  0  0  0
    0.2013   51.9049   21.7867 H   0  0  0  0  0  0
   -1.0182   51.0283   22.7055 H   0  0  0  0  0  0
   -0.1571   49.0264   25.0978 H   0  0  0  0  0  0
   -1.2061   49.1840   26.4787 H   0  0  0  0  0  0
   -2.0073   48.5342   23.6206 H   0  0  0  0  0  0
   -2.1635   47.5452   25.0563 H   0  0  0  0  0  0
   -2.5363   51.5734   26.5757 H   0  0  0  0  0  0
   -2.6920   52.2409   24.9565 H   0  0  0  0  0  0
   -4.0958   55.1483   26.0825 H   0  0  0  0  0  0
   -5.4288   54.6286   25.0702 H   0  0  0  0  0  0
   -5.6171   54.6733   26.8407 H   0  0  0  0  0  0
   -7.0869   48.1072   25.4178 H   0  0  0  0  0  0
   -5.9540   48.6726   26.6358 H   0  0  0  0  0  0
   -8.0070   51.6498   25.0942 H   0  0  0  0  0  0
   -8.5805   50.0052   25.2547 H   0  0  0  0  0  0
   -7.8113   50.7943   26.6244 H   0  0  0  0  0  0
   -0.3137   50.5634   27.6586 H   0  0  0  0  0  0
    0.8644   51.5537   28.3769 H   0  0  0  0  0  0
   -0.7670   52.2055   28.0987 H   0  0  0  0  0  0
    0.3586   54.2373   28.2272 H   0  0  0  0  0  0
    1.0436   53.5213   30.5879 H   0  0  0  0  0  0
    2.7100   53.1226   30.0108 H   0  0  0  0  0  0
    3.0091   55.5673   29.2461 H   0  0  0  0  0  0
    1.3352   55.9392   29.7901 H   0  0  0  0  0  0
  1  2  1  0  0  0
  1 36  1  0  0  0
  1 37  1  0  0  0
  1 38  1  0  0  0
  2  3  1  0  0  0
  2 39  1  0  0  0
  2 40  1  0  0  0
  3  4  1  0  0  0
  4  5  2  0  0  0
  4  6  1  0  0  0
  6 15  1  0  0  0
  6  7  2  0  0  0
  7  8  1  0  0  0
  7 41  1  0  0  0
  8  9  1  0  0  0
  8 33  1  0  0  0
  9 14  2  0  0  0
  9 10  1  0  0  0
 10 11  2  0  0  0
 10 32  1  0  0  0
 11 12  1  0  0  0
 11 17  1  0  0  0
 12 13  2  0  0  0
 12 16  1  0  0  0
 13 14  1  0  0  0
 13 42  1  0  0  0
 14 15  1  0  0  0
 15 43  1  0  0  0
 15 44  1  0  0  0
 16 45  1  0  0  0
 16 46  1  0  0  0
 17 22  1  0  0  0
 17 18  1  0  0  0
 18 19  1  0  0  0
 18 47  1  0  0  0
 18 48  1  0  0  0
 19 20  1  0  0  0
 19 49  1  0  0  0
 19 50  1  0  0  0
 20 30  1  0  0  0
 20 21  2  0  0  0
 21 22  1  0  0  0
 21 23  1  0  0  0
 22 51  1  0  0  0
 22 52  1  0  0  0
 23 24  2  0  0  0
 23 27  1  0  0  0
 24 25  1  0  0  0
 25 26  1  0  0  0
 26 53  1  0  0  0
 26 54  1  0  0  0
 26 55  1  0  0  0
 27 28  1  0  0  0
 27 29  1  0  0  0
 27 31  1  0  0  0
 29 30  1  0  0  0
 29 56  1  0  0  0
 29 57  1  0  0  0
 31 58  1  0  0  0
 31 59  1  0  0  0
 31 60  1  0  0  0
 32 61  1  0  0  0
 32 62  1  0  0  0
 32 63  1  0  0  0
 33 35  1  0  0  0
 33 34  1  0  0  0
 33 64  1  0  0  0
 34 35  1  0  0  0
 34 65  1  0  0  0
 34 66  1  0  0  0
 35 67  1  0  0  0
 35 68  1  0  0  0
M  END
> <i_i_glide_confnum>
68

> <i_i_glide_lignum>
2482

> <i_i_glide_posenum>
347

> <i_i_glide_rotatable_bonds>
6

> <i_m_Source_File_Index>
4400

> <b_m_subgroup_collapsed>
0

> <r_i_docking_score>
-4.53639

> <r_i_glide_ecoul>
-0.995056

> <r_i_glide_eff_state_penalty>
0

> <r_i_glide_einternal>
11.4828

> <r_i_glide_emodel>
-47.9379

> <r_i_glide_energy>
-42.4964

> <r_i_glide_erotb>
0.435626

> <r_i_glide_esite>
-0.0185027

> <r_i_glide_evdw>
-41.5013

> <r_i_glide_gscore>
-4.53639

> <r_i_glide_hbond>
0

> <r_i_glide_ligand_efficiency>
-0.133423

> <r_i_glide_ligand_efficiency_ln>
-1.00222

> <r_i_glide_ligand_efficiency_sa>
-0.43224

> <r_i_glide_lipo>
-2.18348

> <r_i_glide_metal>
0

> <r_i_glide_rewards>
-0.545708

> <s_i_glide_gridfile>
wee1_glide-grid

> <s_m_Source_File>
wee1_decoys_glide_SP.sdf

> <s_m_Source_Path>
/Users/zhangxujun/Desktop

> <s_m_entry_id>
4675

> <s_m_entry_name>
wee1_decoys_glide_SP.4400

> <s_m_subgroup_title>
wee1_decoys_glide_SP

> <s_m_subgroupid>
wee1_decoys_glide_SP


$$$$
