ZINC63384224_295
                    3D
 Schrodinger Suite 2024-2.
 59 63  0  0  1  0            999 V2000
    2.6859   56.4679   16.4468 C   0  0  0  0  0  0
    3.6686   57.0383   17.4783 C   0  0  0  0  0  0
    5.1208   56.8972   16.9541 N   0  3  1  0  0  0
    5.4590   58.1277   16.0648 C   0  0  0  0  0  0
    6.8590   57.9692   15.4451 C   0  0  0  0  0  0
    7.8556   57.7337   16.5610 C   0  0  0  0  0  0
    8.9708   58.3655   16.9537 C   0  0  0  0  0  0
    9.6682   59.5405   16.4146 C   0  0  0  0  0  0
   10.8038   59.9846   16.9895 C   0  0  0  0  0  0
   11.3076   59.2685   18.1546 C   0  0  0  0  0  0
   10.6622   58.1889   18.6700 C   0  0  0  0  0  0
    9.4809   57.7190   18.0820 C   0  0  0  0  0  0
    8.7101   56.7080   18.4295 N   0  3  0  0  0  0
    7.5773   56.5699   17.4856 C   0  0  1  0  0  0
    7.7050   55.6167   16.9670 H   0  0  0  0  0  0
    6.1539   56.6729   18.0993 C   0  0  2  0  0  0
    6.0539   57.5812   18.7015 H   0  0  0  0  0  0
    5.8348   55.3735   18.8670 C   0  0  0  0  0  0
    5.1046   52.1868   18.4862 H   0  0  0  0  0  0
    5.4938   54.1965   18.2968 C   0  0  0  0  0  0
    5.1825   53.0742   18.9763 N   0  0  0  0  0  0
    5.1044   53.0534   20.3337 C   0  0  0  0  0  0
    4.7532   52.0119   20.8917 O   0  0  0  0  0  0
    5.4554   54.2497   20.9616 N   0  0  0  0  0  0
    5.9033   55.4098   20.3283 C   0  0  0  0  0  0
    6.3378   56.4159   20.9007 O   0  0  0  0  0  0
    5.4462   54.2428   22.3959 C   0  0  0  0  0  0
    6.6640   54.3867   23.0817 C   0  0  0  0  0  0
    6.7062   54.4061   24.4721 C   0  0  0  0  0  0
    5.5388   54.2759   25.2174 C   0  0  0  0  0  0
    4.3219   54.1138   24.5565 C   0  0  0  0  0  0
    4.2595   54.0967   23.1584 C   0  0  0  0  0  0
    2.8828   53.9846   22.5232 C   0  0  0  0  0  0
    5.5983   54.2770   26.7341 C   0  0  0  0  0  0
    5.4116   53.9939   17.0311 O   0  5  0  0  0  0
    1.6627   56.5387   16.8165 H   0  0  0  0  0  0
    2.7247   57.0030   15.4971 H   0  0  0  0  0  0
    2.8885   55.4138   16.2490 H   0  0  0  0  0  0
    3.4955   58.0960   17.6817 H   0  0  0  0  0  0
    3.5866   56.4880   18.4173 H   0  0  0  0  0  0
    4.7088   58.1788   15.2750 H   0  0  0  0  0  0
    5.3822   59.0227   16.6901 H   0  0  0  0  0  0
    6.8657   57.1343   14.7423 H   0  0  0  0  0  0
    7.1057   58.8592   14.8651 H   0  0  0  0  0  0
    9.2925   60.0703   15.5512 H   0  0  0  0  0  0
   11.3277   60.8433   16.5939 H   0  0  0  0  0  0
   12.2244   59.6027   18.6195 H   0  0  0  0  0  0
   11.0811   57.6967   19.5358 H   0  0  0  0  0  0
    7.5884   54.5017   22.5336 H   0  0  0  0  0  0
    7.6589   54.5176   24.9638 H   0  0  0  0  0  0
    3.4154   54.0075   25.1355 H   0  0  0  0  0  0
    2.6060   52.9413   22.3719 H   0  0  0  0  0  0
    2.1222   54.4647   23.1386 H   0  0  0  0  0  0
    2.8636   54.4968   21.5688 H   0  0  0  0  0  0
    5.4761   55.2890   27.1240 H   0  0  0  0  0  0
    4.8175   53.6396   27.1534 H   0  0  0  0  0  0
    6.5494   53.8757   27.0895 H   0  0  0  0  0  0
    8.8702   56.0889   19.2202 H   0  0  0  0  0  0
    5.1552   56.0400   16.4088 H   0  0  0  0  0  0
  1  2  1  0  0  0
  1 36  1  0  0  0
  1 37  1  0  0  0
  1 38  1  0  0  0
  2  3  1  0  0  0
  2 39  1  0  0  0
  2 40  1  0  0  0
  3 16  1  0  0  0
  3  4  1  0  0  0
  3 59  1  0  0  0
  4  5  1  0  0  0
  4 41  1  0  0  0
  4 42  1  0  0  0
  5  6  1  0  0  0
  5 43  1  0  0  0
  5 44  1  0  0  0
  6 14  1  0  0  0
  6  7  2  0  0  0
  7 12  1  0  0  0
  7  8  1  0  0  0
  8  9  2  0  0  0
  8 45  1  0  0  0
  9 10  1  0  0  0
  9 46  1  0  0  0
 10 11  2  0  0  0
 10 47  1  0  0  0
 11 12  1  0  0  0
 11 48  1  0  0  0
 12 13  2  0  0  0
 13 14  1  0  0  0
 13 58  1  0  0  0
 14 15  1  0  0  0
 14 16  1  0  0  0
 16 17  1  0  0  0
 16 18  1  0  0  0
 18 25  1  0  0  0
 18 20  2  0  0  0
 19 21  1  0  0  0
 20 35  1  0  0  0
 20 21  1  0  0  0
 21 22  1  0  0  0
 22 23  2  0  0  0
 22 24  1  0  0  0
 24 25  1  0  0  0
 24 27  1  0  0  0
 25 26  2  0  0  0
 27 32  2  0  0  0
 27 28  1  0  0  0
 28 29  2  0  0  0
 28 49  1  0  0  0
 29 30  1  0  0  0
 29 50  1  0  0  0
 30 31  2  0  0  0
 30 34  1  0  0  0
 31 32  1  0  0  0
 31 51  1  0  0  0
 32 33  1  0  0  0
 33 52  1  0  0  0
 33 53  1  0  0  0
 33 54  1  0  0  0
 34 55  1  0  0  0
 34 56  1  0  0  0
 34 57  1  0  0  0
M  CHG  3   3   1  13   1  35  -1
M  END
> <i_i_glide_confnum>
2

> <i_i_glide_lignum>
296

> <i_i_glide_posenum>
398

> <i_i_glide_rotatable_bonds>
3

> <i_m_Source_File_Index>
2993

> <b_m_subgroup_collapsed>
0

> <r_i_docking_score>
-5.92347

> <r_i_glide_ecoul>
-9.19503

> <r_i_glide_eff_state_penalty>
0

> <r_i_glide_einternal>
4.78172

> <r_i_glide_emodel>
-56.4192

> <r_i_glide_energy>
-42.326

> <r_i_glide_erotb>
0.213648

> <r_i_glide_esite>
-0.114897

> <r_i_glide_evdw>
-33.131

> <r_i_glide_gscore>
-5.92347

> <r_i_glide_hbond>
-0.16

> <r_i_glide_ligand_efficiency>
-0.185108

> <r_i_glide_ligand_efficiency_ln>
-1.32643

> <r_i_glide_ligand_efficiency_sa>
-0.587683

> <r_i_glide_lipo>
-2.16697

> <r_i_glide_metal>
0

> <r_i_glide_rewards>
-0.659455

> <s_i_glide_gridfile>
wee1_glide-grid

> <s_m_Source_File>
wee1_decoys_glide_SP.sdf

> <s_m_Source_Path>
/Users/zhangxujun/Desktop

> <s_m_entry_id>
3268

> <s_m_entry_name>
wee1_decoys_glide_SP.2993

> <s_m_subgroup_title>
wee1_decoys_glide_SP

> <s_m_subgroupid>
wee1_decoys_glide_SP


$$$$
