ZINC25051169_5087
                    3D
 Schrodinger Suite 2024-2.
 56 59  0  0  1  0            999 V2000
    3.1034   53.3927   18.5443 C   0  0  0  0  0  0
    3.1724   52.3732   19.7040 N   0  3  1  0  0  0
    4.6338   52.2254   20.2085 C   0  0  0  0  0  0
    5.1051   53.3876   21.0593 C   0  0  0  0  0  0
    5.9043   54.4967   20.8142 C   0  0  0  0  0  0
    6.2257   55.0358   22.0606 C   0  0  0  0  0  0
    5.4935   54.3299   23.0082 C   0  0  0  0  0  0
    4.8229   53.3243   22.3869 O   0  0  0  0  0  0
    5.3438   54.4337   24.4864 C   0  0  0  0  0  0
    6.4186   54.8474   25.2791 C   0  0  0  0  0  0
    6.2869   54.8741   26.6674 C   0  0  0  0  0  0
    5.0813   54.4966   27.2559 C   0  0  0  0  0  0
    3.9971   54.1191   26.4678 C   0  0  0  0  0  0
    4.1254   54.0944   25.0838 C   0  0  0  0  0  0
    4.9061   54.5068   29.1497 Br  0  0  0  0  0  0
    2.1545   52.7168   20.7669 C   0  0  0  0  0  0
    1.8890   51.5458   21.7247 C   0  0  0  0  0  0
    2.3919   50.4412   21.5166 O   0  0  0  0  0  0
    1.0346   51.8440   22.7319 N   0  0  0  0  0  0
    0.4811   50.9941   23.7095 C   0  0  0  0  0  0
    0.9379   49.6955   23.9608 C   0  0  0  0  0  0
    0.3248   48.9052   24.9260 C   0  0  0  0  0  0
   -0.7272   49.4101   25.6748 C   0  0  0  0  0  0
   -1.2055   50.7137   25.4629 C   0  0  0  0  0  0
   -0.5837   51.4959   24.4704 C   0  0  0  0  0  0
   -2.3612   51.2664   26.2733 C   0  0  0  0  0  0
   -2.8631   52.3583   25.9954 O   0  0  0  0  0  0
   -2.8001   50.4985   27.2888 N   0  0  0  0  0  0
   -3.8656   50.8505   28.2096 C   0  0  0  0  0  0
   -5.2981   50.6598   27.7669 C   0  0  0  0  0  0
   -4.6889   49.7288   28.7939 C   0  0  0  0  0  0
    3.4104   54.3687   18.9242 H   0  0  0  0  0  0
    3.7823   53.0416   17.7620 H   0  0  0  0  0  0
    2.0780   53.4189   18.1689 H   0  0  0  0  0  0
    4.6726   51.2697   20.7287 H   0  0  0  0  0  0
    5.2287   52.0985   19.3043 H   0  0  0  0  0  0
    6.2934   54.8127   19.8574 H   0  0  0  0  0  0
    6.8839   55.8697   22.2558 H   0  0  0  0  0  0
    7.3604   55.1141   24.8192 H   0  0  0  0  0  0
    7.1097   55.1771   27.2972 H   0  0  0  0  0  0
    3.0625   53.8371   26.9337 H   0  0  0  0  0  0
    3.2858   53.7803   24.4805 H   0  0  0  0  0  0
    1.2287   52.9017   20.2221 H   0  0  0  0  0  0
    2.4612   53.6292   21.2811 H   0  0  0  0  0  0
    0.6898   52.7910   22.7505 H   0  0  0  0  0  0
    1.7757   49.2695   23.4382 H   0  0  0  0  0  0
    0.6932   47.9083   25.1183 H   0  0  0  0  0  0
   -1.1547   48.7583   26.4208 H   0  0  0  0  0  0
   -0.9433   52.5026   24.2871 H   0  0  0  0  0  0
   -2.1978   49.7401   27.6113 H   0  0  0  0  0  0
   -3.6282   51.6975   28.8562 H   0  0  0  0  0  0
   -5.4840   50.2943   26.7568 H   0  0  0  0  0  0
   -6.0430   51.3908   28.0843 H   0  0  0  0  0  0
   -4.9794   49.8049   29.8411 H   0  0  0  0  0  0
   -4.4289   48.7054   28.5162 H   0  0  0  0  0  0
    2.9290   51.4722   19.3039 H   0  0  0  0  0  0
  1  2  1  0  0  0
  1 32  1  0  0  0
  1 33  1  0  0  0
  1 34  1  0  0  0
  2  3  1  0  0  0
  2 16  1  0  0  0
  2 56  1  0  0  0
  3  4  1  0  0  0
  3 35  1  0  0  0
  3 36  1  0  0  0
  4  8  1  0  0  0
  4  5  2  0  0  0
  5  6  1  0  0  0
  5 37  1  0  0  0
  6  7  2  0  0  0
  6 38  1  0  0  0
  7  8  1  0  0  0
  7  9  1  0  0  0
  9 14  2  0  0  0
  9 10  1  0  0  0
 10 11  2  0  0  0
 10 39  1  0  0  0
 11 12  1  0  0  0
 11 40  1  0  0  0
 12 13  2  0  0  0
 12 15  1  0  0  0
 13 14  1  0  0  0
 13 41  1  0  0  0
 14 42  1  0  0  0
 16 17  1  0  0  0
 16 43  1  0  0  0
 16 44  1  0  0  0
 17 18  2  0  0  0
 17 19  1  0  0  0
 19 20  1  0  0  0
 19 45  1  0  0  0
 20 25  2  0  0  0
 20 21  1  0  0  0
 21 22  2  0  0  0
 21 46  1  0  0  0
 22 23  1  0  0  0
 22 47  1  0  0  0
 23 24  2  0  0  0
 23 48  1  0  0  0
 24 25  1  0  0  0
 24 26  1  0  0  0
 25 49  1  0  0  0
 26 27  2  0  0  0
 26 28  1  0  0  0
 28 29  1  0  0  0
 28 50  1  0  0  0
 29 31  1  0  0  0
 29 30  1  0  0  0
 29 51  1  0  0  0
 30 31  1  0  0  0
 30 52  1  0  0  0
 30 53  1  0  0  0
 31 54  1  0  0  0
 31 55  1  0  0  0
M  CHG  1   2   1
M  END
> <i_i_glide_confnum>
323

> <i_i_glide_lignum>
5088

> <i_i_glide_posenum>
367

> <i_i_glide_rotatable_bonds>
10

> <i_m_Source_File_Index>
3607

> <b_m_subgroup_collapsed>
0

> <r_i_docking_score>
-5.28932

> <r_i_glide_ecoul>
-7.32217

> <r_i_glide_eff_state_penalty>
0

> <r_i_glide_einternal>
4.92692

> <r_i_glide_emodel>
-60.9309

> <r_i_glide_energy>
-45.8216

> <r_i_glide_erotb>
0.86882

> <r_i_glide_esite>
-0.173213

> <r_i_glide_evdw>
-38.4994

> <r_i_glide_gscore>
-5.28932

> <r_i_glide_hbond>
-0.16

> <r_i_glide_ligand_efficiency>
-0.170623

> <r_i_glide_ligand_efficiency_ln>
-1.1929

> <r_i_glide_ligand_efficiency_sa>
-0.535992

> <r_i_glide_lipo>
-2.48024

> <r_i_glide_metal>
0

> <r_i_glide_rewards>
-0.321388

> <s_i_glide_gridfile>
wee1_glide-grid

> <s_m_Source_File>
wee1_decoys_glide_SP.sdf

> <s_m_Source_Path>
/Users/zhangxujun/Desktop

> <s_m_entry_id>
3882

> <s_m_entry_name>
wee1_decoys_glide_SP.3607

> <s_m_subgroup_title>
wee1_decoys_glide_SP

> <s_m_subgroupid>
wee1_decoys_glide_SP


$$$$
