ZINC35646529_5751
                    3D
 Schrodinger Suite 2024-2.
 77 80  0  0  1  0            999 V2000
    2.3185   48.7102   20.8160 C   0  0  0  0  0  0
    0.9157   49.3211   20.7630 C   0  0  0  0  0  0
    0.7787   50.5323   21.6127 N   0  0  0  0  0  0
    0.6952   50.5156   23.0086 C   0  0  0  0  0  0
    0.7486   51.6807   23.7234 C   0  0  0  0  0  0
    1.1996   52.9663   22.9936 C   0  0  2  0  0  0
    0.7047   53.8447   23.4144 H   0  0  0  0  0  0
    0.7873   52.8474   21.5830 N   0  0  0  0  0  0
    0.6546   51.6955   20.8851 C   0  0  0  0  0  0
    0.3562   51.8001   19.6941 O   0  0  0  0  0  0
    2.6804   53.3478   23.1904 C   0  0  0  0  0  0
    3.0472   54.0982   24.3112 C   0  0  0  0  0  0
    4.3577   54.4969   24.5049 C   0  0  0  0  0  0
    5.3283   54.2300   23.5329 C   0  0  0  0  0  0
    4.9709   53.4941   22.4025 C   0  0  0  0  0  0
    3.6596   53.0510   22.2305 C   0  0  0  0  0  0
    6.6237   54.7016   23.6093 O   0  0  0  0  0  0
    6.9380   55.6408   24.6388 C   0  0  0  0  0  0
    0.5406   51.8299   25.1972 C   0  0  0  0  0  0
    0.7041   52.8967   25.7786 O   0  0  0  0  0  0
    0.1524   50.7347   25.8692 O   0  0  0  0  0  0
   -0.0182   50.7376   27.2831 C   0  0  0  0  0  0
   -1.2749   51.4918   27.7540 C   0  0  0  0  0  0
    0.3198   49.1455   23.6133 C   0  0  0  0  0  0
   -1.1083   48.9161   23.8796 N   0  0  0  0  0  0
   -1.8446   48.5916   22.6490 C   0  0  0  0  0  0
   -3.3333   48.2370   22.8927 C   0  0  0  0  0  0
   -3.4167   47.2414   23.9830 N   0  0  0  0  0  0
   -2.7786   47.6466   25.2523 C   0  0  1  0  0  0
   -2.8085   46.8329   25.9798 H   0  0  0  0  0  0
   -1.2841   47.8794   24.9072 C   0  0  0  0  0  0
   -3.4570   48.8429   25.9444 C   0  0  0  0  0  0
   -4.1040   46.0692   23.8961 C   0  0  0  0  0  0
   -4.3511   45.3671   24.8819 O   0  0  0  0  0  0
   -4.4933   45.5237   22.5405 C   0  0  0  0  0  0
   -3.5648   45.4599   21.4920 C   0  0  0  0  0  0
   -3.9249   44.9066   20.2666 C   0  0  0  0  0  0
   -5.2124   44.4013   20.0810 C   0  0  0  0  0  0
   -6.1336   44.4348   21.1289 C   0  0  0  0  0  0
   -5.7732   44.9862   22.3552 C   0  0  0  0  0  0
   -5.6005   43.7899   18.7479 C   0  0  0  0  0  0
    2.3562   47.7801   20.2477 H   0  0  0  0  0  0
    3.0496   49.3841   20.3617 H   0  0  0  0  0  0
    2.6481   48.4942   21.8324 H   0  0  0  0  0  0
    0.1644   48.5783   21.0121 H   0  0  0  0  0  0
    0.7253   49.5208   19.7060 H   0  0  0  0  0  0
    0.9393   53.6614   20.9986 H   0  0  0  0  0  0
    2.3240   54.4053   25.0470 H   0  0  0  0  0  0
    4.5839   55.0640   25.3938 H   0  0  0  0  0  0
    5.7081   53.2851   21.6433 H   0  0  0  0  0  0
    3.4098   52.4954   21.3391 H   0  0  0  0  0  0
    7.9039   56.0965   24.4607 H   0  0  0  0  0  0
    6.2271   56.4668   24.6747 H   0  0  0  0  0  0
    6.9727   55.1562   25.6165 H   0  0  0  0  0  0
   -0.0956   49.6967   27.5714 H   0  0  0  0  0  0
    0.8735   51.1249   27.7804 H   0  0  0  0  0  0
   -1.4468   51.3166   28.8162 H   0  0  0  0  0  0
   -1.1797   52.5663   27.6049 H   0  0  0  0  0  0
   -2.1617   51.1581   27.2164 H   0  0  0  0  0  0
    0.9251   49.0005   24.5100 H   0  0  0  0  0  0
    0.7095   48.3330   23.0170 H   0  0  0  0  0  0
   -1.3825   47.7015   22.2193 H   0  0  0  0  0  0
   -1.7925   49.4243   21.9467 H   0  0  0  0  0  0
   -3.8203   47.9330   21.9680 H   0  0  0  0  0  0
   -3.8547   49.1398   23.2094 H   0  0  0  0  0  0
   -0.8637   46.9416   24.5403 H   0  0  0  0  0  0
   -0.7508   48.1345   25.8247 H   0  0  0  0  0  0
   -2.9504   49.0583   26.8817 H   0  0  0  0  0  0
   -3.3990   49.7550   25.3507 H   0  0  0  0  0  0
   -4.5026   48.6316   26.1775 H   0  0  0  0  0  0
   -2.5572   45.8288   21.6190 H   0  0  0  0  0  0
   -3.2022   44.8719   19.4637 H   0  0  0  0  0  0
   -7.1282   44.0349   20.9973 H   0  0  0  0  0  0
   -6.4969   45.0009   23.1594 H   0  0  0  0  0  0
   -4.7443   43.3053   18.2769 H   0  0  0  0  0  0
   -6.3655   43.0233   18.8729 H   0  0  0  0  0  0
   -5.9787   44.5556   18.0711 H   0  0  0  0  0  0
  1  2  1  0  0  0
  1 42  1  0  0  0
  1 43  1  0  0  0
  1 44  1  0  0  0
  2  3  1  0  0  0
  2 45  1  0  0  0
  2 46  1  0  0  0
  3  9  1  0  0  0
  3  4  1  0  0  0
  4  5  2  0  0  0
  4 24  1  0  0  0
  5  6  1  0  0  0
  5 19  1  0  0  0
  6  7  1  0  0  0
  6  8  1  0  0  0
  6 11  1  0  0  0
  8  9  1  0  0  0
  8 47  1  0  0  0
  9 10  2  0  0  0
 11 16  2  0  0  0
 11 12  1  0  0  0
 12 13  2  0  0  0
 12 48  1  0  0  0
 13 14  1  0  0  0
 13 49  1  0  0  0
 14 15  2  0  0  0
 14 17  1  0  0  0
 15 16  1  0  0  0
 15 50  1  0  0  0
 16 51  1  0  0  0
 17 18  1  0  0  0
 18 52  1  0  0  0
 18 53  1  0  0  0
 18 54  1  0  0  0
 19 20  2  0  0  0
 19 21  1  0  0  0
 21 22  1  0  0  0
 22 23  1  0  0  0
 22 55  1  0  0  0
 22 56  1  0  0  0
 23 57  1  0  0  0
 23 58  1  0  0  0
 23 59  1  0  0  0
 24 25  1  0  0  0
 24 60  1  0  0  0
 24 61  1  0  0  0
 25 31  1  0  0  0
 25 26  1  0  0  0
 26 27  1  0  0  0
 26 62  1  0  0  0
 26 63  1  0  0  0
 27 28  1  0  0  0
 27 64  1  0  0  0
 27 65  1  0  0  0
 28 29  1  0  0  0
 28 33  1  0  0  0
 29 30  1  0  0  0
 29 31  1  0  0  0
 29 32  1  0  0  0
 31 66  1  0  0  0
 31 67  1  0  0  0
 32 68  1  0  0  0
 32 69  1  0  0  0
 32 70  1  0  0  0
 33 34  2  0  0  0
 33 35  1  0  0  0
 35 40  2  0  0  0
 35 36  1  0  0  0
 36 37  2  0  0  0
 36 71  1  0  0  0
 37 38  1  0  0  0
 37 72  1  0  0  0
 38 39  2  0  0  0
 38 41  1  0  0  0
 39 40  1  0  0  0
 39 73  1  0  0  0
 40 74  1  0  0  0
 41 75  1  0  0  0
 41 76  1  0  0  0
 41 77  1  0  0  0
M  END
> <i_i_glide_confnum>
198

> <i_i_glide_lignum>
5752

> <i_i_glide_posenum>
55

> <i_i_glide_rotatable_bonds>
10

> <i_m_Source_File_Index>
3853

> <b_m_subgroup_collapsed>
0

> <r_i_docking_score>
-4.12606

> <r_i_glide_ecoul>
-4.87985

> <r_i_glide_eff_state_penalty>
0

> <r_i_glide_einternal>
9.37753

> <r_i_glide_emodel>
-44.0726

> <r_i_glide_energy>
-38.2331

> <r_i_glide_erotb>
0.505435

> <r_i_glide_esite>
-0.0863255

> <r_i_glide_evdw>
-33.3532

> <r_i_glide_gscore>
-4.12606

> <r_i_glide_hbond>
-0.48

> <r_i_glide_ligand_efficiency>
-0.105796

> <r_i_glide_ligand_efficiency_ln>
-0.884745

> <r_i_glide_ligand_efficiency_sa>
-0.358778

> <r_i_glide_lipo>
-1.53929

> <r_i_glide_metal>
0

> <r_i_glide_rewards>
-0.126241

> <s_i_glide_gridfile>
wee1_glide-grid

> <s_m_Source_File>
wee1_decoys_glide_SP.sdf

> <s_m_Source_Path>
/Users/zhangxujun/Desktop

> <s_m_entry_id>
4128

> <s_m_entry_name>
wee1_decoys_glide_SP.3853

> <s_m_subgroup_title>
wee1_decoys_glide_SP

> <s_m_subgroupid>
wee1_decoys_glide_SP


$$$$
