ZINC04235469_1013
                    3D
 Schrodinger Suite 2024-2.
 61 65  0  0  1  0            999 V2000
    4.4372   53.9325   28.0732 C   0  0  0  0  0  0
    3.8047   54.4960   26.9678 C   0  0  0  0  0  0
    4.5550   54.8486   25.8489 C   0  0  0  0  0  0
    5.9358   54.6091   25.8230 C   0  0  0  0  0  0
    6.5587   54.0718   26.9472 C   0  0  0  0  0  0
    5.8137   53.7254   28.0682 C   0  0  0  0  0  0
    6.7431   54.9260   24.7499 O   0  0  0  0  0  0
    6.3664   54.7473   23.4315 C   0  0  0  0  0  0
    7.0969   55.4481   22.4701 C   0  0  0  0  0  0
    6.7666   55.3495   21.1226 C   0  0  0  0  0  0
    5.7134   54.5168   20.7235 C   0  0  0  0  0  0
    4.9963   53.7918   21.6731 C   0  0  0  0  0  0
    5.3369   53.8887   23.0185 C   0  0  0  0  0  0
    5.3263   54.3995   19.3865 N   0  0  0  0  0  0
    6.1613   54.4193   18.2675 C   0  0  0  0  0  0
    7.3904   54.4276   18.2930 O   0  0  0  0  0  0
    5.4762   54.4204   17.0832 O   0  0  0  0  0  0
    4.0672   54.6523   16.9402 C   0  0  2  0  0  0
    3.5256   53.9135   17.5344 H   0  0  0  0  0  0
    3.6621   54.5226   15.4786 C   0  0  0  0  0  0
    2.4349   55.2455   15.4218 O   0  0  0  0  0  0
    2.4636   56.3441   16.3409 C   0  0  1  0  0  0
    1.5423   56.3458   16.9286 H   0  0  0  0  0  0
    3.6546   56.0824   17.2660 C   0  0  2  0  0  0
    3.4054   56.1928   18.3231 H   0  0  0  0  0  0
    4.6263   57.0661   16.9034 O   0  0  0  0  0  0
    3.9614   58.2284   16.4281 C   0  0  0  0  0  0
    2.7511   57.6855   15.6682 C   0  0  2  0  0  0
    3.0826   57.4802   14.6464 H   0  0  0  0  0  0
    1.6226   58.6189   15.6814 N   0  0  0  0  0  0
    0.5586   58.5646   14.8637 C   0  0  0  0  0  0
    0.4082   57.6983   14.0026 O   0  0  0  0  0  0
   -0.4927   59.6198   15.0940 C   0  0  0  0  0  0
   -0.1359   60.9278   15.4504 C   0  0  0  0  0  0
   -1.1206   61.8832   15.6837 C   0  0  0  0  0  0
   -2.4728   61.5448   15.5732 C   0  0  0  0  0  0
   -2.8298   60.2452   15.1997 C   0  0  0  0  0  0
   -1.8458   59.2915   14.9528 C   0  0  0  0  0  0
   -3.5591   62.5691   15.9006 C   0  0  0  0  0  0
   -3.9723   63.1537   14.7754 F   0  0  0  0  0  0
   -4.6065   61.9765   16.4816 F   0  0  0  0  0  0
   -3.1121   63.5100   16.7373 F   0  0  0  0  0  0
    3.8562   53.6580   28.9416 H   0  0  0  0  0  0
    2.7364   54.6587   26.9791 H   0  0  0  0  0  0
    4.0621   55.2952   24.9980 H   0  0  0  0  0  0
    7.6232   53.9040   26.9480 H   0  0  0  0  0  0
    6.3074   53.2970   28.9231 H   0  0  0  0  0  0
    7.9027   56.0966   22.7776 H   0  0  0  0  0  0
    7.3306   55.9181   20.3978 H   0  0  0  0  0  0
    4.1865   53.1434   21.3701 H   0  0  0  0  0  0
    4.7874   53.2987   23.7364 H   0  0  0  0  0  0
    4.3535   54.2071   19.2167 H   0  0  0  0  0  0
    4.3932   54.9507   14.7906 H   0  0  0  0  0  0
    3.5217   53.4852   15.1745 H   0  0  0  0  0  0
    4.6009   58.8696   15.8185 H   0  0  0  0  0  0
    3.6877   58.8549   17.2795 H   0  0  0  0  0  0
    1.6006   59.2931   16.4370 H   0  0  0  0  0  0
    0.9027   61.2119   15.5531 H   0  0  0  0  0  0
   -0.8232   62.8845   15.9627 H   0  0  0  0  0  0
   -3.8696   59.9669   15.0994 H   0  0  0  0  0  0
   -2.1425   58.2920   14.6668 H   0  0  0  0  0  0
  1  6  2  0  0  0
  1  2  1  0  0  0
  1 43  1  0  0  0
  2  3  2  0  0  0
  2 44  1  0  0  0
  3  4  1  0  0  0
  3 45  1  0  0  0
  4  5  2  0  0  0
  4  7  1  0  0  0
  5  6  1  0  0  0
  5 46  1  0  0  0
  6 47  1  0  0  0
  7  8  1  0  0  0
  8 13  2  0  0  0
  8  9  1  0  0  0
  9 10  2  0  0  0
  9 48  1  0  0  0
 10 11  1  0  0  0
 10 49  1  0  0  0
 11 12  2  0  0  0
 11 14  1  0  0  0
 12 13  1  0  0  0
 12 50  1  0  0  0
 13 51  1  0  0  0
 14 15  1  0  0  0
 14 52  1  0  0  0
 15 16  2  0  0  0
 15 17  1  0  0  0
 17 18  1  0  0  0
 18 19  1  0  0  0
 18 24  1  0  0  0
 18 20  1  0  0  0
 20 21  1  0  0  0
 20 53  1  0  0  0
 20 54  1  0  0  0
 21 22  1  0  0  0
 22 23  1  0  0  0
 22 28  1  0  0  0
 22 24  1  0  0  0
 24 25  1  0  0  0
 24 26  1  0  0  0
 26 27  1  0  0  0
 27 28  1  0  0  0
 27 55  1  0  0  0
 27 56  1  0  0  0
 28 29  1  0  0  0
 28 30  1  0  0  0
 30 31  1  0  0  0
 30 57  1  0  0  0
 31 32  2  0  0  0
 31 33  1  0  0  0
 33 38  2  0  0  0
 33 34  1  0  0  0
 34 35  2  0  0  0
 34 58  1  0  0  0
 35 36  1  0  0  0
 35 59  1  0  0  0
 36 37  2  0  0  0
 36 39  1  0  0  0
 37 38  1  0  0  0
 37 60  1  0  0  0
 38 61  1  0  0  0
 39 40  1  0  0  0
 39 41  1  0  0  0
 39 42  1  0  0  0
M  END
> <i_i_glide_confnum>
132

> <i_i_glide_lignum>
1014

> <i_i_glide_posenum>
218

> <i_i_glide_rotatable_bonds>
10

> <i_m_Source_File_Index>
3875

> <b_m_subgroup_collapsed>
0

> <r_i_docking_score>
-4.7852

> <r_i_glide_ecoul>
-4.42326

> <r_i_glide_eff_state_penalty>
0

> <r_i_glide_einternal>
9.68067

> <r_i_glide_emodel>
-55.4054

> <r_i_glide_energy>
-46.5066

> <r_i_glide_erotb>
0.663886

> <r_i_glide_esite>
-0.175674

> <r_i_glide_evdw>
-42.0833

> <r_i_glide_gscore>
-4.7852

> <r_i_glide_hbond>
-0.291872

> <r_i_glide_ligand_efficiency>
-0.125926

> <r_i_glide_ligand_efficiency_ln>
-1.03183

> <r_i_glide_ligand_efficiency_sa>
-0.423361

> <r_i_glide_lipo>
-3.03947

> <r_i_glide_metal>
0

> <r_i_glide_rewards>
0.825582

> <s_i_glide_gridfile>
wee1_glide-grid

> <s_m_Source_File>
wee1_decoys_glide_SP.sdf

> <s_m_Source_Path>
/Users/zhangxujun/Desktop

> <s_m_entry_id>
4150

> <s_m_entry_name>
wee1_decoys_glide_SP.3875

> <s_m_subgroup_title>
wee1_decoys_glide_SP

> <s_m_subgroupid>
wee1_decoys_glide_SP


$$$$
