ZINC21000919_431
                    3D
 Schrodinger Suite 2024-2.
 52 55  0  0  1  0            999 V2000
    6.4837   54.6253   26.9033 C   0  0  0  0  0  0
    6.1222   53.9826   28.0819 C   0  0  0  0  0  0
    4.8035   53.5833   28.2716 C   0  0  0  0  0  0
    3.8477   53.8255   27.2802 C   0  0  0  0  0  0
    4.2213   54.4959   26.1075 C   0  0  0  0  0  0
    5.5409   54.8934   25.9156 C   0  0  0  0  0  0
    2.4561   53.3257   27.4800 C   0  0  0  0  0  0
    1.7508   53.0800   28.6579 C   0  0  0  0  0  0
    0.4684   52.5168   28.4722 C   0  0  0  0  0  0
    0.1962   52.3370   27.1018 C   0  0  0  0  0  0
    1.5045   52.8967   26.0948 S   0  0  0  0  0  0
   -0.9463   51.7384   26.5798 N   0  0  0  0  0  0
   -1.3535   51.6229   25.2988 C   0  0  0  0  0  0
   -0.7925   52.1377   24.3301 O   0  0  0  0  0  0
   -2.5970   50.7326   25.0684 C   0  0  1  0  0  0
   -2.9668   50.5089   26.0719 H   0  0  0  0  0  0
   -3.6633   51.5023   24.2409 C   0  0  0  0  0  0
   -4.8883   50.6224   23.9329 C   0  0  0  0  0  0
   -4.4786   49.3000   23.2669 C   0  0  0  0  0  0
   -3.4657   48.5185   24.1221 C   0  0  0  0  0  0
   -2.3027   49.3451   24.5452 N   0  0  0  0  0  0
   -0.7146   48.5199   24.6745 S   0  0  0  0  0  0
    0.0612   49.0508   25.7987 O   0  0  0  0  0  0
   -0.8980   47.0760   24.4817 O   0  0  0  0  0  0
    0.0823   49.1206   23.1752 C   0  0  0  0  0  0
   -0.3472   48.8971   21.8725 C   0  0  0  0  0  0
    0.5028   49.4768   20.9235 C   0  0  0  0  0  0
    1.5673   50.1589   21.5022 C   0  0  0  0  0  0
    1.5077   50.0987   23.2337 S   0  0  0  0  0  0
    2.8430   50.9930   20.7099 Cl  0  0  0  0  0  0
   -0.4633   52.1573   29.5348 C   0  0  0  0  0  0
   -1.5681   51.6872   29.2817 O   0  0  0  0  0  0
   -0.0877   52.3824   30.7993 N   0  0  0  0  0  0
    7.5047   54.9212   26.7612 H   0  0  0  0  0  0
    6.8656   53.7894   28.8429 H   0  0  0  0  0  0
    4.5391   53.0643   29.1808 H   0  0  0  0  0  0
    3.4990   54.7014   25.3305 H   0  0  0  0  0  0
    5.8304   55.3988   25.0051 H   0  0  0  0  0  0
    2.1721   53.2908   29.6269 H   0  0  0  0  0  0
   -1.5388   51.3267   27.2900 H   0  0  0  0  0  0
   -4.0625   52.3423   24.8100 H   0  0  0  0  0  0
   -3.2640   51.8153   23.2732 H   0  0  0  0  0  0
   -5.4334   50.4130   24.8541 H   0  0  0  0  0  0
   -5.5827   51.1629   23.2872 H   0  0  0  0  0  0
   -5.3614   48.6843   23.0869 H   0  0  0  0  0  0
   -4.0441   49.4988   22.2862 H   0  0  0  0  0  0
   -3.9738   48.1956   25.0317 H   0  0  0  0  0  0
   -3.1192   47.6248   23.6046 H   0  0  0  0  0  0
   -1.2299   48.3253   21.6248 H   0  0  0  0  0  0
    0.3568   49.4040   19.8542 H   0  0  0  0  0  0
   -0.7148   52.0970   31.5546 H   0  0  0  0  0  0
    0.8040   52.7854   31.0240 H   0  0  0  0  0  0
  1  6  2  0  0  0
  1  2  1  0  0  0
  1 34  1  0  0  0
  2  3  2  0  0  0
  2 35  1  0  0  0
  3  4  1  0  0  0
  3 36  1  0  0  0
  4  5  2  0  0  0
  4  7  1  0  0  0
  5  6  1  0  0  0
  5 37  1  0  0  0
  6 38  1  0  0  0
  7 11  1  0  0  0
  7  8  2  0  0  0
  8  9  1  0  0  0
  8 39  1  0  0  0
  9 10  2  0  0  0
  9 31  1  0  0  0
 10 11  1  0  0  0
 10 12  1  0  0  0
 12 13  1  0  0  0
 12 40  1  0  0  0
 13 14  2  0  0  0
 13 15  1  0  0  0
 15 16  1  0  0  0
 15 21  1  0  0  0
 15 17  1  0  0  0
 17 18  1  0  0  0
 17 41  1  0  0  0
 17 42  1  0  0  0
 18 19  1  0  0  0
 18 43  1  0  0  0
 18 44  1  0  0  0
 19 20  1  0  0  0
 19 45  1  0  0  0
 19 46  1  0  0  0
 20 21  1  0  0  0
 20 47  1  0  0  0
 20 48  1  0  0  0
 21 22  1  0  0  0
 22 23  2  0  0  0
 22 24  2  0  0  0
 22 25  1  0  0  0
 25 29  1  0  0  0
 25 26  2  0  0  0
 26 27  1  0  0  0
 26 49  1  0  0  0
 27 28  2  0  0  0
 27 50  1  0  0  0
 28 29  1  0  0  0
 28 30  1  0  0  0
 31 32  2  0  0  0
 31 33  1  0  0  0
 33 51  1  0  0  0
 33 52  1  0  0  0
M  END
> <i_i_glide_confnum>
26

> <i_i_glide_lignum>
432

> <i_i_glide_posenum>
328

> <i_i_glide_rotatable_bonds>
7

> <i_m_Source_File_Index>
4831

> <b_m_subgroup_collapsed>
0

> <r_i_docking_score>
-4.49095

> <r_i_glide_ecoul>
-0.195392

> <r_i_glide_eff_state_penalty>
0

> <r_i_glide_einternal>
0.741698

> <r_i_glide_emodel>
-60.1312

> <r_i_glide_energy>
-46.4849

> <r_i_glide_erotb>
0.472429

> <r_i_glide_esite>
-0.422219

> <r_i_glide_evdw>
-46.2895

> <r_i_glide_gscore>
-4.49095

> <r_i_glide_hbond>
-0.16

> <r_i_glide_ligand_efficiency>
-0.140342

> <r_i_glide_ligand_efficiency_ln>
-1.00565

> <r_i_glide_ligand_efficiency_sa>
-0.445559

> <r_i_glide_lipo>
-2.66472

> <r_i_glide_metal>
0

> <r_i_glide_rewards>
0.627344

> <s_i_glide_gridfile>
wee1_glide-grid

> <s_m_Source_File>
wee1_decoys_glide_SP.sdf

> <s_m_Source_Path>
/Users/zhangxujun/Desktop

> <s_m_entry_id>
5106

> <s_m_entry_name>
wee1_decoys_glide_SP.4831

> <s_m_subgroup_title>
wee1_decoys_glide_SP

> <s_m_subgroupid>
wee1_decoys_glide_SP


$$$$
