ZINC00627478_540
                    3D
 Schrodinger Suite 2024-2.
 58 61  0  0  1  0            999 V2000
   -2.3711   48.5221   24.8869 C   0  0  0  0  0  0
   -2.8728   47.2323   24.7896 C   0  0  0  0  0  0
   -2.7327   46.5215   23.6013 C   0  0  0  0  0  0
   -2.0549   47.0690   22.4956 C   0  0  0  0  0  0
   -1.5213   48.3826   22.6022 C   0  0  0  0  0  0
   -1.7283   49.0973   23.7966 C   0  0  0  0  0  0
   -0.8183   49.0803   21.4425 C   0  0  0  0  0  0
   -1.3228   48.9896   20.3196 O   0  0  0  0  0  0
    0.3103   49.8152   21.6671 N   0  0  0  0  0  0
    1.1366   49.6974   22.8772 C   0  0  0  0  0  0
    1.3606   51.1424   23.3663 C   0  0  0  0  0  0
    2.0045   52.0625   22.4038 N   0  0  0  0  0  0
    2.0716   51.5015   21.0379 C   0  0  0  0  0  0
    0.8716   50.6263   20.5655 C   0  0  0  0  0  0
    2.9393   52.9877   22.8818 C   0  0  0  0  0  0
    4.1105   53.2876   22.1653 C   0  0  0  0  0  0
    5.1366   54.0251   22.7537 C   0  0  0  0  0  0
    4.9919   54.4966   24.0559 C   0  0  0  0  0  0
    3.7959   54.3057   24.7410 C   0  0  0  0  0  0
    2.7721   53.5698   24.1495 C   0  0  0  0  0  0
    6.3051   55.3079   24.8315 Cl  0  0  0  0  0  0
   -1.8959   46.3595   21.2782 N   0  0  0  0  0  0
   -2.2488   45.1006   20.9256 C   0  0  0  0  0  0
   -2.7786   44.2834   21.6817 O   0  0  0  0  0  0
   -2.0128   44.7262   19.4384 C   0  0  2  0  0  0
   -2.2147   45.6765   18.9393 H   0  0  0  0  0  0
   -3.0428   43.7059   18.8747 C   0  0  0  0  0  0
   -2.6836   43.3498   17.4325 C   0  0  0  0  0  0
   -1.5227   43.6837   16.8277 C   0  0  0  0  0  0
   -0.3651   44.4132   17.5170 C   0  0  0  0  0  0
   -0.5275   44.3860   19.0711 C   0  0  2  0  0  0
    0.1651   45.1013   19.5177 H   0  0  0  0  0  0
   -0.0594   43.0239   19.6742 C   0  0  0  0  0  0
    0.3047   42.0966   18.9167 O   0  0  0  0  0  0
   -0.0957   42.8952   20.9153 O   0  5  0  0  0  0
   -2.4882   49.0779   25.8072 H   0  0  0  0  0  0
   -3.3862   46.7933   25.6330 H   0  0  0  0  0  0
   -3.1883   45.5501   23.5669 H   0  0  0  0  0  0
   -1.3821   50.1157   23.8985 H   0  0  0  0  0  0
    0.7045   49.0797   23.6628 H   0  0  0  0  0  0
    2.0969   49.2341   22.6432 H   0  0  0  0  0  0
    1.9107   51.1049   24.3049 H   0  0  0  0  0  0
    0.3936   51.5878   23.6043 H   0  0  0  0  0  0
    2.9348   50.8339   21.0579 H   0  0  0  0  0  0
    2.2391   52.2977   20.3113 H   0  0  0  0  0  0
    1.1733   50.0194   19.7107 H   0  0  0  0  0  0
    0.0962   51.3321   20.2641 H   0  0  0  0  0  0
    4.2750   52.8839   21.1782 H   0  0  0  0  0  0
    6.0570   54.1963   22.2149 H   0  0  0  0  0  0
    3.6747   54.6933   25.7416 H   0  0  0  0  0  0
    1.8696   53.3939   24.7158 H   0  0  0  0  0  0
   -1.4661   46.9221   20.5563 H   0  0  0  0  0  0
   -4.0586   44.0964   18.9522 H   0  0  0  0  0  0
   -3.0292   42.7815   19.4546 H   0  0  0  0  0  0
   -3.4134   42.8152   16.8424 H   0  0  0  0  0  0
   -1.3996   43.3981   15.7930 H   0  0  0  0  0  0
    0.5881   43.9807   17.2081 H   0  0  0  0  0  0
   -0.3490   45.4435   17.1601 H   0  0  0  0  0  0
  1  6  2  0  0  0
  1  2  1  0  0  0
  1 36  1  0  0  0
  2  3  2  0  0  0
  2 37  1  0  0  0
  3  4  1  0  0  0
  3 38  1  0  0  0
  4  5  2  0  0  0
  4 22  1  0  0  0
  5  6  1  0  0  0
  5  7  1  0  0  0
  6 39  1  0  0  0
  7  8  2  0  0  0
  7  9  1  0  0  0
  9 14  1  0  0  0
  9 10  1  0  0  0
 10 11  1  0  0  0
 10 40  1  0  0  0
 10 41  1  0  0  0
 11 12  1  0  0  0
 11 42  1  0  0  0
 11 43  1  0  0  0
 12 13  1  0  0  0
 12 15  1  0  0  0
 13 14  1  0  0  0
 13 44  1  0  0  0
 13 45  1  0  0  0
 14 46  1  0  0  0
 14 47  1  0  0  0
 15 20  2  0  0  0
 15 16  1  0  0  0
 16 17  2  0  0  0
 16 48  1  0  0  0
 17 18  1  0  0  0
 17 49  1  0  0  0
 18 19  2  0  0  0
 18 21  1  0  0  0
 19 20  1  0  0  0
 19 50  1  0  0  0
 20 51  1  0  0  0
 22 23  1  0  0  0
 22 52  1  0  0  0
 23 24  2  0  0  0
 23 25  1  0  0  0
 25 26  1  0  0  0
 25 31  1  0  0  0
 25 27  1  0  0  0
 27 28  1  0  0  0
 27 53  1  0  0  0
 27 54  1  0  0  0
 28 29  2  0  0  0
 28 55  1  0  0  0
 29 30  1  0  0  0
 29 56  1  0  0  0
 30 31  1  0  0  0
 30 57  1  0  0  0
 30 58  1  0  0  0
 31 32  1  0  0  0
 31 33  1  0  0  0
 33 34  2  0  0  0
 33 35  1  0  0  0
M  CHG  1  35  -1
M  END
> <i_i_glide_confnum>
242

> <i_i_glide_lignum>
541

> <i_i_glide_posenum>
123

> <i_i_glide_rotatable_bonds>
7

> <i_m_Source_File_Index>
2516

> <b_m_subgroup_collapsed>
0

> <r_i_docking_score>
-4.81948

> <r_i_glide_ecoul>
-7.06511

> <r_i_glide_eff_state_penalty>
0

> <r_i_glide_einternal>
4.04273

> <r_i_glide_emodel>
-57.1587

> <r_i_glide_energy>
-39.9913

> <r_i_glide_erotb>
0.555297

> <r_i_glide_esite>
-0.09227

> <r_i_glide_evdw>
-32.9262

> <r_i_glide_gscore>
-4.81948

> <r_i_glide_hbond>
-0.510642

> <r_i_glide_ligand_efficiency>
-0.146045

> <r_i_glide_ligand_efficiency_ln>
-1.07183

> <r_i_glide_ligand_efficiency_sa>
-0.468444

> <r_i_glide_lipo>
-1.65791

> <r_i_glide_metal>
0

> <r_i_glide_rewards>
-0.407884

> <s_i_glide_gridfile>
wee1_glide-grid

> <s_m_Source_File>
wee1_decoys_glide_SP.sdf

> <s_m_Source_Path>
/Users/zhangxujun/Desktop

> <s_m_entry_id>
2791

> <s_m_entry_name>
wee1_decoys_glide_SP.2516

> <s_m_subgroup_title>
wee1_decoys_glide_SP

> <s_m_subgroupid>
wee1_decoys_glide_SP


$$$$
