ZINC35338193_5998
                    3D
 Schrodinger Suite 2024-2.
 74 79  0  0  1  0            999 V2000
   -1.3005   51.6355   29.5619 C   0  0  0  0  0  0
   -0.6366   51.7208   28.1960 C   0  0  0  0  0  0
   -1.3712   51.2967   27.0840 C   0  0  0  0  0  0
   -0.8113   51.3168   25.8113 C   0  0  0  0  0  0
    0.4963   51.7547   25.6406 C   0  0  0  0  0  0
    1.2302   52.1856   26.7434 C   0  0  0  0  0  0
    0.6821   52.1925   28.0356 C   0  0  0  0  0  0
    1.4635   52.7693   29.2377 C   0  0  0  0  0  0
    3.0067   52.6949   29.1641 C   0  0  0  0  0  0
    3.5389   51.7107   29.6824 O   0  0  0  0  0  0
    3.7283   53.6659   28.5345 N   0  0  0  0  0  0
    5.1975   53.5432   28.4094 C   0  0  0  0  0  0
    5.7052   54.1527   27.0672 C   0  0  0  0  0  0
    4.7044   54.2238   25.9896 N   0  0  0  0  0  0
    3.5037   54.9471   26.4388 C   0  0  0  0  0  0
    3.1541   54.8904   27.9550 C   0  0  0  0  0  0
    5.0218   54.2738   24.6349 C   0  0  0  0  0  0
    4.0315   53.9971   23.6805 C   0  0  0  0  0  0
    4.2984   54.0956   22.3183 C   0  0  0  0  0  0
    5.5584   54.5052   21.8940 C   0  0  0  0  0  0
    6.5721   54.7442   22.8324 C   0  0  0  0  0  0
    6.3038   54.6246   24.1923 C   0  0  0  0  0  0
    5.7577   54.6475   20.5129 N   0  0  0  0  0  0
    6.5519   55.5524   19.9109 C   0  0  0  0  0  0
    7.1044   56.4955   20.4817 O   0  0  0  0  0  0
    6.7392   55.2388   18.6195 N   0  0  0  0  0  0
    7.9450   55.4816   17.8150 C   0  0  0  0  0  0
    8.2122   57.0026   17.5581 C   0  0  0  0  0  0
    9.4611   57.2147   16.6618 C   0  0  1  0  0  0
   10.7018   56.5989   17.3591 C   0  0  0  0  0  0
   10.4782   55.0793   17.5773 C   0  0  1  0  0  0
    9.2286   54.8646   18.4687 C   0  0  0  0  0  0
   10.2535   54.3870   16.2104 C   0  0  0  0  0  0
    9.0105   55.0014   15.5179 C   0  0  2  0  0  0
    9.2383   56.5183   15.2950 C   0  0  0  0  0  0
    7.7663   54.7998   16.4225 C   0  0  0  0  0  0
   -1.2699   52.5976   30.0666 H   0  0  0  0  0  0
   -2.3356   51.2988   29.4946 H   0  0  0  0  0  0
   -0.7851   50.9172   30.1936 H   0  0  0  0  0  0
   -2.3769   50.9211   27.2072 H   0  0  0  0  0  0
   -1.3866   50.9717   24.9663 H   0  0  0  0  0  0
    0.9437   51.7549   24.6586 H   0  0  0  0  0  0
    2.2483   52.4921   26.5752 H   0  0  0  0  0  0
    1.1326   53.7897   29.4211 H   0  0  0  0  0  0
    1.1862   52.2264   30.1421 H   0  0  0  0  0  0
    5.7311   53.9838   29.2488 H   0  0  0  0  0  0
    5.4286   52.4803   28.3331 H   0  0  0  0  0  0
    6.6020   53.6259   26.7389 H   0  0  0  0  0  0
    5.9899   55.1882   27.2581 H   0  0  0  0  0  0
    2.6672   54.4686   25.9354 H   0  0  0  0  0  0
    3.5643   55.9813   26.0819 H   0  0  0  0  0  0
    2.0994   55.0769   28.1386 H   0  0  0  0  0  0
    3.6750   55.6964   28.4717 H   0  0  0  0  0  0
    3.0387   53.7025   23.9843 H   0  0  0  0  0  0
    3.5134   53.8932   21.6039 H   0  0  0  0  0  0
    7.5615   55.0405   22.5169 H   0  0  0  0  0  0
    7.0958   54.8447   24.8903 H   0  0  0  0  0  0
    5.2005   54.0448   19.9233 H   0  0  0  0  0  0
    6.0331   54.6821   18.1640 H   0  0  0  0  0  0
    7.3399   57.4640   17.0926 H   0  0  0  0  0  0
    8.3595   57.5347   18.4979 H   0  0  0  0  0  0
    9.6219   58.2820   16.5055 H   0  0  0  0  0  0
   11.5964   56.7640   16.7562 H   0  0  0  0  0  0
   10.8859   57.0930   18.3146 H   0  0  0  0  0  0
   11.3509   54.6460   18.0689 H   0  0  0  0  0  0
    9.4076   55.3067   19.4502 H   0  0  0  0  0  0
    9.0868   53.7973   18.6467 H   0  0  0  0  0  0
   11.1352   54.5012   15.5776 H   0  0  0  0  0  0
   10.1200   53.3117   16.3482 H   0  0  0  0  0  0
    8.8480   54.5096   14.5566 H   0  0  0  0  0  0
    8.3823   56.9595   14.7804 H   0  0  0  0  0  0
   10.0998   56.6787   14.6430 H   0  0  0  0  0  0
    7.5747   53.7317   16.5475 H   0  0  0  0  0  0
    6.8840   55.2018   15.9193 H   0  0  0  0  0  0
  1  2  1  0  0  0
  1 37  1  0  0  0
  1 38  1  0  0  0
  1 39  1  0  0  0
  2  7  2  0  0  0
  2  3  1  0  0  0
  3  4  2  0  0  0
  3 40  1  0  0  0
  4  5  1  0  0  0
  4 41  1  0  0  0
  5  6  2  0  0  0
  5 42  1  0  0  0
  6  7  1  0  0  0
  6 43  1  0  0  0
  7  8  1  0  0  0
  8  9  1  0  0  0
  8 44  1  0  0  0
  8 45  1  0  0  0
  9 10  2  0  0  0
  9 11  1  0  0  0
 11 16  1  0  0  0
 11 12  1  0  0  0
 12 13  1  0  0  0
 12 46  1  0  0  0
 12 47  1  0  0  0
 13 14  1  0  0  0
 13 48  1  0  0  0
 13 49  1  0  0  0
 14 15  1  0  0  0
 14 17  1  0  0  0
 15 16  1  0  0  0
 15 50  1  0  0  0
 15 51  1  0  0  0
 16 52  1  0  0  0
 16 53  1  0  0  0
 17 22  2  0  0  0
 17 18  1  0  0  0
 18 19  2  0  0  0
 18 54  1  0  0  0
 19 20  1  0  0  0
 19 55  1  0  0  0
 20 21  2  0  0  0
 20 23  1  0  0  0
 21 22  1  0  0  0
 21 56  1  0  0  0
 22 57  1  0  0  0
 23 24  1  0  0  0
 23 58  1  0  0  0
 24 25  2  0  0  0
 24 26  1  0  0  0
 26 27  1  0  0  0
 26 59  1  0  0  0
 27 32  1  0  0  0
 27 36  1  0  0  0
 27 28  1  0  0  0
 28 29  1  0  0  0
 28 60  1  0  0  0
 28 61  1  0  0  0
 29 35  1  0  0  0
 29 30  1  0  0  0
 29 62  1  0  0  0
 30 31  1  0  0  0
 30 63  1  0  0  0
 30 64  1  0  0  0
 31 32  1  0  0  0
 31 33  1  0  0  0
 31 65  1  0  0  0
 32 66  1  0  0  0
 32 67  1  0  0  0
 33 34  1  0  0  0
 33 68  1  0  0  0
 33 69  1  0  0  0
 34 35  1  0  0  0
 34 36  1  0  0  0
 34 70  1  0  0  0
 35 71  1  0  0  0
 35 72  1  0  0  0
 36 73  1  0  0  0
 36 74  1  0  0  0
M  END
> <i_i_glide_confnum>
278

> <i_i_glide_lignum>
5999

> <i_i_glide_posenum>
361

> <i_i_glide_rotatable_bonds>
8

> <i_m_Source_File_Index>
3034

> <b_m_subgroup_collapsed>
0

> <r_i_docking_score>
-7.10978

> <r_i_glide_ecoul>
-6.64838

> <r_i_glide_eff_state_penalty>
0

> <r_i_glide_einternal>
14.8983

> <r_i_glide_emodel>
-62.4553

> <r_i_glide_energy>
-50.6736

> <r_i_glide_erotb>
0.600719

> <r_i_glide_esite>
0

> <r_i_glide_evdw>
-44.0252

> <r_i_glide_gscore>
-7.10978

> <r_i_glide_hbond>
-0.565469

> <r_i_glide_ligand_efficiency>
-0.197494

> <r_i_glide_ligand_efficiency_ln>
-1.55116

> <r_i_glide_ligand_efficiency_sa>
-0.65211

> <r_i_glide_lipo>
-3.04559

> <r_i_glide_metal>
0

> <r_i_glide_rewards>
-0.900917

> <s_i_glide_gridfile>
wee1_glide-grid

> <s_m_Source_File>
wee1_decoys_glide_SP.sdf

> <s_m_Source_Path>
/Users/zhangxujun/Desktop

> <s_m_entry_id>
3309

> <s_m_entry_name>
wee1_decoys_glide_SP.3034

> <s_m_subgroup_title>
wee1_decoys_glide_SP

> <s_m_subgroupid>
wee1_decoys_glide_SP


$$$$
