ZINC14644379_3525
                    3D
 Schrodinger Suite 2024-2.
 57 59  0  0  1  0            999 V2000
    3.9115   52.8971   15.7362 C   0  0  0  0  0  0
    4.9627   53.4317   16.7235 C   0  0  2  0  0  0
    5.6994   52.6382   16.8735 H   0  0  0  0  0  0
    4.3067   53.8356   18.0658 C   0  0  0  0  0  0
    3.8359   54.9663   18.2167 O   0  0  0  0  0  0
    4.3518   52.8970   19.0374 N   0  0  0  0  0  0
    4.0460   53.2020   20.3779 N   0  0  0  0  0  0
    4.8947   53.9636   21.1142 C   0  0  0  0  0  0
    5.9063   54.4977   20.6531 O   0  0  0  0  0  0
    4.5938   54.0973   22.5894 C   0  0  0  0  0  0
    3.2935   53.9622   23.0990 C   0  0  0  0  0  0
    3.0645   54.0713   24.4700 C   0  0  0  0  0  0
    4.1199   54.3137   25.3511 C   0  0  0  0  0  0
    5.4133   54.4907   24.8403 C   0  0  0  0  0  0
    5.6453   54.3749   23.4745 C   0  0  0  0  0  0
    3.7904   54.3398   26.7210 N   0  0  0  0  0  0
    4.5938   54.3811   27.8076 C   0  0  0  0  0  0
    5.8256   54.4240   27.7583 O   0  0  0  0  0  0
    3.9204   54.2849   29.2060 C   0  0  0  0  0  0
    2.5705   55.0686   29.2753 C   0  0  0  0  0  0
    1.3183   54.3407   28.7341 C   0  0  0  0  0  0
    1.2295   52.8793   29.2154 C   0  0  0  0  0  0
    2.5240   52.0990   28.9231 C   0  0  0  0  0  0
    3.7468   52.7837   29.5686 C   0  0  0  0  0  0
    5.5852   54.5619   16.0878 O   0  0  0  0  0  0
    6.6388   55.2377   16.6848 C   0  0  0  0  0  0
    7.4196   54.7094   17.7288 C   0  0  0  0  0  0
    8.4441   55.4638   18.3031 C   0  0  0  0  0  0
    8.7054   56.7518   17.8392 C   0  0  0  0  0  0
    7.9438   57.2833   16.7985 C   0  0  0  0  0  0
    6.9199   56.5305   16.2228 C   0  0  0  0  0  0
    5.8946   57.2991   14.8111 Br  0  0  0  0  0  0
    9.9668   57.6905   18.5488 Cl  0  0  0  0  0  0
    3.4253   51.9977   16.1180 H   0  0  0  0  0  0
    3.1402   53.6394   15.5276 H   0  0  0  0  0  0
    4.3753   52.6290   14.7866 H   0  0  0  0  0  0
    4.7826   51.9842   18.9133 H   0  0  0  0  0  0
    3.0628   53.1029   20.5833 H   0  0  0  0  0  0
    2.4505   53.7746   22.4482 H   0  0  0  0  0  0
    2.0573   53.9481   24.8417 H   0  0  0  0  0  0
    6.2605   54.6975   25.4727 H   0  0  0  0  0  0
    6.6566   54.4993   23.1111 H   0  0  0  0  0  0
    2.8084   54.2312   26.9205 H   0  0  0  0  0  0
    4.6504   54.7952   29.8382 H   0  0  0  0  0  0
    2.4155   55.3555   30.3153 H   0  0  0  0  0  0
    2.6866   56.0688   28.8520 H   0  0  0  0  0  0
    0.4266   54.8849   29.0462 H   0  0  0  0  0  0
    1.3011   54.3638   27.6448 H   0  0  0  0  0  0
    1.0243   52.8577   30.2870 H   0  0  0  0  0  0
    0.3848   52.3820   28.7363 H   0  0  0  0  0  0
    2.4333   51.0742   29.2818 H   0  0  0  0  0  0
    2.6688   52.0205   27.8449 H   0  0  0  0  0  0
    4.6733   52.2334   29.3885 H   0  0  0  0  0  0
    3.7149   52.7064   30.6558 H   0  0  0  0  0  0
    7.2399   53.7162   18.1099 H   0  0  0  0  0  0
    9.0325   55.0473   19.1092 H   0  0  0  0  0  0
    8.1407   58.2840   16.4426 H   0  0  0  0  0  0
  1  2  1  0  0  0
  1 34  1  0  0  0
  1 35  1  0  0  0
  1 36  1  0  0  0
  2  3  1  0  0  0
  2  4  1  0  0  0
  2 25  1  0  0  0
  4  5  2  0  0  0
  4  6  1  0  0  0
  6  7  1  0  0  0
  6 37  1  0  0  0
  7  8  1  0  0  0
  7 38  1  0  0  0
  8  9  2  0  0  0
  8 10  1  0  0  0
 10 15  2  0  0  0
 10 11  1  0  0  0
 11 12  2  0  0  0
 11 39  1  0  0  0
 12 13  1  0  0  0
 12 40  1  0  0  0
 13 14  2  0  0  0
 13 16  1  0  0  0
 14 15  1  0  0  0
 14 41  1  0  0  0
 15 42  1  0  0  0
 16 17  1  0  0  0
 16 43  1  0  0  0
 17 18  2  0  0  0
 17 19  1  0  0  0
 19 24  1  0  0  0
 19 20  1  0  0  0
 19 44  1  0  0  0
 20 21  1  0  0  0
 20 45  1  0  0  0
 20 46  1  0  0  0
 21 22  1  0  0  0
 21 47  1  0  0  0
 21 48  1  0  0  0
 22 23  1  0  0  0
 22 49  1  0  0  0
 22 50  1  0  0  0
 23 24  1  0  0  0
 23 51  1  0  0  0
 23 52  1  0  0  0
 24 53  1  0  0  0
 24 54  1  0  0  0
 25 26  1  0  0  0
 26 31  2  0  0  0
 26 27  1  0  0  0
 27 28  2  0  0  0
 27 55  1  0  0  0
 28 29  1  0  0  0
 28 56  1  0  0  0
 29 30  2  0  0  0
 29 33  1  0  0  0
 30 31  1  0  0  0
 30 57  1  0  0  0
 31 32  1  0  0  0
M  END
> <i_i_glide_confnum>
129

> <i_i_glide_lignum>
3526

> <i_i_glide_posenum>
103

> <i_i_glide_rotatable_bonds>
10

> <i_m_Source_File_Index>
5996

> <b_m_subgroup_collapsed>
0

> <r_i_docking_score>
-5.57025

> <r_i_glide_ecoul>
-2.23362

> <r_i_glide_eff_state_penalty>
0

> <r_i_glide_einternal>
13.4704

> <r_i_glide_emodel>
-61.0533

> <r_i_glide_energy>
-48.5397

> <r_i_glide_erotb>
0.677166

> <r_i_glide_esite>
-0.0995457

> <r_i_glide_evdw>
-46.3061

> <r_i_glide_gscore>
-5.57025

> <r_i_glide_hbond>
-0.16

> <r_i_glide_ligand_efficiency>
-0.17407

> <r_i_glide_ligand_efficiency_ln>
-1.24733

> <r_i_glide_ligand_efficiency_sa>
-0.552638

> <r_i_glide_lipo>
-2.80142

> <r_i_glide_metal>
0

> <r_i_glide_rewards>
-0.536094

> <s_i_glide_gridfile>
wee1_glide-grid

> <s_m_Source_File>
wee1_decoys_glide_SP.sdf

> <s_m_Source_Path>
/Users/zhangxujun/Desktop

> <s_m_entry_id>
6271

> <s_m_entry_name>
wee1_decoys_glide_SP.5996

> <s_m_subgroup_title>
wee1_decoys_glide_SP

> <s_m_subgroupid>
wee1_decoys_glide_SP


$$$$
