ZINC16098466_2042
                    3D
 Schrodinger Suite 2024-2.
 63 65  0  0  1  0            999 V2000
    3.3955   51.0058   20.1491 C   0  0  0  0  0  0
    2.2745   50.9194   21.1946 C   0  0  0  0  0  0
    2.1797   51.8871   22.2060 C   0  0  0  0  0  0
    1.0892   51.8776   23.1037 C   0  0  0  0  0  0
    0.0759   50.8866   22.9977 C   0  0  0  0  0  0
    0.1774   49.9293   21.9496 C   0  0  0  0  0  0
    1.3072   49.9081   21.1036 C   0  0  0  0  0  0
    1.5172   48.7622   20.1007 C   0  0  0  0  0  0
   -0.9584   48.9468   21.6439 C   0  0  0  0  0  0
   -1.3264   50.8501   24.2104 S   0  0  0  0  0  0
   -1.9220   52.1882   24.2912 O   0  0  0  0  0  0
   -2.2091   49.7137   23.9398 O   0  0  0  0  0  0
   -0.6334   50.4217   25.7926 N   0  0  0  0  0  0
   -0.0777   51.2965   26.7321 C   0  0  0  0  0  0
    1.0710   50.8894   27.3983 C   0  0  0  0  0  0
    1.6305   51.6479   28.4140 C   0  0  0  0  0  0
    1.0606   52.8712   28.7362 C   0  0  0  0  0  0
   -0.0956   53.2953   28.0816 C   0  0  0  0  0  0
   -0.6787   52.4968   27.0960 C   0  0  0  0  0  0
    1.7575   53.8291   30.0746 S   0  0  0  0  0  0
    0.9212   55.0301   30.1664 O   0  0  0  0  0  0
    1.5835   52.8839   31.1809 O   0  0  0  0  0  0
    3.4628   54.1383   29.6530 N   0  0  0  0  0  0
    4.0278   54.0969   28.5106 C   0  0  0  0  0  0
    3.4703   53.8446   27.0979 C   0  0  0  0  0  0
    4.0247   54.6696   25.9182 C   0  0  0  0  0  0
    5.4179   54.3262   25.3798 C   0  0  0  0  0  0
    6.5816   54.5544   26.3519 C   0  0  0  0  0  0
    6.4631   53.8237   27.6965 C   0  0  0  0  0  0
    5.3911   54.3247   28.5481 N   0  0  0  0  0  0
    1.0487   52.9841   24.1651 C   0  0  0  0  0  0
    3.3034   52.9254   22.3521 C   0  0  0  0  0  0
    3.6462   52.0384   19.9096 H   0  0  0  0  0  0
    3.1041   50.5894   19.1843 H   0  0  0  0  0  0
    4.2957   50.5017   20.4970 H   0  0  0  0  0  0
    1.1366   47.8144   20.4780 H   0  0  0  0  0  0
    1.0389   48.9840   19.1461 H   0  0  0  0  0  0
    2.5733   48.5559   19.9257 H   0  0  0  0  0  0
   -1.9109   49.4745   21.6222 H   0  0  0  0  0  0
   -0.9177   48.4998   20.6529 H   0  0  0  0  0  0
   -1.0010   48.1492   22.3859 H   0  0  0  0  0  0
   -0.5496   49.4333   25.9860 H   0  0  0  0  0  0
    1.5043   49.9278   27.1720 H   0  0  0  0  0  0
    2.5028   51.2895   28.9405 H   0  0  0  0  0  0
   -0.5548   54.2327   28.3483 H   0  0  0  0  0  0
   -1.5970   52.8191   26.6301 H   0  0  0  0  0  0
    3.5219   52.7840   26.8607 H   0  0  0  0  0  0
    2.4181   54.1103   27.0990 H   0  0  0  0  0  0
    3.3138   54.6300   25.0938 H   0  0  0  0  0  0
    4.0297   55.7000   26.2153 H   0  0  0  0  0  0
    5.6004   54.9219   24.4839 H   0  0  0  0  0  0
    5.4261   53.2974   25.0380 H   0  0  0  0  0  0
    6.6975   55.6232   26.5374 H   0  0  0  0  0  0
    7.5022   54.2415   25.8607 H   0  0  0  0  0  0
    7.4134   53.8497   28.2316 H   0  0  0  0  0  0
    6.2458   52.7705   27.5118 H   0  0  0  0  0  0
    5.7237   54.5790   29.4671 H   0  0  0  0  0  0
    1.3893   53.9317   23.7485 H   0  0  0  0  0  0
    0.0739   53.2422   24.5480 H   0  0  0  0  0  0
    1.6981   52.7263   25.0007 H   0  0  0  0  0  0
    3.5005   53.1616   23.3943 H   0  0  0  0  0  0
    4.2657   52.5626   21.9926 H   0  0  0  0  0  0
    3.0495   53.8458   21.8236 H   0  0  0  0  0  0
  1  2  1  0  0  0
  1 33  1  0  0  0
  1 34  1  0  0  0
  1 35  1  0  0  0
  2  7  2  0  0  0
  2  3  1  0  0  0
  3  4  2  0  0  0
  3 32  1  0  0  0
  4  5  1  0  0  0
  4 31  1  0  0  0
  5  6  2  0  0  0
  5 10  1  0  0  0
  6  7  1  0  0  0
  6  9  1  0  0  0
  7  8  1  0  0  0
  8 36  1  0  0  0
  8 37  1  0  0  0
  8 38  1  0  0  0
  9 39  1  0  0  0
  9 40  1  0  0  0
  9 41  1  0  0  0
 10 11  2  0  0  0
 10 12  2  0  0  0
 10 13  1  0  0  0
 13 14  1  0  0  0
 13 42  1  0  0  0
 14 19  2  0  0  0
 14 15  1  0  0  0
 15 16  2  0  0  0
 15 43  1  0  0  0
 16 17  1  0  0  0
 16 44  1  0  0  0
 17 18  2  0  0  0
 17 20  1  0  0  0
 18 19  1  0  0  0
 18 45  1  0  0  0
 19 46  1  0  0  0
 20 21  2  0  0  0
 20 22  2  0  0  0
 20 23  1  0  0  0
 23 24  2  0  0  0
 24 30  1  0  0  0
 24 25  1  0  0  0
 25 26  1  0  0  0
 25 47  1  0  0  0
 25 48  1  0  0  0
 26 27  1  0  0  0
 26 49  1  0  0  0
 26 50  1  0  0  0
 27 28  1  0  0  0
 27 51  1  0  0  0
 27 52  1  0  0  0
 28 29  1  0  0  0
 28 53  1  0  0  0
 28 54  1  0  0  0
 29 30  1  0  0  0
 29 55  1  0  0  0
 29 56  1  0  0  0
 30 57  1  0  0  0
 31 58  1  0  0  0
 31 59  1  0  0  0
 31 60  1  0  0  0
 32 61  1  0  0  0
 32 62  1  0  0  0
 32 63  1  0  0  0
M  END
> <i_i_glide_confnum>
36

> <i_i_glide_lignum>
2043

> <i_i_glide_posenum>
295

> <i_i_glide_rotatable_bonds>
5

> <i_m_Source_File_Index>
2922

> <b_m_subgroup_collapsed>
0

> <r_i_docking_score>
-4.51535

> <r_i_glide_ecoul>
-2.21197

> <r_i_glide_eff_state_penalty>
0

> <r_i_glide_einternal>
2.97226

> <r_i_glide_emodel>
-51.7105

> <r_i_glide_energy>
-44.7569

> <r_i_glide_erotb>
0.443992

> <r_i_glide_esite>
-0.118795

> <r_i_glide_evdw>
-42.5449

> <r_i_glide_gscore>
-4.51535

> <r_i_glide_hbond>
-0.170403

> <r_i_glide_ligand_efficiency>
-0.141105

> <r_i_glide_ligand_efficiency_ln>
-1.01111

> <r_i_glide_ligand_efficiency_sa>
-0.447979

> <r_i_glide_lipo>
-2.35824

> <r_i_glide_metal>
0

> <r_i_glide_rewards>
0.147139

> <s_i_glide_gridfile>
wee1_glide-grid

> <s_m_Source_File>
wee1_decoys_glide_SP.sdf

> <s_m_Source_Path>
/Users/zhangxujun/Desktop

> <s_m_entry_id>
3197

> <s_m_entry_name>
wee1_decoys_glide_SP.2922

> <s_m_subgroup_title>
wee1_decoys_glide_SP

> <s_m_subgroupid>
wee1_decoys_glide_SP


$$$$
