ZINC36218362_5507
                    3D
 Schrodinger Suite 2024-2.
 59 63  0  0  1  0            999 V2000
    0.2223   48.7556   19.2416 C   0  0  0  0  0  0
   -0.0491   48.9262   20.5986 C   0  0  0  0  0  0
    0.8627   49.6026   21.4050 C   0  0  0  0  0  0
    2.0335   50.1234   20.8484 C   0  0  0  0  0  0
    2.3042   49.9371   19.4912 C   0  0  0  0  0  0
    1.3993   49.2538   18.6859 C   0  0  0  0  0  0
    3.0726   50.7931   21.7355 C   0  0  0  0  0  0
    2.9132   52.2335   21.9750 N   0  0  0  0  0  0
    4.0535   53.1388   22.0208 C   0  0  2  0  0  0
    4.9280   52.6403   22.4402 H   0  0  0  0  0  0
    3.5755   54.2668   22.9363 C   0  0  1  0  0  0
    3.6856   55.2550   22.4796 H   0  0  0  0  0  0
    2.1843   54.0200   23.0488 O   0  0  0  0  0  0
    1.7939   52.8166   22.5747 C   0  0  0  0  0  0
    0.6399   52.4112   22.6972 O   0  0  0  0  0  0
    4.3325   54.3177   24.2682 C   0  0  0  0  0  0
    5.7094   54.5610   24.2530 C   0  0  0  0  0  0
    6.4407   54.5685   25.4378 C   0  0  0  0  0  0
    5.8049   54.3311   26.6558 C   0  0  0  0  0  0
    4.4272   54.0989   26.6957 C   0  0  0  0  0  0
    3.6942   54.0965   25.4962 C   0  0  0  0  0  0
    3.8667   53.7946   27.9481 N   0  0  0  0  0  0
    2.5788   53.9226   28.3353 C   0  0  0  0  0  0
    1.7063   54.4961   27.6818 O   0  0  0  0  0  0
    2.2765   53.3113   29.6094 C   0  0  0  0  0  0
    3.0917   52.5348   30.4437 C   0  0  0  0  0  0
    2.4302   52.0967   31.5957 C   0  0  0  0  0  0
    1.1043   52.4968   31.6425 C   0  0  0  0  0  0
    0.6665   53.4546   30.2694 S   0  0  0  0  0  0
    4.5117   53.6952   20.6524 C   0  0  0  0  0  0
    5.5059   54.4217   20.6364 O   0  0  0  0  0  0
    3.8321   53.3321   19.5438 N   0  0  0  0  0  0
    4.0350   53.7939   18.2334 C   0  0  0  0  0  0
    4.4137   55.1140   17.9464 C   0  0  0  0  0  0
    4.5648   55.5201   16.6217 C   0  0  0  0  0  0
    4.3354   54.6119   15.5908 C   0  0  0  0  0  0
    3.9472   53.3045   15.8696 C   0  0  0  0  0  0
    3.7884   52.8970   17.1918 C   0  0  0  0  0  0
    4.4871   55.0053   14.3046 F   0  0  0  0  0  0
   -0.4813   48.2258   18.6168 H   0  0  0  0  0  0
   -0.9595   48.5319   21.0250 H   0  0  0  0  0  0
    0.6582   49.7238   22.4589 H   0  0  0  0  0  0
    3.2231   50.3012   19.0564 H   0  0  0  0  0  0
    1.6219   49.1047   17.6376 H   0  0  0  0  0  0
    4.0519   50.6264   21.2843 H   0  0  0  0  0  0
    3.1030   50.2698   22.6920 H   0  0  0  0  0  0
    6.2224   54.7332   23.3166 H   0  0  0  0  0  0
    7.5046   54.7401   25.4023 H   0  0  0  0  0  0
    6.3900   54.3242   27.5647 H   0  0  0  0  0  0
    2.6370   53.8793   25.5060 H   0  0  0  0  0  0
    4.5081   53.4031   28.6178 H   0  0  0  0  0  0
    4.1252   52.2974   30.2386 H   0  0  0  0  0  0
    2.8949   51.5046   32.3725 H   0  0  0  0  0  0
    0.3693   52.2861   32.4090 H   0  0  0  0  0  0
    3.1408   52.6056   19.6496 H   0  0  0  0  0  0
    4.5795   55.8306   18.7373 H   0  0  0  0  0  0
    4.8557   56.5352   16.3951 H   0  0  0  0  0  0
    3.7706   52.6066   15.0648 H   0  0  0  0  0  0
    3.5002   51.8750   17.3947 H   0  0  0  0  0  0
  1  6  2  0  0  0
  1  2  1  0  0  0
  1 40  1  0  0  0
  2  3  2  0  0  0
  2 41  1  0  0  0
  3  4  1  0  0  0
  3 42  1  0  0  0
  4  5  2  0  0  0
  4  7  1  0  0  0
  5  6  1  0  0  0
  5 43  1  0  0  0
  6 44  1  0  0  0
  7  8  1  0  0  0
  7 45  1  0  0  0
  7 46  1  0  0  0
  8 14  1  0  0  0
  8  9  1  0  0  0
  9 10  1  0  0  0
  9 11  1  0  0  0
  9 30  1  0  0  0
 11 12  1  0  0  0
 11 13  1  0  0  0
 11 16  1  0  0  0
 13 14  1  0  0  0
 14 15  2  0  0  0
 16 21  2  0  0  0
 16 17  1  0  0  0
 17 18  2  0  0  0
 17 47  1  0  0  0
 18 19  1  0  0  0
 18 48  1  0  0  0
 19 20  2  0  0  0
 19 49  1  0  0  0
 20 21  1  0  0  0
 20 22  1  0  0  0
 21 50  1  0  0  0
 22 23  1  0  0  0
 22 51  1  0  0  0
 23 24  2  0  0  0
 23 25  1  0  0  0
 25 29  1  0  0  0
 25 26  2  0  0  0
 26 27  1  0  0  0
 26 52  1  0  0  0
 27 28  2  0  0  0
 27 53  1  0  0  0
 28 29  1  0  0  0
 28 54  1  0  0  0
 30 31  2  0  0  0
 30 32  1  0  0  0
 32 33  1  0  0  0
 32 55  1  0  0  0
 33 38  2  0  0  0
 33 34  1  0  0  0
 34 35  2  0  0  0
 34 56  1  0  0  0
 35 36  1  0  0  0
 35 57  1  0  0  0
 36 37  2  0  0  0
 36 39  1  0  0  0
 37 38  1  0  0  0
 37 58  1  0  0  0
 38 59  1  0  0  0
M  END
> <i_i_glide_confnum>
102

> <i_i_glide_lignum>
5508

> <i_i_glide_posenum>
362

> <i_i_glide_rotatable_bonds>
9

> <i_m_Source_File_Index>
5293

> <b_m_subgroup_collapsed>
0

> <r_i_docking_score>
-5.41124

> <r_i_glide_ecoul>
-3.46045

> <r_i_glide_eff_state_penalty>
0

> <r_i_glide_einternal>
9.76562

> <r_i_glide_emodel>
-68.1896

> <r_i_glide_energy>
-54.755

> <r_i_glide_erotb>
0.694808

> <r_i_glide_esite>
-0.0225848

> <r_i_glide_evdw>
-51.2945

> <r_i_glide_gscore>
-5.41124

> <r_i_glide_hbond>
0

> <r_i_glide_ligand_efficiency>
-0.14625

> <r_i_glide_ligand_efficiency_ln>
-1.17357

> <r_i_glide_ligand_efficiency_sa>
-0.487336

> <r_i_glide_lipo>
-2.41472

> <r_i_glide_metal>
0

> <r_i_glide_rewards>
-0.584942

> <s_i_glide_gridfile>
wee1_glide-grid

> <s_m_Source_File>
wee1_decoys_glide_SP.sdf

> <s_m_Source_Path>
/Users/zhangxujun/Desktop

> <s_m_entry_id>
5568

> <s_m_entry_name>
wee1_decoys_glide_SP.5293

> <s_m_subgroup_title>
wee1_decoys_glide_SP

> <s_m_subgroupid>
wee1_decoys_glide_SP


$$$$
