ZINC39884128_3350
                    3D
 Schrodinger Suite 2024-2.
 48 52  0  0  1  0            999 V2000
    1.5135   53.7612   24.2688 C   0  0  0  0  0  0
    2.0263   54.0979   23.0227 C   0  0  0  0  0  0
    3.3992   54.2346   22.8556 C   0  0  0  0  0  0
    4.2593   54.0967   23.9388 C   0  0  0  0  0  0
    3.7482   53.6967   25.1707 C   0  0  0  0  0  0
    2.3768   53.4571   25.3305 C   0  0  0  0  0  0
    1.8494   52.7701   26.6141 C   0  0  2  0  0  0
    2.6570   52.0969   26.9043 H   0  0  0  0  0  0
    0.6550   51.8325   26.3512 C   0  0  0  0  0  0
   -0.3480   51.5440   27.1996 C   0  0  0  0  0  0
   -1.3433   50.7594   26.6659 N   0  0  0  0  0  0
   -1.0948   50.2160   25.4066 C   0  0  0  0  0  0
   -1.8019   49.4680   24.7288 O   0  0  0  0  0  0
    0.5030   50.8469   24.8816 S   0  0  0  0  0  0
   -2.6642   50.5123   27.2802 C   0  0  0  0  0  0
   -3.6818   51.6041   26.8829 C   0  0  0  0  0  0
   -3.3570   52.5534   26.1644 O   0  0  0  0  0  0
   -4.9080   51.4479   27.4242 N   0  0  0  0  0  0
   -6.0324   52.2900   27.3108 C   0  0  0  0  0  0
   -6.9940   52.1769   28.3188 C   0  0  0  0  0  0
   -8.1203   52.9964   28.3076 C   0  0  0  0  0  0
   -8.2929   53.9221   27.2818 C   0  0  0  0  0  0
   -7.3559   54.0248   26.2575 C   0  0  0  0  0  0
   -6.2266   53.2090   26.2661 C   0  0  0  0  0  0
   -9.3793   54.7275   27.2806 F   0  0  0  0  0  0
   -0.4956   52.0968   28.8919 S   0  0  0  0  0  0
    0.8755   53.2868   29.0228 C   0  0  2  0  0  0
    0.3891   54.1403   29.5006 H   0  0  0  0  0  0
    1.6242   53.7762   27.7967 C   0  0  1  0  0  0
    1.1445   54.6781   27.4175 H   0  0  0  0  0  0
    2.9498   54.1496   28.4823 C   0  0  0  0  0  0
    3.7709   54.8967   27.9652 O   0  0  0  0  0  0
    3.0744   53.5621   29.6455 N   0  5  0  0  0  0
    2.0033   52.8917   29.9654 C   0  0  0  0  0  0
    1.8909   52.0968   30.8956 O   0  0  0  0  0  0
    3.9044   54.4966   21.6133 O   0  0  0  0  0  0
    0.4455   53.6385   24.3740 H   0  0  0  0  0  0
    1.3585   54.2277   22.1859 H   0  0  0  0  0  0
    5.3237   54.2240   23.8087 H   0  0  0  0  0  0
    4.4383   53.4884   25.9752 H   0  0  0  0  0  0
   -3.0438   49.5325   26.9864 H   0  0  0  0  0  0
   -2.5712   50.4807   28.3654 H   0  0  0  0  0  0
   -5.0147   50.6728   28.0615 H   0  0  0  0  0  0
   -6.8687   51.4666   29.1238 H   0  0  0  0  0  0
   -8.8578   52.9174   29.0925 H   0  0  0  0  0  0
   -7.5093   54.7336   25.4574 H   0  0  0  0  0  0
   -5.5231   53.2994   25.4529 H   0  0  0  0  0  0
    3.2133   54.5497   20.9448 H   0  0  0  0  0  0
  1  6  2  0  0  0
  1  2  1  0  0  0
  1 37  1  0  0  0
  2  3  2  0  0  0
  2 38  1  0  0  0
  3  4  1  0  0  0
  3 36  1  0  0  0
  4  5  2  0  0  0
  4 39  1  0  0  0
  5  6  1  0  0  0
  5 40  1  0  0  0
  6  7  1  0  0  0
  7  8  1  0  0  0
  7 29  1  0  0  0
  7  9  1  0  0  0
  9 14  1  0  0  0
  9 10  2  0  0  0
 10 11  1  0  0  0
 10 26  1  0  0  0
 11 12  1  0  0  0
 11 15  1  0  0  0
 12 13  2  0  0  0
 12 14  1  0  0  0
 15 16  1  0  0  0
 15 41  1  0  0  0
 15 42  1  0  0  0
 16 17  2  0  0  0
 16 18  1  0  0  0
 18 19  1  0  0  0
 18 43  1  0  0  0
 19 24  2  0  0  0
 19 20  1  0  0  0
 20 21  2  0  0  0
 20 44  1  0  0  0
 21 22  1  0  0  0
 21 45  1  0  0  0
 22 23  2  0  0  0
 22 25  1  0  0  0
 23 24  1  0  0  0
 23 46  1  0  0  0
 24 47  1  0  0  0
 26 27  1  0  0  0
 27 28  1  0  0  0
 27 34  1  0  0  0
 27 29  1  0  0  0
 29 30  1  0  0  0
 29 31  1  0  0  0
 31 32  2  0  0  0
 31 33  1  0  0  0
 33 34  1  0  0  0
 34 35  2  0  0  0
 36 48  1  0  0  0
M  CHG  1  33  -1
M  END
> <i_i_glide_confnum>
2

> <i_i_glide_lignum>
3351

> <i_i_glide_posenum>
353

> <i_i_glide_rotatable_bonds>
6

> <i_m_Source_File_Index>
1293

> <b_m_subgroup_collapsed>
0

> <r_i_docking_score>
-5.85574

> <r_i_glide_ecoul>
-7.44725

> <r_i_glide_eff_state_penalty>
0

> <r_i_glide_einternal>
4.93293

> <r_i_glide_emodel>
-60.324

> <r_i_glide_energy>
-46.3056

> <r_i_glide_erotb>
0.346054

> <r_i_glide_esite>
-0.126339

> <r_i_glide_evdw>
-38.8583

> <r_i_glide_gscore>
-5.85574

> <r_i_glide_hbond>
-0.492747

> <r_i_glide_ligand_efficiency>
-0.177447

> <r_i_glide_ligand_efficiency_ln>
-1.30229

> <r_i_glide_ligand_efficiency_sa>
-0.569166

> <r_i_glide_lipo>
-1.85604

> <r_i_glide_metal>
0

> <r_i_glide_rewards>
-0.666664

> <s_i_glide_gridfile>
wee1_glide-grid

> <s_m_Source_File>
wee1_decoys_glide_SP.sdf

> <s_m_Source_Path>
/Users/zhangxujun/Desktop

> <s_m_entry_id>
1568

> <s_m_entry_name>
wee1_decoys_glide_SP.1293

> <s_m_subgroup_title>
wee1_decoys_glide_SP

> <s_m_subgroupid>
wee1_decoys_glide_SP


$$$$
