ZINC66462210_3804
                    3D
 Schrodinger Suite 2024-2.
 38 41  0  0  1  0            999 V2000
   -0.2341   51.9951   25.0875 C   0  0  0  0  0  0
    0.4886   52.3047   26.3839 C   0  0  0  0  0  0
   -0.0760   51.9992   27.6202 C   0  0  0  0  0  0
    0.6324   52.3108   28.7751 C   0  0  0  0  0  0
    1.9013   52.9296   28.6693 C   0  0  0  0  0  0
    2.6592   53.2618   29.8107 C   0  0  0  0  0  0
    3.8946   53.8765   29.6679 C   0  0  0  0  0  0
    4.4130   54.1634   28.4119 C   0  0  0  0  0  0
    3.7041   53.8438   27.2454 C   0  0  0  0  0  0
    2.4176   53.2213   27.3662 C   0  0  0  0  0  0
    1.6990   52.9001   26.2447 N   0  0  0  0  0  0
    4.1945   54.0983   25.9486 N   0  0  0  0  0  0
    5.4065   54.5057   25.5121 C   0  0  0  0  0  0
    6.3521   54.8188   26.2423 O   0  0  0  0  0  0
    5.5564   54.5768   24.0034 C   0  0  0  0  0  0
    6.7002   55.1807   23.4571 C   0  0  0  0  0  0
    6.8911   55.3049   22.0819 C   0  0  0  0  0  0
    5.9133   54.8055   21.2138 C   0  0  0  0  0  0
    5.7840   54.7400   19.7903 C   0  0  0  0  0  0
    4.5966   54.0982   19.5187 C   0  0  0  0  0  0
    3.9868   53.7673   20.7013 N   0  0  0  0  0  0
    3.0900   53.3027   20.7320 H   0  0  0  0  0  0
    4.7600   54.1805   21.7663 C   0  0  0  0  0  0
    4.5600   54.0653   23.1443 C   0  0  0  0  0  0
   -1.1994   51.5210   25.2693 H   0  0  0  0  0  0
   -0.4085   52.9100   24.5189 H   0  0  0  0  0  0
    0.3618   51.3195   24.4719 H   0  0  0  0  0  0
   -1.0443   51.5242   27.6890 H   0  0  0  0  0  0
    0.2243   52.0858   29.7502 H   0  0  0  0  0  0
    2.2631   53.0425   30.7907 H   0  0  0  0  0  0
    4.4661   54.1465   30.5408 H   0  0  0  0  0  0
    5.3734   54.6487   28.3781 H   0  0  0  0  0  0
    3.5286   53.8670   25.2290 H   0  0  0  0  0  0
    7.4615   55.5867   24.1095 H   0  0  0  0  0  0
    7.7890   55.7678   21.6989 H   0  0  0  0  0  0
    6.4791   55.1012   19.0483 H   0  0  0  0  0  0
    4.1263   53.8478   18.5783 H   0  0  0  0  0  0
    3.6656   53.5867   23.5125 H   0  0  0  0  0  0
  1  2  1  0  0  0
  1 25  1  0  0  0
  1 26  1  0  0  0
  1 27  1  0  0  0
  2 11  2  0  0  0
  2  3  1  0  0  0
  3  4  2  0  0  0
  3 28  1  0  0  0
  4  5  1  0  0  0
  4 29  1  0  0  0
  5 10  2  0  0  0
  5  6  1  0  0  0
  6  7  2  0  0  0
  6 30  1  0  0  0
  7  8  1  0  0  0
  7 31  1  0  0  0
  8  9  2  0  0  0
  8 32  1  0  0  0
  9 10  1  0  0  0
  9 12  1  0  0  0
 10 11  1  0  0  0
 12 13  1  0  0  0
 12 33  1  0  0  0
 13 14  2  0  0  0
 13 15  1  0  0  0
 15 24  2  0  0  0
 15 16  1  0  0  0
 16 17  2  0  0  0
 16 34  1  0  0  0
 17 18  1  0  0  0
 17 35  1  0  0  0
 18 23  2  0  0  0
 18 19  1  0  0  0
 19 20  2  0  0  0
 19 36  1  0  0  0
 20 21  1  0  0  0
 20 37  1  0  0  0
 21 22  1  0  0  0
 21 23  1  0  0  0
 23 24  1  0  0  0
 24 38  1  0  0  0
M  END
> <i_i_glide_confnum>
2

> <i_i_glide_lignum>
3805

> <i_i_glide_posenum>
16

> <i_i_glide_rotatable_bonds>
3

> <i_m_Source_File_Index>
971

> <b_m_subgroup_collapsed>
0

> <r_i_docking_score>
-5.78974

> <r_i_glide_ecoul>
-2.57341

> <r_i_glide_eff_state_penalty>
0

> <r_i_glide_einternal>
0.230513

> <r_i_glide_emodel>
-54.4828

> <r_i_glide_energy>
-40.0108

> <r_i_glide_erotb>
0.607734

> <r_i_glide_esite>
-0.00476955

> <r_i_glide_evdw>
-37.4374

> <r_i_glide_gscore>
-5.78974

> <r_i_glide_hbond>
0

> <r_i_glide_ligand_efficiency>
-0.251728

> <r_i_glide_ligand_efficiency_ln>
-1.40001

> <r_i_glide_ligand_efficiency_sa>
-0.71588

> <r_i_glide_lipo>
-2.34147

> <r_i_glide_metal>
0

> <r_i_glide_rewards>
-1.79336

> <s_i_glide_gridfile>
wee1_glide-grid

> <s_m_Source_File>
wee1_decoys_glide_SP.sdf

> <s_m_Source_Path>
/Users/zhangxujun/Desktop

> <s_m_entry_id>
1246

> <s_m_entry_name>
wee1_decoys_glide_SP.971

> <s_m_subgroup_title>
wee1_decoys_glide_SP

> <s_m_subgroupid>
wee1_decoys_glide_SP


$$$$
