ZINC37494880_3825
                    3D
 Schrodinger Suite 2024-2.
 39 41  0  0  1  0            999 V2000
    6.0084   54.3010   27.1702 C   0  0  0  0  0  0
    5.5455   54.3398   28.4787 C   0  0  0  0  0  0
    4.1883   54.1798   28.7419 C   0  0  0  0  0  0
    3.2646   53.9744   27.7059 C   0  0  0  0  0  0
    3.7413   53.9207   26.3719 C   0  0  0  0  0  0
    5.1158   54.0967   26.1235 C   0  0  0  0  0  0
    2.8064   53.6944   25.3347 N   0  0  0  0  0  0
    2.9611   53.6973   23.9946 C   0  0  0  0  0  0
    3.9514   54.0972   23.3828 O   0  0  0  0  0  0
    1.8556   53.0999   23.2890 C   0  0  0  0  0  0
    0.6219   52.6135   23.7393 C   0  0  0  0  0  0
   -0.0969   52.0988   22.6528 C   0  0  0  0  0  0
    0.7064   52.2739   21.5373 C   0  0  0  0  0  0
    1.8661   52.8865   21.9315 N   0  0  0  0  0  0
    2.6238   53.1548   21.3155 H   0  0  0  0  0  0
   -1.8401   51.3389   22.6950 Br  0  0  0  0  0  0
    1.9151   53.8054   28.0239 N   0  0  0  0  0  0
    1.2429   54.5674   29.0868 C   0  0  0  0  0  0
    0.9511   53.7273   30.3492 C   0  0  0  0  0  0
    0.1181   52.4853   30.0092 C   0  0  0  0  0  0
    0.8093   51.7068   28.8771 C   0  0  0  0  0  0
    1.1281   52.6089   27.6639 C   0  0  0  0  0  0
    7.0634   54.4207   26.9708 H   0  0  0  0  0  0
    6.2488   54.4966   29.2817 H   0  0  0  0  0  0
    3.8579   54.2110   29.7678 H   0  0  0  0  0  0
    5.5289   54.0503   25.1282 H   0  0  0  0  0  0
    1.8903   53.4474   25.6747 H   0  0  0  0  0  0
    0.2624   52.6207   24.7589 H   0  0  0  0  0  0
    0.5471   52.0339   20.4955 H   0  0  0  0  0  0
    1.7921   55.4803   29.3272 H   0  0  0  0  0  0
    0.3035   54.8981   28.6548 H   0  0  0  0  0  0
    1.8859   53.4307   30.8247 H   0  0  0  0  0  0
    0.4240   54.3366   31.0845 H   0  0  0  0  0  0
   -0.8908   52.7764   29.7030 H   0  0  0  0  0  0
   -0.0042   51.8544   30.8917 H   0  0  0  0  0  0
    0.1565   50.8954   28.5551 H   0  0  0  0  0  0
    1.7246   51.2277   29.2272 H   0  0  0  0  0  0
    0.1958   52.9450   27.2067 H   0  0  0  0  0  0
    1.6459   52.0189   26.9090 H   0  0  0  0  0  0
  1  6  2  0  0  0
  1  2  1  0  0  0
  1 23  1  0  0  0
  2  3  2  0  0  0
  2 24  1  0  0  0
  3  4  1  0  0  0
  3 25  1  0  0  0
  4  5  2  0  0  0
  4 17  1  0  0  0
  5  6  1  0  0  0
  5  7  1  0  0  0
  6 26  1  0  0  0
  7  8  1  0  0  0
  7 27  1  0  0  0
  8  9  2  0  0  0
  8 10  1  0  0  0
 10 14  1  0  0  0
 10 11  2  0  0  0
 11 12  1  0  0  0
 11 28  1  0  0  0
 12 13  2  0  0  0
 12 16  1  0  0  0
 13 14  1  0  0  0
 13 29  1  0  0  0
 14 15  1  0  0  0
 17 22  1  0  0  0
 17 18  1  0  0  0
 18 19  1  0  0  0
 18 30  1  0  0  0
 18 31  1  0  0  0
 19 20  1  0  0  0
 19 32  1  0  0  0
 19 33  1  0  0  0
 20 21  1  0  0  0
 20 34  1  0  0  0
 20 35  1  0  0  0
 21 22  1  0  0  0
 21 36  1  0  0  0
 21 37  1  0  0  0
 22 38  1  0  0  0
 22 39  1  0  0  0
M  END
> <i_i_glide_confnum>
51

> <i_i_glide_lignum>
3826

> <i_i_glide_posenum>
323

> <i_i_glide_rotatable_bonds>
4

> <i_m_Source_File_Index>
4862

> <b_m_subgroup_collapsed>
0

> <r_i_docking_score>
-5.43969

> <r_i_glide_ecoul>
-0.639305

> <r_i_glide_eff_state_penalty>
0

> <r_i_glide_einternal>
1.07225

> <r_i_glide_emodel>
-50.5034

> <r_i_glide_energy>
-37.4636

> <r_i_glide_erotb>
0.62783

> <r_i_glide_esite>
0

> <r_i_glide_evdw>
-36.8243

> <r_i_glide_gscore>
-5.43969

> <r_i_glide_hbond>
0

> <r_i_glide_ligand_efficiency>
-0.259033

> <r_i_glide_ligand_efficiency_ln>
-1.34495

> <r_i_glide_ligand_efficiency_sa>
-0.714652

> <r_i_glide_lipo>
-2.46489

> <r_i_glide_metal>
0

> <r_i_glide_rewards>
-1.66552

> <s_i_glide_gridfile>
wee1_glide-grid

> <s_m_Source_File>
wee1_decoys_glide_SP.sdf

> <s_m_Source_Path>
/Users/zhangxujun/Desktop

> <s_m_entry_id>
5137

> <s_m_entry_name>
wee1_decoys_glide_SP.4862

> <s_m_subgroup_title>
wee1_decoys_glide_SP

> <s_m_subgroupid>
wee1_decoys_glide_SP


$$$$
