ZINC39677690_3081
                    3D
 Schrodinger Suite 2024-2.
 71 75  0  0  1  0            999 V2000
    1.8339   55.9025   29.2744 C   0  0  0  0  0  0
    1.4757   54.4059   29.1971 C   0  0  0  0  0  0
    1.8572   53.7038   27.8580 C   0  0  1  0  0  0
    1.3026   54.2456   27.0921 H   0  0  0  0  0  0
    3.3552   53.8281   27.5258 C   0  0  0  0  0  0
    4.3341   53.4287   28.4449 C   0  0  0  0  0  0
    5.6855   53.5832   28.1442 C   0  0  0  0  0  0
    6.0655   54.1103   26.9133 C   0  0  0  0  0  0
    5.1045   54.4959   25.9828 C   0  0  0  0  0  0
    3.7539   54.3602   26.2919 C   0  0  0  0  0  0
    1.3754   52.2238   27.8310 C   0  0  0  0  0  0
    1.5263   51.5377   28.8441 O   0  0  0  0  0  0
    0.7455   51.7393   26.7285 N   0  0  0  0  0  0
    0.8702   52.3392   25.3965 C   0  0  0  0  0  0
    0.7003   51.1146   24.4806 C   0  0  1  0  0  0
    1.6573   50.5930   24.4136 H   0  0  0  0  0  0
   -0.3214   50.2106   25.2050 C   0  0  0  0  0  0
    0.2043   50.3719   26.6572 C   0  0  0  0  0  0
   -1.7969   50.7016   25.0770 C   0  0  0  0  0  0
   -2.7513   49.8891   25.9727 C   0  0  0  0  0  0
   -2.6646   48.4034   25.5496 N   0  3  0  0  0  0
   -1.2327   47.8229   25.4597 C   0  0  0  0  0  0
   -0.3291   48.7651   24.6434 C   0  0  0  0  0  0
    0.3137   51.5601   23.0547 C   0  0  0  0  0  0
   -0.4640   52.4966   22.8641 O   0  0  0  0  0  0
    0.9800   50.9429   22.0658 N   0  0  0  0  0  0
    0.9614   51.3218   20.6542 C   0  0  0  0  0  0
    2.2068   52.0970   20.2551 C   0  0  0  0  0  0
    2.7190   52.3088   18.9783 C   0  0  0  0  0  0
    3.8710   53.0995   18.9329 C   0  0  0  0  0  0
    4.3051   53.5276   20.1827 C   0  0  0  0  0  0
    3.2461   52.8979   21.4132 S   0  0  0  0  0  0
    5.5012   54.3560   20.5395 C   0  0  0  0  0  0
    6.3296   54.8970   19.5456 C   0  0  0  0  0  0
    7.4913   55.5726   19.9238 C   0  0  0  0  0  0
    7.7935   55.6969   21.2803 C   0  0  0  0  0  0
    6.9069   55.1706   22.2170 C   0  0  0  0  0  0
    5.7765   54.5087   21.8671 N   0  0  0  0  0  0
    1.5321   56.3245   30.2355 H   0  0  0  0  0  0
    2.9087   56.0668   29.1755 H   0  0  0  0  0  0
    1.3318   56.4763   28.4948 H   0  0  0  0  0  0
    0.4012   54.3070   29.3620 H   0  0  0  0  0  0
    1.9417   53.8941   30.0419 H   0  0  0  0  0  0
    4.0471   53.0052   29.3967 H   0  0  0  0  0  0
    6.4388   53.2965   28.8640 H   0  0  0  0  0  0
    7.1142   54.2134   26.6790 H   0  0  0  0  0  0
    5.4010   54.9045   25.0300 H   0  0  0  0  0  0
    3.0243   54.6795   25.5645 H   0  0  0  0  0  0
    0.0170   53.0055   25.2484 H   0  0  0  0  0  0
    1.8368   52.7989   25.1801 H   0  0  0  0  0  0
    1.0489   49.6928   26.7811 H   0  0  0  0  0  0
   -0.4821   50.0986   27.4545 H   0  0  0  0  0  0
   -1.8693   51.7427   25.3920 H   0  0  0  0  0  0
   -2.1440   50.6957   24.0420 H   0  0  0  0  0  0
   -2.5131   49.9346   27.0345 H   0  0  0  0  0  0
   -3.7927   50.1832   25.8441 H   0  0  0  0  0  0
   -3.1921   47.8518   26.2155 H   0  0  0  0  0  0
   -0.8953   47.7007   26.4817 H   0  0  0  0  0  0
   -1.3220   46.8345   25.0103 H   0  0  0  0  0  0
   -0.5991   48.7500   23.5873 H   0  0  0  0  0  0
    0.6846   48.3615   24.6900 H   0  0  0  0  0  0
    1.6151   50.1974   22.3068 H   0  0  0  0  0  0
    0.9052   50.4017   20.0711 H   0  0  0  0  0  0
    0.0564   51.8794   20.3963 H   0  0  0  0  0  0
    2.2645   51.8960   18.0889 H   0  0  0  0  0  0
    4.3729   53.3380   18.0073 H   0  0  0  0  0  0
    6.1042   54.7684   18.4965 H   0  0  0  0  0  0
    8.1597   55.9682   19.1738 H   0  0  0  0  0  0
    8.7075   56.1755   21.6010 H   0  0  0  0  0  0
    7.1157   55.2507   23.2741 H   0  0  0  0  0  0
   -3.1129   48.3003   24.6500 H   0  0  0  0  0  0
  1  2  1  0  0  0
  1 39  1  0  0  0
  1 40  1  0  0  0
  1 41  1  0  0  0
  2  3  1  0  0  0
  2 42  1  0  0  0
  2 43  1  0  0  0
  3  4  1  0  0  0
  3  5  1  0  0  0
  3 11  1  0  0  0
  5 10  2  0  0  0
  5  6  1  0  0  0
  6  7  2  0  0  0
  6 44  1  0  0  0
  7  8  1  0  0  0
  7 45  1  0  0  0
  8  9  2  0  0  0
  8 46  1  0  0  0
  9 10  1  0  0  0
  9 47  1  0  0  0
 10 48  1  0  0  0
 11 12  2  0  0  0
 11 13  1  0  0  0
 13 18  1  0  0  0
 13 14  1  0  0  0
 14 15  1  0  0  0
 14 49  1  0  0  0
 14 50  1  0  0  0
 15 16  1  0  0  0
 15 17  1  0  0  0
 15 24  1  0  0  0
 17 23  1  0  0  0
 17 18  1  0  0  0
 17 19  1  0  0  0
 18 51  1  0  0  0
 18 52  1  0  0  0
 19 20  1  0  0  0
 19 53  1  0  0  0
 19 54  1  0  0  0
 20 21  1  0  0  0
 20 55  1  0  0  0
 20 56  1  0  0  0
 21 22  1  0  0  0
 21 57  1  0  0  0
 21 71  1  0  0  0
 22 23  1  0  0  0
 22 58  1  0  0  0
 22 59  1  0  0  0
 23 60  1  0  0  0
 23 61  1  0  0  0
 24 25  2  0  0  0
 24 26  1  0  0  0
 26 27  1  0  0  0
 26 62  1  0  0  0
 27 28  1  0  0  0
 27 63  1  0  0  0
 27 64  1  0  0  0
 28 32  1  0  0  0
 28 29  2  0  0  0
 29 30  1  0  0  0
 29 65  1  0  0  0
 30 31  2  0  0  0
 30 66  1  0  0  0
 31 32  1  0  0  0
 31 33  1  0  0  0
 33 38  2  0  0  0
 33 34  1  0  0  0
 34 35  2  0  0  0
 34 67  1  0  0  0
 35 36  1  0  0  0
 35 68  1  0  0  0
 36 37  2  0  0  0
 36 69  1  0  0  0
 37 38  1  0  0  0
 37 70  1  0  0  0
M  CHG  1  21   1
M  END
> <i_i_glide_confnum>
385

> <i_i_glide_lignum>
3082

> <i_i_glide_posenum>
271

> <i_i_glide_rotatable_bonds>
9

> <i_m_Source_File_Index>
4540

> <b_m_subgroup_collapsed>
0

> <r_i_docking_score>
-6.3471

> <r_i_glide_ecoul>
-5.79

> <r_i_glide_eff_state_penalty>
0

> <r_i_glide_einternal>
7.19726

> <r_i_glide_emodel>
-72.7251

> <r_i_glide_energy>
-54.7851

> <r_i_glide_erotb>
0.644607

> <r_i_glide_esite>
-0.0929759

> <r_i_glide_evdw>
-48.9951

> <r_i_glide_gscore>
-6.3471

> <r_i_glide_hbond>
0

> <r_i_glide_ligand_efficiency>
-0.176308

> <r_i_glide_ligand_efficiency_ln>
-1.38477

> <r_i_glide_ligand_efficiency_sa>
-0.582157

> <r_i_glide_lipo>
-3.18678

> <r_i_glide_metal>
0

> <r_i_glide_rewards>
-0.3937

> <s_i_glide_gridfile>
wee1_glide-grid

> <s_m_Source_File>
wee1_decoys_glide_SP.sdf

> <s_m_Source_Path>
/Users/zhangxujun/Desktop

> <s_m_entry_id>
4815

> <s_m_entry_name>
wee1_decoys_glide_SP.4540

> <s_m_subgroup_title>
wee1_decoys_glide_SP

> <s_m_subgroupid>
wee1_decoys_glide_SP


$$$$
