ZINC44855012_6062
                    3D
 Schrodinger Suite 2024-2.
 75 79  0  0  1  0            999 V2000
    9.3517   61.4768   16.7076 C   0  0  0  0  0  0
    9.4639   60.2446   17.6227 C   0  0  2  0  0  0
    9.0589   60.4957   18.6038 H   0  0  0  0  0  0
   10.9119   59.7793   17.8588 C   0  0  0  0  0  0
   10.9183   58.5678   18.8065 C   0  0  0  0  0  0
    9.9396   57.4647   18.3402 C   0  0  0  0  0  0
    8.5619   57.9453   18.0812 N   0  0  0  0  0  0
    8.6251   59.0544   17.1071 C   0  0  0  0  0  0
    7.4910   57.0560   17.9914 C   0  0  0  0  0  0
    6.1759   57.5351   18.0755 C   0  0  0  0  0  0
    5.0900   56.6632   18.0121 C   0  0  0  0  0  0
    5.2922   55.2892   17.8557 C   0  0  0  0  0  0
    6.6016   54.8094   17.7448 C   0  0  0  0  0  0
    7.6858   55.6797   17.8308 C   0  0  0  0  0  0
    4.0789   54.3434   17.7441 C   0  0  1  0  0  0
    3.2578   54.9444   17.3559 H   0  0  0  0  0  0
    4.2652   53.2109   16.7060 C   0  0  0  0  0  0
    3.6027   53.8189   19.0331 N   0  0  0  0  0  0
    4.3211   53.0963   19.9136 C   0  0  0  0  0  0
    5.5045   52.8307   19.7460 O   0  0  0  0  0  0
    3.6336   52.5975   21.1965 C   0  0  2  0  0  0
    4.4009   51.9807   21.6722 H   0  0  0  0  0  0
    2.4125   51.7111   20.8698 C   0  0  0  0  0  0
    1.8259   51.1823   22.1918 C   0  0  0  0  0  0
    1.4588   52.3192   23.1661 C   0  0  0  0  0  0
    2.6956   53.2208   23.4221 N   0  3  1  0  0  0
    3.3047   53.7905   22.1182 C   0  0  0  0  0  0
    2.3710   54.3218   24.4556 C   0  0  0  0  0  0
    2.8055   53.9173   25.8610 C   0  0  0  0  0  0
    1.8646   53.3923   26.7488 C   0  0  0  0  0  0
    2.2132   53.0466   28.0464 C   0  0  0  0  0  0
    3.5205   53.2154   28.4913 C   0  0  0  0  0  0
    4.5116   53.7309   27.6233 C   0  0  0  0  0  0
    4.1615   54.0921   26.2826 C   0  0  0  0  0  0
    5.1885   54.6035   25.4343 C   0  0  0  0  0  0
    6.4922   54.7382   25.8963 C   0  0  0  0  0  0
    6.8173   54.3877   27.1997 C   0  0  0  0  0  0
    5.8481   53.8929   28.0609 C   0  0  0  0  0  0
    9.7255   61.2595   15.7063 H   0  0  0  0  0  0
    9.9209   62.3204   17.0989 H   0  0  0  0  0  0
    8.3129   61.7964   16.6081 H   0  0  0  0  0  0
   11.3743   59.5180   16.9050 H   0  0  0  0  0  0
   11.5241   60.5900   18.2591 H   0  0  0  0  0  0
   11.9240   58.1491   18.8534 H   0  0  0  0  0  0
   10.7049   58.8624   19.8360 H   0  0  0  0  0  0
   10.3297   56.9618   17.4535 H   0  0  0  0  0  0
    9.9030   56.7184   19.1349 H   0  0  0  0  0  0
    7.6181   59.4397   16.9428 H   0  0  0  0  0  0
    8.9574   58.7188   16.1227 H   0  0  0  0  0  0
    5.9910   58.5943   18.2002 H   0  0  0  0  0  0
    4.0887   57.0657   18.0804 H   0  0  0  0  0  0
    6.7951   53.7551   17.6146 H   0  0  0  0  0  0
    8.6774   55.2602   17.7564 H   0  0  0  0  0  0
    4.5435   53.6075   15.7306 H   0  0  0  0  0  0
    5.0297   52.4967   17.0105 H   0  0  0  0  0  0
    3.3426   52.6390   16.5797 H   0  0  0  0  0  0
    2.6652   54.0979   19.2995 H   0  0  0  0  0  0
    1.6226   52.2847   20.3792 H   0  0  0  0  0  0
    2.6955   50.8426   20.2727 H   0  0  0  0  0  0
    0.9382   50.5834   21.9809 H   0  0  0  0  0  0
    2.5372   50.5020   22.6681 H   0  0  0  0  0  0
    0.6607   52.9535   22.7812 H   0  0  0  0  0  0
    1.1716   51.9019   24.1335 H   0  0  0  0  0  0
    4.2124   54.3244   22.4044 H   0  0  0  0  0  0
    2.5723   54.4746   21.6969 H   0  0  0  0  0  0
    2.8515   55.2484   24.1378 H   0  0  0  0  0  0
    1.2939   54.4908   24.4035 H   0  0  0  0  0  0
    0.8402   53.2514   26.4334 H   0  0  0  0  0  0
    1.4641   52.6493   28.7155 H   0  0  0  0  0  0
    3.7861   52.9466   29.5041 H   0  0  0  0  0  0
    4.9758   54.8902   24.4209 H   0  0  0  0  0  0
    7.2540   55.1125   25.2276 H   0  0  0  0  0  0
    7.8291   54.4970   27.5579 H   0  0  0  0  0  0
    6.1187   53.6249   29.0724 H   0  0  0  0  0  0
    3.4060   52.6363   23.8470 H   0  0  0  0  0  0
  1  2  1  0  0  0
  1 39  1  0  0  0
  1 40  1  0  0  0
  1 41  1  0  0  0
  2  3  1  0  0  0
  2  8  1  0  0  0
  2  4  1  0  0  0
  4  5  1  0  0  0
  4 42  1  0  0  0
  4 43  1  0  0  0
  5  6  1  0  0  0
  5 44  1  0  0  0
  5 45  1  0  0  0
  6  7  1  0  0  0
  6 46  1  0  0  0
  6 47  1  0  0  0
  7  8  1  0  0  0
  7  9  1  0  0  0
  8 48  1  0  0  0
  8 49  1  0  0  0
  9 14  2  0  0  0
  9 10  1  0  0  0
 10 11  2  0  0  0
 10 50  1  0  0  0
 11 12  1  0  0  0
 11 51  1  0  0  0
 12 13  2  0  0  0
 12 15  1  0  0  0
 13 14  1  0  0  0
 13 52  1  0  0  0
 14 53  1  0  0  0
 15 16  1  0  0  0
 15 17  1  0  0  0
 15 18  1  0  0  0
 17 54  1  0  0  0
 17 55  1  0  0  0
 17 56  1  0  0  0
 18 19  1  0  0  0
 18 57  1  0  0  0
 19 20  2  0  0  0
 19 21  1  0  0  0
 21 22  1  0  0  0
 21 27  1  0  0  0
 21 23  1  0  0  0
 23 24  1  0  0  0
 23 58  1  0  0  0
 23 59  1  0  0  0
 24 25  1  0  0  0
 24 60  1  0  0  0
 24 61  1  0  0  0
 25 26  1  0  0  0
 25 62  1  0  0  0
 25 63  1  0  0  0
 26 27  1  0  0  0
 26 28  1  0  0  0
 26 75  1  0  0  0
 27 64  1  0  0  0
 27 65  1  0  0  0
 28 29  1  0  0  0
 28 66  1  0  0  0
 28 67  1  0  0  0
 29 34  2  0  0  0
 29 30  1  0  0  0
 30 31  2  0  0  0
 30 68  1  0  0  0
 31 32  1  0  0  0
 31 69  1  0  0  0
 32 33  2  0  0  0
 32 70  1  0  0  0
 33 38  1  0  0  0
 33 34  1  0  0  0
 34 35  1  0  0  0
 35 36  2  0  0  0
 35 71  1  0  0  0
 36 37  1  0  0  0
 36 72  1  0  0  0
 37 38  2  0  0  0
 37 73  1  0  0  0
 38 74  1  0  0  0
M  CHG  1  26   1
M  END
> <i_i_glide_confnum>
249

> <i_i_glide_lignum>
6063

> <i_i_glide_posenum>
205

> <i_i_glide_rotatable_bonds>
7

> <i_m_Source_File_Index>
4793

> <b_m_subgroup_collapsed>
0

> <r_i_docking_score>
-5.42624

> <r_i_glide_ecoul>
-1.33403

> <r_i_glide_eff_state_penalty>
0

> <r_i_glide_einternal>
7.33772

> <r_i_glide_emodel>
-53.411

> <r_i_glide_energy>
-41.4381

> <r_i_glide_erotb>
0.638505

> <r_i_glide_esite>
-0.0446012

> <r_i_glide_evdw>
-40.1041

> <r_i_glide_gscore>
-5.42624

> <r_i_glide_hbond>
-0.32

> <r_i_glide_ligand_efficiency>
-0.155035

> <r_i_glide_ligand_efficiency_ln>
-1.19118

> <r_i_glide_ligand_efficiency_sa>
-0.507131

> <r_i_glide_lipo>
-3.15433

> <r_i_glide_metal>
0

> <r_i_glide_rewards>
-0.3405

> <s_i_glide_gridfile>
wee1_glide-grid

> <s_m_Source_File>
wee1_decoys_glide_SP.sdf

> <s_m_Source_Path>
/Users/zhangxujun/Desktop

> <s_m_entry_id>
5068

> <s_m_entry_name>
wee1_decoys_glide_SP.4793

> <s_m_subgroup_title>
wee1_decoys_glide_SP

> <s_m_subgroupid>
wee1_decoys_glide_SP


$$$$
