ZINC50672141_1653
                    3D
 Schrodinger Suite 2024-2.
 32 33  0  0  1  0            999 V2000
    1.5467   52.9669   23.1212 C   0  0  0  0  0  0
    0.2885   53.0054   24.0145 C   0  0  0  0  0  0
   -0.8811   52.2586   23.3397 C   0  0  0  0  0  0
    0.5681   52.4961   25.4311 C   0  0  0  0  0  0
   -0.0429   51.4503   26.1209 C   0  0  0  0  0  0
    0.6766   51.2967   27.6919 S   0  0  0  0  0  0
    1.7284   52.6078   27.3084 C   0  0  0  0  0  0
    1.5046   53.1267   26.1232 N   0  0  0  0  0  0
    2.6160   52.9514   28.2566 N   0  5  0  0  0  0
    3.2551   54.3669   28.3965 S   0  0  0  0  0  0
    2.3054   55.4402   28.0831 O   0  0  0  0  0  0
    4.0052   54.4987   29.6520 O   0  0  0  0  0  0
    4.4910   54.3710   27.0555 C   0  0  0  0  0  0
    4.1142   54.7127   25.7507 C   0  0  0  0  0  0
    5.0403   54.6900   24.7086 C   0  0  0  0  0  0
    6.3643   54.3959   25.0076 C   0  0  0  0  0  0
    6.7699   54.0966   26.2622 N   0  0  0  0  0  0
    5.8456   54.0599   27.2503 C   0  0  0  0  0  0
    6.3477   53.6967   28.4817 N   0  0  0  0  0  0
    2.3398   53.6023   23.5159 H   0  0  0  0  0  0
    1.3292   53.3158   22.1108 H   0  0  0  0  0  0
    1.9440   51.9541   23.0401 H   0  0  0  0  0  0
   -0.0164   54.0510   24.0830 H   0  0  0  0  0  0
   -1.8067   52.3825   23.9034 H   0  0  0  0  0  0
   -1.0635   52.6225   22.3288 H   0  0  0  0  0  0
   -0.6781   51.1895   23.2628 H   0  0  0  0  0  0
   -0.8323   50.7847   25.8041 H   0  0  0  0  0  0
    3.1041   54.9904   25.5267 H   0  0  0  0  0  0
    4.7372   54.8974   23.6939 H   0  0  0  0  0  0
    7.1212   54.3839   24.2359 H   0  0  0  0  0  0
    5.7200   53.8255   29.2708 H   0  0  0  0  0  0
    7.3453   53.6329   28.5996 H   0  0  0  0  0  0
  1  2  1  0  0  0
  1 20  1  0  0  0
  1 21  1  0  0  0
  1 22  1  0  0  0
  2  3  1  0  0  0
  2  4  1  0  0  0
  2 23  1  0  0  0
  3 24  1  0  0  0
  3 25  1  0  0  0
  3 26  1  0  0  0
  4  8  1  0  0  0
  4  5  2  0  0  0
  5  6  1  0  0  0
  5 27  1  0  0  0
  6  7  1  0  0  0
  7  8  2  0  0  0
  7  9  1  0  0  0
  9 10  1  0  0  0
 10 11  2  0  0  0
 10 12  2  0  0  0
 10 13  1  0  0  0
 13 18  2  0  0  0
 13 14  1  0  0  0
 14 15  2  0  0  0
 14 28  1  0  0  0
 15 16  1  0  0  0
 15 29  1  0  0  0
 16 17  2  0  0  0
 16 30  1  0  0  0
 17 18  1  0  0  0
 18 19  1  0  0  0
 19 31  1  0  0  0
 19 32  1  0  0  0
M  CHG  1   9  -1
M  END
> <i_i_glide_confnum>
7

> <i_i_glide_lignum>
1654

> <i_i_glide_posenum>
387

> <i_i_glide_rotatable_bonds>
4

> <i_m_Source_File_Index>
5080

> <b_m_subgroup_collapsed>
0

> <r_i_docking_score>
-5.3159

> <r_i_glide_ecoul>
-3.70765

> <r_i_glide_eff_state_penalty>
0

> <r_i_glide_einternal>
3.64184

> <r_i_glide_emodel>
-48.2574

> <r_i_glide_energy>
-36.4384

> <r_i_glide_erotb>
0.621976

> <r_i_glide_esite>
0

> <r_i_glide_evdw>
-32.7308

> <r_i_glide_gscore>
-5.3159

> <r_i_glide_hbond>
0

> <r_i_glide_ligand_efficiency>
-0.279784

> <r_i_glide_ligand_efficiency_ln>
-1.34769

> <r_i_glide_ligand_efficiency_sa>
-0.746577

> <r_i_glide_lipo>
-1.97605

> <r_i_glide_metal>
0

> <r_i_glide_rewards>
-1.76914

> <s_i_glide_gridfile>
wee1_glide-grid

> <s_m_Source_File>
wee1_decoys_glide_SP.sdf

> <s_m_Source_Path>
/Users/zhangxujun/Desktop

> <s_m_entry_id>
5355

> <s_m_entry_name>
wee1_decoys_glide_SP.5080

> <s_m_subgroup_title>
wee1_decoys_glide_SP

> <s_m_subgroupid>
wee1_decoys_glide_SP


$$$$
