ZINC40131161_36
                    3D
 Schrodinger Suite 2024-2.
 54 56  0  0  1  0            999 V2000
    1.2163   52.4781   23.6913 C   0  0  0  0  0  0
    0.6148   51.2813   22.9302 C   0  0  0  0  0  0
    1.6057   50.1063   22.8664 C   0  0  0  0  0  0
   -0.6564   50.8426   23.5093 N   0  0  0  0  0  0
   -1.8301   51.5066   23.4605 C   0  0  0  0  0  0
   -1.9997   52.4754   22.7108 O   0  0  0  0  0  0
   -2.8242   50.9785   24.2334 N   0  0  0  0  0  0
   -4.1618   51.5991   24.2277 C   0  0  0  0  0  0
   -4.2602   52.5034   25.4755 C   0  0  0  0  0  0
   -4.0112   51.7026   26.7719 C   0  0  0  0  0  0
   -2.7398   50.8086   26.7583 C   0  0  1  0  0  0
   -2.7967   50.0962   27.5828 H   0  0  0  0  0  0
   -2.6059   50.0619   25.3873 C   0  0  0  0  0  0
   -1.4972   51.6935   27.0402 C   0  0  0  0  0  0
   -1.1059   52.4967   26.1962 O   0  0  0  0  0  0
   -0.9005   51.5487   28.2446 N   0  0  0  0  0  0
    0.2752   52.1814   28.6268 C   0  0  0  0  0  0
    1.2544   52.5367   27.8261 N   0  0  0  0  0  0
    2.3013   53.0213   28.4715 C   0  0  0  0  0  0
    2.1563   53.0219   29.8602 C   0  0  0  0  0  0
    0.5592   52.4965   30.3041 S   0  0  0  0  0  0
    3.4904   53.5076   27.7087 C   0  0  0  0  0  0
    3.3411   54.0492   26.4270 C   0  0  0  0  0  0
    4.4417   54.5372   25.7277 C   0  0  0  0  0  0
    5.7262   54.4936   26.2944 C   0  0  0  0  0  0
    5.8774   53.9150   27.5596 C   0  0  0  0  0  0
    4.7720   53.4381   28.2634 C   0  0  0  0  0  0
    7.1044   53.8089   28.1148 F   0  0  0  0  0  0
    6.8589   54.9976   25.6820 O   0  0  0  0  0  0
    6.7195   55.6714   24.4368 C   0  0  0  0  0  0
    2.1754   52.7710   23.2631 H   0  0  0  0  0  0
    1.4022   52.2274   24.7364 H   0  0  0  0  0  0
    0.5662   53.3532   23.6511 H   0  0  0  0  0  0
    0.4253   51.5961   21.9009 H   0  0  0  0  0  0
    2.5632   50.4271   22.4543 H   0  0  0  0  0  0
    1.8174   49.7010   23.8571 H   0  0  0  0  0  0
    1.2395   49.3026   22.2268 H   0  0  0  0  0  0
   -0.6200   49.9909   24.0455 H   0  0  0  0  0  0
   -4.3970   52.0916   23.2828 H   0  0  0  0  0  0
   -4.8905   50.7895   24.2927 H   0  0  0  0  0  0
   -3.5539   53.3310   25.3909 H   0  0  0  0  0  0
   -5.2480   52.9634   25.5134 H   0  0  0  0  0  0
   -4.0461   52.3188   27.6692 H   0  0  0  0  0  0
   -4.8598   51.0494   26.9820 H   0  0  0  0  0  0
   -3.4037   49.3195   25.3337 H   0  0  0  0  0  0
   -1.7176   49.4345   25.3046 H   0  0  0  0  0  0
   -1.3551   50.9661   28.9343 H   0  0  0  0  0  0
    2.8723   53.3235   30.6034 H   0  0  0  0  0  0
    2.3633   54.1054   25.9709 H   0  0  0  0  0  0
    4.2732   54.9520   24.7460 H   0  0  0  0  0  0
    4.9231   53.0029   29.2394 H   0  0  0  0  0  0
    7.6754   56.0968   24.1447 H   0  0  0  0  0  0
    6.4008   54.9910   23.6462 H   0  0  0  0  0  0
    6.0130   56.4975   24.5099 H   0  0  0  0  0  0
  1  2  1  0  0  0
  1 31  1  0  0  0
  1 32  1  0  0  0
  1 33  1  0  0  0
  2  3  1  0  0  0
  2  4  1  0  0  0
  2 34  1  0  0  0
  3 35  1  0  0  0
  3 36  1  0  0  0
  3 37  1  0  0  0
  4  5  1  0  0  0
  4 38  1  0  0  0
  5  6  2  0  0  0
  5  7  1  0  0  0
  7 13  1  0  0  0
  7  8  1  0  0  0
  8  9  1  0  0  0
  8 39  1  0  0  0
  8 40  1  0  0  0
  9 10  1  0  0  0
  9 41  1  0  0  0
  9 42  1  0  0  0
 10 11  1  0  0  0
 10 43  1  0  0  0
 10 44  1  0  0  0
 11 12  1  0  0  0
 11 13  1  0  0  0
 11 14  1  0  0  0
 13 45  1  0  0  0
 13 46  1  0  0  0
 14 15  2  0  0  0
 14 16  1  0  0  0
 16 17  1  0  0  0
 16 47  1  0  0  0
 17 21  1  0  0  0
 17 18  2  0  0  0
 18 19  1  0  0  0
 19 20  2  0  0  0
 19 22  1  0  0  0
 20 21  1  0  0  0
 20 48  1  0  0  0
 22 27  2  0  0  0
 22 23  1  0  0  0
 23 24  2  0  0  0
 23 49  1  0  0  0
 24 25  1  0  0  0
 24 50  1  0  0  0
 25 26  2  0  0  0
 25 29  1  0  0  0
 26 27  1  0  0  0
 26 28  1  0  0  0
 27 51  1  0  0  0
 29 30  1  0  0  0
 30 52  1  0  0  0
 30 53  1  0  0  0
 30 54  1  0  0  0
M  END
> <i_i_glide_confnum>
101

> <i_i_glide_lignum>
37

> <i_i_glide_posenum>
197

> <i_i_glide_rotatable_bonds>
8

> <i_m_Source_File_Index>
2260

> <b_m_subgroup_collapsed>
0

> <r_i_docking_score>
-6.06461

> <r_i_glide_ecoul>
-4.32923

> <r_i_glide_eff_state_penalty>
0

> <r_i_glide_einternal>
9.46348

> <r_i_glide_emodel>
-60.1118

> <r_i_glide_energy>
-46.801

> <r_i_glide_erotb>
0.671625

> <r_i_glide_esite>
-0.129492

> <r_i_glide_evdw>
-42.4718

> <r_i_glide_gscore>
-6.06461

> <r_i_glide_hbond>
-0.32

> <r_i_glide_ligand_efficiency>
-0.209124

> <r_i_glide_ligand_efficiency_ln>
-1.38864

> <r_i_glide_ligand_efficiency_sa>
-0.642496

> <r_i_glide_lipo>
-2.54915

> <r_i_glide_metal>
0

> <r_i_glide_rewards>
-0.964614

> <s_i_glide_gridfile>
wee1_glide-grid

> <s_m_Source_File>
wee1_decoys_glide_SP.sdf

> <s_m_Source_Path>
/Users/zhangxujun/Desktop

> <s_m_entry_id>
2535

> <s_m_entry_name>
wee1_decoys_glide_SP.2260

> <s_m_subgroup_title>
wee1_decoys_glide_SP

> <s_m_subgroupid>
wee1_decoys_glide_SP


$$$$
