ZINC03040696_2005
                    3D
 Schrodinger Suite 2024-2.
 60 64  0  0  1  0            999 V2000
    7.1673   54.9761   21.9971 C   0  0  0  0  0  0
    5.8569   54.4978   22.2649 O   0  0  0  0  0  0
    5.4019   54.4953   23.5676 C   0  0  0  0  0  0
    6.1623   54.8963   24.6787 C   0  0  0  0  0  0
    5.6009   54.8940   25.9545 C   0  0  0  0  0  0
    4.2841   54.4746   26.1362 C   0  0  0  0  0  0
    3.5203   54.0453   25.0470 C   0  0  0  0  0  0
    4.0826   54.0856   23.7622 C   0  0  0  0  0  0
    2.2416   53.5405   25.3421 N   0  0  0  0  0  0
    1.5050   52.6489   24.6419 C   0  0  0  0  0  0
    1.6274   52.4476   23.4373 O   0  0  0  0  0  0
    0.6079   51.9149   25.3384 N   0  0  0  0  0  0
    0.3042   51.8701   26.7202 C   0  0  0  0  0  0
    1.3115   52.0626   27.6820 C   0  0  0  0  0  0
    1.0117   52.1444   29.0415 C   0  0  0  0  0  0
   -0.3095   51.9862   29.4559 C   0  0  0  0  0  0
   -1.2979   51.6965   28.5220 C   0  0  0  0  0  0
   -1.0212   51.6010   27.1507 C   0  0  0  0  0  0
   -2.0811   51.2219   26.3193 N   0  0  0  0  0  0
   -3.3365   51.9961   26.2974 C   0  0  0  0  0  0
   -4.6030   51.1666   25.9389 C   0  0  1  0  0  0
   -5.4726   51.8135   25.8173 H   0  0  0  0  0  0
   -4.3983   50.5317   24.5585 C   0  0  0  0  0  0
   -3.1448   49.6555   24.6359 C   0  0  1  0  0  0
   -2.9620   49.2580   23.6360 H   0  0  0  0  0  0
   -1.9154   50.5082   25.0405 C   0  0  0  0  0  0
   -3.3656   48.4952   25.6203 C   0  0  0  0  0  0
   -2.7808   47.2910   25.4132 C   0  0  0  0  0  0
   -2.9729   46.2470   26.3981 C   0  0  0  0  0  0
   -3.7761   46.4826   27.4521 C   0  0  0  0  0  0
   -4.4961   47.7353   27.6394 C   0  0  0  0  0  0
   -5.3407   47.8212   28.5351 O   0  0  0  0  0  0
   -4.1984   48.7375   26.7303 N   0  0  0  0  0  0
   -4.8944   50.0356   26.9646 C   0  0  0  0  0  0
    2.0894   52.4001   30.0314 C   0  0  0  0  0  0
    3.1211   51.6969   29.9581 O   0  0  0  0  0  0
    1.8893   53.2966   30.8737 O   0  5  0  0  0  0
    7.3612   54.9241   20.9257 H   0  0  0  0  0  0
    7.2977   56.0125   22.3118 H   0  0  0  0  0  0
    7.9045   54.3509   22.4964 H   0  0  0  0  0  0
    7.1856   55.2207   24.5659 H   0  0  0  0  0  0
    6.1875   55.2068   26.8061 H   0  0  0  0  0  0
    3.8760   54.4535   27.1373 H   0  0  0  0  0  0
    3.5179   53.7877   22.8927 H   0  0  0  0  0  0
    1.9371   53.7013   26.2893 H   0  0  0  0  0  0
    0.0042   51.3413   24.7694 H   0  0  0  0  0  0
    2.3475   52.1503   27.3876 H   0  0  0  0  0  0
   -0.5676   52.0314   30.5071 H   0  0  0  0  0  0
   -2.2932   51.4924   28.8891 H   0  0  0  0  0  0
   -3.5132   52.4268   27.2826 H   0  0  0  0  0  0
   -3.2330   52.8589   25.6373 H   0  0  0  0  0  0
   -5.2695   49.9453   24.2591 H   0  0  0  0  0  0
   -4.2740   51.3053   23.7985 H   0  0  0  0  0  0
   -1.7272   51.2597   24.2720 H   0  0  0  0  0  0
   -1.0442   49.8527   25.0868 H   0  0  0  0  0  0
   -2.1352   47.1287   24.5638 H   0  0  0  0  0  0
   -2.4170   45.3239   26.3456 H   0  0  0  0  0  0
   -3.8674   45.7312   28.2212 H   0  0  0  0  0  0
   -4.6618   50.3821   27.9733 H   0  0  0  0  0  0
   -5.9701   49.8567   27.0036 H   0  0  0  0  0  0
  1  2  1  0  0  0
  1 38  1  0  0  0
  1 39  1  0  0  0
  1 40  1  0  0  0
  2  3  1  0  0  0
  3  8  2  0  0  0
  3  4  1  0  0  0
  4  5  2  0  0  0
  4 41  1  0  0  0
  5  6  1  0  0  0
  5 42  1  0  0  0
  6  7  2  0  0  0
  6 43  1  0  0  0
  7  8  1  0  0  0
  7  9  1  0  0  0
  8 44  1  0  0  0
  9 10  1  0  0  0
  9 45  1  0  0  0
 10 11  2  0  0  0
 10 12  1  0  0  0
 12 13  1  0  0  0
 12 46  1  0  0  0
 13 18  2  0  0  0
 13 14  1  0  0  0
 14 15  2  0  0  0
 14 47  1  0  0  0
 15 16  1  0  0  0
 15 35  1  0  0  0
 16 17  2  0  0  0
 16 48  1  0  0  0
 17 18  1  0  0  0
 17 49  1  0  0  0
 18 19  1  0  0  0
 19 26  1  0  0  0
 19 20  1  0  0  0
 20 21  1  0  0  0
 20 50  1  0  0  0
 20 51  1  0  0  0
 21 22  1  0  0  0
 21 34  1  0  0  0
 21 23  1  0  0  0
 23 24  1  0  0  0
 23 52  1  0  0  0
 23 53  1  0  0  0
 24 25  1  0  0  0
 24 26  1  0  0  0
 24 27  1  0  0  0
 26 54  1  0  0  0
 26 55  1  0  0  0
 27 33  1  0  0  0
 27 28  2  0  0  0
 28 29  1  0  0  0
 28 56  1  0  0  0
 29 30  2  0  0  0
 29 57  1  0  0  0
 30 31  1  0  0  0
 30 58  1  0  0  0
 31 32  2  0  0  0
 31 33  1  0  0  0
 33 34  1  0  0  0
 34 59  1  0  0  0
 34 60  1  0  0  0
 35 36  2  0  0  0
 35 37  1  0  0  0
M  CHG  1  37  -1
M  END
> <i_i_glide_confnum>
5

> <i_i_glide_lignum>
2006

> <i_i_glide_posenum>
347

> <i_i_glide_rotatable_bonds>
7

> <i_m_Source_File_Index>
3873

> <b_m_subgroup_collapsed>
0

> <r_i_docking_score>
-4.1677

> <r_i_glide_ecoul>
-3.53209

> <r_i_glide_eff_state_penalty>
0

> <r_i_glide_einternal>
7.63199

> <r_i_glide_emodel>
-50.6841

> <r_i_glide_energy>
-44.9609

> <r_i_glide_erotb>
0.451109

> <r_i_glide_esite>
-0.118521

> <r_i_glide_evdw>
-41.4288

> <r_i_glide_gscore>
-4.1677

> <r_i_glide_hbond>
-0.253851

> <r_i_glide_ligand_efficiency>
-0.119077

> <r_i_glide_ligand_efficiency_ln>
-0.914903

> <r_i_glide_ligand_efficiency_sa>
-0.38951

> <r_i_glide_lipo>
-1.94951

> <r_i_glide_metal>
0

> <r_i_glide_rewards>
0.304326

> <s_i_glide_gridfile>
wee1_glide-grid

> <s_m_Source_File>
wee1_decoys_glide_SP.sdf

> <s_m_Source_Path>
/Users/zhangxujun/Desktop

> <s_m_entry_id>
4148

> <s_m_entry_name>
wee1_decoys_glide_SP.3873

> <s_m_subgroup_title>
wee1_decoys_glide_SP

> <s_m_subgroupid>
wee1_decoys_glide_SP


$$$$
