ZINC31807880_799
                    3D
 Schrodinger Suite 2024-2.
 59 62  0  0  1  0            999 V2000
   -7.3627   49.7300   26.3160 C   0  0  0  0  0  0
   -5.8519   49.8441   26.1847 C   0  0  0  0  0  0
   -5.0307   49.0871   27.0259 C   0  0  0  0  0  0
   -3.6950   49.1523   26.8816 N   0  3  0  0  0  0
   -3.0768   49.9203   25.9605 C   0  0  0  0  0  0
   -3.8557   50.7103   25.0914 C   0  0  0  0  0  0
   -5.2590   50.6680   25.2091 C   0  0  0  0  0  0
   -6.0493   51.3966   24.3521 O   0  0  0  0  0  0
   -6.4020   52.6893   24.8276 C   0  0  0  0  0  0
   -3.1909   51.5704   24.0207 C   0  0  0  0  0  0
   -1.5473   49.8490   25.9070 C   0  0  0  0  0  0
   -0.8840   51.0904   26.3247 N   0  0  0  0  0  0
   -1.0772   51.3544   27.7570 C   0  0  0  0  0  0
   -0.4385   52.6982   28.1748 C   0  0  0  0  0  0
    1.0837   52.7364   27.8384 N   0  3  0  0  0  0
    1.2431   52.3289   26.3525 C   0  0  0  0  0  0
    0.5507   50.9902   26.0429 C   0  0  0  0  0  0
    1.7357   54.1438   28.1152 C   0  0  2  0  0  0
    1.1715   54.8214   27.4736 H   0  0  0  0  0  0
    3.2503   54.1407   27.7905 C   0  0  0  0  0  0
    4.3125   54.0315   28.6858 C   0  0  0  0  0  0
    5.5200   54.1320   28.0509 N   0  0  0  0  0  0
    6.4030   54.1145   28.5477 H   0  0  0  0  0  0
    5.3132   54.2776   26.7037 C   0  0  0  0  0  0
    3.8943   54.2952   26.4992 C   0  0  0  0  0  0
    3.4294   54.4412   25.1808 C   0  0  0  0  0  0
    4.3392   54.4928   24.1298 C   0  0  0  0  0  0
    5.7080   54.4868   24.3630 C   0  0  0  0  0  0
    6.2282   54.3963   25.6525 C   0  0  0  0  0  0
    6.8970   54.5890   22.8822 Br  0  0  0  0  0  0
    1.5057   54.5711   29.6020 C   0  0  0  0  0  0
    1.4314   53.6809   30.4816 O   0  0  0  0  0  0
    1.5175   55.7983   29.8483 O   0  5  0  0  0  0
   -7.8523   49.8538   25.3486 H   0  0  0  0  0  0
   -7.6528   48.7438   26.6816 H   0  0  0  0  0  0
   -7.7476   50.4847   27.0019 H   0  0  0  0  0  0
   -5.3902   48.4262   27.8020 H   0  0  0  0  0  0
   -7.0415   53.1756   24.0890 H   0  0  0  0  0  0
   -6.9549   52.6417   25.7673 H   0  0  0  0  0  0
   -5.5217   53.3183   24.9717 H   0  0  0  0  0  0
   -3.9044   51.9706   23.3010 H   0  0  0  0  0  0
   -2.6519   52.4016   24.4782 H   0  0  0  0  0  0
   -2.4681   50.9848   23.4506 H   0  0  0  0  0  0
   -1.2810   49.6206   24.8741 H   0  0  0  0  0  0
   -1.1717   49.0008   26.4782 H   0  0  0  0  0  0
   -0.6121   50.5422   28.3198 H   0  0  0  0  0  0
   -2.1378   51.3781   28.0093 H   0  0  0  0  0  0
   -0.5549   52.7955   29.2529 H   0  0  0  0  0  0
   -0.8956   53.5527   27.6819 H   0  0  0  0  0  0
    0.8380   53.1364   25.7436 H   0  0  0  0  0  0
    2.3059   52.2033   26.1834 H   0  0  0  0  0  0
    0.7137   50.7493   24.9897 H   0  0  0  0  0  0
    0.9850   50.1908   26.6495 H   0  0  0  0  0  0
    4.3003   53.9164   29.7616 H   0  0  0  0  0  0
    2.3773   54.4909   24.9580 H   0  0  0  0  0  0
    3.9718   54.5545   23.1129 H   0  0  0  0  0  0
    7.2922   54.3951   25.8220 H   0  0  0  0  0  0
    1.5455   52.0426   28.4088 H   0  0  0  0  0  0
   -3.0949   48.6234   27.5197 H   0  0  0  0  0  0
  1  2  1  0  0  0
  1 34  1  0  0  0
  1 35  1  0  0  0
  1 36  1  0  0  0
  2  7  2  0  0  0
  2  3  1  0  0  0
  3  4  2  0  0  0
  3 37  1  0  0  0
  4  5  1  0  0  0
  4 59  1  0  0  0
  5  6  2  0  0  0
  5 11  1  0  0  0
  6  7  1  0  0  0
  6 10  1  0  0  0
  7  8  1  0  0  0
  8  9  1  0  0  0
  9 38  1  0  0  0
  9 39  1  0  0  0
  9 40  1  0  0  0
 10 41  1  0  0  0
 10 42  1  0  0  0
 10 43  1  0  0  0
 11 12  1  0  0  0
 11 44  1  0  0  0
 11 45  1  0  0  0
 12 17  1  0  0  0
 12 13  1  0  0  0
 13 14  1  0  0  0
 13 46  1  0  0  0
 13 47  1  0  0  0
 14 15  1  0  0  0
 14 48  1  0  0  0
 14 49  1  0  0  0
 15 16  1  0  0  0
 15 18  1  0  0  0
 15 58  1  0  0  0
 16 17  1  0  0  0
 16 50  1  0  0  0
 16 51  1  0  0  0
 17 52  1  0  0  0
 17 53  1  0  0  0
 18 19  1  0  0  0
 18 20  1  0  0  0
 18 31  1  0  0  0
 20 25  1  0  0  0
 20 21  2  0  0  0
 21 22  1  0  0  0
 21 54  1  0  0  0
 22 23  1  0  0  0
 22 24  1  0  0  0
 24 29  2  0  0  0
 24 25  1  0  0  0
 25 26  2  0  0  0
 26 27  1  0  0  0
 26 55  1  0  0  0
 27 28  2  0  0  0
 27 56  1  0  0  0
 28 29  1  0  0  0
 28 30  1  0  0  0
 29 57  1  0  0  0
 31 32  2  0  0  0
 31 33  1  0  0  0
M  CHG  3   4   1  15   1  33  -1
M  END
> <i_i_glide_confnum>
7

> <i_i_glide_lignum>
800

> <i_i_glide_posenum>
180

> <i_i_glide_rotatable_bonds>
6

> <i_m_Source_File_Index>
5329

> <b_m_subgroup_collapsed>
0

> <r_i_docking_score>
-5.16641

> <r_i_glide_ecoul>
-2.61308

> <r_i_glide_eff_state_penalty>
0

> <r_i_glide_einternal>
3.03487

> <r_i_glide_emodel>
-53.5408

> <r_i_glide_energy>
-37.5961

> <r_i_glide_erotb>
0.341022

> <r_i_glide_esite>
-0.1

> <r_i_glide_evdw>
-34.983

> <r_i_glide_gscore>
-5.16641

> <r_i_glide_hbond>
-0.254195

> <r_i_glide_ligand_efficiency>
-0.166658

> <r_i_glide_ligand_efficiency_ln>
-1.16518

> <r_i_glide_ligand_efficiency_sa>
-0.523537

> <r_i_glide_lipo>
-2.49799

> <r_i_glide_metal>
0

> <r_i_glide_rewards>
-0.514132

> <s_i_glide_gridfile>
wee1_glide-grid

> <s_m_Source_File>
wee1_decoys_glide_SP.sdf

> <s_m_Source_Path>
/Users/zhangxujun/Desktop

> <s_m_entry_id>
5604

> <s_m_entry_name>
wee1_decoys_glide_SP.5329

> <s_m_subgroup_title>
wee1_decoys_glide_SP

> <s_m_subgroupid>
wee1_decoys_glide_SP


$$$$
