ZINC10698118_6033
                    3D
 Schrodinger Suite 2024-2.
 60 64  0  0  1  0            999 V2000
    5.5986   55.1701   18.3622 C   0  0  0  0  0  0
    5.8932   53.8179   19.0500 C   0  0  0  0  0  0
    3.6456   53.8253   20.2783 C   0  0  0  0  0  0
    2.9478   53.3256   21.5693 C   0  0  0  0  0  0
    3.6897   53.7509   22.8443 C   0  0  0  0  0  0
    4.9913   54.2584   22.7588 C   0  0  0  0  0  0
    5.6930   54.5357   24.3034 S   0  0  0  0  0  0
    4.2077   54.0786   25.1033 C   0  0  0  0  0  0
    3.1991   53.6995   24.1860 C   0  0  0  0  0  0
    1.8167   53.2328   24.5557 C   0  0  0  0  0  0
    0.8353   53.1531   23.6937 N   0  0  0  0  0  0
   -0.2945   52.6122   24.2213 C   0  0  0  0  0  0
   -1.4873   52.3949   23.5150 C   0  0  0  0  0  0
   -2.5621   51.8236   24.1973 C   0  0  0  0  0  0
   -2.4609   51.4699   25.5420 C   0  0  0  0  0  0
   -1.2862   51.6756   26.2642 C   0  0  0  0  0  0
   -0.2037   52.2544   25.5867 C   0  0  0  0  0  0
    1.3924   52.6678   26.1687 S   0  0  0  0  0  0
    4.1049   54.0665   26.4943 N   0  0  0  0  0  0
    5.1010   54.0498   27.4078 C   0  0  0  0  0  0
    6.2979   54.2037   27.1502 O   0  0  0  0  0  0
    4.7327   53.7914   28.8755 C   0  0  0  0  0  0
    3.2641   53.9961   29.2769 C   0  0  0  0  0  0
    2.8319   55.2967   29.5071 C   0  0  0  0  0  0
    1.5905   55.5525   30.0800 C   0  0  0  0  0  0
    0.7047   54.5015   30.3169 C   0  0  0  0  0  0
    1.0864   53.1987   30.0091 C   0  0  0  0  0  0
    2.3665   52.9400   29.5049 C   0  0  0  0  0  0
    2.7471   51.5121   29.1965 C   0  0  0  0  0  0
    1.2601   56.9637   30.4817 C   0  0  0  0  0  0
    5.7118   54.6156   21.4727 C   0  0  0  0  0  0
    6.1706   55.2583   17.4384 H   0  0  0  0  0  0
    4.5495   55.2725   18.0901 H   0  0  0  0  0  0
    5.8730   56.0245   18.9811 H   0  0  0  0  0  0
    6.9540   53.7002   19.2769 H   0  0  0  0  0  0
    5.5813   52.9636   18.4421 H   0  0  0  0  0  0
    3.5056   54.8954   20.1078 H   0  0  0  0  0  0
    3.3028   53.2626   19.4068 H   0  0  0  0  0  0
    2.8899   52.2379   21.5511 H   0  0  0  0  0  0
    1.9273   53.6956   21.5581 H   0  0  0  0  0  0
   -1.5669   52.6499   22.4693 H   0  0  0  0  0  0
   -3.4894   51.6388   23.6717 H   0  0  0  0  0  0
   -3.3085   51.0179   26.0353 H   0  0  0  0  0  0
   -1.2100   51.3881   27.3051 H   0  0  0  0  0  0
    3.1787   53.8910   26.8590 H   0  0  0  0  0  0
    5.3316   54.4837   29.4722 H   0  0  0  0  0  0
    5.0803   52.7956   29.1482 H   0  0  0  0  0  0
    3.5044   56.1115   29.3025 H   0  0  0  0  0  0
   -0.2655   54.6872   30.7552 H   0  0  0  0  0  0
    0.3917   52.3891   30.1935 H   0  0  0  0  0  0
    3.5524   51.1864   29.8506 H   0  0  0  0  0  0
    1.8918   50.8427   29.2812 H   0  0  0  0  0  0
    3.1040   51.4618   28.1724 H   0  0  0  0  0  0
    1.3820   57.6327   29.6314 H   0  0  0  0  0  0
    1.9485   57.2988   31.2559 H   0  0  0  0  0  0
    0.2569   57.0519   30.8811 H   0  0  0  0  0  0
    5.5031   55.6407   21.1639 H   0  0  0  0  0  0
    6.7945   54.4972   21.5346 H   0  0  0  0  0  0
    5.1675   53.6331   20.4081 N   0  3  2  0  0  0
    5.3357   52.6790   20.6928 H   0  0  0  0  0  0
  1  2  1  0  0  0
  1 32  1  0  0  0
  1 33  1  0  0  0
  1 34  1  0  0  0
  2 35  1  0  0  0
  2 36  1  0  0  0
  2 59  1  0  0  0
  3  4  1  0  0  0
  3 37  1  0  0  0
  3 38  1  0  0  0
  3 59  1  0  0  0
  4  5  1  0  0  0
  4 39  1  0  0  0
  4 40  1  0  0  0
  5  9  1  0  0  0
  5  6  2  0  0  0
  6  7  1  0  0  0
  6 31  1  0  0  0
  7  8  1  0  0  0
  8  9  2  0  0  0
  8 19  1  0  0  0
  9 10  1  0  0  0
 10 18  1  0  0  0
 10 11  2  0  0  0
 11 12  1  0  0  0
 12 17  2  0  0  0
 12 13  1  0  0  0
 13 14  2  0  0  0
 13 41  1  0  0  0
 14 15  1  0  0  0
 14 42  1  0  0  0
 15 16  2  0  0  0
 15 43  1  0  0  0
 16 17  1  0  0  0
 16 44  1  0  0  0
 17 18  1  0  0  0
 19 20  1  0  0  0
 19 45  1  0  0  0
 20 21  2  0  0  0
 20 22  1  0  0  0
 22 23  1  0  0  0
 22 46  1  0  0  0
 22 47  1  0  0  0
 23 28  2  0  0  0
 23 24  1  0  0  0
 24 25  2  0  0  0
 24 48  1  0  0  0
 25 26  1  0  0  0
 25 30  1  0  0  0
 26 27  2  0  0  0
 26 49  1  0  0  0
 27 28  1  0  0  0
 27 50  1  0  0  0
 28 29  1  0  0  0
 29 51  1  0  0  0
 29 52  1  0  0  0
 29 53  1  0  0  0
 30 54  1  0  0  0
 30 55  1  0  0  0
 30 56  1  0  0  0
 31 57  1  0  0  0
 31 58  1  0  0  0
 31 59  1  0  0  0
 59 60  1  0  0  0
M  CHG  1  59   1
M  END
> <i_i_glide_confnum>
66

> <i_i_glide_lignum>
6034

> <i_i_glide_posenum>
146

> <i_i_glide_rotatable_bonds>
6

> <i_m_Source_File_Index>
3728

> <b_m_subgroup_collapsed>
0

> <r_i_docking_score>
-6.57858

> <r_i_glide_ecoul>
-2.1178

> <r_i_glide_eff_state_penalty>
0

> <r_i_glide_einternal>
11.0673

> <r_i_glide_emodel>
-65.7447

> <r_i_glide_energy>
-49.4436

> <r_i_glide_erotb>
0.470589

> <r_i_glide_esite>
-0.00318172

> <r_i_glide_evdw>
-47.3258

> <r_i_glide_gscore>
-6.57858

> <r_i_glide_hbond>
0

> <r_i_glide_ligand_efficiency>
-0.205581

> <r_i_glide_ligand_efficiency_ln>
-1.47312

> <r_i_glide_ligand_efficiency_sa>
-0.652678

> <r_i_glide_lipo>
-3.69001

> <r_i_glide_metal>
0

> <r_i_glide_rewards>
-0.67202

> <s_i_glide_gridfile>
wee1_glide-grid

> <s_m_Source_File>
wee1_decoys_glide_SP.sdf

> <s_m_Source_Path>
/Users/zhangxujun/Desktop

> <s_m_entry_id>
4003

> <s_m_entry_name>
wee1_decoys_glide_SP.3728

> <s_m_subgroup_title>
wee1_decoys_glide_SP

> <s_m_subgroupid>
wee1_decoys_glide_SP


$$$$
