ZINC01124226_3515
                    3D
 Schrodinger Suite 2024-2.
 51 53  0  0  1  0            999 V2000
    0.0544   52.2884   22.6533 C   0  0  0  0  0  0
    0.0617   51.3080   23.8186 C   0  0  0  0  0  0
   -0.1192   51.8125   25.1108 C   0  0  0  0  0  0
   -0.0359   50.9691   26.2257 C   0  0  0  0  0  0
    0.1384   49.5981   26.0418 C   0  0  0  0  0  0
    0.3098   49.0824   24.7611 C   0  0  0  0  0  0
    0.3052   49.9282   23.6497 C   0  0  0  0  0  0
    0.6413   49.3518   22.4185 N   0  0  0  0  0  0
   -0.1472   49.3017   21.3272 C   0  0  0  0  0  0
   -1.3065   49.7173   21.2762 O   0  0  0  0  0  0
    0.4939   48.7057   20.1850 C   0  0  0  0  0  0
    1.8367   48.5962   19.8169 C   0  0  0  0  0  0
    1.8622   48.0282   18.5431 C   0  0  0  0  0  0
    0.5424   47.8374   18.1742 C   0  0  0  0  0  0
   -0.2869   48.2669   19.1601 O   0  0  0  0  0  0
   -0.0956   51.4763   27.5341 N   0  0  0  0  0  0
    0.6765   52.4560   28.0950 C   0  0  0  0  0  0
    0.3216   52.8883   29.6702 S   0  0  0  0  0  0
    1.6842   52.9460   27.2967 N   0  0  0  0  0  0
    2.5632   53.9722   27.4270 C   0  0  0  0  0  0
    2.6259   54.7442   28.3864 O   0  0  0  0  0  0
    3.5043   54.1343   26.2502 C   0  0  0  0  0  0
    3.0354   53.9176   24.9418 C   0  0  0  0  0  0
    3.8679   54.0943   23.8407 C   0  0  0  0  0  0
    5.1837   54.4960   24.0219 C   0  0  0  0  0  0
    5.6667   54.7490   25.3037 C   0  0  0  0  0  0
    4.8414   54.5537   26.4238 C   0  0  0  0  0  0
    5.3556   54.8404   27.6679 O   0  0  0  0  0  0
    5.9037   53.7304   28.3648 C   0  0  0  0  0  0
    7.0804   55.2695   25.4633 C   0  0  0  0  0  0
    3.2093   53.7974   22.0818 Br  0  0  0  0  0  0
    0.3069   53.2969   22.9801 H   0  0  0  0  0  0
    0.7983   52.0177   21.9035 H   0  0  0  0  0  0
   -0.9249   52.3063   22.1748 H   0  0  0  0  0  0
   -0.2907   52.8702   25.2528 H   0  0  0  0  0  0
    0.1803   48.9211   26.8817 H   0  0  0  0  0  0
    0.4948   48.0238   24.6490 H   0  0  0  0  0  0
    1.5401   48.8967   22.3735 H   0  0  0  0  0  0
    2.7012   48.9069   20.3872 H   0  0  0  0  0  0
    2.7382   47.8149   17.9455 H   0  0  0  0  0  0
    0.0673   47.4564   17.2821 H   0  0  0  0  0  0
   -0.7653   51.0245   28.1422 H   0  0  0  0  0  0
    1.8014   52.4285   26.4390 H   0  0  0  0  0  0
    2.0123   53.6271   24.7567 H   0  0  0  0  0  0
    5.8173   54.6391   23.1591 H   0  0  0  0  0  0
    6.3864   54.0963   29.2723 H   0  0  0  0  0  0
    5.1315   53.0164   28.6561 H   0  0  0  0  0  0
    6.6582   53.2059   27.7743 H   0  0  0  0  0  0
    7.5038   55.6173   24.5205 H   0  0  0  0  0  0
    7.0846   56.1045   26.1566 H   0  0  0  0  0  0
    7.7028   54.4967   25.8953 H   0  0  0  0  0  0
  1  2  1  0  0  0
  1 32  1  0  0  0
  1 33  1  0  0  0
  1 34  1  0  0  0
  2  7  2  0  0  0
  2  3  1  0  0  0
  3  4  2  0  0  0
  3 35  1  0  0  0
  4  5  1  0  0  0
  4 16  1  0  0  0
  5  6  2  0  0  0
  5 36  1  0  0  0
  6  7  1  0  0  0
  6 37  1  0  0  0
  7  8  1  0  0  0
  8  9  1  0  0  0
  8 38  1  0  0  0
  9 10  2  0  0  0
  9 11  1  0  0  0
 11 15  1  0  0  0
 11 12  2  0  0  0
 12 13  1  0  0  0
 12 39  1  0  0  0
 13 14  2  0  0  0
 13 40  1  0  0  0
 14 15  1  0  0  0
 14 41  1  0  0  0
 16 17  1  0  0  0
 16 42  1  0  0  0
 17 18  2  0  0  0
 17 19  1  0  0  0
 19 20  1  0  0  0
 19 43  1  0  0  0
 20 21  2  0  0  0
 20 22  1  0  0  0
 22 27  2  0  0  0
 22 23  1  0  0  0
 23 24  2  0  0  0
 23 44  1  0  0  0
 24 25  1  0  0  0
 24 31  1  0  0  0
 25 26  2  0  0  0
 25 45  1  0  0  0
 26 27  1  0  0  0
 26 30  1  0  0  0
 27 28  1  0  0  0
 28 29  1  0  0  0
 29 46  1  0  0  0
 29 47  1  0  0  0
 29 48  1  0  0  0
 30 49  1  0  0  0
 30 50  1  0  0  0
 30 51  1  0  0  0
M  END
> <i_i_glide_confnum>
190

> <i_i_glide_lignum>
3516

> <i_i_glide_posenum>
124

> <i_i_glide_rotatable_bonds>
9

> <i_m_Source_File_Index>
3039

> <b_m_subgroup_collapsed>
0

> <r_i_docking_score>
-4.32526

> <r_i_glide_ecoul>
-3.65589

> <r_i_glide_eff_state_penalty>
0

> <r_i_glide_einternal>
7.34953

> <r_i_glide_emodel>
-58.5901

> <r_i_glide_energy>
-50.3153

> <r_i_glide_erotb>
0.647665

> <r_i_glide_esite>
-0.0387012

> <r_i_glide_evdw>
-46.6594

> <r_i_glide_gscore>
-4.32526

> <r_i_glide_hbond>
0

> <r_i_glide_ligand_efficiency>
-0.139524

> <r_i_glide_ligand_efficiency_ln>
-0.975479

> <r_i_glide_ligand_efficiency_sa>
-0.4383

> <r_i_glide_lipo>
-2.02889

> <r_i_glide_metal>
0

> <r_i_glide_rewards>
-0.0239791

> <s_i_glide_gridfile>
wee1_glide-grid

> <s_m_Source_File>
wee1_decoys_glide_SP.sdf

> <s_m_Source_Path>
/Users/zhangxujun/Desktop

> <s_m_entry_id>
3314

> <s_m_entry_name>
wee1_decoys_glide_SP.3039

> <s_m_subgroup_title>
wee1_decoys_glide_SP

> <s_m_subgroupid>
wee1_decoys_glide_SP


$$$$
