ZINC38737054_3439
                    3D
 Schrodinger Suite 2024-2.
 64 68  0  0  1  0            999 V2000
    0.8655   55.2246   30.9897 C   0  0  0  0  0  0
    1.4027   54.5898   29.6772 C   0  0  0  0  0  0
    0.5599   53.3422   29.2557 C   0  0  1  0  0  0
   -0.4945   53.3374   29.5296 H   0  0  0  0  0  0
    0.7393   52.8174   27.8053 C   0  0  0  0  0  0
    2.2074   52.9182   27.3098 C   0  0  0  0  0  0
    3.2595   53.1792   28.4527 C   0  0  2  0  0  0
    3.6487   52.1772   28.6550 H   0  0  0  0  0  0
    2.5768   53.5621   29.8119 C   0  0  2  0  0  0
    3.3407   53.7420   30.5641 H   0  0  0  0  0  0
    1.4968   52.5137   30.1588 C   0  0  0  0  0  0
    4.5415   53.9471   28.0311 C   0  0  0  0  0  0
    4.8326   53.8922   26.5996 N   0  0  0  0  0  0
    5.7578   54.6307   25.9638 C   0  0  0  0  0  0
    6.6084   55.2952   26.5620 O   0  0  0  0  0  0
    5.6895   54.6423   24.4494 C   0  0  0  0  0  0
    4.6236   54.0683   23.7382 C   0  0  0  0  0  0
    4.6033   54.0965   22.3453 C   0  0  0  0  0  0
    5.6472   54.7061   21.6394 C   0  0  0  0  0  0
    6.7040   55.2972   22.3387 C   0  0  0  0  0  0
    6.7045   55.2771   23.7292 C   0  0  0  0  0  0
    5.6236   54.7461   20.2223 N   0  0  0  0  0  0
    5.2482   53.7581   19.3302 C   0  0  0  0  0  0
    5.4293   54.3147   18.0831 C   0  0  0  0  0  0
    5.9127   55.6162   18.2848 C   0  0  0  0  0  0
    6.0369   55.8566   19.5764 N   0  0  0  0  0  0
    6.2708   56.6358   17.2434 C   0  0  0  0  0  0
    6.7434   57.9097   17.5911 C   0  0  0  0  0  0
    7.0806   58.8357   16.6058 C   0  0  0  0  0  0
    6.9384   58.5103   15.2598 C   0  0  0  0  0  0
    6.4638   57.2492   14.8850 C   0  0  0  0  0  0
    6.1357   56.3231   15.8827 C   0  0  0  0  0  0
    6.3083   56.8874   13.4088 C   0  0  0  0  0  0
    5.0744   57.2012   13.0141 F   0  0  0  0  0  0
    7.1788   57.5556   12.6481 F   0  0  0  0  0  0
    6.4989   55.5813   13.2082 F   0  0  0  0  0  0
    4.8597   52.4984   19.6819 N   0  0  0  0  0  0
    1.6281   55.7650   28.6891 C   0  0  0  0  0  0
    0.7041   54.5135   31.7987 H   0  0  0  0  0  0
   -0.0955   55.6943   30.8265 H   0  0  0  0  0  0
    1.5044   56.0228   31.3628 H   0  0  0  0  0  0
    0.4463   51.7657   27.7897 H   0  0  0  0  0  0
    0.0477   53.2965   27.1172 H   0  0  0  0  0  0
    2.4885   52.0967   26.6575 H   0  0  0  0  0  0
    2.1829   53.7775   26.6443 H   0  0  0  0  0  0
    1.6786   51.4771   29.8763 H   0  0  0  0  0  0
    1.2101   52.4565   31.2101 H   0  0  0  0  0  0
    4.4209   54.9953   28.3112 H   0  0  0  0  0  0
    5.4012   53.5928   28.6042 H   0  0  0  0  0  0
    4.3085   53.2193   26.0644 H   0  0  0  0  0  0
    3.7943   53.5974   24.2476 H   0  0  0  0  0  0
    3.7587   53.6677   21.8252 H   0  0  0  0  0  0
    7.5223   55.7765   21.8184 H   0  0  0  0  0  0
    7.5087   55.7707   24.2488 H   0  0  0  0  0  0
    5.2403   53.8184   17.1436 H   0  0  0  0  0  0
    6.8497   58.1918   18.6278 H   0  0  0  0  0  0
    7.4379   59.8161   16.8861 H   0  0  0  0  0  0
    7.1883   59.2482   14.5122 H   0  0  0  0  0  0
    5.7685   55.3512   15.5884 H   0  0  0  0  0  0
    4.9128   51.7376   18.9980 H   0  0  0  0  0  0
    4.7084   52.2241   20.6416 H   0  0  0  0  0  0
    2.0556   55.5035   27.7326 H   0  0  0  0  0  0
    0.7045   56.2964   28.4822 H   0  0  0  0  0  0
    2.3148   56.4934   29.1183 H   0  0  0  0  0  0
  1  2  1  0  0  0
  1 39  1  0  0  0
  1 40  1  0  0  0
  1 41  1  0  0  0
  2  9  1  0  0  0
  2  3  1  0  0  0
  2 38  1  0  0  0
  3  4  1  0  0  0
  3 11  1  0  0  0
  3  5  1  0  0  0
  5  6  1  0  0  0
  5 42  1  0  0  0
  5 43  1  0  0  0
  6  7  1  0  0  0
  6 44  1  0  0  0
  6 45  1  0  0  0
  7  8  1  0  0  0
  7  9  1  0  0  0
  7 12  1  0  0  0
  9 10  1  0  0  0
  9 11  1  0  0  0
 11 46  1  0  0  0
 11 47  1  0  0  0
 12 13  1  0  0  0
 12 48  1  0  0  0
 12 49  1  0  0  0
 13 14  1  0  0  0
 13 50  1  0  0  0
 14 15  2  0  0  0
 14 16  1  0  0  0
 16 21  2  0  0  0
 16 17  1  0  0  0
 17 18  2  0  0  0
 17 51  1  0  0  0
 18 19  1  0  0  0
 18 52  1  0  0  0
 19 20  2  0  0  0
 19 22  1  0  0  0
 20 21  1  0  0  0
 20 53  1  0  0  0
 21 54  1  0  0  0
 22 26  1  0  0  0
 22 23  1  0  0  0
 23 24  2  0  0  0
 23 37  1  0  0  0
 24 25  1  0  0  0
 24 55  1  0  0  0
 25 26  2  0  0  0
 25 27  1  0  0  0
 27 32  2  0  0  0
 27 28  1  0  0  0
 28 29  2  0  0  0
 28 56  1  0  0  0
 29 30  1  0  0  0
 29 57  1  0  0  0
 30 31  2  0  0  0
 30 58  1  0  0  0
 31 32  1  0  0  0
 31 33  1  0  0  0
 32 59  1  0  0  0
 33 34  1  0  0  0
 33 35  1  0  0  0
 33 36  1  0  0  0
 37 60  1  0  0  0
 37 61  1  0  0  0
 38 62  1  0  0  0
 38 63  1  0  0  0
 38 64  1  0  0  0
M  END
> <i_i_glide_confnum>
101

> <i_i_glide_lignum>
3440

> <i_i_glide_posenum>
204

> <i_i_glide_rotatable_bonds>
7

> <i_m_Source_File_Index>
5068

> <b_m_subgroup_collapsed>
0

> <r_i_docking_score>
-6.51454

> <r_i_glide_ecoul>
-4.99489

> <r_i_glide_eff_state_penalty>
0

> <r_i_glide_einternal>
7.21273

> <r_i_glide_emodel>
-58.9236

> <r_i_glide_energy>
-44.7758

> <r_i_glide_erotb>
0.522947

> <r_i_glide_esite>
-0.076297

> <r_i_glide_evdw>
-39.7809

> <r_i_glide_gscore>
-6.51454

> <r_i_glide_hbond>
-0.401116

> <r_i_glide_ligand_efficiency>
-0.18613

> <r_i_glide_ligand_efficiency_ln>
-1.43009

> <r_i_glide_ligand_efficiency_sa>
-0.608843

> <r_i_glide_lipo>
-3.07008

> <r_i_glide_metal>
0

> <r_i_glide_rewards>
-0.751718

> <s_i_glide_gridfile>
wee1_glide-grid

> <s_m_Source_File>
wee1_decoys_glide_SP.sdf

> <s_m_Source_Path>
/Users/zhangxujun/Desktop

> <s_m_entry_id>
5343

> <s_m_entry_name>
wee1_decoys_glide_SP.5068

> <s_m_subgroup_title>
wee1_decoys_glide_SP

> <s_m_subgroupid>
wee1_decoys_glide_SP


$$$$
