ZINC08442119_2437
                    3D
 Schrodinger Suite 2024-2.
 54 58  0  0  1  0            999 V2000
    6.8142   54.7429   26.9762 C   0  0  0  0  0  0
    6.0164   54.5431   25.7054 C   0  0  0  0  0  0
    4.6481   54.7921   25.7356 C   0  0  0  0  0  0
    3.8709   54.5142   24.6203 C   0  0  0  0  0  0
    4.4435   53.9544   23.4823 C   0  0  0  0  0  0
    5.8286   53.7862   23.4191 C   0  0  0  0  0  0
    6.6190   54.0967   24.5272 C   0  0  0  0  0  0
    3.4378   53.3945   22.1292 S   0  0  0  0  0  0
    1.6498   53.5901   22.4821 C   0  0  0  0  0  0
    1.1011   52.7467   23.6234 C   0  0  0  0  0  0
    0.5669   51.4386   23.5917 C   0  0  0  0  0  0
    0.2872   51.1824   24.9172 C   0  0  0  0  0  0
    0.5788   52.2928   25.6337 N   0  0  0  0  0  0
    0.4441   52.4029   26.6286 H   0  0  0  0  0  0
    1.0383   53.2611   24.8417 N   0  0  0  0  0  0
   -0.2353   50.0543   25.4838 O   0  0  0  0  0  0
   -0.5789   49.1019   24.5768 C   0  0  0  0  0  0
   -0.3858   49.1570   23.2303 C   0  0  0  0  0  0
    0.2894   50.3698   22.5264 C   0  0  1  0  0  0
   -0.5059   50.8770   21.3611 C   0  0  0  0  0  0
   -1.7997   51.3964   21.2782 C   0  0  0  0  0  0
   -2.3396   51.6978   20.0238 C   0  0  0  0  0  0
   -1.5801   51.5111   18.8657 C   0  0  0  0  0  0
   -0.2825   51.0037   18.9563 C   0  0  0  0  0  0
    0.2359   50.6778   20.2109 C   0  0  0  0  0  0
    1.4763   50.1315   20.5348 N   0  0  0  0  0  0
    1.6199   49.9418   21.8707 C   0  0  0  0  0  0
    2.6070   49.5174   22.4698 O   0  0  0  0  0  0
    2.5193   49.7389   19.5748 C   0  0  0  0  0  0
    2.3043   48.3933   18.8841 C   0  0  0  0  0  0
    1.2535   47.5666   19.0242 C   0  0  0  0  0  0
   -0.8995   48.0968   22.4222 C   0  0  0  0  0  0
   -1.3603   47.2586   21.7714 N   0  0  0  0  0  0
   -1.1853   48.0980   25.2817 N   0  0  0  0  0  0
    6.4102   54.1101   27.7694 H   0  0  0  0  0  0
    7.8694   54.4962   26.8644 H   0  0  0  0  0  0
    6.7058   55.7693   27.3222 H   0  0  0  0  0  0
    4.1804   55.1862   26.6261 H   0  0  0  0  0  0
    2.8322   54.7762   24.6457 H   0  0  0  0  0  0
    6.2868   53.3783   22.5312 H   0  0  0  0  0  0
    7.6843   53.9314   24.4808 H   0  0  0  0  0  0
    1.1321   53.3140   21.5637 H   0  0  0  0  0  0
    1.4502   54.6516   22.6265 H   0  0  0  0  0  0
   -2.3999   51.5318   22.1665 H   0  0  0  0  0  0
   -3.3514   52.0603   19.9433 H   0  0  0  0  0  0
   -1.9976   51.7458   17.8987 H   0  0  0  0  0  0
    0.2950   50.8507   18.0553 H   0  0  0  0  0  0
    3.4957   49.6951   20.0638 H   0  0  0  0  0  0
    2.6388   50.5147   18.8157 H   0  0  0  0  0  0
    3.1017   48.0962   18.2157 H   0  0  0  0  0  0
    0.4250   47.8023   19.6758 H   0  0  0  0  0  0
    1.2094   46.6338   18.4839 H   0  0  0  0  0  0
   -1.5774   47.2915   24.8213 H   0  0  0  0  0  0
   -1.1472   48.0962   26.2964 H   0  0  0  0  0  0
  1  2  1  0  0  0
  1 35  1  0  0  0
  1 36  1  0  0  0
  1 37  1  0  0  0
  2  7  2  0  0  0
  2  3  1  0  0  0
  3  4  2  0  0  0
  3 38  1  0  0  0
  4  5  1  0  0  0
  4 39  1  0  0  0
  5  6  2  0  0  0
  5  8  1  0  0  0
  6  7  1  0  0  0
  6 40  1  0  0  0
  7 41  1  0  0  0
  8  9  1  0  0  0
  9 10  1  0  0  0
  9 42  1  0  0  0
  9 43  1  0  0  0
 10 15  2  0  0  0
 10 11  1  0  0  0
 11 19  1  0  0  0
 11 12  2  0  0  0
 12 13  1  0  0  0
 12 16  1  0  0  0
 13 14  1  0  0  0
 13 15  1  0  0  0
 16 17  1  0  0  0
 17 18  2  0  0  0
 17 34  1  0  0  0
 18 19  1  0  0  0
 18 32  1  0  0  0
 19 27  1  0  0  0
 19 20  1  0  0  0
 20 25  2  0  0  0
 20 21  1  0  0  0
 21 22  2  0  0  0
 21 44  1  0  0  0
 22 23  1  0  0  0
 22 45  1  0  0  0
 23 24  2  0  0  0
 23 46  1  0  0  0
 24 25  1  0  0  0
 24 47  1  0  0  0
 25 26  1  0  0  0
 26 27  1  0  0  0
 26 29  1  0  0  0
 27 28  2  0  0  0
 29 30  1  0  0  0
 29 48  1  0  0  0
 29 49  1  0  0  0
 30 31  2  0  0  0
 30 50  1  0  0  0
 31 51  1  0  0  0
 31 52  1  0  0  0
 32 33  3  0  0  0
 34 53  1  0  0  0
 34 54  1  0  0  0
M  END
> <i_i_glide_confnum>
38

> <i_i_glide_lignum>
2438

> <i_i_glide_posenum>
305

> <i_i_glide_rotatable_bonds>
6

> <i_m_Source_File_Index>
2995

> <b_m_subgroup_collapsed>
0

> <r_i_docking_score>
-4.78756

> <r_i_glide_ecoul>
-0.759704

> <r_i_glide_eff_state_penalty>
0

> <r_i_glide_einternal>
2.57207

> <r_i_glide_emodel>
-53.3227

> <r_i_glide_energy>
-41.2794

> <r_i_glide_erotb>
0.484069

> <r_i_glide_esite>
-0.101984

> <r_i_glide_evdw>
-40.5197

> <r_i_glide_gscore>
-4.78756

> <r_i_glide_hbond>
-0.129368

> <r_i_glide_ligand_efficiency>
-0.145077

> <r_i_glide_ligand_efficiency_ln>
-1.06473

> <r_i_glide_ligand_efficiency_sa>
-0.465341

> <r_i_glide_lipo>
-2.34604

> <r_i_glide_metal>
0

> <r_i_glide_rewards>
-0.554293

> <s_i_glide_gridfile>
wee1_glide-grid

> <s_m_Source_File>
wee1_decoys_glide_SP.sdf

> <s_m_Source_Path>
/Users/zhangxujun/Desktop

> <s_m_entry_id>
3270

> <s_m_entry_name>
wee1_decoys_glide_SP.2995

> <s_m_subgroup_title>
wee1_decoys_glide_SP

> <s_m_subgroupid>
wee1_decoys_glide_SP


$$$$
