ZINC66412249_1505
                    3D
 Schrodinger Suite 2024-2.
 56 58  0  0  1  0            999 V2000
   -1.5613   49.6723   25.8795 C   0  0  0  0  0  0
   -0.2908   50.2321   25.2221 C   0  0  1  0  0  0
    0.5322   49.9551   25.8845 H   0  0  0  0  0  0
    0.0414   49.4992   23.8833 C   0  0  0  0  0  0
    0.6462   50.4190   22.7827 C   0  0  1  0  0  0
    1.6365   51.3945   23.4834 C   0  0  0  0  0  0
    0.9419   52.4495   24.3909 C   0  0  0  0  0  0
   -0.2352   51.7882   25.1859 C   0  0  0  0  0  0
    1.9738   52.9587   25.4246 C   0  0  0  0  0  0
    0.4202   53.6121   23.5268 C   0  0  0  0  0  0
    1.4579   49.6475   21.7540 C   0  0  0  0  0  0
    2.4018   48.8972   21.9918 O   0  0  0  0  0  0
    1.0068   50.0594   20.5489 N   0  0  0  0  0  0
   -0.1116   50.8273   20.6128 C   0  0  0  0  0  0
   -0.8946   51.1070   19.7083 O   0  0  0  0  0  0
   -0.3170   51.0404   21.9164 N   0  0  0  0  0  0
    1.6495   49.6844   19.2694 C   0  0  0  0  0  0
    1.2868   48.2571   18.8093 C   0  0  0  0  0  0
    0.5034   47.5517   19.4527 O   0  0  0  0  0  0
    1.9044   47.8753   17.6742 N   0  0  0  0  0  0
    1.7824   46.6494   17.0489 C   0  0  0  0  0  0
    2.6190   46.1778   16.0308 C   0  0  0  0  0  0
    2.3045   44.9701   15.6244 N   0  0  0  0  0  0
    1.2368   44.6249   16.3656 N   0  0  0  0  0  0
    0.8690   45.6193   17.2363 C   0  0  0  0  0  0
    0.6140   43.3075   16.2046 C   0  0  0  0  0  0
    0.0584   43.1406   14.7754 C   0  0  0  0  0  0
    1.6157   42.1913   16.5694 C   0  0  0  0  0  0
   -2.4499   49.8876   25.2877 H   0  0  0  0  0  0
   -1.4976   48.5912   26.0060 H   0  0  0  0  0  0
   -1.7136   50.0982   26.8729 H   0  0  0  0  0  0
   -0.8673   49.0906   23.4363 H   0  0  0  0  0  0
    0.6710   48.6294   24.0924 H   0  0  0  0  0  0
    2.3045   50.7760   24.0810 H   0  0  0  0  0  0
    2.2715   51.9445   22.7845 H   0  0  0  0  0  0
   -0.4294   52.2691   26.1462 H   0  0  0  0  0  0
   -1.1479   51.9931   24.6238 H   0  0  0  0  0  0
    1.5752   53.7949   26.0012 H   0  0  0  0  0  0
    2.2625   52.1937   26.1438 H   0  0  0  0  0  0
    2.8853   53.3118   24.9391 H   0  0  0  0  0  0
    0.0717   54.4544   24.1142 H   0  0  0  0  0  0
    1.1892   53.9994   22.8574 H   0  0  0  0  0  0
   -0.4172   53.2930   22.9168 H   0  0  0  0  0  0
   -0.8777   51.8065   22.2518 H   0  0  0  0  0  0
    2.7350   49.7363   19.3827 H   0  0  0  0  0  0
    1.3923   50.3958   18.4836 H   0  0  0  0  0  0
    2.6115   48.4974   17.2844 H   0  0  0  0  0  0
    3.4575   46.7151   15.6121 H   0  0  0  0  0  0
    0.0289   45.5061   17.9070 H   0  0  0  0  0  0
   -0.2240   43.2587   16.9022 H   0  0  0  0  0  0
   -0.4593   42.1880   14.6627 H   0  0  0  0  0  0
    0.8529   43.1698   14.0272 H   0  0  0  0  0  0
   -0.6521   43.9309   14.5308 H   0  0  0  0  0  0
    1.1465   41.2088   16.5195 H   0  0  0  0  0  0
    2.4690   42.1803   15.8879 H   0  0  0  0  0  0
    2.0060   42.3229   17.5806 H   0  0  0  0  0  0
  1  2  1  0  0  0
  1 29  1  0  0  0
  1 30  1  0  0  0
  1 31  1  0  0  0
  2  3  1  0  0  0
  2  8  1  0  0  0
  2  4  1  0  0  0
  4  5  1  0  0  0
  4 32  1  0  0  0
  4 33  1  0  0  0
  5 16  1  0  0  0
  5  6  1  0  0  0
  5 11  1  0  0  0
  6  7  1  0  0  0
  6 34  1  0  0  0
  6 35  1  0  0  0
  7  8  1  0  0  0
  7  9  1  0  0  0
  7 10  1  0  0  0
  8 36  1  0  0  0
  8 37  1  0  0  0
  9 38  1  0  0  0
  9 39  1  0  0  0
  9 40  1  0  0  0
 10 41  1  0  0  0
 10 42  1  0  0  0
 10 43  1  0  0  0
 11 12  2  0  0  0
 11 13  1  0  0  0
 13 14  1  0  0  0
 13 17  1  0  0  0
 14 15  2  0  0  0
 14 16  1  0  0  0
 16 44  1  0  0  0
 17 18  1  0  0  0
 17 45  1  0  0  0
 17 46  1  0  0  0
 18 19  2  0  0  0
 18 20  1  0  0  0
 20 21  1  0  0  0
 20 47  1  0  0  0
 21 25  2  0  0  0
 21 22  1  0  0  0
 22 23  2  0  0  0
 22 48  1  0  0  0
 23 24  1  0  0  0
 24 25  1  0  0  0
 24 26  1  0  0  0
 25 49  1  0  0  0
 26 27  1  0  0  0
 26 28  1  0  0  0
 26 50  1  0  0  0
 27 51  1  0  0  0
 27 52  1  0  0  0
 27 53  1  0  0  0
 28 54  1  0  0  0
 28 55  1  0  0  0
 28 56  1  0  0  0
M  END
> <i_i_glide_confnum>
36

> <i_i_glide_lignum>
1506

> <i_i_glide_posenum>
185

> <i_i_glide_rotatable_bonds>
5

> <i_m_Source_File_Index>
5702

> <b_m_subgroup_collapsed>
0

> <r_i_docking_score>
-3.17738

> <r_i_glide_ecoul>
-4.47475

> <r_i_glide_eff_state_penalty>
0

> <r_i_glide_einternal>
0.842947

> <r_i_glide_emodel>
-34.4394

> <r_i_glide_energy>
-27.7534

> <r_i_glide_erotb>
0.548956

> <r_i_glide_esite>
-0.143417

> <r_i_glide_evdw>
-23.2786

> <r_i_glide_gscore>
-3.17738

> <r_i_glide_hbond>
-0.16

> <r_i_glide_ligand_efficiency>
-0.117681

> <r_i_glide_ligand_efficiency_ln>
-0.739642

> <r_i_glide_ligand_efficiency_sa>
-0.353042

> <r_i_glide_lipo>
-0.598851

> <r_i_glide_metal>
0

> <r_i_glide_rewards>
-0.988925

> <s_i_glide_gridfile>
wee1_glide-grid

> <s_m_Source_File>
wee1_decoys_glide_SP.sdf

> <s_m_Source_Path>
/Users/zhangxujun/Desktop

> <s_m_entry_id>
5977

> <s_m_entry_name>
wee1_decoys_glide_SP.5702

> <s_m_subgroup_title>
wee1_decoys_glide_SP

> <s_m_subgroupid>
wee1_decoys_glide_SP


$$$$
