ZINC16572263_3415
                    3D
 Schrodinger Suite 2024-2.
 55 57  0  0  1  0            999 V2000
    6.6322   58.4905   18.9905 C   0  0  0  0  0  0
    6.7116   57.6856   17.6873 C   0  0  0  0  0  0
    7.8610   56.6412   17.6257 C   0  0  2  0  0  0
    8.6875   57.0063   18.2404 H   0  0  0  0  0  0
    8.4027   56.6028   16.1790 C   0  0  0  0  0  0
    7.4314   55.2138   18.1337 C   0  0  2  0  0  0
    6.5184   54.9256   17.6078 H   0  0  0  0  0  0
    7.1427   55.2419   19.6540 C   0  0  0  0  0  0
    8.0057   55.6827   20.4195 O   0  0  0  0  0  0
    5.9483   54.7341   20.0278 N   0  0  0  0  0  0
    5.4855   54.5100   21.3193 C   0  0  0  0  0  0
    4.2927   54.0114   21.5235 N   0  0  0  0  0  0
    3.9971   53.8596   22.8720 N   0  0  0  0  0  0
    4.9745   54.2316   23.6702 C   0  0  0  0  0  0
    6.3796   54.7968   22.8005 S   0  0  0  0  0  0
    4.8841   54.2566   25.1695 C   0  0  0  0  0  0
    6.0193   54.4446   25.9696 C   0  0  0  0  0  0
    5.9046   54.4969   27.3573 C   0  0  0  0  0  0
    4.6510   54.3700   27.9525 C   0  0  0  0  0  0
    3.5184   54.1553   27.1717 C   0  0  0  0  0  0
    3.6357   54.0970   25.7866 C   0  0  0  0  0  0
    4.4904   54.4975   29.6666 Cl  0  0  0  0  0  0
    8.4553   54.1854   17.8864 N   0  0  0  0  0  0
    8.4294   53.2905   16.8830 C   0  0  0  0  0  0
    7.5726   53.2994   15.9987 O   0  0  0  0  0  0
    9.4605   52.4269   16.9704 N   0  0  0  0  0  0
    9.8336   51.3776   16.1064 C   0  0  0  0  0  0
    9.1037   50.9635   14.9794 C   0  0  0  0  0  0
    9.5792   49.9272   14.1755 C   0  0  0  0  0  0
   10.7840   49.2976   14.4829 C   0  0  0  0  0  0
   11.5134   49.6902   15.6061 C   0  0  0  0  0  0
   11.0326   50.7248   16.4138 C   0  0  0  0  0  0
   12.8415   49.0231   15.9151 C   0  0  0  0  0  0
    5.9087   59.2983   18.8791 H   0  0  0  0  0  0
    6.3040   57.8767   19.8262 H   0  0  0  0  0  0
    7.5893   58.9408   19.2464 H   0  0  0  0  0  0
    6.8309   58.4197   16.8870 H   0  0  0  0  0  0
    5.7520   57.2077   17.4856 H   0  0  0  0  0  0
    7.6550   56.2124   15.4860 H   0  0  0  0  0  0
    8.6931   57.5955   15.8325 H   0  0  0  0  0  0
    9.2927   55.9799   16.0950 H   0  0  0  0  0  0
    5.3262   54.4309   19.2915 H   0  0  0  0  0  0
    6.9954   54.5529   25.5222 H   0  0  0  0  0  0
    6.7790   54.6601   27.9707 H   0  0  0  0  0  0
    2.5506   54.0486   27.6381 H   0  0  0  0  0  0
    2.7445   53.9435   25.1952 H   0  0  0  0  0  0
    9.2038   54.1558   18.5646 H   0  0  0  0  0  0
   10.0567   52.5202   17.7808 H   0  0  0  0  0  0
    8.1694   51.4236   14.7018 H   0  0  0  0  0  0
    9.0161   49.6184   13.3073 H   0  0  0  0  0  0
   11.1542   48.5122   13.8401 H   0  0  0  0  0  0
   11.6054   51.0256   17.2805 H   0  0  0  0  0  0
   13.3685   48.7818   14.9923 H   0  0  0  0  0  0
   12.6966   48.1004   16.4751 H   0  0  0  0  0  0
   13.4954   49.6849   16.4828 H   0  0  0  0  0  0
  1  2  1  0  0  0
  1 34  1  0  0  0
  1 35  1  0  0  0
  1 36  1  0  0  0
  2  3  1  0  0  0
  2 37  1  0  0  0
  2 38  1  0  0  0
  3  4  1  0  0  0
  3  5  1  0  0  0
  3  6  1  0  0  0
  5 39  1  0  0  0
  5 40  1  0  0  0
  5 41  1  0  0  0
  6  7  1  0  0  0
  6  8  1  0  0  0
  6 23  1  0  0  0
  8  9  2  0  0  0
  8 10  1  0  0  0
 10 11  1  0  0  0
 10 42  1  0  0  0
 11 15  1  0  0  0
 11 12  2  0  0  0
 12 13  1  0  0  0
 13 14  2  0  0  0
 14 15  1  0  0  0
 14 16  1  0  0  0
 16 21  2  0  0  0
 16 17  1  0  0  0
 17 18  2  0  0  0
 17 43  1  0  0  0
 18 19  1  0  0  0
 18 44  1  0  0  0
 19 20  2  0  0  0
 19 22  1  0  0  0
 20 21  1  0  0  0
 20 45  1  0  0  0
 21 46  1  0  0  0
 23 24  1  0  0  0
 23 47  1  0  0  0
 24 25  2  0  0  0
 24 26  1  0  0  0
 26 27  1  0  0  0
 26 48  1  0  0  0
 27 32  2  0  0  0
 27 28  1  0  0  0
 28 29  2  0  0  0
 28 49  1  0  0  0
 29 30  1  0  0  0
 29 50  1  0  0  0
 30 31  2  0  0  0
 30 51  1  0  0  0
 31 32  1  0  0  0
 31 33  1  0  0  0
 32 52  1  0  0  0
 33 53  1  0  0  0
 33 54  1  0  0  0
 33 55  1  0  0  0
M  END
> <i_i_glide_confnum>
231

> <i_i_glide_lignum>
3416

> <i_i_glide_posenum>
299

> <i_i_glide_rotatable_bonds>
10

> <i_m_Source_File_Index>
1967

> <b_m_subgroup_collapsed>
0

> <r_i_docking_score>
-5.48256

> <r_i_glide_ecoul>
-2.71466

> <r_i_glide_eff_state_penalty>
0

> <r_i_glide_einternal>
5.22457

> <r_i_glide_emodel>
-63.6374

> <r_i_glide_energy>
-48.5276

> <r_i_glide_erotb>
0.862877

> <r_i_glide_esite>
0

> <r_i_glide_evdw>
-45.8129

> <r_i_glide_gscore>
-5.48256

> <r_i_glide_hbond>
-0.157253

> <r_i_glide_ligand_efficiency>
-0.176857

> <r_i_glide_ligand_efficiency_ln>
-1.23649

> <r_i_glide_ligand_efficiency_sa>
-0.555575

> <r_i_glide_lipo>
-2.85077

> <r_i_glide_metal>
0

> <r_i_glide_rewards>
-0.639572

> <s_i_glide_gridfile>
wee1_glide-grid

> <s_m_Source_File>
wee1_decoys_glide_SP.sdf

> <s_m_Source_Path>
/Users/zhangxujun/Desktop

> <s_m_entry_id>
2242

> <s_m_entry_name>
wee1_decoys_glide_SP.1967

> <s_m_subgroup_title>
wee1_decoys_glide_SP

> <s_m_subgroupid>
wee1_decoys_glide_SP


$$$$
