ZINC65006615_5369
                    3D
 Schrodinger Suite 2024-2.
 75 78  0  0  1  0            999 V2000
    6.3262   55.1220   18.9750 C   0  0  0  0  0  0
    6.1535   54.8971   20.4662 C   0  0  0  0  0  0
    5.1050   54.0990   20.9282 C   0  0  0  0  0  0
    4.9411   53.8971   22.2965 C   0  0  0  0  0  0
    5.8138   54.4986   23.2100 C   0  0  0  0  0  0
    6.8569   55.2936   22.7405 C   0  0  0  0  0  0
    7.0330   55.4921   21.3731 C   0  0  0  0  0  0
    5.5761   54.3593   24.6744 C   0  0  0  0  0  0
    6.4661   54.1220   25.6065 N   0  0  0  0  0  0
    5.9183   53.9863   26.8096 C   0  0  0  0  0  0
    4.5122   54.0858   26.8575 C   0  0  0  0  0  0
    3.9921   54.6165   25.2745 S   0  0  0  0  0  0
    3.5882   53.9917   27.9937 C   0  0  0  0  0  0
    3.9962   54.3287   29.1078 O   0  0  0  0  0  0
    2.3044   53.5436   27.7905 N   0  0  0  0  0  0
    1.3177   53.6277   28.9124 C   0  0  0  0  0  0
    0.3606   52.4001   28.9208 C   0  0  0  0  0  0
   -0.2656   52.1465   27.5352 C   0  0  0  0  0  0
    0.9623   51.7984   26.6831 C   0  0  0  0  0  0
    1.8582   53.0000   26.4820 C   0  0  0  0  0  0
   -1.3184   50.9989   27.4490 C   0  0  1  0  0  0
   -0.7581   50.0984   27.6809 H   0  0  0  0  0  0
   -2.4902   51.0924   28.4530 C   0  0  0  0  0  0
   -1.8556   50.8526   26.0064 C   0  0  0  0  0  0
   -2.5957   51.7111   25.5238 O   0  0  0  0  0  0
   -1.3881   49.8096   25.2992 N   0  0  0  0  0  0
   -1.5760   49.6117   23.8605 C   0  0  0  0  0  0
   -0.8034   50.6238   22.9674 C   0  0  0  0  0  0
    0.6636   50.6151   23.1163 N   0  0  0  0  0  0
    1.3364   49.3518   22.7888 C   0  0  0  0  0  0
    1.5432   49.1420   21.2699 C   0  0  0  0  0  0
    2.2661   50.3676   20.6648 N   0  3  0  0  0  0
    1.5116   51.6761   20.9887 C   0  0  0  0  0  0
    1.3019   51.7969   22.5190 C   0  0  0  0  0  0
    2.4485   50.2028   19.1370 C   0  0  0  0  0  0
    6.8971   53.6789   27.9249 C   0  0  0  0  0  0
    5.3551   55.2572   18.4954 H   0  0  0  0  0  0
    6.9078   56.0208   18.7651 H   0  0  0  0  0  0
    6.8173   54.2658   18.5111 H   0  0  0  0  0  0
    4.4216   53.6398   20.2285 H   0  0  0  0  0  0
    4.1198   53.2894   22.6454 H   0  0  0  0  0  0
    7.5053   55.7845   23.4463 H   0  0  0  0  0  0
    7.8507   56.1051   21.0236 H   0  0  0  0  0  0
    0.7411   54.5449   28.7936 H   0  0  0  0  0  0
    1.8147   53.6077   29.8830 H   0  0  0  0  0  0
   -0.4165   52.5709   29.6647 H   0  0  0  0  0  0
    0.8676   51.5045   29.2852 H   0  0  0  0  0  0
   -0.7320   53.0693   27.1874 H   0  0  0  0  0  0
    1.5027   50.9267   27.0606 H   0  0  0  0  0  0
    0.6703   51.4964   25.6809 H   0  0  0  0  0  0
    1.3387   53.7705   25.9109 H   0  0  0  0  0  0
    2.6811   52.5524   25.9268 H   0  0  0  0  0  0
   -3.1204   50.2004   28.3961 H   0  0  0  0  0  0
   -2.1414   51.1439   29.4827 H   0  0  0  0  0  0
   -3.1284   51.9528   28.2585 H   0  0  0  0  0  0
   -0.8581   49.1102   25.7989 H   0  0  0  0  0  0
   -2.6407   49.6581   23.6247 H   0  0  0  0  0  0
   -1.2698   48.5926   23.6340 H   0  0  0  0  0  0
   -1.1823   51.6225   23.1894 H   0  0  0  0  0  0
   -1.0492   50.4318   21.9224 H   0  0  0  0  0  0
    0.8776   48.4983   23.2843 H   0  0  0  0  0  0
    2.3280   49.4462   23.2371 H   0  0  0  0  0  0
    2.2190   48.3021   21.0968 H   0  0  0  0  0  0
    0.6059   48.9911   20.7306 H   0  0  0  0  0  0
    2.1524   52.4840   20.6297 H   0  0  0  0  0  0
    0.5709   51.6746   20.4354 H   0  0  0  0  0  0
    2.2906   51.8333   22.9804 H   0  0  0  0  0  0
    0.7996   52.7216   22.8042 H   0  0  0  0  0  0
    1.4656   50.2477   18.6625 H   0  0  0  0  0  0
    3.0975   51.0081   18.7821 H   0  0  0  0  0  0
    2.9167   49.2362   18.9476 H   0  0  0  0  0  0
    6.4095   53.5066   28.8821 H   0  0  0  0  0  0
    7.4817   52.7843   27.7105 H   0  0  0  0  0  0
    7.6004   54.4955   28.0774 H   0  0  0  0  0  0
    3.1766   50.4219   21.1021 H   0  0  0  0  0  0
  1  2  1  0  0  0
  1 37  1  0  0  0
  1 38  1  0  0  0
  1 39  1  0  0  0
  2  7  2  0  0  0
  2  3  1  0  0  0
  3  4  2  0  0  0
  3 40  1  0  0  0
  4  5  1  0  0  0
  4 41  1  0  0  0
  5  6  2  0  0  0
  5  8  1  0  0  0
  6  7  1  0  0  0
  6 42  1  0  0  0
  7 43  1  0  0  0
  8 12  1  0  0  0
  8  9  2  0  0  0
  9 10  1  0  0  0
 10 11  2  0  0  0
 10 36  1  0  0  0
 11 12  1  0  0  0
 11 13  1  0  0  0
 13 14  2  0  0  0
 13 15  1  0  0  0
 15 20  1  0  0  0
 15 16  1  0  0  0
 16 17  1  0  0  0
 16 44  1  0  0  0
 16 45  1  0  0  0
 17 18  1  0  0  0
 17 46  1  0  0  0
 17 47  1  0  0  0
 18 19  1  0  0  0
 18 21  1  0  0  0
 18 48  1  0  0  0
 19 20  1  0  0  0
 19 49  1  0  0  0
 19 50  1  0  0  0
 20 51  1  0  0  0
 20 52  1  0  0  0
 21 22  1  0  0  0
 21 23  1  0  0  0
 21 24  1  0  0  0
 23 53  1  0  0  0
 23 54  1  0  0  0
 23 55  1  0  0  0
 24 25  2  0  0  0
 24 26  1  0  0  0
 26 27  1  0  0  0
 26 56  1  0  0  0
 27 28  1  0  0  0
 27 57  1  0  0  0
 27 58  1  0  0  0
 28 29  1  0  0  0
 28 59  1  0  0  0
 28 60  1  0  0  0
 29 34  1  0  0  0
 29 30  1  0  0  0
 30 31  1  0  0  0
 30 61  1  0  0  0
 30 62  1  0  0  0
 31 32  1  0  0  0
 31 63  1  0  0  0
 31 64  1  0  0  0
 32 33  1  0  0  0
 32 35  1  0  0  0
 32 75  1  0  0  0
 33 34  1  0  0  0
 33 65  1  0  0  0
 33 66  1  0  0  0
 34 67  1  0  0  0
 34 68  1  0  0  0
 35 69  1  0  0  0
 35 70  1  0  0  0
 35 71  1  0  0  0
 36 72  1  0  0  0
 36 73  1  0  0  0
 36 74  1  0  0  0
M  CHG  1  32   1
M  END
> <i_i_glide_confnum>
338

> <i_i_glide_lignum>
5370

> <i_i_glide_posenum>
81

> <i_i_glide_rotatable_bonds>
9

> <i_m_Source_File_Index>
2257

> <b_m_subgroup_collapsed>
0

> <r_i_docking_score>
-6.25453

> <r_i_glide_ecoul>
-5.34474

> <r_i_glide_eff_state_penalty>
0

> <r_i_glide_einternal>
17.3949

> <r_i_glide_emodel>
-66.6335

> <r_i_glide_energy>
-52.4647

> <r_i_glide_erotb>
0.738503

> <r_i_glide_esite>
-0.101606

> <r_i_glide_evdw>
-47.12

> <r_i_glide_gscore>
-6.25453

> <r_i_glide_hbond>
0

> <r_i_glide_ligand_efficiency>
-0.178701

> <r_i_glide_ligand_efficiency_ln>
-1.37301

> <r_i_glide_ligand_efficiency_sa>
-0.584542

> <r_i_glide_lipo>
-3.08323

> <r_i_glide_metal>
0

> <r_i_glide_rewards>
-0.650482

> <s_i_glide_gridfile>
wee1_glide-grid

> <s_m_Source_File>
wee1_decoys_glide_SP.sdf

> <s_m_Source_Path>
/Users/zhangxujun/Desktop

> <s_m_entry_id>
2532

> <s_m_entry_name>
wee1_decoys_glide_SP.2257

> <s_m_subgroup_title>
wee1_decoys_glide_SP

> <s_m_subgroupid>
wee1_decoys_glide_SP


$$$$
