ZINC64117481_3699
                    3D
 Schrodinger Suite 2024-2.
 60 63  0  0  1  0            999 V2000
    2.4707   53.6992   25.5788 C   0  0  0  0  0  0
    3.8180   54.0533   26.1976 C   0  0  0  0  0  0
    3.9658   53.9453   27.5852 C   0  0  0  0  0  0
    5.1829   54.2374   28.1925 C   0  0  0  0  0  0
    6.2548   54.6707   27.4164 C   0  0  0  0  0  0
    6.1079   54.8162   26.0386 C   0  0  0  0  0  0
    4.9066   54.4694   25.4027 C   0  0  0  0  0  0
    4.7657   54.4944   23.8709 C   0  0  0  0  0  0
    6.0205   54.8012   23.0080 C   0  0  1  0  0  0
    6.4320   55.7599   23.3309 H   0  0  0  0  0  0
    7.1138   53.7260   23.1505 C   0  0  0  0  0  0
    5.6300   54.8966   21.5964 N   0  0  0  0  0  0
    6.2198   55.6531   20.6452 C   0  0  0  0  0  0
    7.1044   56.4724   20.8870 O   0  0  0  0  0  0
    5.6994   55.5263   19.1855 C   0  0  1  0  0  0
    5.0421   56.3896   19.0647 H   0  0  0  0  0  0
    6.8015   55.6018   18.0828 C   0  0  0  0  0  0
    7.3851   56.9977   17.8847 C   0  0  0  0  0  0
    8.6618   57.4131   17.7856 C   0  0  0  0  0  0
    9.9235   56.6625   17.8328 C   0  0  0  0  0  0
   11.1067   57.2896   17.6818 C   0  0  0  0  0  0
   11.0985   58.7318   17.4802 C   0  0  0  0  0  0
    9.9426   59.4454   17.4441 C   0  0  0  0  0  0
    8.7105   58.7984   17.5891 C   0  0  0  0  0  0
    7.5028   59.2967   17.5707 N   0  3  0  0  0  0
    6.5100   58.2238   17.7290 C   0  0  0  0  0  0
    4.8293   54.3594   18.9924 N   0  0  0  0  0  0
    3.8247   54.2692   18.1037 C   0  0  0  0  0  0
    3.5378   55.1617   17.3057 O   0  0  0  0  0  0
    3.0826   53.0365   18.1514 C   0  0  0  0  0  0
    2.2876   52.4984   17.1403 C   0  0  0  0  0  0
    1.6414   51.3149   17.5177 C   0  0  0  0  0  0
    1.9038   50.9581   18.8322 C   0  0  0  0  0  0
    2.9485   52.0955   19.6200 S   0  0  0  0  0  0
    2.1487   54.4814   24.8919 H   0  0  0  0  0  0
    2.5410   52.7698   25.0125 H   0  0  0  0  0  0
    1.6867   53.5993   26.3305 H   0  0  0  0  0  0
    3.1382   53.6169   28.1969 H   0  0  0  0  0  0
    5.2971   54.1392   29.2648 H   0  0  0  0  0  0
    7.1973   54.8973   27.8887 H   0  0  0  0  0  0
    6.9511   55.1859   25.4821 H   0  0  0  0  0  0
    4.3845   53.5194   23.5654 H   0  0  0  0  0  0
    3.9681   55.1997   23.6361 H   0  0  0  0  0  0
    7.5029   53.6201   24.1610 H   0  0  0  0  0  0
    6.7213   52.7457   22.8816 H   0  0  0  0  0  0
    7.9594   53.9792   22.5094 H   0  0  0  0  0  0
    4.8375   54.3368   21.3214 H   0  0  0  0  0  0
    7.5991   54.8867   18.2864 H   0  0  0  0  0  0
    6.3794   55.3105   17.1191 H   0  0  0  0  0  0
    9.9400   55.5953   18.0105 H   0  0  0  0  0  0
   12.0343   56.7393   17.7383 H   0  0  0  0  0  0
   12.0413   59.2430   17.3528 H   0  0  0  0  0  0
    9.9951   60.5123   17.2816 H   0  0  0  0  0  0
    5.8775   58.2126   16.8401 H   0  0  0  0  0  0
    5.9049   58.4599   18.6038 H   0  0  0  0  0  0
    5.0496   53.5392   19.5356 H   0  0  0  0  0  0
    2.1876   52.9391   16.1596 H   0  0  0  0  0  0
    1.0124   50.7394   16.8544 H   0  0  0  0  0  0
    1.5443   50.0908   19.3667 H   0  0  0  0  0  0
    7.2269   60.2831   17.4694 H   0  0  0  0  0  0
  1  2  1  0  0  0
  1 35  1  0  0  0
  1 36  1  0  0  0
  1 37  1  0  0  0
  2  7  2  0  0  0
  2  3  1  0  0  0
  3  4  2  0  0  0
  3 38  1  0  0  0
  4  5  1  0  0  0
  4 39  1  0  0  0
  5  6  2  0  0  0
  5 40  1  0  0  0
  6  7  1  0  0  0
  6 41  1  0  0  0
  7  8  1  0  0  0
  8  9  1  0  0  0
  8 42  1  0  0  0
  8 43  1  0  0  0
  9 10  1  0  0  0
  9 11  1  0  0  0
  9 12  1  0  0  0
 11 44  1  0  0  0
 11 45  1  0  0  0
 11 46  1  0  0  0
 12 13  1  0  0  0
 12 47  1  0  0  0
 13 14  2  0  0  0
 13 15  1  0  0  0
 15 16  1  0  0  0
 15 17  1  0  0  0
 15 27  1  0  0  0
 17 18  1  0  0  0
 17 48  1  0  0  0
 17 49  1  0  0  0
 18 26  1  0  0  0
 18 19  2  0  0  0
 19 24  1  0  0  0
 19 20  1  0  0  0
 20 21  2  0  0  0
 20 50  1  0  0  0
 21 22  1  0  0  0
 21 51  1  0  0  0
 22 23  2  0  0  0
 22 52  1  0  0  0
 23 24  1  0  0  0
 23 53  1  0  0  0
 24 25  2  0  0  0
 25 26  1  0  0  0
 25 60  1  0  0  0
 26 54  1  0  0  0
 26 55  1  0  0  0
 27 28  1  0  0  0
 27 56  1  0  0  0
 28 29  2  0  0  0
 28 30  1  0  0  0
 30 34  1  0  0  0
 30 31  2  0  0  0
 31 32  1  0  0  0
 31 57  1  0  0  0
 32 33  2  0  0  0
 32 58  1  0  0  0
 33 34  1  0  0  0
 33 59  1  0  0  0
M  CHG  1  25   1
M  END
> <i_i_glide_confnum>
144

> <i_i_glide_lignum>
3700

> <i_i_glide_posenum>
52

> <i_i_glide_rotatable_bonds>
10

> <i_m_Source_File_Index>
4310

> <b_m_subgroup_collapsed>
0

> <r_i_docking_score>
-5.44612

> <r_i_glide_ecoul>
-5.85168

> <r_i_glide_eff_state_penalty>
0

> <r_i_glide_einternal>
7.12638

> <r_i_glide_emodel>
-56.598

> <r_i_glide_energy>
-43.5187

> <r_i_glide_erotb>
0.802959

> <r_i_glide_esite>
-0.109887

> <r_i_glide_evdw>
-37.667

> <r_i_glide_gscore>
-5.44612

> <r_i_glide_hbond>
-0.457941

> <r_i_glide_ligand_efficiency>
-0.170191

> <r_i_glide_ligand_efficiency_ln>
-1.21953

> <r_i_glide_ligand_efficiency_sa>
-0.540323

> <r_i_glide_lipo>
-2.3633

> <r_i_glide_metal>
0

> <r_i_glide_rewards>
-0.556845

> <s_i_glide_gridfile>
wee1_glide-grid

> <s_m_Source_File>
wee1_decoys_glide_SP.sdf

> <s_m_Source_Path>
/Users/zhangxujun/Desktop

> <s_m_entry_id>
4585

> <s_m_entry_name>
wee1_decoys_glide_SP.4310

> <s_m_subgroup_title>
wee1_decoys_glide_SP

> <s_m_subgroupid>
wee1_decoys_glide_SP


$$$$
