ZINC59588681_800
                    3D
 Schrodinger Suite 2024-2.
 54 57  0  0  1  0            999 V2000
    3.6641   53.6659   22.0476 C   0  0  0  0  0  0
    3.8367   53.6977   23.4308 C   0  0  0  0  0  0
    5.0492   54.1227   23.9775 C   0  0  0  0  0  0
    6.0927   54.5131   23.1245 C   0  0  0  0  0  0
    5.9034   54.5251   21.7481 C   0  0  0  0  0  0
    4.6956   54.0888   21.2055 C   0  0  0  0  0  0
    4.5230   54.0410   19.7316 C   0  0  0  0  0  0
    3.9923   53.0530   18.9036 C   0  0  0  0  0  0
    4.0811   53.4616   17.5808 N   0  0  0  0  0  0
    4.6054   54.7446   17.5769 C   0  0  0  0  0  0
    4.9056   55.0644   18.8798 N   0  3  0  0  0  0
    4.8956   55.5671   16.3341 C   0  0  0  0  0  0
    4.1186   54.9488   15.1487 C   0  0  0  0  0  0
    4.2165   53.4076   15.1214 C   0  0  0  0  0  0
    3.6197   52.7441   16.3913 C   0  0  0  0  0  0
    5.1721   54.0963   25.3821 N   0  0  0  0  0  0
    6.0164   54.8242   26.1398 C   0  0  0  0  0  0
    6.7048   55.7337   25.6862 O   0  0  0  0  0  0
    6.1500   54.5129   27.6395 C   0  0  0  0  0  0
    5.4502   53.2884   28.2674 C   0  0  0  0  0  0
    4.0128   53.1053   28.1094 N   0  0  0  0  0  0
    3.1423   53.4458   29.0771 C   0  0  0  0  0  0
    3.4662   54.0874   30.0812 O   0  0  0  0  0  0
    1.7388   52.9098   28.9168 C   0  0  0  0  0  0
    0.9744   52.6165   30.0567 C   0  0  0  0  0  0
   -0.3145   52.1041   29.9301 C   0  0  0  0  0  0
   -0.8529   51.9048   28.6630 C   0  0  0  0  0  0
   -0.1088   52.1875   27.5229 C   0  0  0  0  0  0
    1.1828   52.6891   27.6464 C   0  0  0  0  0  0
   -2.6450   51.2956   28.4823 Br  0  0  0  0  0  0
    2.7234   53.3319   21.6309 H   0  0  0  0  0  0
    3.0266   53.3812   24.0704 H   0  0  0  0  0  0
    7.0566   54.8175   23.5025 H   0  0  0  0  0  0
    6.7138   54.8432   21.1085 H   0  0  0  0  0  0
    3.6001   52.0718   19.1332 H   0  0  0  0  0  0
    4.6222   56.6144   16.4673 H   0  0  0  0  0  0
    5.9660   55.5472   16.1238 H   0  0  0  0  0  0
    4.4882   55.3686   14.2112 H   0  0  0  0  0  0
    3.0693   55.2416   15.2132 H   0  0  0  0  0  0
    5.2627   53.1146   15.0145 H   0  0  0  0  0  0
    3.7095   53.0167   14.2368 H   0  0  0  0  0  0
    3.9052   51.6960   16.4704 H   0  0  0  0  0  0
    2.5304   52.7824   16.3760 H   0  0  0  0  0  0
    4.5327   53.4915   25.8719 H   0  0  0  0  0  0
    5.7665   55.3763   28.1806 H   0  0  0  0  0  0
    7.1804   54.5614   27.9920 H   0  0  0  0  0  0
    5.9058   52.8971   29.1732 H   0  0  0  0  0  0
    5.7891   52.4967   27.6007 H   0  0  0  0  0  0
    3.7057   52.4379   27.4182 H   0  0  0  0  0  0
    1.3716   52.7709   31.0507 H   0  0  0  0  0  0
   -0.8965   51.8743   30.8133 H   0  0  0  0  0  0
   -0.5378   52.0286   26.5448 H   0  0  0  0  0  0
    1.7377   52.9138   26.7467 H   0  0  0  0  0  0
    5.3222   55.9357   19.1777 H   0  0  0  0  0  0
  1  6  2  0  0  0
  1  2  1  0  0  0
  1 31  1  0  0  0
  2  3  2  0  0  0
  2 32  1  0  0  0
  3  4  1  0  0  0
  3 16  1  0  0  0
  4  5  2  0  0  0
  4 33  1  0  0  0
  5  6  1  0  0  0
  5 34  1  0  0  0
  6  7  1  0  0  0
  7 11  1  0  0  0
  7  8  2  0  0  0
  8  9  1  0  0  0
  8 35  1  0  0  0
  9 15  1  0  0  0
  9 10  1  0  0  0
 10 11  2  0  0  0
 10 12  1  0  0  0
 11 54  1  0  0  0
 12 13  1  0  0  0
 12 36  1  0  0  0
 12 37  1  0  0  0
 13 14  1  0  0  0
 13 38  1  0  0  0
 13 39  1  0  0  0
 14 15  1  0  0  0
 14 40  1  0  0  0
 14 41  1  0  0  0
 15 42  1  0  0  0
 15 43  1  0  0  0
 16 17  1  0  0  0
 16 44  1  0  0  0
 17 18  2  0  0  0
 17 19  1  0  0  0
 19 20  1  0  0  0
 19 45  1  0  0  0
 19 46  1  0  0  0
 20 21  1  0  0  0
 20 47  1  0  0  0
 20 48  1  0  0  0
 21 22  1  0  0  0
 21 49  1  0  0  0
 22 23  2  0  0  0
 22 24  1  0  0  0
 24 29  2  0  0  0
 24 25  1  0  0  0
 25 26  2  0  0  0
 25 50  1  0  0  0
 26 27  1  0  0  0
 26 51  1  0  0  0
 27 28  2  0  0  0
 27 30  1  0  0  0
 28 29  1  0  0  0
 28 52  1  0  0  0
 29 53  1  0  0  0
M  CHG  1  11   1
M  END
> <i_i_glide_confnum>
149

> <i_i_glide_lignum>
801

> <i_i_glide_posenum>
116

> <i_i_glide_rotatable_bonds>
8

> <i_m_Source_File_Index>
2479

> <b_m_subgroup_collapsed>
0

> <r_i_docking_score>
-6.6937

> <r_i_glide_ecoul>
-10.3815

> <r_i_glide_eff_state_penalty>
0

> <r_i_glide_einternal>
9.72793

> <r_i_glide_emodel>
-71.2934

> <r_i_glide_energy>
-52.903

> <r_i_glide_erotb>
0.644244

> <r_i_glide_esite>
-0.0409879

> <r_i_glide_evdw>
-42.5215

> <r_i_glide_gscore>
-6.6937

> <r_i_glide_hbond>
-0.608

> <r_i_glide_ligand_efficiency>
-0.223123

> <r_i_glide_ligand_efficiency_ln>
-1.52088

> <r_i_glide_ligand_efficiency_sa>
-0.693296

> <r_i_glide_lipo>
-2.09696

> <r_i_glide_metal>
0

> <r_i_glide_rewards>
-0.908689

> <s_i_glide_gridfile>
wee1_glide-grid

> <s_m_Source_File>
wee1_decoys_glide_SP.sdf

> <s_m_Source_Path>
/Users/zhangxujun/Desktop

> <s_m_entry_id>
2754

> <s_m_entry_name>
wee1_decoys_glide_SP.2479

> <s_m_subgroup_title>
wee1_decoys_glide_SP

> <s_m_subgroupid>
wee1_decoys_glide_SP


$$$$
