ZINC10876428_2701
                    3D
 Schrodinger Suite 2024-2.
 60 62  0  0  1  0            999 V2000
    6.0358   54.6460   22.8725 C   0  0  0  0  0  0
    4.6795   54.2415   23.4320 C   0  0  0  0  0  0
    3.5872   53.8677   22.6328 C   0  0  0  0  0  0
    2.1959   53.4556   23.6008 S   0  0  0  0  0  0
    3.1015   53.6470   25.0490 C   0  0  0  0  0  0
    4.3906   54.0878   24.8074 C   0  0  0  0  0  0
    5.2480   54.3611   25.9555 C   0  0  0  0  0  0
    6.2901   55.0208   25.9002 O   0  0  0  0  0  0
    4.7360   53.7726   27.1204 N   0  0  0  0  0  0
    3.4070   53.3315   27.2727 C   0  0  0  0  0  0
    2.6060   53.2970   26.2628 N   0  0  0  0  0  0
    2.7586   52.7487   28.8812 S   0  0  0  0  0  0
    1.4477   51.5597   28.4188 C   0  0  0  0  0  0
    0.0981   52.1756   28.0374 C   0  0  0  0  0  0
   -0.0959   53.3816   28.2045 O   0  0  0  0  0  0
   -0.8098   51.2966   27.5583 N   0  0  0  0  0  0
   -1.9708   51.5795   26.9372 C   0  0  0  0  0  0
   -2.2996   52.6779   26.4817 O   0  0  0  0  0  0
   -2.7571   50.4926   26.8816 N   0  0  0  0  0  0
   -4.1894   50.4896   26.5578 C   0  0  2  0  0  0
   -4.4498   49.4416   26.7223 H   0  0  0  0  0  0
   -4.5048   50.7877   25.0676 C   0  0  0  0  0  0
   -6.0029   50.6017   24.7306 C   0  0  0  0  0  0
   -6.9401   51.3250   25.7200 C   0  0  0  0  0  0
   -6.5882   50.9843   27.1814 C   0  0  0  0  0  0
   -5.1148   51.3317   27.4888 C   0  0  1  0  0  0
   -4.9871   52.3845   27.2274 H   0  0  0  0  0  0
   -4.8087   51.1389   28.9899 C   0  0  0  0  0  0
    5.6396   53.6856   28.3104 C   0  0  0  0  0  0
    7.1415   53.4002   28.0821 C   0  0  0  0  0  0
    5.4913   54.9301   29.1727 C   0  0  0  0  0  0
    3.5058   53.7798   21.1264 C   0  0  0  0  0  0
    6.1165   54.5311   21.7915 H   0  0  0  0  0  0
    6.3044   55.6723   23.1270 H   0  0  0  0  0  0
    6.8305   54.0385   23.3093 H   0  0  0  0  0  0
    1.2836   50.9060   29.2753 H   0  0  0  0  0  0
    1.8057   50.9333   27.6042 H   0  0  0  0  0  0
   -0.6073   50.3134   27.6813 H   0  0  0  0  0  0
   -2.4250   49.6611   27.3642 H   0  0  0  0  0  0
   -3.9050   50.1456   24.4202 H   0  0  0  0  0  0
   -4.2187   51.8138   24.8319 H   0  0  0  0  0  0
   -6.2382   49.5365   24.7387 H   0  0  0  0  0  0
   -6.1999   50.9441   23.7133 H   0  0  0  0  0  0
   -7.9770   51.0577   25.5134 H   0  0  0  0  0  0
   -6.8685   52.4036   25.5661 H   0  0  0  0  0  0
   -7.2434   51.5469   27.8484 H   0  0  0  0  0  0
   -6.7932   49.9363   27.4097 H   0  0  0  0  0  0
   -4.9260   50.0952   29.2869 H   0  0  0  0  0  0
   -3.7884   51.4325   29.2376 H   0  0  0  0  0  0
   -5.4746   51.7380   29.6122 H   0  0  0  0  0  0
    5.3302   52.8291   28.9098 H   0  0  0  0  0  0
    7.6399   53.2968   29.0412 H   0  0  0  0  0  0
    7.3139   52.4967   27.5074 H   0  0  0  0  0  0
    7.6804   54.2240   27.6196 H   0  0  0  0  0  0
    6.0786   54.8968   30.0817 H   0  0  0  0  0  0
    5.9044   55.7322   28.5827 H   0  0  0  0  0  0
    4.4590   55.1558   29.4414 H   0  0  0  0  0  0
    4.3513   53.2337   20.7072 H   0  0  0  0  0  0
    2.6061   53.2671   20.7859 H   0  0  0  0  0  0
    3.5049   54.7668   20.6678 H   0  0  0  0  0  0
  1  2  1  0  0  0
  1 33  1  0  0  0
  1 34  1  0  0  0
  1 35  1  0  0  0
  2  6  1  0  0  0
  2  3  2  0  0  0
  3  4  1  0  0  0
  3 32  1  0  0  0
  4  5  1  0  0  0
  5 11  1  0  0  0
  5  6  2  0  0  0
  6  7  1  0  0  0
  7  8  2  0  0  0
  7  9  1  0  0  0
  9 10  1  0  0  0
  9 29  1  0  0  0
 10 11  2  0  0  0
 10 12  1  0  0  0
 12 13  1  0  0  0
 13 14  1  0  0  0
 13 36  1  0  0  0
 13 37  1  0  0  0
 14 15  2  0  0  0
 14 16  1  0  0  0
 16 17  1  0  0  0
 16 38  1  0  0  0
 17 18  2  0  0  0
 17 19  1  0  0  0
 19 20  1  0  0  0
 19 39  1  0  0  0
 20 21  1  0  0  0
 20 26  1  0  0  0
 20 22  1  0  0  0
 22 23  1  0  0  0
 22 40  1  0  0  0
 22 41  1  0  0  0
 23 24  1  0  0  0
 23 42  1  0  0  0
 23 43  1  0  0  0
 24 25  1  0  0  0
 24 44  1  0  0  0
 24 45  1  0  0  0
 25 26  1  0  0  0
 25 46  1  0  0  0
 25 47  1  0  0  0
 26 27  1  0  0  0
 26 28  1  0  0  0
 28 48  1  0  0  0
 28 49  1  0  0  0
 28 50  1  0  0  0
 29 30  1  0  0  0
 29 31  1  0  0  0
 29 51  1  0  0  0
 30 52  1  0  0  0
 30 53  1  0  0  0
 30 54  1  0  0  0
 31 55  1  0  0  0
 31 56  1  0  0  0
 31 57  1  0  0  0
 32 58  1  0  0  0
 32 59  1  0  0  0
 32 60  1  0  0  0
M  END
> <i_i_glide_confnum>
3

> <i_i_glide_lignum>
2702

> <i_i_glide_posenum>
114

> <i_i_glide_rotatable_bonds>
8

> <i_m_Source_File_Index>
2090

> <b_m_subgroup_collapsed>
0

> <r_i_docking_score>
-5.9895

> <r_i_glide_ecoul>
-7.17386

> <r_i_glide_eff_state_penalty>
0

> <r_i_glide_einternal>
3.28763

> <r_i_glide_emodel>
-62.318

> <r_i_glide_energy>
-46.4889

> <r_i_glide_erotb>
0.691197

> <r_i_glide_esite>
-0.22807

> <r_i_glide_evdw>
-39.3151

> <r_i_glide_gscore>
-5.9895

> <r_i_glide_hbond>
-0.230338

> <r_i_glide_ligand_efficiency>
-0.19965

> <r_i_glide_ligand_efficiency_ln>
-1.36088

> <r_i_glide_ligand_efficiency_sa>
-0.620359

> <r_i_glide_lipo>
-2.38901

> <r_i_glide_metal>
0

> <r_i_glide_rewards>
-0.791447

> <s_i_glide_gridfile>
wee1_glide-grid

> <s_m_Source_File>
wee1_decoys_glide_SP.sdf

> <s_m_Source_Path>
/Users/zhangxujun/Desktop

> <s_m_entry_id>
2365

> <s_m_entry_name>
wee1_decoys_glide_SP.2090

> <s_m_subgroup_title>
wee1_decoys_glide_SP

> <s_m_subgroupid>
wee1_decoys_glide_SP


$$$$
