ZINC36090382_1542
                    3D
 Schrodinger Suite 2024-2.
 45 47  0  0  1  0            999 V2000
    5.6117   54.7125   27.9025 C   0  0  0  0  0  0
    4.4899   54.3738   26.9263 C   0  0  0  0  0  0
    4.7313   54.4953   25.5534 C   0  0  0  0  0  0
    3.7461   54.1674   24.6151 C   0  0  0  0  0  0
    2.5120   53.6969   25.0652 C   0  0  0  0  0  0
    2.2544   53.5882   26.4324 C   0  0  0  0  0  0
    3.2271   53.9463   27.3726 C   0  0  0  0  0  0
    2.9218   53.9016   28.7432 N   0  0  0  0  0  0
    2.3898   55.0682   29.4332 C   0  0  0  0  0  0
    1.1099   54.6781   30.2016 C   0  0  0  0  0  0
    0.7667   53.2061   29.9222 C   0  0  0  0  0  0
    2.4341   52.4311   29.5843 S   0  0  0  0  0  0
    2.2759   51.2966   28.6732 O   0  0  0  0  0  0
    3.1052   52.2891   30.8815 O   0  0  0  0  0  0
    3.9464   54.3453   23.2388 N   0  0  0  0  0  0
    5.4711   53.9531   22.4297 S   0  0  0  0  0  0
    5.6203   52.4979   22.4816 O   0  0  0  0  0  0
    6.5086   54.8506   22.9487 O   0  0  0  0  0  0
    5.1717   54.3814   20.7021 C   0  0  0  0  0  0
    5.7660   55.4061   19.9773 C   0  0  0  0  0  0
    5.1964   55.3017   18.7382 N   0  0  0  0  0  0
    5.4063   55.9110   17.9607 H   0  0  0  0  0  0
    4.3225   54.3015   18.6256 N   0  0  0  0  0  0
    4.3037   53.7286   19.8077 C   0  0  0  0  0  0
    3.4030   52.5350   20.0298 C   0  0  0  0  0  0
    6.7751   56.4783   20.3152 C   0  0  0  0  0  0
    6.0504   53.7988   28.3047 H   0  0  0  0  0  0
    6.3990   55.3049   27.4348 H   0  0  0  0  0  0
    5.2417   55.2965   28.7443 H   0  0  0  0  0  0
    5.6932   54.8551   25.2235 H   0  0  0  0  0  0
    1.7392   53.4330   24.3581 H   0  0  0  0  0  0
    1.2857   53.2406   26.7603 H   0  0  0  0  0  0
    3.1124   55.5478   30.0819 H   0  0  0  0  0  0
    2.1062   55.8591   28.7360 H   0  0  0  0  0  0
    1.2216   54.8420   31.2755 H   0  0  0  0  0  0
    0.3044   55.3363   29.9075 H   0  0  0  0  0  0
    0.3101   52.7017   30.7754 H   0  0  0  0  0  0
    0.1269   53.0599   29.0526 H   0  0  0  0  0  0
    3.1426   54.4941   22.6483 H   0  0  0  0  0  0
    3.4596   52.1485   21.0466 H   0  0  0  0  0  0
    2.3573   52.7848   19.8445 H   0  0  0  0  0  0
    3.6615   51.7112   19.3612 H   0  0  0  0  0  0
    7.5813   56.0916   20.9392 H   0  0  0  0  0  0
    7.2439   56.9006   19.4257 H   0  0  0  0  0  0
    6.3041   57.2956   20.8600 H   0  0  0  0  0  0
  1  2  1  0  0  0
  1 27  1  0  0  0
  1 28  1  0  0  0
  1 29  1  0  0  0
  2  7  2  0  0  0
  2  3  1  0  0  0
  3  4  2  0  0  0
  3 30  1  0  0  0
  4  5  1  0  0  0
  4 15  1  0  0  0
  5  6  2  0  0  0
  5 31  1  0  0  0
  6  7  1  0  0  0
  6 32  1  0  0  0
  7  8  1  0  0  0
  8 12  1  0  0  0
  8  9  1  0  0  0
  9 10  1  0  0  0
  9 33  1  0  0  0
  9 34  1  0  0  0
 10 11  1  0  0  0
 10 35  1  0  0  0
 10 36  1  0  0  0
 11 12  1  0  0  0
 11 37  1  0  0  0
 11 38  1  0  0  0
 12 13  2  0  0  0
 12 14  2  0  0  0
 15 16  1  0  0  0
 15 39  1  0  0  0
 16 17  2  0  0  0
 16 18  2  0  0  0
 16 19  1  0  0  0
 19 24  1  0  0  0
 19 20  2  0  0  0
 20 21  1  0  0  0
 20 26  1  0  0  0
 21 22  1  0  0  0
 21 23  1  0  0  0
 23 24  2  0  0  0
 24 25  1  0  0  0
 25 40  1  0  0  0
 25 41  1  0  0  0
 25 42  1  0  0  0
 26 43  1  0  0  0
 26 44  1  0  0  0
 26 45  1  0  0  0
M  END
> <i_i_glide_confnum>
79

> <i_i_glide_lignum>
1543

> <i_i_glide_posenum>
318

> <i_i_glide_rotatable_bonds>
4

> <i_m_Source_File_Index>
4708

> <b_m_subgroup_collapsed>
0

> <r_i_docking_score>
-3.03523

> <r_i_glide_ecoul>
-3.35657

> <r_i_glide_eff_state_penalty>
0

> <r_i_glide_einternal>
6.05017

> <r_i_glide_emodel>
-38.7854

> <r_i_glide_energy>
-42.4696

> <r_i_glide_erotb>
0.52612

> <r_i_glide_esite>
-0.00268383

> <r_i_glide_evdw>
-39.113

> <r_i_glide_gscore>
-3.03523

> <r_i_glide_hbond>
0

> <r_i_glide_ligand_efficiency>
-0.121409

> <r_i_glide_ligand_efficiency_ln>
-0.71944

> <r_i_glide_ligand_efficiency_sa>
-0.355002

> <r_i_glide_lipo>
-2.37199

> <r_i_glide_metal>
0

> <r_i_glide_rewards>
1.27246

> <s_i_glide_gridfile>
wee1_glide-grid

> <s_m_Source_File>
wee1_decoys_glide_SP.sdf

> <s_m_Source_Path>
/Users/zhangxujun/Desktop

> <s_m_entry_id>
4983

> <s_m_entry_name>
wee1_decoys_glide_SP.4708

> <s_m_subgroup_title>
wee1_decoys_glide_SP

> <s_m_subgroupid>
wee1_decoys_glide_SP


$$$$
