ZINC13123912_4709
                    3D
 Schrodinger Suite 2024-2.
 36 39  0  0  1  0            999 V2000
    5.5783   54.3711   24.8244 C   0  0  0  0  0  0
    4.4696   54.2147   25.6502 C   0  0  0  0  0  0
    3.2150   53.9905   25.0892 C   0  0  0  0  0  0
    3.0551   53.9199   23.6969 C   0  0  0  0  0  0
    4.1814   54.0966   22.8806 C   0  0  0  0  0  0
    5.4395   54.3066   23.4403 C   0  0  0  0  0  0
    1.6634   53.7161   23.0570 C   0  0  1  0  0  0
    1.3837   54.7089   22.7009 H   0  0  0  0  0  0
    1.6521   52.7229   21.8599 C   0  0  0  0  0  0
    1.9623   51.2655   22.2713 C   0  0  1  0  0  0
    3.0153   51.2066   22.5422 H   0  0  0  0  0  0
    1.1870   51.0099   23.4999 N   0  0  0  0  0  0
    0.5649   51.9444   24.3027 C   0  0  0  0  0  0
   -0.0240   51.3668   25.3157 N   0  0  0  0  0  0
    0.3057   50.0969   25.1382 C   0  0  0  0  0  0
    1.0364   49.8136   24.0802 N   0  0  0  0  0  0
   -0.0608   49.1263   26.0185 N   0  0  0  0  0  0
    0.5957   53.2897   23.9804 N   0  0  0  0  0  0
    1.7392   50.2854   21.1252 C   0  0  0  0  0  0
    2.5883   50.0430   20.0442 C   0  0  0  0  0  0
    2.1403   49.0676   19.1536 C   0  0  0  0  0  0
    0.9058   48.5597   19.5068 C   0  0  0  0  0  0
    0.3050   49.2991   20.9500 S   0  0  0  0  0  0
    6.5527   54.5410   25.2578 H   0  0  0  0  0  0
    4.5825   54.2629   26.7242 H   0  0  0  0  0  0
    2.3722   53.8703   25.7537 H   0  0  0  0  0  0
    4.0966   54.0834   21.8046 H   0  0  0  0  0  0
    6.3023   54.4388   22.8034 H   0  0  0  0  0  0
    0.6693   52.7627   21.3851 H   0  0  0  0  0  0
    2.3367   53.0416   21.0761 H   0  0  0  0  0  0
   -0.6971   49.2814   26.7944 H   0  0  0  0  0  0
    0.3185   48.1906   25.9644 H   0  0  0  0  0  0
    0.3056   53.9783   24.6599 H   0  0  0  0  0  0
    3.5309   50.5546   19.9084 H   0  0  0  0  0  0
    2.7035   48.7625   18.2838 H   0  0  0  0  0  0
    0.3272   47.8073   18.9910 H   0  0  0  0  0  0
  1  6  2  0  0  0
  1  2  1  0  0  0
  1 24  1  0  0  0
  2  3  2  0  0  0
  2 25  1  0  0  0
  3  4  1  0  0  0
  3 26  1  0  0  0
  4  5  2  0  0  0
  4  7  1  0  0  0
  5  6  1  0  0  0
  5 27  1  0  0  0
  6 28  1  0  0  0
  7  8  1  0  0  0
  7 18  1  0  0  0
  7  9  1  0  0  0
  9 10  1  0  0  0
  9 29  1  0  0  0
  9 30  1  0  0  0
 10 11  1  0  0  0
 10 12  1  0  0  0
 10 19  1  0  0  0
 12 16  1  0  0  0
 12 13  1  0  0  0
 13 14  2  0  0  0
 13 18  1  0  0  0
 14 15  1  0  0  0
 15 16  2  0  0  0
 15 17  1  0  0  0
 17 31  1  0  0  0
 17 32  1  0  0  0
 18 33  1  0  0  0
 19 23  1  0  0  0
 19 20  2  0  0  0
 20 21  1  0  0  0
 20 34  1  0  0  0
 21 22  2  0  0  0
 21 35  1  0  0  0
 22 23  1  0  0  0
 22 36  1  0  0  0
M  END
> <i_i_glide_confnum>
5

> <i_i_glide_lignum>
4710

> <i_i_glide_posenum>
71

> <i_i_glide_rotatable_bonds>
2

> <i_m_Source_File_Index>
2834

> <b_m_subgroup_collapsed>
0

> <r_i_docking_score>
-5.55268

> <r_i_glide_ecoul>
-3.59382

> <r_i_glide_eff_state_penalty>
0

> <r_i_glide_einternal>
0.857657

> <r_i_glide_emodel>
-42.9225

> <r_i_glide_energy>
-32.2988

> <r_i_glide_erotb>
0.414649

> <r_i_glide_esite>
-0.121006

> <r_i_glide_evdw>
-28.7049

> <r_i_glide_gscore>
-5.55268

> <r_i_glide_hbond>
-0.35686

> <r_i_glide_ligand_efficiency>
-0.264413

> <r_i_glide_ligand_efficiency_ln>
-1.37289

> <r_i_glide_ligand_efficiency_sa>
-0.729496

> <r_i_glide_lipo>
-1.83394

> <r_i_glide_metal>
0

> <r_i_glide_rewards>
-1.6812

> <s_i_glide_gridfile>
wee1_glide-grid

> <s_m_Source_File>
wee1_decoys_glide_SP.sdf

> <s_m_Source_Path>
/Users/zhangxujun/Desktop

> <s_m_entry_id>
3109

> <s_m_entry_name>
wee1_decoys_glide_SP.2834

> <s_m_subgroup_title>
wee1_decoys_glide_SP

> <s_m_subgroupid>
wee1_decoys_glide_SP


$$$$
