ZINC33121156_4986
                    3D
 Schrodinger Suite 2024-2.
 68 71  0  0  1  0            999 V2000
    1.4731   53.1857   13.9103 C   0  0  0  0  0  0
    1.0495   54.0365   15.1238 C   0  0  0  0  0  0
   -0.4061   53.7560   15.5403 C   0  0  0  0  0  0
    2.0127   53.8845   16.3018 C   0  0  0  0  0  0
    2.2700   52.6235   16.8526 C   0  0  0  0  0  0
    3.1391   52.4957   17.9305 C   0  0  0  0  0  0
    3.7595   53.6270   18.4649 C   0  0  0  0  0  0
    3.5100   54.8855   17.9149 C   0  0  0  0  0  0
    2.6371   55.0141   16.8390 C   0  0  0  0  0  0
    4.8439   53.5060   19.8878 S   0  0  0  0  0  0
    5.1028   52.0993   20.2138 O   0  0  0  0  0  0
    5.9380   54.4596   19.6812 O   0  0  0  0  0  0
    3.9043   54.1632   21.2256 N   0  0  0  0  0  0
    3.0229   53.4022   21.9948 C   0  0  0  0  0  0
    2.2784   52.3526   21.4638 C   0  0  0  0  0  0
    1.4550   51.5966   22.2895 C   0  0  0  0  0  0
    1.3684   51.8533   23.6651 C   0  0  0  0  0  0
    2.0992   52.9445   24.2030 C   0  0  0  0  0  0
    2.8912   53.7194   23.3390 C   0  0  0  0  0  0
    2.0992   53.2951   25.6755 C   0  0  0  0  0  0
    1.1045   53.1761   26.3878 O   0  0  0  0  0  0
    3.2845   53.7136   26.1482 N   0  0  0  0  0  0
    3.5766   54.1101   27.5169 C   0  0  0  0  0  0
    3.3626   52.9777   28.5521 C   0  0  0  0  0  0
    4.6840   52.8304   29.3144 C   0  0  0  0  0  0
    5.4120   54.1552   29.0856 C   0  0  0  0  0  0
    5.0713   54.4539   27.6338 C   0  0  0  0  0  0
    0.5620   51.0237   24.4366 N   0  0  0  0  0  0
   -0.8238   51.4386   24.7059 C   0  0  0  0  0  0
   -1.4814   50.6920   25.8851 C   0  0  0  0  0  0
   -1.3668   49.1732   25.6825 N   0  3  0  0  0  0
    0.0974   48.7672   25.4741 C   0  0  0  0  0  0
    0.7038   49.5641   24.3053 C   0  0  0  0  0  0
    2.5071   53.3905   13.6286 H   0  0  0  0  0  0
    0.8509   53.4008   13.0401 H   0  0  0  0  0  0
    1.3916   52.1176   14.1136 H   0  0  0  0  0  0
    1.0888   55.0773   14.7947 H   0  0  0  0  0  0
   -0.7072   54.3931   16.3726 H   0  0  0  0  0  0
   -1.0950   53.9473   14.7177 H   0  0  0  0  0  0
   -0.5449   52.7199   15.8483 H   0  0  0  0  0  0
    1.8023   51.7381   16.4473 H   0  0  0  0  0  0
    3.3464   51.5132   18.3352 H   0  0  0  0  0  0
    3.9802   55.7658   18.3293 H   0  0  0  0  0  0
    2.4469   55.9946   16.4281 H   0  0  0  0  0  0
    4.0189   55.1413   21.4343 H   0  0  0  0  0  0
    2.3374   52.1060   20.4176 H   0  0  0  0  0  0
    0.8961   50.7852   21.8469 H   0  0  0  0  0  0
    3.4525   54.5641   23.7146 H   0  0  0  0  0  0
    4.0695   53.7145   25.5151 H   0  0  0  0  0  0
    3.0410   55.0080   27.8368 H   0  0  0  0  0  0
    2.5473   53.2367   29.2290 H   0  0  0  0  0  0
    3.1016   52.0257   28.0875 H   0  0  0  0  0  0
    4.5245   52.5956   30.3670 H   0  0  0  0  0  0
    5.2619   52.0135   28.8821 H   0  0  0  0  0  0
    5.0106   54.9319   29.7385 H   0  0  0  0  0  0
    6.4854   54.0963   29.2782 H   0  0  0  0  0  0
    5.6716   53.8067   26.9885 H   0  0  0  0  0  0
    5.3040   55.4683   27.3185 H   0  0  0  0  0  0
   -0.8889   52.5183   24.8546 H   0  0  0  0  0  0
   -1.3844   51.1958   23.8016 H   0  0  0  0  0  0
   -2.5488   50.8996   25.9731 H   0  0  0  0  0  0
   -0.9938   50.9107   26.8385 H   0  0  0  0  0  0
   -1.9465   48.8652   24.9148 H   0  0  0  0  0  0
    0.0844   47.6966   25.2804 H   0  0  0  0  0  0
    0.6080   48.9486   26.4228 H   0  0  0  0  0  0
    0.1580   49.2859   23.4025 H   0  0  0  0  0  0
    1.7517   49.2973   24.1649 H   0  0  0  0  0  0
   -1.6955   48.7200   26.5398 H   0  0  0  0  0  0
  1  2  1  0  0  0
  1 34  1  0  0  0
  1 35  1  0  0  0
  1 36  1  0  0  0
  2  3  1  0  0  0
  2  4  1  0  0  0
  2 37  1  0  0  0
  3 38  1  0  0  0
  3 39  1  0  0  0
  3 40  1  0  0  0
  4  9  2  0  0  0
  4  5  1  0  0  0
  5  6  2  0  0  0
  5 41  1  0  0  0
  6  7  1  0  0  0
  6 42  1  0  0  0
  7  8  2  0  0  0
  7 10  1  0  0  0
  8  9  1  0  0  0
  8 43  1  0  0  0
  9 44  1  0  0  0
 10 11  2  0  0  0
 10 12  2  0  0  0
 10 13  1  0  0  0
 13 14  1  0  0  0
 13 45  1  0  0  0
 14 19  2  0  0  0
 14 15  1  0  0  0
 15 16  2  0  0  0
 15 46  1  0  0  0
 16 17  1  0  0  0
 16 47  1  0  0  0
 17 18  2  0  0  0
 17 28  1  0  0  0
 18 19  1  0  0  0
 18 20  1  0  0  0
 19 48  1  0  0  0
 20 21  2  0  0  0
 20 22  1  0  0  0
 22 23  1  0  0  0
 22 49  1  0  0  0
 23 27  1  0  0  0
 23 24  1  0  0  0
 23 50  1  0  0  0
 24 25  1  0  0  0
 24 51  1  0  0  0
 24 52  1  0  0  0
 25 26  1  0  0  0
 25 53  1  0  0  0
 25 54  1  0  0  0
 26 27  1  0  0  0
 26 55  1  0  0  0
 26 56  1  0  0  0
 27 57  1  0  0  0
 27 58  1  0  0  0
 28 33  1  0  0  0
 28 29  1  0  0  0
 29 30  1  0  0  0
 29 59  1  0  0  0
 29 60  1  0  0  0
 30 31  1  0  0  0
 30 61  1  0  0  0
 30 62  1  0  0  0
 31 32  1  0  0  0
 31 63  1  0  0  0
 31 68  1  0  0  0
 32 33  1  0  0  0
 32 64  1  0  0  0
 32 65  1  0  0  0
 33 66  1  0  0  0
 33 67  1  0  0  0
M  CHG  1  31   1
M  END
> <i_i_glide_confnum>
179

> <i_i_glide_lignum>
4987

> <i_i_glide_posenum>
341

> <i_i_glide_rotatable_bonds>
8

> <i_m_Source_File_Index>
5743

> <b_m_subgroup_collapsed>
0

> <r_i_docking_score>
-4.17474

> <r_i_glide_ecoul>
-5.37408

> <r_i_glide_eff_state_penalty>
0

> <r_i_glide_einternal>
2.95538

> <r_i_glide_emodel>
-49.6066

> <r_i_glide_energy>
-38.3203

> <r_i_glide_erotb>
0.636117

> <r_i_glide_esite>
-0.218006

> <r_i_glide_evdw>
-32.9463

> <r_i_glide_gscore>
-4.17474

> <r_i_glide_hbond>
-0.2

> <r_i_glide_ligand_efficiency>
-0.126507

> <r_i_glide_ligand_efficiency_ln>
-0.92844

> <r_i_glide_ligand_efficiency_sa>
-0.405776

> <r_i_glide_lipo>
-1.66042

> <r_i_glide_metal>
0

> <r_i_glide_rewards>
-0.279003

> <s_i_glide_gridfile>
wee1_glide-grid

> <s_m_Source_File>
wee1_decoys_glide_SP.sdf

> <s_m_Source_Path>
/Users/zhangxujun/Desktop

> <s_m_entry_id>
6018

> <s_m_entry_name>
wee1_decoys_glide_SP.5743

> <s_m_subgroup_title>
wee1_decoys_glide_SP

> <s_m_subgroupid>
wee1_decoys_glide_SP


$$$$
