ZINC38550646_593
                    3D
 Schrodinger Suite 2024-2.
 59 63  0  0  1  0            999 V2000
    4.6883   54.1944   29.0288 C   0  0  0  0  0  0
    3.0153   54.4672   29.6808 S   0  0  0  0  0  0
    1.9426   53.3449   28.8396 C   0  0  0  0  0  0
    0.6886   53.7796   28.4298 C   0  0  0  0  0  0
   -0.1333   52.9240   27.7000 C   0  0  0  0  0  0
    0.2808   51.6326   27.3650 C   0  0  0  0  0  0
    1.5044   51.1881   27.8675 C   0  0  0  0  0  0
    2.3429   52.0389   28.5825 C   0  0  0  0  0  0
   -0.6159   50.7102   26.5152 C   0  0  1  0  0  0
   -1.1357   50.1017   27.2544 H   0  0  0  0  0  0
   -1.6368   51.4834   25.6562 C   0  0  0  0  0  0
   -2.9723   51.7474   26.0441 C   0  0  0  0  0  0
   -3.6978   52.4576   25.0727 C   0  0  0  0  0  0
   -2.7442   52.8245   23.6821 S   0  0  0  0  0  0
   -1.3911   52.0053   24.3734 C   0  0  0  0  0  0
   -0.2652   51.8690   23.5831 N   0  0  0  0  0  0
    0.7152   52.7871   23.4973 C   0  0  0  0  0  0
    0.7153   53.8704   24.0816 O   0  0  0  0  0  0
    1.7934   52.4205   22.6118 C   0  0  0  0  0  0
    2.9117   53.1383   22.2015 C   0  0  0  0  0  0
    3.6168   52.3248   21.3122 C   0  0  0  0  0  0
    2.9121   51.1351   21.2303 C   0  0  0  0  0  0
    1.8085   51.1903   22.0207 O   0  0  0  0  0  0
   -5.1792   52.7966   25.1479 C   0  0  0  0  0  0
   -5.6742   52.6140   26.5974 C   0  0  0  0  0  0
   -5.1664   51.3037   27.2250 C   0  0  0  0  0  0
   -3.6260   51.2568   27.3382 C   0  0  0  0  0  0
    0.1259   49.7251   25.6967 N   0  0  0  0  0  0
   -0.6257   48.7147   25.0348 C   0  0  0  0  0  0
   -0.4209   48.4367   23.6821 C   0  0  0  0  0  0
   -1.2967   47.5667   23.0196 C   0  0  0  0  0  0
   -2.3303   46.9504   23.7309 C   0  0  0  0  0  0
   -2.4711   47.2127   25.0953 C   0  0  0  0  0  0
   -1.6251   48.0806   25.6817 N   0  3  0  0  0  0
    5.3807   54.9229   29.4519 H   0  0  0  0  0  0
    5.0519   53.1982   29.2802 H   0  0  0  0  0  0
    4.6968   54.3064   27.9444 H   0  0  0  0  0  0
    0.3664   54.7870   28.6426 H   0  0  0  0  0  0
   -1.0875   53.2968   27.3670 H   0  0  0  0  0  0
    1.8435   50.1804   27.6816 H   0  0  0  0  0  0
    3.3039   51.6842   28.9204 H   0  0  0  0  0  0
   -0.1803   51.0351   23.0227 H   0  0  0  0  0  0
    3.1705   54.1444   22.4967 H   0  0  0  0  0  0
    4.5270   52.5733   20.7831 H   0  0  0  0  0  0
    3.0631   50.2204   20.6728 H   0  0  0  0  0  0
   -5.3754   53.8138   24.8057 H   0  0  0  0  0  0
   -5.7402   52.1287   24.4920 H   0  0  0  0  0  0
   -5.3466   53.4584   27.2021 H   0  0  0  0  0  0
   -6.7649   52.6393   26.6172 H   0  0  0  0  0  0
   -5.6076   51.1656   28.2136 H   0  0  0  0  0  0
   -5.5130   50.4588   26.6258 H   0  0  0  0  0  0
   -3.3184   50.2392   27.5827 H   0  0  0  0  0  0
   -3.2938   51.8711   28.1733 H   0  0  0  0  0  0
    0.9709   50.0618   25.2601 H   0  0  0  0  0  0
    0.3771   48.9193   23.1358 H   0  0  0  0  0  0
   -1.1696   47.3709   21.9650 H   0  0  0  0  0  0
   -3.0121   46.2830   23.2251 H   0  0  0  0  0  0
   -3.2264   46.7876   25.7425 H   0  0  0  0  0  0
   -1.6955   48.2311   26.6915 H   0  0  0  0  0  0
  1  2  1  0  0  0
  1 35  1  0  0  0
  1 36  1  0  0  0
  1 37  1  0  0  0
  2  3  1  0  0  0
  3  8  2  0  0  0
  3  4  1  0  0  0
  4  5  2  0  0  0
  4 38  1  0  0  0
  5  6  1  0  0  0
  5 39  1  0  0  0
  6  7  2  0  0  0
  6  9  1  0  0  0
  7  8  1  0  0  0
  7 40  1  0  0  0
  8 41  1  0  0  0
  9 10  1  0  0  0
  9 11  1  0  0  0
  9 28  1  0  0  0
 11 15  2  0  0  0
 11 12  1  0  0  0
 12 27  1  0  0  0
 12 13  2  0  0  0
 13 14  1  0  0  0
 13 24  1  0  0  0
 14 15  1  0  0  0
 15 16  1  0  0  0
 16 17  1  0  0  0
 16 42  1  0  0  0
 17 18  2  0  0  0
 17 19  1  0  0  0
 19 23  1  0  0  0
 19 20  2  0  0  0
 20 21  1  0  0  0
 20 43  1  0  0  0
 21 22  2  0  0  0
 21 44  1  0  0  0
 22 23  1  0  0  0
 22 45  1  0  0  0
 24 25  1  0  0  0
 24 46  1  0  0  0
 24 47  1  0  0  0
 25 26  1  0  0  0
 25 48  1  0  0  0
 25 49  1  0  0  0
 26 27  1  0  0  0
 26 50  1  0  0  0
 26 51  1  0  0  0
 27 52  1  0  0  0
 27 53  1  0  0  0
 28 29  1  0  0  0
 28 54  1  0  0  0
 29 34  2  0  0  0
 29 30  1  0  0  0
 30 31  2  0  0  0
 30 55  1  0  0  0
 31 32  1  0  0  0
 31 56  1  0  0  0
 32 33  2  0  0  0
 32 57  1  0  0  0
 33 34  1  0  0  0
 33 58  1  0  0  0
 34 59  1  0  0  0
M  CHG  1  34   1
M  END
> <i_i_glide_confnum>
38

> <i_i_glide_lignum>
594

> <i_i_glide_posenum>
187

> <i_i_glide_rotatable_bonds>
8

> <i_m_Source_File_Index>
5770

> <b_m_subgroup_collapsed>
0

> <r_i_docking_score>
-3.83673

> <r_i_glide_ecoul>
-4.4676

> <r_i_glide_eff_state_penalty>
0

> <r_i_glide_einternal>
8.34615

> <r_i_glide_emodel>
-47.7518

> <r_i_glide_energy>
-41.5544

> <r_i_glide_erotb>
0.623988

> <r_i_glide_esite>
-0.157931

> <r_i_glide_evdw>
-37.0868

> <r_i_glide_gscore>
-3.83673

> <r_i_glide_hbond>
-0.2

> <r_i_glide_ligand_efficiency>
-0.116264

> <r_i_glide_ligand_efficiency_ln>
-0.853268

> <r_i_glide_ligand_efficiency_sa>
-0.372922

> <r_i_glide_lipo>
-1.51549

> <r_i_glide_metal>
0

> <r_i_glide_rewards>
-0.0628107

> <s_i_glide_gridfile>
wee1_glide-grid

> <s_m_Source_File>
wee1_decoys_glide_SP.sdf

> <s_m_Source_Path>
/Users/zhangxujun/Desktop

> <s_m_entry_id>
6045

> <s_m_entry_name>
wee1_decoys_glide_SP.5770

> <s_m_subgroup_title>
wee1_decoys_glide_SP

> <s_m_subgroupid>
wee1_decoys_glide_SP


$$$$
