ZINC12499753_5291
                    3D
 Schrodinger Suite 2024-2.
 50 52  0  0  1  0            999 V2000
    5.8011   57.0823   18.3153 C   0  0  0  0  0  0
    4.5058   56.8500   17.5524 C   0  0  0  0  0  0
    3.9067   57.9209   16.8808 C   0  0  0  0  0  0
    2.7063   57.7393   16.1976 C   0  0  0  0  0  0
    2.0925   56.4898   16.1946 C   0  0  0  0  0  0
    2.6892   55.4190   16.8549 C   0  0  0  0  0  0
    3.9168   55.5757   17.5228 C   0  0  0  0  0  0
    4.5912   54.5402   18.1528 O   0  0  0  0  0  0
    4.1487   53.1820   17.9991 C   0  0  0  0  0  0
    3.2167   52.7733   19.1466 C   0  0  0  0  0  0
    2.2716   52.0215   18.9088 O   0  0  0  0  0  0
    3.5246   53.2964   20.3618 N   0  0  0  0  0  0
    3.1252   52.9940   21.6373 C   0  0  0  0  0  0
    2.3034   51.5854   22.0815 S   0  0  0  0  0  0
    3.5778   53.9689   22.4925 N   0  0  0  0  0  0
    3.6528   53.9618   23.8879 C   0  0  0  0  0  0
    4.7851   54.2850   24.6827 C   0  0  0  0  0  0
    4.4393   54.2124   26.0677 C   0  0  0  0  0  0
    3.0851   53.9260   26.2888 C   0  0  0  0  0  0
    2.2149   53.6976   24.8245 S   0  0  0  0  0  0
    2.4204   53.7671   27.6478 C   0  0  0  0  0  0
    3.2900   54.4683   28.7079 C   0  0  0  0  0  0
    4.7588   54.0345   28.6014 C   0  0  0  0  0  0
    5.4071   54.4067   27.2490 C   0  0  0  0  0  0
    6.1388   54.6529   24.1963 C   0  0  0  0  0  0
    7.0581   54.9973   24.9404 O   0  0  0  0  0  0
    6.2479   54.5876   22.8468 O   0  0  0  0  0  0
    7.4785   54.8969   22.2065 C   0  0  0  0  0  0
    1.9033   59.1963   15.2748 Br  0  0  0  0  0  0
    6.5941   56.4519   17.9122 H   0  0  0  0  0  0
    6.1289   58.1213   18.2730 H   0  0  0  0  0  0
    5.6625   56.8107   19.3621 H   0  0  0  0  0  0
    4.3601   58.9032   16.8861 H   0  0  0  0  0  0
    1.1555   56.3516   15.6743 H   0  0  0  0  0  0
    2.1776   54.4694   16.8358 H   0  0  0  0  0  0
    3.7092   52.9724   17.0238 H   0  0  0  0  0  0
    5.0277   52.5398   18.0372 H   0  0  0  0  0  0
    4.2809   53.9614   20.3101 H   0  0  0  0  0  0
    4.1462   54.6858   22.0646 H   0  0  0  0  0  0
    1.4115   54.1829   27.6463 H   0  0  0  0  0  0
    2.3246   52.7082   27.8864 H   0  0  0  0  0  0
    3.2119   55.5515   28.5961 H   0  0  0  0  0  0
    2.9022   54.2378   29.6995 H   0  0  0  0  0  0
    5.3364   54.4894   29.4083 H   0  0  0  0  0  0
    4.8275   52.9551   28.7490 H   0  0  0  0  0  0
    6.3045   53.7987   27.1182 H   0  0  0  0  0  0
    5.7479   55.4408   27.2841 H   0  0  0  0  0  0
    7.3519   54.8952   21.1231 H   0  0  0  0  0  0
    7.8355   55.8890   22.4959 H   0  0  0  0  0  0
    8.2306   54.1563   22.4786 H   0  0  0  0  0  0
  1  2  1  0  0  0
  1 30  1  0  0  0
  1 31  1  0  0  0
  1 32  1  0  0  0
  2  7  2  0  0  0
  2  3  1  0  0  0
  3  4  2  0  0  0
  3 33  1  0  0  0
  4  5  1  0  0  0
  4 29  1  0  0  0
  5  6  2  0  0  0
  5 34  1  0  0  0
  6  7  1  0  0  0
  6 35  1  0  0  0
  7  8  1  0  0  0
  8  9  1  0  0  0
  9 10  1  0  0  0
  9 36  1  0  0  0
  9 37  1  0  0  0
 10 11  2  0  0  0
 10 12  1  0  0  0
 12 13  1  0  0  0
 12 38  1  0  0  0
 13 14  2  0  0  0
 13 15  1  0  0  0
 15 16  1  0  0  0
 15 39  1  0  0  0
 16 20  1  0  0  0
 16 17  2  0  0  0
 17 18  1  0  0  0
 17 25  1  0  0  0
 18 24  1  0  0  0
 18 19  2  0  0  0
 19 20  1  0  0  0
 19 21  1  0  0  0
 21 22  1  0  0  0
 21 40  1  0  0  0
 21 41  1  0  0  0
 22 23  1  0  0  0
 22 42  1  0  0  0
 22 43  1  0  0  0
 23 24  1  0  0  0
 23 44  1  0  0  0
 23 45  1  0  0  0
 24 46  1  0  0  0
 24 47  1  0  0  0
 25 26  2  0  0  0
 25 27  1  0  0  0
 27 28  1  0  0  0
 28 48  1  0  0  0
 28 49  1  0  0  0
 28 50  1  0  0  0
M  END
> <i_i_glide_confnum>
106

> <i_i_glide_lignum>
5292

> <i_i_glide_posenum>
150

> <i_i_glide_rotatable_bonds>
9

> <i_m_Source_File_Index>
1744

> <b_m_subgroup_collapsed>
0

> <r_i_docking_score>
-5.41743

> <r_i_glide_ecoul>
-1.51629

> <r_i_glide_eff_state_penalty>
0

> <r_i_glide_einternal>
5.00376

> <r_i_glide_emodel>
-56.7693

> <r_i_glide_energy>
-42.943

> <r_i_glide_erotb>
0.659539

> <r_i_glide_esite>
-0.035308

> <r_i_glide_evdw>
-41.4267

> <r_i_glide_gscore>
-5.41743

> <r_i_glide_hbond>
-0.242353

> <r_i_glide_ligand_efficiency>
-0.186808

> <r_i_glide_ligand_efficiency_ln>
-1.24045

> <r_i_glide_ligand_efficiency_sa>
-0.573933

> <r_i_glide_lipo>
-2.50067

> <r_i_glide_metal>
0

> <r_i_glide_rewards>
-0.999866

> <s_i_glide_gridfile>
wee1_glide-grid

> <s_m_Source_File>
wee1_decoys_glide_SP.sdf

> <s_m_Source_Path>
/Users/zhangxujun/Desktop

> <s_m_entry_id>
2019

> <s_m_entry_name>
wee1_decoys_glide_SP.1744

> <s_m_subgroup_title>
wee1_decoys_glide_SP

> <s_m_subgroupid>
wee1_decoys_glide_SP


$$$$
