ZINC58686634_4302
                    3D
 Schrodinger Suite 2024-2.
 41 42  0  0  1  0            999 V2000
   -3.7441   51.4664   24.7001 C   0  0  0  0  0  0
   -2.4204   50.6623   24.6275 C   0  0  1  0  0  0
   -2.6878   49.6465   24.3321 H   0  0  0  0  0  0
   -1.4890   51.1678   23.5064 C   0  0  0  0  0  0
   -0.1521   51.5416   23.7270 C   0  0  0  0  0  0
    0.6489   51.9833   22.6728 C   0  0  0  0  0  0
    0.1330   52.0444   21.3797 C   0  0  0  0  0  0
   -1.1854   51.6578   21.1417 C   0  0  0  0  0  0
   -1.9856   51.2214   22.1968 C   0  0  0  0  0  0
   -1.8960   51.7046   19.3754 Br  0  0  0  0  0  0
   -1.8195   50.4699   25.9587 N   0  0  0  0  0  0
   -1.4369   51.4237   26.8235 C   0  0  0  0  0  0
   -1.4857   52.6290   26.5947 O   0  0  0  0  0  0
   -0.9768   50.8966   27.9604 N   0  0  0  0  0  0
   -0.5711   51.6302   29.1678 C   0  0  0  0  0  0
    0.7749   52.3850   29.0807 C   0  0  0  0  0  0
    1.1336   53.0467   30.0553 O   0  0  0  0  0  0
    1.4993   52.2916   27.9460 N   0  0  0  0  0  0
    2.6873   52.9817   27.6684 C   0  0  0  0  0  0
    2.7431   53.6969   26.4688 C   0  0  0  0  0  0
    3.9152   54.3525   26.0977 C   0  0  0  0  0  0
    5.0433   54.2870   26.9124 C   0  0  0  0  0  0
    5.0027   53.5632   28.1032 C   0  0  0  0  0  0
    3.8310   52.8987   28.4826 C   0  0  0  0  0  0
    3.8312   52.1504   29.6133 F   0  0  0  0  0  0
    6.1066   53.4850   28.8809 F   0  0  0  0  0  0
    6.1814   54.9153   26.5347 F   0  0  0  0  0  0
   -4.3295   51.3759   23.7853 H   0  0  0  0  0  0
   -4.3769   51.1073   25.5132 H   0  0  0  0  0  0
   -3.5622   52.5304   24.8655 H   0  0  0  0  0  0
    0.2846   51.4937   24.7116 H   0  0  0  0  0  0
    1.6735   52.2750   22.8565 H   0  0  0  0  0  0
    0.7541   52.3859   20.5630 H   0  0  0  0  0  0
   -2.9980   50.9114   21.9828 H   0  0  0  0  0  0
   -1.6468   49.5124   26.2324 H   0  0  0  0  0  0
   -1.1209   49.8894   28.0950 H   0  0  0  0  0  0
   -0.5191   50.9012   29.9734 H   0  0  0  0  0  0
   -1.3460   52.3412   29.4425 H   0  0  0  0  0  0
    1.0716   51.7905   27.1834 H   0  0  0  0  0  0
    1.8794   53.7464   25.8207 H   0  0  0  0  0  0
    3.9544   54.9088   25.1727 H   0  0  0  0  0  0
  1  2  1  0  0  0
  1 28  1  0  0  0
  1 29  1  0  0  0
  1 30  1  0  0  0
  2  3  1  0  0  0
  2  4  1  0  0  0
  2 11  1  0  0  0
  4  9  2  0  0  0
  4  5  1  0  0  0
  5  6  2  0  0  0
  5 31  1  0  0  0
  6  7  1  0  0  0
  6 32  1  0  0  0
  7  8  2  0  0  0
  7 33  1  0  0  0
  8  9  1  0  0  0
  8 10  1  0  0  0
  9 34  1  0  0  0
 11 12  1  0  0  0
 11 35  1  0  0  0
 12 13  2  0  0  0
 12 14  1  0  0  0
 14 15  1  0  0  0
 14 36  1  0  0  0
 15 16  1  0  0  0
 15 37  1  0  0  0
 15 38  1  0  0  0
 16 17  2  0  0  0
 16 18  1  0  0  0
 18 19  1  0  0  0
 18 39  1  0  0  0
 19 24  2  0  0  0
 19 20  1  0  0  0
 20 21  2  0  0  0
 20 40  1  0  0  0
 21 22  1  0  0  0
 21 41  1  0  0  0
 22 23  2  0  0  0
 22 27  1  0  0  0
 23 24  1  0  0  0
 23 26  1  0  0  0
 24 25  1  0  0  0
M  END
> <i_i_glide_confnum>
22

> <i_i_glide_lignum>
4303

> <i_i_glide_posenum>
289

> <i_i_glide_rotatable_bonds>
8

> <i_m_Source_File_Index>
2167

> <b_m_subgroup_collapsed>
0

> <r_i_docking_score>
-5.73013

> <r_i_glide_ecoul>
-9.63645

> <r_i_glide_eff_state_penalty>
0

> <r_i_glide_einternal>
5.22165

> <r_i_glide_emodel>
-51.6951

> <r_i_glide_energy>
-38.4563

> <r_i_glide_erotb>
0.644425

> <r_i_glide_esite>
-0.225364

> <r_i_glide_evdw>
-28.8199

> <r_i_glide_gscore>
-5.73013

> <r_i_glide_hbond>
-0.16

> <r_i_glide_ligand_efficiency>
-0.22039

> <r_i_glide_ligand_efficiency_ln>
-1.3457

> <r_i_glide_ligand_efficiency_sa>
-0.652903

> <r_i_glide_lipo>
-1.52451

> <r_i_glide_metal>
0

> <r_i_glide_rewards>
-1.57822

> <s_i_glide_gridfile>
wee1_glide-grid

> <s_m_Source_File>
wee1_decoys_glide_SP.sdf

> <s_m_Source_Path>
/Users/zhangxujun/Desktop

> <s_m_entry_id>
2442

> <s_m_entry_name>
wee1_decoys_glide_SP.2167

> <s_m_subgroup_title>
wee1_decoys_glide_SP

> <s_m_subgroupid>
wee1_decoys_glide_SP


$$$$
