ZINC02242485_5831
                    3D
 Schrodinger Suite 2024-2.
 43 47  0  0  1  0            999 V2000
    0.0021   53.2501   30.8885 C   0  0  0  0  0  0
   -0.4934   52.0967   30.2854 C   0  0  0  0  0  0
   -0.2472   51.8666   28.9368 C   0  0  0  0  0  0
    0.4945   52.7885   28.1939 C   0  0  0  0  0  0
    0.9779   53.9504   28.8058 C   0  0  0  0  0  0
    0.7253   54.1860   30.1534 C   0  0  0  0  0  0
    0.7789   52.5068   26.7577 C   0  0  0  0  0  0
    0.4659   51.4591   25.9080 C   0  0  0  0  0  0
    1.0773   51.7367   24.6883 C   0  0  0  0  0  0
    1.7160   52.9705   24.8071 C   0  0  0  0  0  0
    1.5047   53.4281   26.0676 O   0  0  0  0  0  0
    2.5733   53.8557   23.8901 C   0  0  1  0  0  0
    2.1304   54.8494   23.7999 H   0  0  0  0  0  0
    4.0021   54.0946   24.4468 C   0  0  0  0  0  0
    5.0596   54.2868   23.6181 C   0  0  0  0  0  0
    4.9183   54.1797   22.2259 N   0  0  0  0  0  0
    5.8153   54.6305   21.2337 C   0  0  0  0  0  0
    6.9272   55.4804   21.3524 C   0  0  0  0  0  0
    7.7352   55.7401   20.2446 C   0  0  0  0  0  0
    7.4242   55.1899   19.0037 C   0  0  0  0  0  0
    6.3016   54.3768   18.8669 C   0  0  0  0  0  0
    5.5046   54.1051   19.9780 C   0  0  0  0  0  0
    4.0783   53.0949   20.0176 S   0  0  0  0  0  0
    3.7909   53.5601   21.7102 C   0  0  0  0  0  0
    2.6933   53.3016   22.4518 C   0  0  0  0  0  0
    1.5791   52.6354   21.8454 C   0  0  0  0  0  0
    0.6681   52.0987   21.3715 N   0  0  0  0  0  0
    6.3439   54.4426   24.0892 N   0  0  0  0  0  0
    4.2081   54.1512   25.8635 C   0  0  0  0  0  0
    4.4135   54.2474   27.0003 N   0  0  0  0  0  0
   -0.1868   53.4152   31.9405 H   0  0  0  0  0  0
   -1.0572   51.3818   30.8701 H   0  0  0  0  0  0
   -0.6291   50.9618   28.4839 H   0  0  0  0  0  0
    1.5559   54.6705   28.2428 H   0  0  0  0  0  0
    1.0940   55.0839   30.6279 H   0  0  0  0  0  0
   -0.1039   50.5761   26.1571 H   0  0  0  0  0  0
    1.0602   51.0907   23.8224 H   0  0  0  0  0  0
    7.1986   55.9444   22.2888 H   0  0  0  0  0  0
    8.6108   56.3667   20.3447 H   0  0  0  0  0  0
    8.0540   55.3901   18.1476 H   0  0  0  0  0  0
    6.0647   53.9518   17.9017 H   0  0  0  0  0  0
    6.5283   54.4267   25.0830 H   0  0  0  0  0  0
    7.1408   54.4304   23.4684 H   0  0  0  0  0  0
  1  6  2  0  0  0
  1  2  1  0  0  0
  1 31  1  0  0  0
  2  3  2  0  0  0
  2 32  1  0  0  0
  3  4  1  0  0  0
  3 33  1  0  0  0
  4  5  2  0  0  0
  4  7  1  0  0  0
  5  6  1  0  0  0
  5 34  1  0  0  0
  6 35  1  0  0  0
  7 11  1  0  0  0
  7  8  2  0  0  0
  8  9  1  0  0  0
  8 36  1  0  0  0
  9 10  2  0  0  0
  9 37  1  0  0  0
 10 11  1  0  0  0
 10 12  1  0  0  0
 12 13  1  0  0  0
 12 25  1  0  0  0
 12 14  1  0  0  0
 14 15  2  0  0  0
 14 29  1  0  0  0
 15 16  1  0  0  0
 15 28  1  0  0  0
 16 24  1  0  0  0
 16 17  1  0  0  0
 17 22  2  0  0  0
 17 18  1  0  0  0
 18 19  2  0  0  0
 18 38  1  0  0  0
 19 20  1  0  0  0
 19 39  1  0  0  0
 20 21  2  0  0  0
 20 40  1  0  0  0
 21 22  1  0  0  0
 21 41  1  0  0  0
 22 23  1  0  0  0
 23 24  1  0  0  0
 24 25  2  0  0  0
 25 26  1  0  0  0
 26 27  3  0  0  0
 28 42  1  0  0  0
 28 43  1  0  0  0
 29 30  3  0  0  0
M  END
> <i_i_glide_confnum>
5

> <i_i_glide_lignum>
5832

> <i_i_glide_posenum>
295

> <i_i_glide_rotatable_bonds>
4

> <i_m_Source_File_Index>
5297

> <b_m_subgroup_collapsed>
0

> <r_i_docking_score>
-6.05511

> <r_i_glide_ecoul>
-2.7079

> <r_i_glide_eff_state_penalty>
0

> <r_i_glide_einternal>
4.82116

> <r_i_glide_emodel>
-61.4646

> <r_i_glide_energy>
-46.015

> <r_i_glide_erotb>
0.251237

> <r_i_glide_esite>
0

> <r_i_glide_evdw>
-43.3071

> <r_i_glide_gscore>
-6.05511

> <r_i_glide_hbond>
0

> <r_i_glide_ligand_efficiency>
-0.208797

> <r_i_glide_ligand_efficiency_ln>
-1.38647

> <r_i_glide_ligand_efficiency_sa>
-0.641491

> <r_i_glide_lipo>
-2.43243

> <r_i_glide_metal>
0

> <r_i_glide_rewards>
-1.30238

> <s_i_glide_gridfile>
wee1_glide-grid

> <s_m_Source_File>
wee1_decoys_glide_SP.sdf

> <s_m_Source_Path>
/Users/zhangxujun/Desktop

> <s_m_entry_id>
5572

> <s_m_entry_name>
wee1_decoys_glide_SP.5297

> <s_m_subgroup_title>
wee1_decoys_glide_SP

> <s_m_subgroupid>
wee1_decoys_glide_SP


$$$$
