ZINC49491760_2831
                    3D
 Schrodinger Suite 2024-2.
 55 58  0  0  1  0            999 V2000
    7.0602   56.1637   16.0550 C   0  0  0  0  0  0
    6.3027   55.7859   17.3225 C   0  0  0  0  0  0
    5.0769   55.6982   17.2785 O   0  0  0  0  0  0
    7.0550   55.5995   18.4260 N   0  0  0  0  0  0
    6.6256   55.2384   19.7140 C   0  0  0  0  0  0
    7.4481   55.6135   20.7748 C   0  0  0  0  0  0
    7.0808   55.3093   22.0815 C   0  0  0  0  0  0
    5.8980   54.6094   22.3548 C   0  0  0  0  0  0
    5.0990   54.1935   21.2769 C   0  0  0  0  0  0
    5.4577   54.5061   19.9684 C   0  0  0  0  0  0
    5.4945   54.3596   23.7946 C   0  0  0  0  0  0
    6.3361   54.4273   24.6942 O   0  0  0  0  0  0
    4.1791   54.1117   24.0002 N   0  0  0  0  0  0
    3.4977   53.9461   25.2200 C   0  0  0  0  0  0
    3.9286   54.4966   26.4302 C   0  0  0  0  0  0
    3.2226   54.2429   27.6007 C   0  0  0  0  0  0
    2.0807   53.4358   27.6048 C   0  0  0  0  0  0
    1.6045   52.9157   26.3748 C   0  0  0  0  0  0
    2.3246   53.1886   25.1998 C   0  0  0  0  0  0
    0.4771   52.0447   26.3502 N   0  0  0  0  0  0
    0.2317   51.2968   27.5887 C   0  0  0  0  0  0
    0.1403   52.2707   28.7701 C   0  0  0  0  0  0
    1.4277   53.0854   28.9389 C   0  0  0  0  0  0
   -0.4893   51.6467   24.8840 S   0  0  0  0  0  0
   -0.2853   52.7038   23.8849 O   0  0  0  0  0  0
   -0.2098   50.2431   24.5630 O   0  0  0  0  0  0
   -2.2135   51.7429   25.3779 C   0  0  0  0  0  0
   -2.9676   52.8752   25.0568 C   0  0  0  0  0  0
   -4.2945   52.9631   25.4676 C   0  0  0  0  0  0
   -4.8640   51.9192   26.1926 C   0  0  0  0  0  0
   -4.1230   50.7796   26.4966 C   0  0  0  0  0  0
   -2.7978   50.6846   26.0812 C   0  0  0  0  0  0
   -6.1489   52.0130   26.6013 F   0  0  0  0  0  0
    8.1403   56.1344   16.1990 H   0  0  0  0  0  0
    6.7820   57.1701   15.7427 H   0  0  0  0  0  0
    6.8052   55.4740   15.2506 H   0  0  0  0  0  0
    8.0334   55.8286   18.3463 H   0  0  0  0  0  0
    8.3709   56.1474   20.5983 H   0  0  0  0  0  0
    7.7184   55.6507   22.8823 H   0  0  0  0  0  0
    4.1876   53.6329   21.4265 H   0  0  0  0  0  0
    4.8211   54.1664   19.1647 H   0  0  0  0  0  0
    3.6080   54.0166   23.1756 H   0  0  0  0  0  0
    4.8130   55.1130   26.4845 H   0  0  0  0  0  0
    3.5931   54.6532   28.5288 H   0  0  0  0  0  0
    2.0295   52.7435   24.2632 H   0  0  0  0  0  0
   -0.6447   50.6548   27.5418 H   0  0  0  0  0  0
    1.0788   50.6167   27.6901 H   0  0  0  0  0  0
   -0.7013   52.9440   28.6035 H   0  0  0  0  0  0
   -0.0943   51.7310   29.6894 H   0  0  0  0  0  0
    2.1419   52.4938   29.5138 H   0  0  0  0  0  0
    1.2312   53.9859   29.5226 H   0  0  0  0  0  0
   -2.5342   53.6827   24.4839 H   0  0  0  0  0  0
   -4.8833   53.8348   25.2251 H   0  0  0  0  0  0
   -4.5733   49.9716   27.0546 H   0  0  0  0  0  0
   -2.2317   49.7929   26.3190 H   0  0  0  0  0  0
  1  2  1  0  0  0
  1 34  1  0  0  0
  1 35  1  0  0  0
  1 36  1  0  0  0
  2  3  2  0  0  0
  2  4  1  0  0  0
  4  5  1  0  0  0
  4 37  1  0  0  0
  5 10  2  0  0  0
  5  6  1  0  0  0
  6  7  2  0  0  0
  6 38  1  0  0  0
  7  8  1  0  0  0
  7 39  1  0  0  0
  8  9  2  0  0  0
  8 11  1  0  0  0
  9 10  1  0  0  0
  9 40  1  0  0  0
 10 41  1  0  0  0
 11 12  2  0  0  0
 11 13  1  0  0  0
 13 14  1  0  0  0
 13 42  1  0  0  0
 14 19  2  0  0  0
 14 15  1  0  0  0
 15 16  2  0  0  0
 15 43  1  0  0  0
 16 17  1  0  0  0
 16 44  1  0  0  0
 17 23  1  0  0  0
 17 18  2  0  0  0
 18 19  1  0  0  0
 18 20  1  0  0  0
 19 45  1  0  0  0
 20 21  1  0  0  0
 20 24  1  0  0  0
 21 22  1  0  0  0
 21 46  1  0  0  0
 21 47  1  0  0  0
 22 23  1  0  0  0
 22 48  1  0  0  0
 22 49  1  0  0  0
 23 50  1  0  0  0
 23 51  1  0  0  0
 24 25  2  0  0  0
 24 26  2  0  0  0
 24 27  1  0  0  0
 27 32  2  0  0  0
 27 28  1  0  0  0
 28 29  2  0  0  0
 28 52  1  0  0  0
 29 30  1  0  0  0
 29 53  1  0  0  0
 30 31  2  0  0  0
 30 33  1  0  0  0
 31 32  1  0  0  0
 31 54  1  0  0  0
 32 55  1  0  0  0
M  END
> <i_i_glide_confnum>
461

> <i_i_glide_lignum>
2832

> <i_i_glide_posenum>
310

> <i_i_glide_rotatable_bonds>
7

> <i_m_Source_File_Index>
3780

> <b_m_subgroup_collapsed>
0

> <r_i_docking_score>
-4.28959

> <r_i_glide_ecoul>
-1.87441

> <r_i_glide_eff_state_penalty>
0

> <r_i_glide_einternal>
9.55224

> <r_i_glide_emodel>
-49.5328

> <r_i_glide_energy>
-44.129

> <r_i_glide_erotb>
0.554047

> <r_i_glide_esite>
-0.00926436

> <r_i_glide_evdw>
-42.2546

> <r_i_glide_gscore>
-4.28959

> <r_i_glide_hbond>
0

> <r_i_glide_ligand_efficiency>
-0.129988

> <r_i_glide_ligand_efficiency_ln>
-0.953983

> <r_i_glide_ligand_efficiency_sa>
-0.41694

> <r_i_glide_lipo>
-2.40008

> <r_i_glide_metal>
0

> <r_i_glide_rewards>
-0.0404039

> <s_i_glide_gridfile>
wee1_glide-grid

> <s_m_Source_File>
wee1_decoys_glide_SP.sdf

> <s_m_Source_Path>
/Users/zhangxujun/Desktop

> <s_m_entry_id>
4055

> <s_m_entry_name>
wee1_decoys_glide_SP.3780

> <s_m_subgroup_title>
wee1_decoys_glide_SP

> <s_m_subgroupid>
wee1_decoys_glide_SP


$$$$
