ZINC28617190_4278
                    3D
 Schrodinger Suite 2024-2.
 52 53  0  0  1  0            999 V2000
    0.7046   52.2859   31.5459 C   0  0  0  0  0  0
    1.7989   52.4966   30.5063 C   0  0  0  0  0  0
    2.9739   52.3237   30.8321 O   0  0  0  0  0  0
    1.3770   52.8388   29.2721 N   0  0  0  0  0  0
    2.1457   53.1571   28.1343 C   0  0  0  0  0  0
    3.4802   53.5807   28.1839 C   0  0  0  0  0  0
    4.1627   53.9022   27.0143 C   0  0  0  0  0  0
    3.5288   53.8058   25.7660 C   0  0  0  0  0  0
    2.1773   53.4012   25.7035 C   0  0  0  0  0  0
    1.5055   53.0811   26.8941 C   0  0  0  0  0  0
    1.4323   53.3147   24.3577 C   0  0  0  0  0  0
    0.1488   52.9765   24.4858 F   0  0  0  0  0  0
    1.4861   54.4915   23.7255 F   0  0  0  0  0  0
    2.0150   52.3978   23.5847 F   0  0  0  0  0  0
    4.1763   54.0986   24.5489 N   0  0  0  0  0  0
    5.4840   54.2477   24.2552 C   0  0  0  0  0  0
    6.4054   54.2300   25.0721 O   0  0  0  0  0  0
    5.7666   54.4973   22.7914 C   0  0  0  0  0  0
    6.8591   55.2931   22.4260 C   0  0  0  0  0  0
    7.1285   55.5713   21.0873 C   0  0  0  0  0  0
    6.2940   55.0734   20.0901 C   0  0  0  0  0  0
    5.1843   54.2841   20.4296 C   0  0  0  0  0  0
    4.9415   53.9838   21.7749 C   0  0  0  0  0  0
    4.3037   53.7286   19.4843 N   0  0  0  0  0  0
    4.0062   54.1757   18.2410 C   0  0  0  0  0  0
    4.4821   55.2097   17.7619 O   0  0  0  0  0  0
    3.0091   53.3357   17.3818 C   0  0  0  0  0  0
    2.3608   52.1550   18.1598 C   0  0  0  0  0  0
    3.7741   52.7545   16.1656 C   0  0  0  0  0  0
    1.8739   54.2576   16.8625 C   0  0  0  0  0  0
    0.3083   53.2402   31.8947 H   0  0  0  0  0  0
   -0.1184   51.6985   31.1379 H   0  0  0  0  0  0
    1.0902   51.7488   32.4146 H   0  0  0  0  0  0
    0.3797   52.8060   29.1230 H   0  0  0  0  0  0
    4.0043   53.6863   29.1221 H   0  0  0  0  0  0
    5.1847   54.2296   27.1073 H   0  0  0  0  0  0
    0.4738   52.7610   26.8561 H   0  0  0  0  0  0
    3.5557   54.1495   23.7552 H   0  0  0  0  0  0
    7.5043   55.7038   23.1879 H   0  0  0  0  0  0
    7.9936   56.1611   20.8202 H   0  0  0  0  0  0
    6.5355   55.2861   19.0592 H   0  0  0  0  0  0
    4.0968   53.3554   22.0201 H   0  0  0  0  0  0
    3.7797   52.9225   19.7921 H   0  0  0  0  0  0
    1.6613   51.6037   17.5303 H   0  0  0  0  0  0
    1.8027   52.4996   19.0330 H   0  0  0  0  0  0
    3.1040   51.4328   18.5007 H   0  0  0  0  0  0
    4.2074   53.5365   15.5423 H   0  0  0  0  0  0
    4.5857   52.0990   16.4797 H   0  0  0  0  0  0
    3.1167   52.1637   15.5271 H   0  0  0  0  0  0
    2.2592   55.0977   16.2800 H   0  0  0  0  0  0
    1.1831   53.7133   16.2156 H   0  0  0  0  0  0
    1.2850   54.6739   17.6809 H   0  0  0  0  0  0
  1  2  1  0  0  0
  1 31  1  0  0  0
  1 32  1  0  0  0
  1 33  1  0  0  0
  2  3  2  0  0  0
  2  4  1  0  0  0
  4  5  1  0  0  0
  4 34  1  0  0  0
  5 10  2  0  0  0
  5  6  1  0  0  0
  6  7  2  0  0  0
  6 35  1  0  0  0
  7  8  1  0  0  0
  7 36  1  0  0  0
  8  9  2  0  0  0
  8 15  1  0  0  0
  9 10  1  0  0  0
  9 11  1  0  0  0
 10 37  1  0  0  0
 11 12  1  0  0  0
 11 13  1  0  0  0
 11 14  1  0  0  0
 15 16  1  0  0  0
 15 38  1  0  0  0
 16 17  2  0  0  0
 16 18  1  0  0  0
 18 23  2  0  0  0
 18 19  1  0  0  0
 19 20  2  0  0  0
 19 39  1  0  0  0
 20 21  1  0  0  0
 20 40  1  0  0  0
 21 22  2  0  0  0
 21 41  1  0  0  0
 22 23  1  0  0  0
 22 24  1  0  0  0
 23 42  1  0  0  0
 24 25  1  0  0  0
 24 43  1  0  0  0
 25 26  2  0  0  0
 25 27  1  0  0  0
 27 28  1  0  0  0
 27 29  1  0  0  0
 27 30  1  0  0  0
 28 44  1  0  0  0
 28 45  1  0  0  0
 28 46  1  0  0  0
 29 47  1  0  0  0
 29 48  1  0  0  0
 29 49  1  0  0  0
 30 50  1  0  0  0
 30 51  1  0  0  0
 30 52  1  0  0  0
M  END
> <i_i_glide_confnum>
7

> <i_i_glide_lignum>
4279

> <i_i_glide_posenum>
361

> <i_i_glide_rotatable_bonds>
9

> <i_m_Source_File_Index>
2219

> <b_m_subgroup_collapsed>
0

> <r_i_docking_score>
-6.07477

> <r_i_glide_ecoul>
-4.53222

> <r_i_glide_eff_state_penalty>
0

> <r_i_glide_einternal>
1.18806

> <r_i_glide_emodel>
-65.3341

> <r_i_glide_energy>
-47.0822

> <r_i_glide_erotb>
0.669003

> <r_i_glide_esite>
-0.0453251

> <r_i_glide_evdw>
-42.55

> <r_i_glide_gscore>
-6.07477

> <r_i_glide_hbond>
-0.259551

> <r_i_glide_ligand_efficiency>
-0.202492

> <r_i_glide_ligand_efficiency_ln>
-1.38025

> <r_i_glide_ligand_efficiency_sa>
-0.62919

> <r_i_glide_lipo>
-2.23739

> <r_i_glide_metal>
0

> <r_i_glide_rewards>
-1.39417

> <s_i_glide_gridfile>
wee1_glide-grid

> <s_m_Source_File>
wee1_decoys_glide_SP.sdf

> <s_m_Source_Path>
/Users/zhangxujun/Desktop

> <s_m_entry_id>
2494

> <s_m_entry_name>
wee1_decoys_glide_SP.2219

> <s_m_subgroup_title>
wee1_decoys_glide_SP

> <s_m_subgroupid>
wee1_decoys_glide_SP


$$$$
