ZINC15768956_5012
                    3D
 Schrodinger Suite 2024-2.
 71 74  0  0  1  0            999 V2000
   -1.7866   47.3937   21.8599 C   0  0  0  0  0  0
   -1.6659   48.5728   22.8676 C   0  0  2  0  0  0
   -2.5537   49.1854   22.7321 H   0  0  0  0  0  0
   -0.4356   49.4702   22.4989 C   0  0  2  0  0  0
    0.4863   48.8991   22.6283 H   0  0  0  0  0  0
   -0.2775   50.6155   23.5180 N   0  3  0  0  0  0
   -0.1254   50.1437   24.9745 C   0  0  2  0  0  0
    0.7466   49.4840   24.9578 H   0  0  0  0  0  0
   -1.4234   49.3490   25.3213 C   0  0  2  0  0  0
   -1.2842   48.9307   26.3179 H   0  0  0  0  0  0
   -1.6278   48.1143   24.3776 C   0  0  1  0  0  0
   -2.8414   47.2765   24.8619 C   0  0  0  0  0  0
   -2.7220   46.4896   26.0226 C   0  0  0  0  0  0
   -3.7953   45.7344   26.4907 C   0  0  0  0  0  0
   -5.0122   45.7761   25.8168 C   0  0  0  0  0  0
   -5.1616   46.5695   24.6823 C   0  0  0  0  0  0
   -4.0854   47.3210   24.2124 C   0  0  0  0  0  0
   -6.0542   45.0432   26.2666 F   0  0  0  0  0  0
   -0.4752   47.2955   24.4818 O   0  0  0  0  0  0
   -2.6809   50.2664   25.4091 C   0  0  0  0  0  0
    0.2908   51.3007   25.9152 C   0  0  0  0  0  0
   -0.1310   51.2872   27.2550 C   0  0  0  0  0  0
    0.2580   52.2660   28.1669 C   0  0  0  0  0  0
    1.1245   53.2764   27.7383 C   0  0  0  0  0  0
    1.5754   53.2975   26.4202 C   0  0  0  0  0  0
    1.1628   52.3286   25.4903 C   0  0  0  0  0  0
    1.6135   52.3203   24.1775 O   0  0  0  0  0  0
    2.4723   53.3603   23.7106 C   0  0  0  0  0  0
   -0.2507   52.1536   29.4449 O   0  0  0  0  0  0
    0.0812   53.1328   30.4202 C   0  0  0  0  0  0
   -0.4572   50.0900   21.0954 C   0  0  0  0  0  0
   -1.4646   51.0018   20.7507 C   0  0  0  0  0  0
   -1.5035   51.6009   19.4898 C   0  0  0  0  0  0
   -0.5158   51.2687   18.5526 C   0  0  0  0  0  0
    0.4782   50.3548   18.8748 C   0  0  0  0  0  0
    0.5206   49.7513   20.1401 C   0  0  0  0  0  0
    1.4840   48.8250   20.4883 O   0  0  0  0  0  0
    2.4633   48.4540   19.5235 C   0  0  0  0  0  0
   -2.5201   52.4968   19.2455 O   0  0  0  0  0  0
   -2.5065   53.2241   18.0150 C   0  0  0  0  0  0
   -0.8961   46.7667   21.8714 H   0  0  0  0  0  0
   -2.6309   46.7361   22.0664 H   0  0  0  0  0  0
   -1.9132   47.7503   20.8360 H   0  0  0  0  0  0
   -1.0389   51.2706   23.4487 H   0  0  0  0  0  0
   -1.7972   46.4719   26.5866 H   0  0  0  0  0  0
   -3.6913   45.1335   27.3832 H   0  0  0  0  0  0
   -6.1140   46.6073   24.1728 H   0  0  0  0  0  0
   -4.2450   47.9406   23.3429 H   0  0  0  0  0  0
   -0.2459   47.1954   25.4142 H   0  0  0  0  0  0
   -2.9570   50.6909   24.4439 H   0  0  0  0  0  0
   -3.5470   49.7198   25.7846 H   0  0  0  0  0  0
   -2.5345   51.1029   26.0939 H   0  0  0  0  0  0
   -0.7650   50.4993   27.6372 H   0  0  0  0  0  0
    1.4613   54.0510   28.4138 H   0  0  0  0  0  0
    2.2545   54.0884   26.1411 H   0  0  0  0  0  0
    2.7105   53.1868   22.6600 H   0  0  0  0  0  0
    1.9925   54.3391   23.7807 H   0  0  0  0  0  0
    3.4168   53.3827   24.2587 H   0  0  0  0  0  0
   -0.4379   52.8965   31.3507 H   0  0  0  0  0  0
    1.1523   53.1430   30.6303 H   0  0  0  0  0  0
   -0.2381   54.1293   30.1104 H   0  0  0  0  0  0
   -2.2299   51.2613   21.4672 H   0  0  0  0  0  0
   -0.5002   51.7000   17.5617 H   0  0  0  0  0  0
    1.2119   50.1314   18.1147 H   0  0  0  0  0  0
    3.1025   47.6967   19.9639 H   0  0  0  0  0  0
    2.0142   48.0192   18.6282 H   0  0  0  0  0  0
    3.0987   49.2947   19.2382 H   0  0  0  0  0  0
   -3.2943   53.9728   18.0135 H   0  0  0  0  0  0
   -1.5676   53.7615   17.8715 H   0  0  0  0  0  0
   -2.6753   52.5659   17.1619 H   0  0  0  0  0  0
    0.5498   51.1606   23.2993 H   0  0  0  0  0  0
  1  2  1  0  0  0
  1 41  1  0  0  0
  1 42  1  0  0  0
  1 43  1  0  0  0
  2  3  1  0  0  0
  2 11  1  0  0  0
  2  4  1  0  0  0
  4  5  1  0  0  0
  4  6  1  0  0  0
  4 31  1  0  0  0
  6  7  1  0  0  0
  6 44  1  0  0  0
  6 71  1  0  0  0
  7  8  1  0  0  0
  7  9  1  0  0  0
  7 21  1  0  0  0
  9 10  1  0  0  0
  9 11  1  0  0  0
  9 20  1  0  0  0
 11 12  1  0  0  0
 11 19  1  0  0  0
 12 17  2  0  0  0
 12 13  1  0  0  0
 13 14  2  0  0  0
 13 45  1  0  0  0
 14 15  1  0  0  0
 14 46  1  0  0  0
 15 16  2  0  0  0
 15 18  1  0  0  0
 16 17  1  0  0  0
 16 47  1  0  0  0
 17 48  1  0  0  0
 19 49  1  0  0  0
 20 50  1  0  0  0
 20 51  1  0  0  0
 20 52  1  0  0  0
 21 26  2  0  0  0
 21 22  1  0  0  0
 22 23  2  0  0  0
 22 53  1  0  0  0
 23 24  1  0  0  0
 23 29  1  0  0  0
 24 25  2  0  0  0
 24 54  1  0  0  0
 25 26  1  0  0  0
 25 55  1  0  0  0
 26 27  1  0  0  0
 27 28  1  0  0  0
 28 56  1  0  0  0
 28 57  1  0  0  0
 28 58  1  0  0  0
 29 30  1  0  0  0
 30 59  1  0  0  0
 30 60  1  0  0  0
 30 61  1  0  0  0
 31 36  2  0  0  0
 31 32  1  0  0  0
 32 33  2  0  0  0
 32 62  1  0  0  0
 33 34  1  0  0  0
 33 39  1  0  0  0
 34 35  2  0  0  0
 34 63  1  0  0  0
 35 36  1  0  0  0
 35 64  1  0  0  0
 36 37  1  0  0  0
 37 38  1  0  0  0
 38 65  1  0  0  0
 38 66  1  0  0  0
 38 67  1  0  0  0
 39 40  1  0  0  0
 40 68  1  0  0  0
 40 69  1  0  0  0
 40 70  1  0  0  0
M  CHG  1   6   1
M  END
> <i_i_glide_confnum>
7

> <i_i_glide_lignum>
5013

> <i_i_glide_posenum>
162

> <i_i_glide_rotatable_bonds>
8

> <i_m_Source_File_Index>
2996

> <b_m_subgroup_collapsed>
0

> <r_i_docking_score>
-4.1974

> <r_i_glide_ecoul>
-10.0348

> <r_i_glide_eff_state_penalty>
0

> <r_i_glide_einternal>
9.46771

> <r_i_glide_emodel>
-47.4766

> <r_i_glide_energy>
-40.8676

> <r_i_glide_erotb>
0.248092

> <r_i_glide_esite>
-0.00173141

> <r_i_glide_evdw>
-30.8328

> <r_i_glide_gscore>
-4.1974

> <r_i_glide_hbond>
-0.676601

> <r_i_glide_ligand_efficiency>
-0.116595

> <r_i_glide_ligand_efficiency_ln>
-0.91576

> <r_i_glide_ligand_efficiency_sa>
-0.384987

> <r_i_glide_lipo>
-0.697313

> <r_i_glide_metal>
0

> <r_i_glide_rewards>
-0.0229849

> <s_i_glide_gridfile>
wee1_glide-grid

> <s_m_Source_File>
wee1_decoys_glide_SP.sdf

> <s_m_Source_Path>
/Users/zhangxujun/Desktop

> <s_m_entry_id>
3271

> <s_m_entry_name>
wee1_decoys_glide_SP.2996

> <s_m_subgroup_title>
wee1_decoys_glide_SP

> <s_m_subgroupid>
wee1_decoys_glide_SP


$$$$
