ZINC33960366_3775
                    3D
 Schrodinger Suite 2024-2.
 49 51  0  0  1  0            999 V2000
    2.5482   51.4871   20.0006 C   0  0  0  0  0  0
    2.1032   51.5638   21.4558 C   0  0  0  0  0  0
    2.0623   52.8118   22.0809 C   0  0  0  0  0  0
    1.6909   52.9286   23.4174 C   0  0  0  0  0  0
    1.3561   51.7945   24.1588 C   0  0  0  0  0  0
    1.3822   50.5379   23.5333 C   0  0  0  0  0  0
    1.7556   50.4164   22.1892 C   0  0  0  0  0  0
    1.7682   49.0282   21.5688 C   0  0  0  0  0  0
    1.1042   52.0091   25.5253 N   0  0  0  0  0  0
    0.7044   51.1606   26.4981 C   0  0  0  0  0  0
    0.3194   50.0130   26.2858 O   0  0  0  0  0  0
    0.7790   51.6963   27.9654 C   0  0  2  0  0  0
   -0.3221   51.0745   28.8832 C   0  0  0  0  0  0
   -0.3369   52.0150   30.1060 C   0  0  0  0  0  0
    0.7142   53.0748   29.7370 C   0  0  2  0  0  0
    0.5302   53.2008   28.1940 C   0  0  0  0  0  0
   -0.8953   53.4877   27.6730 C   0  0  0  0  0  0
    1.5158   54.2537   27.5755 C   0  0  0  0  0  0
    2.0922   52.3643   29.8665 C   0  0  0  0  0  0
    2.9397   52.4972   30.8049 N   0  0  0  0  0  0
    4.1489   51.8302   30.5633 O   0  0  0  0  0  0
    2.1615   51.4771   28.6088 C   0  0  0  0  0  0
    0.5451   54.3720   30.5653 C   0  0  0  0  0  0
    1.7235   51.1637   19.3647 H   0  0  0  0  0  0
    2.9160   52.4445   19.6288 H   0  0  0  0  0  0
    3.3577   50.7644   19.8857 H   0  0  0  0  0  0
    2.3326   53.6972   21.5281 H   0  0  0  0  0  0
    1.6901   53.9082   23.8736 H   0  0  0  0  0  0
    1.1531   49.6373   24.0827 H   0  0  0  0  0  0
    2.6330   48.4653   21.9213 H   0  0  0  0  0  0
    0.8653   48.4968   21.8681 H   0  0  0  0  0  0
    1.7676   49.0384   20.4791 H   0  0  0  0  0  0
    1.3044   52.9447   25.8373 H   0  0  0  0  0  0
   -0.0953   50.0968   29.1574 H   0  0  0  0  0  0
   -1.3015   50.9221   28.4308 H   0  0  0  0  0  0
   -0.1581   51.5431   31.0714 H   0  0  0  0  0  0
   -1.2956   52.4935   30.1961 H   0  0  0  0  0  0
   -0.8896   53.2967   26.6016 H   0  0  0  0  0  0
   -1.6832   52.7638   27.8240 H   0  0  0  0  0  0
   -1.2425   54.4967   27.8392 H   0  0  0  0  0  0
    1.5045   54.2851   26.4904 H   0  0  0  0  0  0
    1.2473   55.2577   27.9056 H   0  0  0  0  0  0
    2.5564   54.1079   27.8630 H   0  0  0  0  0  0
    4.0674   51.5594   29.6454 H   0  0  0  0  0  0
    2.9770   51.7933   27.9583 H   0  0  0  0  0  0
    2.3047   50.4324   28.8706 H   0  0  0  0  0  0
   -0.4455   54.8052   30.4358 H   0  0  0  0  0  0
    0.6643   54.1742   31.6318 H   0  0  0  0  0  0
    1.2792   55.1307   30.2936 H   0  0  0  0  0  0
  1  2  1  0  0  0
  1 24  1  0  0  0
  1 25  1  0  0  0
  1 26  1  0  0  0
  2  7  2  0  0  0
  2  3  1  0  0  0
  3  4  2  0  0  0
  3 27  1  0  0  0
  4  5  1  0  0  0
  4 28  1  0  0  0
  5  6  2  0  0  0
  5  9  1  0  0  0
  6  7  1  0  0  0
  6 29  1  0  0  0
  7  8  1  0  0  0
  8 30  1  0  0  0
  8 31  1  0  0  0
  8 32  1  0  0  0
  9 10  1  0  0  0
  9 33  1  0  0  0
 10 11  2  0  0  0
 10 12  1  0  0  0
 12 16  1  0  0  0
 12 22  1  0  0  0
 12 13  1  0  0  0
 13 14  1  0  0  0
 13 34  1  0  0  0
 13 35  1  0  0  0
 14 15  1  0  0  0
 14 36  1  0  0  0
 14 37  1  0  0  0
 15 16  1  0  0  0
 15 19  1  0  0  0
 15 23  1  0  0  0
 16 17  1  0  0  0
 16 18  1  0  0  0
 17 38  1  0  0  0
 17 39  1  0  0  0
 17 40  1  0  0  0
 18 41  1  0  0  0
 18 42  1  0  0  0
 18 43  1  0  0  0
 19 20  2  0  0  0
 19 22  1  0  0  0
 20 21  1  0  0  0
 21 44  1  0  0  0
 22 45  1  0  0  0
 22 46  1  0  0  0
 23 47  1  0  0  0
 23 48  1  0  0  0
 23 49  1  0  0  0
M  END
> <i_i_glide_confnum>
29

> <i_i_glide_lignum>
3776

> <i_i_glide_posenum>
285

> <i_i_glide_rotatable_bonds>
4

> <i_m_Source_File_Index>
675

> <b_m_subgroup_collapsed>
0

> <r_i_docking_score>
-2.45491

> <r_i_glide_ecoul>
-1.08929

> <r_i_glide_eff_state_penalty>
0

> <r_i_glide_einternal>
1.49324

> <r_i_glide_emodel>
-4.79304

> <r_i_glide_energy>
-1.59714

> <r_i_glide_erotb>
0.752091

> <r_i_glide_esite>
-0.0343052

> <r_i_glide_evdw>
-0.507851

> <r_i_glide_gscore>
-2.45491

> <r_i_glide_hbond>
0

> <r_i_glide_ligand_efficiency>
-0.106735

> <r_i_glide_ligand_efficiency_ln>
-0.59362

> <r_i_glide_ligand_efficiency_sa>
-0.303541

> <r_i_glide_lipo>
-1.67461

> <r_i_glide_metal>
0

> <r_i_glide_rewards>
-1.3093

> <s_i_glide_gridfile>
wee1_glide-grid

> <s_m_Source_File>
wee1_decoys_glide_SP.sdf

> <s_m_Source_Path>
/Users/zhangxujun/Desktop

> <s_m_entry_id>
950

> <s_m_entry_name>
wee1_decoys_glide_SP.675

> <s_m_subgroup_title>
wee1_decoys_glide_SP

> <s_m_subgroupid>
wee1_decoys_glide_SP


$$$$
