ZINC53619969_1347
                    3D
 Schrodinger Suite 2024-2.
 48 50  0  0  1  0            999 V2000
   11.1657   60.4301   17.6481 C   0  0  0  0  0  0
   10.0770   59.4113   17.9210 C   0  0  0  0  0  0
   10.4199   58.0983   18.2458 C   0  0  0  0  0  0
    9.4232   57.1541   18.4784 C   0  0  0  0  0  0
    8.0690   57.5125   18.3775 C   0  0  0  0  0  0
    7.7339   58.8368   18.0515 C   0  0  0  0  0  0
    8.7335   59.7761   17.8191 C   0  0  0  0  0  0
    7.0237   56.5264   18.6268 C   0  0  0  0  0  0
    7.1772   55.3257   19.1826 N   0  3  0  0  0  0
    5.9012   54.6221   19.2774 C   0  0  2  0  0  0
    5.9300   53.7047   18.6825 H   0  0  0  0  0  0
    4.9982   55.5471   18.7293 O   0  0  0  0  0  0
    5.7262   56.6494   18.3568 N   0  0  0  0  0  0
    5.5008   54.3044   20.7091 C   0  0  0  0  0  0
    4.5421   53.4819   24.9738 H   0  0  0  0  0  0
    4.4553   53.4911   21.1737 C   0  0  0  0  0  0
    4.3130   53.3932   22.4845 N   0  0  0  0  0  0
    5.1987   54.0882   23.1453 C   0  0  0  0  0  0
    5.2091   54.0976   24.5353 N   0  0  0  0  0  0
    5.9819   54.8341   25.3668 C   0  0  0  0  0  0
    6.7776   55.6964   25.0006 O   0  0  0  0  0  0
    5.8733   54.5614   26.8789 C   0  0  0  0  0  0
    4.6726   53.7134   27.3894 C   0  0  0  0  0  0
    4.8474   53.3906   28.8799 C   0  0  0  0  0  0
    3.2972   54.3732   27.1480 C   0  0  0  0  0  0
    6.3412   54.9061   22.1235 S   0  0  0  0  0  0
    3.4687   52.7041   20.3357 C   0  0  0  0  0  0
   12.0000   59.9654   17.1191 H   0  0  0  0  0  0
   10.8088   61.2396   17.0088 H   0  0  0  0  0  0
   11.5469   60.8461   18.5801 H   0  0  0  0  0  0
   11.4571   57.7997   18.3211 H   0  0  0  0  0  0
    9.7293   56.1454   18.7230 H   0  0  0  0  0  0
    6.7057   59.1637   17.9657 H   0  0  0  0  0  0
    8.4418   60.7840   17.5531 H   0  0  0  0  0  0
    5.1276   57.3467   17.9396 H   0  0  0  0  0  0
    5.8680   55.5235   27.3922 H   0  0  0  0  0  0
    6.8087   54.0880   27.1851 H   0  0  0  0  0  0
    4.6924   52.7516   26.8746 H   0  0  0  0  0  0
    4.8220   54.2902   29.4949 H   0  0  0  0  0  0
    5.8003   52.8969   29.0533 H   0  0  0  0  0  0
    4.0655   52.7195   29.2393 H   0  0  0  0  0  0
    3.2044   55.3015   27.7099 H   0  0  0  0  0  0
    3.1226   54.6031   26.0973 H   0  0  0  0  0  0
    2.4848   53.7205   27.4738 H   0  0  0  0  0  0
    3.9140   51.7800   19.9598 H   0  0  0  0  0  0
    2.5597   52.4304   20.8723 H   0  0  0  0  0  0
    3.1503   53.2766   19.4632 H   0  0  0  0  0  0
    8.0575   54.9319   19.4764 H   0  0  0  0  0  0
  1  2  1  0  0  0
  1 28  1  0  0  0
  1 29  1  0  0  0
  1 30  1  0  0  0
  2  7  2  0  0  0
  2  3  1  0  0  0
  3  4  2  0  0  0
  3 31  1  0  0  0
  4  5  1  0  0  0
  4 32  1  0  0  0
  5  6  2  0  0  0
  5  8  1  0  0  0
  6  7  1  0  0  0
  6 33  1  0  0  0
  7 34  1  0  0  0
  8 13  1  0  0  0
  8  9  2  0  0  0
  9 10  1  0  0  0
  9 48  1  0  0  0
 10 11  1  0  0  0
 10 12  1  0  0  0
 10 14  1  0  0  0
 12 13  1  0  0  0
 13 35  1  0  0  0
 14 16  2  0  0  0
 14 26  1  0  0  0
 15 19  1  0  0  0
 16 17  1  0  0  0
 16 27  1  0  0  0
 17 18  2  0  0  0
 18 26  1  0  0  0
 18 19  1  0  0  0
 19 20  1  0  0  0
 20 22  1  0  0  0
 20 21  2  0  0  0
 22 23  1  0  0  0
 22 36  1  0  0  0
 22 37  1  0  0  0
 23 24  1  0  0  0
 23 25  1  0  0  0
 23 38  1  0  0  0
 24 39  1  0  0  0
 24 40  1  0  0  0
 24 41  1  0  0  0
 25 42  1  0  0  0
 25 43  1  0  0  0
 25 44  1  0  0  0
 27 45  1  0  0  0
 27 46  1  0  0  0
 27 47  1  0  0  0
M  CHG  1   9   1
M  END
> <i_i_glide_confnum>
2

> <i_i_glide_lignum>
1348

> <i_i_glide_posenum>
85

> <i_i_glide_rotatable_bonds>
6

> <i_m_Source_File_Index>
5687

> <b_m_subgroup_collapsed>
0

> <r_i_docking_score>
-4.99478

> <r_i_glide_ecoul>
-4.00629

> <r_i_glide_eff_state_penalty>
0

> <r_i_glide_einternal>
2.2368

> <r_i_glide_emodel>
-53.1952

> <r_i_glide_energy>
-38.2895

> <r_i_glide_erotb>
0.741691

> <r_i_glide_esite>
0

> <r_i_glide_evdw>
-34.2832

> <r_i_glide_gscore>
-4.99478

> <r_i_glide_hbond>
-0.201743

> <r_i_glide_ligand_efficiency>
-0.199791

> <r_i_glide_ligand_efficiency_ln>
-1.18391

> <r_i_glide_ligand_efficiency_sa>
-0.584193

> <r_i_glide_lipo>
-1.75587

> <r_i_glide_metal>
0

> <r_i_glide_rewards>
-1.46375

> <s_i_glide_gridfile>
wee1_glide-grid

> <s_m_Source_File>
wee1_decoys_glide_SP.sdf

> <s_m_Source_Path>
/Users/zhangxujun/Desktop

> <s_m_entry_id>
5962

> <s_m_entry_name>
wee1_decoys_glide_SP.5687

> <s_m_subgroup_title>
wee1_decoys_glide_SP

> <s_m_subgroupid>
wee1_decoys_glide_SP


$$$$
