ZINC63513888_3500
                    3D
 Schrodinger Suite 2024-2.
 60 63  0  0  1  0            999 V2000
    2.2807   50.7705   19.7719 C   0  0  0  0  0  0
    2.4418   52.2676   19.4418 C   0  0  1  0  0  0
    1.5457   52.6611   18.9593 H   0  0  0  0  0  0
    2.8602   53.1169   20.6301 C   0  0  0  0  0  0
    4.0415   53.6875   20.3320 C   0  0  0  0  0  0
    4.9017   54.5841   21.1184 C   0  0  0  0  0  0
    6.0785   55.0187   20.6243 C   0  0  0  0  0  0
    6.4643   54.5751   19.2901 C   0  0  0  0  0  0
    5.6778   53.7482   18.5511 C   0  0  0  0  0  0
    4.4526   53.2976   19.0583 C   0  0  0  0  0  0
    3.5636   52.4966   18.5188 N   0  3  0  0  0  0
    1.9909   53.2607   21.8629 C   0  0  0  0  0  0
    2.5753   52.5201   23.0661 C   0  0  0  0  0  0
    1.8037   52.6769   24.2917 N   0  0  0  0  0  0
    0.7179   51.9450   24.6216 C   0  0  0  0  0  0
    0.2256   51.1408   23.8245 O   0  0  0  0  0  0
    0.1886   52.1339   25.9807 C   0  0  0  0  0  0
    0.9743   52.6647   26.9614 C   0  0  0  0  0  0
    0.6420   52.8703   28.3850 C   0  0  0  0  0  0
    1.0009   54.0791   28.9921 C   0  0  0  0  0  0
    0.7265   54.2964   30.3404 C   0  0  0  0  0  0
    0.1015   53.2967   31.0805 C   0  0  0  0  0  0
   -0.2722   52.0967   30.4816 C   0  0  0  0  0  0
    0.0046   51.8785   29.1383 C   0  0  0  0  0  0
   -1.0921   51.7190   26.2681 N   0  0  0  0  0  0
   -2.2389   52.0479   25.6257 C   0  0  0  0  0  0
   -2.2827   52.7493   24.6108 O   0  0  0  0  0  0
   -3.5104   51.4690   26.2086 C   0  0  0  0  0  0
   -4.6594   51.3839   25.4096 C   0  0  0  0  0  0
   -5.8397   50.8407   25.9107 C   0  0  0  0  0  0
   -5.8959   50.3817   27.2241 C   0  0  0  0  0  0
   -4.7737   50.4716   28.0581 C   0  0  0  0  0  0
   -3.5857   51.0096   27.5379 C   0  0  0  0  0  0
   -4.8430   50.0131   29.4647 N   0  3  0  0  0  0
   -5.7121   49.2018   29.7708 O   0  0  0  0  0  0
   -4.0549   50.4963   30.2699 O   0  5  0  0  0  0
    1.4571   50.6000   20.4657 H   0  0  0  0  0  0
    2.0751   50.1880   18.8723 H   0  0  0  0  0  0
    3.1843   50.3571   20.2217 H   0  0  0  0  0  0
    4.6181   54.8971   22.1119 H   0  0  0  0  0  0
    6.7241   55.6658   21.2021 H   0  0  0  0  0  0
    7.4090   54.9064   18.8812 H   0  0  0  0  0  0
    6.0168   53.4388   17.5738 H   0  0  0  0  0  0
    0.9850   52.9024   21.6391 H   0  0  0  0  0  0
    1.9067   54.3235   22.0871 H   0  0  0  0  0  0
    3.5802   52.8973   23.2606 H   0  0  0  0  0  0
    2.6929   51.4598   22.8247 H   0  0  0  0  0  0
    2.1430   53.3604   24.9536 H   0  0  0  0  0  0
    1.9888   52.9615   26.7386 H   0  0  0  0  0  0
    1.4920   54.8564   28.4237 H   0  0  0  0  0  0
    0.9974   55.2305   30.8120 H   0  0  0  0  0  0
   -0.1094   53.4480   32.1311 H   0  0  0  0  0  0
   -0.7730   51.3312   31.0614 H   0  0  0  0  0  0
   -0.2569   50.9242   28.7041 H   0  0  0  0  0  0
   -1.2230   51.3597   27.1991 H   0  0  0  0  0  0
   -4.6442   51.7277   24.3829 H   0  0  0  0  0  0
   -6.7129   50.7755   25.2775 H   0  0  0  0  0  0
   -6.8219   49.9672   27.5968 H   0  0  0  0  0  0
   -2.7260   51.0517   28.1919 H   0  0  0  0  0  0
    3.6731   52.0203   17.6263 H   0  0  0  0  0  0
  1  2  1  0  0  0
  1 37  1  0  0  0
  1 38  1  0  0  0
  1 39  1  0  0  0
  2  3  1  0  0  0
  2 11  1  0  0  0
  2  4  1  0  0  0
  4  5  2  0  0  0
  4 12  1  0  0  0
  5 10  1  0  0  0
  5  6  1  0  0  0
  6  7  2  0  0  0
  6 40  1  0  0  0
  7  8  1  0  0  0
  7 41  1  0  0  0
  8  9  2  0  0  0
  8 42  1  0  0  0
  9 10  1  0  0  0
  9 43  1  0  0  0
 10 11  2  0  0  0
 11 60  1  0  0  0
 12 13  1  0  0  0
 12 44  1  0  0  0
 12 45  1  0  0  0
 13 14  1  0  0  0
 13 46  1  0  0  0
 13 47  1  0  0  0
 14 15  1  0  0  0
 14 48  1  0  0  0
 15 16  2  0  0  0
 15 17  1  0  0  0
 17 18  2  0  0  0
 17 25  1  0  0  0
 18 19  1  0  0  0
 18 49  1  0  0  0
 19 24  2  0  0  0
 19 20  1  0  0  0
 20 21  2  0  0  0
 20 50  1  0  0  0
 21 22  1  0  0  0
 21 51  1  0  0  0
 22 23  2  0  0  0
 22 52  1  0  0  0
 23 24  1  0  0  0
 23 53  1  0  0  0
 24 54  1  0  0  0
 25 26  1  0  0  0
 25 55  1  0  0  0
 26 27  2  0  0  0
 26 28  1  0  0  0
 28 33  2  0  0  0
 28 29  1  0  0  0
 29 30  2  0  0  0
 29 56  1  0  0  0
 30 31  1  0  0  0
 30 57  1  0  0  0
 31 32  2  0  0  0
 31 58  1  0  0  0
 32 33  1  0  0  0
 32 34  1  0  0  0
 33 59  1  0  0  0
 34 35  2  0  0  0
 34 36  1  0  0  0
M  CHG  3  11   1  34   1  36  -1
M  END
> <i_i_glide_confnum>
101

> <i_i_glide_lignum>
3501

> <i_i_glide_posenum>
241

> <i_i_glide_rotatable_bonds>
10

> <i_m_Source_File_Index>
3880

> <b_m_subgroup_collapsed>
0

> <r_i_docking_score>
-3.07607

> <r_i_glide_ecoul>
-2.20397

> <r_i_glide_eff_state_penalty>
0

> <r_i_glide_einternal>
9.19654

> <r_i_glide_emodel>
-43.4171

> <r_i_glide_energy>
-37.6638

> <r_i_glide_erotb>
0.733005

> <r_i_glide_esite>
-0.299426

> <r_i_glide_evdw>
-35.4598

> <r_i_glide_gscore>
-3.07607

> <r_i_glide_hbond>
-1.20677e-05

> <r_i_glide_ligand_efficiency>
-0.0878878

> <r_i_glide_ligand_efficiency_ln>
-0.675267

> <r_i_glide_ligand_efficiency_sa>
-0.287487

> <r_i_glide_lipo>
-1.08694

> <r_i_glide_metal>
0

> <r_i_glide_rewards>
-0.319113

> <s_i_glide_gridfile>
wee1_glide-grid

> <s_m_Source_File>
wee1_decoys_glide_SP.sdf

> <s_m_Source_Path>
/Users/zhangxujun/Desktop

> <s_m_entry_id>
4155

> <s_m_entry_name>
wee1_decoys_glide_SP.3880

> <s_m_subgroup_title>
wee1_decoys_glide_SP

> <s_m_subgroupid>
wee1_decoys_glide_SP


$$$$
