ZINC01897584_5772
                    3D
 Schrodinger Suite 2024-2.
 73 78  0  0  1  0            999 V2000
   -3.0461   49.2731   23.9965 C   0  0  0  0  0  0
   -3.5892   50.4115   23.0938 C   0  0  0  0  0  0
   -2.6258   50.6448   21.8964 C   0  0  0  0  0  0
   -1.3277   51.3174   22.3443 C   0  0  0  0  0  0
   -1.1747   52.0893   23.4516 C   0  0  0  0  0  0
    0.2163   52.6805   23.8401 C   0  0  2  0  0  0
    0.0922   53.7665   23.8611 H   0  0  0  0  0  0
    1.2486   52.3765   22.7279 C   0  0  0  0  0  0
    2.5759   52.8810   22.6984 C   0  0  0  0  0  0
    3.2950   53.6960   23.5087 N   0  0  0  0  0  0
    4.4950   53.6969   22.9509 C   0  0  0  0  0  0
    4.6436   53.0195   21.8275 N   0  0  0  0  0  0
    3.4208   52.4995   21.6496 N   0  0  0  0  0  0
    3.0046   51.6937   20.6303 C   0  0  0  0  0  0
    1.7377   51.2225   20.6063 N   0  0  0  0  0  0
    0.9060   51.5654   21.6241 C   0  0  0  0  0  0
   -0.3477   51.0374   21.4564 O   0  0  0  0  0  0
    5.6561   54.3973   23.6487 C   0  0  0  0  0  0
    6.8068   54.5806   22.8225 O   0  0  0  0  0  0
    6.5352   55.4587   21.7499 N   0  0  0  0  0  0
    7.5391   55.4648   20.9781 C   0  0  0  0  0  0
    7.6229   56.1884   19.7093 C   0  0  0  0  0  0
    8.7260   55.9566   18.8843 C   0  0  0  0  0  0
    8.8638   56.6330   17.6788 C   0  0  0  0  0  0
    7.9170   57.5733   17.2850 C   0  0  0  0  0  0
    6.8061   57.8173   18.1072 C   0  0  0  0  0  0
    6.6547   57.1129   19.3007 C   0  0  0  0  0  0
    8.1560   58.2054   16.0830 O   0  0  0  0  0  0
    7.3641   59.3309   15.7292 C   0  0  0  0  0  0
    0.7114   52.3085   25.2596 C   0  0  0  0  0  0
    0.2603   51.1335   25.8715 C   0  0  0  0  0  0
    0.4954   50.8983   27.2177 C   0  0  0  0  0  0
    1.2861   51.7656   27.9623 C   0  0  0  0  0  0
    1.8283   52.9066   27.3634 C   0  0  0  0  0  0
    1.5044   53.1870   26.0206 C   0  0  0  0  0  0
    2.6442   53.6805   28.1651 O   0  0  0  0  0  0
    3.1351   54.9202   27.6881 C   0  0  0  0  0  0
    1.5340   51.4715   29.2808 O   0  0  0  0  0  0
    0.6409   52.0975   30.1988 C   0  0  0  0  0  0
   -2.3381   52.3058   24.3493 C   0  0  0  0  0  0
   -2.2511   52.8966   25.4217 O   0  0  0  0  0  0
   -3.6928   51.7332   23.9049 C   0  0  0  0  0  0
   -4.9941   50.0934   22.5460 C   0  0  0  0  0  0
   -3.0709   48.3166   23.4718 H   0  0  0  0  0  0
   -2.0171   49.4330   24.3099 H   0  0  0  0  0  0
   -3.6494   49.1599   24.8998 H   0  0  0  0  0  0
   -3.0564   51.2939   21.1329 H   0  0  0  0  0  0
   -2.4172   49.6839   21.4227 H   0  0  0  0  0  0
    3.7082   51.4407   19.8477 H   0  0  0  0  0  0
    5.9817   53.7869   24.4916 H   0  0  0  0  0  0
    5.3603   55.3450   24.0905 H   0  0  0  0  0  0
    8.4359   54.8974   21.2186 H   0  0  0  0  0  0
    9.4987   55.2517   19.1671 H   0  0  0  0  0  0
    9.7195   56.4377   17.0507 H   0  0  0  0  0  0
    6.0517   58.5403   17.8316 H   0  0  0  0  0  0
    5.7801   57.2958   19.9080 H   0  0  0  0  0  0
    7.6981   59.7180   14.7679 H   0  0  0  0  0  0
    7.4986   60.1172   16.4691 H   0  0  0  0  0  0
    6.3074   59.0821   15.6399 H   0  0  0  0  0  0
   -0.3474   50.4257   25.3326 H   0  0  0  0  0  0
    0.0318   50.0491   27.6816 H   0  0  0  0  0  0
    1.8439   54.0968   25.5633 H   0  0  0  0  0  0
    3.8947   55.2890   28.3771 H   0  0  0  0  0  0
    3.5990   54.8429   26.7023 H   0  0  0  0  0  0
    2.3321   55.6576   27.6812 H   0  0  0  0  0  0
    0.8620   51.7391   31.2051 H   0  0  0  0  0  0
    0.7514   53.1854   30.1918 H   0  0  0  0  0  0
   -0.4027   51.8534   29.9848 H   0  0  0  0  0  0
   -4.3454   51.6389   24.7726 H   0  0  0  0  0  0
   -4.1333   52.5082   23.2817 H   0  0  0  0  0  0
   -4.9878   49.1848   21.9442 H   0  0  0  0  0  0
   -5.7064   49.9320   23.3580 H   0  0  0  0  0  0
   -5.3942   50.8940   21.9250 H   0  0  0  0  0  0
  1  2  1  0  0  0
  1 44  1  0  0  0
  1 45  1  0  0  0
  1 46  1  0  0  0
  2 42  1  0  0  0
  2  3  1  0  0  0
  2 43  1  0  0  0
  3  4  1  0  0  0
  3 47  1  0  0  0
  3 48  1  0  0  0
  4 17  1  0  0  0
  4  5  2  0  0  0
  5  6  1  0  0  0
  5 40  1  0  0  0
  6  7  1  0  0  0
  6  8  1  0  0  0
  6 30  1  0  0  0
  8 16  2  0  0  0
  8  9  1  0  0  0
  9 13  1  0  0  0
  9 10  2  0  0  0
 10 11  1  0  0  0
 11 12  2  0  0  0
 11 18  1  0  0  0
 12 13  1  0  0  0
 13 14  1  0  0  0
 14 15  2  0  0  0
 14 49  1  0  0  0
 15 16  1  0  0  0
 16 17  1  0  0  0
 18 19  1  0  0  0
 18 50  1  0  0  0
 18 51  1  0  0  0
 19 20  1  0  0  0
 20 21  2  0  0  0
 21 22  1  0  0  0
 21 52  1  0  0  0
 22 27  2  0  0  0
 22 23  1  0  0  0
 23 24  2  0  0  0
 23 53  1  0  0  0
 24 25  1  0  0  0
 24 54  1  0  0  0
 25 26  2  0  0  0
 25 28  1  0  0  0
 26 27  1  0  0  0
 26 55  1  0  0  0
 27 56  1  0  0  0
 28 29  1  0  0  0
 29 57  1  0  0  0
 29 58  1  0  0  0
 29 59  1  0  0  0
 30 35  2  0  0  0
 30 31  1  0  0  0
 31 32  2  0  0  0
 31 60  1  0  0  0
 32 33  1  0  0  0
 32 61  1  0  0  0
 33 34  2  0  0  0
 33 38  1  0  0  0
 34 35  1  0  0  0
 34 36  1  0  0  0
 35 62  1  0  0  0
 36 37  1  0  0  0
 37 63  1  0  0  0
 37 64  1  0  0  0
 37 65  1  0  0  0
 38 39  1  0  0  0
 39 66  1  0  0  0
 39 67  1  0  0  0
 39 68  1  0  0  0
 40 41  2  0  0  0
 40 42  1  0  0  0
 42 69  1  0  0  0
 42 70  1  0  0  0
 43 71  1  0  0  0
 43 72  1  0  0  0
 43 73  1  0  0  0
M  END
> <i_i_glide_confnum>
59

> <i_i_glide_lignum>
5773

> <i_i_glide_posenum>
30

> <i_i_glide_rotatable_bonds>
8

> <i_m_Source_File_Index>
6019

> <b_m_subgroup_collapsed>
0

> <r_i_docking_score>
-4.94182

> <r_i_glide_ecoul>
-4.32807

> <r_i_glide_eff_state_penalty>
0

> <r_i_glide_einternal>
17.042

> <r_i_glide_emodel>
-56.6854

> <r_i_glide_energy>
-50.4983

> <r_i_glide_erotb>
0.231749

> <r_i_glide_esite>
-0.0170676

> <r_i_glide_evdw>
-46.1702

> <r_i_glide_gscore>
-4.94182

> <r_i_glide_hbond>
-0.0244716

> <r_i_glide_ligand_efficiency>
-0.117662

> <r_i_glide_ligand_efficiency_ln>
-1.04309

> <r_i_glide_ligand_efficiency_sa>
-0.408997

> <r_i_glide_lipo>
-1.41129

> <r_i_glide_metal>
0

> <r_i_glide_rewards>
-0.763016

> <s_i_glide_gridfile>
wee1_glide-grid

> <s_m_Source_File>
wee1_decoys_glide_SP.sdf

> <s_m_Source_Path>
/Users/zhangxujun/Desktop

> <s_m_entry_id>
6294

> <s_m_entry_name>
wee1_decoys_glide_SP.6019

> <s_m_subgroup_title>
wee1_decoys_glide_SP

> <s_m_subgroupid>
wee1_decoys_glide_SP


$$$$
