ZINC35337667_4987
                    3D
 Schrodinger Suite 2024-2.
 65 69  0  0  1  0            999 V2000
    0.5299   51.2970   28.6697 C   0  0  0  0  0  0
    0.2403   51.4315   27.1789 C   0  0  0  0  0  0
    0.7468   52.3697   26.3417 C   0  0  0  0  0  0
    0.2484   52.4892   24.8778 C   0  0  2  0  0  0
   -0.2729   53.4458   24.8266 H   0  0  0  0  0  0
   -0.8321   51.4985   24.6116 N   0  0  0  0  0  0
   -1.6794   51.8535   23.4540 C   0  0  0  0  0  0
   -2.2530   50.5862   22.7880 C   0  0  0  0  0  0
   -3.0939   49.6998   23.7172 C   0  0  0  0  0  0
   -2.1053   49.1019   25.1049 S   0  0  0  0  0  0
   -1.1605   50.5070   25.4606 C   0  0  0  0  0  0
   -0.6435   50.4971   26.6916 N   0  3  0  0  0  0
    1.3187   52.5660   23.7768 C   0  0  0  0  0  0
    1.8187   53.8174   23.4118 C   0  0  0  0  0  0
    2.7910   53.9207   22.4266 C   0  0  0  0  0  0
    3.2400   52.7783   21.7474 C   0  0  0  0  0  0
    2.7046   51.5315   22.0811 C   0  0  0  0  0  0
    1.7673   51.4216   23.1101 C   0  0  0  0  0  0
    4.1677   52.8282   20.6867 N   0  0  0  0  0  0
    5.0801   53.7934   20.4206 C   0  0  0  0  0  0
    5.3311   54.7318   21.1779 O   0  0  0  0  0  0
    5.8364   53.6514   19.0794 C   0  0  0  0  0  0
    4.9100   53.7790   17.8527 C   0  0  0  0  0  0
    5.7659   54.4164   16.7419 C   0  0  0  0  0  0
    7.1573   54.6620   17.3434 C   0  0  0  0  0  0
    6.9344   54.7091   18.8532 C   0  0  0  0  0  0
    1.7074   53.3440   26.8452 C   0  0  0  0  0  0
    1.4689   54.0849   27.8009 O   0  0  0  0  0  0
    2.8915   53.2967   26.2084 N   0  0  0  0  0  0
    4.1206   53.8441   26.5923 C   0  0  0  0  0  0
    5.0444   54.0979   25.5769 C   0  0  0  0  0  0
    6.3377   54.4953   25.8967 C   0  0  0  0  0  0
    6.7041   54.6198   27.2350 C   0  0  0  0  0  0
    5.7840   54.3907   28.2507 C   0  0  0  0  0  0
    4.4850   54.0094   27.9360 C   0  0  0  0  0  0
    0.2829   52.2169   29.2027 H   0  0  0  0  0  0
   -0.0554   50.4969   29.1272 H   0  0  0  0  0  0
    1.5866   51.0745   28.8321 H   0  0  0  0  0  0
   -2.4792   52.5004   23.8217 H   0  0  0  0  0  0
   -1.0971   52.4258   22.7286 H   0  0  0  0  0  0
   -2.8649   50.8821   21.9350 H   0  0  0  0  0  0
   -1.4350   49.9964   22.3687 H   0  0  0  0  0  0
   -3.9333   50.2540   24.1373 H   0  0  0  0  0  0
   -3.4992   48.8328   23.1941 H   0  0  0  0  0  0
    1.4730   54.7165   23.9037 H   0  0  0  0  0  0
    3.1463   54.9037   22.1658 H   0  0  0  0  0  0
    3.0252   50.6389   21.5620 H   0  0  0  0  0  0
    1.3810   50.4450   23.3719 H   0  0  0  0  0  0
    4.1369   52.0546   20.0381 H   0  0  0  0  0  0
    6.2799   52.6555   19.1055 H   0  0  0  0  0  0
    4.0475   54.4201   18.0502 H   0  0  0  0  0  0
    4.5251   52.8031   17.5436 H   0  0  0  0  0  0
    5.3189   55.3591   16.4163 H   0  0  0  0  0  0
    5.8264   53.7724   15.8610 H   0  0  0  0  0  0
    7.6140   55.5782   16.9645 H   0  0  0  0  0  0
    7.8250   53.8365   17.0904 H   0  0  0  0  0  0
    7.8497   54.4958   19.4079 H   0  0  0  0  0  0
    6.5987   55.7070   19.1416 H   0  0  0  0  0  0
    2.9003   52.8133   25.3239 H   0  0  0  0  0  0
    4.7779   53.9506   24.5388 H   0  0  0  0  0  0
    7.0581   54.6715   25.1078 H   0  0  0  0  0  0
    7.7133   54.8982   27.5019 H   0  0  0  0  0  0
    6.0888   54.4967   29.2817 H   0  0  0  0  0  0
    3.7957   53.7947   28.7375 H   0  0  0  0  0  0
   -0.9409   49.7398   27.3046 H   0  0  0  0  0  0
  1  2  1  0  0  0
  1 36  1  0  0  0
  1 37  1  0  0  0
  1 38  1  0  0  0
  2 12  1  0  0  0
  2  3  2  0  0  0
  3  4  1  0  0  0
  3 27  1  0  0  0
  4  5  1  0  0  0
  4  6  1  0  0  0
  4 13  1  0  0  0
  6 11  1  0  0  0
  6  7  1  0  0  0
  7  8  1  0  0  0
  7 39  1  0  0  0
  7 40  1  0  0  0
  8  9  1  0  0  0
  8 41  1  0  0  0
  8 42  1  0  0  0
  9 10  1  0  0  0
  9 43  1  0  0  0
  9 44  1  0  0  0
 10 11  1  0  0  0
 11 12  2  0  0  0
 12 65  1  0  0  0
 13 18  2  0  0  0
 13 14  1  0  0  0
 14 15  2  0  0  0
 14 45  1  0  0  0
 15 16  1  0  0  0
 15 46  1  0  0  0
 16 17  2  0  0  0
 16 19  1  0  0  0
 17 18  1  0  0  0
 17 47  1  0  0  0
 18 48  1  0  0  0
 19 20  1  0  0  0
 19 49  1  0  0  0
 20 21  2  0  0  0
 20 22  1  0  0  0
 22 26  1  0  0  0
 22 23  1  0  0  0
 22 50  1  0  0  0
 23 24  1  0  0  0
 23 51  1  0  0  0
 23 52  1  0  0  0
 24 25  1  0  0  0
 24 53  1  0  0  0
 24 54  1  0  0  0
 25 26  1  0  0  0
 25 55  1  0  0  0
 25 56  1  0  0  0
 26 57  1  0  0  0
 26 58  1  0  0  0
 27 28  2  0  0  0
 27 29  1  0  0  0
 29 30  1  0  0  0
 29 59  1  0  0  0
 30 35  2  0  0  0
 30 31  1  0  0  0
 31 32  2  0  0  0
 31 60  1  0  0  0
 32 33  1  0  0  0
 32 61  1  0  0  0
 33 34  2  0  0  0
 33 62  1  0  0  0
 34 35  1  0  0  0
 34 63  1  0  0  0
 35 64  1  0  0  0
M  CHG  1  12   1
M  END
> <i_i_glide_confnum>
43

> <i_i_glide_lignum>
4988

> <i_i_glide_posenum>
357

> <i_i_glide_rotatable_bonds>
7

> <i_m_Source_File_Index>
477

> <b_m_subgroup_collapsed>
0

> <r_i_docking_score>
-4.93942

> <r_i_glide_ecoul>
-1.25786

> <r_i_glide_eff_state_penalty>
0

> <r_i_glide_einternal>
10.7636

> <r_i_glide_emodel>
-55.8315

> <r_i_glide_energy>
-44.2172

> <r_i_glide_erotb>
0.626408

> <r_i_glide_esite>
-0.134217

> <r_i_glide_evdw>
-42.9594

> <r_i_glide_gscore>
-4.93942

> <r_i_glide_hbond>
-0.2

> <r_i_glide_ligand_efficiency>
-0.145277

> <r_i_glide_ligand_efficiency_ln>
-1.09126

> <r_i_glide_ligand_efficiency_sa>
-0.470642

> <r_i_glide_lipo>
-2.46963

> <r_i_glide_metal>
0

> <r_i_glide_rewards>
-0.425337

> <s_i_glide_gridfile>
wee1_glide-grid

> <s_m_Source_File>
wee1_decoys_glide_SP.sdf

> <s_m_Source_Path>
/Users/zhangxujun/Desktop

> <s_m_entry_id>
752

> <s_m_entry_name>
wee1_decoys_glide_SP.477

> <s_m_subgroup_title>
wee1_decoys_glide_SP

> <s_m_subgroupid>
wee1_decoys_glide_SP


$$$$
