ZINC02502491_1481
                    3D
 Schrodinger Suite 2024-2.
 46 49  0  0  1  0            999 V2000
    5.3635   54.2274   23.0313 C   0  0  0  0  0  0
    5.2420   54.4987   24.4240 O   0  0  0  0  0  0
    4.1011   54.1029   25.1021 C   0  0  0  0  0  0
    2.9909   53.5083   24.4825 C   0  0  0  0  0  0
    1.8801   53.0691   25.2167 C   0  0  0  0  0  0
    1.8821   53.3070   26.5979 C   0  0  0  0  0  0
    2.9602   53.9320   27.2449 C   0  0  0  0  0  0
    4.0786   54.3028   26.4875 C   0  0  0  0  0  0
    5.1615   54.8884   27.1030 O   0  0  0  0  0  0
    6.1204   53.9572   27.5895 C   0  0  0  0  0  0
    2.9874   54.2024   28.6032 O   0  0  0  0  0  0
    1.8463   53.8954   29.3994 C   0  0  0  0  0  0
    0.6945   52.3291   24.5377 C   0  0  1  0  0  0
   -0.0296   53.1141   24.3127 H   0  0  0  0  0  0
    1.0788   51.6305   23.2137 C   0  0  0  0  0  0
    1.1667   52.3158   21.9851 C   0  0  0  0  0  0
    1.5973   51.6178   20.8608 C   0  0  0  0  0  0
    1.9026   50.2880   20.9118 C   0  0  0  0  0  0
    1.7703   49.5527   22.0797 C   0  0  0  0  0  0
    1.3317   50.2343   23.2196 C   0  0  0  0  0  0
    1.1051   49.4643   24.3413 O   0  0  0  0  0  0
    0.2986   49.9635   25.3021 C   0  0  0  0  0  0
    0.0026   51.2749   25.4266 C   0  0  0  0  0  0
   -0.9377   51.7062   26.4052 C   0  0  0  0  0  0
   -1.6938   52.0961   27.1853 N   0  0  0  0  0  0
   -0.1163   48.9165   26.0808 N   0  0  0  0  0  0
    2.2780   49.8625   19.6784 O   0  0  0  0  0  0
    2.4426   51.0314   18.9212 C   0  0  0  0  0  0
    1.7663   52.0652   19.5884 O   0  0  0  0  0  0
    6.3309   54.5855   22.6795 H   0  0  0  0  0  0
    5.3162   53.1567   22.8265 H   0  0  0  0  0  0
    4.5925   54.7372   22.4513 H   0  0  0  0  0  0
    3.0162   53.3551   23.4185 H   0  0  0  0  0  0
    1.0310   53.0031   27.1807 H   0  0  0  0  0  0
    6.9619   54.4961   28.0246 H   0  0  0  0  0  0
    5.6986   53.3170   28.3660 H   0  0  0  0  0  0
    6.5094   53.3234   26.7904 H   0  0  0  0  0  0
    2.0228   54.2154   30.4257 H   0  0  0  0  0  0
    0.9561   54.4181   29.0449 H   0  0  0  0  0  0
    1.6485   52.8224   29.4189 H   0  0  0  0  0  0
    0.9527   53.3718   21.9239 H   0  0  0  0  0  0
    1.9829   48.4968   22.1174 H   0  0  0  0  0  0
   -0.7913   49.0256   26.8344 H   0  0  0  0  0  0
    0.3980   48.0434   26.0916 H   0  0  0  0  0  0
    2.0763   50.8932   17.9033 H   0  0  0  0  0  0
    3.5040   51.2783   18.8637 H   0  0  0  0  0  0
  1  2  1  0  0  0
  1 30  1  0  0  0
  1 31  1  0  0  0
  1 32  1  0  0  0
  2  3  1  0  0  0
  3  8  2  0  0  0
  3  4  1  0  0  0
  4  5  2  0  0  0
  4 33  1  0  0  0
  5  6  1  0  0  0
  5 13  1  0  0  0
  6  7  2  0  0  0
  6 34  1  0  0  0
  7  8  1  0  0  0
  7 11  1  0  0  0
  8  9  1  0  0  0
  9 10  1  0  0  0
 10 35  1  0  0  0
 10 36  1  0  0  0
 10 37  1  0  0  0
 11 12  1  0  0  0
 12 38  1  0  0  0
 12 39  1  0  0  0
 12 40  1  0  0  0
 13 14  1  0  0  0
 13 23  1  0  0  0
 13 15  1  0  0  0
 15 20  2  0  0  0
 15 16  1  0  0  0
 16 17  2  0  0  0
 16 41  1  0  0  0
 17 29  1  0  0  0
 17 18  1  0  0  0
 18 19  2  0  0  0
 18 27  1  0  0  0
 19 20  1  0  0  0
 19 42  1  0  0  0
 20 21  1  0  0  0
 21 22  1  0  0  0
 22 23  2  0  0  0
 22 26  1  0  0  0
 23 24  1  0  0  0
 24 25  3  0  0  0
 26 43  1  0  0  0
 26 44  1  0  0  0
 27 28  1  0  0  0
 28 29  1  0  0  0
 28 45  1  0  0  0
 28 46  1  0  0  0
M  END
> <i_i_glide_confnum>
2

> <i_i_glide_lignum>
1482

> <i_i_glide_posenum>
307

> <i_i_glide_rotatable_bonds>
5

> <i_m_Source_File_Index>
3166

> <b_m_subgroup_collapsed>
0

> <r_i_docking_score>
-6.35711

> <r_i_glide_ecoul>
-6.07271

> <r_i_glide_eff_state_penalty>
0

> <r_i_glide_einternal>
9.75883

> <r_i_glide_emodel>
-50.5644

> <r_i_glide_energy>
-40.2352

> <r_i_glide_erotb>
0.132834

> <r_i_glide_esite>
-0.20771

> <r_i_glide_evdw>
-34.1624

> <r_i_glide_gscore>
-6.35711

> <r_i_glide_hbond>
-0.445644

> <r_i_glide_ligand_efficiency>
-0.22704

> <r_i_glide_ligand_efficiency_ln>
-1.46741

> <r_i_glide_ligand_efficiency_sa>
-0.689426

> <r_i_glide_lipo>
-2.41552

> <r_i_glide_metal>
0

> <r_i_glide_rewards>
-0.802045

> <s_i_glide_gridfile>
wee1_glide-grid

> <s_m_Source_File>
wee1_decoys_glide_SP.sdf

> <s_m_Source_Path>
/Users/zhangxujun/Desktop

> <s_m_entry_id>
3441

> <s_m_entry_name>
wee1_decoys_glide_SP.3166

> <s_m_subgroup_title>
wee1_decoys_glide_SP

> <s_m_subgroupid>
wee1_decoys_glide_SP


$$$$
