ZINC13206056_1988
                    3D
 Schrodinger Suite 2024-2.
 65 69  0  0  1  0            999 V2000
    5.9809   53.6527   18.4169 C   0  0  0  0  0  0
    5.3613   53.6775   19.8012 C   0  0  0  0  0  0
    4.2517   52.8801   20.0780 C   0  0  0  0  0  0
    3.6713   52.9116   21.3425 C   0  0  0  0  0  0
    4.2113   53.7205   22.3491 C   0  0  0  0  0  0
    5.3403   54.4965   22.0708 C   0  0  0  0  0  0
    5.8977   54.4971   20.7950 C   0  0  0  0  0  0
    3.5186   53.8179   23.6740 C   0  0  0  0  0  0
    2.2117   53.8396   23.7814 N   0  0  0  0  0  0
    1.9051   53.9968   25.1235 N   0  0  0  0  0  0
    3.0316   54.0796   25.7840 C   0  0  0  0  0  0
    4.1032   53.8963   24.9303 N   0  0  0  0  0  0
    5.5049   53.6980   25.3084 C   0  0  0  0  0  0
    6.2179   54.9637   25.7780 C   0  0  0  0  0  0
    7.1044   54.8072   26.6383 O   0  0  0  0  0  0
    3.1233   54.4536   27.5085 S   0  0  0  0  0  0
    3.2752   52.7763   28.1911 C   0  0  1  0  0  0
    3.5071   52.1005   27.3741 H   0  0  0  0  0  0
    4.4489   52.6967   29.1894 C   0  0  0  0  0  0
    1.9325   52.3239   28.7948 C   0  0  0  0  0  0
    1.7617   52.3903   30.0172 O   0  0  0  0  0  0
    1.0154   51.8763   27.9045 N   0  0  0  0  0  0
   -0.3052   51.6965   28.1156 C   0  0  0  0  0  0
   -0.9288   52.0969   29.0983 O   0  0  0  0  0  0
   -0.8766   51.0486   27.0858 N   0  0  0  0  0  0
   -2.2390   51.2022   26.5470 C   0  0  0  0  0  0
   -3.3877   50.8478   27.5590 C   0  0  0  0  0  0
   -4.7855   50.9807   26.8975 C   0  0  1  0  0  0
   -4.9925   52.4338   26.4068 C   0  0  0  0  0  0
   -3.8935   52.7984   25.3751 C   0  0  1  0  0  0
   -2.4923   52.6539   26.0276 C   0  0  0  0  0  0
   -3.9898   51.8320   24.1690 C   0  0  0  0  0  0
   -3.7864   50.3739   24.6547 C   0  0  2  0  0  0
   -4.8788   50.0128   25.6912 C   0  0  0  0  0  0
   -2.3928   50.2427   25.3244 C   0  0  0  0  0  0
    6.6453   52.7936   18.3093 H   0  0  0  0  0  0
    6.5382   54.5670   18.2083 H   0  0  0  0  0  0
    5.2047   53.5725   17.6549 H   0  0  0  0  0  0
    3.8377   52.2423   19.3106 H   0  0  0  0  0  0
    2.7915   52.3150   21.5332 H   0  0  0  0  0  0
    5.7677   55.1402   22.8249 H   0  0  0  0  0  0
    6.7575   55.1181   20.5871 H   0  0  0  0  0  0
    5.5277   52.9517   26.1007 H   0  0  0  0  0  0
    6.0549   53.2969   24.4602 H   0  0  0  0  0  0
    4.5685   51.6932   29.5950 H   0  0  0  0  0  0
    5.3906   52.9639   28.7078 H   0  0  0  0  0  0
    4.3043   53.3773   30.0300 H   0  0  0  0  0  0
    1.3345   51.7390   26.9590 H   0  0  0  0  0  0
   -0.3089   50.3752   26.5949 H   0  0  0  0  0  0
   -3.2904   49.8304   27.9395 H   0  0  0  0  0  0
   -3.3420   51.4943   28.4351 H   0  0  0  0  0  0
   -5.5571   50.7277   27.6270 H   0  0  0  0  0  0
   -5.9818   52.5413   25.9589 H   0  0  0  0  0  0
   -4.9749   53.1148   27.2558 H   0  0  0  0  0  0
   -4.0363   53.8256   25.0349 H   0  0  0  0  0  0
   -2.3949   53.3651   26.8467 H   0  0  0  0  0  0
   -1.7200   52.9295   25.3062 H   0  0  0  0  0  0
   -4.9605   51.9358   23.6825 H   0  0  0  0  0  0
   -3.2445   52.0895   23.4161 H   0  0  0  0  0  0
   -3.8497   49.6924   23.8051 H   0  0  0  0  0  0
   -4.7578   48.9814   26.0248 H   0  0  0  0  0  0
   -5.8681   50.0710   25.2361 H   0  0  0  0  0  0
   -1.6148   50.4441   24.5854 H   0  0  0  0  0  0
   -2.2364   49.2099   25.6439 H   0  0  0  0  0  0
    5.9038   56.0624   25.2809 O   0  5  0  0  0  0
  1  2  1  0  0  0
  1 36  1  0  0  0
  1 37  1  0  0  0
  1 38  1  0  0  0
  2  7  2  0  0  0
  2  3  1  0  0  0
  3  4  2  0  0  0
  3 39  1  0  0  0
  4  5  1  0  0  0
  4 40  1  0  0  0
  5  6  2  0  0  0
  5  8  1  0  0  0
  6  7  1  0  0  0
  6 41  1  0  0  0
  7 42  1  0  0  0
  8 12  1  0  0  0
  8  9  2  0  0  0
  9 10  1  0  0  0
 10 11  2  0  0  0
 11 12  1  0  0  0
 11 16  1  0  0  0
 12 13  1  0  0  0
 13 14  1  0  0  0
 13 43  1  0  0  0
 13 44  1  0  0  0
 14 15  2  0  0  0
 14 65  1  0  0  0
 16 17  1  0  0  0
 17 18  1  0  0  0
 17 19  1  0  0  0
 17 20  1  0  0  0
 19 45  1  0  0  0
 19 46  1  0  0  0
 19 47  1  0  0  0
 20 21  2  0  0  0
 20 22  1  0  0  0
 22 23  1  0  0  0
 22 48  1  0  0  0
 23 24  2  0  0  0
 23 25  1  0  0  0
 25 26  1  0  0  0
 25 49  1  0  0  0
 26 31  1  0  0  0
 26 35  1  0  0  0
 26 27  1  0  0  0
 27 28  1  0  0  0
 27 50  1  0  0  0
 27 51  1  0  0  0
 28 34  1  0  0  0
 28 29  1  0  0  0
 28 52  1  0  0  0
 29 30  1  0  0  0
 29 53  1  0  0  0
 29 54  1  0  0  0
 30 31  1  0  0  0
 30 32  1  0  0  0
 30 55  1  0  0  0
 31 56  1  0  0  0
 31 57  1  0  0  0
 32 33  1  0  0  0
 32 58  1  0  0  0
 32 59  1  0  0  0
 33 34  1  0  0  0
 33 35  1  0  0  0
 33 60  1  0  0  0
 34 61  1  0  0  0
 34 62  1  0  0  0
 35 63  1  0  0  0
 35 64  1  0  0  0
M  CHG  1  65  -1
M  END
> <i_i_glide_confnum>
106

> <i_i_glide_lignum>
1989

> <i_i_glide_posenum>
379

> <i_i_glide_rotatable_bonds>
10

> <i_m_Source_File_Index>
786

> <b_m_subgroup_collapsed>
0

> <r_i_docking_score>
-5.45693

> <r_i_glide_ecoul>
-6.20332

> <r_i_glide_eff_state_penalty>
0

> <r_i_glide_einternal>
7.85036

> <r_i_glide_emodel>
-57.1635

> <r_i_glide_energy>
-46.6342

> <r_i_glide_erotb>
0.661548

> <r_i_glide_esite>
-0.122863

> <r_i_glide_evdw>
-40.4309

> <r_i_glide_gscore>
-5.45693

> <r_i_glide_hbond>
-0.150018

> <r_i_glide_ligand_efficiency>
-0.155912

> <r_i_glide_ligand_efficiency_ln>
-1.19792

> <r_i_glide_ligand_efficiency_sa>
-0.509999

> <r_i_glide_lipo>
-1.52725

> <r_i_glide_metal>
0

> <r_i_glide_rewards>
-1.3663

> <s_i_glide_gridfile>
wee1_glide-grid

> <s_m_Source_File>
wee1_decoys_glide_SP.sdf

> <s_m_Source_Path>
/Users/zhangxujun/Desktop

> <s_m_entry_id>
1061

> <s_m_entry_name>
wee1_decoys_glide_SP.786

> <s_m_subgroup_title>
wee1_decoys_glide_SP

> <s_m_subgroupid>
wee1_decoys_glide_SP


$$$$
