ZINC11096072_5382
                    3D
 Schrodinger Suite 2024-2.
 65 68  0  0  1  0            999 V2000
    7.7498   56.6242   19.6537 C   0  0  0  0  0  0
    6.9737   55.6257   19.0176 O   0  0  0  0  0  0
    6.1666   54.8010   19.7793 C   0  0  0  0  0  0
    5.9047   55.0200   21.1431 C   0  0  0  0  0  0
    5.0287   54.1904   21.8508 C   0  0  0  0  0  0
    4.3781   53.1298   21.2054 C   0  0  0  0  0  0
    4.6609   52.8958   19.8497 C   0  0  0  0  0  0
    5.5553   53.7022   19.1453 C   0  0  0  0  0  0
    5.7591   53.3664   17.7943 N   0  0  0  0  0  0
    6.9434   53.2184   17.1584 C   0  0  0  0  0  0
    8.0388   53.4334   17.6813 O   0  0  0  0  0  0
    6.8719   52.7708   15.7129 C   0  0  0  0  0  0
    5.7420   52.1132   15.1976 C   0  0  0  0  0  0
    5.7110   51.6908   13.8707 C   0  0  0  0  0  0
    6.8088   51.9235   13.0483 C   0  0  0  0  0  0
    7.9366   52.5720   13.5393 C   0  0  0  0  0  0
    7.9699   52.9905   14.8667 C   0  0  0  0  0  0
    3.4925   52.3652   21.9454 O   0  0  0  0  0  0
    2.8711   51.2325   21.3448 C   0  0  0  0  0  0
    4.7218   54.4669   23.1902 N   0  0  0  0  0  0
    5.5759   54.4062   24.2352 C   0  0  0  0  0  0
    6.7802   54.1750   24.1015 O   0  0  0  0  0  0
    4.9960   54.6947   25.6474 C   0  0  0  0  0  0
    3.5030   54.2828   25.7694 C   0  0  0  0  0  0
    2.9763   54.5365   27.2001 C   0  0  0  0  0  0
    3.8149   53.7630   28.1352 N   0  0  0  0  0  0
    5.2379   54.1732   28.1664 C   0  0  0  0  0  0
    5.8260   53.9734   26.7470 C   0  0  0  0  0  0
    3.3165   52.8830   29.0522 C   0  0  0  0  0  0
    3.9984   52.4124   29.9674 O   0  0  0  0  0  0
    1.8657   52.4623   28.9753 C   0  0  0  0  0  0
    1.3059   51.9890   27.7792 C   0  0  0  0  0  0
   -0.0345   51.6173   27.7262 C   0  0  0  0  0  0
   -0.8184   51.6991   28.8723 C   0  0  0  0  0  0
   -0.2649   52.1205   30.0790 C   0  0  0  0  0  0
    1.0744   52.4969   30.1334 C   0  0  0  0  0  0
   -2.4921   51.2949   28.7988 Cl  0  0  0  0  0  0
    8.3930   57.1059   18.9150 H   0  0  0  0  0  0
    7.1046   57.3916   20.0811 H   0  0  0  0  0  0
    8.3933   56.2037   20.4294 H   0  0  0  0  0  0
    6.3585   55.8485   21.6656 H   0  0  0  0  0  0
    4.1939   52.0742   19.3259 H   0  0  0  0  0  0
    4.9474   53.0286   17.3013 H   0  0  0  0  0  0
    4.8821   51.8938   15.8171 H   0  0  0  0  0  0
    4.8439   51.1743   13.4886 H   0  0  0  0  0  0
    6.7873   51.5889   12.0203 H   0  0  0  0  0  0
    8.7873   52.7464   12.8952 H   0  0  0  0  0  0
    8.8561   53.4893   15.2336 H   0  0  0  0  0  0
    2.2319   50.7429   22.0782 H   0  0  0  0  0  0
    2.2445   51.5189   20.4988 H   0  0  0  0  0  0
    3.6107   50.5024   21.0109 H   0  0  0  0  0  0
    3.7380   54.5679   23.3929 H   0  0  0  0  0  0
    5.1074   55.7708   25.7705 H   0  0  0  0  0  0
    2.8745   54.8841   25.1128 H   0  0  0  0  0  0
    3.3616   53.2176   25.5666 H   0  0  0  0  0  0
    3.1035   55.5877   27.4550 H   0  0  0  0  0  0
    1.9050   54.3606   27.2917 H   0  0  0  0  0  0
    5.2887   55.2263   28.4490 H   0  0  0  0  0  0
    5.8275   53.5992   28.8838 H   0  0  0  0  0  0
    5.8289   52.8965   26.5836 H   0  0  0  0  0  0
    6.8472   54.3562   26.7854 H   0  0  0  0  0  0
    1.9046   51.9138   26.8819 H   0  0  0  0  0  0
   -0.4668   51.2595   26.8030 H   0  0  0  0  0  0
   -0.8729   52.1516   30.9714 H   0  0  0  0  0  0
    1.4881   52.8232   31.0757 H   0  0  0  0  0  0
  1  2  1  0  0  0
  1 38  1  0  0  0
  1 39  1  0  0  0
  1 40  1  0  0  0
  2  3  1  0  0  0
  3  8  2  0  0  0
  3  4  1  0  0  0
  4  5  2  0  0  0
  4 41  1  0  0  0
  5  6  1  0  0  0
  5 20  1  0  0  0
  6  7  2  0  0  0
  6 18  1  0  0  0
  7  8  1  0  0  0
  7 42  1  0  0  0
  8  9  1  0  0  0
  9 10  1  0  0  0
  9 43  1  0  0  0
 10 11  2  0  0  0
 10 12  1  0  0  0
 12 17  2  0  0  0
 12 13  1  0  0  0
 13 14  2  0  0  0
 13 44  1  0  0  0
 14 15  1  0  0  0
 14 45  1  0  0  0
 15 16  2  0  0  0
 15 46  1  0  0  0
 16 17  1  0  0  0
 16 47  1  0  0  0
 17 48  1  0  0  0
 18 19  1  0  0  0
 19 49  1  0  0  0
 19 50  1  0  0  0
 19 51  1  0  0  0
 20 21  1  0  0  0
 20 52  1  0  0  0
 21 22  2  0  0  0
 21 23  1  0  0  0
 23 28  1  0  0  0
 23 24  1  0  0  0
 23 53  1  0  0  0
 24 25  1  0  0  0
 24 54  1  0  0  0
 24 55  1  0  0  0
 25 26  1  0  0  0
 25 56  1  0  0  0
 25 57  1  0  0  0
 26 27  1  0  0  0
 26 29  1  0  0  0
 27 28  1  0  0  0
 27 58  1  0  0  0
 27 59  1  0  0  0
 28 60  1  0  0  0
 28 61  1  0  0  0
 29 30  2  0  0  0
 29 31  1  0  0  0
 31 36  2  0  0  0
 31 32  1  0  0  0
 32 33  2  0  0  0
 32 62  1  0  0  0
 33 34  1  0  0  0
 33 63  1  0  0  0
 34 35  2  0  0  0
 34 37  1  0  0  0
 35 36  1  0  0  0
 35 64  1  0  0  0
 36 65  1  0  0  0
M  END
> <i_i_glide_confnum>
64

> <i_i_glide_lignum>
5383

> <i_i_glide_posenum>
363

> <i_i_glide_rotatable_bonds>
10

> <i_m_Source_File_Index>
3444

> <b_m_subgroup_collapsed>
0

> <r_i_docking_score>
-5.62446

> <r_i_glide_ecoul>
-2.27164

> <r_i_glide_eff_state_penalty>
0

> <r_i_glide_einternal>
10.4866

> <r_i_glide_emodel>
-64.1599

> <r_i_glide_energy>
-50.8531

> <r_i_glide_erotb>
0.603681

> <r_i_glide_esite>
-0.108204

> <r_i_glide_evdw>
-48.5815

> <r_i_glide_gscore>
-5.62446

> <r_i_glide_hbond>
0

> <r_i_glide_ligand_efficiency>
-0.152012

> <r_i_glide_ligand_efficiency_ln>
-1.21981

> <r_i_glide_ligand_efficiency_sa>
-0.506539

> <r_i_glide_lipo>
-2.27481

> <r_i_glide_metal>
0

> <r_i_glide_rewards>
-1.07531

> <s_i_glide_gridfile>
wee1_glide-grid

> <s_m_Source_File>
wee1_decoys_glide_SP.sdf

> <s_m_Source_Path>
/Users/zhangxujun/Desktop

> <s_m_entry_id>
3719

> <s_m_entry_name>
wee1_decoys_glide_SP.3444

> <s_m_subgroup_title>
wee1_decoys_glide_SP

> <s_m_subgroupid>
wee1_decoys_glide_SP


$$$$
