ZINC36218191_945
                    3D
 Schrodinger Suite 2024-2.
 65 69  0  0  1  0            999 V2000
    1.6007   52.7235   30.1770 C   0  0  0  0  0  0
    2.5682   53.1616   29.0910 C   0  0  0  0  0  0
    2.0875   53.4590   27.8178 C   0  0  0  0  0  0
    2.9673   53.8613   26.8168 C   0  0  0  0  0  0
    4.3451   53.9702   27.0740 C   0  0  0  0  0  0
    4.8124   53.6883   28.3645 C   0  0  0  0  0  0
    3.9298   53.2824   29.3650 C   0  0  0  0  0  0
    5.3169   54.3969   25.9921 C   0  0  0  0  0  0
    6.3876   54.9315   26.2939 O   0  0  0  0  0  0
    4.9151   54.1272   24.7282 N   0  0  0  0  0  0
    5.4832   54.4966   23.4955 C   0  0  0  0  0  0
    6.7045   55.1667   23.3471 C   0  0  0  0  0  0
    7.1532   55.5529   22.0834 C   0  0  0  0  0  0
    6.3847   55.2952   20.9553 C   0  0  0  0  0  0
    5.1637   54.6315   21.0862 C   0  0  0  0  0  0
    4.7314   54.2127   22.3506 C   0  0  0  0  0  0
    4.2709   54.4129   19.8745 C   0  0  2  0  0  0
    3.2531   54.4945   20.2532 H   0  0  0  0  0  0
    4.4597   53.1141   19.1128 C   0  0  2  0  0  0
    5.4479   52.6881   19.2795 H   0  0  0  0  0  0
    4.2883   53.5495   17.7238 N   0  0  0  0  0  0
    4.2456   54.9401   17.6364 C   0  0  0  0  0  0
    4.1507   55.6770   16.6567 O   0  0  0  0  0  0
    4.3824   55.4110   18.8816 O   0  0  0  0  0  0
    4.5776   52.7390   16.5352 C   0  0  0  0  0  0
    6.0214   52.8351   16.0254 C   0  0  0  0  0  0
    7.1035   52.4970   16.8496 C   0  0  0  0  0  0
    8.4059   52.5839   16.3678 C   0  0  0  0  0  0
    8.6301   53.0091   15.0599 C   0  0  0  0  0  0
    7.5610   53.3440   14.2312 C   0  0  0  0  0  0
    6.2571   53.2570   14.7132 C   0  0  0  0  0  0
    9.8949   53.0965   14.5885 F   0  0  0  0  0  0
    3.4199   52.0898   19.6327 C   0  0  0  0  0  0
    3.5894   51.5843   20.7440 O   0  0  0  0  0  0
    2.3614   51.7975   18.8559 N   0  0  0  0  0  0
    1.2666   50.8913   19.1942 C   0  0  0  0  0  0
    1.6609   49.4071   19.3164 C   0  0  0  0  0  0
    1.9132   48.7860   20.6700 C   0  0  0  0  0  0
    0.6636   48.4279   19.8869 C   0  0  0  0  0  0
    1.2727   51.6972   30.0015 H   0  0  0  0  0  0
    2.0383   52.7949   31.1756 H   0  0  0  0  0  0
    0.7138   53.3590   30.1736 H   0  0  0  0  0  0
    1.0324   53.3791   27.6020 H   0  0  0  0  0  0
    2.5541   54.0950   25.8453 H   0  0  0  0  0  0
    5.8651   53.7718   28.6004 H   0  0  0  0  0  0
    4.3043   53.0556   30.3513 H   0  0  0  0  0  0
    4.0450   53.6247   24.6530 H   0  0  0  0  0  0
    7.3363   55.4067   24.1869 H   0  0  0  0  0  0
    8.1013   56.0633   21.9885 H   0  0  0  0  0  0
    6.7338   55.6179   19.9853 H   0  0  0  0  0  0
    3.7792   53.7075   22.4401 H   0  0  0  0  0  0
    3.9092   53.0652   15.7367 H   0  0  0  0  0  0
    4.3079   51.6968   16.7250 H   0  0  0  0  0  0
    6.9331   52.1398   17.8547 H   0  0  0  0  0  0
    9.2387   52.3151   17.0018 H   0  0  0  0  0  0
    7.7489   53.6706   13.2190 H   0  0  0  0  0  0
    5.4321   53.5234   14.0675 H   0  0  0  0  0  0
    2.3381   52.2104   17.9362 H   0  0  0  0  0  0
    0.7733   51.2241   20.1103 H   0  0  0  0  0  0
    0.4693   50.9800   18.4553 H   0  0  0  0  0  0
    2.2534   49.0646   18.4639 H   0  0  0  0  0  0
    2.7043   48.0441   20.7621 H   0  0  0  0  0  0
    1.8342   49.4153   21.5570 H   0  0  0  0  0  0
   -0.3015   48.7983   20.2336 H   0  0  0  0  0  0
    0.5896   47.4425   19.4266 H   0  0  0  0  0  0
  1  2  1  0  0  0
  1 40  1  0  0  0
  1 41  1  0  0  0
  1 42  1  0  0  0
  2  7  2  0  0  0
  2  3  1  0  0  0
  3  4  2  0  0  0
  3 43  1  0  0  0
  4  5  1  0  0  0
  4 44  1  0  0  0
  5  6  2  0  0  0
  5  8  1  0  0  0
  6  7  1  0  0  0
  6 45  1  0  0  0
  7 46  1  0  0  0
  8  9  2  0  0  0
  8 10  1  0  0  0
 10 11  1  0  0  0
 10 47  1  0  0  0
 11 16  2  0  0  0
 11 12  1  0  0  0
 12 13  2  0  0  0
 12 48  1  0  0  0
 13 14  1  0  0  0
 13 49  1  0  0  0
 14 15  2  0  0  0
 14 50  1  0  0  0
 15 16  1  0  0  0
 15 17  1  0  0  0
 16 51  1  0  0  0
 17 18  1  0  0  0
 17 24  1  0  0  0
 17 19  1  0  0  0
 19 20  1  0  0  0
 19 21  1  0  0  0
 19 33  1  0  0  0
 21 22  1  0  0  0
 21 25  1  0  0  0
 22 23  2  0  0  0
 22 24  1  0  0  0
 25 26  1  0  0  0
 25 52  1  0  0  0
 25 53  1  0  0  0
 26 31  2  0  0  0
 26 27  1  0  0  0
 27 28  2  0  0  0
 27 54  1  0  0  0
 28 29  1  0  0  0
 28 55  1  0  0  0
 29 30  2  0  0  0
 29 32  1  0  0  0
 30 31  1  0  0  0
 30 56  1  0  0  0
 31 57  1  0  0  0
 33 34  2  0  0  0
 33 35  1  0  0  0
 35 36  1  0  0  0
 35 58  1  0  0  0
 36 37  1  0  0  0
 36 59  1  0  0  0
 36 60  1  0  0  0
 37 39  1  0  0  0
 37 38  1  0  0  0
 37 61  1  0  0  0
 38 39  1  0  0  0
 38 62  1  0  0  0
 38 63  1  0  0  0
 39 64  1  0  0  0
 39 65  1  0  0  0
M  END
> <i_i_glide_confnum>
299

> <i_i_glide_lignum>
946

> <i_i_glide_posenum>
242

> <i_i_glide_rotatable_bonds>
10

> <i_m_Source_File_Index>
2078

> <b_m_subgroup_collapsed>
0

> <r_i_docking_score>
-5.02211

> <r_i_glide_ecoul>
-4.2894

> <r_i_glide_eff_state_penalty>
0

> <r_i_glide_einternal>
2.96508

> <r_i_glide_emodel>
-63.6415

> <r_i_glide_energy>
-47.5121

> <r_i_glide_erotb>
0.730844

> <r_i_glide_esite>
-0.146476

> <r_i_glide_evdw>
-43.2227

> <r_i_glide_gscore>
-5.02211

> <r_i_glide_hbond>
-0.029117

> <r_i_glide_ligand_efficiency>
-0.135733

> <r_i_glide_ligand_efficiency_ln>
-1.08918

> <r_i_glide_ligand_efficiency_sa>
-0.452292

> <r_i_glide_lipo>
-2.33469

> <r_i_glide_metal>
0

> <r_i_glide_rewards>
-0.438129

> <s_i_glide_gridfile>
wee1_glide-grid

> <s_m_Source_File>
wee1_decoys_glide_SP.sdf

> <s_m_Source_Path>
/Users/zhangxujun/Desktop

> <s_m_entry_id>
2353

> <s_m_entry_name>
wee1_decoys_glide_SP.2078

> <s_m_subgroup_title>
wee1_decoys_glide_SP

> <s_m_subgroupid>
wee1_decoys_glide_SP


$$$$
