ZINC12292119_1317
                    3D
 Schrodinger Suite 2024-2.
 56 59  0  0  1  0            999 V2000
   -2.3530   49.3058   25.9286 C   0  0  0  0  0  0
   -2.5512   49.9266   24.6613 O   0  0  0  0  0  0
   -1.5011   49.9790   23.7661 C   0  0  0  0  0  0
   -1.7277   50.6670   22.5758 C   0  0  0  0  0  0
   -0.7231   50.7885   21.6187 C   0  0  0  0  0  0
    0.5428   50.2197   21.8343 C   0  0  0  0  0  0
    0.7508   49.5015   23.0233 C   0  0  0  0  0  0
   -0.2496   49.3893   23.9822 C   0  0  0  0  0  0
    1.7002   50.3260   20.8077 C   0  0  1  0  0  0
    1.3863   51.2356   19.5724 C   0  0  0  0  0  0
    2.5832   51.7031   18.7148 C   0  0  0  0  0  0
    4.1263   51.3481   20.6514 C   0  0  0  0  0  0
    2.9583   50.8901   21.5353 C   0  0  0  0  0  0
    4.7710   53.0376   18.8544 C   0  0  0  0  0  0
    5.0025   54.5195   19.2314 C   0  0  2  0  0  0
    5.8251   54.8684   18.6025 H   0  0  0  0  0  0
    5.4040   54.7554   20.6929 C   0  0  0  0  0  0
    6.6642   55.2966   20.9760 C   0  0  0  0  0  0
    7.1045   55.4133   22.2921 C   0  0  0  0  0  0
    6.3045   54.9700   23.3449 C   0  0  0  0  0  0
    5.0151   54.4917   23.0767 C   0  0  0  0  0  0
    4.5586   54.4126   21.7614 C   0  0  0  0  0  0
    4.1762   54.0339   24.0732 O   0  0  0  0  0  0
    4.5512   54.4384   25.3956 C   0  0  0  0  0  0
    6.0822   54.3397   25.6059 C   0  0  0  0  0  0
    6.7723   55.1321   24.6346 O   0  0  0  0  0  0
    3.9045   55.2968   18.8274 O   0  0  0  0  0  0
    2.0557   49.0599   20.2873 O   0  0  0  0  0  0
   -3.2605   49.3902   26.5264 H   0  0  0  0  0  0
   -2.1206   48.2450   25.8282 H   0  0  0  0  0  0
   -1.5504   49.7915   26.4825 H   0  0  0  0  0  0
   -2.6965   51.1098   22.3994 H   0  0  0  0  0  0
   -0.9628   51.3183   20.7112 H   0  0  0  0  0  0
    1.6958   49.0189   23.2246 H   0  0  0  0  0  0
   -0.0324   48.8376   24.8849 H   0  0  0  0  0  0
    0.8570   52.1294   19.9029 H   0  0  0  0  0  0
    0.6572   50.7336   18.9354 H   0  0  0  0  0  0
    2.2559   52.4507   17.9904 H   0  0  0  0  0  0
    3.1015   50.8957   18.1914 H   0  0  0  0  0  0
    4.5593   50.5306   20.0817 H   0  0  0  0  0  0
    4.9044   51.8152   21.2550 H   0  0  0  0  0  0
    3.3276   50.1519   22.2441 H   0  0  0  0  0  0
    2.6568   51.7139   22.1845 H   0  0  0  0  0  0
    4.5658   52.9231   17.7874 H   0  0  0  0  0  0
    5.6886   52.4847   19.0433 H   0  0  0  0  0  0
    7.3231   55.6069   20.1759 H   0  0  0  0  0  0
    8.0711   55.8506   22.4815 H   0  0  0  0  0  0
    3.5564   54.0543   21.5907 H   0  0  0  0  0  0
    4.2340   55.4681   25.5629 H   0  0  0  0  0  0
    4.0273   53.8144   26.1189 H   0  0  0  0  0  0
    6.3556   54.6743   26.6072 H   0  0  0  0  0  0
    6.3940   53.2997   25.5091 H   0  0  0  0  0  0
    3.1149   55.0435   19.3164 H   0  0  0  0  0  0
    2.7047   49.1751   19.5889 H   0  0  0  0  0  0
    3.5957   52.3922   19.6488 N   0  3  1  0  0  0
    3.1307   53.1370   20.1484 H   0  0  0  0  0  0
  1  2  1  0  0  0
  1 29  1  0  0  0
  1 30  1  0  0  0
  1 31  1  0  0  0
  2  3  1  0  0  0
  3  8  2  0  0  0
  3  4  1  0  0  0
  4  5  2  0  0  0
  4 32  1  0  0  0
  5  6  1  0  0  0
  5 33  1  0  0  0
  6  7  2  0  0  0
  6  9  1  0  0  0
  7  8  1  0  0  0
  7 34  1  0  0  0
  8 35  1  0  0  0
  9 13  1  0  0  0
  9 10  1  0  0  0
  9 28  1  0  0  0
 10 11  1  0  0  0
 10 36  1  0  0  0
 10 37  1  0  0  0
 11 38  1  0  0  0
 11 39  1  0  0  0
 11 55  1  0  0  0
 12 13  1  0  0  0
 12 40  1  0  0  0
 12 41  1  0  0  0
 12 55  1  0  0  0
 13 42  1  0  0  0
 13 43  1  0  0  0
 14 15  1  0  0  0
 14 44  1  0  0  0
 14 45  1  0  0  0
 14 55  1  0  0  0
 15 16  1  0  0  0
 15 17  1  0  0  0
 15 27  1  0  0  0
 17 22  2  0  0  0
 17 18  1  0  0  0
 18 19  2  0  0  0
 18 46  1  0  0  0
 19 20  1  0  0  0
 19 47  1  0  0  0
 20 26  1  0  0  0
 20 21  2  0  0  0
 21 22  1  0  0  0
 21 23  1  0  0  0
 22 48  1  0  0  0
 23 24  1  0  0  0
 24 25  1  0  0  0
 24 49  1  0  0  0
 24 50  1  0  0  0
 25 26  1  0  0  0
 25 51  1  0  0  0
 25 52  1  0  0  0
 27 53  1  0  0  0
 28 54  1  0  0  0
 55 56  1  0  0  0
M  CHG  1  55   1
M  END
> <i_i_glide_confnum>
129

> <i_i_glide_lignum>
1318

> <i_i_glide_posenum>
223

> <i_i_glide_rotatable_bonds>
7

> <i_m_Source_File_Index>
1721

> <b_m_subgroup_collapsed>
0

> <r_i_docking_score>
-4.76096

> <r_i_glide_ecoul>
-7.1206

> <r_i_glide_eff_state_penalty>
0

> <r_i_glide_einternal>
5.23774

> <r_i_glide_emodel>
-44.8349

> <r_i_glide_energy>
-34.029

> <r_i_glide_erotb>
0.521281

> <r_i_glide_esite>
-0.043269

> <r_i_glide_evdw>
-26.9084

> <r_i_glide_gscore>
-4.76096

> <r_i_glide_hbond>
-0.32

> <r_i_glide_ligand_efficiency>
-0.170034

> <r_i_glide_ligand_efficiency_ln>
-1.09897

> <r_i_glide_ligand_efficiency_sa>
-0.516324

> <r_i_glide_lipo>
-1.6147

> <r_i_glide_metal>
0

> <r_i_glide_rewards>
-0.890753

> <s_i_glide_gridfile>
wee1_glide-grid

> <s_m_Source_File>
wee1_decoys_glide_SP.sdf

> <s_m_Source_Path>
/Users/zhangxujun/Desktop

> <s_m_entry_id>
1996

> <s_m_entry_name>
wee1_decoys_glide_SP.1721

> <s_m_subgroup_title>
wee1_decoys_glide_SP

> <s_m_subgroupid>
wee1_decoys_glide_SP


$$$$
