ZINC39665799_382
                    3D
 Schrodinger Suite 2024-2.
 70 73  0  0  1  0            999 V2000
    0.5766   51.0808   27.6374 C   0  0  0  0  0  0
    0.0053   50.8157   26.2684 C   0  0  0  0  0  0
    0.3065   49.9322   25.2439 C   0  0  0  0  0  0
   -0.5576   50.2187   24.1809 C   0  0  0  0  0  0
   -1.3656   51.2702   24.6106 C   0  0  0  0  0  0
   -1.0187   51.6161   25.8796 O   0  0  0  0  0  0
   -2.4619   52.0989   23.9666 C   0  0  0  0  0  0
   -2.0169   53.3161   23.6802 F   0  0  0  0  0  0
   -2.8862   51.5601   22.8258 F   0  0  0  0  0  0
   -3.5170   52.2269   24.7671 F   0  0  0  0  0  0
   -0.5163   49.6734   22.8535 C   0  0  0  0  0  0
   -1.2044   48.6923   22.5700 O   0  0  0  0  0  0
    0.2387   50.3503   21.9509 N   0  0  0  0  0  0
    1.2247   51.3965   22.2607 C   0  0  0  0  0  0
    1.6958   51.8715   20.8677 C   0  0  2  0  0  0
    1.0875   52.7271   20.5637 H   0  0  0  0  0  0
    1.4391   50.6643   19.9150 C   0  0  0  0  0  0
    0.1526   50.0671   20.5203 C   0  0  0  0  0  0
    2.5880   49.6154   19.9306 C   0  0  0  0  0  0
    2.2735   48.3517   19.1205 C   0  0  0  0  0  0
    1.9043   48.7560   17.6804 N   0  3  0  0  0  0
    0.8698   49.8965   17.5448 C   0  0  0  0  0  0
    1.3211   51.0787   18.4273 C   0  0  0  0  0  0
    3.1806   52.3182   20.9485 C   0  0  0  0  0  0
    3.9872   51.7351   21.6728 O   0  0  0  0  0  0
    3.5083   53.4023   20.2301 N   0  0  0  0  0  0
    4.8511   53.9761   20.1036 C   0  0  0  0  0  0
    5.3127   54.7897   21.3322 C   0  0  2  0  0  0
    4.4328   55.2989   21.7143 H   0  0  0  0  0  0
    6.3887   55.8296   20.9814 C   0  0  0  0  0  0
    5.8777   53.9175   22.3123 O   0  0  0  0  0  0
    5.5163   54.0799   23.6302 C   0  0  0  0  0  0
    6.5360   54.1091   24.5772 C   0  0  0  0  0  0
    6.2343   54.2039   25.9322 C   0  0  0  0  0  0
    4.8965   54.2732   26.3515 C   0  0  0  0  0  0
    3.8798   54.2444   25.3963 C   0  0  0  0  0  0
    4.1831   54.1321   24.0427 C   0  0  0  0  0  0
    4.4949   54.3711   27.6684 O   0  0  0  0  0  0
    5.4629   54.2050   28.6981 C   0  0  0  0  0  0
    1.4789   50.4979   27.8197 H   0  0  0  0  0  0
    0.8440   52.1310   27.7625 H   0  0  0  0  0  0
   -0.1366   50.8343   28.4222 H   0  0  0  0  0  0
    1.0899   49.1854   25.2567 H   0  0  0  0  0  0
    2.0244   50.8858   22.8013 H   0  0  0  0  0  0
    0.8079   52.2201   22.8428 H   0  0  0  0  0  0
   -0.6920   50.6413   20.1381 H   0  0  0  0  0  0
   -0.0338   49.0288   20.2509 H   0  0  0  0  0  0
    3.5142   50.0506   19.5636 H   0  0  0  0  0  0
    2.7916   49.3035   20.9569 H   0  0  0  0  0  0
    3.1837   47.7725   19.0049 H   0  0  0  0  0  0
    1.4716   47.7304   19.5173 H   0  0  0  0  0  0
    2.7952   49.0433   17.2418 H   0  0  0  0  0  0
    0.8442   50.1526   16.4839 H   0  0  0  0  0  0
   -0.0977   49.4839   17.8361 H   0  0  0  0  0  0
    0.5695   51.8611   18.3273 H   0  0  0  0  0  0
    2.2519   51.5190   18.0620 H   0  0  0  0  0  0
    2.7580   53.9183   19.7785 H   0  0  0  0  0  0
    4.8211   54.6268   19.2292 H   0  0  0  0  0  0
    5.5712   53.1895   19.8667 H   0  0  0  0  0  0
    6.0261   56.5393   20.2382 H   0  0  0  0  0  0
    6.6837   56.4000   21.8609 H   0  0  0  0  0  0
    7.2846   55.3496   20.5842 H   0  0  0  0  0  0
    7.5640   54.0478   24.2548 H   0  0  0  0  0  0
    7.0476   54.2098   26.6408 H   0  0  0  0  0  0
    2.8506   54.2814   25.7145 H   0  0  0  0  0  0
    3.3843   54.0726   23.3206 H   0  0  0  0  0  0
    4.9966   54.3972   29.6641 H   0  0  0  0  0  0
    6.3000   54.8948   28.5958 H   0  0  0  0  0  0
    5.8534   53.1872   28.7064 H   0  0  0  0  0  0
    1.6130   47.9469   17.1524 H   0  0  0  0  0  0
  1  2  1  0  0  0
  1 40  1  0  0  0
  1 41  1  0  0  0
  1 42  1  0  0  0
  2  6  1  0  0  0
  2  3  2  0  0  0
  3  4  1  0  0  0
  3 43  1  0  0  0
  4  5  2  0  0  0
  4 11  1  0  0  0
  5  6  1  0  0  0
  5  7  1  0  0  0
  7  8  1  0  0  0
  7  9  1  0  0  0
  7 10  1  0  0  0
 11 12  2  0  0  0
 11 13  1  0  0  0
 13 18  1  0  0  0
 13 14  1  0  0  0
 14 15  1  0  0  0
 14 44  1  0  0  0
 14 45  1  0  0  0
 15 16  1  0  0  0
 15 17  1  0  0  0
 15 24  1  0  0  0
 17 23  1  0  0  0
 17 18  1  0  0  0
 17 19  1  0  0  0
 18 46  1  0  0  0
 18 47  1  0  0  0
 19 20  1  0  0  0
 19 48  1  0  0  0
 19 49  1  0  0  0
 20 21  1  0  0  0
 20 50  1  0  0  0
 20 51  1  0  0  0
 21 22  1  0  0  0
 21 52  1  0  0  0
 21 70  1  0  0  0
 22 23  1  0  0  0
 22 53  1  0  0  0
 22 54  1  0  0  0
 23 55  1  0  0  0
 23 56  1  0  0  0
 24 25  2  0  0  0
 24 26  1  0  0  0
 26 27  1  0  0  0
 26 57  1  0  0  0
 27 28  1  0  0  0
 27 58  1  0  0  0
 27 59  1  0  0  0
 28 29  1  0  0  0
 28 30  1  0  0  0
 28 31  1  0  0  0
 30 60  1  0  0  0
 30 61  1  0  0  0
 30 62  1  0  0  0
 31 32  1  0  0  0
 32 37  2  0  0  0
 32 33  1  0  0  0
 33 34  2  0  0  0
 33 63  1  0  0  0
 34 35  1  0  0  0
 34 64  1  0  0  0
 35 36  2  0  0  0
 35 38  1  0  0  0
 36 37  1  0  0  0
 36 65  1  0  0  0
 37 66  1  0  0  0
 38 39  1  0  0  0
 39 67  1  0  0  0
 39 68  1  0  0  0
 39 69  1  0  0  0
M  CHG  1  21   1
M  END
> <i_i_glide_confnum>
334

> <i_i_glide_lignum>
383

> <i_i_glide_posenum>
302

> <i_i_glide_rotatable_bonds>
10

> <i_m_Source_File_Index>
2100

> <b_m_subgroup_collapsed>
0

> <r_i_docking_score>
-5.28639

> <r_i_glide_ecoul>
-10.1886

> <r_i_glide_eff_state_penalty>
0

> <r_i_glide_einternal>
9.21763

> <r_i_glide_emodel>
-62.4076

> <r_i_glide_energy>
-50.6001

> <r_i_glide_erotb>
0.598271

> <r_i_glide_esite>
-0.119556

> <r_i_glide_evdw>
-40.4115

> <r_i_glide_gscore>
-5.28639

> <r_i_glide_hbond>
-0.471951

> <r_i_glide_ligand_efficiency>
-0.142876

> <r_i_glide_ligand_efficiency_ln>
-1.14649

> <r_i_glide_ligand_efficiency_sa>
-0.476093

> <r_i_glide_lipo>
-2.28602

> <r_i_glide_metal>
0

> <r_i_glide_rewards>
0.541726

> <s_i_glide_gridfile>
wee1_glide-grid

> <s_m_Source_File>
wee1_decoys_glide_SP.sdf

> <s_m_Source_Path>
/Users/zhangxujun/Desktop

> <s_m_entry_id>
2375

> <s_m_entry_name>
wee1_decoys_glide_SP.2100

> <s_m_subgroup_title>
wee1_decoys_glide_SP

> <s_m_subgroupid>
wee1_decoys_glide_SP


$$$$
