ZINC34979902_4190
                    3D
 Schrodinger Suite 2024-2.
 78 82  0  0  1  0            999 V2000
    2.4432   51.3344   21.7121 C   0  0  0  0  0  0
    2.8456   52.8149   21.5750 C   0  0  0  0  0  0
    4.3127   53.0290   21.1189 C   0  0  1  0  0  0
    4.9092   52.2732   21.6347 H   0  0  0  0  0  0
    4.3768   52.6130   19.6268 C   0  0  0  0  0  0
    4.9129   54.4730   21.4264 C   0  0  1  0  0  0
    4.1230   55.1727   21.6835 H   0  0  0  0  0  0
    5.8938   54.3676   22.6498 C   0  0  0  0  0  0
    7.1006   54.4951   22.4545 O   0  0  0  0  0  0
    5.4428   54.0382   23.8871 N   0  0  0  0  0  0
    4.0595   54.2167   24.3759 C   0  0  0  0  0  0
    4.0702   55.1372   25.6305 C   0  0  0  0  0  0
    5.1287   54.7537   26.5711 N   0  0  0  0  0  0
    6.4838   54.7928   25.9792 C   0  0  1  0  0  0
    7.2361   54.5081   26.7216 H   0  0  0  0  0  0
    6.4369   53.6976   24.9295 C   0  0  0  0  0  0
    6.9359   56.0971   25.3367 C   0  0  0  0  0  0
    4.8805   54.1065   27.7461 C   0  0  0  0  0  0
    5.7804   53.6969   28.4817 O   0  0  0  0  0  0
    3.4461   53.9329   28.1851 C   0  0  0  0  0  0
    2.5858   53.0641   27.5031 C   0  0  0  0  0  0
    1.2635   52.9213   27.9168 C   0  0  0  0  0  0
    0.7989   53.6485   29.0077 C   0  0  0  0  0  0
    1.6494   54.5119   29.6952 C   0  0  0  0  0  0
    2.9760   54.6450   29.2886 C   0  0  0  0  0  0
    5.5122   55.0538   20.1987 N   0  0  0  0  0  0
    6.2999   56.1238   20.0016 C   0  0  0  0  0  0
    6.6787   56.8949   20.8814 O   0  0  0  0  0  0
    6.6220   56.2348   18.6990 N   0  0  0  0  0  0
    7.6705   57.0616   18.0841 C   0  0  0  0  0  0
    9.0945   56.7226   18.6369 C   0  0  0  0  0  0
   10.1904   57.5793   17.9605 C   0  0  1  0  0  0
   10.1949   57.2805   16.4417 C   0  0  0  0  0  0
    8.8092   57.6315   15.8419 C   0  0  1  0  0  0
    7.7086   56.7911   16.5442 C   0  0  0  0  0  0
    8.5268   59.1380   16.0649 C   0  0  0  0  0  0
    8.5157   59.4434   17.5843 C   0  0  2  0  0  0
    9.8908   59.0812   18.2045 C   0  0  0  0  0  0
    7.4065   58.5943   18.2566 C   0  0  0  0  0  0
    1.7755   51.1898   22.5650 H   0  0  0  0  0  0
    1.9238   50.9870   20.8210 H   0  0  0  0  0  0
    3.3061   50.6812   21.8623 H   0  0  0  0  0  0
    2.6229   53.2901   22.5147 H   0  0  0  0  0  0
    2.1749   53.2976   20.8646 H   0  0  0  0  0  0
    3.8577   53.3219   18.9833 H   0  0  0  0  0  0
    5.4075   52.5283   19.2806 H   0  0  0  0  0  0
    3.9097   51.6489   19.4536 H   0  0  0  0  0  0
    3.4465   54.7454   23.6510 H   0  0  0  0  0  0
    3.6270   53.2458   24.6085 H   0  0  0  0  0  0
    4.4038   56.0967   25.2823 H   0  0  0  0  0  0
    3.1048   55.2981   26.0956 H   0  0  0  0  0  0
    6.0149   52.8967   25.4853 H   0  0  0  0  0  0
    7.4046   53.3628   24.5554 H   0  0  0  0  0  0
    7.9048   56.0319   24.8589 H   0  0  0  0  0  0
    6.2765   56.4806   24.5566 H   0  0  0  0  0  0
    7.0079   56.8582   26.0817 H   0  0  0  0  0  0
    2.9423   52.4965   26.6543 H   0  0  0  0  0  0
    0.5987   52.2481   27.3971 H   0  0  0  0  0  0
   -0.2253   53.5315   29.3256 H   0  0  0  0  0  0
    1.2878   55.0620   30.5508 H   0  0  0  0  0  0
    3.6437   55.2948   29.8319 H   0  0  0  0  0  0
    5.3242   54.4835   19.3897 H   0  0  0  0  0  0
    6.0980   55.6767   18.0421 H   0  0  0  0  0  0
    9.3100   55.6589   18.5041 H   0  0  0  0  0  0
    9.1453   56.8897   19.7082 H   0  0  0  0  0  0
   11.1632   57.3270   18.3860 H   0  0  0  0  0  0
   10.4226   56.2254   16.2761 H   0  0  0  0  0  0
   10.9795   57.8503   15.9405 H   0  0  0  0  0  0
    8.8085   57.4143   14.7748 H   0  0  0  0  0  0
    6.7399   57.0184   16.0949 H   0  0  0  0  0  0
    7.8841   55.7311   16.3460 H   0  0  0  0  0  0
    7.5700   59.4146   15.6151 H   0  0  0  0  0  0
    9.2814   59.7398   15.5567 H   0  0  0  0  0  0
    8.3051   60.5042   17.7373 H   0  0  0  0  0  0
   10.6790   59.6924   17.7658 H   0  0  0  0  0  0
    9.8991   59.2910   19.2770 H   0  0  0  0  0  0
    7.3351   58.8661   19.3030 H   0  0  0  0  0  0
    6.4410   58.8662   17.8301 H   0  0  0  0  0  0
  1  2  1  0  0  0
  1 40  1  0  0  0
  1 41  1  0  0  0
  1 42  1  0  0  0
  2  3  1  0  0  0
  2 43  1  0  0  0
  2 44  1  0  0  0
  3  4  1  0  0  0
  3  5  1  0  0  0
  3  6  1  0  0  0
  5 45  1  0  0  0
  5 46  1  0  0  0
  5 47  1  0  0  0
  6  7  1  0  0  0
  6  8  1  0  0  0
  6 26  1  0  0  0
  8  9  2  0  0  0
  8 10  1  0  0  0
 10 16  1  0  0  0
 10 11  1  0  0  0
 11 12  1  0  0  0
 11 48  1  0  0  0
 11 49  1  0  0  0
 12 13  1  0  0  0
 12 50  1  0  0  0
 12 51  1  0  0  0
 13 14  1  0  0  0
 13 18  1  0  0  0
 14 15  1  0  0  0
 14 16  1  0  0  0
 14 17  1  0  0  0
 16 52  1  0  0  0
 16 53  1  0  0  0
 17 54  1  0  0  0
 17 55  1  0  0  0
 17 56  1  0  0  0
 18 19  2  0  0  0
 18 20  1  0  0  0
 20 25  2  0  0  0
 20 21  1  0  0  0
 21 22  2  0  0  0
 21 57  1  0  0  0
 22 23  1  0  0  0
 22 58  1  0  0  0
 23 24  2  0  0  0
 23 59  1  0  0  0
 24 25  1  0  0  0
 24 60  1  0  0  0
 25 61  1  0  0  0
 26 27  1  0  0  0
 26 62  1  0  0  0
 27 28  2  0  0  0
 27 29  1  0  0  0
 29 30  1  0  0  0
 29 63  1  0  0  0
 30 35  1  0  0  0
 30 39  1  0  0  0
 30 31  1  0  0  0
 31 32  1  0  0  0
 31 64  1  0  0  0
 31 65  1  0  0  0
 32 38  1  0  0  0
 32 33  1  0  0  0
 32 66  1  0  0  0
 33 34  1  0  0  0
 33 67  1  0  0  0
 33 68  1  0  0  0
 34 35  1  0  0  0
 34 36  1  0  0  0
 34 69  1  0  0  0
 35 70  1  0  0  0
 35 71  1  0  0  0
 36 37  1  0  0  0
 36 72  1  0  0  0
 36 73  1  0  0  0
 37 38  1  0  0  0
 37 39  1  0  0  0
 37 74  1  0  0  0
 38 75  1  0  0  0
 38 76  1  0  0  0
 39 77  1  0  0  0
 39 78  1  0  0  0
M  END
> <i_i_glide_confnum>
242

> <i_i_glide_lignum>
4191

> <i_i_glide_posenum>
393

> <i_i_glide_rotatable_bonds>
10

> <i_m_Source_File_Index>
1629

> <b_m_subgroup_collapsed>
0

> <r_i_docking_score>
-6.32744

> <r_i_glide_ecoul>
-4.45055

> <r_i_glide_eff_state_penalty>
0

> <r_i_glide_einternal>
8.71083

> <r_i_glide_emodel>
-55.1858

> <r_i_glide_energy>
-42.5506

> <r_i_glide_erotb>
0.666295

> <r_i_glide_esite>
0

> <r_i_glide_evdw>
-38.1

> <r_i_glide_gscore>
-6.32744

> <r_i_glide_hbond>
-0.32

> <r_i_glide_ligand_efficiency>
-0.175762

> <r_i_glide_ligand_efficiency_ln>
-1.38048

> <r_i_glide_ligand_efficiency_sa>
-0.580354

> <r_i_glide_lipo>
-2.52819

> <r_i_glide_metal>
0

> <r_i_glide_rewards>
-1.57296

> <s_i_glide_gridfile>
wee1_glide-grid

> <s_m_Source_File>
wee1_decoys_glide_SP.sdf

> <s_m_Source_Path>
/Users/zhangxujun/Desktop

> <s_m_entry_id>
1904

> <s_m_entry_name>
wee1_decoys_glide_SP.1629

> <s_m_subgroup_title>
wee1_decoys_glide_SP

> <s_m_subgroupid>
wee1_decoys_glide_SP


$$$$
