ZINC14551643_3869
                    3D
 Schrodinger Suite 2024-2.
 46 49  0  0  1  0            999 V2000
    6.3097   54.8215   18.8226 C   0  0  0  0  0  0
    5.0896   54.0697   19.3902 C   0  0  0  0  0  0
    4.9628   54.1200   20.9205 C   0  0  0  0  0  0
    5.9040   54.5158   21.6088 O   0  0  0  0  0  0
    3.7777   53.6951   21.4040 N   0  0  0  0  0  0
    3.3349   53.5956   22.7361 C   0  0  0  0  0  0
    2.1328   52.9181   22.9399 C   0  0  0  0  0  0
    1.6287   52.7508   24.2269 C   0  0  0  0  0  0
    2.3228   53.2550   25.3272 C   0  0  0  0  0  0
    3.5124   53.9894   25.1480 C   0  0  0  0  0  0
    4.0052   54.1331   23.8456 C   0  0  0  0  0  0
    4.2502   54.6254   26.3286 C   0  0  2  0  0  0
    4.2724   55.6966   26.1239 H   0  0  0  0  0  0
    5.6564   54.0969   26.5448 C   0  0  0  0  0  0
    5.7530   53.3781   27.6766 C   0  0  0  0  0  0
    4.4262   53.2956   28.3974 C   0  0  0  0  0  0
    3.5841   54.3617   27.6894 C   0  0  2  0  0  0
    3.7118   55.2756   28.2740 H   0  0  0  0  0  0
    2.0567   54.0971   27.6121 C   0  0  1  0  0  0
    1.5820   55.0143   27.2817 H   0  0  0  0  0  0
    1.7410   53.0958   26.5956 N   0  0  0  0  0  0
    1.4065   53.9123   28.9738 C   0  0  0  0  0  0
    1.3004   55.0371   29.7909 C   0  0  0  0  0  0
    0.7044   54.9316   31.0349 C   0  0  0  0  0  0
    0.2267   53.7036   31.4767 C   0  0  0  0  0  0
    0.3039   52.5833   30.6595 C   0  0  0  0  0  0
    0.9038   52.6784   29.4072 C   0  0  0  0  0  0
    6.3299   54.7376   17.7357 H   0  0  0  0  0  0
    7.2504   54.4048   19.1857 H   0  0  0  0  0  0
    6.2751   55.8863   19.0566 H   0  0  0  0  0  0
    4.1807   54.4740   18.9424 H   0  0  0  0  0  0
    5.1443   53.0227   19.0875 H   0  0  0  0  0  0
    3.1066   53.3952   20.7128 H   0  0  0  0  0  0
    1.5846   52.5078   22.1041 H   0  0  0  0  0  0
    0.6990   52.2181   24.3650 H   0  0  0  0  0  0
    4.9177   54.6939   23.7252 H   0  0  0  0  0  0
    6.4530   54.2832   25.8394 H   0  0  0  0  0  0
    6.6403   52.8832   28.0442 H   0  0  0  0  0  0
    4.5288   53.5189   29.4599 H   0  0  0  0  0  0
    3.9902   52.2998   28.3094 H   0  0  0  0  0  0
    0.8127   52.7068   26.6709 H   0  0  0  0  0  0
    1.6884   55.9933   29.4694 H   0  0  0  0  0  0
    0.7045   55.7918   31.6819 H   0  0  0  0  0  0
   -0.2194   53.6161   32.4580 H   0  0  0  0  0  0
   -0.1143   51.6563   31.0130 H   0  0  0  0  0  0
    0.9685   51.7992   28.7826 H   0  0  0  0  0  0
  1  2  1  0  0  0
  1 28  1  0  0  0
  1 29  1  0  0  0
  1 30  1  0  0  0
  2  3  1  0  0  0
  2 31  1  0  0  0
  2 32  1  0  0  0
  3  4  2  0  0  0
  3  5  1  0  0  0
  5  6  1  0  0  0
  5 33  1  0  0  0
  6 11  2  0  0  0
  6  7  1  0  0  0
  7  8  2  0  0  0
  7 34  1  0  0  0
  8  9  1  0  0  0
  8 35  1  0  0  0
  9 21  1  0  0  0
  9 10  2  0  0  0
 10 11  1  0  0  0
 10 12  1  0  0  0
 11 36  1  0  0  0
 12 13  1  0  0  0
 12 17  1  0  0  0
 12 14  1  0  0  0
 14 15  2  0  0  0
 14 37  1  0  0  0
 15 16  1  0  0  0
 15 38  1  0  0  0
 16 17  1  0  0  0
 16 39  1  0  0  0
 16 40  1  0  0  0
 17 18  1  0  0  0
 17 19  1  0  0  0
 19 20  1  0  0  0
 19 21  1  0  0  0
 19 22  1  0  0  0
 21 41  1  0  0  0
 22 27  2  0  0  0
 22 23  1  0  0  0
 23 24  2  0  0  0
 23 42  1  0  0  0
 24 25  1  0  0  0
 24 43  1  0  0  0
 25 26  2  0  0  0
 25 44  1  0  0  0
 26 27  1  0  0  0
 26 45  1  0  0  0
 27 46  1  0  0  0
M  END
> <i_i_glide_confnum>
3

> <i_i_glide_lignum>
3870

> <i_i_glide_posenum>
71

> <i_i_glide_rotatable_bonds>
4

> <i_m_Source_File_Index>
267

> <b_m_subgroup_collapsed>
0

> <r_i_docking_score>
-6.77337

> <r_i_glide_ecoul>
-2.58172

> <r_i_glide_eff_state_penalty>
0

> <r_i_glide_einternal>
1.5239

> <r_i_glide_emodel>
-55.6422

> <r_i_glide_energy>
-40.4809

> <r_i_glide_erotb>
0.551688

> <r_i_glide_esite>
0

> <r_i_glide_evdw>
-37.8992

> <r_i_glide_gscore>
-6.77337

> <r_i_glide_hbond>
0

> <r_i_glide_ligand_efficiency>
-0.282224

> <r_i_glide_ligand_efficiency_ln>
-1.62118

> <r_i_glide_ligand_efficiency_sa>
-0.814074

> <r_i_glide_lipo>
-3.62539

> <r_i_glide_metal>
0

> <r_i_glide_rewards>
-1.41745

> <s_i_glide_gridfile>
wee1_glide-grid

> <s_m_Source_File>
wee1_decoys_glide_SP.sdf

> <s_m_Source_Path>
/Users/zhangxujun/Desktop

> <s_m_entry_id>
542

> <s_m_entry_name>
wee1_decoys_glide_SP.267

> <s_m_subgroup_title>
wee1_decoys_glide_SP

> <s_m_subgroupid>
wee1_decoys_glide_SP


$$$$
