ZINC14911495_5142
                    3D
 Schrodinger Suite 2024-2.
 48 50  0  0  1  0            999 V2000
   13.5386   60.7182   18.7294 C   0  0  0  0  0  0
   12.2663   59.9165   18.6413 C   0  0  0  0  0  0
   11.9716   58.5736   18.6232 C   0  0  0  0  0  0
   10.5857   58.4970   18.5291 C   0  0  0  0  0  0
   10.0476   59.7029   18.4820 N   0  0  0  0  0  0
   11.1046   60.6111   18.5631 O   0  0  0  0  0  0
    9.9035   57.2928   18.4898 N   0  0  0  0  0  0
    8.5643   57.1032   18.4540 C   0  0  0  0  0  0
    7.7446   58.0223   18.4818 O   0  0  0  0  0  0
    8.0429   55.6503   18.3380 C   0  0  1  0  0  0
    7.6020   55.6151   17.3408 H   0  0  0  0  0  0
    9.1289   54.5494   18.3694 C   0  0  0  0  0  0
    6.6303   55.2958   19.4450 S   0  0  0  0  0  0
    7.2760   55.4274   21.1522 C   0  0  0  0  0  0
    6.3052   54.8967   22.2265 C   0  0  0  0  0  0
    5.2331   54.3839   21.8995 O   0  0  0  0  0  0
    6.7045   55.0393   23.5110 N   0  0  0  0  0  0
    5.9638   54.7138   24.6424 C   0  0  0  0  0  0
    4.7258   54.2991   24.6929 N   0  0  0  0  0  0
    4.2673   54.0968   25.9202 C   0  0  0  0  0  0
    5.1974   54.4169   26.9407 C   0  0  0  0  0  0
    6.6974   54.8966   26.1818 S   0  0  0  0  0  0
    5.1070   54.3959   28.4513 C   0  0  0  0  0  0
    2.8611   53.5477   26.0587 C   0  0  0  0  0  0
    2.0205   53.4611   24.9334 C   0  0  0  0  0  0
    0.7523   52.8964   25.0264 C   0  0  0  0  0  0
    0.2979   52.4242   26.2536 C   0  0  0  0  0  0
    1.1072   52.5012   27.3813 C   0  0  0  0  0  0
    2.3804   53.0558   27.2816 C   0  0  0  0  0  0
   -1.4510   51.6888   26.3963 Br  0  0  0  0  0  0
   14.4178   60.0749   18.7616 H   0  0  0  0  0  0
   13.5580   61.3409   19.6237 H   0  0  0  0  0  0
   13.6531   61.3786   17.8697 H   0  0  0  0  0  0
   12.6675   57.7492   18.6784 H   0  0  0  0  0  0
   10.4878   56.4722   18.5513 H   0  0  0  0  0  0
    9.8935   54.7059   17.6072 H   0  0  0  0  0  0
    9.6305   54.4970   19.3335 H   0  0  0  0  0  0
    8.6904   53.5717   18.1699 H   0  0  0  0  0  0
    8.2228   54.8967   21.2247 H   0  0  0  0  0  0
    7.4895   56.4761   21.3539 H   0  0  0  0  0  0
    7.6509   55.3604   23.6760 H   0  0  0  0  0  0
    4.1724   54.8242   28.8124 H   0  0  0  0  0  0
    5.1929   53.3834   28.8454 H   0  0  0  0  0  0
    5.9044   54.9768   28.9145 H   0  0  0  0  0  0
    2.3452   53.8184   23.9665 H   0  0  0  0  0  0
    0.1213   52.8329   24.1522 H   0  0  0  0  0  0
    0.7519   52.1200   28.3277 H   0  0  0  0  0  0
    2.9882   53.0578   28.1681 H   0  0  0  0  0  0
  1  2  1  0  0  0
  1 31  1  0  0  0
  1 32  1  0  0  0
  1 33  1  0  0  0
  2  6  1  0  0  0
  2  3  2  0  0  0
  3  4  1  0  0  0
  3 34  1  0  0  0
  4  5  2  0  0  0
  4  7  1  0  0  0
  5  6  1  0  0  0
  7  8  1  0  0  0
  7 35  1  0  0  0
  8  9  2  0  0  0
  8 10  1  0  0  0
 10 11  1  0  0  0
 10 12  1  0  0  0
 10 13  1  0  0  0
 12 36  1  0  0  0
 12 37  1  0  0  0
 12 38  1  0  0  0
 13 14  1  0  0  0
 14 15  1  0  0  0
 14 39  1  0  0  0
 14 40  1  0  0  0
 15 16  2  0  0  0
 15 17  1  0  0  0
 17 18  1  0  0  0
 17 41  1  0  0  0
 18 22  1  0  0  0
 18 19  2  0  0  0
 19 20  1  0  0  0
 20 21  2  0  0  0
 20 24  1  0  0  0
 21 22  1  0  0  0
 21 23  1  0  0  0
 23 42  1  0  0  0
 23 43  1  0  0  0
 23 44  1  0  0  0
 24 29  2  0  0  0
 24 25  1  0  0  0
 25 26  2  0  0  0
 25 45  1  0  0  0
 26 27  1  0  0  0
 26 46  1  0  0  0
 27 28  2  0  0  0
 27 30  1  0  0  0
 28 29  1  0  0  0
 28 47  1  0  0  0
 29 48  1  0  0  0
M  END
> <i_i_glide_confnum>
207

> <i_i_glide_lignum>
5143

> <i_i_glide_posenum>
145

> <i_i_glide_rotatable_bonds>
9

> <i_m_Source_File_Index>
4418

> <b_m_subgroup_collapsed>
0

> <r_i_docking_score>
-5.73156

> <r_i_glide_ecoul>
-3.84093

> <r_i_glide_eff_state_penalty>
0

> <r_i_glide_einternal>
9.83465

> <r_i_glide_emodel>
-61.4297

> <r_i_glide_energy>
-48.1825

> <r_i_glide_erotb>
0.747514

> <r_i_glide_esite>
-0.134223

> <r_i_glide_evdw>
-44.3416

> <r_i_glide_gscore>
-5.73156

> <r_i_glide_hbond>
-0.431946

> <r_i_glide_ligand_efficiency>
-0.19764

> <r_i_glide_ligand_efficiency_ln>
-1.31238

> <r_i_glide_ligand_efficiency_sa>
-0.607213

> <r_i_glide_lipo>
-2.60319

> <r_i_glide_metal>
0

> <r_i_glide_rewards>
-0.516494

> <s_i_glide_gridfile>
wee1_glide-grid

> <s_m_Source_File>
wee1_decoys_glide_SP.sdf

> <s_m_Source_Path>
/Users/zhangxujun/Desktop

> <s_m_entry_id>
4693

> <s_m_entry_name>
wee1_decoys_glide_SP.4418

> <s_m_subgroup_title>
wee1_decoys_glide_SP

> <s_m_subgroupid>
wee1_decoys_glide_SP


$$$$
