ZINC39266804_4852
                    3D
 Schrodinger Suite 2024-2.
 66 69  0  0  1  0            999 V2000
   -6.7184   46.2390   25.5672 C   0  0  0  0  0  0
   -5.9731   47.5120   25.9313 C   0  0  0  0  0  0
   -6.2143   48.6877   25.2154 C   0  0  0  0  0  0
   -5.5436   49.8590   25.5576 C   0  0  0  0  0  0
   -4.6429   49.8570   26.6256 C   0  0  0  0  0  0
   -4.4022   48.6811   27.3410 C   0  0  0  0  0  0
   -5.0668   47.5101   26.9928 C   0  0  0  0  0  0
   -3.7637   51.3571   27.0688 S   0  0  0  0  0  0
   -3.5154   51.2967   28.5127 O   0  0  0  0  0  0
   -4.5091   52.4756   26.4797 O   0  0  0  0  0  0
   -2.2119   51.2568   26.2100 N   0  0  0  0  0  0
   -1.0123   50.8124   26.9796 C   0  0  0  0  0  0
    0.0669   51.9160   27.1127 C   0  0  0  0  0  0
    0.1673   52.5886   28.4682 C   0  0  0  0  0  0
   -0.2995   52.1952   29.7246 C   0  0  0  0  0  0
    0.0187   53.0742   30.7615 C   0  0  0  0  0  0
    0.7186   54.1824   30.3233 C   0  0  0  0  0  0
    1.0355   54.0963   28.6247 S   0  0  0  0  0  0
   -2.2610   50.9788   24.7636 C   0  0  0  0  0  0
   -1.0610   51.5654   24.0052 C   0  0  0  0  0  0
   -1.1218   52.7008   23.5340 O   0  0  0  0  0  0
    0.0301   50.7841   23.9137 N   0  0  0  0  0  0
    1.3394   51.1302   23.3466 C   0  0  1  0  0  0
    2.0243   50.2846   23.4549 H   0  0  0  0  0  0
    1.2837   51.5128   21.8520 C   0  0  0  0  0  0
    1.8652   52.9242   21.7309 C   0  0  0  0  0  0
    2.7803   53.0570   22.9555 N   0  3  2  0  0  0
    2.0029   52.3248   24.0600 C   0  0  0  0  0  0
    3.1954   54.4876   23.3463 C   0  0  0  0  0  0
    4.2679   54.4912   24.4296 C   0  0  0  0  0  0
    3.9036   54.4991   25.7801 C   0  0  0  0  0  0
    4.8858   54.4962   26.7662 C   0  0  0  0  0  0
    6.2301   54.4986   26.4012 C   0  0  0  0  0  0
    6.5994   54.5009   25.0580 C   0  0  0  0  0  0
    5.6177   54.4965   24.0700 C   0  0  0  0  0  0
   -7.7219   46.4656   25.2030 H   0  0  0  0  0  0
   -6.1843   45.6870   24.7928 H   0  0  0  0  0  0
   -6.8439   45.5937   26.4384 H   0  0  0  0  0  0
   -6.9152   48.6954   24.3941 H   0  0  0  0  0  0
   -5.7305   50.7647   24.9974 H   0  0  0  0  0  0
   -3.6971   48.6739   28.1607 H   0  0  0  0  0  0
   -4.8686   46.6049   27.5487 H   0  0  0  0  0  0
   -0.6001   49.9195   26.5059 H   0  0  0  0  0  0
   -1.3255   50.4963   27.9708 H   0  0  0  0  0  0
   -0.0761   52.6766   26.3469 H   0  0  0  0  0  0
    1.0344   51.4670   26.8873 H   0  0  0  0  0  0
   -0.8640   51.2901   29.8995 H   0  0  0  0  0  0
   -0.2659   52.9044   31.7892 H   0  0  0  0  0  0
    1.0742   55.0212   30.9035 H   0  0  0  0  0  0
   -2.3078   49.9020   24.5928 H   0  0  0  0  0  0
   -3.1734   51.3824   24.3245 H   0  0  0  0  0  0
   -0.0298   49.8673   24.3345 H   0  0  0  0  0  0
    1.8878   50.8269   21.2567 H   0  0  0  0  0  0
    0.2727   51.4937   21.4442 H   0  0  0  0  0  0
    2.4444   53.1291   20.8273 H   0  0  0  0  0  0
    1.1049   53.6972   21.8435 H   0  0  0  0  0  0
    1.2885   53.0497   24.4562 H   0  0  0  0  0  0
    2.7018   52.0949   24.8665 H   0  0  0  0  0  0
    3.5458   54.9430   22.4165 H   0  0  0  0  0  0
    2.2822   54.9949   23.6661 H   0  0  0  0  0  0
    2.8616   54.4963   26.0682 H   0  0  0  0  0  0
    4.6058   54.4967   27.8098 H   0  0  0  0  0  0
    6.9901   54.4986   27.1702 H   0  0  0  0  0  0
    7.6401   54.4969   24.7742 H   0  0  0  0  0  0
    5.9118   54.4945   23.0303 H   0  0  0  0  0  0
    3.6406   52.5587   22.7672 H   0  0  0  0  0  0
  1  2  1  0  0  0
  1 36  1  0  0  0
  1 37  1  0  0  0
  1 38  1  0  0  0
  2  7  2  0  0  0
  2  3  1  0  0  0
  3  4  2  0  0  0
  3 39  1  0  0  0
  4  5  1  0  0  0
  4 40  1  0  0  0
  5  6  2  0  0  0
  5  8  1  0  0  0
  6  7  1  0  0  0
  6 41  1  0  0  0
  7 42  1  0  0  0
  8  9  2  0  0  0
  8 10  2  0  0  0
  8 11  1  0  0  0
 11 12  1  0  0  0
 11 19  1  0  0  0
 12 13  1  0  0  0
 12 43  1  0  0  0
 12 44  1  0  0  0
 13 14  1  0  0  0
 13 45  1  0  0  0
 13 46  1  0  0  0
 14 18  1  0  0  0
 14 15  2  0  0  0
 15 16  1  0  0  0
 15 47  1  0  0  0
 16 17  2  0  0  0
 16 48  1  0  0  0
 17 18  1  0  0  0
 17 49  1  0  0  0
 19 20  1  0  0  0
 19 50  1  0  0  0
 19 51  1  0  0  0
 20 21  2  0  0  0
 20 22  1  0  0  0
 22 23  1  0  0  0
 22 52  1  0  0  0
 23 24  1  0  0  0
 23 28  1  0  0  0
 23 25  1  0  0  0
 25 26  1  0  0  0
 25 53  1  0  0  0
 25 54  1  0  0  0
 26 27  1  0  0  0
 26 55  1  0  0  0
 26 56  1  0  0  0
 27 28  1  0  0  0
 27 29  1  0  0  0
 27 66  1  0  0  0
 28 57  1  0  0  0
 28 58  1  0  0  0
 29 30  1  0  0  0
 29 59  1  0  0  0
 29 60  1  0  0  0
 30 35  2  0  0  0
 30 31  1  0  0  0
 31 32  2  0  0  0
 31 61  1  0  0  0
 32 33  1  0  0  0
 32 62  1  0  0  0
 33 34  2  0  0  0
 33 63  1  0  0  0
 34 35  1  0  0  0
 34 64  1  0  0  0
 35 65  1  0  0  0
M  CHG  1  27   1
M  END
> <i_i_glide_confnum>
156

> <i_i_glide_lignum>
4853

> <i_i_glide_posenum>
147

> <i_i_glide_rotatable_bonds>
11

> <i_m_Source_File_Index>
883

> <b_m_subgroup_collapsed>
0

> <r_i_docking_score>
-4.61987

> <r_i_glide_ecoul>
-5.21443

> <r_i_glide_eff_state_penalty>
0

> <r_i_glide_einternal>
8.60581

> <r_i_glide_emodel>
-57.2455

> <r_i_glide_energy>
-46.3186

> <r_i_glide_erotb>
0.820626

> <r_i_glide_esite>
-0.131134

> <r_i_glide_evdw>
-41.1042

> <r_i_glide_gscore>
-4.61987

> <r_i_glide_hbond>
0

> <r_i_glide_ligand_efficiency>
-0.135879

> <r_i_glide_ligand_efficiency_ln>
-1.02066

> <r_i_glide_ligand_efficiency_sa>
-0.440194

> <r_i_glide_lipo>
-2.56195

> <r_i_glide_metal>
0

> <r_i_glide_rewards>
0.0899537

> <s_i_glide_gridfile>
wee1_glide-grid

> <s_m_Source_File>
wee1_decoys_glide_SP.sdf

> <s_m_Source_Path>
/Users/zhangxujun/Desktop

> <s_m_entry_id>
1158

> <s_m_entry_name>
wee1_decoys_glide_SP.883

> <s_m_subgroup_title>
wee1_decoys_glide_SP

> <s_m_subgroupid>
wee1_decoys_glide_SP


$$$$
