ZINC43349635_2531
                    3D
 Schrodinger Suite 2024-2.
 50 52  0  0  1  0            999 V2000
   -2.1292   50.6927   23.6829 C   0  0  0  0  0  0
   -0.7487   50.1916   24.1727 C   0  0  1  0  0  0
   -0.7547   49.1191   23.9721 H   0  0  0  0  0  0
    0.4281   50.7903   23.3849 C   0  0  0  0  0  0
    0.5192   52.1685   23.1481 C   0  0  0  0  0  0
    1.5751   52.6912   22.4083 C   0  0  0  0  0  0
    2.5372   51.8319   21.8768 C   0  0  0  0  0  0
    2.4373   50.4553   22.0810 C   0  0  0  0  0  0
    1.3947   49.9392   22.8421 C   0  0  0  0  0  0
    3.9107   52.4820   20.9278 S   0  0  0  0  0  0
    3.9048   53.9424   21.0653 O   0  0  0  0  0  0
    5.0971   51.6982   21.2836 O   0  0  0  0  0  0
    3.5046   52.0969   19.2775 N   0  0  0  0  0  0
   -0.5855   50.2842   25.6320 N   0  0  0  0  0  0
   -0.5410   51.4116   26.3610 C   0  0  0  0  0  0
   -0.9675   52.4953   25.9659 O   0  0  0  0  0  0
    0.0467   51.2136   27.5525 N   0  0  0  0  0  0
    0.3182   52.2293   28.4797 C   0  0  0  0  0  0
   -0.2476   52.0974   29.7483 C   0  0  0  0  0  0
   -0.0453   53.0834   30.7097 C   0  0  0  0  0  0
    0.7048   54.2182   30.4048 C   0  0  0  0  0  0
    1.2944   54.3440   29.1478 C   0  0  0  0  0  0
    1.1415   53.3353   28.1852 C   0  0  0  0  0  0
    1.7559   53.4318   26.9519 O   0  0  0  0  0  0
    3.0949   53.7393   26.8061 C   0  0  0  0  0  0
    3.5053   54.1819   25.5477 C   0  0  0  0  0  0
    4.8404   54.4982   25.3107 C   0  0  0  0  0  0
    5.7704   54.3656   26.3369 C   0  0  0  0  0  0
    5.3821   53.9111   27.5946 C   0  0  0  0  0  0
    4.0473   53.5876   27.8266 C   0  0  0  0  0  0
   -2.2646   50.4789   22.6222 H   0  0  0  0  0  0
   -2.9411   50.2004   24.2203 H   0  0  0  0  0  0
   -2.2532   51.7667   23.8201 H   0  0  0  0  0  0
   -0.2190   52.8439   23.5515 H   0  0  0  0  0  0
    1.6398   53.7574   22.2446 H   0  0  0  0  0  0
    3.1695   49.7826   21.6589 H   0  0  0  0  0  0
    1.3401   48.8729   23.0040 H   0  0  0  0  0  0
    3.3526   52.9264   18.6959 H   0  0  0  0  0  0
    4.1479   51.4131   18.8380 H   0  0  0  0  0  0
   -0.3963   49.4158   26.1135 H   0  0  0  0  0  0
    0.0659   50.2657   27.9000 H   0  0  0  0  0  0
   -0.8596   51.2389   29.9945 H   0  0  0  0  0  0
   -0.4957   52.9625   31.6822 H   0  0  0  0  0  0
    0.8328   54.9966   31.1419 H   0  0  0  0  0  0
    1.8853   55.2183   28.9196 H   0  0  0  0  0  0
    2.7826   54.2795   24.7517 H   0  0  0  0  0  0
    5.1482   54.8369   24.3325 H   0  0  0  0  0  0
    6.8067   54.6091   26.1548 H   0  0  0  0  0  0
    6.1129   53.8058   28.3827 H   0  0  0  0  0  0
    3.7598   53.2122   28.7953 H   0  0  0  0  0  0
  1  2  1  0  0  0
  1 31  1  0  0  0
  1 32  1  0  0  0
  1 33  1  0  0  0
  2  3  1  0  0  0
  2  4  1  0  0  0
  2 14  1  0  0  0
  4  9  2  0  0  0
  4  5  1  0  0  0
  5  6  2  0  0  0
  5 34  1  0  0  0
  6  7  1  0  0  0
  6 35  1  0  0  0
  7  8  2  0  0  0
  7 10  1  0  0  0
  8  9  1  0  0  0
  8 36  1  0  0  0
  9 37  1  0  0  0
 10 11  2  0  0  0
 10 12  2  0  0  0
 10 13  1  0  0  0
 13 38  1  0  0  0
 13 39  1  0  0  0
 14 15  1  0  0  0
 14 40  1  0  0  0
 15 16  2  0  0  0
 15 17  1  0  0  0
 17 18  1  0  0  0
 17 41  1  0  0  0
 18 23  2  0  0  0
 18 19  1  0  0  0
 19 20  2  0  0  0
 19 42  1  0  0  0
 20 21  1  0  0  0
 20 43  1  0  0  0
 21 22  2  0  0  0
 21 44  1  0  0  0
 22 23  1  0  0  0
 22 45  1  0  0  0
 23 24  1  0  0  0
 24 25  1  0  0  0
 25 30  2  0  0  0
 25 26  1  0  0  0
 26 27  2  0  0  0
 26 46  1  0  0  0
 27 28  1  0  0  0
 27 47  1  0  0  0
 28 29  2  0  0  0
 28 48  1  0  0  0
 29 30  1  0  0  0
 29 49  1  0  0  0
 30 50  1  0  0  0
M  END
> <i_i_glide_confnum>
139

> <i_i_glide_lignum>
2532

> <i_i_glide_posenum>
379

> <i_i_glide_rotatable_bonds>
8

> <i_m_Source_File_Index>
5784

> <b_m_subgroup_collapsed>
0

> <r_i_docking_score>
-6.32889

> <r_i_glide_ecoul>
-7.70973

> <r_i_glide_eff_state_penalty>
0

> <r_i_glide_einternal>
1.90721

> <r_i_glide_emodel>
-69.9457

> <r_i_glide_energy>
-51.0568

> <r_i_glide_erotb>
0.814884

> <r_i_glide_esite>
-0.229735

> <r_i_glide_evdw>
-43.3471

> <r_i_glide_gscore>
-6.32889

> <r_i_glide_hbond>
-0.16

> <r_i_glide_ligand_efficiency>
-0.218238

> <r_i_glide_ligand_efficiency_ln>
-1.44916

> <r_i_glide_ligand_efficiency_sa>
-0.670495

> <r_i_glide_lipo>
-2.90859

> <r_i_glide_metal>
0

> <r_i_glide_rewards>
-0.521638

> <s_i_glide_gridfile>
wee1_glide-grid

> <s_m_Source_File>
wee1_decoys_glide_SP.sdf

> <s_m_Source_Path>
/Users/zhangxujun/Desktop

> <s_m_entry_id>
6059

> <s_m_entry_name>
wee1_decoys_glide_SP.5784

> <s_m_subgroup_title>
wee1_decoys_glide_SP

> <s_m_subgroupid>
wee1_decoys_glide_SP


$$$$
