ZINC09236845_2237
                    3D
 Schrodinger Suite 2024-2.
 49 52  0  0  1  0            999 V2000
    2.1030   52.2160   18.8488 C   0  0  0  0  0  0
    2.0310   51.2231   19.9902 C   0  0  0  0  0  0
    2.5275   50.0128   19.9550 N   0  0  0  0  0  0
    2.2859   49.4300   21.1952 N   0  0  0  0  0  0
    1.6455   50.3085   21.9251 C   0  0  0  0  0  0
    1.4499   51.4731   21.2118 N   0  0  0  0  0  0
    0.8324   52.6596   21.6245 N   0  0  0  0  0  0
    0.9031   52.8818   23.0752 C   0  0  1  0  0  0
    0.2781   53.7509   23.2816 H   0  0  0  0  0  0
    0.1817   51.6517   23.7466 C   0  0  1  0  0  0
   -0.7850   51.4781   23.2700 H   0  0  0  0  0  0
    1.1080   50.0788   23.5890 S   0  0  0  0  0  0
   -0.1963   51.9002   25.2257 C   0  0  0  0  0  0
   -1.2438   52.4970   25.4762 O   0  0  0  0  0  0
    0.6875   51.5130   26.1680 N   0  0  0  0  0  0
    0.6705   51.8053   27.5342 C   0  0  0  0  0  0
   -0.4879   51.7922   28.3209 C   0  0  0  0  0  0
   -0.4048   52.0970   29.6809 C   0  0  0  0  0  0
    0.8284   52.4181   30.2549 C   0  0  0  0  0  0
    1.9957   52.4020   29.4773 C   0  0  0  0  0  0
    1.9016   52.0968   28.1184 C   0  0  0  0  0  0
    3.3598   52.6950   30.0912 C   0  0  0  0  0  0
    4.3438   52.1177   29.4022 F   0  0  0  0  0  0
    3.4289   52.2448   31.3439 F   0  0  0  0  0  0
    3.5599   54.0120   30.0816 F   0  0  0  0  0  0
    2.2942   53.3200   23.6164 C   0  0  0  0  0  0
    3.4552   53.2983   22.8224 C   0  0  0  0  0  0
    4.6856   53.6969   23.3415 C   0  0  0  0  0  0
    4.7961   54.0968   24.6723 C   0  0  0  0  0  0
    3.6367   54.1774   25.4538 C   0  0  0  0  0  0
    2.4037   53.8158   24.9195 C   0  0  0  0  0  0
    6.0633   54.3903   25.1391 O   0  0  0  0  0  0
    6.2789   54.4434   26.5468 C   0  0  0  0  0  0
    2.6291   51.8061   17.9862 H   0  0  0  0  0  0
    1.1106   52.5127   18.5079 H   0  0  0  0  0  0
    2.6315   53.1258   19.1385 H   0  0  0  0  0  0
    1.2864   53.4338   21.1514 H   0  0  0  0  0  0
    1.5308   51.0824   25.8220 H   0  0  0  0  0  0
   -1.4450   51.5291   27.8918 H   0  0  0  0  0  0
   -1.2946   52.0607   30.2937 H   0  0  0  0  0  0
    0.8695   52.6451   31.3108 H   0  0  0  0  0  0
    2.7956   52.0965   27.5101 H   0  0  0  0  0  0
    3.4347   52.9695   21.7961 H   0  0  0  0  0  0
    5.5676   53.6566   22.7203 H   0  0  0  0  0  0
    3.6761   54.5222   26.4759 H   0  0  0  0  0  0
    1.5314   53.9307   25.5424 H   0  0  0  0  0  0
    7.3449   54.5470   26.7477 H   0  0  0  0  0  0
    5.7748   55.2969   27.0002 H   0  0  0  0  0  0
    5.9425   53.5276   27.0391 H   0  0  0  0  0  0
  1  2  1  0  0  0
  1 34  1  0  0  0
  1 35  1  0  0  0
  1 36  1  0  0  0
  2  6  1  0  0  0
  2  3  2  0  0  0
  3  4  1  0  0  0
  4  5  2  0  0  0
  5 12  1  0  0  0
  5  6  1  0  0  0
  6  7  1  0  0  0
  7  8  1  0  0  0
  7 37  1  0  0  0
  8  9  1  0  0  0
  8 10  1  0  0  0
  8 26  1  0  0  0
 10 11  1  0  0  0
 10 12  1  0  0  0
 10 13  1  0  0  0
 13 14  2  0  0  0
 13 15  1  0  0  0
 15 16  1  0  0  0
 15 38  1  0  0  0
 16 21  2  0  0  0
 16 17  1  0  0  0
 17 18  2  0  0  0
 17 39  1  0  0  0
 18 19  1  0  0  0
 18 40  1  0  0  0
 19 20  2  0  0  0
 19 41  1  0  0  0
 20 21  1  0  0  0
 20 22  1  0  0  0
 21 42  1  0  0  0
 22 23  1  0  0  0
 22 24  1  0  0  0
 22 25  1  0  0  0
 26 31  2  0  0  0
 26 27  1  0  0  0
 27 28  2  0  0  0
 27 43  1  0  0  0
 28 29  1  0  0  0
 28 44  1  0  0  0
 29 30  2  0  0  0
 29 32  1  0  0  0
 30 31  1  0  0  0
 30 45  1  0  0  0
 31 46  1  0  0  0
 32 33  1  0  0  0
 33 47  1  0  0  0
 33 48  1  0  0  0
 33 49  1  0  0  0
M  END
> <i_i_glide_confnum>
38

> <i_i_glide_lignum>
2238

> <i_i_glide_posenum>
365

> <i_i_glide_rotatable_bonds>
6

> <i_m_Source_File_Index>
436

> <b_m_subgroup_collapsed>
0

> <r_i_docking_score>
-5.50719

> <r_i_glide_ecoul>
-2.28481

> <r_i_glide_eff_state_penalty>
0

> <r_i_glide_einternal>
4.81424

> <r_i_glide_emodel>
-56.5018

> <r_i_glide_energy>
-44.0346

> <r_i_glide_erotb>
0.39684

> <r_i_glide_esite>
-0.153318

> <r_i_glide_evdw>
-41.7498

> <r_i_glide_gscore>
-5.50719

> <r_i_glide_hbond>
-0.288907

> <r_i_glide_ligand_efficiency>
-0.177651

> <r_i_glide_ligand_efficiency_ln>
-1.24204

> <r_i_glide_ligand_efficiency_sa>
-0.55807

> <r_i_glide_lipo>
-2.38184

> <r_i_glide_metal>
0

> <r_i_glide_rewards>
-0.649757

> <s_i_glide_gridfile>
wee1_glide-grid

> <s_m_Source_File>
wee1_decoys_glide_SP.sdf

> <s_m_Source_Path>
/Users/zhangxujun/Desktop

> <s_m_entry_id>
711

> <s_m_entry_name>
wee1_decoys_glide_SP.436

> <s_m_subgroup_title>
wee1_decoys_glide_SP

> <s_m_subgroupid>
wee1_decoys_glide_SP


$$$$
