ZINC39684688_2211
                    3D
 Schrodinger Suite 2024-2.
 74 76  0  0  1  0            999 V2000
    0.1113   49.7951   17.2837 C   0  0  0  0  0  0
    1.3984   50.6559   17.2351 C   0  0  1  0  0  0
    2.2415   49.9694   17.3464 H   0  0  0  0  0  0
    1.6311   51.4155   15.8753 C   0  0  0  0  0  0
    1.8134   50.4206   14.7001 C   0  0  0  0  0  0
    2.9189   52.2815   15.9471 C   0  0  0  0  0  0
    0.4454   52.3573   15.5486 C   0  0  0  0  0  0
    1.4756   51.5672   18.3839 N   0  0  0  0  0  0
    1.6230   51.2372   19.6785 C   0  0  0  0  0  0
    1.6487   50.0737   20.0815 O   0  0  0  0  0  0
    1.8896   52.4281   20.6322 C   0  0  1  0  0  0
    2.0967   53.2964   20.0111 H   0  0  0  0  0  0
    0.6446   52.7334   21.4602 C   0  0  0  0  0  0
    0.8457   52.0808   22.7502 N   0  0  0  0  0  0
    2.1915   51.4930   22.8389 C   0  0  0  0  0  0
    2.9888   52.1997   21.7124 C   0  0  0  0  0  0
    4.2736   51.4592   21.2618 C   0  0  0  0  0  0
    4.9362   52.1913   20.0804 C   0  0  0  0  0  0
    5.2996   53.6352   20.5066 N   0  3  0  0  0  0
    4.1917   54.4310   21.2325 C   0  0  0  0  0  0
    3.5428   53.5325   22.3067 C   0  0  0  0  0  0
    0.0149   52.3418   23.7977 C   0  0  0  0  0  0
   -0.9919   53.0457   23.6816 O   0  0  0  0  0  0
    0.2511   51.6931   25.1765 C   0  0  1  0  0  0
   -0.6131   51.9791   25.7751 H   0  0  0  0  0  0
    0.2778   50.1387   25.1284 C   0  0  0  0  0  0
    0.5131   49.5769   26.5272 C   0  0  0  0  0  0
   -0.9987   49.5106   24.5222 C   0  0  0  0  0  0
    1.4849   52.2185   25.6916 O   0  0  0  0  0  0
    1.5347   52.9283   26.8774 C   0  0  0  0  0  0
    2.6731   53.7137   27.0662 C   0  0  0  0  0  0
    2.8164   54.4941   28.2109 C   0  0  0  0  0  0
    1.8208   54.4760   29.1845 C   0  0  0  0  0  0
    0.6971   53.6686   29.0304 C   0  0  0  0  0  0
    0.5536   52.8934   27.8823 C   0  0  0  0  0  0
    0.0157   49.1609   16.4051 H   0  0  0  0  0  0
    0.1174   49.1166   18.1369 H   0  0  0  0  0  0
   -0.7869   50.4105   17.3324 H   0  0  0  0  0  0
    0.9129   49.8411   14.4999 H   0  0  0  0  0  0
    2.0573   50.9402   13.7724 H   0  0  0  0  0  0
    2.6236   49.7140   14.8864 H   0  0  0  0  0  0
    2.8281   53.1000   16.6618 H   0  0  0  0  0  0
    3.7859   51.6911   16.2452 H   0  0  0  0  0  0
    3.1552   52.7339   14.9831 H   0  0  0  0  0  0
    0.2637   53.0740   16.3500 H   0  0  0  0  0  0
    0.6297   52.9317   14.6399 H   0  0  0  0  0  0
   -0.4805   51.8034   15.3905 H   0  0  0  0  0  0
    1.5077   52.5458   18.1439 H   0  0  0  0  0  0
    0.7047   53.7934   21.6645 H   0  0  0  0  0  0
   -0.3092   52.5308   20.9691 H   0  0  0  0  0  0
    2.1447   50.4408   22.5536 H   0  0  0  0  0  0
    2.7042   51.5958   23.7921 H   0  0  0  0  0  0
    4.0128   50.4598   20.9204 H   0  0  0  0  0  0
    4.9868   51.3026   22.0668 H   0  0  0  0  0  0
    4.2880   52.2728   19.2068 H   0  0  0  0  0  0
    5.8621   51.7050   19.7656 H   0  0  0  0  0  0
    5.6228   54.1518   19.6978 H   0  0  0  0  0  0
    3.5054   54.7838   20.4643 H   0  0  0  0  0  0
    4.6881   55.2953   21.6723 H   0  0  0  0  0  0
    4.2265   53.3498   23.1387 H   0  0  0  0  0  0
    2.7292   54.1112   22.7478 H   0  0  0  0  0  0
    1.1188   49.8024   24.5235 H   0  0  0  0  0  0
   -0.2127   49.9626   27.2421 H   0  0  0  0  0  0
    0.4348   48.4966   26.5358 H   0  0  0  0  0  0
    1.5043   49.8247   26.8997 H   0  0  0  0  0  0
   -1.8905   49.8028   25.0790 H   0  0  0  0  0  0
   -1.1459   49.8031   23.4818 H   0  0  0  0  0  0
   -0.9469   48.4208   24.5409 H   0  0  0  0  0  0
    3.4432   53.7278   26.3094 H   0  0  0  0  0  0
    3.6940   55.1106   28.3391 H   0  0  0  0  0  0
    1.9228   55.0875   30.0690 H   0  0  0  0  0  0
   -0.0629   53.6413   29.7983 H   0  0  0  0  0  0
   -0.3207   52.2671   27.8083 H   0  0  0  0  0  0
    6.0885   53.5797   21.1352 H   0  0  0  0  0  0
  1  2  1  0  0  0
  1 36  1  0  0  0
  1 37  1  0  0  0
  1 38  1  0  0  0
  2  3  1  0  0  0
  2  4  1  0  0  0
  2  8  1  0  0  0
  4  5  1  0  0  0
  4  6  1  0  0  0
  4  7  1  0  0  0
  5 39  1  0  0  0
  5 40  1  0  0  0
  5 41  1  0  0  0
  6 42  1  0  0  0
  6 43  1  0  0  0
  6 44  1  0  0  0
  7 45  1  0  0  0
  7 46  1  0  0  0
  7 47  1  0  0  0
  8  9  1  0  0  0
  8 48  1  0  0  0
  9 10  2  0  0  0
  9 11  1  0  0  0
 11 12  1  0  0  0
 11 16  1  0  0  0
 11 13  1  0  0  0
 13 14  1  0  0  0
 13 49  1  0  0  0
 13 50  1  0  0  0
 14 15  1  0  0  0
 14 22  1  0  0  0
 15 16  1  0  0  0
 15 51  1  0  0  0
 15 52  1  0  0  0
 16 21  1  0  0  0
 16 17  1  0  0  0
 17 18  1  0  0  0
 17 53  1  0  0  0
 17 54  1  0  0  0
 18 19  1  0  0  0
 18 55  1  0  0  0
 18 56  1  0  0  0
 19 20  1  0  0  0
 19 57  1  0  0  0
 19 74  1  0  0  0
 20 21  1  0  0  0
 20 58  1  0  0  0
 20 59  1  0  0  0
 21 60  1  0  0  0
 21 61  1  0  0  0
 22 23  2  0  0  0
 22 24  1  0  0  0
 24 25  1  0  0  0
 24 26  1  0  0  0
 24 29  1  0  0  0
 26 27  1  0  0  0
 26 28  1  0  0  0
 26 62  1  0  0  0
 27 63  1  0  0  0
 27 64  1  0  0  0
 27 65  1  0  0  0
 28 66  1  0  0  0
 28 67  1  0  0  0
 28 68  1  0  0  0
 29 30  1  0  0  0
 30 35  2  0  0  0
 30 31  1  0  0  0
 31 32  2  0  0  0
 31 69  1  0  0  0
 32 33  1  0  0  0
 32 70  1  0  0  0
 33 34  2  0  0  0
 33 71  1  0  0  0
 34 35  1  0  0  0
 34 72  1  0  0  0
 35 73  1  0  0  0
M  CHG  1  19   1
M  END
> <i_i_glide_confnum>
256

> <i_i_glide_lignum>
2212

> <i_i_glide_posenum>
343

> <i_i_glide_rotatable_bonds>
9

> <i_m_Source_File_Index>
329

> <b_m_subgroup_collapsed>
0

> <r_i_docking_score>
-3.4434

> <r_i_glide_ecoul>
-3.38322

> <r_i_glide_eff_state_penalty>
0

> <r_i_glide_einternal>
9.93965

> <r_i_glide_emodel>
-33.6624

> <r_i_glide_energy>
-30.8109

> <r_i_glide_erotb>
0.60704

> <r_i_glide_esite>
-0.0516019

> <r_i_glide_evdw>
-27.4277

> <r_i_glide_gscore>
-3.4434

> <r_i_glide_hbond>
0

> <r_i_glide_ligand_efficiency>
-0.107606

> <r_i_glide_ligand_efficiency_ln>
-0.77107

> <r_i_glide_ligand_efficiency_sa>
-0.341628

> <r_i_glide_lipo>
-1.50412

> <r_i_glide_metal>
0

> <r_i_glide_rewards>
-0.615852

> <s_i_glide_gridfile>
wee1_glide-grid

> <s_m_Source_File>
wee1_decoys_glide_SP.sdf

> <s_m_Source_Path>
/Users/zhangxujun/Desktop

> <s_m_entry_id>
604

> <s_m_entry_name>
wee1_decoys_glide_SP.329

> <s_m_subgroup_title>
wee1_decoys_glide_SP

> <s_m_subgroupid>
wee1_decoys_glide_SP


$$$$
