ZINC08385057_3480
                    3D
 Schrodinger Suite 2024-2.
 77 81  0  0  1  0            999 V2000
    2.2808   58.0535   13.2927 C   0  0  0  0  0  0
    1.8193   56.8719   14.1834 C   0  0  1  0  0  0
    2.1408   55.5449   13.4443 C   0  0  0  0  0  0
    2.1732   54.2994   14.3445 C   0  0  0  0  0  0
    2.3187   54.3811   15.7034 C   0  0  0  0  0  0
    2.4060   53.0901   16.5610 C   0  0  1  0  0  0
    1.4501   52.9774   17.0731 H   0  0  0  0  0  0
    2.7288   51.8339   15.7173 C   0  0  0  0  0  0
    1.8801   51.7262   14.4402 C   0  0  0  0  0  0
    2.2583   52.9657   13.5834 C   0  0  0  0  0  0
    2.3323   50.4626   13.6741 C   0  0  0  0  0  0
    0.3700   51.6792   14.7766 C   0  0  0  0  0  0
    3.4382   53.1718   17.6018 N   0  3  0  0  0  0
    3.3859   52.6880   18.8429 C   0  0  0  0  0  0
    4.3148   53.0275   19.7507 N   0  0  0  0  0  0
    5.4299   53.8879   19.5615 C   0  0  0  0  0  0
    6.3042   53.6958   18.4898 C   0  0  0  0  0  0
    7.4199   54.5177   18.3572 C   0  0  0  0  0  0
    7.6555   55.5225   19.2948 C   0  0  0  0  0  0
    6.7817   55.7161   20.3642 C   0  0  0  0  0  0
    5.6645   54.8965   20.4978 C   0  0  0  0  0  0
    2.3891   51.8622   19.1853 N   0  0  0  0  0  0
    2.1991   51.2942   20.4654 C   0  0  0  0  0  0
    2.4398   49.9315   20.6360 C   0  0  0  0  0  0
    2.3029   49.3678   21.8993 C   0  0  0  0  0  0
    1.8994   50.1608   22.9710 C   0  0  0  0  0  0
    1.6384   51.5212   22.7943 C   0  0  0  0  0  0
    1.7926   52.0927   21.5353 C   0  0  0  0  0  0
    2.2113   55.7647   16.4124 C   0  0  1  0  0  0
    2.6451   56.8982   15.4735 C   0  0  0  0  0  0
    0.7546   56.0004   16.8820 C   0  0  0  0  0  0
   -0.3151   56.4217   15.8196 C   0  0  0  0  0  0
    0.2901   56.9806   14.4831 C   0  0  0  0  0  0
   -1.1060   55.1559   15.4222 C   0  0  0  0  0  0
   -1.2870   57.4485   16.4578 C   0  0  0  0  0  0
    3.0851   55.8691   17.5219 O   0  0  0  0  0  0
    3.3419   57.9827   13.0440 H   0  0  0  0  0  0
    1.7278   58.0827   12.3532 H   0  0  0  0  0  0
    2.1355   59.0154   13.7880 H   0  0  0  0  0  0
    1.5026   55.3981   12.5731 H   0  0  0  0  0  0
    3.1587   55.5893   13.0533 H   0  0  0  0  0  0
    3.7934   51.8131   15.4605 H   0  0  0  0  0  0
    2.5770   50.9442   16.3328 H   0  0  0  0  0  0
    1.6756   52.9985   12.6606 H   0  0  0  0  0  0
    3.3019   52.8965   13.2731 H   0  0  0  0  0  0
    2.1461   49.5619   14.2581 H   0  0  0  0  0  0
    1.7918   50.3588   12.7350 H   0  0  0  0  0  0
    3.3962   50.4802   13.4404 H   0  0  0  0  0  0
    0.0444   52.5047   15.4030 H   0  0  0  0  0  0
   -0.2343   51.6965   13.8702 H   0  0  0  0  0  0
    0.1214   50.7641   15.3141 H   0  0  0  0  0  0
    4.1437   52.6833   20.6827 H   0  0  0  0  0  0
    6.1433   52.8929   17.7824 H   0  0  0  0  0  0
    8.1103   54.3686   17.5398 H   0  0  0  0  0  0
    8.5294   56.1500   19.1968 H   0  0  0  0  0  0
    6.9710   56.4926   21.0884 H   0  0  0  0  0  0
    4.9900   55.0431   21.3310 H   0  0  0  0  0  0
    1.8493   51.4843   18.4201 H   0  0  0  0  0  0
    2.7698   49.3241   19.8044 H   0  0  0  0  0  0
    2.5260   48.3237   22.0477 H   0  0  0  0  0  0
    1.7957   49.7146   23.9497 H   0  0  0  0  0  0
    1.3276   52.1259   23.6329 H   0  0  0  0  0  0
    1.6025   53.1477   21.3912 H   0  0  0  0  0  0
    3.7104   56.8096   15.2467 H   0  0  0  0  0  0
    2.5335   57.8627   15.9753 H   0  0  0  0  0  0
    0.3892   55.2727   17.6069 H   0  0  0  0  0  0
    0.8746   56.8964   17.4901 H   0  0  0  0  0  0
    0.2475   58.0518   14.6777 H   0  0  0  0  0  0
   -0.3655   56.9005   13.6128 H   0  0  0  0  0  0
   -1.4307   54.5754   16.2882 H   0  0  0  0  0  0
   -2.0048   55.4100   14.8575 H   0  0  0  0  0  0
   -0.5236   54.5009   14.7774 H   0  0  0  0  0  0
   -0.7703   58.3611   16.7570 H   0  0  0  0  0  0
   -2.0780   57.7354   15.7646 H   0  0  0  0  0  0
   -1.7644   57.0416   17.3514 H   0  0  0  0  0  0
    2.7212   55.3340   18.2358 H   0  0  0  0  0  0
    4.2393   53.7484   17.3810 H   0  0  0  0  0  0
  1  2  1  0  0  0
  1 37  1  0  0  0
  1 38  1  0  0  0
  1 39  1  0  0  0
  2 30  1  0  0  0
  2 33  1  0  0  0
  2  3  1  0  0  0
  3  4  1  0  0  0
  3 40  1  0  0  0
  3 41  1  0  0  0
  4 10  1  0  0  0
  4  5  2  0  0  0
  5  6  1  0  0  0
  5 29  1  0  0  0
  6  7  1  0  0  0
  6  8  1  0  0  0
  6 13  1  0  0  0
  8  9  1  0  0  0
  8 42  1  0  0  0
  8 43  1  0  0  0
  9 10  1  0  0  0
  9 11  1  0  0  0
  9 12  1  0  0  0
 10 44  1  0  0  0
 10 45  1  0  0  0
 11 46  1  0  0  0
 11 47  1  0  0  0
 11 48  1  0  0  0
 12 49  1  0  0  0
 12 50  1  0  0  0
 12 51  1  0  0  0
 13 14  2  0  0  0
 13 77  1  0  0  0
 14 15  1  0  0  0
 14 22  1  0  0  0
 15 16  1  0  0  0
 15 52  1  0  0  0
 16 21  2  0  0  0
 16 17  1  0  0  0
 17 18  2  0  0  0
 17 53  1  0  0  0
 18 19  1  0  0  0
 18 54  1  0  0  0
 19 20  2  0  0  0
 19 55  1  0  0  0
 20 21  1  0  0  0
 20 56  1  0  0  0
 21 57  1  0  0  0
 22 23  1  0  0  0
 22 58  1  0  0  0
 23 28  2  0  0  0
 23 24  1  0  0  0
 24 25  2  0  0  0
 24 59  1  0  0  0
 25 26  1  0  0  0
 25 60  1  0  0  0
 26 27  2  0  0  0
 26 61  1  0  0  0
 27 28  1  0  0  0
 27 62  1  0  0  0
 28 63  1  0  0  0
 29 30  1  0  0  0
 29 31  1  0  0  0
 29 36  1  0  0  0
 30 64  1  0  0  0
 30 65  1  0  0  0
 31 32  1  0  0  0
 31 66  1  0  0  0
 31 67  1  0  0  0
 32 33  1  0  0  0
 32 34  1  0  0  0
 32 35  1  0  0  0
 33 68  1  0  0  0
 33 69  1  0  0  0
 34 70  1  0  0  0
 34 71  1  0  0  0
 34 72  1  0  0  0
 35 73  1  0  0  0
 35 74  1  0  0  0
 35 75  1  0  0  0
 36 76  1  0  0  0
M  CHG  1  13   1
M  END
> <i_i_glide_confnum>
1

> <i_i_glide_lignum>
3481

> <i_i_glide_posenum>
64

> <i_i_glide_rotatable_bonds>
6

> <i_m_Source_File_Index>
1462

> <b_m_subgroup_collapsed>
0

> <r_i_docking_score>
-0.619172

> <r_i_glide_ecoul>
-0.0697574

> <r_i_glide_eff_state_penalty>
0

> <r_i_glide_einternal>
1.35317

> <r_i_glide_emodel>
-22.2579

> <r_i_glide_energy>
-27.0454

> <r_i_glide_erotb>
0.271519

> <r_i_glide_esite>
-0.108991

> <r_i_glide_evdw>
-26.9756

> <r_i_glide_gscore>
-0.619172

> <r_i_glide_hbond>
-0.140272

> <r_i_glide_ligand_efficiency>
-0.0176906

> <r_i_glide_ligand_efficiency_ln>
-0.135922

> <r_i_glide_ligand_efficiency_sa>
-0.0578672

> <r_i_glide_lipo>
-1.02298

> <r_i_glide_metal>
0

> <r_i_glide_rewards>
1.7408

> <s_i_glide_gridfile>
wee1_glide-grid

> <s_m_Source_File>
wee1_decoys_glide_SP.sdf

> <s_m_Source_Path>
/Users/zhangxujun/Desktop

> <s_m_entry_id>
1737

> <s_m_entry_name>
wee1_decoys_glide_SP.1462

> <s_m_subgroup_title>
wee1_decoys_glide_SP

> <s_m_subgroupid>
wee1_decoys_glide_SP


$$$$
