ZINC33689482_4843
                    3D
 Schrodinger Suite 2024-2.
 66 69  0  0  1  0            999 V2000
    4.9975   58.2405   16.7392 C   0  0  0  0  0  0
    5.9992   57.6738   17.5790 O   0  0  0  0  0  0
    5.7314   56.5233   18.3009 C   0  0  0  0  0  0
    4.5392   55.7864   18.1888 C   0  0  0  0  0  0
    4.3089   54.6749   19.0003 C   0  0  0  0  0  0
    5.2529   54.2882   19.9566 C   0  0  0  0  0  0
    6.4683   54.9739   20.0178 C   0  0  0  0  0  0
    6.7216   56.0839   19.1944 C   0  0  0  0  0  0
    7.9043   56.7996   19.2303 O   0  0  0  0  0  0
    9.0593   56.2216   19.8332 C   0  0  0  0  0  0
    4.9501   53.1365   20.9241 C   0  0  0  0  0  0
    4.4941   53.5733   22.3513 N   0  3  1  0  0  0
    5.6047   54.3057   23.1530 C   0  0  0  0  0  0
    5.5104   54.3765   24.6877 C   0  0  0  0  0  0
    4.3021   54.3372   25.3983 C   0  0  0  0  0  0
    4.2921   54.3834   26.7894 C   0  0  0  0  0  0
    5.4934   54.4737   27.4855 C   0  0  0  0  0  0
    6.7018   54.5094   26.7990 C   0  0  0  0  0  0
    6.7055   54.4693   25.4058 C   0  0  0  0  0  0
    3.1396   54.3179   22.2889 C   0  0  0  0  0  0
    2.0475   53.2970   22.5064 C   0  0  0  0  0  0
    1.2676   52.4963   21.6872 C   0  0  0  0  0  0
    0.4155   51.7702   22.5254 C   0  0  0  0  0  0
    0.7261   52.1415   23.8310 C   0  0  0  0  0  0
    1.6997   53.0832   23.7990 O   0  0  0  0  0  0
    0.1521   51.8272   25.1119 C   0  0  0  0  0  0
    0.4181   52.4935   26.1148 O   0  0  0  0  0  0
   -0.6879   50.7786   25.1120 N   0  0  0  0  0  0
   -1.4616   50.3345   26.2754 C   0  0  0  0  0  0
   -2.8317   50.9917   26.4672 C   0  0  0  0  0  0
   -3.6538   50.5042   27.4879 C   0  0  0  0  0  0
   -4.9149   51.0557   27.6965 C   0  0  0  0  0  0
   -5.3584   52.0947   26.8830 C   0  0  0  0  0  0
   -4.5488   52.5908   25.8641 C   0  0  0  0  0  0
   -3.2877   52.0401   25.6548 C   0  0  0  0  0  0
   -6.5790   52.6375   27.0890 F   0  0  0  0  0  0
    5.3660   59.1816   16.3306 H   0  0  0  0  0  0
    4.7618   57.5849   15.9001 H   0  0  0  0  0  0
    4.0794   58.4641   17.2812 H   0  0  0  0  0  0
    3.7712   56.0749   17.4869 H   0  0  0  0  0  0
    3.3728   54.1425   18.9077 H   0  0  0  0  0  0
    7.2086   54.6636   20.7349 H   0  0  0  0  0  0
    9.9044   56.8952   19.6744 H   0  0  0  0  0  0
    8.9389   56.0960   20.9094 H   0  0  0  0  0  0
    9.3071   55.2577   19.3856 H   0  0  0  0  0  0
    5.8101   52.4846   21.0753 H   0  0  0  0  0  0
    4.1364   52.5149   20.5438 H   0  0  0  0  0  0
    6.5157   53.7669   22.8906 H   0  0  0  0  0  0
    5.6877   55.2965   22.7121 H   0  0  0  0  0  0
    3.3505   54.2645   24.9150 H   0  0  0  0  0  0
    3.3545   54.3466   27.3249 H   0  0  0  0  0  0
    5.4895   54.5066   28.5655 H   0  0  0  0  0  0
    7.6258   54.5657   27.3563 H   0  0  0  0  0  0
    7.6495   54.4972   24.8820 H   0  0  0  0  0  0
    3.1044   54.8188   21.3264 H   0  0  0  0  0  0
    3.1408   55.1108   23.0326 H   0  0  0  0  0  0
    1.3049   52.4563   20.6075 H   0  0  0  0  0  0
   -0.3428   51.0637   22.2141 H   0  0  0  0  0  0
   -0.8415   50.2753   24.2537 H   0  0  0  0  0  0
   -0.8906   50.4907   27.1969 H   0  0  0  0  0  0
   -1.6081   49.2577   26.1830 H   0  0  0  0  0  0
   -3.3071   49.6973   28.1230 H   0  0  0  0  0  0
   -5.5463   50.6780   28.4900 H   0  0  0  0  0  0
   -4.8998   53.3992   25.2412 H   0  0  0  0  0  0
   -2.6733   52.4400   24.8613 H   0  0  0  0  0  0
    4.3110   52.7311   22.8782 H   0  0  0  0  0  0
  1  2  1  0  0  0
  1 37  1  0  0  0
  1 38  1  0  0  0
  1 39  1  0  0  0
  2  3  1  0  0  0
  3  8  2  0  0  0
  3  4  1  0  0  0
  4  5  2  0  0  0
  4 40  1  0  0  0
  5  6  1  0  0  0
  5 41  1  0  0  0
  6  7  2  0  0  0
  6 11  1  0  0  0
  7  8  1  0  0  0
  7 42  1  0  0  0
  8  9  1  0  0  0
  9 10  1  0  0  0
 10 43  1  0  0  0
 10 44  1  0  0  0
 10 45  1  0  0  0
 11 12  1  0  0  0
 11 46  1  0  0  0
 11 47  1  0  0  0
 12 13  1  0  0  0
 12 20  1  0  0  0
 12 66  1  0  0  0
 13 14  1  0  0  0
 13 48  1  0  0  0
 13 49  1  0  0  0
 14 19  2  0  0  0
 14 15  1  0  0  0
 15 16  2  0  0  0
 15 50  1  0  0  0
 16 17  1  0  0  0
 16 51  1  0  0  0
 17 18  2  0  0  0
 17 52  1  0  0  0
 18 19  1  0  0  0
 18 53  1  0  0  0
 19 54  1  0  0  0
 20 21  1  0  0  0
 20 55  1  0  0  0
 20 56  1  0  0  0
 21 25  1  0  0  0
 21 22  2  0  0  0
 22 23  1  0  0  0
 22 57  1  0  0  0
 23 24  2  0  0  0
 23 58  1  0  0  0
 24 25  1  0  0  0
 24 26  1  0  0  0
 26 27  2  0  0  0
 26 28  1  0  0  0
 28 29  1  0  0  0
 28 59  1  0  0  0
 29 30  1  0  0  0
 29 60  1  0  0  0
 29 61  1  0  0  0
 30 35  2  0  0  0
 30 31  1  0  0  0
 31 32  2  0  0  0
 31 62  1  0  0  0
 32 33  1  0  0  0
 32 63  1  0  0  0
 33 34  2  0  0  0
 33 36  1  0  0  0
 34 35  1  0  0  0
 34 64  1  0  0  0
 35 65  1  0  0  0
M  CHG  1  12   1
M  END
> <i_i_glide_confnum>
95

> <i_i_glide_lignum>
4844

> <i_i_glide_posenum>
227

> <i_i_glide_rotatable_bonds>
12

> <i_m_Source_File_Index>
1580

> <b_m_subgroup_collapsed>
0

> <r_i_docking_score>
-4.9921

> <r_i_glide_ecoul>
-4.92145

> <r_i_glide_eff_state_penalty>
0

> <r_i_glide_einternal>
8.934

> <r_i_glide_emodel>
-58.8895

> <r_i_glide_energy>
-47.0309

> <r_i_glide_erotb>
0.679087

> <r_i_glide_esite>
-0.0161718

> <r_i_glide_evdw>
-42.1095

> <r_i_glide_gscore>
-4.9921

> <r_i_glide_hbond>
-0.0371049

> <r_i_glide_ligand_efficiency>
-0.138669

> <r_i_glide_ligand_efficiency_ln>
-1.08914

> <r_i_glide_ligand_efficiency_sa>
-0.457876

> <r_i_glide_lipo>
-2.55332

> <r_i_glide_metal>
0

> <r_i_glide_rewards>
-0.220895

> <s_i_glide_gridfile>
wee1_glide-grid

> <s_m_Source_File>
wee1_decoys_glide_SP.sdf

> <s_m_Source_Path>
/Users/zhangxujun/Desktop

> <s_m_entry_id>
1855

> <s_m_entry_name>
wee1_decoys_glide_SP.1580

> <s_m_subgroup_title>
wee1_decoys_glide_SP

> <s_m_subgroupid>
wee1_decoys_glide_SP


$$$$
