ZINC05033447_3910
                    3D
 Schrodinger Suite 2024-2.
 54 59  0  0  1  0            999 V2000
    5.2712   54.5109   26.0743 C   0  0  0  0  0  0
    6.4705   55.1781   25.8932 C   0  0  0  0  0  0
    6.9922   55.4055   24.6219 C   0  0  0  0  0  0
    6.2786   54.8991   23.5328 C   0  0  0  0  0  0
    5.0175   54.2497   23.6787 C   0  0  0  0  0  0
    4.5242   54.0718   24.9817 C   0  0  0  0  0  0
    4.5198   53.9428   22.3522 C   0  0  0  0  0  0
    5.5036   54.3890   21.4883 C   0  0  0  0  0  0
    6.5483   54.9407   22.1850 N   0  0  0  0  0  0
    7.3671   55.3238   21.7377 H   0  0  0  0  0  0
    3.2545   53.3338   21.9570 C   0  0  0  0  0  0
    2.4161   52.9497   22.8258 N   0  0  0  0  0  0
    1.2619   52.4875   22.2960 N   0  0  0  0  0  0
    0.2434   51.9443   23.0060 C   0  0  0  0  0  0
   -0.7441   51.4797   22.4360 O   0  0  0  0  0  0
    0.3261   51.9198   24.4519 C   0  0  0  0  0  0
    0.8591   52.8226   25.3608 C   0  0  0  0  0  0
    0.6298   52.3122   26.6482 C   0  0  0  0  0  0
   -0.1092   51.2245   26.5716 N   0  0  0  0  0  0
   -0.3083   51.0170   25.2652 N   0  0  0  0  0  0
   -0.8569   50.2369   24.9330 H   0  0  0  0  0  0
    1.1004   52.8569   27.9990 C   0  0  0  0  0  0
    2.0003   54.1165   27.8133 C   0  0  0  0  0  0
    2.5080   54.6804   29.1596 C   0  0  1  0  0  0
    1.2780   55.0839   30.0160 C   0  0  0  0  0  0
    0.3864   53.8399   30.2604 C   0  0  1  0  0  0
   -0.0957   53.2852   28.8949 C   0  0  0  0  0  0
    1.2000   52.7430   30.9900 C   0  0  0  0  0  0
    2.4313   52.3483   30.1323 C   0  0  2  0  0  0
    3.3350   53.5769   29.8648 C   0  0  0  0  0  0
    1.9268   51.7880   28.7778 C   0  0  0  0  0  0
    4.9216   54.3433   27.0813 H   0  0  0  0  0  0
    7.0007   55.5308   26.7669 H   0  0  0  0  0  0
    7.9043   55.9631   24.4815 H   0  0  0  0  0  0
    3.5963   53.5515   25.1382 H   0  0  0  0  0  0
    5.5442   54.3593   20.4074 H   0  0  0  0  0  0
    3.1196   53.2627   20.8782 H   0  0  0  0  0  0
    1.2056   52.5203   21.2879 H   0  0  0  0  0  0
    1.3829   53.7325   25.1167 H   0  0  0  0  0  0
    1.4577   54.8968   27.2821 H   0  0  0  0  0  0
    2.8435   53.8520   27.1865 H   0  0  0  0  0  0
    3.1364   55.5547   28.9832 H   0  0  0  0  0  0
    1.5817   55.5327   30.9586 H   0  0  0  0  0  0
    0.7053   55.8581   29.5025 H   0  0  0  0  0  0
   -0.4751   54.1211   30.8667 H   0  0  0  0  0  0
   -0.7727   52.4443   29.0571 H   0  0  0  0  0  0
   -0.6714   54.0476   28.3720 H   0  0  0  0  0  0
    0.5647   51.8736   31.1666 H   0  0  0  0  0  0
    1.5038   53.0803   31.9785 H   0  0  0  0  0  0
    3.0155   51.5977   30.6574 H   0  0  0  0  0  0
    3.7825   53.9383   30.7880 H   0  0  0  0  0  0
    4.1836   53.2885   29.2415 H   0  0  0  0  0  0
    2.7678   51.4595   28.1695 H   0  0  0  0  0  0
    1.3216   50.8967   28.9504 H   0  0  0  0  0  0
  1  6  2  0  0  0
  1  2  1  0  0  0
  1 32  1  0  0  0
  2  3  2  0  0  0
  2 33  1  0  0  0
  3  4  1  0  0  0
  3 34  1  0  0  0
  4  9  1  0  0  0
  4  5  2  0  0  0
  5  6  1  0  0  0
  5  7  1  0  0  0
  6 35  1  0  0  0
  7  8  2  0  0  0
  7 11  1  0  0  0
  8  9  1  0  0  0
  8 36  1  0  0  0
  9 10  1  0  0  0
 11 12  2  0  0  0
 11 37  1  0  0  0
 12 13  1  0  0  0
 13 14  1  0  0  0
 13 38  1  0  0  0
 14 15  2  0  0  0
 14 16  1  0  0  0
 16 20  1  0  0  0
 16 17  2  0  0  0
 17 18  1  0  0  0
 17 39  1  0  0  0
 18 19  2  0  0  0
 18 22  1  0  0  0
 19 20  1  0  0  0
 20 21  1  0  0  0
 22 27  1  0  0  0
 22 31  1  0  0  0
 22 23  1  0  0  0
 23 24  1  0  0  0
 23 40  1  0  0  0
 23 41  1  0  0  0
 24 30  1  0  0  0
 24 25  1  0  0  0
 24 42  1  0  0  0
 25 26  1  0  0  0
 25 43  1  0  0  0
 25 44  1  0  0  0
 26 27  1  0  0  0
 26 28  1  0  0  0
 26 45  1  0  0  0
 27 46  1  0  0  0
 27 47  1  0  0  0
 28 29  1  0  0  0
 28 48  1  0  0  0
 28 49  1  0  0  0
 29 30  1  0  0  0
 29 31  1  0  0  0
 29 50  1  0  0  0
 30 51  1  0  0  0
 30 52  1  0  0  0
 31 53  1  0  0  0
 31 54  1  0  0  0
M  END
> <i_i_glide_confnum>
14

> <i_i_glide_lignum>
3911

> <i_i_glide_posenum>
290

> <i_i_glide_rotatable_bonds>
5

> <i_m_Source_File_Index>
1631

> <b_m_subgroup_collapsed>
0

> <r_i_docking_score>
-6.26935

> <r_i_glide_ecoul>
-0.95254

> <r_i_glide_eff_state_penalty>
0

> <r_i_glide_einternal>
1.64905

> <r_i_glide_emodel>
-61.8178

> <r_i_glide_energy>
-44.9944

> <r_i_glide_erotb>
0.51883

> <r_i_glide_esite>
-0.0109516

> <r_i_glide_evdw>
-44.0419

> <r_i_glide_gscore>
-6.26935

> <r_i_glide_hbond>
0

> <r_i_glide_ligand_efficiency>
-0.216184

> <r_i_glide_ligand_efficiency_ln>
-1.43552

> <r_i_glide_ligand_efficiency_sa>
-0.664187

> <r_i_glide_lipo>
-3.42347

> <r_i_glide_metal>
0

> <r_i_glide_rewards>
-1.00878

> <s_i_glide_gridfile>
wee1_glide-grid

> <s_m_Source_File>
wee1_decoys_glide_SP.sdf

> <s_m_Source_Path>
/Users/zhangxujun/Desktop

> <s_m_entry_id>
1906

> <s_m_entry_name>
wee1_decoys_glide_SP.1631

> <s_m_subgroup_title>
wee1_decoys_glide_SP

> <s_m_subgroupid>
wee1_decoys_glide_SP


$$$$
