ZINC26053292_2108
                    3D
 Schrodinger Suite 2024-2.
 61 64  0  0  1  0            999 V2000
    9.7546   55.7401   17.2466 C   0  0  0  0  0  0
    8.2850   55.6719   17.6481 C   0  0  0  0  0  0
    7.9886   55.5135   19.0038 C   0  0  0  0  0  0
    6.6673   55.4047   19.4387 C   0  0  0  0  0  0
    5.6329   55.4677   18.5041 C   0  0  0  0  0  0
    5.9016   55.6605   17.1458 C   0  0  0  0  0  0
    7.2402   55.7550   16.7027 C   0  0  0  0  0  0
    7.5584   55.9653   15.2214 C   0  0  0  0  0  0
    4.4825   55.7759   16.0344 S   0  0  0  0  0  0
    3.2715   55.5001   16.8169 O   0  0  0  0  0  0
    4.7885   54.9840   14.8382 O   0  0  0  0  0  0
    4.4168   57.4634   15.5445 N   0  0  0  0  0  0
    4.0970   58.5022   16.5440 C   0  0  0  0  0  0
    6.3640   55.2967   20.9029 C   0  0  0  0  0  0
    6.8815   56.0964   21.6815 O   0  0  0  0  0  0
    5.5041   54.3129   21.2461 N   0  0  0  0  0  0
    4.8307   54.2113   22.4737 C   0  0  0  0  0  0
    3.4455   54.1052   22.3595 C   0  0  0  0  0  0
    2.6408   54.1825   23.4840 C   0  0  0  0  0  0
    3.2189   54.3689   24.7312 C   0  0  0  0  0  0
    4.6151   54.3753   24.9071 C   0  0  0  0  0  0
    5.4394   54.2630   23.7537 C   0  0  0  0  0  0
    6.9605   54.1236   23.8875 C   0  0  0  0  0  0
    5.1865   54.5913   26.3083 C   0  0  0  0  0  0
    6.2217   55.2528   26.4401 O   0  0  0  0  0  0
    4.5135   54.0961   27.3878 N   0  0  0  0  0  0
    4.9668   54.3773   28.7647 C   0  0  0  0  0  0
    3.7398   54.6594   29.6818 C   0  0  0  0  0  0
    2.5693   53.7354   29.3795 C   0  0  0  0  0  0
    2.5317   52.9145   28.2634 C   0  0  0  0  0  0
    1.3717   52.1287   28.2121 C   0  0  0  0  0  0
    0.4954   52.3919   29.2558 C   0  0  0  0  0  0
    1.1056   53.6189   30.3156 S   0  0  0  0  0  0
    3.6950   52.8758   27.2964 C   0  0  0  0  0  0
   10.4219   55.5159   18.0816 H   0  0  0  0  0  0
    9.9679   55.0139   16.4619 H   0  0  0  0  0  0
   10.0027   56.7316   16.8652 H   0  0  0  0  0  0
    8.7952   55.4693   19.7248 H   0  0  0  0  0  0
    4.6065   55.4060   18.8424 H   0  0  0  0  0  0
    8.5667   56.3339   15.0370 H   0  0  0  0  0  0
    7.4203   55.0345   14.6709 H   0  0  0  0  0  0
    6.8991   56.7121   14.7833 H   0  0  0  0  0  0
    5.0441   57.7354   14.7840 H   0  0  0  0  0  0
    3.6744   59.3728   16.0440 H   0  0  0  0  0  0
    5.0098   58.8160   17.0530 H   0  0  0  0  0  0
    3.3903   58.1217   17.2804 H   0  0  0  0  0  0
    5.1194   53.7694   20.4881 H   0  0  0  0  0  0
    2.9751   54.0339   21.3879 H   0  0  0  0  0  0
    1.5660   54.1526   23.3817 H   0  0  0  0  0  0
    2.5545   54.4955   25.5735 H   0  0  0  0  0  0
    7.2148   53.4630   24.7159 H   0  0  0  0  0  0
    7.4231   53.6759   23.0084 H   0  0  0  0  0  0
    7.4205   55.0942   24.0752 H   0  0  0  0  0  0
    5.5091   53.5066   29.1343 H   0  0  0  0  0  0
    5.6422   55.2334   28.8139 H   0  0  0  0  0  0
    4.0856   54.4969   30.6988 H   0  0  0  0  0  0
    3.4351   55.6990   29.5697 H   0  0  0  0  0  0
    1.1752   51.3964   27.4415 H   0  0  0  0  0  0
   -0.4611   51.9261   29.4506 H   0  0  0  0  0  0
    3.4350   52.5370   26.2969 H   0  0  0  0  0  0
    4.3642   52.1003   27.6697 H   0  0  0  0  0  0
  1  2  1  0  0  0
  1 35  1  0  0  0
  1 36  1  0  0  0
  1 37  1  0  0  0
  2  7  2  0  0  0
  2  3  1  0  0  0
  3  4  2  0  0  0
  3 38  1  0  0  0
  4  5  1  0  0  0
  4 14  1  0  0  0
  5  6  2  0  0  0
  5 39  1  0  0  0
  6  7  1  0  0  0
  6  9  1  0  0  0
  7  8  1  0  0  0
  8 40  1  0  0  0
  8 41  1  0  0  0
  8 42  1  0  0  0
  9 10  2  0  0  0
  9 11  2  0  0  0
  9 12  1  0  0  0
 12 13  1  0  0  0
 12 43  1  0  0  0
 13 44  1  0  0  0
 13 45  1  0  0  0
 13 46  1  0  0  0
 14 15  2  0  0  0
 14 16  1  0  0  0
 16 17  1  0  0  0
 16 47  1  0  0  0
 17 22  2  0  0  0
 17 18  1  0  0  0
 18 19  2  0  0  0
 18 48  1  0  0  0
 19 20  1  0  0  0
 19 49  1  0  0  0
 20 21  2  0  0  0
 20 50  1  0  0  0
 21 22  1  0  0  0
 21 24  1  0  0  0
 22 23  1  0  0  0
 23 51  1  0  0  0
 23 52  1  0  0  0
 23 53  1  0  0  0
 24 25  2  0  0  0
 24 26  1  0  0  0
 26 34  1  0  0  0
 26 27  1  0  0  0
 27 28  1  0  0  0
 27 54  1  0  0  0
 27 55  1  0  0  0
 28 29  1  0  0  0
 28 56  1  0  0  0
 28 57  1  0  0  0
 29 33  1  0  0  0
 29 30  2  0  0  0
 30 31  1  0  0  0
 30 34  1  0  0  0
 31 32  2  0  0  0
 31 58  1  0  0  0
 32 33  1  0  0  0
 32 59  1  0  0  0
 34 60  1  0  0  0
 34 61  1  0  0  0
M  END
> <i_i_glide_confnum>
177

> <i_i_glide_lignum>
2109

> <i_i_glide_posenum>
253

> <i_i_glide_rotatable_bonds>
7

> <i_m_Source_File_Index>
4837

> <b_m_subgroup_collapsed>
0

> <r_i_docking_score>
-5.74762

> <r_i_glide_ecoul>
-5.65593

> <r_i_glide_eff_state_penalty>
0

> <r_i_glide_einternal>
10.9984

> <r_i_glide_emodel>
-62.9765

> <r_i_glide_energy>
-51.8264

> <r_i_glide_erotb>
0.494283

> <r_i_glide_esite>
-0.0117792

> <r_i_glide_evdw>
-46.1705

> <r_i_glide_gscore>
-5.74762

> <r_i_glide_hbond>
0

> <r_i_glide_ligand_efficiency>
-0.169048

> <r_i_glide_ligand_efficiency_ln>
-1.26981

> <r_i_glide_ligand_efficiency_sa>
-0.547649

> <r_i_glide_lipo>
-2.54327

> <r_i_glide_metal>
0

> <r_i_glide_rewards>
-0.529946

> <s_i_glide_gridfile>
wee1_glide-grid

> <s_m_Source_File>
wee1_decoys_glide_SP.sdf

> <s_m_Source_Path>
/Users/zhangxujun/Desktop

> <s_m_entry_id>
5112

> <s_m_entry_name>
wee1_decoys_glide_SP.4837

> <s_m_subgroup_title>
wee1_decoys_glide_SP

> <s_m_subgroupid>
wee1_decoys_glide_SP


$$$$
