ZINC05295854_5863
                    3D
 Schrodinger Suite 2024-2.
 66 71  0  0  1  0            999 V2000
    1.3251   52.2377   24.4512 C   0  0  0  0  0  0
    0.2399   51.3428   23.7817 C   0  0  2  0  0  0
    0.7278   49.8480   23.6953 C   0  0  0  0  0  0
    1.3476   49.3965   22.3481 C   0  0  0  0  0  0
    2.1549   50.5259   21.6805 C   0  0  2  0  0  0
    2.9959   50.7728   22.3330 H   0  0  0  0  0  0
    1.3266   51.8228   21.4593 C   0  0  0  0  0  0
    0.0570   51.8289   22.3229 C   0  0  0  0  0  0
   -1.1482   52.0964   21.7850 C   0  0  0  0  0  0
   -2.4781   51.9537   22.4904 C   0  0  0  0  0  0
   -2.3740   51.1320   23.8005 C   0  0  1  0  0  0
   -2.2890   50.0805   23.5312 H   0  0  0  0  0  0
   -1.1017   51.5242   24.6029 C   0  0  1  0  0  0
   -1.2143   52.5877   24.8320 H   0  0  0  0  0  0
   -1.0894   50.7589   25.9485 C   0  0  0  0  0  0
   -2.3163   51.0740   26.8126 C   0  0  0  0  0  0
   -3.6904   50.8577   26.1075 C   0  0  1  0  0  0
   -3.7003   51.3200   24.6126 C   0  0  2  0  0  0
   -3.9251   52.3867   24.5910 H   0  0  0  0  0  0
   -4.8916   50.5561   23.9937 C   0  0  0  0  0  0
   -5.0392   49.2450   24.7737 C   0  0  2  0  0  0
   -6.0853   49.0933   25.0372 H   0  0  0  0  0  0
   -4.1429   49.3521   26.0310 C   0  0  1  0  0  0
   -3.1089   48.4472   25.6653 O   0  0  0  0  0  0
   -3.5668   47.4900   24.7706 C   0  0  0  0  0  0
   -4.5601   48.1215   24.0428 O   0  0  0  0  0  0
   -4.1513   46.2867   25.5136 C   0  0  0  0  0  0
   -2.4347   47.0840   23.8405 C   0  0  0  0  0  0
   -4.8102   48.8320   27.3134 C   0  0  0  0  0  0
   -6.1277   48.6186   27.7022 C   0  0  0  0  0  0
   -6.0782   48.1748   29.0250 C   0  0  0  0  0  0
   -4.8490   48.0947   29.4707 N   0  0  0  0  0  0
   -4.0957   48.5064   28.4409 N   0  0  0  0  0  0
   -3.0701   48.4971   28.4816 H   0  0  0  0  0  0
   -4.7334   51.7201   26.8826 C   0  0  0  0  0  0
    2.7057   50.0749   20.4629 O   0  0  0  0  0  0
    1.0397   53.2920   24.4324 H   0  0  0  0  0  0
    1.4917   51.9720   25.4923 H   0  0  0  0  0  0
    2.2992   52.1604   23.9723 H   0  0  0  0  0  0
    1.4471   49.6472   24.4872 H   0  0  0  0  0  0
   -0.0961   49.1619   23.8869 H   0  0  0  0  0  0
    1.9563   48.4974   22.4755 H   0  0  0  0  0  0
    0.5282   49.1175   21.6809 H   0  0  0  0  0  0
    1.9337   52.7023   21.6722 H   0  0  0  0  0  0
    1.0485   51.9145   20.4085 H   0  0  0  0  0  0
   -1.1723   52.3915   20.7453 H   0  0  0  0  0  0
   -2.8903   52.9476   22.6684 H   0  0  0  0  0  0
   -3.1603   51.4538   21.8036 H   0  0  0  0  0  0
   -0.9976   49.6849   25.8061 H   0  0  0  0  0  0
   -0.2024   51.0181   26.5228 H   0  0  0  0  0  0
   -2.2840   50.5599   27.7759 H   0  0  0  0  0  0
   -2.2182   52.1325   27.0570 H   0  0  0  0  0  0
   -5.8058   51.1426   24.0845 H   0  0  0  0  0  0
   -4.7448   50.3748   22.9282 H   0  0  0  0  0  0
   -5.0658   46.5540   26.0409 H   0  0  0  0  0  0
   -4.4074   45.4989   24.8025 H   0  0  0  0  0  0
   -3.4263   45.9040   26.2384 H   0  0  0  0  0  0
   -1.5942   46.7026   24.4213 H   0  0  0  0  0  0
   -2.7732   46.3154   23.1464 H   0  0  0  0  0  0
   -2.0946   47.9360   23.2577 H   0  0  0  0  0  0
   -7.0172   48.7702   27.1081 H   0  0  0  0  0  0
   -6.9225   47.9136   29.6462 H   0  0  0  0  0  0
   -4.5086   52.7841   26.8153 H   0  0  0  0  0  0
   -5.7464   51.5805   26.5058 H   0  0  0  0  0  0
   -4.7459   51.4719   27.9453 H   0  0  0  0  0  0
    3.1583   49.2393   20.6106 H   0  0  0  0  0  0
  1  2  1  0  0  0
  1 37  1  0  0  0
  1 38  1  0  0  0
  1 39  1  0  0  0
  2  8  1  0  0  0
  2 13  1  0  0  0
  2  3  1  0  0  0
  3  4  1  0  0  0
  3 40  1  0  0  0
  3 41  1  0  0  0
  4  5  1  0  0  0
  4 42  1  0  0  0
  4 43  1  0  0  0
  5  6  1  0  0  0
  5  7  1  0  0  0
  5 36  1  0  0  0
  7  8  1  0  0  0
  7 44  1  0  0  0
  7 45  1  0  0  0
  8  9  2  0  0  0
  9 10  1  0  0  0
  9 46  1  0  0  0
 10 11  1  0  0  0
 10 47  1  0  0  0
 10 48  1  0  0  0
 11 12  1  0  0  0
 11 18  1  0  0  0
 11 13  1  0  0  0
 13 14  1  0  0  0
 13 15  1  0  0  0
 15 16  1  0  0  0
 15 49  1  0  0  0
 15 50  1  0  0  0
 16 17  1  0  0  0
 16 51  1  0  0  0
 16 52  1  0  0  0
 17 23  1  0  0  0
 17 18  1  0  0  0
 17 35  1  0  0  0
 18 19  1  0  0  0
 18 20  1  0  0  0
 20 21  1  0  0  0
 20 53  1  0  0  0
 20 54  1  0  0  0
 21 22  1  0  0  0
 21 26  1  0  0  0
 21 23  1  0  0  0
 23 24  1  0  0  0
 23 29  1  0  0  0
 24 25  1  0  0  0
 25 26  1  0  0  0
 25 27  1  0  0  0
 25 28  1  0  0  0
 27 55  1  0  0  0
 27 56  1  0  0  0
 27 57  1  0  0  0
 28 58  1  0  0  0
 28 59  1  0  0  0
 28 60  1  0  0  0
 29 33  1  0  0  0
 29 30  2  0  0  0
 30 31  1  0  0  0
 30 61  1  0  0  0
 31 32  2  0  0  0
 31 62  1  0  0  0
 32 33  1  0  0  0
 33 34  1  0  0  0
 35 63  1  0  0  0
 35 64  1  0  0  0
 35 65  1  0  0  0
 36 66  1  0  0  0
M  END
> <i_i_glide_confnum>
2

> <i_i_glide_lignum>
5864

> <i_i_glide_posenum>
38

> <i_i_glide_rotatable_bonds>
2

> <i_m_Source_File_Index>
982

> <b_m_subgroup_collapsed>
0

> <r_i_docking_score>
-3.24963

> <r_i_glide_ecoul>
-4.17173

> <r_i_glide_eff_state_penalty>
0

> <r_i_glide_einternal>
0.0902202

> <r_i_glide_emodel>
-34.7691

> <r_i_glide_energy>
-28.5662

> <r_i_glide_erotb>
0.115858

> <r_i_glide_esite>
-0.127923

> <r_i_glide_evdw>
-24.3945

> <r_i_glide_gscore>
-3.24963

> <r_i_glide_hbond>
-0.335838

> <r_i_glide_ligand_efficiency>
-0.108321

> <r_i_glide_ligand_efficiency_ln>
-0.738351

> <r_i_glide_ligand_efficiency_sa>
-0.336578

> <r_i_glide_lipo>
-0.460091

> <r_i_glide_metal>
0

> <r_i_glide_rewards>
-0.596148

> <s_i_glide_gridfile>
wee1_glide-grid

> <s_m_Source_File>
wee1_decoys_glide_SP.sdf

> <s_m_Source_Path>
/Users/zhangxujun/Desktop

> <s_m_entry_id>
1257

> <s_m_entry_name>
wee1_decoys_glide_SP.982

> <s_m_subgroup_title>
wee1_decoys_glide_SP

> <s_m_subgroupid>
wee1_decoys_glide_SP


$$$$
