ZINC22506424_5668
                    3D
 Schrodinger Suite 2024-2.
 67 70  0  0  1  0            999 V2000
    1.3806   51.5480   23.4032 C   0  0  0  0  0  0
    0.2009   50.7725   24.0245 C   0  0  1  0  0  0
   -0.5783   50.7507   23.2659 H   0  0  0  0  0  0
    0.6048   49.2906   24.2911 C   0  0  0  0  0  0
   -0.4952   48.3495   24.8416 C   0  0  0  0  0  0
   -1.7064   48.1421   23.9044 C   0  0  0  0  0  0
   -2.7918   47.1820   24.4546 C   0  0  0  0  0  0
   -3.5299   47.6181   25.7479 C   0  0  0  0  0  0
   -4.7334   48.5837   25.5856 C   0  0  0  0  0  0
   -4.4732   49.9271   24.8725 C   0  0  0  0  0  0
   -3.3718   50.8008   25.5138 C   0  0  0  0  0  0
   -2.7925   51.8492   24.5386 C   0  0  0  0  0  0
   -1.4687   52.5171   24.9899 C   0  0  0  0  0  0
   -0.3007   51.5283   25.2787 C   0  0  0  0  0  0
    0.2724   51.3208   26.4144 N   0  0  0  0  0  0
   -0.1053   52.0543   27.4480 N   0  5  0  0  0  0
    0.7536   52.1851   28.3722 C   0  0  0  0  0  0
    1.8404   51.5857   28.6603 N   0  0  0  0  0  0
    2.5302   52.1398   29.7032 C   0  0  0  0  0  0
    3.5694   51.6967   30.1845 O   0  0  0  0  0  0
    1.9132   53.4333   30.2226 C   0  0  2  0  0  0
    1.7385   53.2977   31.2889 H   0  0  0  0  0  0
    0.3035   53.5479   29.4301 S   0  0  0  0  0  0
    2.8662   54.6372   29.9320 C   0  0  0  0  0  0
    3.1921   54.8541   28.4422 C   0  0  0  0  0  0
    2.3190   55.2967   27.7012 O   0  0  0  0  0  0
    4.4236   54.4925   28.0238 N   0  0  0  0  0  0
    4.8283   54.4572   26.6973 C   0  0  0  0  0  0
    4.0508   54.2826   25.6420 N   0  0  0  0  0  0
    4.7717   54.2611   24.5410 C   0  0  0  0  0  0
    6.1269   54.4198   24.6765 C   0  0  0  0  0  0
    6.5296   54.5965   26.3555 S   0  0  0  0  0  0
    6.8609   54.3926   23.3698 C   0  0  0  0  0  0
    5.7421   53.9738   22.3930 C   0  0  0  0  0  0
    4.3759   54.0744   23.1055 C   0  0  0  0  0  0
    1.0871   52.5569   23.1030 H   0  0  0  0  0  0
    2.2157   51.6410   24.1011 H   0  0  0  0  0  0
    1.7599   51.0448   22.5111 H   0  0  0  0  0  0
    0.9934   48.8559   23.3670 H   0  0  0  0  0  0
    1.4471   49.2707   24.9838 H   0  0  0  0  0  0
   -0.8115   48.7066   25.8215 H   0  0  0  0  0  0
   -0.0488   47.3721   25.0238 H   0  0  0  0  0  0
   -1.3436   47.7379   22.9581 H   0  0  0  0  0  0
   -2.1462   49.0987   23.6483 H   0  0  0  0  0  0
   -2.3110   46.2205   24.6466 H   0  0  0  0  0  0
   -3.5290   46.9887   23.6743 H   0  0  0  0  0  0
   -2.8308   48.0132   26.4809 H   0  0  0  0  0  0
   -3.9171   46.7153   26.2219 H   0  0  0  0  0  0
   -5.1397   48.7903   26.5747 H   0  0  0  0  0  0
   -5.5267   48.0611   25.0489 H   0  0  0  0  0  0
   -5.3996   50.5015   24.8453 H   0  0  0  0  0  0
   -4.2421   49.7212   23.8280 H   0  0  0  0  0  0
   -2.5691   50.1616   25.8707 H   0  0  0  0  0  0
   -3.7555   51.2915   26.4090 H   0  0  0  0  0  0
   -3.5404   52.6277   24.3841 H   0  0  0  0  0  0
   -2.6527   51.4024   23.5543 H   0  0  0  0  0  0
   -1.6958   53.1469   25.8511 H   0  0  0  0  0  0
   -1.1470   53.2187   24.2175 H   0  0  0  0  0  0
    3.7997   54.4965   30.4808 H   0  0  0  0  0  0
    2.4251   55.5549   30.3268 H   0  0  0  0  0  0
    5.1257   54.2817   28.7192 H   0  0  0  0  0  0
    7.6806   53.6743   23.3563 H   0  0  0  0  0  0
    7.2721   55.3681   23.1108 H   0  0  0  0  0  0
    5.9044   52.9387   22.0887 H   0  0  0  0  0  0
    5.7625   54.5717   21.4801 H   0  0  0  0  0  0
    3.7785   54.8991   22.7227 H   0  0  0  0  0  0
    3.7917   53.1663   22.9459 H   0  0  0  0  0  0
  1  2  1  0  0  0
  1 36  1  0  0  0
  1 37  1  0  0  0
  1 38  1  0  0  0
  2  3  1  0  0  0
  2 14  1  0  0  0
  2  4  1  0  0  0
  4  5  1  0  0  0
  4 39  1  0  0  0
  4 40  1  0  0  0
  5  6  1  0  0  0
  5 41  1  0  0  0
  5 42  1  0  0  0
  6  7  1  0  0  0
  6 43  1  0  0  0
  6 44  1  0  0  0
  7  8  1  0  0  0
  7 45  1  0  0  0
  7 46  1  0  0  0
  8  9  1  0  0  0
  8 47  1  0  0  0
  8 48  1  0  0  0
  9 10  1  0  0  0
  9 49  1  0  0  0
  9 50  1  0  0  0
 10 11  1  0  0  0
 10 51  1  0  0  0
 10 52  1  0  0  0
 11 12  1  0  0  0
 11 53  1  0  0  0
 11 54  1  0  0  0
 12 13  1  0  0  0
 12 55  1  0  0  0
 12 56  1  0  0  0
 13 14  1  0  0  0
 13 57  1  0  0  0
 13 58  1  0  0  0
 14 15  2  0  0  0
 15 16  1  0  0  0
 16 17  1  0  0  0
 17 23  1  0  0  0
 17 18  2  0  0  0
 18 19  1  0  0  0
 19 20  2  0  0  0
 19 21  1  0  0  0
 21 22  1  0  0  0
 21 23  1  0  0  0
 21 24  1  0  0  0
 24 25  1  0  0  0
 24 59  1  0  0  0
 24 60  1  0  0  0
 25 26  2  0  0  0
 25 27  1  0  0  0
 27 28  1  0  0  0
 27 61  1  0  0  0
 28 32  1  0  0  0
 28 29  2  0  0  0
 29 30  1  0  0  0
 30 35  1  0  0  0
 30 31  2  0  0  0
 31 32  1  0  0  0
 31 33  1  0  0  0
 33 34  1  0  0  0
 33 62  1  0  0  0
 33 63  1  0  0  0
 34 35  1  0  0  0
 34 64  1  0  0  0
 34 65  1  0  0  0
 35 66  1  0  0  0
 35 67  1  0  0  0
M  CHG  1  16  -1
M  END
> <i_i_glide_confnum>
112

> <i_i_glide_lignum>
5669

> <i_i_glide_posenum>
374

> <i_i_glide_rotatable_bonds>
6

> <i_m_Source_File_Index>
1913

> <b_m_subgroup_collapsed>
0

> <r_i_docking_score>
-5.70939

> <r_i_glide_ecoul>
-4.00756

> <r_i_glide_eff_state_penalty>
0

> <r_i_glide_einternal>
12.4851

> <r_i_glide_emodel>
-60.7347

> <r_i_glide_energy>
-50.027

> <r_i_glide_erotb>
0.425808

> <r_i_glide_esite>
-0.0258696

> <r_i_glide_evdw>
-46.0194

> <r_i_glide_gscore>
-5.70939

> <r_i_glide_hbond>
-0.32

> <r_i_glide_ligand_efficiency>
-0.173012

> <r_i_glide_ligand_efficiency_ln>
-1.26974

> <r_i_glide_ligand_efficiency_sa>
-0.554941

> <r_i_glide_lipo>
-2.12602

> <r_i_glide_metal>
0

> <r_i_glide_rewards>
-0.761199

> <s_i_glide_gridfile>
wee1_glide-grid

> <s_m_Source_File>
wee1_decoys_glide_SP.sdf

> <s_m_Source_Path>
/Users/zhangxujun/Desktop

> <s_m_entry_id>
2188

> <s_m_entry_name>
wee1_decoys_glide_SP.1913

> <s_m_subgroup_title>
wee1_decoys_glide_SP

> <s_m_subgroupid>
wee1_decoys_glide_SP


$$$$
