ZINC39530506_127
                    3D
 Schrodinger Suite 2024-2.
 52 55  0  0  1  0            999 V2000
    5.9553   56.3664   18.9044 C   0  0  0  0  0  0
    6.6795   56.8800   19.9749 C   0  0  0  0  0  0
    6.8139   56.1340   21.1499 C   0  0  0  0  0  0
    6.1873   54.8960   21.2675 C   0  0  0  0  0  0
    5.5160   54.3668   20.1557 C   0  0  0  0  0  0
    5.3843   55.1025   18.9834 C   0  0  0  0  0  0
    6.3160   54.0981   22.3928 O   0  0  0  0  0  0
    5.9978   54.6070   23.9701 S   0  0  0  0  0  0
    6.3049   56.0317   24.1051 O   0  0  0  0  0  0
    6.7067   53.6962   24.8595 O   0  0  0  0  0  0
    4.1796   54.2717   24.0856 C   0  0  0  0  0  0
    3.4988   53.9916   22.8870 C   0  0  0  0  0  0
    2.1491   53.6716   22.8362 C   0  0  0  0  0  0
    1.3929   53.6907   23.9847 C   0  0  0  0  0  0
    2.0257   53.9507   25.1827 C   0  0  0  0  0  0
    3.4106   54.1880   25.2832 C   0  0  0  0  0  0
    3.8656   54.1713   26.5983 N   0  0  0  0  0  0
    5.0928   54.7553   27.1292 C   0  0  0  0  0  0
    4.9917   54.9022   28.6492 C   0  0  0  0  0  0
    4.9062   53.5337   29.2798 N   0  3  0  0  0  0
    3.7348   52.7158   28.7974 C   0  0  2  0  0  0
    4.0075   51.6793   28.9791 H   0  0  0  0  0  0
    3.5975   52.8974   27.2845 C   0  0  0  0  0  0
    2.5282   52.9938   29.6843 C   0  0  0  0  0  0
    1.4593   53.7750   29.2297 C   0  0  0  0  0  0
    0.3089   53.9058   30.0043 C   0  0  0  0  0  0
    0.2073   53.2520   31.2291 C   0  0  0  0  0  0
    1.2687   52.4873   31.6970 C   0  0  0  0  0  0
    2.4408   52.3858   30.9480 C   0  0  0  0  0  0
    3.4985   51.6969   31.4958 O   0  0  0  0  0  0
    1.5725   53.2974   21.6802 F   0  0  0  0  0  0
    5.8543   56.9450   17.9966 H   0  0  0  0  0  0
    7.1225   57.8555   19.8636 H   0  0  0  0  0  0
    7.4185   56.4963   21.9656 H   0  0  0  0  0  0
    5.1009   53.3701   20.1922 H   0  0  0  0  0  0
    4.8491   54.6893   18.1403 H   0  0  0  0  0  0
    3.9892   53.9474   21.9479 H   0  0  0  0  0  0
    0.3384   53.4631   23.9527 H   0  0  0  0  0  0
    1.4152   53.9091   26.0709 H   0  0  0  0  0  0
    5.9194   54.0747   26.9430 H   0  0  0  0  0  0
    5.3220   55.6865   26.6432 H   0  0  0  0  0  0
    5.9015   55.2924   29.0749 H   0  0  0  0  0  0
    4.1922   55.5954   28.9735 H   0  0  0  0  0  0
    4.8391   53.6428   30.2808 H   0  0  0  0  0  0
    4.4521   52.3499   26.9028 H   0  0  0  0  0  0
    2.7213   52.3528   26.9344 H   0  0  0  0  0  0
    1.5054   54.2754   28.2743 H   0  0  0  0  0  0
   -0.5157   54.4938   29.6431 H   0  0  0  0  0  0
   -0.6847   53.3312   31.8313 H   0  0  0  0  0  0
    1.1850   51.9988   32.6578 H   0  0  0  0  0  0
    4.3166   51.6838   30.9897 H   0  0  0  0  0  0
    5.7642   53.0271   29.1120 H   0  0  0  0  0  0
  1  6  2  0  0  0
  1  2  1  0  0  0
  1 32  1  0  0  0
  2  3  2  0  0  0
  2 33  1  0  0  0
  3  4  1  0  0  0
  3 34  1  0  0  0
  4  5  2  0  0  0
  4  7  1  0  0  0
  5  6  1  0  0  0
  5 35  1  0  0  0
  6 36  1  0  0  0
  7  8  1  0  0  0
  8  9  2  0  0  0
  8 10  2  0  0  0
  8 11  1  0  0  0
 11 16  2  0  0  0
 11 12  1  0  0  0
 12 13  2  0  0  0
 12 37  1  0  0  0
 13 14  1  0  0  0
 13 31  1  0  0  0
 14 15  2  0  0  0
 14 38  1  0  0  0
 15 16  1  0  0  0
 15 39  1  0  0  0
 16 17  1  0  0  0
 17 23  1  0  0  0
 17 18  1  0  0  0
 18 19  1  0  0  0
 18 40  1  0  0  0
 18 41  1  0  0  0
 19 20  1  0  0  0
 19 42  1  0  0  0
 19 43  1  0  0  0
 20 21  1  0  0  0
 20 44  1  0  0  0
 20 52  1  0  0  0
 21 22  1  0  0  0
 21 23  1  0  0  0
 21 24  1  0  0  0
 23 45  1  0  0  0
 23 46  1  0  0  0
 24 29  2  0  0  0
 24 25  1  0  0  0
 25 26  2  0  0  0
 25 47  1  0  0  0
 26 27  1  0  0  0
 26 48  1  0  0  0
 27 28  2  0  0  0
 27 49  1  0  0  0
 28 29  1  0  0  0
 28 50  1  0  0  0
 29 30  1  0  0  0
 30 51  1  0  0  0
M  CHG  1  20   1
M  END
> <i_i_glide_confnum>
575

> <i_i_glide_lignum>
128

> <i_i_glide_posenum>
258

> <i_i_glide_rotatable_bonds>
6

> <i_m_Source_File_Index>
2432

> <b_m_subgroup_collapsed>
0

> <r_i_docking_score>
-5.53315

> <r_i_glide_ecoul>
-1.13871

> <r_i_glide_eff_state_penalty>
0

> <r_i_glide_einternal>
13.5763

> <r_i_glide_emodel>
-41.5505

> <r_i_glide_energy>
-29.1263

> <r_i_glide_erotb>
0.538683

> <r_i_glide_esite>
-0.0182715

> <r_i_glide_evdw>
-27.9876

> <r_i_glide_gscore>
-5.53315

> <r_i_glide_hbond>
-0.32

> <r_i_glide_ligand_efficiency>
-0.184438

> <r_i_glide_ligand_efficiency_ln>
-1.25719

> <r_i_glide_ligand_efficiency_sa>
-0.573093

> <r_i_glide_lipo>
-2.89109

> <r_i_glide_metal>
0

> <r_i_glide_rewards>
-1.27229

> <s_i_glide_gridfile>
wee1_glide-grid

> <s_m_Source_File>
wee1_decoys_glide_SP.sdf

> <s_m_Source_Path>
/Users/zhangxujun/Desktop

> <s_m_entry_id>
2707

> <s_m_entry_name>
wee1_decoys_glide_SP.2432

> <s_m_subgroup_title>
wee1_decoys_glide_SP

> <s_m_subgroupid>
wee1_decoys_glide_SP


$$$$
