ZINC37579721_1580
                    3D
 Schrodinger Suite 2024-2.
 36 36  0  0  1  0            999 V2000
   -0.3000   51.8988   29.6325 C   0  0  0  0  0  0
    0.7515   52.5289   28.7297 C   0  0  0  0  0  0
    1.8129   53.2042   29.3420 C   0  0  0  0  0  0
    2.8262   53.7834   28.5804 C   0  0  0  0  0  0
    2.7883   53.6946   27.1895 C   0  0  0  0  0  0
    1.7291   53.0310   26.5668 C   0  0  0  0  0  0
    0.7076   52.4389   27.3214 C   0  0  0  0  0  0
   -0.6063   51.5789   26.4267 S   0  0  0  0  0  0
   -1.8403   51.6966   27.2092 O   0  0  0  0  0  0
   -0.5752   52.0651   25.0428 O   0  0  0  0  0  0
   -0.0956   49.8863   26.4817 N   0  0  0  0  0  0
    0.1258   49.0213   25.2794 C   0  0  2  0  0  0
    0.7811   48.2287   25.6420 H   0  0  0  0  0  0
    0.8379   49.7103   24.1104 C   0  0  0  0  0  0
   -1.1973   48.3380   24.8301 C   0  0  0  0  0  0
   -1.2934   47.8337   23.7131 O   0  0  0  0  0  0
   -2.2221   48.2526   25.6816 N   0  0  0  0  0  0
    3.8568   54.2755   26.3907 C   0  0  0  0  0  0
    4.7519   54.7421   25.7031 C   0  0  0  0  0  0
    5.8108   55.2958   24.8495 C   0  0  0  0  0  0
    7.1044   54.8995   25.2374 O   0  0  0  0  0  0
    0.0412   51.7946   30.6629 H   0  0  0  0  0  0
   -1.2141   52.4907   29.6305 H   0  0  0  0  0  0
   -0.5489   50.8966   29.2910 H   0  0  0  0  0  0
    1.8560   53.2772   30.4186 H   0  0  0  0  0  0
    3.6421   54.2929   29.0743 H   0  0  0  0  0  0
    1.7098   52.9602   25.4878 H   0  0  0  0  0  0
   -0.4759   49.3675   27.2885 H   0  0  0  0  0  0
    1.3287   48.9655   23.4831 H   0  0  0  0  0  0
    0.1382   50.2643   23.4835 H   0  0  0  0  0  0
    1.5909   50.4021   24.4807 H   0  0  0  0  0  0
   -2.0917   48.4963   26.6637 H   0  0  0  0  0  0
   -3.0798   47.8168   25.3879 H   0  0  0  0  0  0
    5.7483   56.3834   24.8824 H   0  0  0  0  0  0
    5.6200   54.9740   23.8250 H   0  0  0  0  0  0
    7.6961   54.9852   24.4805 H   0  0  0  0  0  0
  1  2  1  0  0  0
  1 22  1  0  0  0
  1 23  1  0  0  0
  1 24  1  0  0  0
  2  7  2  0  0  0
  2  3  1  0  0  0
  3  4  2  0  0  0
  3 25  1  0  0  0
  4  5  1  0  0  0
  4 26  1  0  0  0
  5  6  2  0  0  0
  5 18  1  0  0  0
  6  7  1  0  0  0
  6 27  1  0  0  0
  7  8  1  0  0  0
  8  9  2  0  0  0
  8 10  2  0  0  0
  8 11  1  0  0  0
 11 12  1  0  0  0
 11 28  1  0  0  0
 12 13  1  0  0  0
 12 14  1  0  0  0
 12 15  1  0  0  0
 14 29  1  0  0  0
 14 30  1  0  0  0
 14 31  1  0  0  0
 15 16  2  0  0  0
 15 17  1  0  0  0
 17 32  1  0  0  0
 17 33  1  0  0  0
 18 19  3  0  0  0
 19 20  1  0  0  0
 20 21  1  0  0  0
 20 34  1  0  0  0
 20 35  1  0  0  0
 21 36  1  0  0  0
M  END
> <i_i_glide_confnum>
19

> <i_i_glide_lignum>
1581

> <i_i_glide_posenum>
22

> <i_i_glide_rotatable_bonds>
7

> <i_m_Source_File_Index>
1199

> <b_m_subgroup_collapsed>
0

> <r_i_docking_score>
-6.74871

> <r_i_glide_ecoul>
-10.5995

> <r_i_glide_eff_state_penalty>
0

> <r_i_glide_einternal>
5.50123

> <r_i_glide_emodel>
-57.1763

> <r_i_glide_energy>
-41.1543

> <r_i_glide_erotb>
1.04297

> <r_i_glide_esite>
-0.339553

> <r_i_glide_evdw>
-30.5547

> <r_i_glide_gscore>
-6.74871

> <r_i_glide_hbond>
-0.891875

> <r_i_glide_ligand_efficiency>
-0.337435

> <r_i_glide_ligand_efficiency_ln>
-1.68898

> <r_i_glide_ligand_efficiency_sa>
-0.915941

> <r_i_glide_lipo>
-1.72645

> <r_i_glide_metal>
0

> <r_i_glide_rewards>
-1.71613

> <s_i_glide_gridfile>
wee1_glide-grid

> <s_m_Source_File>
wee1_decoys_glide_SP.sdf

> <s_m_Source_Path>
/Users/zhangxujun/Desktop

> <s_m_entry_id>
1474

> <s_m_entry_name>
wee1_decoys_glide_SP.1199

> <s_m_subgroup_title>
wee1_decoys_glide_SP

> <s_m_subgroupid>
wee1_decoys_glide_SP


$$$$
