ZINC10216061_2903
                    3D
 Schrodinger Suite 2024-2.
 63 66  0  0  1  0            999 V2000
    6.7122   55.1568   24.3187 C   0  0  0  0  0  0
    5.6362   54.7821   25.3197 C   0  0  0  0  0  0
    5.9123   54.8269   26.6881 C   0  0  0  0  0  0
    4.9275   54.4840   27.6168 C   0  0  0  0  0  0
    3.6663   54.0825   27.1755 C   0  0  0  0  0  0
    3.3870   54.0035   25.8031 C   0  0  0  0  0  0
    4.3690   54.3833   24.8834 C   0  0  0  0  0  0
    2.1681   53.5365   25.2825 N   0  0  0  0  0  0
    1.3212   52.6346   25.8349 C   0  0  0  0  0  0
    1.4916   52.1179   26.9423 O   0  0  0  0  0  0
    0.1135   52.2086   24.9532 C   0  0  1  0  0  0
   -0.4759   53.0858   24.6797 H   0  0  0  0  0  0
    0.6492   51.5444   23.6686 C   0  0  0  0  0  0
    1.1824   50.2466   23.6812 C   0  0  0  0  0  0
    1.7413   49.7069   22.5243 C   0  0  0  0  0  0
    1.7726   50.4595   21.3537 C   0  0  0  0  0  0
    1.2480   51.7481   21.3287 C   0  0  0  0  0  0
    0.6892   52.2873   22.4845 C   0  0  0  0  0  0
   -1.6211   52.1834   26.8881 C   0  0  0  0  0  0
   -2.4246   51.2122   27.7684 C   0  0  0  0  0  0
   -3.4828   50.4861   26.9306 C   0  0  1  0  0  0
   -2.8145   49.7079   25.7840 C   0  0  0  0  0  0
   -1.9655   50.6368   24.8938 C   0  0  0  0  0  0
   -4.0959   49.4806   27.8150 N   0  0  0  0  0  0
   -5.8335   49.2959   27.9567 S   0  0  0  0  0  0
   -6.4541   49.6856   26.6845 O   0  0  0  0  0  0
   -6.1086   48.0045   28.5969 O   0  0  0  0  0  0
   -6.2399   50.5679   29.1757 C   0  0  0  0  0  0
   -5.9452   50.5030   30.5326 C   0  0  0  0  0  0
   -6.4934   51.5704   31.2514 C   0  0  0  0  0  0
   -7.1726   52.4719   30.4403 C   0  0  0  0  0  0
   -7.1428   51.9952   28.7707 S   0  0  0  0  0  0
    5.2305   54.4998   29.1019 C   0  0  0  0  0  0
    6.3132   55.2843   23.3135 H   0  0  0  0  0  0
    7.4963   54.3979   24.2944 H   0  0  0  0  0  0
    7.1841   56.0969   24.6023 H   0  0  0  0  0  0
    6.8908   55.1264   27.0352 H   0  0  0  0  0  0
    2.9204   53.8205   27.9087 H   0  0  0  0  0  0
    4.1641   54.3313   23.8246 H   0  0  0  0  0  0
    1.9949   53.7873   24.3212 H   0  0  0  0  0  0
    1.1864   49.6594   24.5892 H   0  0  0  0  0  0
    2.1688   48.7153   22.5358 H   0  0  0  0  0  0
    2.2205   50.0448   20.4609 H   0  0  0  0  0  0
    1.2880   52.3334   20.4199 H   0  0  0  0  0  0
    0.3107   53.2967   22.4586 H   0  0  0  0  0  0
   -0.8659   52.6702   27.5032 H   0  0  0  0  0  0
   -2.2398   52.9390   26.4005 H   0  0  0  0  0  0
   -1.7335   50.4968   28.2141 H   0  0  0  0  0  0
   -2.8954   51.7109   28.6143 H   0  0  0  0  0  0
   -4.2245   51.1884   26.5428 H   0  0  0  0  0  0
   -3.5692   49.1938   25.1886 H   0  0  0  0  0  0
   -2.1682   48.9223   26.1792 H   0  0  0  0  0  0
   -2.5512   51.4034   24.3849 H   0  0  0  0  0  0
   -1.4419   50.0264   24.1587 H   0  0  0  0  0  0
   -3.4686   48.8245   28.2983 H   0  0  0  0  0  0
   -5.3858   49.6962   30.9865 H   0  0  0  0  0  0
   -6.3978   51.6747   32.3230 H   0  0  0  0  0  0
   -7.6963   53.3689   30.7355 H   0  0  0  0  0  0
    4.7940   53.6217   29.5796 H   0  0  0  0  0  0
    6.3056   54.4687   29.2798 H   0  0  0  0  0  0
    4.8126   55.3815   29.5837 H   0  0  0  0  0  0
   -0.9046   51.3484   25.7827 N   0  3  1  0  0  0
   -0.3499   50.6441   26.2555 H   0  0  0  0  0  0
  1  2  1  0  0  0
  1 34  1  0  0  0
  1 35  1  0  0  0
  1 36  1  0  0  0
  2  7  2  0  0  0
  2  3  1  0  0  0
  3  4  2  0  0  0
  3 37  1  0  0  0
  4  5  1  0  0  0
  4 33  1  0  0  0
  5  6  2  0  0  0
  5 38  1  0  0  0
  6  7  1  0  0  0
  6  8  1  0  0  0
  7 39  1  0  0  0
  8  9  1  0  0  0
  8 40  1  0  0  0
  9 10  2  0  0  0
  9 11  1  0  0  0
 11 12  1  0  0  0
 11 13  1  0  0  0
 11 62  1  0  0  0
 13 18  2  0  0  0
 13 14  1  0  0  0
 14 15  2  0  0  0
 14 41  1  0  0  0
 15 16  1  0  0  0
 15 42  1  0  0  0
 16 17  2  0  0  0
 16 43  1  0  0  0
 17 18  1  0  0  0
 17 44  1  0  0  0
 18 45  1  0  0  0
 19 20  1  0  0  0
 19 46  1  0  0  0
 19 47  1  0  0  0
 19 62  1  0  0  0
 20 21  1  0  0  0
 20 48  1  0  0  0
 20 49  1  0  0  0
 21 22  1  0  0  0
 21 24  1  0  0  0
 21 50  1  0  0  0
 22 23  1  0  0  0
 22 51  1  0  0  0
 22 52  1  0  0  0
 23 53  1  0  0  0
 23 54  1  0  0  0
 23 62  1  0  0  0
 24 25  1  0  0  0
 24 55  1  0  0  0
 25 26  2  0  0  0
 25 27  2  0  0  0
 25 28  1  0  0  0
 28 32  1  0  0  0
 28 29  2  0  0  0
 29 30  1  0  0  0
 29 56  1  0  0  0
 30 31  2  0  0  0
 30 57  1  0  0  0
 31 32  1  0  0  0
 31 58  1  0  0  0
 33 59  1  0  0  0
 33 60  1  0  0  0
 33 61  1  0  0  0
 62 63  1  0  0  0
M  CHG  1  62   1
M  END
> <i_i_glide_confnum>
270

> <i_i_glide_lignum>
2904

> <i_i_glide_posenum>
92

> <i_i_glide_rotatable_bonds>
8

> <i_m_Source_File_Index>
3230

> <b_m_subgroup_collapsed>
0

> <r_i_docking_score>
-4.32511

> <r_i_glide_ecoul>
-3.10805

> <r_i_glide_eff_state_penalty>
0

> <r_i_glide_einternal>
5.63226

> <r_i_glide_emodel>
-51.2189

> <r_i_glide_energy>
-41.2705

> <r_i_glide_erotb>
0.691707

> <r_i_glide_esite>
-0.148909

> <r_i_glide_evdw>
-38.1625

> <r_i_glide_gscore>
-4.32511

> <r_i_glide_hbond>
-0.131466

> <r_i_glide_ligand_efficiency>
-0.131064

> <r_i_glide_ligand_efficiency_ln>
-0.961882

> <r_i_glide_ligand_efficiency_sa>
-0.420392

> <r_i_glide_lipo>
-2.26349

> <r_i_glide_metal>
0

> <r_i_glide_rewards>
-0.0986235

> <s_i_glide_gridfile>
wee1_glide-grid

> <s_m_Source_File>
wee1_decoys_glide_SP.sdf

> <s_m_Source_Path>
/Users/zhangxujun/Desktop

> <s_m_entry_id>
3505

> <s_m_entry_name>
wee1_decoys_glide_SP.3230

> <s_m_subgroup_title>
wee1_decoys_glide_SP

> <s_m_subgroupid>
wee1_decoys_glide_SP


$$$$
