ZINC12293395_1318
                    3D
 Schrodinger Suite 2024-2.
 57 61  0  0  1  0            999 V2000
   -2.5848   47.8673   22.7408 C   0  0  0  0  0  0
   -3.4556   48.2264   21.7096 C   0  0  0  0  0  0
   -4.6738   48.8310   22.0158 C   0  0  0  0  0  0
   -5.0224   49.0768   23.3526 C   0  0  0  0  0  0
   -4.1552   48.7122   24.3815 C   0  0  0  0  0  0
   -2.9216   48.1185   24.0832 C   0  0  0  0  0  0
   -1.9523   47.8136   25.2322 C   0  0  2  0  0  0
   -2.5101   47.2850   26.0078 H   0  0  0  0  0  0
   -1.3486   49.0957   25.8423 C   0  0  0  0  0  0
   -1.3596   51.5013   24.9638 C   0  0  0  0  0  0
   -0.7796   52.4130   23.8613 C   0  0  0  0  0  0
    0.7651   52.4435   23.8941 C   0  0  1  0  0  0
    1.2233   50.9856   23.6263 C   0  0  0  0  0  0
    0.7338   50.0191   24.7141 C   0  0  0  0  0  0
    1.3347   53.4677   22.8777 C   0  0  0  0  0  0
    2.8620   53.5378   22.9660 C   0  0  2  0  0  0
    3.3055   52.6014   22.6272 H   0  0  0  0  0  0
    3.2545   53.7718   24.4215 C   0  0  0  0  0  0
    4.5109   54.2805   24.7850 C   0  0  0  0  0  0
    4.8915   54.3815   26.1214 C   0  0  0  0  0  0
    4.0265   53.9496   27.1236 C   0  0  0  0  0  0
    2.7865   53.4050   26.7882 C   0  0  0  0  0  0
    2.4128   53.2989   25.4484 C   0  0  0  0  0  0
    1.1238   52.8422   25.2297 O   0  0  0  0  0  0
    6.1021   54.8918   26.4430 F   0  0  0  0  0  0
    3.3902   54.4966   22.0783 O   0  0  0  0  0  0
   -0.8955   46.9372   24.8816 O   0  0  0  0  0  0
   -6.2352   49.6326   23.7071 O   0  0  0  0  0  0
   -6.8805   50.3378   22.6411 C   0  0  0  0  0  0
   -6.8250   49.5162   21.3304 C   0  0  0  0  0  0
   -5.4710   49.2361   20.9630 O   0  0  0  0  0  0
   -1.6384   47.4096   22.4898 H   0  0  0  0  0  0
   -3.1822   48.0507   20.6778 H   0  0  0  0  0  0
   -4.4355   48.9051   25.4087 H   0  0  0  0  0  0
   -2.0785   49.6209   26.4643 H   0  0  0  0  0  0
   -0.5041   48.8527   26.4823 H   0  0  0  0  0  0
   -2.4465   51.4286   24.8745 H   0  0  0  0  0  0
   -1.0859   51.8205   25.9718 H   0  0  0  0  0  0
   -1.1417   52.0970   22.8818 H   0  0  0  0  0  0
   -1.1643   53.4223   24.0121 H   0  0  0  0  0  0
    2.3058   50.9232   23.6114 H   0  0  0  0  0  0
    0.8948   50.6467   22.6420 H   0  0  0  0  0  0
    1.1032   50.2832   25.7080 H   0  0  0  0  0  0
    1.0173   48.9921   24.4702 H   0  0  0  0  0  0
    1.0173   53.2423   21.8582 H   0  0  0  0  0  0
    0.9499   54.4653   23.0905 H   0  0  0  0  0  0
    5.2013   54.6021   24.0212 H   0  0  0  0  0  0
    4.3234   54.0339   28.1566 H   0  0  0  0  0  0
    2.1115   53.0783   27.5652 H   0  0  0  0  0  0
    2.9461   54.4144   21.2276 H   0  0  0  0  0  0
   -0.3248   46.8271   25.6606 H   0  0  0  0  0  0
   -7.9139   50.5458   22.9176 H   0  0  0  0  0  0
   -6.3763   51.2951   22.4927 H   0  0  0  0  0  0
   -7.3605   48.5752   21.4722 H   0  0  0  0  0  0
   -7.3139   50.0575   20.5185 H   0  0  0  0  0  0
   -0.8111   50.0673   24.7579 N   0  3  1  0  0  0
   -1.1481   49.7388   23.8617 H   0  0  0  0  0  0
  1  6  2  0  0  0
  1  2  1  0  0  0
  1 32  1  0  0  0
  2  3  2  0  0  0
  2 33  1  0  0  0
  3 31  1  0  0  0
  3  4  1  0  0  0
  4  5  2  0  0  0
  4 28  1  0  0  0
  5  6  1  0  0  0
  5 34  1  0  0  0
  6  7  1  0  0  0
  7  8  1  0  0  0
  7  9  1  0  0  0
  7 27  1  0  0  0
  9 35  1  0  0  0
  9 36  1  0  0  0
  9 56  1  0  0  0
 10 11  1  0  0  0
 10 37  1  0  0  0
 10 38  1  0  0  0
 10 56  1  0  0  0
 11 12  1  0  0  0
 11 39  1  0  0  0
 11 40  1  0  0  0
 12 24  1  0  0  0
 12 13  1  0  0  0
 12 15  1  0  0  0
 13 14  1  0  0  0
 13 41  1  0  0  0
 13 42  1  0  0  0
 14 43  1  0  0  0
 14 44  1  0  0  0
 14 56  1  0  0  0
 15 16  1  0  0  0
 15 45  1  0  0  0
 15 46  1  0  0  0
 16 17  1  0  0  0
 16 18  1  0  0  0
 16 26  1  0  0  0
 18 23  2  0  0  0
 18 19  1  0  0  0
 19 20  2  0  0  0
 19 47  1  0  0  0
 20 21  1  0  0  0
 20 25  1  0  0  0
 21 22  2  0  0  0
 21 48  1  0  0  0
 22 23  1  0  0  0
 22 49  1  0  0  0
 23 24  1  0  0  0
 26 50  1  0  0  0
 27 51  1  0  0  0
 28 29  1  0  0  0
 29 30  1  0  0  0
 29 52  1  0  0  0
 29 53  1  0  0  0
 30 31  1  0  0  0
 30 54  1  0  0  0
 30 55  1  0  0  0
 56 57  1  0  0  0
M  CHG  1  56   1
M  END
> <i_i_glide_confnum>
21

> <i_i_glide_lignum>
1319

> <i_i_glide_posenum>
251

> <i_i_glide_rotatable_bonds>
5

> <i_m_Source_File_Index>
1621

> <b_m_subgroup_collapsed>
0

> <r_i_docking_score>
-6.15707

> <r_i_glide_ecoul>
-11.3102

> <r_i_glide_eff_state_penalty>
0

> <r_i_glide_einternal>
4.74224

> <r_i_glide_emodel>
-50.8159

> <r_i_glide_energy>
-35.3166

> <r_i_glide_erotb>
0.341722

> <r_i_glide_esite>
-0.0218601

> <r_i_glide_evdw>
-24.0064

> <r_i_glide_gscore>
-6.15707

> <r_i_glide_hbond>
-0.596304

> <r_i_glide_ligand_efficiency>
-0.205236

> <r_i_glide_ligand_efficiency_ln>
-1.39895

> <r_i_glide_ligand_efficiency_sa>
-0.637715

> <r_i_glide_lipo>
-1.88087

> <r_i_glide_metal>
0

> <r_i_glide_rewards>
-1.10291

> <s_i_glide_gridfile>
wee1_glide-grid

> <s_m_Source_File>
wee1_decoys_glide_SP.sdf

> <s_m_Source_Path>
/Users/zhangxujun/Desktop

> <s_m_entry_id>
1896

> <s_m_entry_name>
wee1_decoys_glide_SP.1621

> <s_m_subgroup_title>
wee1_decoys_glide_SP

> <s_m_subgroupid>
wee1_decoys_glide_SP


$$$$
