ZINC21348695_832
                    3D
 Schrodinger Suite 2024-2.
 59 61  0  0  1  0            999 V2000
    3.2504   52.2363   31.0894 C   0  0  0  0  0  0
    2.0353   52.3902   30.1529 C   0  0  1  0  0  0
    1.3731   51.5580   30.3857 H   0  0  0  0  0  0
    1.1984   53.6491   30.4588 C   0  0  0  0  0  0
   -0.1417   53.5969   29.7018 C   0  0  0  0  0  0
    0.0669   53.4185   28.1839 C   0  0  0  0  0  0
    0.9543   52.1948   27.8769 C   0  0  0  0  0  0
    2.3097   52.2856   28.6134 C   0  0  1  0  0  0
    2.7965   51.3233   28.4423 H   0  0  0  0  0  0
    3.2118   53.2851   28.0026 N   0  0  0  0  0  0
    4.5506   53.2979   28.1453 C   0  0  0  0  0  0
    5.1044   52.4936   28.8817 O   0  0  0  0  0  0
    5.4080   54.3028   27.3371 C   0  0  1  0  0  0
    5.0843   55.2961   27.6544 H   0  0  0  0  0  0
    6.9220   54.1410   27.6603 C   0  0  0  0  0  0
    5.1171   54.1030   25.9419 O   0  0  0  0  0  0
    5.6959   54.8228   24.9293 C   0  0  0  0  0  0
    6.5524   55.6929   25.1042 O   0  0  0  0  0  0
    5.2019   54.4226   23.5718 C   0  0  0  0  0  0
    3.9975   53.7192   23.4088 C   0  0  0  0  0  0
    3.5008   53.4428   22.1358 C   0  0  0  0  0  0
    4.1910   53.8718   21.0065 C   0  0  0  0  0  0
    5.3919   54.5673   21.1453 C   0  0  0  0  0  0
    5.9065   54.8228   22.4229 C   0  0  0  0  0  0
    6.2270   55.1589   19.6775 S   0  0  0  0  0  0
    5.2522   55.9208   18.8888 O   0  0  0  0  0  0
    7.4983   55.7623   20.0945 O   0  0  0  0  0  0
    6.5894   53.6967   18.7471 N   0  0  0  0  0  0
    7.2292   53.7407   17.5037 C   0  0  0  0  0  0
    6.7533   52.9048   16.4915 C   0  0  0  0  0  0
    7.3744   52.8952   15.2456 C   0  0  0  0  0  0
    8.4703   53.7241   15.0155 C   0  0  0  0  0  0
    8.9570   54.5531   16.0246 C   0  0  0  0  0  0
    8.3391   54.5604   17.2725 C   0  0  0  0  0  0
    9.0697   53.7185   13.8043 F   0  0  0  0  0  0
    3.9033   53.1075   31.0560 H   0  0  0  0  0  0
    2.9329   52.1072   32.1244 H   0  0  0  0  0  0
    3.8517   51.3646   30.8325 H   0  0  0  0  0  0
    1.7633   54.5589   30.2493 H   0  0  0  0  0  0
    0.9779   53.6865   31.5269 H   0  0  0  0  0  0
   -0.7424   52.7699   30.0848 H   0  0  0  0  0  0
   -0.7131   54.4967   29.9065 H   0  0  0  0  0  0
   -0.8944   53.3146   27.6798 H   0  0  0  0  0  0
    0.5424   54.3137   27.7830 H   0  0  0  0  0  0
    0.4312   51.2831   28.1728 H   0  0  0  0  0  0
    1.1140   52.1018   26.8015 H   0  0  0  0  0  0
    2.7705   54.0393   27.4987 H   0  0  0  0  0  0
    7.1070   54.0961   28.7351 H   0  0  0  0  0  0
    7.3270   53.2255   27.2272 H   0  0  0  0  0  0
    7.5041   54.9811   27.2891 H   0  0  0  0  0  0
    3.4156   53.3999   24.2626 H   0  0  0  0  0  0
    2.5647   52.9155   22.0241 H   0  0  0  0  0  0
    3.7776   53.6807   20.0266 H   0  0  0  0  0  0
    6.8334   55.3749   22.5206 H   0  0  0  0  0  0
    5.9025   52.9642   18.8399 H   0  0  0  0  0  0
    5.9077   52.2536   16.6691 H   0  0  0  0  0  0
    7.0098   52.2484   14.4601 H   0  0  0  0  0  0
    9.8131   55.1837   15.8381 H   0  0  0  0  0  0
    8.7370   55.1965   18.0502 H   0  0  0  0  0  0
  1  2  1  0  0  0
  1 36  1  0  0  0
  1 37  1  0  0  0
  1 38  1  0  0  0
  2  3  1  0  0  0
  2  8  1  0  0  0
  2  4  1  0  0  0
  4  5  1  0  0  0
  4 39  1  0  0  0
  4 40  1  0  0  0
  5  6  1  0  0  0
  5 41  1  0  0  0
  5 42  1  0  0  0
  6  7  1  0  0  0
  6 43  1  0  0  0
  6 44  1  0  0  0
  7  8  1  0  0  0
  7 45  1  0  0  0
  7 46  1  0  0  0
  8  9  1  0  0  0
  8 10  1  0  0  0
 10 11  1  0  0  0
 10 47  1  0  0  0
 11 12  2  0  0  0
 11 13  1  0  0  0
 13 14  1  0  0  0
 13 15  1  0  0  0
 13 16  1  0  0  0
 15 48  1  0  0  0
 15 49  1  0  0  0
 15 50  1  0  0  0
 16 17  1  0  0  0
 17 18  2  0  0  0
 17 19  1  0  0  0
 19 24  2  0  0  0
 19 20  1  0  0  0
 20 21  2  0  0  0
 20 51  1  0  0  0
 21 22  1  0  0  0
 21 52  1  0  0  0
 22 23  2  0  0  0
 22 53  1  0  0  0
 23 24  1  0  0  0
 23 25  1  0  0  0
 24 54  1  0  0  0
 25 26  2  0  0  0
 25 27  2  0  0  0
 25 28  1  0  0  0
 28 29  1  0  0  0
 28 55  1  0  0  0
 29 34  2  0  0  0
 29 30  1  0  0  0
 30 31  2  0  0  0
 30 56  1  0  0  0
 31 32  1  0  0  0
 31 57  1  0  0  0
 32 33  2  0  0  0
 32 35  1  0  0  0
 33 34  1  0  0  0
 33 58  1  0  0  0
 34 59  1  0  0  0
M  END
> <i_i_glide_confnum>
243

> <i_i_glide_lignum>
833

> <i_i_glide_posenum>
232

> <i_i_glide_rotatable_bonds>
9

> <i_m_Source_File_Index>
5254

> <b_m_subgroup_collapsed>
0

> <r_i_docking_score>
-1.55259

> <r_i_glide_ecoul>
-2.74353

> <r_i_glide_eff_state_penalty>
0

> <r_i_glide_einternal>
14.6151

> <r_i_glide_emodel>
-33.6559

> <r_i_glide_energy>
-46.8472

> <r_i_glide_erotb>
0.84745

> <r_i_glide_esite>
-0.0253275

> <r_i_glide_evdw>
-44.1037

> <r_i_glide_gscore>
-1.55259

> <r_i_glide_hbond>
-0.0843197

> <r_i_glide_ligand_efficiency>
-0.0485186

> <r_i_glide_ligand_efficiency_ln>
-0.347668

> <r_i_glide_ligand_efficiency_sa>
-0.154037

> <r_i_glide_lipo>
-2.0699

> <r_i_glide_metal>
0

> <r_i_glide_rewards>
2.39622

> <s_i_glide_gridfile>
wee1_glide-grid

> <s_m_Source_File>
wee1_decoys_glide_SP.sdf

> <s_m_Source_Path>
/Users/zhangxujun/Desktop

> <s_m_entry_id>
5529

> <s_m_entry_name>
wee1_decoys_glide_SP.5254

> <s_m_subgroup_title>
wee1_decoys_glide_SP

> <s_m_subgroupid>
wee1_decoys_glide_SP


$$$$
