ZINC39665650_5546
                    3D
 Schrodinger Suite 2024-2.
 67 70  0  0  1  0            999 V2000
    4.0133   54.9491   25.7018 C   0  0  0  0  0  0
    3.0076   53.8607   25.2632 C   0  0  2  0  0  0
    3.5069   52.8972   25.1537 H   0  0  0  0  0  0
    2.3829   54.2626   23.9036 C   0  0  0  0  0  0
    1.6942   53.1828   23.2011 N   0  0  0  0  0  0
    0.4319   52.7650   23.4146 C   0  0  0  0  0  0
   -0.3145   53.2968   24.2253 O   0  0  0  0  0  0
   -0.1494   51.5994   22.5775 C   0  0  1  0  0  0
   -1.0563   51.9731   22.1005 H   0  0  0  0  0  0
    0.8065   51.2285   21.4305 C   0  0  0  0  0  0
    0.4255   49.8593   21.1009 N   0  0  0  0  0  0
   -0.3476   49.2448   22.1878 C   0  0  0  0  0  0
   -0.3765   50.2730   23.3491 C   0  0  0  0  0  0
   -1.6959   50.2837   24.1600 C   0  0  0  0  0  0
   -2.0050   48.8945   24.7476 C   0  0  0  0  0  0
   -0.8415   48.4947   25.6817 N   0  3  0  0  0  0
    0.5761   48.6120   25.0790 C   0  0  0  0  0  0
    0.7364   49.9860   24.4078 C   0  0  0  0  0  0
    0.4568   49.3213   19.8505 C   0  0  0  0  0  0
   -0.0379   48.2164   19.6122 O   0  0  0  0  0  0
    1.0244   50.1388   18.7044 C   0  0  0  0  0  0
    2.2068   50.8871   18.8329 C   0  0  0  0  0  0
    2.6514   51.6957   17.7889 C   0  0  0  0  0  0
    1.9482   51.7162   16.5885 C   0  0  0  0  0  0
    0.8058   50.9366   16.4240 C   0  0  0  0  0  0
    0.3489   50.1489   17.4758 C   0  0  0  0  0  0
    2.5682   52.7987   15.1504 Br  0  0  0  0  0  0
    1.9107   53.6965   26.1685 O   0  0  0  0  0  0
    2.0844   53.2965   27.4779 C   0  0  0  0  0  0
    3.3047   52.8962   28.0342 C   0  0  0  0  0  0
    3.3805   52.5150   29.3684 C   0  0  0  0  0  0
    2.2258   52.4983   30.1614 C   0  0  0  0  0  0
    1.0095   52.8883   29.6053 C   0  0  0  0  0  0
    0.9408   53.2854   28.2735 C   0  0  0  0  0  0
    2.1947   52.0965   31.4791 O   0  0  0  0  0  0
    3.3767   51.5879   32.0816 C   0  0  0  0  0  0
    4.8158   55.0569   24.9733 H   0  0  0  0  0  0
    3.5065   55.9032   25.7757 H   0  0  0  0  0  0
    4.4845   54.7712   26.6639 H   0  0  0  0  0  0
    1.7017   55.1018   24.0591 H   0  0  0  0  0  0
    3.1599   54.6282   23.2298 H   0  0  0  0  0  0
    2.2204   52.7453   22.4611 H   0  0  0  0  0  0
    0.6934   51.9565   20.6258 H   0  0  0  0  0  0
    1.8236   51.1534   21.8175 H   0  0  0  0  0  0
   -0.0953   48.2194   22.4537 H   0  0  0  0  0  0
   -1.3712   49.1961   21.8098 H   0  0  0  0  0  0
   -1.6896   51.0575   24.9312 H   0  0  0  0  0  0
   -2.5223   50.5465   23.4982 H   0  0  0  0  0  0
   -2.9015   48.8928   25.3711 H   0  0  0  0  0  0
   -2.0910   48.1124   23.9920 H   0  0  0  0  0  0
   -0.8974   49.0279   26.5458 H   0  0  0  0  0  0
    1.2649   48.4970   25.9183 H   0  0  0  0  0  0
    0.7032   47.7703   24.4014 H   0  0  0  0  0  0
    1.7159   49.9999   23.9241 H   0  0  0  0  0  0
    0.7820   50.7626   25.1732 H   0  0  0  0  0  0
    2.7993   50.8517   19.7350 H   0  0  0  0  0  0
    3.5659   52.2630   17.8954 H   0  0  0  0  0  0
    0.2771   50.9461   15.4834 H   0  0  0  0  0  0
   -0.5459   49.5587   17.3356 H   0  0  0  0  0  0
    4.2041   52.8428   27.4424 H   0  0  0  0  0  0
    4.3435   52.2244   29.7577 H   0  0  0  0  0  0
    0.1138   52.8710   30.2089 H   0  0  0  0  0  0
   -0.0086   53.5831   27.8504 H   0  0  0  0  0  0
    3.1041   50.9887   32.9492 H   0  0  0  0  0  0
    4.0512   52.3915   32.3794 H   0  0  0  0  0  0
    3.9081   50.8995   31.4310 H   0  0  0  0  0  0
   -0.9728   47.5461   26.0083 H   0  0  0  0  0  0
  1  2  1  0  0  0
  1 37  1  0  0  0
  1 38  1  0  0  0
  1 39  1  0  0  0
  2  3  1  0  0  0
  2  4  1  0  0  0
  2 28  1  0  0  0
  4  5  1  0  0  0
  4 40  1  0  0  0
  4 41  1  0  0  0
  5  6  1  0  0  0
  5 42  1  0  0  0
  6  7  2  0  0  0
  6  8  1  0  0  0
  8  9  1  0  0  0
  8 13  1  0  0  0
  8 10  1  0  0  0
 10 11  1  0  0  0
 10 43  1  0  0  0
 10 44  1  0  0  0
 11 12  1  0  0  0
 11 19  1  0  0  0
 12 13  1  0  0  0
 12 45  1  0  0  0
 12 46  1  0  0  0
 13 18  1  0  0  0
 13 14  1  0  0  0
 14 15  1  0  0  0
 14 47  1  0  0  0
 14 48  1  0  0  0
 15 16  1  0  0  0
 15 49  1  0  0  0
 15 50  1  0  0  0
 16 17  1  0  0  0
 16 51  1  0  0  0
 16 67  1  0  0  0
 17 18  1  0  0  0
 17 52  1  0  0  0
 17 53  1  0  0  0
 18 54  1  0  0  0
 18 55  1  0  0  0
 19 20  2  0  0  0
 19 21  1  0  0  0
 21 26  2  0  0  0
 21 22  1  0  0  0
 22 23  2  0  0  0
 22 56  1  0  0  0
 23 24  1  0  0  0
 23 57  1  0  0  0
 24 25  2  0  0  0
 24 27  1  0  0  0
 25 26  1  0  0  0
 25 58  1  0  0  0
 26 59  1  0  0  0
 28 29  1  0  0  0
 29 34  2  0  0  0
 29 30  1  0  0  0
 30 31  2  0  0  0
 30 60  1  0  0  0
 31 32  1  0  0  0
 31 61  1  0  0  0
 32 33  2  0  0  0
 32 35  1  0  0  0
 33 34  1  0  0  0
 33 62  1  0  0  0
 34 63  1  0  0  0
 35 36  1  0  0  0
 36 64  1  0  0  0
 36 65  1  0  0  0
 36 66  1  0  0  0
M  CHG  1  16   1
M  END
> <i_i_glide_confnum>
395

> <i_i_glide_lignum>
5547

> <i_i_glide_posenum>
195

> <i_i_glide_rotatable_bonds>
9

> <i_m_Source_File_Index>
231

> <b_m_subgroup_collapsed>
0

> <r_i_docking_score>
-4.14927

> <r_i_glide_ecoul>
-4.75254

> <r_i_glide_eff_state_penalty>
0

> <r_i_glide_einternal>
8.58924

> <r_i_glide_emodel>
-48.2966

> <r_i_glide_energy>
-38.1434

> <r_i_glide_erotb>
0.584032

> <r_i_glide_esite>
-0.105221

> <r_i_glide_evdw>
-33.3909

> <r_i_glide_gscore>
-4.14927

> <r_i_glide_hbond>
-0.316546

> <r_i_glide_ligand_efficiency>
-0.122037

> <r_i_glide_ligand_efficiency_ln>
-0.916689

> <r_i_glide_ligand_efficiency_sa>
-0.395353

> <r_i_glide_lipo>
-1.75553

> <r_i_glide_metal>
0

> <r_i_glide_rewards>
-0.173582

> <s_i_glide_gridfile>
wee1_glide-grid

> <s_m_Source_File>
wee1_decoys_glide_SP.sdf

> <s_m_Source_Path>
/Users/zhangxujun/Desktop

> <s_m_entry_id>
506

> <s_m_entry_name>
wee1_decoys_glide_SP.231

> <s_m_subgroup_title>
wee1_decoys_glide_SP

> <s_m_subgroupid>
wee1_decoys_glide_SP


$$$$
