ZINC09295313_56
                    3D
 Schrodinger Suite 2024-2.
 53 57  0  0  1  0            999 V2000
    3.3965   53.8961   15.1814 C   0  0  0  0  0  0
    4.3573   53.1137   15.8179 C   0  0  0  0  0  0
    4.6095   53.2972   17.1741 C   0  0  0  0  0  0
    3.9012   54.2711   17.8929 C   0  0  0  0  0  0
    2.9254   55.0367   17.2506 C   0  0  0  0  0  0
    2.6793   54.8545   15.8929 C   0  0  0  0  0  0
    4.0764   54.4830   19.2684 N   0  0  0  0  0  0
    5.2142   54.3440   19.9860 C   0  0  0  0  0  0
    6.3045   54.0968   19.4676 O   0  0  0  0  0  0
    5.0919   54.5308   21.5243 C   0  0  1  0  0  0
    4.3332   55.2967   21.6272 H   0  0  0  0  0  0
    4.5840   53.2921   22.3249 C   0  0  1  0  0  0
    5.4199   52.5951   22.4271 H   0  0  0  0  0  0
    4.2085   53.7298   23.6749 N   0  0  0  0  0  0
    5.2611   54.3057   24.3816 N   0  0  0  0  0  0
    5.4350   54.3146   25.7500 C   0  0  0  0  0  0
    6.5312   54.9519   26.0685 N   0  0  0  0  0  0
    7.1044   55.3914   24.8816 N   0  0  0  0  0  0
    6.3507   54.9913   23.8878 C   0  0  0  0  0  0
    6.6496   55.2941   22.1649 S   0  0  0  0  0  0
    4.4908   53.6971   26.7651 C   0  0  0  0  0  0
    3.5967   54.6919   27.2596 O   0  0  0  0  0  0
    2.7251   54.3572   28.2800 C   0  0  0  0  0  0
    2.0728   55.4120   28.9207 C   0  0  0  0  0  0
    1.1808   55.1683   29.9614 C   0  0  0  0  0  0
    0.9177   53.8568   30.3510 C   0  0  0  0  0  0
    1.5532   52.7913   29.7179 C   0  0  0  0  0  0
    2.4598   53.0389   28.6903 C   0  0  0  0  0  0
    3.4560   52.4968   21.6484 C   0  0  0  0  0  0
    3.7843   51.4571   20.7717 C   0  0  0  0  0  0
    2.7833   50.7492   20.1111 C   0  0  0  0  0  0
    1.4480   51.0679   20.3410 C   0  0  0  0  0  0
    1.1066   52.0965   21.2134 C   0  0  0  0  0  0
    2.1076   52.8174   21.8590 C   0  0  0  0  0  0
    0.4734   50.3788   19.7069 F   0  0  0  0  0  0
    3.2013   53.7529   14.1284 H   0  0  0  0  0  0
    4.8935   52.3531   15.2692 H   0  0  0  0  0  0
    5.3319   52.6570   17.6600 H   0  0  0  0  0  0
    2.3567   55.7752   17.7939 H   0  0  0  0  0  0
    1.9322   55.4535   15.3930 H   0  0  0  0  0  0
    3.2418   54.7938   19.7484 H   0  0  0  0  0  0
    3.9099   52.9150   24.1895 H   0  0  0  0  0  0
    3.9221   52.8969   26.2933 H   0  0  0  0  0  0
    5.0670   53.2660   27.5859 H   0  0  0  0  0  0
    2.2707   56.4294   28.6136 H   0  0  0  0  0  0
    0.6960   55.9924   30.4626 H   0  0  0  0  0  0
    0.2185   53.6600   31.1515 H   0  0  0  0  0  0
    1.3380   51.7772   30.0198 H   0  0  0  0  0  0
    2.9373   52.1970   28.2134 H   0  0  0  0  0  0
    4.8182   51.2198   20.5685 H   0  0  0  0  0  0
    3.0462   49.9667   19.4141 H   0  0  0  0  0  0
    0.0697   52.3425   21.3753 H   0  0  0  0  0  0
    1.8290   53.6328   22.5089 H   0  0  0  0  0  0
  1  6  2  0  0  0
  1  2  1  0  0  0
  1 36  1  0  0  0
  2  3  2  0  0  0
  2 37  1  0  0  0
  3  4  1  0  0  0
  3 38  1  0  0  0
  4  5  2  0  0  0
  4  7  1  0  0  0
  5  6  1  0  0  0
  5 39  1  0  0  0
  6 40  1  0  0  0
  7  8  1  0  0  0
  7 41  1  0  0  0
  8  9  2  0  0  0
  8 10  1  0  0  0
 10 11  1  0  0  0
 10 20  1  0  0  0
 10 12  1  0  0  0
 12 13  1  0  0  0
 12 14  1  0  0  0
 12 29  1  0  0  0
 14 15  1  0  0  0
 14 42  1  0  0  0
 15 19  1  0  0  0
 15 16  1  0  0  0
 16 17  2  0  0  0
 16 21  1  0  0  0
 17 18  1  0  0  0
 18 19  2  0  0  0
 19 20  1  0  0  0
 21 22  1  0  0  0
 21 43  1  0  0  0
 21 44  1  0  0  0
 22 23  1  0  0  0
 23 28  2  0  0  0
 23 24  1  0  0  0
 24 25  2  0  0  0
 24 45  1  0  0  0
 25 26  1  0  0  0
 25 46  1  0  0  0
 26 27  2  0  0  0
 26 47  1  0  0  0
 27 28  1  0  0  0
 27 48  1  0  0  0
 28 49  1  0  0  0
 29 34  2  0  0  0
 29 30  1  0  0  0
 30 31  2  0  0  0
 30 50  1  0  0  0
 31 32  1  0  0  0
 31 51  1  0  0  0
 32 33  2  0  0  0
 32 35  1  0  0  0
 33 34  1  0  0  0
 33 52  1  0  0  0
 34 53  1  0  0  0
M  END
> <i_i_glide_confnum>
117

> <i_i_glide_lignum>
57

> <i_i_glide_posenum>
260

> <i_i_glide_rotatable_bonds>
7

> <i_m_Source_File_Index>
5109

> <b_m_subgroup_collapsed>
0

> <r_i_docking_score>
-6.17281

> <r_i_glide_ecoul>
-4.43655

> <r_i_glide_eff_state_penalty>
0

> <r_i_glide_einternal>
3.05072

> <r_i_glide_emodel>
-68.4744

> <r_i_glide_energy>
-50.9948

> <r_i_glide_erotb>
0.661792

> <r_i_glide_esite>
-0.018438

> <r_i_glide_evdw>
-46.5582

> <r_i_glide_gscore>
-6.17281

> <r_i_glide_hbond>
-0.32

> <r_i_glide_ligand_efficiency>
-0.187055

> <r_i_glide_ligand_efficiency_ln>
-1.3728

> <r_i_glide_ligand_efficiency_sa>
-0.599985

> <r_i_glide_lipo>
-2.09634

> <r_i_glide_metal>
0

> <r_i_glide_rewards>
-1.40643

> <s_i_glide_gridfile>
wee1_glide-grid

> <s_m_Source_File>
wee1_decoys_glide_SP.sdf

> <s_m_Source_Path>
/Users/zhangxujun/Desktop

> <s_m_entry_id>
5384

> <s_m_entry_name>
wee1_decoys_glide_SP.5109

> <s_m_subgroup_title>
wee1_decoys_glide_SP

> <s_m_subgroupid>
wee1_decoys_glide_SP


$$$$
