ZINC33422401_2367
                    3D
 Schrodinger Suite 2024-2.
 70 74  0  0  1  0            999 V2000
   -0.5612   52.0012   21.5573 C   0  0  0  0  0  0
   -0.2289   51.0219   22.6958 C   0  0  0  0  0  0
    0.3214   51.6967   23.9707 C   0  0  1  0  0  0
   -0.3908   52.4756   24.2583 H   0  0  0  0  0  0
    0.4035   50.6901   25.1359 C   0  0  0  0  0  0
    1.6179   52.3347   23.7104 N   0  0  0  0  0  0
    2.2081   53.2659   24.4851 C   0  0  0  0  0  0
    1.6835   53.6978   25.5101 O   0  0  0  0  0  0
    3.5781   53.7234   24.0279 C   0  0  0  0  0  0
    3.8262   53.8642   22.6485 C   0  0  0  0  0  0
    5.0752   54.2658   22.1747 C   0  0  0  0  0  0
    6.1112   54.5014   23.0797 C   0  0  0  0  0  0
    5.8708   54.4182   24.4449 C   0  0  0  0  0  0
    4.6088   54.0606   24.9414 C   0  0  0  0  0  0
    4.4421   53.9811   26.3336 N   0  0  0  0  0  0
    5.1252   52.9599   27.1355 C   0  0  0  0  0  0
    5.8111   53.5912   28.3532 C   0  0  0  0  0  0
    5.8988   55.0340   27.9510 C   0  0  0  0  0  0
    4.6390   55.1856   27.1102 C   0  0  0  0  0  0
    5.2338   54.3979   20.7888 N   0  0  0  0  0  0
    5.9550   55.3433   20.1556 C   0  0  0  0  0  0
    6.5505   56.2685   20.7134 O   0  0  0  0  0  0
    5.9366   55.1506   18.8276 N   0  0  0  0  0  0
    6.5470   55.9936   17.7906 C   0  0  0  0  0  0
    6.2704   55.3626   16.3893 C   0  0  0  0  0  0
    6.8888   56.2118   15.2458 C   0  0  1  0  0  0
    6.2756   57.6334   15.2743 C   0  0  0  0  0  0
    6.5709   58.2959   16.6443 C   0  0  1  0  0  0
    5.9470   57.4384   17.7753 C   0  0  0  0  0  0
    8.1048   58.3869   16.8575 C   0  0  0  0  0  0
    8.7224   56.9655   16.8185 C   0  0  2  0  0  0
    8.4224   56.3058   15.4483 C   0  0  0  0  0  0
    8.1007   56.1044   17.9471 C   0  0  0  0  0  0
   -0.9034   51.4631   20.6717 H   0  0  0  0  0  0
    0.3080   52.5944   21.2669 H   0  0  0  0  0  0
   -1.3571   52.6856   21.8521 H   0  0  0  0  0  0
   -1.1324   50.4609   22.9403 H   0  0  0  0  0  0
    0.4914   50.2867   22.3326 H   0  0  0  0  0  0
   -0.5628   50.2170   25.3118 H   0  0  0  0  0  0
    1.1044   49.8840   24.9192 H   0  0  0  0  0  0
    0.6943   51.1685   26.0707 H   0  0  0  0  0  0
    2.0998   52.0310   22.8791 H   0  0  0  0  0  0
    3.0356   53.6761   21.9317 H   0  0  0  0  0  0
    7.0940   54.7895   22.7356 H   0  0  0  0  0  0
    6.6795   54.6339   25.1246 H   0  0  0  0  0  0
    4.3914   52.2785   27.5634 H   0  0  0  0  0  0
    5.9254   52.4968   26.5698 H   0  0  0  0  0  0
    5.2218   53.4630   29.2703 H   0  0  0  0  0  0
    6.8008   53.1693   28.5153 H   0  0  0  0  0  0
    6.7941   55.2641   27.3719 H   0  0  0  0  0  0
    5.8952   55.6948   28.8159 H   0  0  0  0  0  0
    4.7044   56.0227   26.4132 H   0  0  0  0  0  0
    3.7619   55.2970   27.7505 H   0  0  0  0  0  0
    4.6479   53.8061   20.2180 H   0  0  0  0  0  0
    5.4570   54.3331   18.4841 H   0  0  0  0  0  0
    6.6688   54.3468   16.3462 H   0  0  0  0  0  0
    5.1955   55.2622   16.2257 H   0  0  0  0  0  0
    6.6769   55.7417   14.2837 H   0  0  0  0  0  0
    6.6849   58.2416   14.4673 H   0  0  0  0  0  0
    5.1989   57.5870   15.1020 H   0  0  0  0  0  0
    6.1359   59.2967   16.6668 H   0  0  0  0  0  0
    4.8636   57.3965   17.6519 H   0  0  0  0  0  0
    6.1130   57.9344   18.7320 H   0  0  0  0  0  0
    8.5526   59.0165   16.0881 H   0  0  0  0  0  0
    8.3230   58.8697   17.8110 H   0  0  0  0  0  0
    9.8021   57.0305   16.9628 H   0  0  0  0  0  0
    8.8746   55.3138   15.3967 H   0  0  0  0  0  0
    8.8746   56.8871   14.6442 H   0  0  0  0  0  0
    8.3608   56.5409   18.9118 H   0  0  0  0  0  0
    8.5501   55.1096   17.9463 H   0  0  0  0  0  0
  1  2  1  0  0  0
  1 34  1  0  0  0
  1 35  1  0  0  0
  1 36  1  0  0  0
  2  3  1  0  0  0
  2 37  1  0  0  0
  2 38  1  0  0  0
  3  4  1  0  0  0
  3  5  1  0  0  0
  3  6  1  0  0  0
  5 39  1  0  0  0
  5 40  1  0  0  0
  5 41  1  0  0  0
  6  7  1  0  0  0
  6 42  1  0  0  0
  7  8  2  0  0  0
  7  9  1  0  0  0
  9 14  2  0  0  0
  9 10  1  0  0  0
 10 11  2  0  0  0
 10 43  1  0  0  0
 11 12  1  0  0  0
 11 20  1  0  0  0
 12 13  2  0  0  0
 12 44  1  0  0  0
 13 14  1  0  0  0
 13 45  1  0  0  0
 14 15  1  0  0  0
 15 19  1  0  0  0
 15 16  1  0  0  0
 16 17  1  0  0  0
 16 46  1  0  0  0
 16 47  1  0  0  0
 17 18  1  0  0  0
 17 48  1  0  0  0
 17 49  1  0  0  0
 18 19  1  0  0  0
 18 50  1  0  0  0
 18 51  1  0  0  0
 19 52  1  0  0  0
 19 53  1  0  0  0
 20 21  1  0  0  0
 20 54  1  0  0  0
 21 22  2  0  0  0
 21 23  1  0  0  0
 23 24  1  0  0  0
 23 55  1  0  0  0
 24 29  1  0  0  0
 24 33  1  0  0  0
 24 25  1  0  0  0
 25 26  1  0  0  0
 25 56  1  0  0  0
 25 57  1  0  0  0
 26 32  1  0  0  0
 26 27  1  0  0  0
 26 58  1  0  0  0
 27 28  1  0  0  0
 27 59  1  0  0  0
 27 60  1  0  0  0
 28 29  1  0  0  0
 28 30  1  0  0  0
 28 61  1  0  0  0
 29 62  1  0  0  0
 29 63  1  0  0  0
 30 31  1  0  0  0
 30 64  1  0  0  0
 30 65  1  0  0  0
 31 32  1  0  0  0
 31 33  1  0  0  0
 31 66  1  0  0  0
 32 67  1  0  0  0
 32 68  1  0  0  0
 33 69  1  0  0  0
 33 70  1  0  0  0
M  END
> <i_i_glide_confnum>
44

> <i_i_glide_lignum>
2368

> <i_i_glide_posenum>
180

> <i_i_glide_rotatable_bonds>
9

> <i_m_Source_File_Index>
1874

> <b_m_subgroup_collapsed>
0

> <r_i_docking_score>
-4.4213

> <r_i_glide_ecoul>
-3.84682

> <r_i_glide_eff_state_penalty>
0

> <r_i_glide_einternal>
4.86966

> <r_i_glide_emodel>
-39.5336

> <r_i_glide_energy>
-32.211

> <r_i_glide_erotb>
0.725971

> <r_i_glide_esite>
0

> <r_i_glide_evdw>
-28.3641

> <r_i_glide_gscore>
-4.4213

> <r_i_glide_hbond>
0

> <r_i_glide_ligand_efficiency>
-0.138166

> <r_i_glide_ligand_efficiency_ln>
-0.99005

> <r_i_glide_ligand_efficiency_sa>
-0.438649

> <r_i_glide_lipo>
-2.11197

> <r_i_glide_metal>
0

> <r_i_glide_rewards>
-1.04007

> <s_i_glide_gridfile>
wee1_glide-grid

> <s_m_Source_File>
wee1_decoys_glide_SP.sdf

> <s_m_Source_Path>
/Users/zhangxujun/Desktop

> <s_m_entry_id>
2149

> <s_m_entry_name>
wee1_decoys_glide_SP.1874

> <s_m_subgroup_title>
wee1_decoys_glide_SP

> <s_m_subgroupid>
wee1_decoys_glide_SP


$$$$
