ZINC00627372_2588
                    3D
 Schrodinger Suite 2024-2.
 52 55  0  0  1  0            999 V2000
    2.0319   49.4412   19.7889 C   0  0  0  0  0  0
    1.1779   49.2127   20.8592 C   0  0  0  0  0  0
    1.0779   50.1363   21.8957 C   0  0  0  0  0  0
    1.8397   51.3413   21.8769 C   0  0  0  0  0  0
    2.7338   51.5555   20.7792 C   0  0  0  0  0  0
    2.8039   50.5962   19.7410 C   0  0  0  0  0  0
    3.5402   52.7191   20.7498 C   0  0  0  0  0  0
    3.4536   53.6614   21.7675 C   0  0  0  0  0  0
    2.5678   53.4780   22.8221 C   0  0  0  0  0  0
    1.7636   52.3401   22.9023 C   0  0  0  0  0  0
    0.9758   52.1708   24.0493 N   0  0  0  0  0  0
   -0.3675   52.2889   24.0939 C   0  0  0  0  0  0
   -1.0567   52.4968   23.0925 O   0  0  0  0  0  0
   -1.0245   52.0239   25.4403 C   0  0  0  0  0  0
   -2.3351   51.5161   25.4324 C   0  0  0  0  0  0
   -2.9854   51.1577   26.6096 C   0  0  0  0  0  0
   -2.3360   51.2966   27.8301 C   0  0  0  0  0  0
   -1.0478   51.8165   27.8745 C   0  0  0  0  0  0
   -0.3899   52.2105   26.6987 C   0  0  0  0  0  0
    0.8380   52.8928   26.8189 N   0  0  0  0  0  0
    1.8996   52.5050   27.5560 C   0  0  0  0  0  0
    1.9044   51.4495   28.1893 O   0  0  0  0  0  0
    3.1037   53.5002   27.6126 C   0  0  2  0  0  0
    2.6751   54.4280   27.9963 H   0  0  0  0  0  0
    3.5134   53.8661   26.1517 C   0  0  0  0  0  0
    4.9122   54.4570   26.0488 C   0  0  0  0  0  0
    5.7728   54.5636   27.0757 C   0  0  0  0  0  0
    5.4894   54.0658   28.4817 C   0  0  0  0  0  0
    4.3218   53.0390   28.4901 C   0  0  1  0  0  0
    4.6822   52.0973   28.0918 H   0  0  0  0  0  0
    3.8952   52.8059   29.9560 C   0  0  0  0  0  0
    4.3041   51.7777   30.5383 O   0  0  0  0  0  0
    2.1093   48.7172   18.9888 H   0  0  0  0  0  0
    0.5838   48.3119   20.8833 H   0  0  0  0  0  0
    0.4086   49.9352   22.7183 H   0  0  0  0  0  0
    3.4885   50.7592   18.9172 H   0  0  0  0  0  0
    4.2181   52.8738   19.9226 H   0  0  0  0  0  0
    4.0625   54.5523   21.7275 H   0  0  0  0  0  0
    2.5052   54.2452   23.5743 H   0  0  0  0  0  0
    1.4538   52.1302   24.9353 H   0  0  0  0  0  0
   -2.8602   51.3605   24.5000 H   0  0  0  0  0  0
   -3.9830   50.7464   26.5756 H   0  0  0  0  0  0
   -2.8251   50.9905   28.7440 H   0  0  0  0  0  0
   -0.5751   51.9360   28.8397 H   0  0  0  0  0  0
    0.9376   53.7290   26.2646 H   0  0  0  0  0  0
    2.7649   54.4962   25.6785 H   0  0  0  0  0  0
    3.5809   52.9564   25.5528 H   0  0  0  0  0  0
    5.2343   54.8360   25.0896 H   0  0  0  0  0  0
    6.7274   55.0304   26.8837 H   0  0  0  0  0  0
    6.3920   53.5997   28.8820 H   0  0  0  0  0  0
    5.2859   54.9299   29.1174 H   0  0  0  0  0  0
    3.1939   53.6968   30.4809 O   0  5  0  0  0  0
  1  6  2  0  0  0
  1  2  1  0  0  0
  1 33  1  0  0  0
  2  3  2  0  0  0
  2 34  1  0  0  0
  3  4  1  0  0  0
  3 35  1  0  0  0
  4 10  2  0  0  0
  4  5  1  0  0  0
  5  6  1  0  0  0
  5  7  2  0  0  0
  6 36  1  0  0  0
  7  8  1  0  0  0
  7 37  1  0  0  0
  8  9  2  0  0  0
  8 38  1  0  0  0
  9 10  1  0  0  0
  9 39  1  0  0  0
 10 11  1  0  0  0
 11 12  1  0  0  0
 11 40  1  0  0  0
 12 13  2  0  0  0
 12 14  1  0  0  0
 14 19  2  0  0  0
 14 15  1  0  0  0
 15 16  2  0  0  0
 15 41  1  0  0  0
 16 17  1  0  0  0
 16 42  1  0  0  0
 17 18  2  0  0  0
 17 43  1  0  0  0
 18 19  1  0  0  0
 18 44  1  0  0  0
 19 20  1  0  0  0
 20 21  1  0  0  0
 20 45  1  0  0  0
 21 22  2  0  0  0
 21 23  1  0  0  0
 23 24  1  0  0  0
 23 29  1  0  0  0
 23 25  1  0  0  0
 25 26  1  0  0  0
 25 46  1  0  0  0
 25 47  1  0  0  0
 26 27  2  0  0  0
 26 48  1  0  0  0
 27 28  1  0  0  0
 27 49  1  0  0  0
 28 29  1  0  0  0
 28 50  1  0  0  0
 28 51  1  0  0  0
 29 30  1  0  0  0
 29 31  1  0  0  0
 31 32  2  0  0  0
 31 52  1  0  0  0
M  CHG  1  52  -1
M  END
> <i_i_glide_confnum>
77

> <i_i_glide_lignum>
2589

> <i_i_glide_posenum>
360

> <i_i_glide_rotatable_bonds>
7

> <i_m_Source_File_Index>
3045

> <b_m_subgroup_collapsed>
0

> <r_i_docking_score>
-6.06062

> <r_i_glide_ecoul>
-8.66689

> <r_i_glide_eff_state_penalty>
0

> <r_i_glide_einternal>
15.9955

> <r_i_glide_emodel>
-61.0315

> <r_i_glide_energy>
-48.0957

> <r_i_glide_erotb>
0.692477

> <r_i_glide_esite>
0

> <r_i_glide_evdw>
-39.4288

> <r_i_glide_gscore>
-6.06062

> <r_i_glide_hbond>
-0.248856

> <r_i_glide_ligand_efficiency>
-0.195504

> <r_i_glide_ligand_efficiency_ln>
-1.36686

> <r_i_glide_ligand_efficiency_sa>
-0.614153

> <r_i_glide_lipo>
-2.02938

> <r_i_glide_metal>
0

> <r_i_glide_rewards>
-1.20339

> <s_i_glide_gridfile>
wee1_glide-grid

> <s_m_Source_File>
wee1_decoys_glide_SP.sdf

> <s_m_Source_Path>
/Users/zhangxujun/Desktop

> <s_m_entry_id>
3320

> <s_m_entry_name>
wee1_decoys_glide_SP.3045

> <s_m_subgroup_title>
wee1_decoys_glide_SP

> <s_m_subgroupid>
wee1_decoys_glide_SP


$$$$
