ZINC12064290_3989
                    3D
 Schrodinger Suite 2024-2.
 67 70  0  0  1  0            999 V2000
    2.2558   53.8156   13.2195 C   0  0  0  0  0  0
    2.2145   53.4628   14.7177 C   0  0  1  0  0  0
    1.3000   53.9060   15.1185 H   0  0  0  0  0  0
    2.2193   51.9386   14.9335 C   0  0  0  0  0  0
    1.9479   51.5585   16.4049 C   0  0  0  0  0  0
    2.8040   52.4178   17.3553 C   0  0  0  0  0  0
    3.4498   53.5756   16.8816 C   0  0  0  0  0  0
    4.3440   54.3899   18.1090 S   0  0  0  0  0  0
    3.8448   53.2227   19.2992 C   0  0  0  0  0  0
    3.0612   52.1861   18.7444 C   0  0  0  0  0  0
    2.5037   51.1041   19.5586 C   0  0  0  0  0  0
    2.2611   51.2656   20.7584 O   0  0  0  0  0  0
    2.3044   49.9308   18.9334 N   0  0  0  0  0  0
    1.7570   48.7492   19.5850 C   0  0  0  0  0  0
    4.1828   53.3508   20.6444 N   0  0  0  0  0  0
    5.1024   54.1518   21.2250 C   0  0  0  0  0  0
    5.9147   54.8628   20.6330 O   0  0  0  0  0  0
    5.1072   54.0966   22.7294 C   0  0  0  0  0  0
    6.3135   54.1081   23.4412 C   0  0  0  0  0  0
    6.3049   54.0967   24.8358 C   0  0  0  0  0  0
    5.0927   54.0973   25.5295 C   0  0  0  0  0  0
    3.8927   54.1302   24.8167 C   0  0  0  0  0  0
    3.8962   54.0988   23.4300 C   0  0  0  0  0  0
    5.1294   54.1157   27.3312 S   0  0  0  0  0  0
    5.6238   52.8291   27.8036 O   0  0  0  0  0  0
    5.9049   55.2968   27.6823 O   0  0  0  0  0  0
    3.4640   54.3003   27.9297 N   0  0  0  0  0  0
    3.2900   54.9932   29.2336 C   0  0  0  0  0  0
    2.5461   53.1616   27.6301 C   0  0  0  0  0  0
    2.4210   52.2041   28.8166 C   0  0  0  0  0  0
    1.5076   51.0472   28.3900 C   0  0  0  0  0  0
    0.1397   51.4750   27.8206 C   0  0  0  0  0  0
    0.2791   52.5601   26.7417 C   0  0  0  0  0  0
    1.1536   53.7124   27.2812 C   0  0  0  0  0  0
    3.4274   54.0834   15.4441 C   0  0  0  0  0  0
    3.1395   53.4016   12.7318 H   0  0  0  0  0  0
    1.3792   53.4259   12.7001 H   0  0  0  0  0  0
    2.2687   54.8950   13.0675 H   0  0  0  0  0  0
    3.1535   51.5049   14.5685 H   0  0  0  0  0  0
    1.4506   51.4779   14.3117 H   0  0  0  0  0  0
    0.8910   51.6880   16.6390 H   0  0  0  0  0  0
    2.1645   50.4970   16.4986 H   0  0  0  0  0  0
    2.8472   49.7507   18.0933 H   0  0  0  0  0  0
    1.5215   47.9915   18.8402 H   0  0  0  0  0  0
    2.4875   48.3285   20.2755 H   0  0  0  0  0  0
    0.8482   48.9851   20.1430 H   0  0  0  0  0  0
    3.7220   52.6776   21.2411 H   0  0  0  0  0  0
    7.2623   54.1286   22.9227 H   0  0  0  0  0  0
    7.2375   54.0933   25.3794 H   0  0  0  0  0  0
    2.9401   54.1891   25.3046 H   0  0  0  0  0  0
    2.9485   54.1269   22.9086 H   0  0  0  0  0  0
    2.2500   55.2851   29.3794 H   0  0  0  0  0  0
    3.6149   54.3380   30.0424 H   0  0  0  0  0  0
    3.9047   55.8842   29.2817 H   0  0  0  0  0  0
    2.9054   52.5898   26.7732 H   0  0  0  0  0  0
    3.4005   51.8302   29.1218 H   0  0  0  0  0  0
    1.9823   52.6987   29.6851 H   0  0  0  0  0  0
    2.0056   50.3852   27.6838 H   0  0  0  0  0  0
    1.3107   50.4967   29.2815 H   0  0  0  0  0  0
   -0.3882   50.6072   27.4202 H   0  0  0  0  0  0
   -0.4853   51.8530   28.6318 H   0  0  0  0  0  0
    0.7288   52.1376   25.8407 H   0  0  0  0  0  0
   -0.7148   52.8967   26.4503 H   0  0  0  0  0  0
    0.6727   54.1695   28.1477 H   0  0  0  0  0  0
    1.2612   54.4964   26.5428 H   0  0  0  0  0  0
    4.3555   53.7972   14.9464 H   0  0  0  0  0  0
    3.3749   55.1730   15.4157 H   0  0  0  0  0  0
  1  2  1  0  0  0
  1 36  1  0  0  0
  1 37  1  0  0  0
  1 38  1  0  0  0
  2  3  1  0  0  0
  2 35  1  0  0  0
  2  4  1  0  0  0
  4  5  1  0  0  0
  4 39  1  0  0  0
  4 40  1  0  0  0
  5  6  1  0  0  0
  5 41  1  0  0  0
  5 42  1  0  0  0
  6 10  1  0  0  0
  6  7  2  0  0  0
  7  8  1  0  0  0
  7 35  1  0  0  0
  8  9  1  0  0  0
  9 10  2  0  0  0
  9 15  1  0  0  0
 10 11  1  0  0  0
 11 12  2  0  0  0
 11 13  1  0  0  0
 13 14  1  0  0  0
 13 43  1  0  0  0
 14 44  1  0  0  0
 14 45  1  0  0  0
 14 46  1  0  0  0
 15 16  1  0  0  0
 15 47  1  0  0  0
 16 17  2  0  0  0
 16 18  1  0  0  0
 18 23  2  0  0  0
 18 19  1  0  0  0
 19 20  2  0  0  0
 19 48  1  0  0  0
 20 21  1  0  0  0
 20 49  1  0  0  0
 21 22  2  0  0  0
 21 24  1  0  0  0
 22 23  1  0  0  0
 22 50  1  0  0  0
 23 51  1  0  0  0
 24 25  2  0  0  0
 24 26  2  0  0  0
 24 27  1  0  0  0
 27 28  1  0  0  0
 27 29  1  0  0  0
 28 52  1  0  0  0
 28 53  1  0  0  0
 28 54  1  0  0  0
 29 34  1  0  0  0
 29 30  1  0  0  0
 29 55  1  0  0  0
 30 31  1  0  0  0
 30 56  1  0  0  0
 30 57  1  0  0  0
 31 32  1  0  0  0
 31 58  1  0  0  0
 31 59  1  0  0  0
 32 33  1  0  0  0
 32 60  1  0  0  0
 32 61  1  0  0  0
 33 34  1  0  0  0
 33 62  1  0  0  0
 33 63  1  0  0  0
 34 64  1  0  0  0
 34 65  1  0  0  0
 35 66  1  0  0  0
 35 67  1  0  0  0
M  END
> <i_i_glide_confnum>
125

> <i_i_glide_lignum>
3990

> <i_i_glide_posenum>
88

> <i_i_glide_rotatable_bonds>
8

> <i_m_Source_File_Index>
5167

> <b_m_subgroup_collapsed>
0

> <r_i_docking_score>
-1.8379

> <r_i_glide_ecoul>
-0.504429

> <r_i_glide_eff_state_penalty>
0

> <r_i_glide_einternal>
10.6905

> <r_i_glide_emodel>
-27.1594

> <r_i_glide_energy>
-36.925

> <r_i_glide_erotb>
0.564032

> <r_i_glide_esite>
-0.151254

> <r_i_glide_evdw>
-36.4206

> <r_i_glide_gscore>
-1.8379

> <r_i_glide_hbond>
-0.152654

> <r_i_glide_ligand_efficiency>
-0.054056

> <r_i_glide_ligand_efficiency_ln>
-0.406045

> <r_i_glide_ligand_efficiency_sa>
-0.17512

> <r_i_glide_lipo>
-2.41417

> <r_i_glide_metal>
0

> <r_i_glide_rewards>
2.21283

> <s_i_glide_gridfile>
wee1_glide-grid

> <s_m_Source_File>
wee1_decoys_glide_SP.sdf

> <s_m_Source_Path>
/Users/zhangxujun/Desktop

> <s_m_entry_id>
5442

> <s_m_entry_name>
wee1_decoys_glide_SP.5167

> <s_m_subgroup_title>
wee1_decoys_glide_SP

> <s_m_subgroupid>
wee1_decoys_glide_SP


$$$$
