ZINC59777295_5519
                    3D
 Schrodinger Suite 2024-2.
 43 45  0  0  1  0            999 V2000
    6.7432   54.6386   27.2781 C   0  0  0  0  0  0
    5.8924   53.6941   27.8385 C   0  0  0  0  0  0
    4.6989   53.3857   27.1996 C   0  0  0  0  0  0
    4.3403   54.0475   26.0171 C   0  0  0  0  0  0
    5.1943   55.0158   25.4825 C   0  0  0  0  0  0
    6.4036   55.2964   26.1009 C   0  0  0  0  0  0
    3.1345   53.6967   25.3475 N   0  0  0  0  0  0
    1.8999   53.3824   25.9014 C   0  0  0  0  0  0
    1.0592   53.0055   24.9693 N   0  0  0  0  0  0
    1.7059   53.1202   23.7520 N   0  0  0  0  0  0
    2.9366   53.5119   23.9840 C   0  0  0  0  0  0
    4.1712   53.6972   22.7155 S   0  0  0  0  0  0
    3.2282   53.3142   21.2013 C   0  0  0  0  0  0
    3.1703   51.8353   20.8134 C   0  0  0  0  0  0
    3.5045   50.9575   21.6118 O   0  0  0  0  0  0
    2.7056   51.5882   19.5704 N   0  0  0  0  0  0
    2.6271   50.2737   19.1122 N   0  0  0  0  0  0
    1.4924   49.5617   19.3012 C   0  0  0  0  0  0
    0.4811   50.0161   19.8479 O   0  0  0  0  0  0
    1.4736   48.1208   18.7637 C   0  0  0  0  0  0
    0.9342   47.3079   19.6744 F   0  0  0  0  0  0
    2.7041   47.6969   18.4816 F   0  0  0  0  0  0
    0.7334   48.0723   17.6536 F   0  0  0  0  0  0
    1.5152   53.4559   27.3475 C   0  0  0  0  0  0
    0.7352   52.4445   27.9252 C   0  0  0  0  0  0
    0.3699   52.5216   29.2687 C   0  0  0  0  0  0
    0.7760   53.6134   30.0319 C   0  0  0  0  0  0
    1.5308   54.6363   29.4639 C   0  0  0  0  0  0
    1.8992   54.5561   28.1243 C   0  0  0  0  0  0
    0.3035   53.7126   31.8699 Br  0  0  0  0  0  0
    7.6787   54.8635   27.7629 H   0  0  0  0  0  0
    6.1674   53.1861   28.7503 H   0  0  0  0  0  0
    4.0670   52.6142   27.6190 H   0  0  0  0  0  0
    4.9444   55.5450   24.5762 H   0  0  0  0  0  0
    7.0630   56.0326   25.6661 H   0  0  0  0  0  0
    3.6955   53.8655   20.3850 H   0  0  0  0  0  0
    2.2136   53.6947   21.2841 H   0  0  0  0  0  0
    2.4715   52.2798   18.8719 H   0  0  0  0  0  0
    3.4400   49.9755   18.5794 H   0  0  0  0  0  0
    0.4156   51.5963   27.3342 H   0  0  0  0  0  0
   -0.2248   51.7366   29.7129 H   0  0  0  0  0  0
    1.8258   55.4898   30.0542 H   0  0  0  0  0  0
    2.4827   55.3526   27.6841 H   0  0  0  0  0  0
  1  6  2  0  0  0
  1  2  1  0  0  0
  1 31  1  0  0  0
  2  3  2  0  0  0
  2 32  1  0  0  0
  3  4  1  0  0  0
  3 33  1  0  0  0
  4  5  2  0  0  0
  4  7  1  0  0  0
  5  6  1  0  0  0
  5 34  1  0  0  0
  6 35  1  0  0  0
  7 11  1  0  0  0
  7  8  1  0  0  0
  8  9  2  0  0  0
  8 24  1  0  0  0
  9 10  1  0  0  0
 10 11  2  0  0  0
 11 12  1  0  0  0
 12 13  1  0  0  0
 13 14  1  0  0  0
 13 36  1  0  0  0
 13 37  1  0  0  0
 14 15  2  0  0  0
 14 16  1  0  0  0
 16 17  1  0  0  0
 16 38  1  0  0  0
 17 18  1  0  0  0
 17 39  1  0  0  0
 18 19  2  0  0  0
 18 20  1  0  0  0
 20 21  1  0  0  0
 20 22  1  0  0  0
 20 23  1  0  0  0
 24 29  2  0  0  0
 24 25  1  0  0  0
 25 26  2  0  0  0
 25 40  1  0  0  0
 26 27  1  0  0  0
 26 41  1  0  0  0
 27 28  2  0  0  0
 27 30  1  0  0  0
 28 29  1  0  0  0
 28 42  1  0  0  0
 29 43  1  0  0  0
M  END
> <i_i_glide_confnum>
171

> <i_i_glide_lignum>
5520

> <i_i_glide_posenum>
261

> <i_i_glide_rotatable_bonds>
9

> <i_m_Source_File_Index>
5107

> <b_m_subgroup_collapsed>
0

> <r_i_docking_score>
-6.3573

> <r_i_glide_ecoul>
-4.60212

> <r_i_glide_eff_state_penalty>
0

> <r_i_glide_einternal>
1.43395

> <r_i_glide_emodel>
-68.9739

> <r_i_glide_energy>
-49.0027

> <r_i_glide_erotb>
0.652631

> <r_i_glide_esite>
-0.338301

> <r_i_glide_evdw>
-44.4006

> <r_i_glide_gscore>
-6.3573

> <r_i_glide_hbond>
-0.23695

> <r_i_glide_ligand_efficiency>
-0.21191

> <r_i_glide_ligand_efficiency_ln>
-1.44445

> <r_i_glide_ligand_efficiency_sa>
-0.658454

> <r_i_glide_lipo>
-2.76644

> <r_i_glide_metal>
0

> <r_i_glide_rewards>
-0.757901

> <s_i_glide_gridfile>
wee1_glide-grid

> <s_m_Source_File>
wee1_decoys_glide_SP.sdf

> <s_m_Source_Path>
/Users/zhangxujun/Desktop

> <s_m_entry_id>
5382

> <s_m_entry_name>
wee1_decoys_glide_SP.5107

> <s_m_subgroup_title>
wee1_decoys_glide_SP

> <s_m_subgroupid>
wee1_decoys_glide_SP


$$$$
