ZINC21089785_2667
                    3D
 Schrodinger Suite 2024-2.
 50 53  0  0  1  0            999 V2000
    6.6913   54.9335   25.4730 C   0  0  0  0  0  0
    5.9757   54.7134   24.1400 C   0  0  0  0  0  0
    4.6621   54.3643   23.9315 C   0  0  0  0  0  0
    4.0698   54.3173   22.4744 C   0  0  1  0  0  0
    3.2923   55.0794   22.3844 H   0  0  0  0  0  0
    5.1199   54.7294   21.5154 N   0  0  0  0  0  0
    6.4175   55.0559   21.8083 C   0  0  0  0  0  0
    7.0830   55.3922   20.7352 N   0  0  0  0  0  0
    6.1535   55.2595   19.8021 C   0  0  0  0  0  0
    4.9564   54.8762   20.1933 N   0  0  0  0  0  0
    6.8414   55.0304   23.1084 N   0  0  0  0  0  0
    3.3503   53.0283   22.0214 C   0  0  0  0  0  0
    1.9686   52.8879   22.2136 C   0  0  0  0  0  0
    1.3041   51.7408   21.7879 C   0  0  0  0  0  0
    2.0114   50.7400   21.1255 C   0  0  0  0  0  0
    3.3719   50.8964   20.8792 C   0  0  0  0  0  0
    4.0460   52.0190   21.3438 C   0  0  0  0  0  0
    1.2175   49.2547   20.5794 S   0  0  0  0  0  0
   -0.4237   49.1537   21.3445 C   0  0  0  0  0  0
    3.6978   54.0968   25.0117 C   0  0  0  0  0  0
    2.4908   54.2265   24.8270 O   0  0  0  0  0  0
    4.2052   53.6968   26.2007 N   0  0  0  0  0  0
    3.5776   53.3937   27.4304 C   0  0  0  0  0  0
    2.2074   53.5372   27.7011 C   0  0  0  0  0  0
    1.7001   53.1741   28.9506 C   0  0  0  0  0  0
    2.5482   52.6549   29.9387 C   0  0  0  0  0  0
    3.9067   52.5179   29.6651 C   0  0  0  0  0  0
    4.4192   52.8980   28.4296 C   0  0  0  0  0  0
    2.1445   52.2592   31.1971 O   0  0  0  0  0  0
    0.8047   52.4952   31.6127 C   0  0  0  0  0  0
    6.0385   55.3632   26.2319 H   0  0  0  0  0  0
    7.1052   53.9935   25.8393 H   0  0  0  0  0  0
    7.5043   55.6497   25.3738 H   0  0  0  0  0  0
    6.3646   55.4561   18.7608 H   0  0  0  0  0  0
    7.8070   55.2657   23.3157 H   0  0  0  0  0  0
    1.4002   53.6706   22.6901 H   0  0  0  0  0  0
    0.2445   51.6515   21.9702 H   0  0  0  0  0  0
    3.9041   50.1360   20.3287 H   0  0  0  0  0  0
    5.1065   52.1111   21.1478 H   0  0  0  0  0  0
   -0.8912   48.2029   21.0848 H   0  0  0  0  0  0
   -0.3417   49.2111   22.4305 H   0  0  0  0  0  0
   -1.0655   49.9595   20.9890 H   0  0  0  0  0  0
    5.2022   53.5512   26.2015 H   0  0  0  0  0  0
    1.5187   53.9239   26.9666 H   0  0  0  0  0  0
    0.6415   53.2883   29.1272 H   0  0  0  0  0  0
    4.5681   52.1139   30.4187 H   0  0  0  0  0  0
    5.4768   52.7735   28.2447 H   0  0  0  0  0  0
    0.7034   52.1623   32.6446 H   0  0  0  0  0  0
    0.0862   51.9356   31.0151 H   0  0  0  0  0  0
    0.5478   53.5536   31.5790 H   0  0  0  0  0  0
  1  2  1  0  0  0
  1 31  1  0  0  0
  1 32  1  0  0  0
  1 33  1  0  0  0
  2 11  1  0  0  0
  2  3  2  0  0  0
  3  4  1  0  0  0
  3 20  1  0  0  0
  4  5  1  0  0  0
  4  6  1  0  0  0
  4 12  1  0  0  0
  6 10  1  0  0  0
  6  7  1  0  0  0
  7  8  2  0  0  0
  7 11  1  0  0  0
  8  9  1  0  0  0
  9 10  2  0  0  0
  9 34  1  0  0  0
 11 35  1  0  0  0
 12 17  2  0  0  0
 12 13  1  0  0  0
 13 14  2  0  0  0
 13 36  1  0  0  0
 14 15  1  0  0  0
 14 37  1  0  0  0
 15 16  2  0  0  0
 15 18  1  0  0  0
 16 17  1  0  0  0
 16 38  1  0  0  0
 17 39  1  0  0  0
 18 19  1  0  0  0
 19 40  1  0  0  0
 19 41  1  0  0  0
 19 42  1  0  0  0
 20 21  2  0  0  0
 20 22  1  0  0  0
 22 23  1  0  0  0
 22 43  1  0  0  0
 23 28  2  0  0  0
 23 24  1  0  0  0
 24 25  2  0  0  0
 24 44  1  0  0  0
 25 26  1  0  0  0
 25 45  1  0  0  0
 26 27  2  0  0  0
 26 29  1  0  0  0
 27 28  1  0  0  0
 27 46  1  0  0  0
 28 47  1  0  0  0
 29 30  1  0  0  0
 30 48  1  0  0  0
 30 49  1  0  0  0
 30 50  1  0  0  0
M  END
> <i_i_glide_confnum>
5

> <i_i_glide_lignum>
2668

> <i_i_glide_posenum>
213

> <i_i_glide_rotatable_bonds>
6

> <i_m_Source_File_Index>
2981

> <b_m_subgroup_collapsed>
0

> <r_i_docking_score>
-6.51866

> <r_i_glide_ecoul>
-3.05473

> <r_i_glide_eff_state_penalty>
0

> <r_i_glide_einternal>
10.336

> <r_i_glide_emodel>
-62.2236

> <r_i_glide_energy>
-47.6988

> <r_i_glide_erotb>
0.473895

> <r_i_glide_esite>
0

> <r_i_glide_evdw>
-44.644

> <r_i_glide_gscore>
-6.51866

> <r_i_glide_hbond>
-0.473821

> <r_i_glide_ligand_efficiency>
-0.224782

> <r_i_glide_ligand_efficiency_ln>
-1.49261

> <r_i_glide_ligand_efficiency_sa>
-0.6906

> <r_i_glide_lipo>
-2.23418

> <r_i_glide_metal>
0

> <r_i_glide_rewards>
-1.59415

> <s_i_glide_gridfile>
wee1_glide-grid

> <s_m_Source_File>
wee1_decoys_glide_SP.sdf

> <s_m_Source_Path>
/Users/zhangxujun/Desktop

> <s_m_entry_id>
3256

> <s_m_entry_name>
wee1_decoys_glide_SP.2981

> <s_m_subgroup_title>
wee1_decoys_glide_SP

> <s_m_subgroupid>
wee1_decoys_glide_SP


$$$$
