ZINC64557888_1010
                    3D
 Schrodinger Suite 2024-2.
 57 60  0  0  1  0            999 V2000
   -0.6834   51.7068   29.0575 C   0  0  0  0  0  0
    0.6123   52.3900   29.5054 C   0  0  0  0  0  0
    1.3438   52.7854   28.3512 O   0  0  0  0  0  0
    2.6104   53.2579   28.4511 C   0  0  0  0  0  0
    3.2162   53.3653   29.5240 O   0  0  0  0  0  0
    3.2248   53.5598   27.1175 C   0  0  0  0  0  0
    4.6104   53.6976   27.0136 C   0  0  0  0  0  0
    5.2067   53.9458   25.7808 C   0  0  0  0  0  0
    4.4457   54.1211   24.6045 C   0  0  0  0  0  0
    3.0545   54.0336   24.7421 C   0  0  0  0  0  0
    2.4538   53.7118   25.9592 C   0  0  0  0  0  0
    5.0313   54.3997   23.3122 N   0  0  0  0  0  0
    4.3273   54.3947   22.0017 C   0  0  1  0  0  0
    3.5349   55.1431   22.0618 H   0  0  0  0  0  0
    5.3792   54.8635   21.0223 C   0  0  0  0  0  0
    6.4686   55.1671   21.7169 C   0  0  0  0  0  0
    6.2992   54.8975   23.1363 C   0  0  0  0  0  0
    7.1044   55.1403   24.0321 O   0  0  0  0  0  0
    7.5681   55.6956   21.3065 O   0  5  0  0  0  0
    5.1101   55.0657   19.2279 S   0  0  0  0  0  0
    3.9730   54.2299   18.8324 O   0  0  0  0  0  0
    5.1047   56.4965   18.9045 O   0  0  0  0  0  0
    6.5588   54.3886   18.4104 C   0  0  0  0  0  0
    6.5155   53.1066   17.8615 C   0  0  0  0  0  0
    7.6286   52.5970   17.1980 C   0  0  0  0  0  0
    8.7836   53.3687   17.0911 C   0  0  0  0  0  0
    8.8288   54.6526   17.6267 C   0  0  0  0  0  0
    7.7101   55.1680   18.2749 C   0  0  0  0  0  0
    3.6195   53.0777   21.6320 C   0  0  0  0  0  0
    2.2269   52.9691   21.7455 C   0  0  0  0  0  0
    1.5581   51.8069   21.3776 C   0  0  0  0  0  0
    2.2773   50.7574   20.8163 C   0  0  0  0  0  0
    3.6434   50.8956   20.6084 C   0  0  0  0  0  0
    4.3251   52.0223   21.0484 C   0  0  0  0  0  0
    1.4927   49.2381   20.3466 S   0  0  0  0  0  0
   -0.1504   49.1732   21.1149 C   0  0  0  0  0  0
   -1.2785   51.3920   29.9150 H   0  0  0  0  0  0
   -0.4631   50.8154   28.4671 H   0  0  0  0  0  0
   -1.2943   52.3651   28.4411 H   0  0  0  0  0  0
    0.3927   53.2624   30.1241 H   0  0  0  0  0  0
    1.1990   51.6979   30.1133 H   0  0  0  0  0  0
    5.2464   53.5705   27.8798 H   0  0  0  0  0  0
    6.2819   53.9522   25.7821 H   0  0  0  0  0  0
    2.4025   54.2381   23.9168 H   0  0  0  0  0  0
    1.3758   53.6429   25.9970 H   0  0  0  0  0  0
    5.6262   52.4971   17.9462 H   0  0  0  0  0  0
    7.5968   51.5999   16.7825 H   0  0  0  0  0  0
    9.6517   52.9668   16.5900 H   0  0  0  0  0  0
    9.7246   55.2501   17.5372 H   0  0  0  0  0  0
    7.7409   56.1692   18.6776 H   0  0  0  0  0  0
    1.6330   53.8023   22.0831 H   0  0  0  0  0  0
    0.4890   51.7509   21.5005 H   0  0  0  0  0  0
    4.1775   50.1119   20.1024 H   0  0  0  0  0  0
    5.3890   52.0913   20.8766 H   0  0  0  0  0  0
   -0.5970   48.1924   20.9537 H   0  0  0  0  0  0
   -0.0737   49.3433   22.1906 H   0  0  0  0  0  0
   -0.8092   49.9247   20.6777 H   0  0  0  0  0  0
  1  2  1  0  0  0
  1 37  1  0  0  0
  1 38  1  0  0  0
  1 39  1  0  0  0
  2  3  1  0  0  0
  2 40  1  0  0  0
  2 41  1  0  0  0
  3  4  1  0  0  0
  4  5  2  0  0  0
  4  6  1  0  0  0
  6 11  2  0  0  0
  6  7  1  0  0  0
  7  8  2  0  0  0
  7 42  1  0  0  0
  8  9  1  0  0  0
  8 43  1  0  0  0
  9 10  2  0  0  0
  9 12  1  0  0  0
 10 11  1  0  0  0
 10 44  1  0  0  0
 11 45  1  0  0  0
 12 17  1  0  0  0
 12 13  1  0  0  0
 13 14  1  0  0  0
 13 15  1  0  0  0
 13 29  1  0  0  0
 15 16  2  0  0  0
 15 20  1  0  0  0
 16 17  1  0  0  0
 16 19  1  0  0  0
 17 18  2  0  0  0
 20 21  2  0  0  0
 20 22  2  0  0  0
 20 23  1  0  0  0
 23 28  2  0  0  0
 23 24  1  0  0  0
 24 25  2  0  0  0
 24 46  1  0  0  0
 25 26  1  0  0  0
 25 47  1  0  0  0
 26 27  2  0  0  0
 26 48  1  0  0  0
 27 28  1  0  0  0
 27 49  1  0  0  0
 28 50  1  0  0  0
 29 34  2  0  0  0
 29 30  1  0  0  0
 30 31  2  0  0  0
 30 51  1  0  0  0
 31 32  1  0  0  0
 31 52  1  0  0  0
 32 33  2  0  0  0
 32 35  1  0  0  0
 33 34  1  0  0  0
 33 53  1  0  0  0
 34 54  1  0  0  0
 35 36  1  0  0  0
 36 55  1  0  0  0
 36 56  1  0  0  0
 36 57  1  0  0  0
M  CHG  1  19  -1
M  END
> <i_i_glide_confnum>
141

> <i_i_glide_lignum>
1011

> <i_i_glide_posenum>
128

> <i_i_glide_rotatable_bonds>
8

> <i_m_Source_File_Index>
4528

> <b_m_subgroup_collapsed>
0

> <r_i_docking_score>
-4.62462

> <r_i_glide_ecoul>
1.95458

> <r_i_glide_eff_state_penalty>
0

> <r_i_glide_einternal>
7.87747

> <r_i_glide_emodel>
-50.0529

> <r_i_glide_energy>
-41.0145

> <r_i_glide_erotb>
0.474928

> <r_i_glide_esite>
-0.0139882

> <r_i_glide_evdw>
-42.969

> <r_i_glide_gscore>
-4.62462

> <r_i_glide_hbond>
0

> <r_i_glide_ligand_efficiency>
-0.132132

> <r_i_glide_ligand_efficiency_ln>
-1.01521

> <r_i_glide_ligand_efficiency_sa>
-0.432213

> <r_i_glide_lipo>
-2.26157

> <r_i_glide_metal>
0

> <r_i_glide_rewards>
-0.968726

> <s_i_glide_gridfile>
wee1_glide-grid

> <s_m_Source_File>
wee1_decoys_glide_SP.sdf

> <s_m_Source_Path>
/Users/zhangxujun/Desktop

> <s_m_entry_id>
4803

> <s_m_entry_name>
wee1_decoys_glide_SP.4528

> <s_m_subgroup_title>
wee1_decoys_glide_SP

> <s_m_subgroupid>
wee1_decoys_glide_SP


$$$$
