ZINC39389428_544
                    3D
 Schrodinger Suite 2024-2.
 55 58  0  0  1  0            999 V2000
   -0.6513   51.8654   30.0806 C   0  0  0  0  0  0
   -0.8786   51.5335   28.5975 C   0  0  0  0  0  0
   -0.1425   52.4024   27.7449 O   0  0  0  0  0  0
    1.1860   52.2423   27.5527 C   0  0  0  0  0  0
    1.8928   51.3797   28.0820 O   0  0  0  0  0  0
    1.7458   53.3009   26.5764 C   0  0  2  0  0  0
    1.2629   54.2179   26.9114 H   0  0  0  0  0  0
    1.3765   53.1025   25.0762 C   0  0  1  0  0  0
    0.5005   53.7203   24.8792 H   0  0  0  0  0  0
    2.6617   53.9388   24.1237 S   0  0  0  0  0  0
    3.7984   53.9531   25.4906 C   0  0  0  0  0  0
    3.2381   53.6188   26.6738 C   0  0  0  0  0  0
    4.0534   53.5196   27.9689 C   0  0  0  0  0  0
    5.4142   54.2368   27.8664 C   0  0  0  0  0  0
    6.1194   53.9587   26.5319 C   0  0  0  0  0  0
    5.2579   54.3636   25.3147 C   0  0  0  0  0  0
    1.1040   51.7245   24.6260 N   0  0  0  0  0  0
   -0.1199   51.2003   24.4076 C   0  0  0  0  0  0
   -1.1539   51.8365   24.6224 O   0  0  0  0  0  0
   -0.1913   49.7488   23.8774 C   0  0  1  0  0  0
    0.7543   49.5371   23.3764 H   0  0  0  0  0  0
   -0.3136   48.7696   25.0677 C   0  0  0  0  0  0
   -1.4576   49.6156   22.5426 S   0  0  0  0  0  0
   -1.9830   47.9263   22.6133 C   0  0  0  0  0  0
   -2.7556   47.4578   23.5689 N   0  0  0  0  0  0
   -2.9583   46.0974   23.3508 N   0  0  0  0  0  0
   -2.3202   45.8001   22.2514 C   0  0  0  0  0  0
   -1.6953   46.9178   21.7058 N   0  0  0  0  0  0
   -0.9681   46.8016   20.4850 C   0  0  0  0  0  0
   -0.8987   45.5532   19.9519 C   0  0  0  0  0  0
   -1.5014   44.3794   20.5765 C   0  0  0  0  0  0
   -1.2710   43.2967   20.0390 O   0  0  0  0  0  0
   -2.2118   44.5646   21.6798 N   0  5  0  0  0  0
   -0.3406   48.0464   19.8855 C   0  0  0  0  0  0
   -1.2811   51.2423   30.7173 H   0  0  0  0  0  0
    0.3835   51.6969   30.3742 H   0  0  0  0  0  0
   -0.8824   52.9073   30.2957 H   0  0  0  0  0  0
   -1.9368   51.6432   28.3589 H   0  0  0  0  0  0
   -0.6218   50.4963   28.3855 H   0  0  0  0  0  0
    3.4913   53.8827   28.8290 H   0  0  0  0  0  0
    4.2421   52.4719   28.1985 H   0  0  0  0  0  0
    6.0559   53.9401   28.6972 H   0  0  0  0  0  0
    5.2614   55.3047   27.9758 H   0  0  0  0  0  0
    6.3506   52.8968   26.4810 H   0  0  0  0  0  0
    7.0792   54.4757   26.4981 H   0  0  0  0  0  0
    5.6879   53.9281   24.4118 H   0  0  0  0  0  0
    5.3187   55.4427   25.1689 H   0  0  0  0  0  0
    1.9096   51.1291   24.5103 H   0  0  0  0  0  0
    0.4617   48.9357   25.8187 H   0  0  0  0  0  0
   -1.2769   48.8628   25.5725 H   0  0  0  0  0  0
   -0.2064   47.7345   24.7448 H   0  0  0  0  0  0
   -0.3600   45.4032   19.0283 H   0  0  0  0  0  0
    0.1625   47.8186   18.9455 H   0  0  0  0  0  0
   -1.1014   48.8002   19.6830 H   0  0  0  0  0  0
    0.4013   48.4670   20.5647 H   0  0  0  0  0  0
  1  2  1  0  0  0
  1 35  1  0  0  0
  1 36  1  0  0  0
  1 37  1  0  0  0
  2  3  1  0  0  0
  2 38  1  0  0  0
  2 39  1  0  0  0
  3  4  1  0  0  0
  4  5  2  0  0  0
  4  6  1  0  0  0
  6  7  1  0  0  0
  6 12  1  0  0  0
  6  8  1  0  0  0
  8  9  1  0  0  0
  8 10  1  0  0  0
  8 17  1  0  0  0
 10 11  1  0  0  0
 11 16  1  0  0  0
 11 12  2  0  0  0
 12 13  1  0  0  0
 13 14  1  0  0  0
 13 40  1  0  0  0
 13 41  1  0  0  0
 14 15  1  0  0  0
 14 42  1  0  0  0
 14 43  1  0  0  0
 15 16  1  0  0  0
 15 44  1  0  0  0
 15 45  1  0  0  0
 16 46  1  0  0  0
 16 47  1  0  0  0
 17 18  1  0  0  0
 17 48  1  0  0  0
 18 19  2  0  0  0
 18 20  1  0  0  0
 20 21  1  0  0  0
 20 22  1  0  0  0
 20 23  1  0  0  0
 22 49  1  0  0  0
 22 50  1  0  0  0
 22 51  1  0  0  0
 23 24  1  0  0  0
 24 28  1  0  0  0
 24 25  2  0  0  0
 25 26  1  0  0  0
 26 27  2  0  0  0
 27 33  1  0  0  0
 27 28  1  0  0  0
 28 29  1  0  0  0
 29 30  2  0  0  0
 29 34  1  0  0  0
 30 31  1  0  0  0
 30 52  1  0  0  0
 31 32  2  0  0  0
 31 33  1  0  0  0
 34 53  1  0  0  0
 34 54  1  0  0  0
 34 55  1  0  0  0
M  CHG  1  33  -1
M  END
> <i_i_glide_confnum>
221

> <i_i_glide_lignum>
545

> <i_i_glide_posenum>
205

> <i_i_glide_rotatable_bonds>
8

> <i_m_Source_File_Index>
5133

> <b_m_subgroup_collapsed>
0

> <r_i_docking_score>
-4.80511

> <r_i_glide_ecoul>
-3.68793

> <r_i_glide_eff_state_penalty>
0

> <r_i_glide_einternal>
6.45856

> <r_i_glide_emodel>
-52.773

> <r_i_glide_energy>
-40.208

> <r_i_glide_erotb>
0.659044

> <r_i_glide_esite>
-0.101883

> <r_i_glide_evdw>
-36.5201

> <r_i_glide_gscore>
-4.80511

> <r_i_glide_hbond>
-0.264636

> <r_i_glide_ligand_efficiency>
-0.155004

> <r_i_glide_ligand_efficiency_ln>
-1.0837

> <r_i_glide_ligand_efficiency_sa>
-0.486926

> <r_i_glide_lipo>
-2.16914

> <r_i_glide_metal>
0

> <r_i_glide_rewards>
-0.549302

> <s_i_glide_gridfile>
wee1_glide-grid

> <s_m_Source_File>
wee1_decoys_glide_SP.sdf

> <s_m_Source_Path>
/Users/zhangxujun/Desktop

> <s_m_entry_id>
5408

> <s_m_entry_name>
wee1_decoys_glide_SP.5133

> <s_m_subgroup_title>
wee1_decoys_glide_SP

> <s_m_subgroupid>
wee1_decoys_glide_SP


$$$$
