ZINC59862277_3340
                    3D
 Schrodinger Suite 2024-2.
 48 50  0  0  1  0            999 V2000
    6.3324   56.4460   19.0988 C   0  0  0  0  0  0
    5.7348   55.1964   19.7304 C   0  0  0  0  0  0
    5.5706   55.1497   21.1166 C   0  0  0  0  0  0
    5.0015   54.0351   21.7571 C   0  0  0  0  0  0
    4.6232   52.9327   20.9625 C   0  0  0  0  0  0
    4.7774   52.9849   19.5793 C   0  0  0  0  0  0
    5.3289   54.1025   18.9526 C   0  0  0  0  0  0
    5.4980   54.0895   17.4403 C   0  0  0  0  0  0
    3.8909   51.3270   21.6817 Br  0  0  0  0  0  0
    4.8683   54.0439   23.1865 N   0  0  0  0  0  0
    3.5895   54.0969   23.7085 C   0  0  0  0  0  0
    2.5733   54.1551   23.0053 O   0  0  0  0  0  0
    3.5195   54.0922   25.1845 C   0  0  0  0  0  0
    2.3099   53.7966   25.7560 C   0  0  0  0  0  0
    1.8316   53.6940   27.1582 C   0  0  0  0  0  0
    1.9880   54.7132   28.1060 C   0  0  0  0  0  0
    1.4110   54.6152   29.3861 C   0  0  0  0  0  0
    0.6701   53.4722   29.7111 C   0  0  0  0  0  0
    0.4562   52.4750   28.7571 C   0  0  0  0  0  0
    1.0579   52.5821   27.4985 C   0  0  0  0  0  0
   -0.3719   51.4256   29.0822 O   0  0  0  0  0  0
   -1.3674   51.0910   28.1175 C   0  0  0  0  0  0
    0.1051   53.3440   30.9596 O   0  0  0  0  0  0
    1.5044   55.5990   30.3533 O   0  0  0  0  0  0
    1.9307   56.8968   29.9771 C   0  0  0  0  0  0
    4.7704   54.3085   25.9381 C   0  0  0  0  0  0
    4.7160   54.4857   27.1517 O   0  0  0  0  0  0
    5.9106   54.3050   25.2691 N   0  5  0  0  0  0
    6.0182   54.0969   23.9634 C   0  0  0  0  0  0
    7.1043   53.9464   23.4035 O   0  0  0  0  0  0
    7.3532   56.2561   18.7661 H   0  0  0  0  0  0
    5.7476   56.7509   18.2306 H   0  0  0  0  0  0
    6.3323   57.2917   19.7869 H   0  0  0  0  0  0
    5.9051   55.9896   21.7055 H   0  0  0  0  0  0
    4.4669   52.1341   18.9886 H   0  0  0  0  0  0
    4.8060   54.7903   16.9731 H   0  0  0  0  0  0
    6.5110   54.3883   17.1690 H   0  0  0  0  0  0
    5.3343   53.0956   17.0187 H   0  0  0  0  0  0
    1.4841   53.6097   25.0808 H   0  0  0  0  0  0
    2.5457   55.5934   27.8265 H   0  0  0  0  0  0
    0.8981   51.8018   26.7679 H   0  0  0  0  0  0
   -2.1493   50.4984   28.5937 H   0  0  0  0  0  0
   -1.8467   51.9749   27.6912 H   0  0  0  0  0  0
   -0.9462   50.4963   27.3057 H   0  0  0  0  0  0
   -0.3437   52.5017   31.0953 H   0  0  0  0  0  0
    1.8491   57.5641   30.8353 H   0  0  0  0  0  0
    1.3209   57.2975   29.1669 H   0  0  0  0  0  0
    2.9748   56.8937   29.6689 H   0  0  0  0  0  0
  1  2  1  0  0  0
  1 31  1  0  0  0
  1 32  1  0  0  0
  1 33  1  0  0  0
  2  7  2  0  0  0
  2  3  1  0  0  0
  3  4  2  0  0  0
  3 34  1  0  0  0
  4  5  1  0  0  0
  4 10  1  0  0  0
  5  6  2  0  0  0
  5  9  1  0  0  0
  6  7  1  0  0  0
  6 35  1  0  0  0
  7  8  1  0  0  0
  8 36  1  0  0  0
  8 37  1  0  0  0
  8 38  1  0  0  0
 10 29  1  0  0  0
 10 11  1  0  0  0
 11 12  2  0  0  0
 11 13  1  0  0  0
 13 14  2  0  0  0
 13 26  1  0  0  0
 14 15  1  0  0  0
 14 39  1  0  0  0
 15 20  2  0  0  0
 15 16  1  0  0  0
 16 17  2  0  0  0
 16 40  1  0  0  0
 17 18  1  0  0  0
 17 24  1  0  0  0
 18 19  2  0  0  0
 18 23  1  0  0  0
 19 20  1  0  0  0
 19 21  1  0  0  0
 20 41  1  0  0  0
 21 22  1  0  0  0
 22 42  1  0  0  0
 22 43  1  0  0  0
 22 44  1  0  0  0
 23 45  1  0  0  0
 24 25  1  0  0  0
 25 46  1  0  0  0
 25 47  1  0  0  0
 25 48  1  0  0  0
 26 27  2  0  0  0
 26 28  1  0  0  0
 28 29  1  0  0  0
 29 30  2  0  0  0
M  CHG  1  28  -1
M  END
> <i_i_glide_confnum>
2

> <i_i_glide_lignum>
3341

> <i_i_glide_posenum>
320

> <i_i_glide_rotatable_bonds>
5

> <i_m_Source_File_Index>
2196

> <b_m_subgroup_collapsed>
0

> <r_i_docking_score>
-6.7483

> <r_i_glide_ecoul>
-3.4827

> <r_i_glide_eff_state_penalty>
0

> <r_i_glide_einternal>
8.60899

> <r_i_glide_emodel>
-65.2579

> <r_i_glide_energy>
-49.755

> <r_i_glide_erotb>
0.179902

> <r_i_glide_esite>
0

> <r_i_glide_evdw>
-46.2723

> <r_i_glide_gscore>
-6.7483

> <r_i_glide_hbond>
-0.0181828

> <r_i_glide_ligand_efficiency>
-0.224943

> <r_i_glide_ligand_efficiency_ln>
-1.53329

> <r_i_glide_ligand_efficiency_sa>
-0.698951

> <r_i_glide_lipo>
-2.47084

> <r_i_glide_metal>
0

> <r_i_glide_rewards>
-1.60315

> <s_i_glide_gridfile>
wee1_glide-grid

> <s_m_Source_File>
wee1_decoys_glide_SP.sdf

> <s_m_Source_Path>
/Users/zhangxujun/Desktop

> <s_m_entry_id>
2471

> <s_m_entry_name>
wee1_decoys_glide_SP.2196

> <s_m_subgroup_title>
wee1_decoys_glide_SP

> <s_m_subgroupid>
wee1_decoys_glide_SP


$$$$
