ZINC14975631_3049
                    3D
 Schrodinger Suite 2024-2.
 70 74  0  0  1  0            999 V2000
   -0.0438   51.7612   29.1648 C   0  0  0  0  0  0
    0.1252   52.7512   30.1285 C   0  0  0  0  0  0
    1.2729   53.5415   30.1156 C   0  0  0  0  0  0
    2.2678   53.3301   29.1543 C   0  0  0  0  0  0
    2.0825   52.3313   28.1887 C   0  0  0  0  0  0
    0.9280   51.5527   28.1918 C   0  0  0  0  0  0
    3.5326   54.1981   29.2065 C   0  0  0  0  0  0
    4.5944   53.9300   28.2279 N   0  0  0  0  0  0
    4.5603   54.2983   26.9357 C   0  0  0  0  0  0
    3.6091   54.9002   26.4452 O   0  0  0  0  0  0
    5.7919   53.9397   26.0889 C   0  0  0  0  0  0
    5.6531   54.1505   24.5722 C   0  0  0  0  0  0
    4.5281   53.7057   23.8695 C   0  0  0  0  0  0
    4.4441   53.8796   22.4940 C   0  0  0  0  0  0
    5.4923   54.4684   21.7763 C   0  0  0  0  0  0
    6.6215   54.9069   22.4854 C   0  0  0  0  0  0
    6.6998   54.7439   23.8674 C   0  0  0  0  0  0
    5.3781   54.5882   20.3908 N   0  0  0  0  0  0
    6.2577   55.4926   19.6232 C   0  0  0  0  0  0
    5.7530   55.7928   18.1913 C   0  0  0  0  0  0
    5.4939   54.5114   17.3903 C   0  0  0  0  0  0
    4.5168   53.6545   18.2051 C   0  0  0  0  0  0
    5.0512   53.3710   19.6185 C   0  0  0  0  0  0
    4.6394   53.7932   15.0154 C   0  0  0  0  0  0
    5.9868   53.2381   14.6086 C   0  0  0  0  0  0
    6.7791   53.5624   13.4982 C   0  0  0  0  0  0
    7.9150   52.9022   13.4491 N   0  0  0  0  0  0
    7.9099   52.1084   14.5337 N   0  0  0  0  0  0
    6.7422   52.2649   15.2414 C   0  0  0  0  0  0
    9.0094   51.2730   14.8456 C   0  0  0  0  0  0
    9.8278   50.7574   13.8305 C   0  0  0  0  0  0
   10.9122   49.9478   14.1541 C   0  0  0  0  0  0
   11.1800   49.6488   15.4867 C   0  0  0  0  0  0
   10.3656   50.1448   16.5004 C   0  0  0  0  0  0
    9.2848   50.9615   16.1837 C   0  0  0  0  0  0
   12.2429   48.8736   15.8002 F   0  0  0  0  0  0
   -0.9295   51.1409   29.1802 H   0  0  0  0  0  0
   -0.6241   52.8926   30.8941 H   0  0  0  0  0  0
    1.3889   54.3069   30.8694 H   0  0  0  0  0  0
    2.8272   52.1425   27.4334 H   0  0  0  0  0  0
    0.7906   50.7756   27.4541 H   0  0  0  0  0  0
    3.2317   55.2457   29.1464 H   0  0  0  0  0  0
    3.9728   54.0807   30.1962 H   0  0  0  0  0  0
    5.3722   53.3750   28.5463 H   0  0  0  0  0  0
    6.6285   54.5265   26.4698 H   0  0  0  0  0  0
    6.0435   52.8976   26.2757 H   0  0  0  0  0  0
    3.7004   53.2506   24.3922 H   0  0  0  0  0  0
    3.5458   53.5577   21.9901 H   0  0  0  0  0  0
    7.4574   55.3624   21.9760 H   0  0  0  0  0  0
    7.5750   55.0853   24.3957 H   0  0  0  0  0  0
    6.3326   56.4402   20.1582 H   0  0  0  0  0  0
    7.2615   55.0659   19.5912 H   0  0  0  0  0  0
    4.8484   56.4007   18.2527 H   0  0  0  0  0  0
    6.4537   56.4344   17.6570 H   0  0  0  0  0  0
    6.4546   54.0153   17.2536 H   0  0  0  0  0  0
    4.3055   52.7169   17.6920 H   0  0  0  0  0  0
    3.5380   54.1319   18.2839 H   0  0  0  0  0  0
    5.9392   52.7405   19.5592 H   0  0  0  0  0  0
    4.2999   52.7681   20.1319 H   0  0  0  0  0  0
    3.9763   53.0614   15.4780 H   0  0  0  0  0  0
    4.1058   54.2749   14.1942 H   0  0  0  0  0  0
    6.5275   54.2866   12.7360 H   0  0  0  0  0  0
    6.5576   51.6972   16.1420 H   0  0  0  0  0  0
    9.6365   50.9746   12.7890 H   0  0  0  0  0  0
   11.5458   49.5556   13.3703 H   0  0  0  0  0  0
   10.5843   49.9103   17.5316 H   0  0  0  0  0  0
    8.6765   51.3455   16.9887 H   0  0  0  0  0  0
    4.8474   54.9169   16.0505 N   0  3  0  0  0  0
    3.9525   55.3334   16.2640 H   0  0  0  0  0  0
    5.3986   55.6582   15.6424 H   0  0  0  0  0  0
  1  6  2  0  0  0
  1  2  1  0  0  0
  1 37  1  0  0  0
  2  3  2  0  0  0
  2 38  1  0  0  0
  3  4  1  0  0  0
  3 39  1  0  0  0
  4  5  2  0  0  0
  4  7  1  0  0  0
  5  6  1  0  0  0
  5 40  1  0  0  0
  6 41  1  0  0  0
  7  8  1  0  0  0
  7 42  1  0  0  0
  7 43  1  0  0  0
  8  9  1  0  0  0
  8 44  1  0  0  0
  9 10  2  0  0  0
  9 11  1  0  0  0
 11 12  1  0  0  0
 11 45  1  0  0  0
 11 46  1  0  0  0
 12 17  2  0  0  0
 12 13  1  0  0  0
 13 14  2  0  0  0
 13 47  1  0  0  0
 14 15  1  0  0  0
 14 48  1  0  0  0
 15 16  2  0  0  0
 15 18  1  0  0  0
 16 17  1  0  0  0
 16 49  1  0  0  0
 17 50  1  0  0  0
 18 23  1  0  0  0
 18 19  1  0  0  0
 19 20  1  0  0  0
 19 51  1  0  0  0
 19 52  1  0  0  0
 20 21  1  0  0  0
 20 53  1  0  0  0
 20 54  1  0  0  0
 21 22  1  0  0  0
 21 55  1  0  0  0
 21 68  1  0  0  0
 22 23  1  0  0  0
 22 56  1  0  0  0
 22 57  1  0  0  0
 23 58  1  0  0  0
 23 59  1  0  0  0
 24 25  1  0  0  0
 24 60  1  0  0  0
 24 61  1  0  0  0
 24 68  1  0  0  0
 25 29  2  0  0  0
 25 26  1  0  0  0
 26 27  2  0  0  0
 26 62  1  0  0  0
 27 28  1  0  0  0
 28 29  1  0  0  0
 28 30  1  0  0  0
 29 63  1  0  0  0
 30 35  2  0  0  0
 30 31  1  0  0  0
 31 32  2  0  0  0
 31 64  1  0  0  0
 32 33  1  0  0  0
 32 65  1  0  0  0
 33 34  2  0  0  0
 33 36  1  0  0  0
 34 35  1  0  0  0
 34 66  1  0  0  0
 35 67  1  0  0  0
 68 69  1  0  0  0
 68 70  1  0  0  0
M  CHG  1  68   1
M  END
> <i_i_glide_confnum>
102

> <i_i_glide_lignum>
3050

> <i_i_glide_posenum>
359

> <i_i_glide_rotatable_bonds>
10

> <i_m_Source_File_Index>
623

> <b_m_subgroup_collapsed>
0

> <r_i_docking_score>
-5.64251

> <r_i_glide_ecoul>
-4.09617

> <r_i_glide_eff_state_penalty>
0

> <r_i_glide_einternal>
6.33388

> <r_i_glide_emodel>
-65.6769

> <r_i_glide_energy>
-48.4374

> <r_i_glide_erotb>
0.738749

> <r_i_glide_esite>
0

> <r_i_glide_evdw>
-44.3412

> <r_i_glide_gscore>
-5.64251

> <r_i_glide_hbond>
0

> <r_i_glide_ligand_efficiency>
-0.1525

> <r_i_glide_ligand_efficiency_ln>
-1.22373

> <r_i_glide_ligand_efficiency_sa>
-0.508165

> <r_i_glide_lipo>
-2.99162

> <r_i_glide_metal>
0

> <r_i_glide_rewards>
-0.558152

> <s_i_glide_gridfile>
wee1_glide-grid

> <s_m_Source_File>
wee1_decoys_glide_SP.sdf

> <s_m_Source_Path>
/Users/zhangxujun/Desktop

> <s_m_entry_id>
898

> <s_m_entry_name>
wee1_decoys_glide_SP.623

> <s_m_subgroup_title>
wee1_decoys_glide_SP

> <s_m_subgroupid>
wee1_decoys_glide_SP


$$$$
