ZINC44854961_5257
                    3D
 Schrodinger Suite 2024-2.
 69 72  0  0  1  0            999 V2000
   -0.3460   51.8922   28.7591 C   0  0  0  0  0  0
    0.5336   53.1512   28.6747 C   0  0  1  0  0  0
    0.0062   53.9021   28.0825 H   0  0  0  0  0  0
    0.7952   53.8203   30.0333 C   0  0  0  0  0  0
    1.6550   55.0777   29.8277 C   0  0  0  0  0  0
    2.9405   54.7652   29.0240 C   0  0  0  0  0  0
    2.6467   54.1269   27.7245 N   0  0  0  0  0  0
    1.8845   52.8860   27.9649 C   0  0  0  0  0  0
    3.5404   54.1787   26.6565 C   0  0  0  0  0  0
    4.8944   54.4969   26.8241 C   0  0  0  0  0  0
    5.7363   54.6243   25.7214 C   0  0  0  0  0  0
    5.2459   54.4344   24.4248 C   0  0  0  0  0  0
    3.8962   54.0967   24.2563 C   0  0  0  0  0  0
    3.0607   53.9665   25.3609 C   0  0  0  0  0  0
    6.1843   54.6644   23.2283 C   0  0  1  0  0  0
    6.5579   55.6823   23.3782 H   0  0  0  0  0  0
    7.3944   53.7177   23.2120 C   0  0  0  0  0  0
    5.5199   54.6225   21.9212 N   0  0  0  0  0  0
    5.9465   55.2401   20.8059 C   0  0  0  0  0  0
    6.9440   55.9638   20.7818 O   0  0  0  0  0  0
    5.1000   54.9927   19.5404 C   0  0  2  0  0  0
    5.4763   53.6353   18.9096 C   0  0  0  0  0  0
    4.4474   53.3477   17.7989 C   0  0  0  0  0  0
    4.4674   54.5054   16.7627 N   0  3  2  0  0  0
    4.2790   55.9167   17.3839 C   0  0  0  0  0  0
    5.3067   56.1227   18.5055 C   0  0  0  0  0  0
    3.4490   54.2565   15.6193 C   0  0  0  0  0  0
    1.9807   54.4019   16.0102 C   0  0  0  0  0  0
    1.2694   53.3001   16.4945 C   0  0  0  0  0  0
   -0.0614   53.4461   16.8762 C   0  0  0  0  0  0
   -0.6802   54.6888   16.7617 C   0  0  0  0  0  0
    0.0145   55.7852   16.2559 C   0  0  0  0  0  0
    1.3431   55.6385   15.8690 C   0  0  0  0  0  0
   -2.4957   54.8942   17.2917 Br  0  0  0  0  0  0
    0.1613   51.0826   29.2837 H   0  0  0  0  0  0
   -1.2807   52.0924   29.2845 H   0  0  0  0  0  0
   -0.6058   51.5221   27.7660 H   0  0  0  0  0  0
    1.2925   53.1164   30.7030 H   0  0  0  0  0  0
   -0.1454   54.0675   30.5280 H   0  0  0  0  0  0
    1.9043   55.5117   30.7955 H   0  0  0  0  0  0
    1.0965   55.8628   29.3156 H   0  0  0  0  0  0
    3.6171   54.1280   29.5966 H   0  0  0  0  0  0
    3.4584   55.7082   28.8516 H   0  0  0  0  0  0
    1.6505   52.4214   27.0059 H   0  0  0  0  0  0
    2.4828   52.1398   28.4921 H   0  0  0  0  0  0
    5.3027   54.6632   27.8094 H   0  0  0  0  0  0
    6.7697   54.8934   25.8810 H   0  0  0  0  0  0
    3.4687   53.9495   23.2757 H   0  0  0  0  0  0
    2.0177   53.7347   25.2010 H   0  0  0  0  0  0
    7.9023   53.6460   24.1725 H   0  0  0  0  0  0
    7.0998   52.7222   22.8820 H   0  0  0  0  0  0
    8.1201   54.0872   22.4828 H   0  0  0  0  0  0
    4.7205   54.0129   21.8542 H   0  0  0  0  0  0
    4.0727   54.9646   19.9119 H   0  0  0  0  0  0
    5.3770   52.8065   19.6144 H   0  0  0  0  0  0
    6.4656   53.6436   18.4468 H   0  0  0  0  0  0
    3.4330   53.2574   18.1916 H   0  0  0  0  0  0
    4.7158   52.4384   17.2599 H   0  0  0  0  0  0
    4.4347   56.6418   16.5828 H   0  0  0  0  0  0
    3.2582   55.9915   17.7622 H   0  0  0  0  0  0
    6.2998   56.0955   18.0523 H   0  0  0  0  0  0
    5.0960   57.1095   18.9208 H   0  0  0  0  0  0
    3.6701   53.2546   15.2431 H   0  0  0  0  0  0
    3.7225   54.9777   14.8457 H   0  0  0  0  0  0
    1.7459   52.3345   16.5873 H   0  0  0  0  0  0
   -0.6095   52.5967   17.2581 H   0  0  0  0  0  0
   -0.4721   56.7447   16.1630 H   0  0  0  0  0  0
    1.8756   56.4936   15.4768 H   0  0  0  0  0  0
    5.3947   54.4960   16.3585 H   0  0  0  0  0  0
  1  2  1  0  0  0
  1 35  1  0  0  0
  1 36  1  0  0  0
  1 37  1  0  0  0
  2  3  1  0  0  0
  2  8  1  0  0  0
  2  4  1  0  0  0
  4  5  1  0  0  0
  4 38  1  0  0  0
  4 39  1  0  0  0
  5  6  1  0  0  0
  5 40  1  0  0  0
  5 41  1  0  0  0
  6  7  1  0  0  0
  6 42  1  0  0  0
  6 43  1  0  0  0
  7  8  1  0  0  0
  7  9  1  0  0  0
  8 44  1  0  0  0
  8 45  1  0  0  0
  9 14  2  0  0  0
  9 10  1  0  0  0
 10 11  2  0  0  0
 10 46  1  0  0  0
 11 12  1  0  0  0
 11 47  1  0  0  0
 12 13  2  0  0  0
 12 15  1  0  0  0
 13 14  1  0  0  0
 13 48  1  0  0  0
 14 49  1  0  0  0
 15 16  1  0  0  0
 15 17  1  0  0  0
 15 18  1  0  0  0
 17 50  1  0  0  0
 17 51  1  0  0  0
 17 52  1  0  0  0
 18 19  1  0  0  0
 18 53  1  0  0  0
 19 20  2  0  0  0
 19 21  1  0  0  0
 21 26  1  0  0  0
 21 22  1  0  0  0
 21 54  1  0  0  0
 22 23  1  0  0  0
 22 55  1  0  0  0
 22 56  1  0  0  0
 23 24  1  0  0  0
 23 57  1  0  0  0
 23 58  1  0  0  0
 24 25  1  0  0  0
 24 27  1  0  0  0
 24 69  1  0  0  0
 25 26  1  0  0  0
 25 59  1  0  0  0
 25 60  1  0  0  0
 26 61  1  0  0  0
 26 62  1  0  0  0
 27 28  1  0  0  0
 27 63  1  0  0  0
 27 64  1  0  0  0
 28 33  2  0  0  0
 28 29  1  0  0  0
 29 30  2  0  0  0
 29 65  1  0  0  0
 30 31  1  0  0  0
 30 66  1  0  0  0
 31 32  2  0  0  0
 31 34  1  0  0  0
 32 33  1  0  0  0
 32 67  1  0  0  0
 33 68  1  0  0  0
M  CHG  1  24   1
M  END
> <i_i_glide_confnum>
121

> <i_i_glide_lignum>
5258

> <i_i_glide_posenum>
185

> <i_i_glide_rotatable_bonds>
7

> <i_m_Source_File_Index>
4348

> <b_m_subgroup_collapsed>
0

> <r_i_docking_score>
-5.56209

> <r_i_glide_ecoul>
-2.85391

> <r_i_glide_eff_state_penalty>
0

> <r_i_glide_einternal>
12.4644

> <r_i_glide_emodel>
-52.7598

> <r_i_glide_energy>
-42.6078

> <r_i_glide_erotb>
0.572703

> <r_i_glide_esite>
-0.00530957

> <r_i_glide_evdw>
-39.7539

> <r_i_glide_gscore>
-5.56209

> <r_i_glide_hbond>
0

> <r_i_glide_ligand_efficiency>
-0.173815

> <r_i_glide_ligand_efficiency_ln>
-1.2455

> <r_i_glide_ligand_efficiency_sa>
-0.551829

> <r_i_glide_lipo>
-3.15666

> <r_i_glide_metal>
0

> <r_i_glide_rewards>
-0.557047

> <s_i_glide_gridfile>
wee1_glide-grid

> <s_m_Source_File>
wee1_decoys_glide_SP.sdf

> <s_m_Source_Path>
/Users/zhangxujun/Desktop

> <s_m_entry_id>
4623

> <s_m_entry_name>
wee1_decoys_glide_SP.4348

> <s_m_subgroup_title>
wee1_decoys_glide_SP

> <s_m_subgroupid>
wee1_decoys_glide_SP


$$$$
