ZINC28308631_5200
                    3D
 Schrodinger Suite 2024-2.
 58 60  0  0  1  0            999 V2000
   -2.3030   51.4695   23.0420 C   0  0  0  0  0  0
   -1.5956   50.6460   24.1345 C   0  0  0  0  0  0
   -0.5778   51.3883   24.8875 N   0  0  0  0  0  0
   -0.0958   50.6468   26.0606 C   0  0  0  0  0  0
    0.7026   51.5022   27.0580 C   0  0  0  0  0  0
    0.4553   51.8953   24.0703 C   0  0  0  0  0  0
    0.5857   53.2787   23.9537 C   0  0  0  0  0  0
    1.5733   53.8255   23.1413 C   0  0  0  0  0  0
    2.4428   52.9898   22.4410 C   0  0  0  0  0  0
    2.3040   51.6043   22.5348 C   0  0  0  0  0  0
    1.3232   51.0568   23.3584 C   0  0  0  0  0  0
    3.4638   53.5534   21.5411 C   0  0  0  0  0  0
    4.7455   53.9309   21.8021 C   0  0  0  0  0  0
    5.3642   53.8830   23.1402 C   0  0  0  0  0  0
    6.5751   53.6964   23.2814 O   0  0  0  0  0  0
    4.5275   54.0998   24.1781 N   0  0  0  0  0  0
    4.7950   54.1732   25.5578 C   0  0  0  0  0  0
    3.6799   54.0976   26.3957 C   0  0  0  0  0  0
    3.8353   54.1564   27.7776 C   0  0  0  0  0  0
    5.1089   54.3017   28.3218 C   0  0  0  0  0  0
    6.2276   54.3841   27.4975 C   0  0  0  0  0  0
    6.0750   54.3287   26.1143 C   0  0  0  0  0  0
    5.5066   54.2946   20.7159 N   0  0  0  0  0  0
    6.3856   55.3190   20.5944 C   0  0  0  0  0  0
    6.6942   56.0967   21.4993 O   0  0  0  0  0  0
    7.0838   55.4094   19.2616 C   0  0  0  0  0  0
    8.4372   55.7705   19.2234 C   0  0  0  0  0  0
    9.1123   55.8415   18.0091 C   0  0  0  0  0  0
    8.4344   55.5651   16.8247 C   0  0  0  0  0  0
    7.0865   55.2147   16.8464 C   0  0  0  0  0  0
    6.4097   55.1344   18.0616 C   0  0  0  0  0  0
    9.3566   55.6692   15.1633 Br  0  0  0  0  0  0
   -3.0916   50.8819   22.5733 H   0  0  0  0  0  0
   -2.7615   52.3669   23.4580 H   0  0  0  0  0  0
   -1.6150   51.7766   22.2539 H   0  0  0  0  0  0
   -1.1503   49.7578   23.6843 H   0  0  0  0  0  0
   -2.3559   50.2867   24.8296 H   0  0  0  0  0  0
   -0.9473   50.2188   26.5926 H   0  0  0  0  0  0
    0.5178   49.8024   25.7432 H   0  0  0  0  0  0
    1.0107   50.9027   27.9155 H   0  0  0  0  0  0
    1.6026   51.9202   26.6104 H   0  0  0  0  0  0
    0.1001   52.3276   27.4348 H   0  0  0  0  0  0
   -0.0944   53.9264   24.4817 H   0  0  0  0  0  0
    1.6526   54.8965   23.0448 H   0  0  0  0  0  0
    2.9605   50.9482   21.9804 H   0  0  0  0  0  0
    1.2314   49.9835   23.4358 H   0  0  0  0  0  0
    3.1108   53.6354   20.5204 H   0  0  0  0  0  0
    3.5489   54.1302   23.9341 H   0  0  0  0  0  0
    2.6877   53.9834   25.9835 H   0  0  0  0  0  0
    2.9721   54.0932   28.4235 H   0  0  0  0  0  0
    5.2309   54.3572   29.3930 H   0  0  0  0  0  0
    7.2093   54.4982   27.9340 H   0  0  0  0  0  0
    6.9583   54.4101   25.5016 H   0  0  0  0  0  0
    5.2209   53.8840   19.8397 H   0  0  0  0  0  0
    8.9820   55.9804   20.1352 H   0  0  0  0  0  0
   10.1595   56.1063   17.9888 H   0  0  0  0  0  0
    6.5674   55.0061   15.9222 H   0  0  0  0  0  0
    5.3616   54.8675   18.0509 H   0  0  0  0  0  0
  1  2  1  0  0  0
  1 33  1  0  0  0
  1 34  1  0  0  0
  1 35  1  0  0  0
  2  3  1  0  0  0
  2 36  1  0  0  0
  2 37  1  0  0  0
  3  4  1  0  0  0
  3  6  1  0  0  0
  4  5  1  0  0  0
  4 38  1  0  0  0
  4 39  1  0  0  0
  5 40  1  0  0  0
  5 41  1  0  0  0
  5 42  1  0  0  0
  6 11  2  0  0  0
  6  7  1  0  0  0
  7  8  2  0  0  0
  7 43  1  0  0  0
  8  9  1  0  0  0
  8 44  1  0  0  0
  9 10  2  0  0  0
  9 12  1  0  0  0
 10 11  1  0  0  0
 10 45  1  0  0  0
 11 46  1  0  0  0
 12 13  2  0  0  0
 12 47  1  0  0  0
 13 14  1  0  0  0
 13 23  1  0  0  0
 14 15  2  0  0  0
 14 16  1  0  0  0
 16 17  1  0  0  0
 16 48  1  0  0  0
 17 22  2  0  0  0
 17 18  1  0  0  0
 18 19  2  0  0  0
 18 49  1  0  0  0
 19 20  1  0  0  0
 19 50  1  0  0  0
 20 21  2  0  0  0
 20 51  1  0  0  0
 21 22  1  0  0  0
 21 52  1  0  0  0
 22 53  1  0  0  0
 23 24  1  0  0  0
 23 54  1  0  0  0
 24 25  2  0  0  0
 24 26  1  0  0  0
 26 31  2  0  0  0
 26 27  1  0  0  0
 27 28  2  0  0  0
 27 55  1  0  0  0
 28 29  1  0  0  0
 28 56  1  0  0  0
 29 30  2  0  0  0
 29 32  1  0  0  0
 30 31  1  0  0  0
 30 57  1  0  0  0
 31 58  1  0  0  0
M  END
> <i_i_glide_confnum>
2

> <i_i_glide_lignum>
5201

> <i_i_glide_posenum>
383

> <i_i_glide_rotatable_bonds>
10

> <i_m_Source_File_Index>
4908

> <b_m_subgroup_collapsed>
0

> <r_i_docking_score>
-4.66477

> <r_i_glide_ecoul>
-3.40492

> <r_i_glide_eff_state_penalty>
0

> <r_i_glide_einternal>
12.4213

> <r_i_glide_emodel>
-51.5566

> <r_i_glide_energy>
-47.6435

> <r_i_glide_erotb>
0.503932

> <r_i_glide_esite>
-0.00348868

> <r_i_glide_evdw>
-44.2386

> <r_i_glide_gscore>
-4.66477

> <r_i_glide_hbond>
0

> <r_i_glide_ligand_efficiency>
-0.145774

> <r_i_glide_ligand_efficiency_ln>
-1.04457

> <r_i_glide_ligand_efficiency_sa>
-0.462804

> <r_i_glide_lipo>
-2.84708

> <r_i_glide_metal>
0

> <r_i_glide_rewards>
0.404531

> <s_i_glide_gridfile>
wee1_glide-grid

> <s_m_Source_File>
wee1_decoys_glide_SP.sdf

> <s_m_Source_Path>
/Users/zhangxujun/Desktop

> <s_m_entry_id>
5183

> <s_m_entry_name>
wee1_decoys_glide_SP.4908

> <s_m_subgroup_title>
wee1_decoys_glide_SP

> <s_m_subgroupid>
wee1_decoys_glide_SP


$$$$
