ZINC45166805_3835
                    3D
 Schrodinger Suite 2024-2.
 42 44  0  0  1  0            999 V2000
   -4.1443   52.6673   25.0258 C   0  0  0  0  0  0
   -3.8908   52.0108   26.2216 C   0  0  0  0  0  0
   -2.5919   51.6333   26.5635 C   0  0  0  0  0  0
   -1.4975   51.9562   25.7283 C   0  0  0  0  0  0
   -1.7873   52.5690   24.4880 C   0  0  0  0  0  0
   -3.0945   52.9267   24.1572 C   0  0  0  0  0  0
   -0.6063   52.8968   23.2762 Cl  0  0  0  0  0  0
    0.2165   51.5459   26.2298 S   0  0  0  0  0  0
    1.1048   51.6965   25.0768 O   0  0  0  0  0  0
    0.1747   50.2381   26.8826 O   0  0  0  0  0  0
    0.7683   52.7443   27.4368 N   0  0  0  0  0  0
   -0.0957   53.0388   28.6252 C   0  0  0  0  0  0
    0.8816   53.0006   29.8025 C   0  0  0  0  0  0
    2.0369   52.1827   29.2909 C   0  0  0  0  0  0
    2.2069   52.6941   27.8596 C   0  0  2  0  0  0
    2.7520   51.9484   27.2855 H   0  0  0  0  0  0
    2.9650   54.0526   27.6853 C   0  0  0  0  0  0
    4.2654   54.2327   28.5016 C   0  0  0  0  0  0
    5.3848   53.6859   27.6229 C   0  0  0  0  0  0
    4.9776   54.0739   26.2020 C   0  0  0  0  0  0
    3.4521   54.2677   26.2323 C   0  0  0  0  0  0
   -2.4706   50.8969   27.7369 N   0  0  0  0  0  0
   -5.1538   52.9453   24.7603 H   0  0  0  0  0  0
   -4.7199   51.7728   26.8728 H   0  0  0  0  0  0
   -3.2965   53.4092   23.2132 H   0  0  0  0  0  0
   -0.7922   52.2396   28.8602 H   0  0  0  0  0  0
   -0.4958   54.0520   28.6201 H   0  0  0  0  0  0
    0.4325   52.5705   30.7004 H   0  0  0  0  0  0
    1.2140   54.0076   30.0603 H   0  0  0  0  0  0
    1.7731   51.1229   29.2699 H   0  0  0  0  0  0
    2.9263   52.2383   29.9133 H   0  0  0  0  0  0
    2.2869   54.8640   27.9557 H   0  0  0  0  0  0
    4.2642   53.7891   29.4933 H   0  0  0  0  0  0
    4.4379   55.2959   28.6670 H   0  0  0  0  0  0
    5.4311   52.5993   27.7152 H   0  0  0  0  0  0
    6.3633   54.0810   27.9003 H   0  0  0  0  0  0
    5.2700   53.3015   25.4892 H   0  0  0  0  0  0
    5.4742   54.9971   25.9003 H   0  0  0  0  0  0
    3.2550   55.2953   25.9313 H   0  0  0  0  0  0
    2.9232   53.6463   25.5093 H   0  0  0  0  0  0
   -3.3269   50.5924   28.1736 H   0  0  0  0  0  0
   -1.6963   50.2344   27.7911 H   0  0  0  0  0  0
  1  6  2  0  0  0
  1  2  1  0  0  0
  1 23  1  0  0  0
  2  3  2  0  0  0
  2 24  1  0  0  0
  3  4  1  0  0  0
  3 22  1  0  0  0
  4  5  2  0  0  0
  4  8  1  0  0  0
  5  6  1  0  0  0
  5  7  1  0  0  0
  6 25  1  0  0  0
  8  9  2  0  0  0
  8 10  2  0  0  0
  8 11  1  0  0  0
 11 15  1  0  0  0
 11 12  1  0  0  0
 12 13  1  0  0  0
 12 26  1  0  0  0
 12 27  1  0  0  0
 13 14  1  0  0  0
 13 28  1  0  0  0
 13 29  1  0  0  0
 14 15  1  0  0  0
 14 30  1  0  0  0
 14 31  1  0  0  0
 15 16  1  0  0  0
 15 17  1  0  0  0
 17 21  1  0  0  0
 17 18  1  0  0  0
 17 32  1  0  0  0
 18 19  1  0  0  0
 18 33  1  0  0  0
 18 34  1  0  0  0
 19 20  1  0  0  0
 19 35  1  0  0  0
 19 36  1  0  0  0
 20 21  1  0  0  0
 20 37  1  0  0  0
 20 38  1  0  0  0
 21 39  1  0  0  0
 21 40  1  0  0  0
 22 41  1  0  0  0
 22 42  1  0  0  0
M  END
> <i_i_glide_confnum>
287

> <i_i_glide_lignum>
3836

> <i_i_glide_posenum>
365

> <i_i_glide_rotatable_bonds>
3

> <i_m_Source_File_Index>
5370

> <b_m_subgroup_collapsed>
0

> <r_i_docking_score>
-3.20907

> <r_i_glide_ecoul>
-0.202064

> <r_i_glide_eff_state_penalty>
0

> <r_i_glide_einternal>
6.7568

> <r_i_glide_emodel>
-28.1265

> <r_i_glide_energy>
-30.5963

> <r_i_glide_erotb>
0.521153

> <r_i_glide_esite>
-0.186793

> <r_i_glide_evdw>
-30.3942

> <r_i_glide_gscore>
-3.20907

> <r_i_glide_hbond>
-0.114157

> <r_i_glide_ligand_efficiency>
-0.152813

> <r_i_glide_ligand_efficiency_ln>
-0.793437

> <r_i_glide_ligand_efficiency_sa>
-0.421599

> <r_i_glide_lipo>
-2.14297

> <r_i_glide_metal>
0

> <r_i_glide_rewards>
0.263715

> <s_i_glide_gridfile>
wee1_glide-grid

> <s_m_Source_File>
wee1_decoys_glide_SP.sdf

> <s_m_Source_Path>
/Users/zhangxujun/Desktop

> <s_m_entry_id>
5645

> <s_m_entry_name>
wee1_decoys_glide_SP.5370

> <s_m_subgroup_title>
wee1_decoys_glide_SP

> <s_m_subgroupid>
wee1_decoys_glide_SP


$$$$
