ZINC39691345_400
                    3D
 Schrodinger Suite 2024-2.
 81 85  0  0  1  0            999 V2000
    4.6255   53.2919   27.9407 C   0  0  0  0  0  0
    3.1532   53.7197   27.6591 C   0  0  0  0  0  0
    2.8454   54.9806   28.5277 C   0  0  0  0  0  0
    2.6249   54.7218   30.0251 C   0  0  0  0  0  0
    1.5897   53.6194   30.2819 C   0  0  0  0  0  0
    2.0071   52.3242   29.5812 C   0  0  0  0  0  0
    2.2119   52.5335   28.0680 C   0  0  0  0  0  0
    3.1081   54.1767   26.1496 C   0  0  0  0  0  0
    3.9044   55.0542   25.8028 O   0  0  0  0  0  0
    2.1670   53.7320   25.2703 N   0  0  0  0  0  0
    1.8670   54.4408   24.0072 C   0  0  0  0  0  0
    1.6056   53.3309   22.9482 C   0  0  2  0  0  0
    0.7927   53.5951   22.2699 H   0  0  0  0  0  0
    1.1431   52.1163   23.7954 C   0  0  0  0  0  0
    2.0521   52.3157   25.0163 C   0  0  0  0  0  0
   -0.3665   52.2613   24.1597 C   0  0  0  0  0  0
   -0.8109   51.2588   25.2483 C   0  0  0  0  0  0
   -0.5661   49.8255   24.7233 N   0  3  0  0  0  0
    0.8497   49.5774   24.1557 C   0  0  0  0  0  0
    1.2281   50.6972   23.1542 C   0  0  0  0  0  0
    2.8509   53.0146   22.0800 C   0  0  0  0  0  0
    3.9834   53.2990   22.4683 O   0  0  0  0  0  0
    2.5996   52.4964   20.8667 N   0  0  0  0  0  0
    3.6115   52.2499   19.8453 C   0  0  0  0  0  0
    3.6429   53.3871   18.8089 C   0  0  0  0  0  0
    4.7701   53.2965   17.8918 N   0  0  0  0  0  0
    6.0059   53.7194   18.1887 C   0  0  0  0  0  0
    6.3039   54.2013   19.2831 O   0  0  0  0  0  0
    7.0545   53.5624   17.0767 C   0  0  0  0  0  0
    8.2100   54.5734   17.1380 C   0  0  0  0  0  0
    9.5112   54.0848   17.2757 C   0  0  0  0  0  0
   10.6000   54.9428   17.3376 C   0  0  0  0  0  0
   10.4175   56.3185   17.2796 C   0  0  0  0  0  0
    9.1223   56.8672   17.1363 C   0  0  0  0  0  0
    7.9909   55.9934   17.0409 C   0  0  0  0  0  0
    6.7067   56.5869   16.8479 C   0  0  0  0  0  0
    6.5527   57.9699   16.8004 C   0  0  0  0  0  0
    7.6536   58.8042   16.9209 C   0  0  0  0  0  0
    8.9287   58.2722   17.0797 C   0  0  0  0  0  0
    4.7645   52.9365   28.9626 H   0  0  0  0  0  0
    4.9554   52.4962   27.2755 H   0  0  0  0  0  0
    5.3287   54.1168   27.8099 H   0  0  0  0  0  0
    3.6546   55.6968   28.4400 H   0  0  0  0  0  0
    1.9299   55.4607   28.1728 H   0  0  0  0  0  0
    3.5777   54.4526   30.4814 H   0  0  0  0  0  0
    2.3030   55.6573   30.4838 H   0  0  0  0  0  0
    1.4693   53.4295   31.3473 H   0  0  0  0  0  0
    0.6110   53.9387   29.9181 H   0  0  0  0  0  0
    2.9263   51.9474   30.0307 H   0  0  0  0  0  0
    1.2525   51.5534   29.7460 H   0  0  0  0  0  0
    1.2101   52.7243   27.6784 H   0  0  0  0  0  0
    2.5762   51.5876   27.6804 H   0  0  0  0  0  0
    2.6345   55.1221   23.6316 H   0  0  0  0  0  0
    0.8862   54.8967   24.0784 H   0  0  0  0  0  0
    1.8300   51.6967   25.8649 H   0  0  0  0  0  0
    3.0890   52.0958   24.7496 H   0  0  0  0  0  0
   -0.5491   53.2510   24.5743 H   0  0  0  0  0  0
   -1.0000   52.2114   23.2728 H   0  0  0  0  0  0
   -0.2666   51.3564   26.1892 H   0  0  0  0  0  0
   -1.8811   51.3244   25.4582 H   0  0  0  0  0  0
   -0.7552   49.1652   25.4697 H   0  0  0  0  0  0
    1.5042   49.5289   25.0202 H   0  0  0  0  0  0
    0.8289   48.5926   23.6863 H   0  0  0  0  0  0
    0.6330   50.6304   22.2411 H   0  0  0  0  0  0
    2.2528   50.4932   22.8420 H   0  0  0  0  0  0
    1.6446   52.3058   20.6046 H   0  0  0  0  0  0
    3.2816   51.3408   19.3384 H   0  0  0  0  0  0
    4.6057   52.0158   20.2335 H   0  0  0  0  0  0
    3.5341   54.3737   19.2671 H   0  0  0  0  0  0
    2.7733   53.2708   18.1594 H   0  0  0  0  0  0
    4.6248   52.7782   17.0359 H   0  0  0  0  0  0
    6.5794   53.6406   16.0972 H   0  0  0  0  0  0
    7.4347   52.5421   17.1417 H   0  0  0  0  0  0
    9.6866   53.0211   17.3488 H   0  0  0  0  0  0
   11.5932   54.5380   17.4623 H   0  0  0  0  0  0
   11.2693   56.9768   17.3527 H   0  0  0  0  0  0
    5.8316   55.9700   16.7398 H   0  0  0  0  0  0
    5.5711   58.4020   16.6670 H   0  0  0  0  0  0
    7.5100   59.8755   16.8824 H   0  0  0  0  0  0
    9.7830   58.9305   17.1551 H   0  0  0  0  0  0
   -1.2411   49.6362   23.9963 H   0  0  0  0  0  0
  1  2  1  0  0  0
  1 40  1  0  0  0
  1 41  1  0  0  0
  1 42  1  0  0  0
  2  7  1  0  0  0
  2  3  1  0  0  0
  2  8  1  0  0  0
  3  4  1  0  0  0
  3 43  1  0  0  0
  3 44  1  0  0  0
  4  5  1  0  0  0
  4 45  1  0  0  0
  4 46  1  0  0  0
  5  6  1  0  0  0
  5 47  1  0  0  0
  5 48  1  0  0  0
  6  7  1  0  0  0
  6 49  1  0  0  0
  6 50  1  0  0  0
  7 51  1  0  0  0
  7 52  1  0  0  0
  8  9  2  0  0  0
  8 10  1  0  0  0
 10 15  1  0  0  0
 10 11  1  0  0  0
 11 12  1  0  0  0
 11 53  1  0  0  0
 11 54  1  0  0  0
 12 13  1  0  0  0
 12 14  1  0  0  0
 12 21  1  0  0  0
 14 20  1  0  0  0
 14 15  1  0  0  0
 14 16  1  0  0  0
 15 55  1  0  0  0
 15 56  1  0  0  0
 16 17  1  0  0  0
 16 57  1  0  0  0
 16 58  1  0  0  0
 17 18  1  0  0  0
 17 59  1  0  0  0
 17 60  1  0  0  0
 18 19  1  0  0  0
 18 61  1  0  0  0
 18 81  1  0  0  0
 19 20  1  0  0  0
 19 62  1  0  0  0
 19 63  1  0  0  0
 20 64  1  0  0  0
 20 65  1  0  0  0
 21 22  2  0  0  0
 21 23  1  0  0  0
 23 24  1  0  0  0
 23 66  1  0  0  0
 24 25  1  0  0  0
 24 67  1  0  0  0
 24 68  1  0  0  0
 25 26  1  0  0  0
 25 69  1  0  0  0
 25 70  1  0  0  0
 26 27  1  0  0  0
 26 71  1  0  0  0
 27 28  2  0  0  0
 27 29  1  0  0  0
 29 30  1  0  0  0
 29 72  1  0  0  0
 29 73  1  0  0  0
 30 35  2  0  0  0
 30 31  1  0  0  0
 31 32  2  0  0  0
 31 74  1  0  0  0
 32 33  1  0  0  0
 32 75  1  0  0  0
 33 34  2  0  0  0
 33 76  1  0  0  0
 34 39  1  0  0  0
 34 35  1  0  0  0
 35 36  1  0  0  0
 36 37  2  0  0  0
 36 77  1  0  0  0
 37 38  1  0  0  0
 37 78  1  0  0  0
 38 39  2  0  0  0
 38 79  1  0  0  0
 39 80  1  0  0  0
M  CHG  1  18   1
M  END
> <i_i_glide_confnum>
76

> <i_i_glide_lignum>
401

> <i_i_glide_posenum>
378

> <i_i_glide_rotatable_bonds>
10

> <i_m_Source_File_Index>
959

> <b_m_subgroup_collapsed>
0

> <r_i_docking_score>
-3.19926

> <r_i_glide_ecoul>
-4.87144

> <r_i_glide_eff_state_penalty>
0

> <r_i_glide_einternal>
14.9426

> <r_i_glide_emodel>
-35.3383

> <r_i_glide_energy>
-39.0253

> <r_i_glide_erotb>
0.684664

> <r_i_glide_esite>
-0.156683

> <r_i_glide_evdw>
-34.1538

> <r_i_glide_gscore>
-3.19926

> <r_i_glide_hbond>
0

> <r_i_glide_ligand_efficiency>
-0.0841909

> <r_i_glide_ligand_efficiency_ln>
-0.689854

> <r_i_glide_ligand_efficiency_sa>
-0.283048

> <r_i_glide_lipo>
-1.87762

> <r_i_glide_metal>
0

> <r_i_glide_rewards>
0.588795

> <s_i_glide_gridfile>
wee1_glide-grid

> <s_m_Source_File>
wee1_decoys_glide_SP.sdf

> <s_m_Source_Path>
/Users/zhangxujun/Desktop

> <s_m_entry_id>
1234

> <s_m_entry_name>
wee1_decoys_glide_SP.959

> <s_m_subgroup_title>
wee1_decoys_glide_SP

> <s_m_subgroupid>
wee1_decoys_glide_SP


$$$$
