ZINC36213837_2057
                    3D
 Schrodinger Suite 2024-2.
 65 68  0  0  1  0            999 V2000
    8.8842   56.2769   19.6337 C   0  0  0  0  0  0
    7.5541   55.6168   19.9557 C   0  0  0  0  0  0
    6.7900   55.0781   18.9176 C   0  0  0  0  0  0
    5.5886   54.4303   19.1952 C   0  0  0  0  0  0
    5.1612   54.3107   20.5173 C   0  0  0  0  0  0
    5.9097   54.8659   21.5613 C   0  0  0  0  0  0
    7.1102   55.5191   21.2782 C   0  0  0  0  0  0
    3.9506   53.6642   20.7779 N   0  0  0  0  0  0
    3.8224   52.4780   21.4164 C   0  0  0  0  0  0
    4.7978   51.7680   21.6813 O   0  0  0  0  0  0
    2.5416   52.1130   21.7240 N   0  0  0  0  0  0
    1.4463   53.1071   21.8756 C   0  0  0  0  0  0
    1.0274   53.1866   23.3500 C   0  0  0  0  0  0
    0.6099   51.8205   23.8983 C   0  0  0  0  0  0
    1.8959   50.9762   23.7630 C   0  0  0  0  0  0
    2.2692   50.7673   22.2828 C   0  0  0  0  0  0
    0.0354   51.9623   25.3500 C   0  0  1  0  0  0
   -0.6327   52.8182   25.3097 H   0  0  0  0  0  0
   -0.7802   50.7073   25.7799 C   0  0  0  0  0  0
   -0.2650   49.6057   25.5758 O   0  0  0  0  0  0
   -2.0349   50.8443   26.2958 N   0  0  0  0  0  0
   -2.7392   52.1194   26.5045 C   0  0  0  0  0  0
   -3.7161   52.2961   25.3204 C   0  0  0  0  0  0
   -4.6814   51.0956   25.2005 C   0  0  0  0  0  0
   -3.9225   49.7501   25.2370 C   0  0  0  0  0  0
   -2.9166   49.6688   26.4107 C   0  0  0  0  0  0
    1.1008   52.2921   26.3127 N   0  0  0  0  0  0
    0.9779   52.6635   27.5992 C   0  0  0  0  0  0
   -0.0918   52.7959   28.1922 O   0  0  0  0  0  0
    2.2315   52.8952   28.2639 C   0  0  0  0  0  0
    2.5299   52.6434   29.6027 C   0  0  0  0  0  0
    3.8422   52.9964   29.9446 C   0  0  0  0  0  0
    4.5290   53.5877   28.8935 C   0  0  0  0  0  0
    3.5615   53.6963   27.4594 S   0  0  0  0  0  0
    8.7241   57.2332   19.1393 H   0  0  0  0  0  0
    9.4978   56.4414   20.5209 H   0  0  0  0  0  0
    9.4613   55.6466   18.9562 H   0  0  0  0  0  0
    7.1312   55.1507   17.8953 H   0  0  0  0  0  0
    5.0074   54.0050   18.3886 H   0  0  0  0  0  0
    5.5711   54.7783   22.5846 H   0  0  0  0  0  0
    7.7008   55.9308   22.0861 H   0  0  0  0  0  0
    3.1115   54.1359   20.4698 H   0  0  0  0  0  0
    0.6133   52.8465   21.2226 H   0  0  0  0  0  0
    1.7937   54.1028   21.6820 H   0  0  0  0  0  0
    0.1961   53.8817   23.4248 H   0  0  0  0  0  0
    1.7976   53.6529   23.9679 H   0  0  0  0  0  0
   -0.1763   51.4040   23.2631 H   0  0  0  0  0  0
    2.7028   51.4605   24.3084 H   0  0  0  0  0  0
    1.7676   49.9959   24.2190 H   0  0  0  0  0  0
    1.4259   50.3406   21.7392 H   0  0  0  0  0  0
    3.0986   50.0700   22.1478 H   0  0  0  0  0  0
   -3.2997   52.0115   27.4346 H   0  0  0  0  0  0
   -2.0862   52.9609   26.7223 H   0  0  0  0  0  0
   -4.2863   53.2148   25.4527 H   0  0  0  0  0  0
   -3.1535   52.4278   24.3950 H   0  0  0  0  0  0
   -5.2749   51.1725   24.2884 H   0  0  0  0  0  0
   -5.3919   51.1237   26.0282 H   0  0  0  0  0  0
   -3.3913   49.5955   24.2971 H   0  0  0  0  0  0
   -4.6335   48.9278   25.3111 H   0  0  0  0  0  0
   -2.3708   48.7259   26.4794 H   0  0  0  0  0  0
   -3.4319   49.7435   27.3692 H   0  0  0  0  0  0
    2.0365   52.1798   25.9546 H   0  0  0  0  0  0
    1.8295   52.1934   30.2924 H   0  0  0  0  0  0
    4.2772   52.8416   30.9225 H   0  0  0  0  0  0
    5.5431   53.9631   28.8938 H   0  0  0  0  0  0
  1  2  1  0  0  0
  1 35  1  0  0  0
  1 36  1  0  0  0
  1 37  1  0  0  0
  2  7  2  0  0  0
  2  3  1  0  0  0
  3  4  2  0  0  0
  3 38  1  0  0  0
  4  5  1  0  0  0
  4 39  1  0  0  0
  5  6  2  0  0  0
  5  8  1  0  0  0
  6  7  1  0  0  0
  6 40  1  0  0  0
  7 41  1  0  0  0
  8  9  1  0  0  0
  8 42  1  0  0  0
  9 10  2  0  0  0
  9 11  1  0  0  0
 11 16  1  0  0  0
 11 12  1  0  0  0
 12 13  1  0  0  0
 12 43  1  0  0  0
 12 44  1  0  0  0
 13 14  1  0  0  0
 13 45  1  0  0  0
 13 46  1  0  0  0
 14 15  1  0  0  0
 14 17  1  0  0  0
 14 47  1  0  0  0
 15 16  1  0  0  0
 15 48  1  0  0  0
 15 49  1  0  0  0
 16 50  1  0  0  0
 16 51  1  0  0  0
 17 18  1  0  0  0
 17 19  1  0  0  0
 17 27  1  0  0  0
 19 20  2  0  0  0
 19 21  1  0  0  0
 21 26  1  0  0  0
 21 22  1  0  0  0
 22 23  1  0  0  0
 22 52  1  0  0  0
 22 53  1  0  0  0
 23 24  1  0  0  0
 23 54  1  0  0  0
 23 55  1  0  0  0
 24 25  1  0  0  0
 24 56  1  0  0  0
 24 57  1  0  0  0
 25 26  1  0  0  0
 25 58  1  0  0  0
 25 59  1  0  0  0
 26 60  1  0  0  0
 26 61  1  0  0  0
 27 28  1  0  0  0
 27 62  1  0  0  0
 28 29  2  0  0  0
 28 30  1  0  0  0
 30 34  1  0  0  0
 30 31  2  0  0  0
 31 32  1  0  0  0
 31 63  1  0  0  0
 32 33  2  0  0  0
 32 64  1  0  0  0
 33 34  1  0  0  0
 33 65  1  0  0  0
M  END
> <i_i_glide_confnum>
101

> <i_i_glide_lignum>
2058

> <i_i_glide_posenum>
303

> <i_i_glide_rotatable_bonds>
9

> <i_m_Source_File_Index>
4023

> <b_m_subgroup_collapsed>
0

> <r_i_docking_score>
-3.40187

> <r_i_glide_ecoul>
-3.33457

> <r_i_glide_eff_state_penalty>
0

> <r_i_glide_einternal>
18.672

> <r_i_glide_emodel>
-38.9639

> <r_i_glide_energy>
-43.4586

> <r_i_glide_erotb>
0.735573

> <r_i_glide_esite>
-0.102992

> <r_i_glide_evdw>
-40.124

> <r_i_glide_gscore>
-3.40187

> <r_i_glide_hbond>
-0.290782

> <r_i_glide_ligand_efficiency>
-0.103087

> <r_i_glide_ligand_efficiency_ln>
-0.756558

> <r_i_glide_ligand_efficiency_sa>
-0.330655

> <r_i_glide_lipo>
-2.06469

> <r_i_glide_metal>
0

> <r_i_glide_rewards>
0.827408

> <s_i_glide_gridfile>
wee1_glide-grid

> <s_m_Source_File>
wee1_decoys_glide_SP.sdf

> <s_m_Source_Path>
/Users/zhangxujun/Desktop

> <s_m_entry_id>
4298

> <s_m_entry_name>
wee1_decoys_glide_SP.4023

> <s_m_subgroup_title>
wee1_decoys_glide_SP

> <s_m_subgroupid>
wee1_decoys_glide_SP


$$$$
