ZINC29050898_1319
                    3D
 Schrodinger Suite 2024-2.
 58 61  0  0  1  0            999 V2000
    6.8676   55.2354   24.5603 C   0  0  0  0  0  0
    5.8950   54.7972   25.6408 C   0  0  0  0  0  0
    6.2460   54.8967   26.9865 C   0  0  0  0  0  0
    5.3532   54.4861   27.9699 C   0  0  0  0  0  0
    4.1073   53.9728   27.6124 C   0  0  0  0  0  0
    3.7185   53.8574   26.2654 C   0  0  0  0  0  0
    4.6393   54.2899   25.2921 C   0  0  0  0  0  0
    2.4794   53.2967   25.9229 N   0  0  0  0  0  0
    1.5831   52.6856   26.9237 C   0  0  0  0  0  0
    0.3035   51.9652   26.4224 C   0  0  0  0  0  0
    0.6078   51.2057   25.1937 N   0  0  0  0  0  0
    1.3794   51.8916   24.1317 C   0  0  0  0  0  0
    1.8800   53.2882   24.5796 C   0  0  0  0  0  0
   -0.0646   50.0681   24.8448 C   0  0  0  0  0  0
    0.0282   49.5665   23.7213 O   0  0  0  0  0  0
   -0.9415   49.2969   25.8619 C   0  0  0  0  0  0
   -2.4090   49.1760   25.3197 N   0  3  2  0  0  0
   -3.0086   50.6189   25.3572 C   0  0  0  0  0  0
   -4.5228   50.6759   25.1762 C   0  0  0  0  0  0
   -5.1328   51.9143   24.9368 C   0  0  0  0  0  0
   -6.5172   52.0354   24.8487 C   0  0  0  0  0  0
   -7.3179   50.9093   24.9969 C   0  0  0  0  0  0
   -6.7263   49.6700   25.2257 C   0  0  0  0  0  0
   -5.3346   49.5340   25.3084 C   0  0  0  0  0  0
   -4.7121   48.1640   25.5046 C   0  0  0  0  0  0
   -3.3062   48.2089   26.1542 C   0  0  1  0  0  0
   -3.2975   48.5577   27.1906 H   0  0  0  0  0  0
   -2.7392   46.7645   26.0816 C   0  0  0  0  0  0
   -2.4130   46.2386   25.0179 O   0  0  0  0  0  0
   -2.7022   46.0967   27.2367 N   0  0  0  0  0  0
    7.5016   56.0587   24.8920 H   0  0  0  0  0  0
    7.5041   54.4015   24.2641 H   0  0  0  0  0  0
    6.3391   55.5967   23.6780 H   0  0  0  0  0  0
    7.2059   55.2917   27.2819 H   0  0  0  0  0  0
    5.6296   54.5664   29.0102 H   0  0  0  0  0  0
    3.4496   53.6573   28.4085 H   0  0  0  0  0  0
    4.4161   54.2117   24.2418 H   0  0  0  0  0  0
    2.1873   51.9201   27.4149 H   0  0  0  0  0  0
    1.2733   53.4520   27.6353 H   0  0  0  0  0  0
   -0.4117   52.7448   26.1604 H   0  0  0  0  0  0
   -0.0671   51.3904   27.2676 H   0  0  0  0  0  0
    2.2618   51.2881   23.9133 H   0  0  0  0  0  0
    0.7972   51.9990   23.2145 H   0  0  0  0  0  0
    2.5313   53.6934   23.8102 H   0  0  0  0  0  0
    1.0401   53.9824   24.6370 H   0  0  0  0  0  0
   -1.0019   49.6967   26.8738 H   0  0  0  0  0  0
   -0.5476   48.2847   25.9635 H   0  0  0  0  0  0
   -2.5019   51.1957   24.5790 H   0  0  0  0  0  0
   -2.7625   51.0393   26.3360 H   0  0  0  0  0  0
   -4.5283   52.8031   24.8364 H   0  0  0  0  0  0
   -6.9683   52.9999   24.6627 H   0  0  0  0  0  0
   -8.3924   50.9947   24.9295 H   0  0  0  0  0  0
   -7.3615   48.8011   25.3245 H   0  0  0  0  0  0
   -5.3799   47.5401   26.1022 H   0  0  0  0  0  0
   -4.6639   47.6972   24.5176 H   0  0  0  0  0  0
   -2.4954   45.1092   27.2963 H   0  0  0  0  0  0
   -2.6242   46.6553   28.0815 H   0  0  0  0  0  0
   -2.3836   48.8476   24.3615 H   0  0  0  0  0  0
  1  2  1  0  0  0
  1 31  1  0  0  0
  1 32  1  0  0  0
  1 33  1  0  0  0
  2  7  2  0  0  0
  2  3  1  0  0  0
  3  4  2  0  0  0
  3 34  1  0  0  0
  4  5  1  0  0  0
  4 35  1  0  0  0
  5  6  2  0  0  0
  5 36  1  0  0  0
  6  7  1  0  0  0
  6  8  1  0  0  0
  7 37  1  0  0  0
  8 13  1  0  0  0
  8  9  1  0  0  0
  9 10  1  0  0  0
  9 38  1  0  0  0
  9 39  1  0  0  0
 10 11  1  0  0  0
 10 40  1  0  0  0
 10 41  1  0  0  0
 11 12  1  0  0  0
 11 14  1  0  0  0
 12 13  1  0  0  0
 12 42  1  0  0  0
 12 43  1  0  0  0
 13 44  1  0  0  0
 13 45  1  0  0  0
 14 15  2  0  0  0
 14 16  1  0  0  0
 16 17  1  0  0  0
 16 46  1  0  0  0
 16 47  1  0  0  0
 17 26  1  0  0  0
 17 18  1  0  0  0
 17 58  1  0  0  0
 18 19  1  0  0  0
 18 48  1  0  0  0
 18 49  1  0  0  0
 19 24  2  0  0  0
 19 20  1  0  0  0
 20 21  2  0  0  0
 20 50  1  0  0  0
 21 22  1  0  0  0
 21 51  1  0  0  0
 22 23  2  0  0  0
 22 52  1  0  0  0
 23 24  1  0  0  0
 23 53  1  0  0  0
 24 25  1  0  0  0
 25 26  1  0  0  0
 25 54  1  0  0  0
 25 55  1  0  0  0
 26 27  1  0  0  0
 26 28  1  0  0  0
 28 29  2  0  0  0
 28 30  1  0  0  0
 30 56  1  0  0  0
 30 57  1  0  0  0
M  CHG  1  17   1
M  END
> <i_i_glide_confnum>
339

> <i_i_glide_lignum>
1320

> <i_i_glide_posenum>
221

> <i_i_glide_rotatable_bonds>
5

> <i_m_Source_File_Index>
3530

> <b_m_subgroup_collapsed>
0

> <r_i_docking_score>
-5.8919

> <r_i_glide_ecoul>
-6.43828

> <r_i_glide_eff_state_penalty>
0

> <r_i_glide_einternal>
6.24221

> <r_i_glide_emodel>
-52.835

> <r_i_glide_energy>
-37.6845

> <r_i_glide_erotb>
0.50465

> <r_i_glide_esite>
-0.282797

> <r_i_glide_evdw>
-31.2462

> <r_i_glide_gscore>
-5.8919

> <r_i_glide_hbond>
-0.202096

> <r_i_glide_ligand_efficiency>
-0.203169

> <r_i_glide_ligand_efficiency_ln>
-1.3491

> <r_i_glide_ligand_efficiency_sa>
-0.624199

> <r_i_glide_lipo>
-2.40497

> <r_i_glide_metal>
0

> <r_i_glide_rewards>
-0.978635

> <s_i_glide_gridfile>
wee1_glide-grid

> <s_m_Source_File>
wee1_decoys_glide_SP.sdf

> <s_m_Source_Path>
/Users/zhangxujun/Desktop

> <s_m_entry_id>
3805

> <s_m_entry_name>
wee1_decoys_glide_SP.3530

> <s_m_subgroup_title>
wee1_decoys_glide_SP

> <s_m_subgroupid>
wee1_decoys_glide_SP


$$$$
