ZINC35577776_3939
                    3D
 Schrodinger Suite 2024-2.
 50 54  0  0  1  0            999 V2000
    2.8851   50.8741   20.1842 C   0  0  0  0  0  0
    1.7050   50.8714   20.9247 C   0  0  0  0  0  0
    1.5314   51.7942   21.9554 C   0  0  0  0  0  0
    2.5363   52.7170   22.2490 C   0  0  0  0  0  0
    3.7354   52.7211   21.5167 C   0  0  0  0  0  0
    3.8917   51.7908   20.4818 C   0  0  0  0  0  0
    4.8279   53.6802   21.8186 C   0  0  0  0  0  0
    5.3868   54.5537   20.8644 C   0  0  0  0  0  0
    5.2100   54.9223   19.5043 C   0  0  0  0  0  0
    6.1123   55.9531   19.2670 N   0  0  0  0  0  0
    6.9083   56.2260   20.3254 N   0  0  0  0  0  0
    6.4529   55.3920   21.3011 C   0  0  0  0  0  0
    6.9195   55.3837   22.5487 N   0  0  0  0  0  0
    6.2814   54.5566   23.4129 C   0  0  0  0  0  0
    5.2773   53.6966   23.1012 N   0  0  0  0  0  0
    6.7033   54.6883   24.7419 N   0  0  0  0  0  0
    5.9941   54.1124   25.8848 C   0  0  0  0  0  0
    6.6282   54.4216   27.2370 C   0  0  0  0  0  0
    5.5247   54.0970   28.2465 C   0  0  0  0  0  0
    4.1953   54.3774   27.5291 C   0  0  0  0  0  0
    4.5131   54.4970   26.0287 C   0  0  0  0  0  0
    6.2450   56.7651   18.1153 C   0  0  0  0  0  0
    5.1041   57.2969   17.4980 C   0  0  0  0  0  0
    5.2318   58.1637   16.4127 C   0  0  0  0  0  0
    6.4972   58.4956   15.9291 C   0  0  0  0  0  0
    7.6371   57.9631   16.5298 C   0  0  0  0  0  0
    7.5144   57.1017   17.6199 C   0  0  0  0  0  0
    8.8630   58.2905   16.0628 F   0  0  0  0  0  0
    4.3045   54.4240   18.6064 N   0  0  0  0  0  0
    2.3290   53.6126   23.2433 F   0  0  0  0  0  0
    3.0294   50.1674   19.3774 H   0  0  0  0  0  0
    0.9264   50.1585   20.6962 H   0  0  0  0  0  0
    0.6162   51.7985   22.5283 H   0  0  0  0  0  0
    4.8006   51.7725   19.8956 H   0  0  0  0  0  0
    7.4401   55.3557   24.9007 H   0  0  0  0  0  0
    6.0471   53.0351   25.7387 H   0  0  0  0  0  0
    7.5223   53.8261   27.4182 H   0  0  0  0  0  0
    6.9025   55.4754   27.3030 H   0  0  0  0  0  0
    5.5786   53.0424   28.5237 H   0  0  0  0  0  0
    5.6304   54.6783   29.1642 H   0  0  0  0  0  0
    3.4814   53.5736   27.7163 H   0  0  0  0  0  0
    3.7404   55.2966   27.9000 H   0  0  0  0  0  0
    4.3464   55.5239   25.6993 H   0  0  0  0  0  0
    3.8667   53.8448   25.4410 H   0  0  0  0  0  0
    4.1155   57.0782   17.8774 H   0  0  0  0  0  0
    4.3529   58.6016   15.9605 H   0  0  0  0  0  0
    6.5946   59.1805   15.1002 H   0  0  0  0  0  0
    8.4102   56.7109   18.0819 H   0  0  0  0  0  0
    3.6243   53.7283   18.8814 H   0  0  0  0  0  0
    4.2972   54.7032   17.6357 H   0  0  0  0  0  0
  1  6  2  0  0  0
  1  2  1  0  0  0
  1 31  1  0  0  0
  2  3  2  0  0  0
  2 32  1  0  0  0
  3  4  1  0  0  0
  3 33  1  0  0  0
  4  5  2  0  0  0
  4 30  1  0  0  0
  5  6  1  0  0  0
  5  7  1  0  0  0
  6 34  1  0  0  0
  7 15  2  0  0  0
  7  8  1  0  0  0
  8 12  1  0  0  0
  8  9  2  0  0  0
  9 10  1  0  0  0
  9 29  1  0  0  0
 10 11  1  0  0  0
 10 22  1  0  0  0
 11 12  2  0  0  0
 12 13  1  0  0  0
 13 14  2  0  0  0
 14 15  1  0  0  0
 14 16  1  0  0  0
 16 17  1  0  0  0
 16 35  1  0  0  0
 17 21  1  0  0  0
 17 18  1  0  0  0
 17 36  1  0  0  0
 18 19  1  0  0  0
 18 37  1  0  0  0
 18 38  1  0  0  0
 19 20  1  0  0  0
 19 39  1  0  0  0
 19 40  1  0  0  0
 20 21  1  0  0  0
 20 41  1  0  0  0
 20 42  1  0  0  0
 21 43  1  0  0  0
 21 44  1  0  0  0
 22 27  2  0  0  0
 22 23  1  0  0  0
 23 24  2  0  0  0
 23 45  1  0  0  0
 24 25  1  0  0  0
 24 46  1  0  0  0
 25 26  2  0  0  0
 25 47  1  0  0  0
 26 27  1  0  0  0
 26 28  1  0  0  0
 27 48  1  0  0  0
 29 49  1  0  0  0
 29 50  1  0  0  0
M  END
> <i_i_glide_confnum>
32

> <i_i_glide_lignum>
3940

> <i_i_glide_posenum>
351

> <i_i_glide_rotatable_bonds>
4

> <i_m_Source_File_Index>
725

> <b_m_subgroup_collapsed>
0

> <r_i_docking_score>
-5.88471

> <r_i_glide_ecoul>
-1.97257

> <r_i_glide_eff_state_penalty>
0

> <r_i_glide_einternal>
0.608017

> <r_i_glide_emodel>
-62.7009

> <r_i_glide_energy>
-45.6603

> <r_i_glide_erotb>
0.476122

> <r_i_glide_esite>
-0.00638848

> <r_i_glide_evdw>
-43.6877

> <r_i_glide_gscore>
-5.88471

> <r_i_glide_hbond>
-0.0344258

> <r_i_glide_ligand_efficiency>
-0.196157

> <r_i_glide_ligand_efficiency_ln>
-1.33707

> <r_i_glide_ligand_efficiency_sa>
-0.609505

> <r_i_glide_lipo>
-2.06258

> <r_i_glide_metal>
0

> <r_i_glide_rewards>
-1.77716

> <s_i_glide_gridfile>
wee1_glide-grid

> <s_m_Source_File>
wee1_decoys_glide_SP.sdf

> <s_m_Source_Path>
/Users/zhangxujun/Desktop

> <s_m_entry_id>
1000

> <s_m_entry_name>
wee1_decoys_glide_SP.725

> <s_m_subgroup_title>
wee1_decoys_glide_SP

> <s_m_subgroupid>
wee1_decoys_glide_SP


$$$$
