ZINC39639306_1279
                    3D
 Schrodinger Suite 2024-2.
 69 72  0  0  1  0            999 V2000
   -7.4215   50.3956   29.1610 C   0  0  0  0  0  0
   -5.9598   50.6891   28.8795 C   0  0  0  0  0  0
   -5.6025   51.4221   27.7492 C   0  0  0  0  0  0
   -4.2611   51.6963   27.4934 C   0  0  0  0  0  0
   -3.2536   51.2685   28.3765 C   0  0  0  0  0  0
   -3.6374   50.5071   29.4902 C   0  0  0  0  0  0
   -4.9748   50.2293   29.7499 C   0  0  0  0  0  0
   -1.7472   51.5088   28.0882 C   0  0  2  0  0  0
   -1.3673   50.4965   28.0108 H   0  0  0  0  0  0
   -0.9152   52.1430   29.2319 C   0  0  0  0  0  0
   -1.5079   52.0860   26.7572 N   0  0  0  0  0  0
   -0.3666   52.0373   26.0535 C   0  0  0  0  0  0
    0.7485   51.9976   26.5728 O   0  0  0  0  0  0
   -0.5555   52.0516   24.5204 C   0  0  1  0  0  0
   -1.4737   52.6017   24.3062 H   0  0  0  0  0  0
    0.6379   52.7538   23.8282 C   0  0  0  0  0  0
    0.6496   52.1438   22.4942 N   0  0  0  0  0  0
   -0.3346   51.0679   22.3744 C   0  0  0  0  0  0
   -0.6223   50.6487   23.8280 C   0  0  0  0  0  0
    0.4838   49.6125   24.2148 C   0  0  0  0  0  0
    0.2831   48.9151   25.5745 C   0  0  0  0  0  0
   -1.1340   48.3142   25.6816 N   0  3  0  0  0  0
   -2.3010   49.2039   25.2020 C   0  0  0  0  0  0
   -1.9676   49.8714   23.8533 C   0  0  0  0  0  0
    1.5961   52.3303   21.5398 C   0  0  0  0  0  0
    1.5630   51.6961   20.4820 O   0  0  0  0  0  0
    2.7231   53.3671   21.7705 C   0  0  2  0  0  0
    2.2274   54.2911   22.0727 H   0  0  0  0  0  0
    3.5990   53.6065   20.5107 C   0  0  0  0  0  0
    3.4897   52.8988   22.8790 O   0  0  0  0  0  0
    4.4014   53.7477   23.4575 C   0  0  0  0  0  0
    4.1228   54.2881   24.7155 C   0  0  0  0  0  0
    5.0764   55.0764   25.3595 C   0  0  0  0  0  0
    6.2961   55.3205   24.7364 C   0  0  0  0  0  0
    6.5734   54.7904   23.4791 C   0  0  0  0  0  0
    5.6356   53.9825   22.8515 C   0  0  0  0  0  0
   -7.5872   50.1391   30.2094 H   0  0  0  0  0  0
   -8.0334   51.2733   28.9487 H   0  0  0  0  0  0
   -7.7732   49.5770   28.5324 H   0  0  0  0  0  0
   -6.3606   51.7758   27.0648 H   0  0  0  0  0  0
   -4.0306   52.2630   26.6045 H   0  0  0  0  0  0
   -2.8962   50.1248   30.1730 H   0  0  0  0  0  0
   -5.2321   49.6453   30.6225 H   0  0  0  0  0  0
   -1.2579   51.8240   30.2148 H   0  0  0  0  0  0
    0.1275   51.8334   29.1584 H   0  0  0  0  0  0
   -0.8956   53.2325   29.2081 H   0  0  0  0  0  0
   -2.3465   52.2834   26.2365 H   0  0  0  0  0  0
    1.5699   52.4525   24.3067 H   0  0  0  0  0  0
    0.5407   53.8388   23.8195 H   0  0  0  0  0  0
   -1.2571   51.4895   21.9717 H   0  0  0  0  0  0
   -0.0503   50.2165   21.7509 H   0  0  0  0  0  0
    0.5352   48.8291   23.4571 H   0  0  0  0  0  0
    1.4764   50.0657   24.1812 H   0  0  0  0  0  0
    0.9912   48.0976   25.6809 H   0  0  0  0  0  0
    0.4009   49.5511   26.4468 H   0  0  0  0  0  0
   -1.1521   47.4328   25.1900 H   0  0  0  0  0  0
   -3.1700   48.5487   25.1366 H   0  0  0  0  0  0
   -2.4880   49.9072   26.0016 H   0  0  0  0  0  0
   -2.7862   50.5213   23.5465 H   0  0  0  0  0  0
   -1.9457   49.0879   23.0948 H   0  0  0  0  0  0
    3.0082   53.6969   19.5983 H   0  0  0  0  0  0
    4.1845   54.5197   20.5970 H   0  0  0  0  0  0
    4.2845   52.7738   20.3467 H   0  0  0  0  0  0
    3.1772   54.0838   25.1958 H   0  0  0  0  0  0
    4.8667   55.5080   26.3282 H   0  0  0  0  0  0
    7.0296   55.9518   25.2152 H   0  0  0  0  0  0
    7.5080   54.9984   22.9834 H   0  0  0  0  0  0
    5.8738   53.5372   21.8999 H   0  0  0  0  0  0
   -1.2955   48.0985   26.6714 H   0  0  0  0  0  0
  1  2  1  0  0  0
  1 37  1  0  0  0
  1 38  1  0  0  0
  1 39  1  0  0  0
  2  7  2  0  0  0
  2  3  1  0  0  0
  3  4  2  0  0  0
  3 40  1  0  0  0
  4  5  1  0  0  0
  4 41  1  0  0  0
  5  6  2  0  0  0
  5  8  1  0  0  0
  6  7  1  0  0  0
  6 42  1  0  0  0
  7 43  1  0  0  0
  8  9  1  0  0  0
  8 10  1  0  0  0
  8 11  1  0  0  0
 10 44  1  0  0  0
 10 45  1  0  0  0
 10 46  1  0  0  0
 11 12  1  0  0  0
 11 47  1  0  0  0
 12 13  2  0  0  0
 12 14  1  0  0  0
 14 15  1  0  0  0
 14 19  1  0  0  0
 14 16  1  0  0  0
 16 17  1  0  0  0
 16 48  1  0  0  0
 16 49  1  0  0  0
 17 18  1  0  0  0
 17 25  1  0  0  0
 18 19  1  0  0  0
 18 50  1  0  0  0
 18 51  1  0  0  0
 19 24  1  0  0  0
 19 20  1  0  0  0
 20 21  1  0  0  0
 20 52  1  0  0  0
 20 53  1  0  0  0
 21 22  1  0  0  0
 21 54  1  0  0  0
 21 55  1  0  0  0
 22 23  1  0  0  0
 22 56  1  0  0  0
 22 69  1  0  0  0
 23 24  1  0  0  0
 23 57  1  0  0  0
 23 58  1  0  0  0
 24 59  1  0  0  0
 24 60  1  0  0  0
 25 26  2  0  0  0
 25 27  1  0  0  0
 27 28  1  0  0  0
 27 29  1  0  0  0
 27 30  1  0  0  0
 29 61  1  0  0  0
 29 62  1  0  0  0
 29 63  1  0  0  0
 30 31  1  0  0  0
 31 36  2  0  0  0
 31 32  1  0  0  0
 32 33  2  0  0  0
 32 64  1  0  0  0
 33 34  1  0  0  0
 33 65  1  0  0  0
 34 35  2  0  0  0
 34 66  1  0  0  0
 35 36  1  0  0  0
 35 67  1  0  0  0
 36 68  1  0  0  0
M  CHG  1  22   1
M  END
> <i_i_glide_confnum>
136

> <i_i_glide_lignum>
1280

> <i_i_glide_posenum>
63

> <i_i_glide_rotatable_bonds>
8

> <i_m_Source_File_Index>
4909

> <b_m_subgroup_collapsed>
0

> <r_i_docking_score>
-2.25084

> <r_i_glide_ecoul>
-6.3963

> <r_i_glide_eff_state_penalty>
0

> <r_i_glide_einternal>
13.6707

> <r_i_glide_emodel>
-29.8329

> <r_i_glide_energy>
-37.2967

> <r_i_glide_erotb>
0.691272

> <r_i_glide_esite>
-0.139846

> <r_i_glide_evdw>
-30.9004

> <r_i_glide_gscore>
-2.25084

> <r_i_glide_hbond>
-0.2

> <r_i_glide_ligand_efficiency>
-0.0682074

> <r_i_glide_ligand_efficiency_ln>
-0.500576

> <r_i_glide_ligand_efficiency_sa>
-0.218777

> <r_i_glide_lipo>
-1.83121

> <r_i_glide_metal>
0

> <r_i_glide_rewards>
1.7334

> <s_i_glide_gridfile>
wee1_glide-grid

> <s_m_Source_File>
wee1_decoys_glide_SP.sdf

> <s_m_Source_Path>
/Users/zhangxujun/Desktop

> <s_m_entry_id>
5184

> <s_m_entry_name>
wee1_decoys_glide_SP.4909

> <s_m_subgroup_title>
wee1_decoys_glide_SP

> <s_m_subgroupid>
wee1_decoys_glide_SP


$$$$
