ZINC02502492_1482
                    3D
 Schrodinger Suite 2024-2.
 46 49  0  0  1  0            999 V2000
    3.1356   52.5126   20.8492 C   0  0  0  0  0  0
    2.3092   51.3618   20.9810 O   0  0  0  0  0  0
    1.6891   51.0954   22.1879 C   0  0  0  0  0  0
    1.6090   52.0301   23.2341 C   0  0  0  0  0  0
    0.9689   51.7182   24.4365 C   0  0  0  0  0  0
    0.4246   50.4417   24.5882 C   0  0  0  0  0  0
    0.4639   49.4946   23.5581 C   0  0  0  0  0  0
    1.0885   49.8328   22.3502 C   0  0  0  0  0  0
    1.0484   48.9163   21.3196 O   0  0  0  0  0  0
    2.3042   48.4179   20.8811 C   0  0  0  0  0  0
   -0.0968   48.2339   23.6721 O   0  0  0  0  0  0
   -0.7630   47.8767   24.8816 C   0  0  0  0  0  0
    0.7659   52.7948   25.5159 C   0  0  2  0  0  0
    0.4945   53.6769   24.9305 H   0  0  0  0  0  0
    2.0399   53.1143   26.3264 C   0  0  0  0  0  0
    3.1072   53.8625   25.7898 C   0  0  0  0  0  0
    4.2165   54.1211   26.5910 C   0  0  0  0  0  0
    4.2843   53.6934   27.8855 C   0  0  0  0  0  0
    3.2504   52.9817   28.4762 C   0  0  0  0  0  0
    2.1293   52.7045   27.6849 C   0  0  0  0  0  0
    1.0984   52.0435   28.3186 O   0  0  0  0  0  0
   -0.1350   52.1145   27.7662 C   0  0  0  0  0  0
   -0.3851   52.4965   26.4961 C   0  0  0  0  0  0
   -1.7235   52.4965   25.9971 C   0  0  0  0  0  0
   -2.8009   52.5024   25.5772 N   0  0  0  0  0  0
   -1.0421   51.6963   28.7008 N   0  0  0  0  0  0
    5.4525   54.1069   28.4404 O   0  0  0  0  0  0
    6.2097   54.6240   27.3797 C   0  0  0  0  0  0
    5.3417   54.8243   26.2933 O   0  0  0  0  0  0
    3.5902   52.5176   19.8579 H   0  0  0  0  0  0
    2.5625   53.4321   20.9535 H   0  0  0  0  0  0
    3.9429   52.5099   21.5838 H   0  0  0  0  0  0
    2.0161   53.0205   23.1085 H   0  0  0  0  0  0
   -0.0664   50.2001   25.5162 H   0  0  0  0  0  0
    2.1585   47.4574   20.3895 H   0  0  0  0  0  0
    2.7601   49.0833   20.1492 H   0  0  0  0  0  0
    2.9984   48.2640   21.7081 H   0  0  0  0  0  0
   -0.9856   46.8100   24.8781 H   0  0  0  0  0  0
   -0.1530   48.0865   25.7618 H   0  0  0  0  0  0
   -1.7059   48.4160   24.9803 H   0  0  0  0  0  0
    3.0699   54.2253   24.7740 H   0  0  0  0  0  0
    3.2950   52.6624   29.5060 H   0  0  0  0  0  0
   -2.0002   51.5453   28.4204 H   0  0  0  0  0  0
   -0.7291   51.1250   29.4728 H   0  0  0  0  0  0
    6.9762   53.8968   27.1012 H   0  0  0  0  0  0
    6.6830   55.5591   27.6800 H   0  0  0  0  0  0
  1  2  1  0  0  0
  1 30  1  0  0  0
  1 31  1  0  0  0
  1 32  1  0  0  0
  2  3  1  0  0  0
  3  8  2  0  0  0
  3  4  1  0  0  0
  4  5  2  0  0  0
  4 33  1  0  0  0
  5  6  1  0  0  0
  5 13  1  0  0  0
  6  7  2  0  0  0
  6 34  1  0  0  0
  7  8  1  0  0  0
  7 11  1  0  0  0
  8  9  1  0  0  0
  9 10  1  0  0  0
 10 35  1  0  0  0
 10 36  1  0  0  0
 10 37  1  0  0  0
 11 12  1  0  0  0
 12 38  1  0  0  0
 12 39  1  0  0  0
 12 40  1  0  0  0
 13 14  1  0  0  0
 13 23  1  0  0  0
 13 15  1  0  0  0
 15 20  2  0  0  0
 15 16  1  0  0  0
 16 17  2  0  0  0
 16 41  1  0  0  0
 17 29  1  0  0  0
 17 18  1  0  0  0
 18 19  2  0  0  0
 18 27  1  0  0  0
 19 20  1  0  0  0
 19 42  1  0  0  0
 20 21  1  0  0  0
 21 22  1  0  0  0
 22 23  2  0  0  0
 22 26  1  0  0  0
 23 24  1  0  0  0
 24 25  3  0  0  0
 26 43  1  0  0  0
 26 44  1  0  0  0
 27 28  1  0  0  0
 28 29  1  0  0  0
 28 45  1  0  0  0
 28 46  1  0  0  0
M  END
> <i_i_glide_confnum>
2

> <i_i_glide_lignum>
1483

> <i_i_glide_posenum>
55

> <i_i_glide_rotatable_bonds>
5

> <i_m_Source_File_Index>
5150

> <b_m_subgroup_collapsed>
0

> <r_i_docking_score>
-5.01586

> <r_i_glide_ecoul>
-2.24227

> <r_i_glide_eff_state_penalty>
0

> <r_i_glide_einternal>
5.78525

> <r_i_glide_emodel>
-45.4686

> <r_i_glide_energy>
-36.8954

> <r_i_glide_erotb>
0.132834

> <r_i_glide_esite>
-0.0698389

> <r_i_glide_evdw>
-34.6531

> <r_i_glide_gscore>
-5.01586

> <r_i_glide_hbond>
0

> <r_i_glide_ligand_efficiency>
-0.179138

> <r_i_glide_ligand_efficiency_ln>
-1.15781

> <r_i_glide_ligand_efficiency_sa>
-0.543968

> <r_i_glide_lipo>
-1.73212

> <r_i_glide_metal>
0

> <r_i_glide_rewards>
-1.27775

> <s_i_glide_gridfile>
wee1_glide-grid

> <s_m_Source_File>
wee1_decoys_glide_SP.sdf

> <s_m_Source_Path>
/Users/zhangxujun/Desktop

> <s_m_entry_id>
5425

> <s_m_entry_name>
wee1_decoys_glide_SP.5150

> <s_m_subgroup_title>
wee1_decoys_glide_SP

> <s_m_subgroupid>
wee1_decoys_glide_SP


$$$$
