ZINC35374416_3658
                    3D
 Schrodinger Suite 2024-2.
 56 58  0  0  1  0            999 V2000
   -6.9578   43.6984   28.0061 C   0  0  0  0  0  0
   -5.4984   43.6232   27.5138 C   0  0  0  0  0  0
   -4.8060   44.9812   27.2296 C   0  0  2  0  0  0
   -3.7905   44.7366   26.9077 H   0  0  0  0  0  0
   -4.6422   45.8390   28.5096 C   0  0  0  0  0  0
   -5.4537   45.7491   26.0418 C   0  0  0  0  0  0
   -5.0015   47.1312   25.8791 N   0  0  0  0  0  0
   -3.7482   47.5267   25.6021 C   0  0  0  0  0  0
   -2.8310   46.7518   25.3256 O   0  0  0  0  0  0
   -3.5169   49.0433   25.6652 C   0  0  2  0  0  0
   -4.1646   49.4767   26.4315 H   0  0  0  0  0  0
   -3.6908   49.6952   24.2849 C   0  0  0  0  0  0
   -2.8157   51.2757   24.3656 S   0  0  0  0  0  0
   -1.8585   50.9062   25.8624 C   0  0  0  0  0  0
   -2.0769   49.3909   26.0815 N   0  3  0  0  0  0
   -2.3943   51.7092   27.0795 C   0  0  0  0  0  0
   -1.5509   51.5298   28.3607 C   0  0  0  0  0  0
   -0.1509   51.8319   28.0160 N   0  0  0  0  0  0
    0.4422   50.9626   26.9790 C   0  0  0  0  0  0
   -0.3509   51.1765   25.6723 C   0  0  0  0  0  0
    0.4925   52.8740   28.6145 C   0  0  0  0  0  0
   -0.0427   53.6071   29.4475 O   0  0  0  0  0  0
    1.9425   53.1316   28.2772 C   0  0  0  0  0  0
    2.2735   53.6974   27.0393 C   0  0  0  0  0  0
    3.6012   53.9759   26.7161 C   0  0  0  0  0  0
    4.6170   53.6807   27.6227 C   0  0  0  0  0  0
    4.3013   53.1030   28.8529 C   0  0  0  0  0  0
    2.9748   52.8251   29.1880 C   0  0  0  0  0  0
    2.6702   52.0986   30.7314 Cl  0  0  0  0  0  0
    6.2632   54.0162   27.2240 Cl  0  0  0  0  0  0
   -7.3243   42.7035   28.2639 H   0  0  0  0  0  0
   -7.6232   44.0842   27.2329 H   0  0  0  0  0  0
   -7.0737   44.3304   28.8823 H   0  0  0  0  0  0
   -4.9142   43.0716   28.2519 H   0  0  0  0  0  0
   -5.4626   43.0058   26.6162 H   0  0  0  0  0  0
   -5.6014   46.1551   28.9200 H   0  0  0  0  0  0
   -4.0954   45.2975   29.2805 H   0  0  0  0  0  0
   -4.0496   46.7363   28.3298 H   0  0  0  0  0  0
   -5.3302   45.1952   25.1088 H   0  0  0  0  0  0
   -6.5317   45.8130   26.1973 H   0  0  0  0  0  0
   -5.6904   47.8402   26.0792 H   0  0  0  0  0  0
   -3.2313   49.1133   23.4836 H   0  0  0  0  0  0
   -4.7375   49.8708   24.0313 H   0  0  0  0  0  0
   -1.8569   49.0754   27.0364 H   0  0  0  0  0  0
   -2.4117   52.7703   26.8260 H   0  0  0  0  0  0
   -3.4326   51.4573   27.2925 H   0  0  0  0  0  0
   -1.9236   52.0917   29.2173 H   0  0  0  0  0  0
   -1.5882   50.4995   28.6871 H   0  0  0  0  0  0
    1.5045   51.1115   26.8608 H   0  0  0  0  0  0
    0.3276   49.9226   27.2826 H   0  0  0  0  0  0
    0.0575   50.5390   24.8866 H   0  0  0  0  0  0
   -0.1951   52.1978   25.3219 H   0  0  0  0  0  0
    1.5036   53.9443   26.3232 H   0  0  0  0  0  0
    3.8431   54.4218   25.7627 H   0  0  0  0  0  0
    5.0912   52.8615   29.5438 H   0  0  0  0  0  0
   -1.4431   48.8755   25.4827 H   0  0  0  0  0  0
  1  2  1  0  0  0
  1 31  1  0  0  0
  1 32  1  0  0  0
  1 33  1  0  0  0
  2  3  1  0  0  0
  2 34  1  0  0  0
  2 35  1  0  0  0
  3  4  1  0  0  0
  3  5  1  0  0  0
  3  6  1  0  0  0
  5 36  1  0  0  0
  5 37  1  0  0  0
  5 38  1  0  0  0
  6  7  1  0  0  0
  6 39  1  0  0  0
  6 40  1  0  0  0
  7  8  1  0  0  0
  7 41  1  0  0  0
  8  9  2  0  0  0
  8 10  1  0  0  0
 10 11  1  0  0  0
 10 15  1  0  0  0
 10 12  1  0  0  0
 12 13  1  0  0  0
 12 42  1  0  0  0
 12 43  1  0  0  0
 13 14  1  0  0  0
 14 20  1  0  0  0
 14 15  1  0  0  0
 14 16  1  0  0  0
 15 44  1  0  0  0
 15 56  1  0  0  0
 16 17  1  0  0  0
 16 45  1  0  0  0
 16 46  1  0  0  0
 17 18  1  0  0  0
 17 47  1  0  0  0
 17 48  1  0  0  0
 18 19  1  0  0  0
 18 21  1  0  0  0
 19 20  1  0  0  0
 19 49  1  0  0  0
 19 50  1  0  0  0
 20 51  1  0  0  0
 20 52  1  0  0  0
 21 22  2  0  0  0
 21 23  1  0  0  0
 23 28  2  0  0  0
 23 24  1  0  0  0
 24 25  2  0  0  0
 24 53  1  0  0  0
 25 26  1  0  0  0
 25 54  1  0  0  0
 26 27  2  0  0  0
 26 30  1  0  0  0
 27 28  1  0  0  0
 27 55  1  0  0  0
 28 29  1  0  0  0
M  CHG  1  15   1
M  END
> <i_i_glide_confnum>
205

> <i_i_glide_lignum>
3659

> <i_i_glide_posenum>
71

> <i_i_glide_rotatable_bonds>
7

> <i_m_Source_File_Index>
2143

> <b_m_subgroup_collapsed>
0

> <r_i_docking_score>
-4.81554

> <r_i_glide_ecoul>
-7.74781

> <r_i_glide_eff_state_penalty>
0

> <r_i_glide_einternal>
2.65806

> <r_i_glide_emodel>
-56.0528

> <r_i_glide_energy>
-41.453

> <r_i_glide_erotb>
0.605069

> <r_i_glide_esite>
-0.184163

> <r_i_glide_evdw>
-33.7051

> <r_i_glide_gscore>
-4.81554

> <r_i_glide_hbond>
-0.2

> <r_i_glide_ligand_efficiency>
-0.171984

> <r_i_glide_ligand_efficiency_ln>
-1.11157

> <r_i_glide_ligand_efficiency_sa>
-0.522243

> <r_i_glide_lipo>
-1.62569

> <r_i_glide_metal>
0

> <r_i_glide_rewards>
-0.563328

> <s_i_glide_gridfile>
wee1_glide-grid

> <s_m_Source_File>
wee1_decoys_glide_SP.sdf

> <s_m_Source_Path>
/Users/zhangxujun/Desktop

> <s_m_entry_id>
2418

> <s_m_entry_name>
wee1_decoys_glide_SP.2143

> <s_m_subgroup_title>
wee1_decoys_glide_SP

> <s_m_subgroupid>
wee1_decoys_glide_SP


$$$$
