ZINC20118175_5193
                    3D
 Schrodinger Suite 2024-2.
 56 58  0  0  1  0            999 V2000
    9.9442   50.5221   15.8935 C   0  0  0  0  0  0
    9.1035   51.4962   16.7336 C   0  0  0  0  0  0
    7.9242   52.1022   15.9570 C   0  0  0  0  0  0
    7.1777   52.9311   16.8409 O   0  0  0  0  0  0
    5.8846   53.3201   16.5193 C   0  0  0  0  0  0
    5.2764   53.0189   15.2873 C   0  0  0  0  0  0
    3.9627   53.4040   15.0244 C   0  0  0  0  0  0
    3.2382   54.1081   15.9785 C   0  0  0  0  0  0
    3.8271   54.4315   17.1967 C   0  0  0  0  0  0
    5.1483   54.0467   17.4786 C   0  0  0  0  0  0
    5.7629   54.4210   18.8014 C   0  0  0  0  0  0
    6.8817   54.9315   18.8443 O   0  0  0  0  0  0
    4.9889   54.1445   19.8716 N   0  0  0  0  0  0
    5.2420   54.3459   21.2395 C   0  0  0  0  0  0
    6.4215   54.8978   21.7584 C   0  0  0  0  0  0
    6.5876   55.0269   23.1308 C   0  0  0  0  0  0
    5.5727   54.6379   24.0106 C   0  0  0  0  0  0
    4.3873   54.0966   23.4834 C   0  0  0  0  0  0
    4.2289   53.9500   22.1102 C   0  0  0  0  0  0
    5.7601   54.8473   25.4969 C   0  0  0  0  0  0
    6.7031   55.5142   25.9326 O   0  0  0  0  0  0
    4.8698   54.2259   26.2889 N   0  0  0  0  0  0
    4.8883   54.1263   27.7497 C   0  0  2  0  0  0
    4.8607   55.1459   28.1387 H   0  0  0  0  0  0
    6.2028   53.4612   28.2077 C   0  0  0  0  0  0
    3.6360   53.4346   28.3379 C   0  0  0  0  0  0
    2.5813   52.9825   27.5257 C   0  0  0  0  0  0
    1.4673   52.3585   28.0818 C   0  0  0  0  0  0
    1.3917   52.1839   29.4591 C   0  0  0  0  0  0
    2.4179   52.6325   30.2844 C   0  0  0  0  0  0
    3.5282   53.2641   29.7260 C   0  0  0  0  0  0
    1.4426   54.6353   15.6255 Br  0  0  0  0  0  0
   10.7814   50.1296   16.4747 H   0  0  0  0  0  0
   10.3562   51.0102   15.0108 H   0  0  0  0  0  0
    9.3507   49.6694   15.5586 H   0  0  0  0  0  0
    8.7253   50.9685   17.6106 H   0  0  0  0  0  0
    9.7398   52.2961   17.1154 H   0  0  0  0  0  0
    8.2793   52.6919   15.1127 H   0  0  0  0  0  0
    7.3045   51.2973   15.5685 H   0  0  0  0  0  0
    5.8035   52.4761   14.5172 H   0  0  0  0  0  0
    3.5084   53.1549   14.0761 H   0  0  0  0  0  0
    3.2446   54.9923   17.9154 H   0  0  0  0  0  0
    4.1032   53.7086   19.6632 H   0  0  0  0  0  0
    7.2334   55.2267   21.1303 H   0  0  0  0  0  0
    7.5043   55.4626   23.5036 H   0  0  0  0  0  0
    3.5711   53.7907   24.1187 H   0  0  0  0  0  0
    3.3085   53.5267   21.7317 H   0  0  0  0  0  0
    4.0664   53.8138   25.8430 H   0  0  0  0  0  0
    6.2244   53.2981   29.2748 H   0  0  0  0  0  0
    6.3459   52.4966   27.7272 H   0  0  0  0  0  0
    7.0750   54.0725   27.9793 H   0  0  0  0  0  0
    2.6052   53.0982   26.4531 H   0  0  0  0  0  0
    0.6636   52.0097   27.4488 H   0  0  0  0  0  0
    0.5251   51.7015   29.8895 H   0  0  0  0  0  0
    2.3443   52.4964   31.3550 H   0  0  0  0  0  0
    4.3045   53.6209   30.3851 H   0  0  0  0  0  0
  1  2  1  0  0  0
  1 33  1  0  0  0
  1 34  1  0  0  0
  1 35  1  0  0  0
  2  3  1  0  0  0
  2 36  1  0  0  0
  2 37  1  0  0  0
  3  4  1  0  0  0
  3 38  1  0  0  0
  3 39  1  0  0  0
  4  5  1  0  0  0
  5 10  2  0  0  0
  5  6  1  0  0  0
  6  7  2  0  0  0
  6 40  1  0  0  0
  7  8  1  0  0  0
  7 41  1  0  0  0
  8  9  2  0  0  0
  8 32  1  0  0  0
  9 10  1  0  0  0
  9 42  1  0  0  0
 10 11  1  0  0  0
 11 12  2  0  0  0
 11 13  1  0  0  0
 13 14  1  0  0  0
 13 43  1  0  0  0
 14 19  2  0  0  0
 14 15  1  0  0  0
 15 16  2  0  0  0
 15 44  1  0  0  0
 16 17  1  0  0  0
 16 45  1  0  0  0
 17 18  2  0  0  0
 17 20  1  0  0  0
 18 19  1  0  0  0
 18 46  1  0  0  0
 19 47  1  0  0  0
 20 21  2  0  0  0
 20 22  1  0  0  0
 22 23  1  0  0  0
 22 48  1  0  0  0
 23 24  1  0  0  0
 23 25  1  0  0  0
 23 26  1  0  0  0
 25 49  1  0  0  0
 25 50  1  0  0  0
 25 51  1  0  0  0
 26 31  2  0  0  0
 26 27  1  0  0  0
 27 28  2  0  0  0
 27 52  1  0  0  0
 28 29  1  0  0  0
 28 53  1  0  0  0
 29 30  2  0  0  0
 29 54  1  0  0  0
 30 31  1  0  0  0
 30 55  1  0  0  0
 31 56  1  0  0  0
M  END
> <i_i_glide_confnum>
57

> <i_i_glide_lignum>
5194

> <i_i_glide_posenum>
59

> <i_i_glide_rotatable_bonds>
10

> <i_m_Source_File_Index>
1968

> <b_m_subgroup_collapsed>
0

> <r_i_docking_score>
-6.09198

> <r_i_glide_ecoul>
-4.71108

> <r_i_glide_eff_state_penalty>
0

> <r_i_glide_einternal>
4.33897

> <r_i_glide_emodel>
-66.8534

> <r_i_glide_energy>
-49.71

> <r_i_glide_erotb>
0.700334

> <r_i_glide_esite>
-0.00619471

> <r_i_glide_evdw>
-44.999

> <r_i_glide_gscore>
-6.09198

> <r_i_glide_hbond>
-0.32

> <r_i_glide_ligand_efficiency>
-0.196516

> <r_i_glide_ligand_efficiency_ln>
-1.37393

> <r_i_glide_ligand_efficiency_sa>
-0.61733

> <r_i_glide_lipo>
-2.93284

> <r_i_glide_metal>
0

> <r_i_glide_rewards>
-0.576669

> <s_i_glide_gridfile>
wee1_glide-grid

> <s_m_Source_File>
wee1_decoys_glide_SP.sdf

> <s_m_Source_Path>
/Users/zhangxujun/Desktop

> <s_m_entry_id>
2243

> <s_m_entry_name>
wee1_decoys_glide_SP.1968

> <s_m_subgroup_title>
wee1_decoys_glide_SP

> <s_m_subgroupid>
wee1_decoys_glide_SP


$$$$
