ZINC39326135_1794
                    3D
 Schrodinger Suite 2024-2.
 37 39  0  0  1  0            999 V2000
    1.1115   56.4996   30.8602 C   0  0  0  0  0  0
    1.5503   55.7652   29.5750 C   0  0  0  0  0  0
    3.0643   55.8257   29.3798 C   0  0  0  0  0  0
    1.0526   54.3326   29.4611 C   0  0  0  0  0  0
    1.0725   53.4019   28.4215 C   0  0  0  0  0  0
    0.4490   52.2752   28.9776 C   0  0  0  0  0  0
    0.0811   52.4165   30.2224 N   0  0  0  0  0  0
    0.4500   53.6637   30.5025 N   0  0  0  0  0  0
    0.2935   54.0592   31.4181 H   0  0  0  0  0  0
    0.1838   51.1075   28.3164 O   0  0  0  0  0  0
    0.4115   51.1343   26.9785 C   0  0  0  0  0  0
    1.0131   52.1330   26.2843 C   0  0  0  0  0  0
    1.5712   53.3944   26.9660 C   0  0  2  0  0  0
    1.1078   54.2356   26.4676 H   0  0  0  0  0  0
    3.0726   53.6504   26.7444 C   0  0  0  0  0  0
    3.5034   54.3057   25.5808 C   0  0  0  0  0  0
    4.8450   54.6457   25.4040 C   0  0  0  0  0  0
    5.7809   54.3168   26.3823 C   0  0  0  0  0  0
    5.3747   53.6347   27.5295 C   0  0  0  0  0  0
    4.0306   53.2949   27.7043 C   0  0  0  0  0  0
    6.2793   53.3104   28.4792 F   0  0  0  0  0  0
    7.0777   54.6658   26.2173 F   0  0  0  0  0  0
    1.1063   52.0517   24.8621 C   0  0  0  0  0  0
    1.1729   52.0153   23.7079 N   0  0  0  0  0  0
   -0.0996   49.9702   26.4787 N   0  0  0  0  0  0
    0.1090   56.8946   30.7528 H   0  0  0  0  0  0
    1.1047   55.8672   31.7450 H   0  0  0  0  0  0
    1.7532   57.3533   31.0785 H   0  0  0  0  0  0
    1.1100   56.3168   28.7426 H   0  0  0  0  0  0
    3.3265   55.6967   28.3362 H   0  0  0  0  0  0
    3.4589   56.7929   29.6812 H   0  0  0  0  0  0
    3.5841   55.0600   29.9582 H   0  0  0  0  0  0
    2.7894   54.5809   24.8173 H   0  0  0  0  0  0
    5.1554   55.1828   24.5186 H   0  0  0  0  0  0
    3.7336   52.7757   28.6033 H   0  0  0  0  0  0
    0.0273   49.6976   25.5166 H   0  0  0  0  0  0
   -0.6259   49.3464   27.0908 H   0  0  0  0  0  0
  1  2  1  0  0  0
  1 26  1  0  0  0
  1 27  1  0  0  0
  1 28  1  0  0  0
  2  3  1  0  0  0
  2  4  1  0  0  0
  2 29  1  0  0  0
  3 30  1  0  0  0
  3 31  1  0  0  0
  3 32  1  0  0  0
  4  8  1  0  0  0
  4  5  2  0  0  0
  5 13  1  0  0  0
  5  6  1  0  0  0
  6  7  2  0  0  0
  6 10  1  0  0  0
  7  8  1  0  0  0
  8  9  1  0  0  0
 10 11  1  0  0  0
 11 12  2  0  0  0
 11 25  1  0  0  0
 12 13  1  0  0  0
 12 23  1  0  0  0
 13 14  1  0  0  0
 13 15  1  0  0  0
 15 20  2  0  0  0
 15 16  1  0  0  0
 16 17  2  0  0  0
 16 33  1  0  0  0
 17 18  1  0  0  0
 17 34  1  0  0  0
 18 19  2  0  0  0
 18 22  1  0  0  0
 19 20  1  0  0  0
 19 21  1  0  0  0
 20 35  1  0  0  0
 23 24  3  0  0  0
 25 36  1  0  0  0
 25 37  1  0  0  0
M  END
> <i_i_glide_confnum>
2

> <i_i_glide_lignum>
1795

> <i_i_glide_posenum>
194

> <i_i_glide_rotatable_bonds>
3

> <i_m_Source_File_Index>
3793

> <b_m_subgroup_collapsed>
0

> <r_i_docking_score>
-6.70451

> <r_i_glide_ecoul>
-3.07101

> <r_i_glide_eff_state_penalty>
0

> <r_i_glide_einternal>
2.06727

> <r_i_glide_emodel>
-45.5277

> <r_i_glide_energy>
-33.7686

> <r_i_glide_erotb>
0.186058

> <r_i_glide_esite>
-0.0913626

> <r_i_glide_evdw>
-30.6976

> <r_i_glide_gscore>
-6.70451

> <r_i_glide_hbond>
-0.16

> <r_i_glide_ligand_efficiency>
-0.2915

> <r_i_glide_ligand_efficiency_ln>
-1.62121

> <r_i_glide_ligand_efficiency_sa>
-0.828988

> <r_i_glide_lipo>
-2.90048

> <r_i_glide_metal>
0

> <r_i_glide_rewards>
-1.74319

> <s_i_glide_gridfile>
wee1_glide-grid

> <s_m_Source_File>
wee1_decoys_glide_SP.sdf

> <s_m_Source_Path>
/Users/zhangxujun/Desktop

> <s_m_entry_id>
4068

> <s_m_entry_name>
wee1_decoys_glide_SP.3793

> <s_m_subgroup_title>
wee1_decoys_glide_SP

> <s_m_subgroupid>
wee1_decoys_glide_SP


$$$$
