ZINC59461865_3551
                    3D
 Schrodinger Suite 2024-2.
 60 64  0  0  1  0            999 V2000
    0.1300   52.0510   28.5985 C   0  0  0  0  0  0
    1.2206   52.6529   27.7288 C   0  0  0  0  0  0
    1.0649   52.6721   26.3436 C   0  0  0  0  0  0
    2.0666   53.2023   25.5352 C   0  0  0  0  0  0
    3.2520   53.6967   26.0989 C   0  0  0  0  0  0
    3.3861   53.6944   27.4944 C   0  0  0  0  0  0
    2.3775   53.1772   28.3049 C   0  0  0  0  0  0
    4.3874   54.1680   25.2286 C   0  0  0  0  0  0
    5.6133   54.6696   25.6785 C   0  0  0  0  0  0
    6.6566   55.0140   24.3380 S   0  0  0  0  0  0
    5.3798   54.4967   23.2716 C   0  0  0  0  0  0
    4.2989   54.0966   23.9055 N   0  0  0  0  0  0
    5.5115   54.5216   21.8746 N   0  0  0  0  0  0
    6.4185   55.1544   21.1008 C   0  0  0  0  0  0
    6.0203   54.8979   19.7158 C   0  0  0  0  0  0
    4.8540   54.1946   19.7594 C   0  0  0  0  0  0
    4.5273   54.0077   21.0847 N   0  0  0  0  0  0
    3.9785   53.6156   18.6836 C   0  0  0  0  0  0
    2.8229   52.8958   19.0366 C   0  0  0  0  0  0
    1.9913   52.3313   18.0735 C   0  0  0  0  0  0
    2.3018   52.4769   16.7270 C   0  0  0  0  0  0
    3.4331   53.1868   16.3441 C   0  0  0  0  0  0
    4.2556   53.7492   17.3157 C   0  0  0  0  0  0
    6.9150   55.4374   18.5698 C   0  0  1  0  0  0
    7.7052   55.9924   19.0808 H   0  0  0  0  0  0
    7.8045   54.4188   17.8256 C   0  0  0  0  0  0
    9.0401   54.8527   17.3228 C   0  0  0  0  0  0
    9.8640   53.9845   16.6123 C   0  0  0  0  0  0
    9.4529   52.6743   16.3890 C   0  0  0  0  0  0
    8.2318   52.2258   16.8818 C   0  0  0  0  0  0
    7.4186   53.0899   17.6116 C   0  0  0  0  0  0
    6.1946   56.4898   17.6504 C   0  0  2  0  0  0
    5.1202   56.3643   17.7799 H   0  0  0  0  0  0
    6.3714   56.2616   16.2010 C   0  0  0  0  0  0
    6.5048   56.0860   15.0651 N   0  0  0  0  0  0
    6.4097   57.9546   18.0818 C   0  0  0  0  0  0
    6.7044   58.2508   19.2384 O   0  0  0  0  0  0
    6.2398   58.8967   17.1572 N   0  0  0  0  0  0
    7.3863   55.8140   21.4840 O   0  0  0  0  0  0
   -0.0036   50.9941   28.3595 H   0  0  0  0  0  0
    0.3509   52.1373   29.6634 H   0  0  0  0  0  0
   -0.8231   52.5458   28.4076 H   0  0  0  0  0  0
    0.1698   52.2693   25.8917 H   0  0  0  0  0  0
    1.9258   53.1896   24.4644 H   0  0  0  0  0  0
    4.2821   54.0663   27.9668 H   0  0  0  0  0  0
    2.5070   53.1680   29.3769 H   0  0  0  0  0  0
    5.9553   54.8243   26.6904 H   0  0  0  0  0  0
    2.5445   52.7671   20.0712 H   0  0  0  0  0  0
    1.1136   51.7777   18.3713 H   0  0  0  0  0  0
    1.6679   52.0286   15.9763 H   0  0  0  0  0  0
    3.6826   53.2894   15.2983 H   0  0  0  0  0  0
    5.1308   54.2598   16.9709 H   0  0  0  0  0  0
    9.3667   55.8714   17.4766 H   0  0  0  0  0  0
   10.8147   54.3275   16.2313 H   0  0  0  0  0  0
   10.0884   51.9984   15.8356 H   0  0  0  0  0  0
    7.9204   51.2052   16.7193 H   0  0  0  0  0  0
    6.5006   52.6936   18.0148 H   0  0  0  0  0  0
    5.9710   58.6707   16.2119 H   0  0  0  0  0  0
    6.3044   59.8859   17.4207 H   0  0  0  0  0  0
    4.2284   53.1352   21.4936 H   0  0  0  0  0  0
  1  2  1  0  0  0
  1 40  1  0  0  0
  1 41  1  0  0  0
  1 42  1  0  0  0
  2  7  2  0  0  0
  2  3  1  0  0  0
  3  4  2  0  0  0
  3 43  1  0  0  0
  4  5  1  0  0  0
  4 44  1  0  0  0
  5  6  2  0  0  0
  5  8  1  0  0  0
  6  7  1  0  0  0
  6 45  1  0  0  0
  7 46  1  0  0  0
  8 12  1  0  0  0
  8  9  2  0  0  0
  9 10  1  0  0  0
  9 47  1  0  0  0
 10 11  1  0  0  0
 11 12  2  0  0  0
 11 13  1  0  0  0
 13 14  1  0  0  0
 13 17  1  0  0  0
 14 39  2  0  0  0
 14 15  1  0  0  0
 15 16  2  0  0  0
 15 24  1  0  0  0
 16 17  1  0  0  0
 16 18  1  0  0  0
 17 60  1  0  0  0
 18 23  2  0  0  0
 18 19  1  0  0  0
 19 20  2  0  0  0
 19 48  1  0  0  0
 20 21  1  0  0  0
 20 49  1  0  0  0
 21 22  2  0  0  0
 21 50  1  0  0  0
 22 23  1  0  0  0
 22 51  1  0  0  0
 23 52  1  0  0  0
 24 25  1  0  0  0
 24 26  1  0  0  0
 24 32  1  0  0  0
 26 31  2  0  0  0
 26 27  1  0  0  0
 27 28  2  0  0  0
 27 53  1  0  0  0
 28 29  1  0  0  0
 28 54  1  0  0  0
 29 30  2  0  0  0
 29 55  1  0  0  0
 30 31  1  0  0  0
 30 56  1  0  0  0
 31 57  1  0  0  0
 32 33  1  0  0  0
 32 34  1  0  0  0
 32 36  1  0  0  0
 34 35  3  0  0  0
 36 37  2  0  0  0
 36 38  1  0  0  0
 38 58  1  0  0  0
 38 59  1  0  0  0
M  END
> <i_i_glide_confnum>
21

> <i_i_glide_lignum>
3552

> <i_i_glide_posenum>
104

> <i_i_glide_rotatable_bonds>
8

> <i_m_Source_File_Index>
5947

> <b_m_subgroup_collapsed>
0

> <r_i_docking_score>
-6.07597

> <r_i_glide_ecoul>
-6.38262

> <r_i_glide_eff_state_penalty>
0

> <r_i_glide_einternal>
5.55583

> <r_i_glide_emodel>
-66.5453

> <r_i_glide_energy>
-49.8696

> <r_i_glide_erotb>
0.480107

> <r_i_glide_esite>
-0.134729

> <r_i_glide_evdw>
-43.487

> <r_i_glide_gscore>
-6.07597

> <r_i_glide_hbond>
-0.29854

> <r_i_glide_ligand_efficiency>
-0.164215

> <r_i_glide_ligand_efficiency_ln>
-1.31773

> <r_i_glide_ligand_efficiency_sa>
-0.547202

> <r_i_glide_lipo>
-2.44917

> <r_i_glide_metal>
0

> <r_i_glide_rewards>
-0.541893

> <s_i_glide_gridfile>
wee1_glide-grid

> <s_m_Source_File>
wee1_decoys_glide_SP.sdf

> <s_m_Source_Path>
/Users/zhangxujun/Desktop

> <s_m_entry_id>
6222

> <s_m_entry_name>
wee1_decoys_glide_SP.5947

> <s_m_subgroup_title>
wee1_decoys_glide_SP

> <s_m_subgroupid>
wee1_decoys_glide_SP


$$$$
