ZINC35729422_4949
                    3D
 Schrodinger Suite 2024-2.
 62 66  0  0  1  0            999 V2000
    2.5767   51.4987   19.4149 C   0  0  0  0  0  0
    2.2029   52.2577   18.1421 C   0  0  0  0  0  0
    0.9297   52.0737   17.5961 C   0  0  0  0  0  0
    0.5439   52.7668   16.4528 C   0  0  0  0  0  0
    1.4333   53.6392   15.8318 C   0  0  0  0  0  0
    2.7169   53.8381   16.3493 C   0  0  0  0  0  0
    3.1016   53.1524   17.5228 C   0  0  0  0  0  0
    4.3765   53.2965   18.0971 N   0  0  0  0  0  0
    4.8571   54.4362   18.6202 C   0  0  0  0  0  0
    4.2995   55.5307   18.5475 O   0  0  0  0  0  0
    6.0039   54.2141   19.2821 N   0  0  0  0  0  0
    6.5295   54.9405   20.4566 C   0  0  1  0  0  0
    7.5510   54.5847   20.5858 H   0  0  0  0  0  0
    6.6398   56.4680   20.2169 C   0  0  0  0  0  0
    7.4352   56.9080   18.9984 C   0  0  0  0  0  0
    6.8631   57.7936   18.0598 C   0  0  0  0  0  0
    7.6090   58.2281   16.9729 C   0  0  0  0  0  0
    8.9202   57.7963   16.8064 C   0  0  0  0  0  0
    9.4991   56.9318   17.7288 C   0  0  0  0  0  0
    8.7724   56.4877   18.8249 C   0  0  0  0  0  0
    5.7410   54.6669   21.7631 C   0  0  0  0  0  0
    4.5234   54.4901   21.7113 O   0  0  0  0  0  0
    6.4712   54.7099   22.9024 N   0  0  0  0  0  0
    6.0086   54.5552   24.2053 C   0  0  0  0  0  0
    6.8095   54.7211   25.2261 N   0  0  0  0  0  0
    6.1943   54.4701   26.4468 N   0  0  0  0  0  0
    4.9334   54.1173   26.3302 C   0  0  0  0  0  0
    4.3814   54.0969   24.6735 S   0  0  0  0  0  0
    4.0566   53.6964   27.4733 C   0  0  0  0  0  0
    4.6487   53.2814   28.6853 C   0  0  0  0  0  0
    3.8702   52.8237   29.7573 C   0  0  0  0  0  0
    2.4929   52.8003   29.5895 C   0  0  0  0  0  0
    1.9018   53.2219   28.4333 C   0  0  0  0  0  0
    2.6522   53.6830   27.3542 C   0  0  0  0  0  0
    0.5506   53.1232   28.5625 O   0  0  0  0  0  0
    0.3442   52.3740   29.7326 C   0  0  0  0  0  0
    1.5355   52.4158   30.4730 O   0  0  0  0  0  0
    3.6681   54.7499   15.5785 C   0  0  0  0  0  0
    3.5028   50.9358   19.2805 H   0  0  0  0  0  0
    2.7456   52.1990   20.2350 H   0  0  0  0  0  0
    1.7996   50.7947   19.7192 H   0  0  0  0  0  0
    0.2319   51.3923   18.0599 H   0  0  0  0  0  0
   -0.4425   52.6228   16.0385 H   0  0  0  0  0  0
    1.1256   54.1568   14.9352 H   0  0  0  0  0  0
    4.8531   52.4261   18.3015 H   0  0  0  0  0  0
    6.5313   53.3958   19.0210 H   0  0  0  0  0  0
    5.6432   56.9075   20.1545 H   0  0  0  0  0  0
    7.1036   56.9273   21.0874 H   0  0  0  0  0  0
    5.8463   58.1420   18.1763 H   0  0  0  0  0  0
    7.1672   58.9113   16.2609 H   0  0  0  0  0  0
    9.4939   58.1335   15.9558 H   0  0  0  0  0  0
   10.5220   56.6076   17.5989 H   0  0  0  0  0  0
    9.2413   55.8304   19.5432 H   0  0  0  0  0  0
    7.4603   54.9077   22.8222 H   0  0  0  0  0  0
    5.7248   53.2911   28.7945 H   0  0  0  0  0  0
    4.3273   52.4940   30.6765 H   0  0  0  0  0  0
    2.1643   54.0129   26.4488 H   0  0  0  0  0  0
    0.1207   51.3386   29.4598 H   0  0  0  0  0  0
   -0.4902   52.7606   30.3182 H   0  0  0  0  0  0
    4.6947   54.3883   15.6374 H   0  0  0  0  0  0
    3.4208   54.7772   14.5168 H   0  0  0  0  0  0
    3.6302   55.7649   15.9740 H   0  0  0  0  0  0
  1  2  1  0  0  0
  1 39  1  0  0  0
  1 40  1  0  0  0
  1 41  1  0  0  0
  2  7  2  0  0  0
  2  3  1  0  0  0
  3  4  2  0  0  0
  3 42  1  0  0  0
  4  5  1  0  0  0
  4 43  1  0  0  0
  5  6  2  0  0  0
  5 44  1  0  0  0
  6  7  1  0  0  0
  6 38  1  0  0  0
  7  8  1  0  0  0
  8  9  1  0  0  0
  8 45  1  0  0  0
  9 10  2  0  0  0
  9 11  1  0  0  0
 11 12  1  0  0  0
 11 46  1  0  0  0
 12 13  1  0  0  0
 12 14  1  0  0  0
 12 21  1  0  0  0
 14 15  1  0  0  0
 14 47  1  0  0  0
 14 48  1  0  0  0
 15 20  2  0  0  0
 15 16  1  0  0  0
 16 17  2  0  0  0
 16 49  1  0  0  0
 17 18  1  0  0  0
 17 50  1  0  0  0
 18 19  2  0  0  0
 18 51  1  0  0  0
 19 20  1  0  0  0
 19 52  1  0  0  0
 20 53  1  0  0  0
 21 22  2  0  0  0
 21 23  1  0  0  0
 23 24  1  0  0  0
 23 54  1  0  0  0
 24 28  1  0  0  0
 24 25  2  0  0  0
 25 26  1  0  0  0
 26 27  2  0  0  0
 27 28  1  0  0  0
 27 29  1  0  0  0
 29 34  2  0  0  0
 29 30  1  0  0  0
 30 31  2  0  0  0
 30 55  1  0  0  0
 31 32  1  0  0  0
 31 56  1  0  0  0
 32 37  1  0  0  0
 32 33  2  0  0  0
 33 34  1  0  0  0
 33 35  1  0  0  0
 34 57  1  0  0  0
 35 36  1  0  0  0
 36 37  1  0  0  0
 36 58  1  0  0  0
 36 59  1  0  0  0
 38 60  1  0  0  0
 38 61  1  0  0  0
 38 62  1  0  0  0
M  END
> <i_i_glide_confnum>
118

> <i_i_glide_lignum>
4950

> <i_i_glide_posenum>
127

> <i_i_glide_rotatable_bonds>
10

> <i_m_Source_File_Index>
449

> <b_m_subgroup_collapsed>
0

> <r_i_docking_score>
-4.48767

> <r_i_glide_ecoul>
-1.18198

> <r_i_glide_eff_state_penalty>
0

> <r_i_glide_einternal>
3.49241

> <r_i_glide_emodel>
-64.2161

> <r_i_glide_energy>
-50.6639

> <r_i_glide_erotb>
0.694738

> <r_i_glide_esite>
-0.0787314

> <r_i_glide_evdw>
-49.4819

> <r_i_glide_gscore>
-4.48767

> <r_i_glide_hbond>
-0.160162

> <r_i_glide_ligand_efficiency>
-0.121288

> <r_i_glide_ligand_efficiency_ln>
-0.973271

> <r_i_glide_ligand_efficiency_sa>
-0.40416

> <r_i_glide_lipo>
-2.12302

> <r_i_glide_metal>
0

> <r_i_glide_rewards>
-0.169109

> <s_i_glide_gridfile>
wee1_glide-grid

> <s_m_Source_File>
wee1_decoys_glide_SP.sdf

> <s_m_Source_Path>
/Users/zhangxujun/Desktop

> <s_m_entry_id>
724

> <s_m_entry_name>
wee1_decoys_glide_SP.449

> <s_m_subgroup_title>
wee1_decoys_glide_SP

> <s_m_subgroupid>
wee1_decoys_glide_SP


$$$$
