ZINC38547622_2923
                    3D
 Schrodinger Suite 2024-2.
 57 60  0  0  1  0            999 V2000
   -2.8312   46.2454   25.7360 C   0  0  0  0  0  0
   -2.0186   47.2638   24.9655 C   0  0  0  0  0  0
   -2.0253   47.3736   23.5710 C   0  0  0  0  0  0
   -1.3038   48.4091   22.9654 C   0  0  0  0  0  0
   -0.6038   49.3226   23.7620 C   0  0  0  0  0  0
   -0.6104   49.1651   25.1542 C   0  0  0  0  0  0
   -1.2952   48.1409   25.6816 N   0  3  0  0  0  0
   -0.0425   50.0880   26.0705 N   0  0  0  0  0  0
   -0.1479   51.5378   25.8439 C   0  0  1  0  0  0
    0.3199   51.6574   24.8679 H   0  0  0  0  0  0
   -1.6143   51.9757   25.6662 C   0  0  0  0  0  0
   -2.6254   51.4498   26.4823 C   0  0  0  0  0  0
   -3.9483   51.8362   26.3121 C   0  0  0  0  0  0
   -4.2887   52.7471   25.3114 C   0  0  0  0  0  0
   -3.2912   53.2517   24.4700 C   0  0  0  0  0  0
   -1.9615   52.8656   24.6450 C   0  0  0  0  0  0
   -5.7449   53.1759   25.1539 C   0  0  0  0  0  0
   -6.4144   52.2231   24.5054 F   0  0  0  0  0  0
   -6.3121   53.3672   26.3465 F   0  0  0  0  0  0
   -5.8474   54.3112   24.4666 F   0  0  0  0  0  0
    0.6229   52.3861   26.8707 C   0  0  0  0  0  0
    0.3937   52.4199   28.2783 C   0  0  0  0  0  0
    1.2240   53.3244   28.9553 C   0  0  0  0  0  0
    2.3256   54.0958   27.8733 S   0  0  0  0  0  0
    1.6856   53.2264   26.5132 C   0  0  0  0  0  0
    2.2110   53.3393   25.2273 N   0  0  0  0  0  0
    3.2458   54.0904   24.7894 C   0  0  0  0  0  0
    3.9012   54.8924   25.4567 O   0  0  0  0  0  0
    3.5671   53.8269   23.4113 C   0  0  0  0  0  0
    2.8204   53.2996   22.3571 C   0  0  0  0  0  0
    3.6450   53.3060   21.2315 C   0  0  0  0  0  0
    4.8399   53.8800   21.6288 C   0  0  0  0  0  0
    4.7886   54.2065   22.9458 O   0  0  0  0  0  0
    1.2851   53.6629   30.4290 C   0  0  0  0  0  0
   -0.5778   51.5253   29.0239 C   0  0  0  0  0  0
   -3.5040   45.6975   25.0790 H   0  0  0  0  0  0
   -2.1786   45.5493   26.2635 H   0  0  0  0  0  0
   -3.4459   46.7485   26.4850 H   0  0  0  0  0  0
   -2.5978   46.6888   22.9628 H   0  0  0  0  0  0
   -1.3055   48.5182   21.8905 H   0  0  0  0  0  0
   -0.0719   50.1386   23.2986 H   0  0  0  0  0  0
    0.0874   49.7881   27.0273 H   0  0  0  0  0  0
   -2.4032   50.7175   27.2437 H   0  0  0  0  0  0
   -4.7082   51.4187   26.9576 H   0  0  0  0  0  0
   -3.5362   53.9533   23.6856 H   0  0  0  0  0  0
   -1.2003   53.2729   23.9955 H   0  0  0  0  0  0
    1.7830   52.7483   24.5327 H   0  0  0  0  0  0
    1.8006   52.9466   22.3919 H   0  0  0  0  0  0
    3.3916   52.9608   20.2385 H   0  0  0  0  0  0
    5.7589   54.1160   21.1129 H   0  0  0  0  0  0
    0.4351   53.2803   30.9937 H   0  0  0  0  0  0
    2.1839   53.2464   30.8822 H   0  0  0  0  0  0
    1.3001   54.7406   30.5916 H   0  0  0  0  0  0
   -0.6374   50.5316   28.5854 H   0  0  0  0  0  0
   -0.2834   51.3451   30.0573 H   0  0  0  0  0  0
   -1.5838   51.9402   29.0485 H   0  0  0  0  0  0
   -1.3236   48.0834   26.7021 H   0  0  0  0  0  0
  1  2  1  0  0  0
  1 36  1  0  0  0
  1 37  1  0  0  0
  1 38  1  0  0  0
  2  7  2  0  0  0
  2  3  1  0  0  0
  3  4  2  0  0  0
  3 39  1  0  0  0
  4  5  1  0  0  0
  4 40  1  0  0  0
  5  6  2  0  0  0
  5 41  1  0  0  0
  6  7  1  0  0  0
  6  8  1  0  0  0
  7 57  1  0  0  0
  8  9  1  0  0  0
  8 42  1  0  0  0
  9 10  1  0  0  0
  9 11  1  0  0  0
  9 21  1  0  0  0
 11 16  2  0  0  0
 11 12  1  0  0  0
 12 13  2  0  0  0
 12 43  1  0  0  0
 13 14  1  0  0  0
 13 44  1  0  0  0
 14 15  2  0  0  0
 14 17  1  0  0  0
 15 16  1  0  0  0
 15 45  1  0  0  0
 16 46  1  0  0  0
 17 18  1  0  0  0
 17 19  1  0  0  0
 17 20  1  0  0  0
 21 25  2  0  0  0
 21 22  1  0  0  0
 22 23  2  0  0  0
 22 35  1  0  0  0
 23 24  1  0  0  0
 23 34  1  0  0  0
 24 25  1  0  0  0
 25 26  1  0  0  0
 26 27  1  0  0  0
 26 47  1  0  0  0
 27 28  2  0  0  0
 27 29  1  0  0  0
 29 33  1  0  0  0
 29 30  2  0  0  0
 30 31  1  0  0  0
 30 48  1  0  0  0
 31 32  2  0  0  0
 31 49  1  0  0  0
 32 33  1  0  0  0
 32 50  1  0  0  0
 34 51  1  0  0  0
 34 52  1  0  0  0
 34 53  1  0  0  0
 35 54  1  0  0  0
 35 55  1  0  0  0
 35 56  1  0  0  0
M  CHG  1   7   1
M  END
> <i_i_glide_confnum>
106

> <i_i_glide_lignum>
2924

> <i_i_glide_posenum>
389

> <i_i_glide_rotatable_bonds>
8

> <i_m_Source_File_Index>
512

> <b_m_subgroup_collapsed>
0

> <r_i_docking_score>
-4.01413

> <r_i_glide_ecoul>
-2.41478

> <r_i_glide_eff_state_penalty>
0

> <r_i_glide_einternal>
9.11806

> <r_i_glide_emodel>
-49.3555

> <r_i_glide_energy>
-41.8615

> <r_i_glide_erotb>
0.600985

> <r_i_glide_esite>
-0.200693

> <r_i_glide_evdw>
-39.4467

> <r_i_glide_gscore>
-4.01413

> <r_i_glide_hbond>
-0.2

> <r_i_glide_ligand_efficiency>
-0.118063

> <r_i_glide_ligand_efficiency_ln>
-0.886834

> <r_i_glide_ligand_efficiency_sa>
-0.382477

> <r_i_glide_lipo>
-1.60877

> <r_i_glide_metal>
0

> <r_i_glide_rewards>
-0.271099

> <s_i_glide_gridfile>
wee1_glide-grid

> <s_m_Source_File>
wee1_decoys_glide_SP.sdf

> <s_m_Source_Path>
/Users/zhangxujun/Desktop

> <s_m_entry_id>
787

> <s_m_entry_name>
wee1_decoys_glide_SP.512

> <s_m_subgroup_title>
wee1_decoys_glide_SP

> <s_m_subgroupid>
wee1_decoys_glide_SP


$$$$
