ZINC20746115_168
                    3D
 Schrodinger Suite 2024-2.
 49 52  0  0  1  0            999 V2000
    6.9332   55.5257   19.0036 C   0  0  0  0  0  0
    6.6354   55.2988   20.3744 O   0  0  0  0  0  0
    5.5058   54.6383   20.7390 C   0  0  0  0  0  0
    4.6552   54.2465   19.9374 O   0  0  0  0  0  0
    5.3710   54.4943   22.2248 C   0  0  0  0  0  0
    6.4430   54.7404   23.0992 C   0  0  0  0  0  0
    6.2792   54.6068   24.4769 C   0  0  0  0  0  0
    5.0452   54.2310   25.0033 C   0  0  0  0  0  0
    3.9631   53.9829   24.1555 C   0  0  0  0  0  0
    4.1385   54.0966   22.7665 C   0  0  0  0  0  0
    2.7673   53.5465   24.7550 N   0  0  0  0  0  0
    1.5095   53.6110   24.2623 C   0  0  0  0  0  0
    1.2308   54.2989   23.2815 O   0  0  0  0  0  0
    0.5576   52.9003   24.9389 N   0  0  0  0  0  0
   -0.8553   52.9788   24.4821 C   0  0  0  0  0  0
   -1.1958   51.7164   23.6450 C   0  0  0  0  0  0
   -0.7620   50.5180   24.4627 C   0  0  0  0  0  0
    0.1066   50.5976   25.5509 C   0  0  0  0  0  0
    0.2028   49.3207   26.0815 N   0  3  0  0  0  0
   -0.6624   48.4916   25.4035 C   0  0  0  0  0  0
   -1.2679   49.2327   24.4153 N   0  0  0  0  0  0
   -1.9826   48.9052   23.7814 H   0  0  0  0  0  0
    0.8335   51.8777   25.9917 C   0  0  2  0  0  0
    1.9022   51.6981   25.9741 H   0  0  0  0  0  0
    0.6178   52.3474   27.4430 C   0  0  0  0  0  0
   -0.2654   51.6966   28.3187 C   0  0  0  0  0  0
   -0.3654   52.0982   29.6497 C   0  0  0  0  0  0
    0.3997   53.1675   30.1079 C   0  0  0  0  0  0
    1.2512   53.8472   29.2426 C   0  0  0  0  0  0
    1.3629   53.4344   27.9186 C   0  0  0  0  0  0
    0.3003   53.6972   31.9325 Br  0  0  0  0  0  0
    7.0982   54.5847   18.4794 H   0  0  0  0  0  0
    6.1245   56.0610   18.5042 H   0  0  0  0  0  0
    7.8373   56.1253   18.9167 H   0  0  0  0  0  0
    7.4157   55.0350   22.7274 H   0  0  0  0  0  0
    7.1138   54.7914   25.1356 H   0  0  0  0  0  0
    4.9407   54.1243   26.0736 H   0  0  0  0  0  0
    3.3157   53.8778   22.0993 H   0  0  0  0  0  0
    2.8851   53.0949   25.6480 H   0  0  0  0  0  0
   -1.4790   53.0147   25.3772 H   0  0  0  0  0  0
   -1.0860   53.9264   23.9924 H   0  0  0  0  0  0
   -2.2597   51.6855   23.4091 H   0  0  0  0  0  0
   -0.6697   51.7507   22.6897 H   0  0  0  0  0  0
   -0.8727   47.4618   25.6630 H   0  0  0  0  0  0
   -0.8686   50.8608   27.9950 H   0  0  0  0  0  0
   -1.0238   51.5715   30.3286 H   0  0  0  0  0  0
    1.8342   54.6830   29.6000 H   0  0  0  0  0  0
    2.0436   53.9655   27.2721 H   0  0  0  0  0  0
    0.7358   49.0516   26.8980 H   0  0  0  0  0  0
  1  2  1  0  0  0
  1 32  1  0  0  0
  1 33  1  0  0  0
  1 34  1  0  0  0
  2  3  1  0  0  0
  3  4  2  0  0  0
  3  5  1  0  0  0
  5 10  2  0  0  0
  5  6  1  0  0  0
  6  7  2  0  0  0
  6 35  1  0  0  0
  7  8  1  0  0  0
  7 36  1  0  0  0
  8  9  2  0  0  0
  8 37  1  0  0  0
  9 10  1  0  0  0
  9 11  1  0  0  0
 10 38  1  0  0  0
 11 12  1  0  0  0
 11 39  1  0  0  0
 12 13  2  0  0  0
 12 14  1  0  0  0
 14 23  1  0  0  0
 14 15  1  0  0  0
 15 16  1  0  0  0
 15 40  1  0  0  0
 15 41  1  0  0  0
 16 17  1  0  0  0
 16 42  1  0  0  0
 16 43  1  0  0  0
 17 21  1  0  0  0
 17 18  2  0  0  0
 18 19  1  0  0  0
 18 23  1  0  0  0
 19 20  2  0  0  0
 19 49  1  0  0  0
 20 21  1  0  0  0
 20 44  1  0  0  0
 21 22  1  0  0  0
 23 24  1  0  0  0
 23 25  1  0  0  0
 25 30  2  0  0  0
 25 26  1  0  0  0
 26 27  2  0  0  0
 26 45  1  0  0  0
 27 28  1  0  0  0
 27 46  1  0  0  0
 28 29  2  0  0  0
 28 31  1  0  0  0
 29 30  1  0  0  0
 29 47  1  0  0  0
 30 48  1  0  0  0
M  CHG  1  19   1
M  END
> <i_i_glide_confnum>
95

> <i_i_glide_lignum>
169

> <i_i_glide_posenum>
213

> <i_i_glide_rotatable_bonds>
6

> <i_m_Source_File_Index>
3175

> <b_m_subgroup_collapsed>
0

> <r_i_docking_score>
-5.37833

> <r_i_glide_ecoul>
-1.71103

> <r_i_glide_eff_state_penalty>
0

> <r_i_glide_einternal>
5.03142

> <r_i_glide_emodel>
-54.773

> <r_i_glide_energy>
-41.7232

> <r_i_glide_erotb>
0.482564

> <r_i_glide_esite>
-0.208103

> <r_i_glide_evdw>
-40.0121

> <r_i_glide_gscore>
-5.37833

> <r_i_glide_hbond>
0

> <r_i_glide_ligand_efficiency>
-0.18546

> <r_i_glide_ligand_efficiency_ln>
-1.2315

> <r_i_glide_ligand_efficiency_sa>
-0.569791

> <r_i_glide_lipo>
-2.31065

> <r_i_glide_metal>
0

> <r_i_glide_rewards>
-1.08488

> <s_i_glide_gridfile>
wee1_glide-grid

> <s_m_Source_File>
wee1_decoys_glide_SP.sdf

> <s_m_Source_Path>
/Users/zhangxujun/Desktop

> <s_m_entry_id>
3450

> <s_m_entry_name>
wee1_decoys_glide_SP.3175

> <s_m_subgroup_title>
wee1_decoys_glide_SP

> <s_m_subgroupid>
wee1_decoys_glide_SP


$$$$
