ZINC34906387_4495
                    3D
 Schrodinger Suite 2024-2.
 72 77  0  0  1  0            999 V2000
    3.1627   54.1078   26.6988 C   0  0  0  0  0  0
    3.4798   53.6513   27.9773 C   0  0  0  0  0  0
    4.8130   53.4278   28.3202 C   0  0  0  0  0  0
    5.8228   53.6465   27.3861 C   0  0  0  0  0  0
    5.5198   54.1001   26.0970 C   0  0  0  0  0  0
    4.1769   54.3553   25.7710 C   0  0  0  0  0  0
    6.5741   54.2507   25.2113 O   0  0  0  0  0  0
    6.4960   55.2374   24.1841 C   0  0  0  0  0  0
    6.0369   54.6709   22.8484 C   0  0  0  0  0  0
    5.0958   53.7630   22.7032 N   0  0  0  0  0  0
    4.7650   53.5430   21.4334 C   0  0  0  0  0  0
    5.5026   54.2845   20.5110 C   0  0  0  0  0  0
    6.6338   55.2992   21.3431 S   0  0  0  0  0  0
    3.7175   52.5983   21.0662 C   0  0  0  0  0  0
    3.4785   52.3527   19.8854 O   0  0  0  0  0  0
    3.0567   52.0039   22.0817 N   0  0  0  0  0  0
    2.0082   50.9827   21.9423 C   0  0  1  0  0  0
    2.3955   50.2541   21.2217 H   0  0  0  0  0  0
    1.7619   50.2256   23.2760 C   0  0  0  0  0  0
    1.1040   51.1193   24.3528 C   0  0  0  0  0  0
   -0.1844   51.7882   23.8434 C   0  0  0  0  0  0
    0.0499   52.4869   22.4910 C   0  0  0  0  0  0
    0.6447   51.5432   21.4188 C   0  0  2  0  0  0
    0.8170   52.1359   20.5127 H   0  0  0  0  0  0
   -0.3003   50.4765   21.0723 N   0  0  0  0  0  0
   -0.3087   49.7865   19.9247 C   0  0  0  0  0  0
    0.0808   50.2348   18.8519 O   0  0  0  0  0  0
   -0.7384   48.5293   20.1239 N   0  0  0  0  0  0
   -0.7194   47.4066   19.1772 C   0  0  0  0  0  0
   -1.2306   46.1270   19.9099 C   0  0  0  0  0  0
   -1.2422   44.8912   18.9707 C   0  0  1  0  0  0
   -2.1834   45.1748   17.7735 C   0  0  0  0  0  0
   -1.6758   46.4178   17.0023 C   0  0  1  0  0  0
   -1.6601   47.6460   17.9520 C   0  0  0  0  0  0
   -0.2382   46.1536   16.4849 C   0  0  0  0  0  0
    0.7042   45.8660   17.6807 C   0  0  2  0  0  0
    0.1955   44.6245   18.4538 C   0  0  0  0  0  0
    0.7170   47.0903   18.6339 C   0  0  0  0  0  0
    7.1045   53.4051   27.7377 F   0  0  0  0  0  0
    2.1310   54.2763   26.4298 H   0  0  0  0  0  0
    2.6970   53.4664   28.6970 H   0  0  0  0  0  0
    5.0671   53.0679   29.3050 H   0  0  0  0  0  0
    3.9001   54.7166   24.7931 H   0  0  0  0  0  0
    5.8889   56.0912   24.4872 H   0  0  0  0  0  0
    7.5027   55.6381   24.0851 H   0  0  0  0  0  0
    5.4358   54.2743   19.4301 H   0  0  0  0  0  0
    3.1442   52.4177   22.9967 H   0  0  0  0  0  0
    1.1376   49.3477   23.0975 H   0  0  0  0  0  0
    2.7037   49.8212   23.6538 H   0  0  0  0  0  0
    1.8097   51.8879   24.6683 H   0  0  0  0  0  0
    0.8841   50.5260   25.2422 H   0  0  0  0  0  0
   -0.5421   52.5095   24.5795 H   0  0  0  0  0  0
   -0.9708   51.0386   23.7484 H   0  0  0  0  0  0
    0.7079   53.3457   22.6290 H   0  0  0  0  0  0
   -0.8951   52.8907   22.1282 H   0  0  0  0  0  0
   -0.8018   50.0830   21.8517 H   0  0  0  0  0  0
   -1.1034   48.3078   21.0347 H   0  0  0  0  0  0
   -0.6067   45.9144   20.7811 H   0  0  0  0  0  0
   -2.2353   46.2938   20.3030 H   0  0  0  0  0  0
   -1.6030   44.0191   19.5192 H   0  0  0  0  0  0
   -2.2283   44.3110   17.1115 H   0  0  0  0  0  0
   -3.2034   45.3401   18.1239 H   0  0  0  0  0  0
   -2.3362   46.6188   16.1571 H   0  0  0  0  0  0
   -2.6733   47.8657   18.2904 H   0  0  0  0  0  0
   -1.3403   48.5269   17.3920 H   0  0  0  0  0  0
   -0.2370   45.3119   15.7901 H   0  0  0  0  0  0
    0.1227   47.0129   15.9168 H   0  0  0  0  0  0
    1.7117   45.6861   17.3027 H   0  0  0  0  0  0
    0.8621   44.3977   19.2858 H   0  0  0  0  0  0
    0.2068   43.7456   17.8093 H   0  0  0  0  0  0
    1.1262   47.9513   18.1005 H   0  0  0  0  0  0
    1.4040   46.9100   19.4635 H   0  0  0  0  0  0
  1  6  2  0  0  0
  1  2  1  0  0  0
  1 40  1  0  0  0
  2  3  2  0  0  0
  2 41  1  0  0  0
  3  4  1  0  0  0
  3 42  1  0  0  0
  4  5  2  0  0  0
  4 39  1  0  0  0
  5  6  1  0  0  0
  5  7  1  0  0  0
  6 43  1  0  0  0
  7  8  1  0  0  0
  8  9  1  0  0  0
  8 44  1  0  0  0
  8 45  1  0  0  0
  9 13  1  0  0  0
  9 10  2  0  0  0
 10 11  1  0  0  0
 11 12  2  0  0  0
 11 14  1  0  0  0
 12 13  1  0  0  0
 12 46  1  0  0  0
 14 15  2  0  0  0
 14 16  1  0  0  0
 16 17  1  0  0  0
 16 47  1  0  0  0
 17 18  1  0  0  0
 17 23  1  0  0  0
 17 19  1  0  0  0
 19 20  1  0  0  0
 19 48  1  0  0  0
 19 49  1  0  0  0
 20 21  1  0  0  0
 20 50  1  0  0  0
 20 51  1  0  0  0
 21 22  1  0  0  0
 21 52  1  0  0  0
 21 53  1  0  0  0
 22 23  1  0  0  0
 22 54  1  0  0  0
 22 55  1  0  0  0
 23 24  1  0  0  0
 23 25  1  0  0  0
 25 26  1  0  0  0
 25 56  1  0  0  0
 26 27  2  0  0  0
 26 28  1  0  0  0
 28 29  1  0  0  0
 28 57  1  0  0  0
 29 34  1  0  0  0
 29 38  1  0  0  0
 29 30  1  0  0  0
 30 31  1  0  0  0
 30 58  1  0  0  0
 30 59  1  0  0  0
 31 37  1  0  0  0
 31 32  1  0  0  0
 31 60  1  0  0  0
 32 33  1  0  0  0
 32 61  1  0  0  0
 32 62  1  0  0  0
 33 34  1  0  0  0
 33 35  1  0  0  0
 33 63  1  0  0  0
 34 64  1  0  0  0
 34 65  1  0  0  0
 35 36  1  0  0  0
 35 66  1  0  0  0
 35 67  1  0  0  0
 36 37  1  0  0  0
 36 38  1  0  0  0
 36 68  1  0  0  0
 37 69  1  0  0  0
 37 70  1  0  0  0
 38 71  1  0  0  0
 38 72  1  0  0  0
M  END
> <i_i_glide_confnum>
278

> <i_i_glide_lignum>
4496

> <i_i_glide_posenum>
144

> <i_i_glide_rotatable_bonds>
10

> <i_m_Source_File_Index>
3409

> <b_m_subgroup_collapsed>
0

> <r_i_docking_score>
-4.11331

> <r_i_glide_ecoul>
1.9032

> <r_i_glide_eff_state_penalty>
0

> <r_i_glide_einternal>
9.2304

> <r_i_glide_emodel>
-50.2803

> <r_i_glide_energy>
-42.4466

> <r_i_glide_erotb>
0.668091

> <r_i_glide_esite>
-0.000779656

> <r_i_glide_evdw>
-44.3498

> <r_i_glide_gscore>
-4.11331

> <r_i_glide_hbond>
0

> <r_i_glide_ligand_efficiency>
-0.11117

> <r_i_glide_ligand_efficiency_ln>
-0.89208

> <r_i_glide_ligand_efficiency_sa>
-0.370445

> <r_i_glide_lipo>
-2.71831

> <r_i_glide_metal>
0

> <r_i_glide_rewards>
-0.130297

> <s_i_glide_gridfile>
wee1_glide-grid

> <s_m_Source_File>
wee1_decoys_glide_SP.sdf

> <s_m_Source_Path>
/Users/zhangxujun/Desktop

> <s_m_entry_id>
3684

> <s_m_entry_name>
wee1_decoys_glide_SP.3409

> <s_m_subgroup_title>
wee1_decoys_glide_SP

> <s_m_subgroupid>
wee1_decoys_glide_SP


$$$$
