ZINC32809991_5093
                    3D
 Schrodinger Suite 2024-2.
 57 60  0  0  1  0            999 V2000
    0.0215   48.7785   23.3619 C   0  0  0  0  0  0
    0.3021   50.1767   23.8731 C   0  0  0  0  0  0
   -0.2271   50.7197   25.0452 C   0  0  0  0  0  0
    0.2843   52.3711   25.3119 S   0  0  0  0  0  0
    1.2526   52.3413   23.8697 C   0  0  0  0  0  0
    1.1938   51.0882   23.2009 C   0  0  0  0  0  0
    1.9970   51.0015   22.0288 C   0  0  0  0  0  0
    2.7903   52.0443   21.6464 N   0  0  0  0  0  0
    2.7361   53.1781   22.3847 C   0  0  0  0  0  0
    1.9683   53.3929   23.4779 N   0  0  0  0  0  0
    3.6750   54.3089   21.9787 C   0  0  0  0  0  0
    5.3748   54.0973   22.6221 S   0  0  0  0  0  0
    5.4224   54.3360   24.3834 C   0  0  0  0  0  0
    4.2892   54.7255   25.0983 C   0  0  0  0  0  0
    4.3169   54.7712   26.4854 C   0  0  0  0  0  0
    5.4944   54.4713   27.1603 C   0  0  0  0  0  0
    6.6521   54.1525   26.4546 C   0  0  0  0  0  0
    6.6184   54.0965   25.0609 C   0  0  0  0  0  0
    5.5069   54.4974   28.8823 Cl  0  0  0  0  0  0
    1.9657   49.8489   21.2197 N   0  0  0  0  0  0
    2.6247   49.8052   19.9153 C   0  0  0  0  0  0
    1.7826   50.4645   18.8065 C   0  0  0  0  0  0
    2.7044   51.2964   17.8909 N   0  3  0  0  0  0
    2.1214   52.4452   17.0384 C   0  0  1  0  0  0
    2.9905   53.0303   16.7269 H   0  0  0  0  0  0
    1.3521   51.8319   15.8326 C   0  0  0  0  0  0
    0.0310   52.5878   15.5937 C   0  0  0  0  0  0
   -0.5419   53.0403   17.3107 S   0  0  0  0  0  0
   -1.0707   51.8486   17.9803 O   0  0  0  0  0  0
   -1.3109   54.2880   17.2924 O   0  0  0  0  0  0
    1.2047   53.3649   17.8828 C   0  0  0  0  0  0
   -1.1492   50.0906   26.0662 C   0  0  0  0  0  0
   -0.7448   48.2548   23.9313 H   0  0  0  0  0  0
   -0.3207   48.7781   22.3271 H   0  0  0  0  0  0
    0.9190   48.1680   23.4244 H   0  0  0  0  0  0
    3.7195   54.3447   20.8893 H   0  0  0  0  0  0
    3.2797   55.2844   22.2692 H   0  0  0  0  0  0
    3.3781   55.0007   24.6008 H   0  0  0  0  0  0
    3.4270   55.0412   27.0352 H   0  0  0  0  0  0
    7.5581   53.9224   26.9925 H   0  0  0  0  0  0
    7.5034   53.8163   24.5078 H   0  0  0  0  0  0
    1.2403   49.1714   21.4081 H   0  0  0  0  0  0
    2.8570   48.7691   19.6631 H   0  0  0  0  0  0
    3.6006   50.2882   19.9908 H   0  0  0  0  0  0
    1.0165   51.1168   19.2184 H   0  0  0  0  0  0
    1.3009   49.7334   18.1564 H   0  0  0  0  0  0
    3.1959   50.6365   17.2854 H   0  0  0  0  0  0
    1.0682   50.7990   16.0444 H   0  0  0  0  0  0
    1.9767   51.7901   14.9378 H   0  0  0  0  0  0
   -0.7563   52.0643   15.0532 H   0  0  0  0  0  0
    0.2460   53.5193   15.0704 H   0  0  0  0  0  0
    1.4382   54.3995   17.6308 H   0  0  0  0  0  0
    1.2512   53.2963   18.9680 H   0  0  0  0  0  0
   -1.2645   49.0139   25.9475 H   0  0  0  0  0  0
   -0.7756   50.2367   27.0802 H   0  0  0  0  0  0
   -2.1481   50.5244   26.0306 H   0  0  0  0  0  0
    3.4479   51.6804   18.4594 H   0  0  0  0  0  0
  1  2  1  0  0  0
  1 33  1  0  0  0
  1 34  1  0  0  0
  1 35  1  0  0  0
  2  6  1  0  0  0
  2  3  2  0  0  0
  3  4  1  0  0  0
  3 32  1  0  0  0
  4  5  1  0  0  0
  5 10  2  0  0  0
  5  6  1  0  0  0
  6  7  2  0  0  0
  7  8  1  0  0  0
  7 20  1  0  0  0
  8  9  2  0  0  0
  9 10  1  0  0  0
  9 11  1  0  0  0
 11 12  1  0  0  0
 11 36  1  0  0  0
 11 37  1  0  0  0
 12 13  1  0  0  0
 13 18  2  0  0  0
 13 14  1  0  0  0
 14 15  2  0  0  0
 14 38  1  0  0  0
 15 16  1  0  0  0
 15 39  1  0  0  0
 16 17  2  0  0  0
 16 19  1  0  0  0
 17 18  1  0  0  0
 17 40  1  0  0  0
 18 41  1  0  0  0
 20 21  1  0  0  0
 20 42  1  0  0  0
 21 22  1  0  0  0
 21 43  1  0  0  0
 21 44  1  0  0  0
 22 23  1  0  0  0
 22 45  1  0  0  0
 22 46  1  0  0  0
 23 24  1  0  0  0
 23 47  1  0  0  0
 23 57  1  0  0  0
 24 25  1  0  0  0
 24 31  1  0  0  0
 24 26  1  0  0  0
 26 27  1  0  0  0
 26 48  1  0  0  0
 26 49  1  0  0  0
 27 28  1  0  0  0
 27 50  1  0  0  0
 27 51  1  0  0  0
 28 29  2  0  0  0
 28 30  2  0  0  0
 28 31  1  0  0  0
 31 52  1  0  0  0
 31 53  1  0  0  0
 32 54  1  0  0  0
 32 55  1  0  0  0
 32 56  1  0  0  0
M  CHG  1  23   1
M  END
> <i_i_glide_confnum>
9

> <i_i_glide_lignum>
5094

> <i_i_glide_posenum>
88

> <i_i_glide_rotatable_bonds>
8

> <i_m_Source_File_Index>
4784

> <b_m_subgroup_collapsed>
0

> <r_i_docking_score>
-5.38953

> <r_i_glide_ecoul>
-6.13689

> <r_i_glide_eff_state_penalty>
0

> <r_i_glide_einternal>
9.85041

> <r_i_glide_emodel>
-60.4975

> <r_i_glide_energy>
-45.7967

> <r_i_glide_erotb>
0.575654

> <r_i_glide_esite>
-0.130358

> <r_i_glide_evdw>
-39.6598

> <r_i_glide_gscore>
-5.38953

> <r_i_glide_hbond>
-0.214077

> <r_i_glide_ligand_efficiency>
-0.173856

> <r_i_glide_ligand_efficiency_ln>
-1.2155

> <r_i_glide_ligand_efficiency_sa>
-0.546148

> <r_i_glide_lipo>
-2.51224

> <r_i_glide_metal>
0

> <r_i_glide_rewards>
-0.204983

> <s_i_glide_gridfile>
wee1_glide-grid

> <s_m_Source_File>
wee1_decoys_glide_SP.sdf

> <s_m_Source_Path>
/Users/zhangxujun/Desktop

> <s_m_entry_id>
5059

> <s_m_entry_name>
wee1_decoys_glide_SP.4784

> <s_m_subgroup_title>
wee1_decoys_glide_SP

> <s_m_subgroupid>
wee1_decoys_glide_SP


$$$$
