ZINC06546860_3098
                    3D
 Schrodinger Suite 2024-2.
 57 59  0  0  1  0            999 V2000
   -7.1559   53.5267   28.4998 C   0  0  0  0  0  0
   -6.8243   54.6104   27.4590 C   0  0  0  0  0  0
   -6.6709   54.0469   26.1637 O   0  0  0  0  0  0
   -5.5319   53.4192   25.8044 C   0  0  0  0  0  0
   -4.5067   53.3414   26.4817 O   0  0  0  0  0  0
   -5.6524   52.7889   24.4136 C   0  0  0  0  0  0
   -4.5141   51.9278   24.0740 N   0  0  0  0  0  0
   -3.2940   52.3561   23.6977 C   0  0  0  0  0  0
   -2.9803   53.5465   23.6802 O   0  0  0  0  0  0
   -2.2997   51.2361   23.2914 C   0  0  1  0  0  0
   -2.7628   50.8482   22.3829 H   0  0  0  0  0  0
   -0.9503   51.7353   22.8309 C   0  0  0  0  0  0
   -0.3135   51.3520   21.6520 C   0  0  0  0  0  0
    0.9350   51.9566   21.4686 C   0  0  0  0  0  0
    1.2798   52.7977   22.5146 C   0  0  0  0  0  0
    0.0540   52.8499   23.7365 S   0  0  0  0  0  0
   -2.2390   50.1325   24.2984 N   0  0  0  0  0  0
   -1.3583   50.2609   25.3943 C   0  0  0  0  0  0
   -0.2838   49.3738   25.4910 C   0  0  0  0  0  0
    0.7042   49.5916   26.4376 C   0  0  0  0  0  0
    0.6506   50.7017   27.2789 C   0  0  0  0  0  0
   -0.4393   51.5643   27.2294 C   0  0  0  0  0  0
   -1.4500   51.3422   26.2882 C   0  0  0  0  0  0
   -0.4886   52.7442   28.1781 C   0  0  0  0  0  0
   -3.0749   49.0520   24.1459 C   0  0  0  0  0  0
   -3.7713   48.8751   23.1439 O   0  0  0  0  0  0
   -3.1999   48.0883   25.2095 C   0  0  0  0  0  0
   -3.8591   48.1638   26.4329 C   0  0  0  0  0  0
   -3.8320   46.9094   27.0928 C   0  0  0  0  0  0
   -3.1984   45.9235   26.4829 N   0  0  0  0  0  0
   -2.5581   46.4976   25.0063 S   0  0  0  0  0  0
   -4.4591   46.5864   28.3549 C   0  0  0  0  0  0
   -5.2997   45.6964   28.4785 O   0  0  0  0  0  0
   -4.0960   47.3573   29.3791 N   0  0  0  0  0  0
   -4.4941   49.2918   26.8958 N   0  0  0  0  0  0
   -7.2708   53.9558   29.4939 H   0  0  0  0  0  0
   -6.3699   52.7738   28.5600 H   0  0  0  0  0  0
   -8.0852   53.0153   28.2484 H   0  0  0  0  0  0
   -7.6419   55.3309   27.4144 H   0  0  0  0  0  0
   -5.9323   55.1728   27.7419 H   0  0  0  0  0  0
   -6.5746   52.2103   24.3514 H   0  0  0  0  0  0
   -5.7447   53.5922   23.6828 H   0  0  0  0  0  0
   -4.6976   50.9339   24.0249 H   0  0  0  0  0  0
   -0.7425   50.6579   20.9440 H   0  0  0  0  0  0
    1.5641   51.7872   20.6062 H   0  0  0  0  0  0
    2.1795   53.3865   22.6190 H   0  0  0  0  0  0
   -0.1859   48.5382   24.8138 H   0  0  0  0  0  0
    1.5297   48.8979   26.4997 H   0  0  0  0  0  0
    1.4420   50.8639   27.9958 H   0  0  0  0  0  0
   -2.2736   52.0361   26.2290 H   0  0  0  0  0  0
   -1.1022   52.4972   29.0451 H   0  0  0  0  0  0
    0.5089   53.0226   28.5209 H   0  0  0  0  0  0
   -0.8949   53.6223   27.6818 H   0  0  0  0  0  0
   -3.2227   47.8877   29.3233 H   0  0  0  0  0  0
   -4.5482   47.2626   30.2730 H   0  0  0  0  0  0
   -4.9255   49.2980   27.8095 H   0  0  0  0  0  0
   -4.3969   50.1858   26.4377 H   0  0  0  0  0  0
  1  2  1  0  0  0
  1 36  1  0  0  0
  1 37  1  0  0  0
  1 38  1  0  0  0
  2  3  1  0  0  0
  2 39  1  0  0  0
  2 40  1  0  0  0
  3  4  1  0  0  0
  4  5  2  0  0  0
  4  6  1  0  0  0
  6  7  1  0  0  0
  6 41  1  0  0  0
  6 42  1  0  0  0
  7  8  1  0  0  0
  7 43  1  0  0  0
  8  9  2  0  0  0
  8 10  1  0  0  0
 10 11  1  0  0  0
 10 12  1  0  0  0
 10 17  1  0  0  0
 12 16  1  0  0  0
 12 13  2  0  0  0
 13 14  1  0  0  0
 13 44  1  0  0  0
 14 15  2  0  0  0
 14 45  1  0  0  0
 15 16  1  0  0  0
 15 46  1  0  0  0
 17 18  1  0  0  0
 17 25  1  0  0  0
 18 23  2  0  0  0
 18 19  1  0  0  0
 19 20  2  0  0  0
 19 47  1  0  0  0
 20 21  1  0  0  0
 20 48  1  0  0  0
 21 22  2  0  0  0
 21 49  1  0  0  0
 22 23  1  0  0  0
 22 24  1  0  0  0
 23 50  1  0  0  0
 24 51  1  0  0  0
 24 52  1  0  0  0
 24 53  1  0  0  0
 25 26  2  0  0  0
 25 27  1  0  0  0
 27 31  1  0  0  0
 27 28  2  0  0  0
 28 29  1  0  0  0
 28 35  1  0  0  0
 29 30  2  0  0  0
 29 32  1  0  0  0
 30 31  1  0  0  0
 32 33  2  0  0  0
 32 34  1  0  0  0
 34 54  1  0  0  0
 34 55  1  0  0  0
 35 56  1  0  0  0
 35 57  1  0  0  0
M  END
> <i_i_glide_confnum>
74

> <i_i_glide_lignum>
3099

> <i_i_glide_posenum>
381

> <i_i_glide_rotatable_bonds>
12

> <i_m_Source_File_Index>
2488

> <b_m_subgroup_collapsed>
0

> <r_i_docking_score>
-2.11306

> <r_i_glide_ecoul>
-8.36179

> <r_i_glide_eff_state_penalty>
0

> <r_i_glide_einternal>
15.7835

> <r_i_glide_emodel>
-32.161

> <r_i_glide_energy>
-37.6344

> <r_i_glide_erotb>
0.811954

> <r_i_glide_esite>
-0.247554

> <r_i_glide_evdw>
-29.2726

> <r_i_glide_gscore>
-2.11306

> <r_i_glide_hbond>
-0.426425

> <r_i_glide_ligand_efficiency>
-0.062149

> <r_i_glide_ligand_efficiency_ln>
-0.466835

> <r_i_glide_ligand_efficiency_sa>
-0.201339

> <r_i_glide_lipo>
-0.42458

> <r_i_glide_metal>
0

> <r_i_glide_rewards>
0.891438

> <s_i_glide_gridfile>
wee1_glide-grid

> <s_m_Source_File>
wee1_decoys_glide_SP.sdf

> <s_m_Source_Path>
/Users/zhangxujun/Desktop

> <s_m_entry_id>
2763

> <s_m_entry_name>
wee1_decoys_glide_SP.2488

> <s_m_subgroup_title>
wee1_decoys_glide_SP

> <s_m_subgroupid>
wee1_decoys_glide_SP


$$$$
