ZINC09910194_5131
                    3D
 Schrodinger Suite 2024-2.
 54 58  0  0  1  0            999 V2000
    2.7079   50.1685   19.7587 C   0  0  0  0  0  0
    1.8932   49.0725   19.4952 C   0  0  0  0  0  0
    0.8933   48.7275   20.3990 C   0  0  0  0  0  0
    0.7078   49.4684   21.5651 C   0  0  0  0  0  0
    1.5270   50.5620   21.8330 C   0  0  0  0  0  0
    2.5385   50.9161   20.9260 C   0  0  0  0  0  0
    3.4385   51.9824   21.0947 N   0  0  0  0  0  0
    3.5306   52.8967   22.0816 C   0  0  0  0  0  0
    2.7810   52.9571   23.0530 O   0  0  0  0  0  0
    4.6717   53.7889   21.9655 C   0  0  0  0  0  0
    5.1112   54.3876   20.7426 C   0  0  0  0  0  0
    6.2242   55.2159   20.9358 C   0  0  0  0  0  0
    6.7048   55.2965   22.5866 S   0  0  0  0  0  0
    5.4063   54.2564   23.0853 C   0  0  0  0  0  0
    5.2380   53.8808   24.4272 N   0  0  0  0  0  0
    5.9030   54.2992   25.5371 C   0  0  0  0  0  0
    6.7040   55.2362   25.5726 O   0  0  0  0  0  0
    5.6498   53.5054   26.8349 C   0  0  0  0  0  0
    4.8982   54.4969   28.1644 S   0  0  0  0  0  0
    3.7061   53.3933   28.8555 C   0  0  0  0  0  0
    3.9041   52.7391   29.9753 N   0  0  0  0  0  0
    2.7205   52.0967   30.3180 N   0  0  0  0  0  0
    1.8622   52.3785   29.3760 C   0  0  0  0  0  0
    2.4101   53.2001   28.4223 N   0  0  0  0  0  0
    1.7137   53.8022   27.2975 C   0  0  0  0  0  0
    2.2405   53.5492   25.9061 C   0  0  0  0  0  0
    0.9615   52.8965   26.3301 C   0  0  0  0  0  0
    6.9962   55.9315   19.8397 C   0  0  0  0  0  0
    6.0839   56.0900   18.6116 C   0  0  0  0  0  0
    5.4361   54.7520   18.2309 C   0  0  0  0  0  0
    4.5072   54.1998   19.3342 C   0  0  0  0  0  0
   -0.1075   47.3576   20.0809 Cl  0  0  0  0  0  0
    3.5019   50.4108   19.0610 H   0  0  0  0  0  0
    2.0513   48.4914   18.5978 H   0  0  0  0  0  0
   -0.0652   49.1952   22.2681 H   0  0  0  0  0  0
    1.3608   51.1034   22.7482 H   0  0  0  0  0  0
    4.1247   52.0576   20.3586 H   0  0  0  0  0  0
    4.5116   53.1950   24.5687 H   0  0  0  0  0  0
    6.6152   53.1531   27.1985 H   0  0  0  0  0  0
    5.0652   52.6071   26.6637 H   0  0  0  0  0  0
    0.8290   52.0676   29.3130 H   0  0  0  0  0  0
    1.2971   54.7822   27.5344 H   0  0  0  0  0  0
    3.0896   52.8934   25.7529 H   0  0  0  0  0  0
    2.2174   54.3724   25.1905 H   0  0  0  0  0  0
    0.0516   53.2500   25.8462 H   0  0  0  0  0  0
    0.9489   51.8210   26.5134 H   0  0  0  0  0  0
    7.3564   56.9014   20.1703 H   0  0  0  0  0  0
    7.8814   55.3515   19.5722 H   0  0  0  0  0  0
    5.3074   56.8301   18.8145 H   0  0  0  0  0  0
    6.6597   56.4784   17.7715 H   0  0  0  0  0  0
    4.8744   54.8621   17.3014 H   0  0  0  0  0  0
    6.2179   54.0213   18.0165 H   0  0  0  0  0  0
    4.3175   53.1604   19.0822 H   0  0  0  0  0  0
    3.5419   54.7046   19.2815 H   0  0  0  0  0  0
  1  6  2  0  0  0
  1  2  1  0  0  0
  1 33  1  0  0  0
  2  3  2  0  0  0
  2 34  1  0  0  0
  3  4  1  0  0  0
  3 32  1  0  0  0
  4  5  2  0  0  0
  4 35  1  0  0  0
  5  6  1  0  0  0
  5 36  1  0  0  0
  6  7  1  0  0  0
  7  8  1  0  0  0
  7 37  1  0  0  0
  8  9  2  0  0  0
  8 10  1  0  0  0
 10 14  2  0  0  0
 10 11  1  0  0  0
 11 31  1  0  0  0
 11 12  2  0  0  0
 12 13  1  0  0  0
 12 28  1  0  0  0
 13 14  1  0  0  0
 14 15  1  0  0  0
 15 16  1  0  0  0
 15 38  1  0  0  0
 16 17  2  0  0  0
 16 18  1  0  0  0
 18 19  1  0  0  0
 18 39  1  0  0  0
 18 40  1  0  0  0
 19 20  1  0  0  0
 20 24  1  0  0  0
 20 21  2  0  0  0
 21 22  1  0  0  0
 22 23  2  0  0  0
 23 24  1  0  0  0
 23 41  1  0  0  0
 24 25  1  0  0  0
 25 27  1  0  0  0
 25 26  1  0  0  0
 25 42  1  0  0  0
 26 27  1  0  0  0
 26 43  1  0  0  0
 26 44  1  0  0  0
 27 45  1  0  0  0
 27 46  1  0  0  0
 28 29  1  0  0  0
 28 47  1  0  0  0
 28 48  1  0  0  0
 29 30  1  0  0  0
 29 49  1  0  0  0
 29 50  1  0  0  0
 30 31  1  0  0  0
 30 51  1  0  0  0
 30 52  1  0  0  0
 31 53  1  0  0  0
 31 54  1  0  0  0
M  END
> <i_i_glide_confnum>
355

> <i_i_glide_lignum>
5132

> <i_i_glide_posenum>
213

> <i_i_glide_rotatable_bonds>
9

> <i_m_Source_File_Index>
1323

> <b_m_subgroup_collapsed>
0

> <r_i_docking_score>
-6.34487

> <r_i_glide_ecoul>
-7.2012

> <r_i_glide_eff_state_penalty>
0

> <r_i_glide_einternal>
6.3806

> <r_i_glide_emodel>
-73.5654

> <r_i_glide_energy>
-54.2309

> <r_i_glide_erotb>
0.768365

> <r_i_glide_esite>
-0.032531

> <r_i_glide_evdw>
-47.0297

> <r_i_glide_gscore>
-6.34487

> <r_i_glide_hbond>
-0.279342

> <r_i_glide_ligand_efficiency>
-0.198277

> <r_i_glide_ligand_efficiency_ln>
-1.42079

> <r_i_glide_ligand_efficiency_sa>
-0.629491

> <r_i_glide_lipo>
-1.98133

> <r_i_glide_metal>
0

> <r_i_glide_rewards>
-1.38838

> <s_i_glide_gridfile>
wee1_glide-grid

> <s_m_Source_File>
wee1_decoys_glide_SP.sdf

> <s_m_Source_Path>
/Users/zhangxujun/Desktop

> <s_m_entry_id>
1598

> <s_m_entry_name>
wee1_decoys_glide_SP.1323

> <s_m_subgroup_title>
wee1_decoys_glide_SP

> <s_m_subgroupid>
wee1_decoys_glide_SP


$$$$
