ZINC13124139_603
                    3D
 Schrodinger Suite 2024-2.
 45 48  0  0  1  0            999 V2000
    2.3415   53.4628   29.6726 C   0  0  0  0  0  0
    3.5516   52.8803   29.2911 C   0  0  0  0  0  0
    4.1992   53.7853   28.4616 C   0  0  0  0  0  0
    3.4269   54.8963   28.3282 O   0  0  0  0  0  0
    2.3019   54.7032   29.0604 C   0  0  0  0  0  0
    5.5247   53.7756   27.7317 C   0  0  0  0  0  0
    5.3414   53.8163   26.2784 N   0  0  0  0  0  0
    5.9381   54.6884   25.4444 C   0  0  0  0  0  0
    6.7042   55.5750   25.8241 O   0  0  0  0  0  0
    5.6585   54.4954   24.0384 C   0  0  0  0  0  0
    6.5226   54.8966   23.0064 C   0  0  0  0  0  0
    5.8685   54.6386   21.8204 C   0  0  0  0  0  0
    4.6508   54.0945   22.1849 N   0  0  0  0  0  0
    4.5363   54.0179   23.5266 N   0  0  0  0  0  0
    3.5922   53.6215   21.2742 C   0  0  1  0  0  0
    2.6682   54.0963   21.6015 H   0  0  0  0  0  0
    3.9253   54.1178   19.8381 C   0  0  0  0  0  0
    5.4328   54.1370   19.4986 C   0  0  2  0  0  0
    5.7968   53.1072   19.5250 H   0  0  0  0  0  0
    6.1891   54.8968   20.5013 N   0  0  0  0  0  0
    5.6617   54.6016   18.0639 C   0  0  0  0  0  0
    5.6042   55.9620   17.7335 C   0  0  0  0  0  0
    5.7883   56.3743   16.4155 C   0  0  0  0  0  0
    6.0261   55.4341   15.4106 C   0  0  0  0  0  0
    6.0749   54.0705   15.7313 C   0  0  0  0  0  0
    5.8883   53.6627   17.0521 C   0  0  0  0  0  0
    6.3599   52.8680   14.5219 Cl  0  0  0  0  0  0
    6.2538   55.9851   13.7874 Cl  0  0  0  0  0  0
    3.3284   52.0963   21.3521 C   0  0  0  0  0  0
    2.5348   51.6781   20.3669 F   0  0  0  0  0  0
    4.4564   51.3892   21.2782 F   0  0  0  0  0  0
    2.7043   51.7710   22.4818 F   0  0  0  0  0  0
    1.5834   53.0322   30.3129 H   0  0  0  0  0  0
    3.9190   51.9064   29.5788 H   0  0  0  0  0  0
    1.5806   55.5065   29.0498 H   0  0  0  0  0  0
    6.1775   54.5678   28.1047 H   0  0  0  0  0  0
    6.0376   52.8400   27.9562 H   0  0  0  0  0  0
    4.7697   53.0885   25.8747 H   0  0  0  0  0  0
    7.4997   55.3474   23.1197 H   0  0  0  0  0  0
    3.3937   53.5197   19.0974 H   0  0  0  0  0  0
    3.5049   55.1116   19.6825 H   0  0  0  0  0  0
    7.1690   54.9007   20.2607 H   0  0  0  0  0  0
    5.4124   56.7008   18.4979 H   0  0  0  0  0  0
    5.7434   57.4280   16.1719 H   0  0  0  0  0  0
    5.9114   52.6050   17.2859 H   0  0  0  0  0  0
  1  5  2  0  0  0
  1  2  1  0  0  0
  1 33  1  0  0  0
  2  3  2  0  0  0
  2 34  1  0  0  0
  3  4  1  0  0  0
  3  6  1  0  0  0
  4  5  1  0  0  0
  5 35  1  0  0  0
  6  7  1  0  0  0
  6 36  1  0  0  0
  6 37  1  0  0  0
  7  8  1  0  0  0
  7 38  1  0  0  0
  8  9  2  0  0  0
  8 10  1  0  0  0
 10 14  2  0  0  0
 10 11  1  0  0  0
 11 12  2  0  0  0
 11 39  1  0  0  0
 12 20  1  0  0  0
 12 13  1  0  0  0
 13 14  1  0  0  0
 13 15  1  0  0  0
 15 16  1  0  0  0
 15 17  1  0  0  0
 15 29  1  0  0  0
 17 18  1  0  0  0
 17 40  1  0  0  0
 17 41  1  0  0  0
 18 19  1  0  0  0
 18 20  1  0  0  0
 18 21  1  0  0  0
 20 42  1  0  0  0
 21 26  2  0  0  0
 21 22  1  0  0  0
 22 23  2  0  0  0
 22 43  1  0  0  0
 23 24  1  0  0  0
 23 44  1  0  0  0
 24 25  2  0  0  0
 24 28  1  0  0  0
 25 26  1  0  0  0
 25 27  1  0  0  0
 26 45  1  0  0  0
 29 30  1  0  0  0
 29 31  1  0  0  0
 29 32  1  0  0  0
M  END
> <i_i_glide_confnum>
3

> <i_i_glide_lignum>
604

> <i_i_glide_posenum>
121

> <i_i_glide_rotatable_bonds>
6

> <i_m_Source_File_Index>
3072

> <b_m_subgroup_collapsed>
0

> <r_i_docking_score>
-5.83372

> <r_i_glide_ecoul>
-6.54578

> <r_i_glide_eff_state_penalty>
0

> <r_i_glide_einternal>
3.64592

> <r_i_glide_emodel>
-57.4728

> <r_i_glide_energy>
-44.2631

> <r_i_glide_erotb>
0.381569

> <r_i_glide_esite>
-0.0156189

> <r_i_glide_evdw>
-37.7173

> <r_i_glide_gscore>
-5.83372

> <r_i_glide_hbond>
-0.32

> <r_i_glide_ligand_efficiency>
-0.194457

> <r_i_glide_ligand_efficiency_ln>
-1.32548

> <r_i_glide_ligand_efficiency_sa>
-0.604224

> <r_i_glide_lipo>
-1.98991

> <r_i_glide_metal>
0

> <r_i_glide_rewards>
-1.02202

> <s_i_glide_gridfile>
wee1_glide-grid

> <s_m_Source_File>
wee1_decoys_glide_SP.sdf

> <s_m_Source_Path>
/Users/zhangxujun/Desktop

> <s_m_entry_id>
3347

> <s_m_entry_name>
wee1_decoys_glide_SP.3072

> <s_m_subgroup_title>
wee1_decoys_glide_SP

> <s_m_subgroupid>
wee1_decoys_glide_SP


$$$$
