ZINC16293283_5388
                    3D
 Schrodinger Suite 2024-2.
 69 72  0  0  1  0            999 V2000
   -5.5787   50.9337   30.3601 C   0  0  0  0  0  0
   -5.1258   51.0413   28.9154 C   0  0  0  0  0  0
   -5.9230   51.6989   27.9785 C   0  0  0  0  0  0
   -5.4964   51.8113   26.6572 C   0  0  0  0  0  0
   -4.2663   51.2734   26.2554 C   0  0  0  0  0  0
   -3.4870   50.5899   27.2019 C   0  0  0  0  0  0
   -3.9060   50.4917   28.5270 C   0  0  0  0  0  0
   -3.8691   51.3337   24.7921 C   0  0  0  0  0  0
   -4.7615   51.1878   23.9511 O   0  0  0  0  0  0
   -2.5648   51.5106   24.4333 N   0  0  0  0  0  0
   -2.1754   51.3783   23.0166 C   0  0  0  0  0  0
   -0.8672   50.5548   22.9486 C   0  0  0  0  0  0
    0.2150   51.0923   23.7824 N   0  0  0  0  0  0
   -0.2293   51.3120   25.1692 C   0  0  0  0  0  0
   -1.5438   52.1182   25.3046 C   0  0  0  0  0  0
    1.2415   51.8220   23.1970 C   0  0  0  0  0  0
    1.4570   53.1642   23.5293 C   0  0  0  0  0  0
    2.5155   53.8663   22.9613 C   0  0  0  0  0  0
    3.3861   53.2228   22.0774 C   0  0  0  0  0  0
    3.1345   51.9107   21.6795 C   0  0  0  0  0  0
    2.0610   51.2173   22.2350 C   0  0  0  0  0  0
    4.5346   53.8742   21.5931 N   0  0  0  0  0  0
    5.5170   54.4936   22.3160 C   0  0  0  0  0  0
    6.7022   55.3002   21.4604 S   0  0  0  0  0  0
    5.4190   54.3477   23.6791 N   0  0  0  0  0  0
    6.0509   54.9218   24.7322 C   0  0  0  0  0  0
    7.0099   55.6936   24.6778 O   0  0  0  0  0  0
    5.4809   54.5289   26.0727 C   0  0  0  0  0  0
    6.3102   54.4588   27.1956 C   0  0  0  0  0  0
    5.7878   54.0957   28.4332 C   0  0  0  0  0  0
    4.4314   53.7954   28.5698 C   0  0  0  0  0  0
    3.5754   53.8711   27.4610 C   0  0  0  0  0  0
    4.1150   54.2457   26.2330 C   0  0  0  0  0  0
    2.2155   53.6121   27.4443 O   0  0  0  0  0  0
    1.4845   53.1125   28.5668 C   0  0  0  0  0  0
    1.9323   51.7101   29.0197 C   0  0  0  0  0  0
    1.3200   54.1493   29.6956 C   0  0  0  0  0  0
   -4.7244   50.8889   31.0398 H   0  0  0  0  0  0
   -6.1685   51.8063   30.6507 H   0  0  0  0  0  0
   -6.1918   50.0412   30.5032 H   0  0  0  0  0  0
   -6.8743   52.1194   28.2688 H   0  0  0  0  0  0
   -6.1343   52.3152   25.9444 H   0  0  0  0  0  0
   -2.5621   50.1056   26.9232 H   0  0  0  0  0  0
   -3.2936   49.9539   29.2382 H   0  0  0  0  0  0
   -1.9967   52.3679   22.5933 H   0  0  0  0  0  0
   -2.9372   50.8876   22.4071 H   0  0  0  0  0  0
   -0.5526   50.4790   21.9071 H   0  0  0  0  0  0
   -1.0564   49.5395   23.3030 H   0  0  0  0  0  0
   -0.3733   50.3210   25.6033 H   0  0  0  0  0  0
    0.5609   51.7978   25.7446 H   0  0  0  0  0  0
   -1.8328   52.2118   26.3498 H   0  0  0  0  0  0
   -1.3576   53.1309   24.9503 H   0  0  0  0  0  0
    0.8188   53.6653   24.2410 H   0  0  0  0  0  0
    2.6782   54.8963   23.2385 H   0  0  0  0  0  0
    3.7841   51.4162   20.9700 H   0  0  0  0  0  0
    1.8914   50.1897   21.9467 H   0  0  0  0  0  0
    4.6429   53.8798   20.5884 H   0  0  0  0  0  0
    4.6903   53.7110   23.9617 H   0  0  0  0  0  0
    7.3658   54.6787   27.1239 H   0  0  0  0  0  0
    6.4512   54.0582   29.2814 H   0  0  0  0  0  0
    4.0768   53.5140   29.5460 H   0  0  0  0  0  0
    3.4364   54.3160   25.4004 H   0  0  0  0  0  0
    0.4782   52.9700   28.1684 H   0  0  0  0  0  0
    1.2871   51.3369   29.8147 H   0  0  0  0  0  0
    2.9561   51.6761   29.3836 H   0  0  0  0  0  0
    1.8602   51.0035   28.1909 H   0  0  0  0  0  0
    0.7627   53.7332   30.5361 H   0  0  0  0  0  0
    2.2646   54.5262   30.0789 H   0  0  0  0  0  0
    0.7620   55.0131   29.3329 H   0  0  0  0  0  0
  1  2  1  0  0  0
  1 38  1  0  0  0
  1 39  1  0  0  0
  1 40  1  0  0  0
  2  7  2  0  0  0
  2  3  1  0  0  0
  3  4  2  0  0  0
  3 41  1  0  0  0
  4  5  1  0  0  0
  4 42  1  0  0  0
  5  6  2  0  0  0
  5  8  1  0  0  0
  6  7  1  0  0  0
  6 43  1  0  0  0
  7 44  1  0  0  0
  8  9  2  0  0  0
  8 10  1  0  0  0
 10 15  1  0  0  0
 10 11  1  0  0  0
 11 12  1  0  0  0
 11 45  1  0  0  0
 11 46  1  0  0  0
 12 13  1  0  0  0
 12 47  1  0  0  0
 12 48  1  0  0  0
 13 14  1  0  0  0
 13 16  1  0  0  0
 14 15  1  0  0  0
 14 49  1  0  0  0
 14 50  1  0  0  0
 15 51  1  0  0  0
 15 52  1  0  0  0
 16 21  2  0  0  0
 16 17  1  0  0  0
 17 18  2  0  0  0
 17 53  1  0  0  0
 18 19  1  0  0  0
 18 54  1  0  0  0
 19 20  2  0  0  0
 19 22  1  0  0  0
 20 21  1  0  0  0
 20 55  1  0  0  0
 21 56  1  0  0  0
 22 23  1  0  0  0
 22 57  1  0  0  0
 23 24  2  0  0  0
 23 25  1  0  0  0
 25 26  1  0  0  0
 25 58  1  0  0  0
 26 27  2  0  0  0
 26 28  1  0  0  0
 28 33  2  0  0  0
 28 29  1  0  0  0
 29 30  2  0  0  0
 29 59  1  0  0  0
 30 31  1  0  0  0
 30 60  1  0  0  0
 31 32  2  0  0  0
 31 61  1  0  0  0
 32 33  1  0  0  0
 32 34  1  0  0  0
 33 62  1  0  0  0
 34 35  1  0  0  0
 35 36  1  0  0  0
 35 37  1  0  0  0
 35 63  1  0  0  0
 36 64  1  0  0  0
 36 65  1  0  0  0
 36 66  1  0  0  0
 37 67  1  0  0  0
 37 68  1  0  0  0
 37 69  1  0  0  0
M  END
> <i_i_glide_confnum>
169

> <i_i_glide_lignum>
5389

> <i_i_glide_posenum>
198

> <i_i_glide_rotatable_bonds>
10

> <i_m_Source_File_Index>
5606

> <b_m_subgroup_collapsed>
0

> <r_i_docking_score>
-5.45478

> <r_i_glide_ecoul>
-0.362266

> <r_i_glide_eff_state_penalty>
0

> <r_i_glide_einternal>
13.1833

> <r_i_glide_emodel>
-62.1157

> <r_i_glide_energy>
-51.9344

> <r_i_glide_erotb>
0.692094

> <r_i_glide_esite>
-0.00457246

> <r_i_glide_evdw>
-51.5721

> <r_i_glide_gscore>
-5.45478

> <r_i_glide_hbond>
-0.192662

> <r_i_glide_ligand_efficiency>
-0.147427

> <r_i_glide_ligand_efficiency_ln>
-1.18301

> <r_i_glide_ligand_efficiency_sa>
-0.491258

> <r_i_glide_lipo>
-2.84195

> <r_i_glide_metal>
0

> <r_i_glide_rewards>
-0.474752

> <s_i_glide_gridfile>
wee1_glide-grid

> <s_m_Source_File>
wee1_decoys_glide_SP.sdf

> <s_m_Source_Path>
/Users/zhangxujun/Desktop

> <s_m_entry_id>
5881

> <s_m_entry_name>
wee1_decoys_glide_SP.5606

> <s_m_subgroup_title>
wee1_decoys_glide_SP

> <s_m_subgroupid>
wee1_decoys_glide_SP


$$$$
