ZINC38700911_3994
                    3D
 Schrodinger Suite 2024-2.
 56 60  0  0  1  0            999 V2000
    7.8210   58.2306   18.3927 C   0  0  0  0  0  0
    8.0762   56.7350   18.3976 C   0  0  0  0  0  0
    8.9975   56.0455   17.5393 C   0  0  0  0  0  0
    9.8919   56.4144   16.5198 C   0  0  0  0  0  0
   10.6600   55.4236   15.9042 C   0  0  0  0  0  0
   10.5490   54.0829   16.2783 C   0  0  0  0  0  0
    9.6646   53.6783   17.2796 C   0  0  0  0  0  0
    8.9039   54.6810   17.8895 C   0  0  0  0  0  0
    7.9980   54.4967   18.8856 O   0  0  0  0  0  0
    7.5249   55.7358   19.2155 C   0  0  0  0  0  0
    6.6077   55.8264   20.3554 C   0  0  0  0  0  0
    6.3048   56.8977   20.8815 O   0  0  0  0  0  0
    6.1624   54.6008   20.7587 O   0  0  0  0  0  0
    5.5252   54.4872   21.9739 C   0  0  0  0  0  0
    4.1338   54.4968   22.0396 C   0  0  0  0  0  0
    3.4940   54.4752   23.2770 C   0  0  0  0  0  0
    4.2056   54.3147   24.4783 C   0  0  0  0  0  0
    5.6121   54.2515   24.3803 C   0  0  0  0  0  0
    6.2651   54.3473   23.1514 C   0  0  0  0  0  0
    6.4322   54.0967   25.4772 O   0  0  0  0  0  0
    5.8752   54.0006   26.7052 C   0  0  0  0  0  0
    4.5547   54.0237   26.9743 C   0  0  0  0  0  0
    3.5047   54.2121   25.8605 C   0  0  2  0  0  0
    3.1045   55.2053   26.0492 H   0  0  0  0  0  0
    2.2507   53.2957   25.9333 C   0  0  0  0  0  0
    1.8756   52.4641   24.8678 C   0  0  0  0  0  0
    0.7239   51.6867   24.9204 C   0  0  0  0  0  0
   -0.0890   51.7095   26.0529 C   0  0  0  0  0  0
    0.2911   52.4974   27.1456 C   0  0  0  0  0  0
    1.4329   53.2972   27.0725 C   0  0  0  0  0  0
   -1.3171   50.8491   26.0786 C   0  0  0  0  0  0
   -1.4117   49.7954   25.4497 O   0  0  0  0  0  0
   -2.3735   51.3569   26.7573 O   0  0  0  0  0  0
   -2.8490   52.6680   26.4807 C   0  0  0  0  0  0
    4.1462   53.9558   28.3437 C   0  0  0  0  0  0
    3.8588   53.9261   29.4659 N   0  0  0  0  0  0
    6.8902   53.8519   27.6095 N   0  0  0  0  0  0
   11.5281   55.7716   14.9295 F   0  0  0  0  0  0
    7.5909   58.5930   17.3903 H   0  0  0  0  0  0
    6.9816   58.5306   19.0200 H   0  0  0  0  0  0
    8.6931   58.7858   18.7372 H   0  0  0  0  0  0
    9.9939   57.4453   16.2179 H   0  0  0  0  0  0
   11.1630   53.3478   15.7794 H   0  0  0  0  0  0
    9.5777   52.6434   17.5804 H   0  0  0  0  0  0
    3.5495   54.5918   21.1349 H   0  0  0  0  0  0
    2.4171   54.5604   23.2944 H   0  0  0  0  0  0
    7.3449   54.3196   23.1130 H   0  0  0  0  0  0
    2.4834   52.3533   23.9861 H   0  0  0  0  0  0
    0.4820   51.0562   24.0753 H   0  0  0  0  0  0
   -0.3031   52.5129   28.0489 H   0  0  0  0  0  0
    1.6596   53.9338   27.9128 H   0  0  0  0  0  0
   -3.8277   52.8066   26.9388 H   0  0  0  0  0  0
   -2.9617   52.8300   25.4075 H   0  0  0  0  0  0
   -2.1784   53.4304   26.8756 H   0  0  0  0  0  0
    6.7172   53.9540   28.6000 H   0  0  0  0  0  0
    7.7587   53.4207   27.3313 H   0  0  0  0  0  0
  1  2  1  0  0  0
  1 39  1  0  0  0
  1 40  1  0  0  0
  1 41  1  0  0  0
  2 10  2  0  0  0
  2  3  1  0  0  0
  3  8  2  0  0  0
  3  4  1  0  0  0
  4  5  2  0  0  0
  4 42  1  0  0  0
  5  6  1  0  0  0
  5 38  1  0  0  0
  6  7  2  0  0  0
  6 43  1  0  0  0
  7  8  1  0  0  0
  7 44  1  0  0  0
  8  9  1  0  0  0
  9 10  1  0  0  0
 10 11  1  0  0  0
 11 12  2  0  0  0
 11 13  1  0  0  0
 13 14  1  0  0  0
 14 19  2  0  0  0
 14 15  1  0  0  0
 15 16  2  0  0  0
 15 45  1  0  0  0
 16 17  1  0  0  0
 16 46  1  0  0  0
 17 23  1  0  0  0
 17 18  2  0  0  0
 18 19  1  0  0  0
 18 20  1  0  0  0
 19 47  1  0  0  0
 20 21  1  0  0  0
 21 22  2  0  0  0
 21 37  1  0  0  0
 22 23  1  0  0  0
 22 35  1  0  0  0
 23 24  1  0  0  0
 23 25  1  0  0  0
 25 30  2  0  0  0
 25 26  1  0  0  0
 26 27  2  0  0  0
 26 48  1  0  0  0
 27 28  1  0  0  0
 27 49  1  0  0  0
 28 29  2  0  0  0
 28 31  1  0  0  0
 29 30  1  0  0  0
 29 50  1  0  0  0
 30 51  1  0  0  0
 31 32  2  0  0  0
 31 33  1  0  0  0
 33 34  1  0  0  0
 34 52  1  0  0  0
 34 53  1  0  0  0
 34 54  1  0  0  0
 35 36  3  0  0  0
 37 55  1  0  0  0
 37 56  1  0  0  0
M  END
> <i_i_glide_confnum>
12

> <i_i_glide_lignum>
3995

> <i_i_glide_posenum>
32

> <i_i_glide_rotatable_bonds>
7

> <i_m_Source_File_Index>
414

> <b_m_subgroup_collapsed>
0

> <r_i_docking_score>
1.88263

> <r_i_glide_ecoul>
-4.80036

> <r_i_glide_eff_state_penalty>
0

> <r_i_glide_einternal>
15.377

> <r_i_glide_emodel>
-13.0439

> <r_i_glide_energy>
-48.7262

> <r_i_glide_erotb>
0.410651

> <r_i_glide_esite>
-0.0499085

> <r_i_glide_evdw>
-43.9258

> <r_i_glide_gscore>
1.88263

> <r_i_glide_hbond>
-0.240976

> <r_i_glide_ligand_efficiency>
0.0508819

> <r_i_glide_ligand_efficiency_ln>
0.408298

> <r_i_glide_ligand_efficiency_sa>
0.16955

> <r_i_glide_lipo>
-2.85193

> <r_i_glide_metal>
0

> <r_i_glide_rewards>
7.53114

> <s_i_glide_gridfile>
wee1_glide-grid

> <s_m_Source_File>
wee1_decoys_glide_SP.sdf

> <s_m_Source_Path>
/Users/zhangxujun/Desktop

> <s_m_entry_id>
689

> <s_m_entry_name>
wee1_decoys_glide_SP.414

> <s_m_subgroup_title>
wee1_decoys_glide_SP

> <s_m_subgroupid>
wee1_decoys_glide_SP


$$$$
