ZINC33821876_694
                    3D
 Schrodinger Suite 2024-2.
 64 68  0  0  1  0            999 V2000
    2.3070   51.5345   15.9557 C   0  0  0  0  0  0
    1.4282   51.4827   17.1927 C   0  0  0  0  0  0
    1.9167   50.9074   18.3634 C   0  0  0  0  0  0
    1.1314   50.8793   19.5111 C   0  0  0  0  0  0
   -0.1624   51.4286   19.5052 C   0  0  0  0  0  0
   -0.6399   52.0070   18.3180 C   0  0  0  0  0  0
    0.1487   52.0353   17.1715 C   0  0  0  0  0  0
   -1.0422   51.4618   20.7255 C   0  0  0  0  0  0
   -2.0985   52.0966   20.7499 O   0  0  0  0  0  0
   -0.6682   50.6117   21.9698 C   0  0  2  0  0  0
    0.2469   50.0508   21.8067 H   0  0  0  0  0  0
   -1.8088   49.6059   22.3516 C   0  0  2  0  0  0
   -2.7725   50.0187   22.0405 H   0  0  0  0  0  0
   -1.8004   49.6609   23.9095 C   0  0  1  0  0  0
   -1.4132   51.1386   24.1562 C   0  0  2  0  0  0
   -2.2871   51.7458   23.9058 H   0  0  0  0  0  0
   -0.4012   51.4835   23.1335 N   0  0  0  0  0  0
    0.6627   52.3717   23.4446 C   0  0  0  0  0  0
    1.5137   52.8844   22.4573 C   0  0  0  0  0  0
    2.5719   53.7309   22.7856 C   0  0  0  0  0  0
    2.8042   54.0736   24.1131 C   0  0  0  0  0  0
    1.9827   53.5609   25.1152 C   0  0  0  0  0  0
    0.9189   52.7122   24.7911 C   0  0  0  0  0  0
    0.0503   52.2194   25.8638 C   0  0  0  0  0  0
   -1.0540   51.5135   25.5945 C   0  0  0  0  0  0
   -3.1283   49.3766   24.4907 C   0  0  0  0  0  0
   -4.1700   49.1550   24.9438 N   0  0  0  0  0  0
   -0.7268   48.6965   24.5105 C   0  0  0  0  0  0
    0.3210   48.4963   23.9115 O   0  0  0  0  0  0
   -0.9336   48.0986   25.6816 N   0  0  0  0  0  0
   -1.7953   48.2098   21.6805 C   0  0  0  0  0  0
   -0.9345   47.9043   20.6213 C   0  0  0  0  0  0
   -0.8944   46.6207   20.0822 C   0  0  0  0  0  0
   -1.7143   45.5998   20.5897 C   0  0  0  0  0  0
   -2.6163   45.9003   21.6220 C   0  0  0  0  0  0
   -2.6510   47.2044   22.1447 C   0  0  0  0  0  0
   -3.4265   44.8753   22.0821 O   0  0  0  0  0  0
   -4.4873   45.1756   22.9859 C   0  0  0  0  0  0
   -1.6883   44.2942   20.1232 O   0  0  0  0  0  0
   -0.8011   43.9523   19.0626 C   0  0  0  0  0  0
    2.0264   52.3606   15.2999 H   0  0  0  0  0  0
    3.3513   51.6950   16.2359 H   0  0  0  0  0  0
    2.2444   50.5956   15.4029 H   0  0  0  0  0  0
    2.9167   50.4929   18.3831 H   0  0  0  0  0  0
    1.5783   50.4447   20.3918 H   0  0  0  0  0  0
   -1.6264   52.4468   18.2704 H   0  0  0  0  0  0
   -0.2341   52.4895   16.2688 H   0  0  0  0  0  0
    1.3608   52.6615   21.4171 H   0  0  0  0  0  0
    3.2010   54.1292   22.0024 H   0  0  0  0  0  0
    3.6193   54.7330   24.3690 H   0  0  0  0  0  0
    2.1731   53.8342   26.1428 H   0  0  0  0  0  0
    0.2824   52.4480   26.8941 H   0  0  0  0  0  0
   -1.6826   51.1840   26.4099 H   0  0  0  0  0  0
   -0.2166   47.4819   26.0539 H   0  0  0  0  0  0
   -1.6768   48.3710   26.3186 H   0  0  0  0  0  0
   -0.2676   48.6424   20.2092 H   0  0  0  0  0  0
   -0.1976   46.4367   19.2795 H   0  0  0  0  0  0
   -3.3380   47.4385   22.9389 H   0  0  0  0  0  0
   -5.0592   44.2686   23.1832 H   0  0  0  0  0  0
   -4.1103   45.5387   23.9441 H   0  0  0  0  0  0
   -5.1750   45.9148   22.5687 H   0  0  0  0  0  0
   -0.9217   42.8964   18.8206 H   0  0  0  0  0  0
    0.2412   44.1102   19.3449 H   0  0  0  0  0  0
   -1.0194   44.5226   18.1590 H   0  0  0  0  0  0
  1  2  1  0  0  0
  1 41  1  0  0  0
  1 42  1  0  0  0
  1 43  1  0  0  0
  2  7  2  0  0  0
  2  3  1  0  0  0
  3  4  2  0  0  0
  3 44  1  0  0  0
  4  5  1  0  0  0
  4 45  1  0  0  0
  5  6  2  0  0  0
  5  8  1  0  0  0
  6  7  1  0  0  0
  6 46  1  0  0  0
  7 47  1  0  0  0
  8  9  2  0  0  0
  8 10  1  0  0  0
 10 11  1  0  0  0
 10 17  1  0  0  0
 10 12  1  0  0  0
 12 13  1  0  0  0
 12 14  1  0  0  0
 12 31  1  0  0  0
 14 15  1  0  0  0
 14 26  1  0  0  0
 14 28  1  0  0  0
 15 16  1  0  0  0
 15 25  1  0  0  0
 15 17  1  0  0  0
 17 18  1  0  0  0
 18 23  2  0  0  0
 18 19  1  0  0  0
 19 20  2  0  0  0
 19 48  1  0  0  0
 20 21  1  0  0  0
 20 49  1  0  0  0
 21 22  2  0  0  0
 21 50  1  0  0  0
 22 23  1  0  0  0
 22 51  1  0  0  0
 23 24  1  0  0  0
 24 25  2  0  0  0
 24 52  1  0  0  0
 25 53  1  0  0  0
 26 27  3  0  0  0
 28 29  2  0  0  0
 28 30  1  0  0  0
 30 54  1  0  0  0
 30 55  1  0  0  0
 31 36  2  0  0  0
 31 32  1  0  0  0
 32 33  2  0  0  0
 32 56  1  0  0  0
 33 34  1  0  0  0
 33 57  1  0  0  0
 34 35  2  0  0  0
 34 39  1  0  0  0
 35 36  1  0  0  0
 35 37  1  0  0  0
 36 58  1  0  0  0
 37 38  1  0  0  0
 38 59  1  0  0  0
 38 60  1  0  0  0
 38 61  1  0  0  0
 39 40  1  0  0  0
 40 62  1  0  0  0
 40 63  1  0  0  0
 40 64  1  0  0  0
M  END
> <i_i_glide_confnum>
1

> <i_i_glide_lignum>
695

> <i_i_glide_posenum>
130

> <i_i_glide_rotatable_bonds>
7

> <i_m_Source_File_Index>
3794

> <b_m_subgroup_collapsed>
0

> <r_i_docking_score>
-4.41944

> <r_i_glide_ecoul>
-8.92417

> <r_i_glide_eff_state_penalty>
0

> <r_i_glide_einternal>
2.11402

> <r_i_glide_emodel>
-48.2438

> <r_i_glide_energy>
-38.5231

> <r_i_glide_erotb>
0.250896

> <r_i_glide_esite>
-0.165251

> <r_i_glide_evdw>
-29.599

> <r_i_glide_gscore>
-4.41944

> <r_i_glide_hbond>
-0.613941

> <r_i_glide_ligand_efficiency>
-0.119444

> <r_i_glide_ligand_efficiency_ln>
-0.958473

> <r_i_glide_ligand_efficiency_sa>
-0.398015

> <r_i_glide_lipo>
-0.997435

> <r_i_glide_metal>
0

> <r_i_glide_rewards>
-0.0751355

> <s_i_glide_gridfile>
wee1_glide-grid

> <s_m_Source_File>
wee1_decoys_glide_SP.sdf

> <s_m_Source_Path>
/Users/zhangxujun/Desktop

> <s_m_entry_id>
4069

> <s_m_entry_name>
wee1_decoys_glide_SP.3794

> <s_m_subgroup_title>
wee1_decoys_glide_SP

> <s_m_subgroupid>
wee1_decoys_glide_SP


$$$$
