ZINC20600501_5742
                    3D
 Schrodinger Suite 2024-2.
 72 75  0  0  1  0            999 V2000
    7.9649   49.7234   13.0091 C   0  0  0  0  0  0
    9.0515   50.6311   13.5927 C   0  0  0  0  0  0
    8.5465   51.2819   14.7527 O   0  0  0  0  0  0
    9.2664   52.2480   15.3789 C   0  0  0  0  0  0
   10.3875   52.5962   14.9999 O   0  0  0  0  0  0
    8.5655   52.8217   16.4561 N   0  0  0  0  0  0
    7.2832   52.2591   16.9285 C   0  0  0  0  0  0
    6.3998   53.3764   17.5345 C   0  0  0  0  0  0
    7.1258   54.2705   18.4417 N   0  0  0  0  0  0
    8.3189   54.8543   17.8265 C   0  0  0  0  0  0
    9.2940   53.7743   17.3119 C   0  0  0  0  0  0
    6.2459   55.2958   19.0179 C   0  0  0  0  0  0
    5.9666   54.9923   20.4810 C   0  0  0  0  0  0
    6.9315   55.2969   21.4442 C   0  0  0  0  0  0
    6.7045   54.9673   22.7768 C   0  0  0  0  0  0
    5.5009   54.3807   23.1636 C   0  0  0  0  0  0
    4.5267   54.0918   22.1997 C   0  0  0  0  0  0
    4.7649   54.3897   20.8590 C   0  0  0  0  0  0
    5.3510   54.0962   24.5010 O   0  0  0  0  0  0
    4.0688   54.2816   25.0972 C   0  0  0  0  0  0
    4.1587   53.9785   26.6059 C   0  0  1  0  0  0
    4.2133   52.8943   26.6875 H   0  0  0  0  0  0
    5.4255   54.5441   27.2956 C   0  0  0  0  0  0
    5.4601   54.0739   28.7603 C   0  0  0  0  0  0
    4.1766   54.4669   29.5148 C   0  0  0  0  0  0
    3.0352   53.9072   28.7667 N   0  0  0  0  0  0
    2.9043   54.4507   27.3965 C   0  0  0  0  0  0
    2.3323   52.8559   29.2867 C   0  0  0  0  0  0
    2.6196   52.3551   30.3788 O   0  0  0  0  0  0
    1.1014   52.3343   28.5750 C   0  0  0  0  0  0
    1.1049   52.0067   27.2129 C   0  0  0  0  0  0
   -0.0579   51.5730   26.5848 C   0  0  0  0  0  0
   -1.2413   51.4388   27.3138 C   0  0  0  0  0  0
   -1.2327   51.6959   28.6880 C   0  0  0  0  0  0
   -0.0707   52.1358   29.3142 C   0  0  0  0  0  0
   -2.5204   50.9926   26.6061 C   0  0  0  0  0  0
   -3.4628   50.5839   27.4584 F   0  0  0  0  0  0
   -3.0048   52.0282   25.9188 F   0  0  0  0  0  0
   -2.2698   50.0006   25.7484 F   0  0  0  0  0  0
    8.2890   49.2976   12.0619 H   0  0  0  0  0  0
    7.7315   48.8974   13.6813 H   0  0  0  0  0  0
    7.0445   50.2773   12.8249 H   0  0  0  0  0  0
    9.3467   51.3722   12.8478 H   0  0  0  0  0  0
    9.9396   50.0491   13.8403 H   0  0  0  0  0  0
    7.5042   51.5044   17.6838 H   0  0  0  0  0  0
    6.7107   51.7634   16.1433 H   0  0  0  0  0  0
    5.5521   52.9197   18.0473 H   0  0  0  0  0  0
    6.0445   53.9904   16.7048 H   0  0  0  0  0  0
    7.9934   55.4589   16.9780 H   0  0  0  0  0  0
    8.8397   55.4899   18.5438 H   0  0  0  0  0  0
   10.1081   54.2691   16.7792 H   0  0  0  0  0  0
    9.7340   53.2361   18.1494 H   0  0  0  0  0  0
    5.3030   55.3759   18.4723 H   0  0  0  0  0  0
    6.6940   56.2901   18.9661 H   0  0  0  0  0  0
    7.8716   55.7449   21.1553 H   0  0  0  0  0  0
    7.4636   55.1765   23.5171 H   0  0  0  0  0  0
    3.5952   53.6186   22.4694 H   0  0  0  0  0  0
    4.0169   54.1467   20.1174 H   0  0  0  0  0  0
    3.3311   53.6145   24.6494 H   0  0  0  0  0  0
    3.7238   55.2992   24.9332 H   0  0  0  0  0  0
    5.4597   55.6379   27.2180 H   0  0  0  0  0  0
    6.3267   54.2001   26.7862 H   0  0  0  0  0  0
    6.3069   54.5049   29.2808 H   0  0  0  0  0  0
    5.6034   52.9919   28.8085 H   0  0  0  0  0  0
    4.0585   55.5510   29.5050 H   0  0  0  0  0  0
    4.1914   54.1933   30.5691 H   0  0  0  0  0  0
    1.9411   54.2623   26.9282 H   0  0  0  0  0  0
    2.8975   55.5386   27.4649 H   0  0  0  0  0  0
    2.0034   52.0965   26.6222 H   0  0  0  0  0  0
   -0.0394   51.3457   25.5280 H   0  0  0  0  0  0
   -2.1222   51.5438   29.2812 H   0  0  0  0  0  0
   -0.0944   52.3312   30.3786 H   0  0  0  0  0  0
  1  2  1  0  0  0
  1 40  1  0  0  0
  1 41  1  0  0  0
  1 42  1  0  0  0
  2  3  1  0  0  0
  2 43  1  0  0  0
  2 44  1  0  0  0
  3  4  1  0  0  0
  4  5  2  0  0  0
  4  6  1  0  0  0
  6 11  1  0  0  0
  6  7  1  0  0  0
  7  8  1  0  0  0
  7 45  1  0  0  0
  7 46  1  0  0  0
  8  9  1  0  0  0
  8 47  1  0  0  0
  8 48  1  0  0  0
  9 10  1  0  0  0
  9 12  1  0  0  0
 10 11  1  0  0  0
 10 49  1  0  0  0
 10 50  1  0  0  0
 11 51  1  0  0  0
 11 52  1  0  0  0
 12 13  1  0  0  0
 12 53  1  0  0  0
 12 54  1  0  0  0
 13 18  2  0  0  0
 13 14  1  0  0  0
 14 15  2  0  0  0
 14 55  1  0  0  0
 15 16  1  0  0  0
 15 56  1  0  0  0
 16 17  2  0  0  0
 16 19  1  0  0  0
 17 18  1  0  0  0
 17 57  1  0  0  0
 18 58  1  0  0  0
 19 20  1  0  0  0
 20 21  1  0  0  0
 20 59  1  0  0  0
 20 60  1  0  0  0
 21 22  1  0  0  0
 21 27  1  0  0  0
 21 23  1  0  0  0
 23 24  1  0  0  0
 23 61  1  0  0  0
 23 62  1  0  0  0
 24 25  1  0  0  0
 24 63  1  0  0  0
 24 64  1  0  0  0
 25 26  1  0  0  0
 25 65  1  0  0  0
 25 66  1  0  0  0
 26 27  1  0  0  0
 26 28  1  0  0  0
 27 67  1  0  0  0
 27 68  1  0  0  0
 28 29  2  0  0  0
 28 30  1  0  0  0
 30 35  2  0  0  0
 30 31  1  0  0  0
 31 32  2  0  0  0
 31 69  1  0  0  0
 32 33  1  0  0  0
 32 70  1  0  0  0
 33 34  2  0  0  0
 33 36  1  0  0  0
 34 35  1  0  0  0
 34 71  1  0  0  0
 35 72  1  0  0  0
 36 37  1  0  0  0
 36 38  1  0  0  0
 36 39  1  0  0  0
M  END
> <i_i_glide_confnum>
145

> <i_i_glide_lignum>
5743

> <i_i_glide_posenum>
367

> <i_i_glide_rotatable_bonds>
11

> <i_m_Source_File_Index>
3234

> <b_m_subgroup_collapsed>
0

> <r_i_docking_score>
-5.64535

> <r_i_glide_ecoul>
-4.21965

> <r_i_glide_eff_state_penalty>
0

> <r_i_glide_einternal>
10.7605

> <r_i_glide_emodel>
-62.1044

> <r_i_glide_energy>
-50.4702

> <r_i_glide_erotb>
0.652235

> <r_i_glide_esite>
-0.155053

> <r_i_glide_evdw>
-46.2506

> <r_i_glide_gscore>
-5.64535

> <r_i_glide_hbond>
-0.154214

> <r_i_glide_ligand_efficiency>
-0.148562

> <r_i_glide_ligand_efficiency_ln>
-1.2173

> <r_i_glide_ligand_efficiency_sa>
-0.499461

> <r_i_glide_lipo>
-2.72047

> <r_i_glide_metal>
0

> <r_i_glide_rewards>
-0.322375

> <s_i_glide_gridfile>
wee1_glide-grid

> <s_m_Source_File>
wee1_decoys_glide_SP.sdf

> <s_m_Source_Path>
/Users/zhangxujun/Desktop

> <s_m_entry_id>
3509

> <s_m_entry_name>
wee1_decoys_glide_SP.3234

> <s_m_subgroup_title>
wee1_decoys_glide_SP

> <s_m_subgroupid>
wee1_decoys_glide_SP


$$$$
