ZINC03277147_5478
                    3D
 Schrodinger Suite 2024-2.
 56 59  0  0  1  0            999 V2000
    6.6874   55.4041   20.9505 C   0  0  0  0  0  0
    7.1193   55.1708   22.4002 C   0  0  0  0  0  0
    6.0042   54.7350   23.1522 O   0  0  0  0  0  0
    6.0347   54.7052   24.5045 C   0  0  0  0  0  0
    7.0187   55.0211   25.1782 O   0  0  0  0  0  0
    4.7281   54.2971   25.0750 C   0  0  0  0  0  0
    4.4398   54.3182   26.4726 C   0  0  0  0  0  0
    3.1094   53.9889   26.7686 C   0  0  0  0  0  0
    2.2238   53.5245   25.3747 S   0  0  0  0  0  0
    3.6049   53.8109   24.3519 C   0  0  0  0  0  0
    3.5780   53.5254   22.9831 N   0  0  0  0  0  0
    2.5994   52.9673   22.2383 C   0  0  0  0  0  0
    1.4577   52.7278   22.6349 O   0  0  0  0  0  0
    3.0011   52.6434   20.7917 C   0  0  0  0  0  0
    1.8382   51.5374   19.9156 S   0  0  0  0  0  0
    1.6963   52.3296   18.3282 C   0  0  0  0  0  0
    0.5293   52.7425   17.8008 C   0  0  0  0  0  0
    0.5188   53.4635   16.4529 C   0  0  2  0  0  0
    0.1446   52.7350   15.7302 H   0  0  0  0  0  0
    1.9658   53.8688   15.9839 C   0  0  0  0  0  0
    3.1487   53.0379   16.5459 C   0  0  0  0  0  0
    4.2550   53.0046   16.0139 O   0  0  0  0  0  0
    2.9031   52.4184   17.7167 N   0  0  0  0  0  0
   -0.4468   54.6462   16.4803 C   0  0  0  0  0  0
   -0.2365   55.9678   16.8886 C   0  0  0  0  0  0
   -1.3561   56.7977   16.7932 C   0  0  0  0  0  0
   -2.4621   56.1312   16.2997 C   0  0  0  0  0  0
   -2.1092   54.4689   15.9742 S   0  0  0  0  0  0
   -0.7094   52.4963   18.4769 C   0  0  0  0  0  0
   -1.7350   52.3173   18.9880 N   0  0  0  0  0  0
    2.4954   53.9481   28.1577 C   0  0  0  0  0  0
    3.3557   54.8016   29.1039 C   0  0  0  0  0  0
    4.8412   54.4212   28.9945 C   0  0  0  0  0  0
    5.4376   54.6615   27.5901 C   0  0  0  0  0  0
    7.5322   55.7245   20.3407 H   0  0  0  0  0  0
    6.2837   54.4967   20.5053 H   0  0  0  0  0  0
    5.9184   56.1761   20.8894 H   0  0  0  0  0  0
    7.5285   56.0930   22.8166 H   0  0  0  0  0  0
    7.8970   54.4114   22.4535 H   0  0  0  0  0  0
    4.4450   53.7334   22.5079 H   0  0  0  0  0  0
    3.9861   52.1757   20.7670 H   0  0  0  0  0  0
    3.0929   53.5872   20.2518 H   0  0  0  0  0  0
    2.0235   53.8596   14.8948 H   0  0  0  0  0  0
    2.1901   54.8851   16.3048 H   0  0  0  0  0  0
    3.6943   51.8972   18.0783 H   0  0  0  0  0  0
    0.7109   56.3250   17.2652 H   0  0  0  0  0  0
   -1.3486   57.8435   17.0669 H   0  0  0  0  0  0
   -3.4493   56.5254   16.1046 H   0  0  0  0  0  0
    1.4677   54.3120   28.1480 H   0  0  0  0  0  0
    2.4607   52.9191   28.5161 H   0  0  0  0  0  0
    3.2170   55.8599   28.8826 H   0  0  0  0  0  0
    3.0062   54.6646   30.1260 H   0  0  0  0  0  0
    5.4310   54.9798   29.7196 H   0  0  0  0  0  0
    4.9578   53.3698   29.2612 H   0  0  0  0  0  0
    6.3434   54.0598   27.4962 H   0  0  0  0  0  0
    5.7662   55.6954   27.5023 H   0  0  0  0  0  0
  1  2  1  0  0  0
  1 35  1  0  0  0
  1 36  1  0  0  0
  1 37  1  0  0  0
  2  3  1  0  0  0
  2 38  1  0  0  0
  2 39  1  0  0  0
  3  4  1  0  0  0
  4  5  2  0  0  0
  4  6  1  0  0  0
  6 10  2  0  0  0
  6  7  1  0  0  0
  7 34  1  0  0  0
  7  8  2  0  0  0
  8  9  1  0  0  0
  8 31  1  0  0  0
  9 10  1  0  0  0
 10 11  1  0  0  0
 11 12  1  0  0  0
 11 40  1  0  0  0
 12 13  2  0  0  0
 12 14  1  0  0  0
 14 15  1  0  0  0
 14 41  1  0  0  0
 14 42  1  0  0  0
 15 16  1  0  0  0
 16 23  1  0  0  0
 16 17  2  0  0  0
 17 18  1  0  0  0
 17 29  1  0  0  0
 18 19  1  0  0  0
 18 20  1  0  0  0
 18 24  1  0  0  0
 20 21  1  0  0  0
 20 43  1  0  0  0
 20 44  1  0  0  0
 21 22  2  0  0  0
 21 23  1  0  0  0
 23 45  1  0  0  0
 24 28  1  0  0  0
 24 25  2  0  0  0
 25 26  1  0  0  0
 25 46  1  0  0  0
 26 27  2  0  0  0
 26 47  1  0  0  0
 27 28  1  0  0  0
 27 48  1  0  0  0
 29 30  3  0  0  0
 31 32  1  0  0  0
 31 49  1  0  0  0
 31 50  1  0  0  0
 32 33  1  0  0  0
 32 51  1  0  0  0
 32 52  1  0  0  0
 33 34  1  0  0  0
 33 53  1  0  0  0
 33 54  1  0  0  0
 34 55  1  0  0  0
 34 56  1  0  0  0
M  END
> <i_i_glide_confnum>
18

> <i_i_glide_lignum>
5479

> <i_i_glide_posenum>
365

> <i_i_glide_rotatable_bonds>
10

> <i_m_Source_File_Index>
4349

> <b_m_subgroup_collapsed>
0

> <r_i_docking_score>
-6.75647

> <r_i_glide_ecoul>
-6.40636

> <r_i_glide_eff_state_penalty>
0

> <r_i_glide_einternal>
7.7306

> <r_i_glide_emodel>
-71.0707

> <r_i_glide_energy>
-51.1117

> <r_i_glide_erotb>
0.649412

> <r_i_glide_esite>
-0.107577

> <r_i_glide_evdw>
-44.7053

> <r_i_glide_gscore>
-6.75647

> <r_i_glide_hbond>
-0.433821

> <r_i_glide_ligand_efficiency>
-0.204742

> <r_i_glide_ligand_efficiency_ln>
-1.5026

> <r_i_glide_ligand_efficiency_sa>
-0.656715

> <r_i_glide_lipo>
-2.53536

> <r_i_glide_metal>
0

> <r_i_glide_rewards>
-1.1329

> <s_i_glide_gridfile>
wee1_glide-grid

> <s_m_Source_File>
wee1_decoys_glide_SP.sdf

> <s_m_Source_Path>
/Users/zhangxujun/Desktop

> <s_m_entry_id>
4624

> <s_m_entry_name>
wee1_decoys_glide_SP.4349

> <s_m_subgroup_title>
wee1_decoys_glide_SP

> <s_m_subgroupid>
wee1_decoys_glide_SP


$$$$
