ZINC07763029_3866
                    3D
 Schrodinger Suite 2024-2.
 34 36  0  0  1  0            999 V2000
    6.1681   54.8968   27.2818 C   0  0  0  0  0  0
    4.7834   54.2979   27.2314 C   0  0  0  0  0  0
    3.9917   53.9942   28.3159 C   0  0  0  0  0  0
    2.7895   53.4510   27.8868 C   0  0  0  0  0  0
    2.8662   53.4024   26.4884 C   0  0  0  0  0  0
    4.0766   53.9801   26.0723 N   0  0  0  0  0  0
    4.5200   54.1736   24.7192 C   0  0  0  0  0  0
    3.5947   54.4255   23.6946 C   0  0  0  0  0  0
    4.0034   54.4967   22.3682 C   0  0  0  0  0  0
    5.3541   54.4183   22.0516 C   0  0  0  0  0  0
    6.2976   54.2330   23.0559 C   0  0  0  0  0  0
    5.8806   54.0965   24.3744 C   0  0  0  0  0  0
    5.9041   54.5851   20.2384 Br  0  0  0  0  0  0
    1.8640   52.7855   25.5180 C   0  0  0  0  0  0
    1.7120   52.9967   28.7822 C   0  0  0  0  0  0
    0.4256   52.6370   28.3752 C   0  0  0  0  0  0
   -0.4981   52.0969   29.7280 S   0  0  0  0  0  0
    0.8383   52.4967   30.7328 C   0  0  0  0  0  0
    1.9012   52.9214   30.0962 N   0  0  0  0  0  0
    0.7045   52.3432   32.0817 N   0  0  0  0  0  0
    6.3044   55.3680   28.2499 H   0  0  0  0  0  0
    6.9581   54.1507   27.1957 H   0  0  0  0  0  0
    6.3291   55.6833   26.5434 H   0  0  0  0  0  0
    4.2741   54.1519   29.3465 H   0  0  0  0  0  0
    2.5451   54.5636   23.8968 H   0  0  0  0  0  0
    3.2708   54.6410   21.5929 H   0  0  0  0  0  0
    7.3494   54.1675   22.8233 H   0  0  0  0  0  0
    6.6436   53.8596   25.0941 H   0  0  0  0  0  0
    1.3794   51.9109   25.9472 H   0  0  0  0  0  0
    1.0791   53.4840   25.2296 H   0  0  0  0  0  0
    2.3214   52.3893   24.6127 H   0  0  0  0  0  0
   -0.0193   52.6356   27.3943 H   0  0  0  0  0  0
    1.4509   52.4966   32.7446 H   0  0  0  0  0  0
   -0.2173   52.0968   32.4822 H   0  0  0  0  0  0
  1  2  1  0  0  0
  1 21  1  0  0  0
  1 22  1  0  0  0
  1 23  1  0  0  0
  2  6  1  0  0  0
  2  3  2  0  0  0
  3  4  1  0  0  0
  3 24  1  0  0  0
  4  5  2  0  0  0
  4 15  1  0  0  0
  5  6  1  0  0  0
  5 14  1  0  0  0
  6  7  1  0  0  0
  7 12  2  0  0  0
  7  8  1  0  0  0
  8  9  2  0  0  0
  8 25  1  0  0  0
  9 10  1  0  0  0
  9 26  1  0  0  0
 10 11  2  0  0  0
 10 13  1  0  0  0
 11 12  1  0  0  0
 11 27  1  0  0  0
 12 28  1  0  0  0
 14 29  1  0  0  0
 14 30  1  0  0  0
 14 31  1  0  0  0
 15 19  1  0  0  0
 15 16  2  0  0  0
 16 17  1  0  0  0
 16 32  1  0  0  0
 17 18  1  0  0  0
 18 19  2  0  0  0
 18 20  1  0  0  0
 20 33  1  0  0  0
 20 34  1  0  0  0
M  END
> <i_i_glide_confnum>
2

> <i_i_glide_lignum>
3867

> <i_i_glide_posenum>
24

> <i_i_glide_rotatable_bonds>
2

> <i_m_Source_File_Index>
711

> <b_m_subgroup_collapsed>
0

> <r_i_docking_score>
-7.15296

> <r_i_glide_ecoul>
-7.08221

> <r_i_glide_eff_state_penalty>
0

> <r_i_glide_einternal>
4.42558

> <r_i_glide_emodel>
-56.2156

> <r_i_glide_energy>
-40.6884

> <r_i_glide_erotb>
0.313876

> <r_i_glide_esite>
-0.1

> <r_i_glide_evdw>
-33.6062

> <r_i_glide_gscore>
-7.15296

> <r_i_glide_hbond>
-0.340912

> <r_i_glide_ligand_efficiency>
-0.357648

> <r_i_glide_ligand_efficiency_ln>
-1.79015

> <r_i_glide_ligand_efficiency_sa>
-0.970806

> <r_i_glide_lipo>
-2.9465

> <r_i_glide_metal>
0

> <r_i_glide_rewards>
-1.33678

> <s_i_glide_gridfile>
wee1_glide-grid

> <s_m_Source_File>
wee1_decoys_glide_SP.sdf

> <s_m_Source_Path>
/Users/zhangxujun/Desktop

> <s_m_entry_id>
986

> <s_m_entry_name>
wee1_decoys_glide_SP.711

> <s_m_subgroup_title>
wee1_decoys_glide_SP

> <s_m_subgroupid>
wee1_decoys_glide_SP


$$$$
