ZINC39466690_1194
                    3D
 Schrodinger Suite 2024-2.
 62 66  0  0  1  0            999 V2000
    3.3915   52.8446   29.5436 C   0  0  0  0  0  0
    4.1634   54.0399   28.4150 S   0  0  0  0  0  0
    3.4695   53.6972   26.7936 C   0  0  0  0  0  0
    2.3083   53.0024   26.6672 C   0  0  0  0  0  0
    1.6796   52.6557   25.3154 C   0  0  1  0  0  0
    2.2079   51.8052   24.8817 H   0  0  0  0  0  0
    0.1740   52.3005   25.3452 C   0  0  0  0  0  0
   -0.5446   52.4860   23.9749 C   0  0  2  0  0  0
   -0.8841   53.5167   23.8557 H   0  0  0  0  0  0
   -1.7465   51.5383   23.7806 C   0  0  0  0  0  0
   -2.3611   51.7810   22.5256 O   0  0  0  0  0  0
   -1.5686   51.4683   21.1350 P   0  0  1  0  0  0
   -2.2331   52.0932   19.9606 O   0  0  0  0  0  0
   -0.0407   52.0968   21.4906 N   0  0  0  0  0  0
    0.4949   52.3027   22.8322 N   0  3  1  0  0  0
    1.5679   53.4188   22.8553 C   0  0  0  0  0  0
    1.9436   53.8218   24.3072 C   0  0  2  0  0  0
    1.3013   54.6646   24.5649 H   0  0  0  0  0  0
    3.3701   54.3582   24.4443 C   0  0  0  0  0  0
    4.1034   54.2314   25.5745 C   0  0  0  0  0  0
    5.8869   54.6818   25.4942 S   0  0  0  0  0  0
    6.0079   56.0967   25.1316 O   0  0  0  0  0  0
    6.6036   54.1654   26.6645 O   0  0  0  0  0  0
    6.3826   53.7387   24.1903 O   0  0  0  0  0  0
    6.1733   54.1438   22.8948 C   0  0  0  0  0  0
    6.8252   55.2625   22.3719 C   0  0  0  0  0  0
    6.6094   55.6398   21.0489 C   0  0  0  0  0  0
    5.7411   54.8961   20.2529 C   0  0  0  0  0  0
    5.1036   53.7653   20.7612 C   0  0  0  0  0  0
    5.3317   53.3831   22.0814 C   0  0  0  0  0  0
   -1.3374   49.6430   21.0627 C   0  0  0  0  0  0
   -0.3346   49.2061   20.0065 C   0  0  0  0  0  0
    0.9798   48.9002   20.3743 C   0  0  0  0  0  0
    1.9005   48.5145   19.4033 C   0  0  0  0  0  0
    1.5044   48.4341   18.0711 C   0  0  0  0  0  0
    0.1961   48.7343   17.6983 C   0  0  0  0  0  0
   -0.7261   49.1201   18.6683 C   0  0  0  0  0  0
    3.9080   52.8631   30.5026 H   0  0  0  0  0  0
    2.3430   53.0902   29.7148 H   0  0  0  0  0  0
    3.4645   51.8343   29.1394 H   0  0  0  0  0  0
    1.8091   52.6336   27.5487 H   0  0  0  0  0  0
    0.0675   51.2738   25.7046 H   0  0  0  0  0  0
   -0.3390   52.8962   26.1005 H   0  0  0  0  0  0
   -1.4579   50.4910   23.8792 H   0  0  0  0  0  0
   -2.4925   51.7177   24.5567 H   0  0  0  0  0  0
    0.3892   52.6443   20.7433 H   0  0  0  0  0  0
    2.4061   53.0054   22.2941 H   0  0  0  0  0  0
    1.1598   54.2595   22.2944 H   0  0  0  0  0  0
    3.8165   54.8241   23.5816 H   0  0  0  0  0  0
    7.5030   55.8300   22.9925 H   0  0  0  0  0  0
    7.1178   56.4973   20.6362 H   0  0  0  0  0  0
    5.5741   55.1866   19.2255 H   0  0  0  0  0  0
    4.4505   53.1817   20.1272 H   0  0  0  0  0  0
    4.8594   52.4982   22.4802 H   0  0  0  0  0  0
   -1.0265   49.2618   22.0336 H   0  0  0  0  0  0
   -2.3034   49.1812   20.8585 H   0  0  0  0  0  0
    1.2925   48.9673   21.4056 H   0  0  0  0  0  0
    2.9212   48.2867   19.6734 H   0  0  0  0  0  0
    2.2276   48.1513   17.3183 H   0  0  0  0  0  0
   -0.0968   48.6772   16.6602 H   0  0  0  0  0  0
   -1.7384   49.3625   18.3793 H   0  0  0  0  0  0
    0.9871   51.4433   23.0335 H   0  0  0  0  0  0
  1  2  1  0  0  0
  1 38  1  0  0  0
  1 39  1  0  0  0
  1 40  1  0  0  0
  2  3  1  0  0  0
  3 20  1  0  0  0
  3  4  2  0  0  0
  4  5  1  0  0  0
  4 41  1  0  0  0
  5  6  1  0  0  0
  5 17  1  0  0  0
  5  7  1  0  0  0
  7  8  1  0  0  0
  7 42  1  0  0  0
  7 43  1  0  0  0
  8  9  1  0  0  0
  8 15  1  0  0  0
  8 10  1  0  0  0
 10 11  1  0  0  0
 10 44  1  0  0  0
 10 45  1  0  0  0
 11 12  1  0  0  0
 12 13  2  0  0  0
 12 14  1  0  0  0
 12 31  1  0  0  0
 14 15  1  0  0  0
 14 46  1  0  0  0
 15 16  1  0  0  0
 15 62  1  0  0  0
 16 17  1  0  0  0
 16 47  1  0  0  0
 16 48  1  0  0  0
 17 18  1  0  0  0
 17 19  1  0  0  0
 19 20  2  0  0  0
 19 49  1  0  0  0
 20 21  1  0  0  0
 21 22  2  0  0  0
 21 23  2  0  0  0
 21 24  1  0  0  0
 24 25  1  0  0  0
 25 30  2  0  0  0
 25 26  1  0  0  0
 26 27  2  0  0  0
 26 50  1  0  0  0
 27 28  1  0  0  0
 27 51  1  0  0  0
 28 29  2  0  0  0
 28 52  1  0  0  0
 29 30  1  0  0  0
 29 53  1  0  0  0
 30 54  1  0  0  0
 31 32  1  0  0  0
 31 55  1  0  0  0
 31 56  1  0  0  0
 32 37  2  0  0  0
 32 33  1  0  0  0
 33 34  2  0  0  0
 33 57  1  0  0  0
 34 35  1  0  0  0
 34 58  1  0  0  0
 35 36  2  0  0  0
 35 59  1  0  0  0
 36 37  1  0  0  0
 36 60  1  0  0  0
 37 61  1  0  0  0
M  CHG  1  15   1
M  END
> <i_i_glide_confnum>
16

> <i_i_glide_lignum>
1195

> <i_i_glide_posenum>
208

> <i_i_glide_rotatable_bonds>
6

> <i_m_Source_File_Index>
683

> <b_m_subgroup_collapsed>
0

> <r_i_docking_score>
-6.57858

> <r_i_glide_ecoul>
-5.74156

> <r_i_glide_eff_state_penalty>
0

> <r_i_glide_einternal>
2.3664

> <r_i_glide_emodel>
-70.5752

> <r_i_glide_energy>
-50.87

> <r_i_glide_erotb>
0.380507

> <r_i_glide_esite>
-0.0184455

> <r_i_glide_evdw>
-45.1285

> <r_i_glide_gscore>
-6.57858

> <r_i_glide_hbond>
-0.32

> <r_i_glide_ligand_efficiency>
-0.193488

> <r_i_glide_ligand_efficiency_ln>
-1.45339

> <r_i_glide_ligand_efficiency_sa>
-0.626825

> <r_i_glide_lipo>
-3.05298

> <r_i_glide_metal>
0

> <r_i_glide_rewards>
-0.45

> <s_i_glide_gridfile>
wee1_glide-grid

> <s_m_Source_File>
wee1_decoys_glide_SP.sdf

> <s_m_Source_Path>
/Users/zhangxujun/Desktop

> <s_m_entry_id>
958

> <s_m_entry_name>
wee1_decoys_glide_SP.683

> <s_m_subgroup_title>
wee1_decoys_glide_SP

> <s_m_subgroupid>
wee1_decoys_glide_SP


$$$$
