ZINC21289779_2909
                    3D
 Schrodinger Suite 2024-2.
 68 72  0  0  1  0            999 V2000
    1.7721   56.0820   29.5522 C   0  0  0  0  0  0
    1.4150   54.6831   29.0215 C   0  0  2  0  0  0
    0.3270   54.6011   28.9731 H   0  0  0  0  0  0
    1.9302   53.5933   29.9576 C   0  0  0  0  0  0
    1.0500   53.0462   30.8915 C   0  0  0  0  0  0
    1.5071   52.0969   31.7934 C   0  0  0  0  0  0
    2.8434   51.6990   31.7634 C   0  0  0  0  0  0
    3.7191   52.2108   30.8144 C   0  0  0  0  0  0
    3.2669   53.1719   29.9166 C   0  0  0  0  0  0
    1.9141   54.4971   27.6637 N   0  0  0  0  0  0
    1.5043   53.4346   26.8424 C   0  0  0  0  0  0
    1.7278   53.5555   25.4695 C   0  0  0  0  0  0
    1.3897   52.5063   24.6120 C   0  0  0  0  0  0
    0.7044   51.4084   25.1643 C   0  0  0  0  0  0
    0.4465   51.3797   26.5358 C   0  0  0  0  0  0
    0.8506   52.3654   27.3734 N   0  0  0  0  0  0
    1.8091   52.5357   23.1630 C   0  0  0  0  0  0
    2.9888   52.9822   22.4988 C   0  0  0  0  0  0
    2.9195   52.6710   21.2141 N   0  0  0  0  0  0
    1.7672   52.1050   20.9962 C   0  0  0  0  0  0
    1.0095   52.0398   22.1411 N   0  0  0  0  0  0
   -0.3700   51.5614   22.2239 C   0  0  0  0  0  0
    1.3748   51.5361   19.6354 C   0  0  0  0  0  0
    1.7389   52.4747   18.4610 C   0  0  0  0  0  0
    1.2932   51.8994   17.1071 C   0  0  0  0  0  0
    1.9044   50.4966   16.9349 N   0  3  0  0  0  0
    1.5766   49.5212   18.0795 C   0  0  0  0  0  0
    2.0163   50.1500   19.4121 C   0  0  0  0  0  0
    4.2470   53.6960   22.9678 C   0  0  0  0  0  0
    5.1281   54.2687   22.0324 C   0  0  0  0  0  0
    6.3044   54.8967   22.4372 C   0  0  0  0  0  0
    6.6155   54.9922   23.7898 C   0  0  0  0  0  0
    5.7772   54.4166   24.7463 C   0  0  0  0  0  0
    4.6218   53.7617   24.3166 C   0  0  0  0  0  0
    6.0964   54.4865   26.2395 C   0  0  0  0  0  0
    5.0277   54.8959   26.9196 F   0  0  0  0  0  0
    6.4508   53.2968   26.7064 F   0  0  0  0  0  0
    7.1029   55.3147   26.4913 F   0  0  0  0  0  0
    1.3969   56.2292   30.5662 H   0  0  0  0  0  0
    2.8510   56.2431   29.5728 H   0  0  0  0  0  0
    1.3345   56.8655   28.9311 H   0  0  0  0  0  0
    0.0175   53.3616   30.9383 H   0  0  0  0  0  0
    0.8286   51.6955   32.5341 H   0  0  0  0  0  0
    3.1980   50.9740   32.4820 H   0  0  0  0  0  0
    4.7457   51.8802   30.7871 H   0  0  0  0  0  0
    3.9531   53.5868   29.1920 H   0  0  0  0  0  0
    2.1430   55.3466   27.1730 H   0  0  0  0  0  0
    2.2000   54.4425   25.0744 H   0  0  0  0  0  0
    0.4297   50.5559   24.5635 H   0  0  0  0  0  0
   -0.0615   50.5384   26.9889 H   0  0  0  0  0  0
   -0.9295   51.8687   21.3412 H   0  0  0  0  0  0
   -0.3689   50.4742   22.2990 H   0  0  0  0  0  0
   -0.8684   51.9865   23.0928 H   0  0  0  0  0  0
    0.2942   51.3911   19.5839 H   0  0  0  0  0  0
    1.2441   53.4379   18.5811 H   0  0  0  0  0  0
    2.8180   52.6411   18.4213 H   0  0  0  0  0  0
    0.2112   51.7779   17.0361 H   0  0  0  0  0  0
    1.6439   52.4968   16.2645 H   0  0  0  0  0  0
    1.6172   50.0917   16.0548 H   0  0  0  0  0  0
    0.5053   49.3181   18.0320 H   0  0  0  0  0  0
    2.1433   48.6126   17.8573 H   0  0  0  0  0  0
    3.1064   50.2266   19.4074 H   0  0  0  0  0  0
    1.7271   49.4642   20.2102 H   0  0  0  0  0  0
    4.9098   54.2330   20.9755 H   0  0  0  0  0  0
    6.9659   55.3322   21.7023 H   0  0  0  0  0  0
    7.5044   55.5229   24.0840 H   0  0  0  0  0  0
    4.0573   53.2481   25.0704 H   0  0  0  0  0  0
    2.9224   50.5365   16.8815 H   0  0  0  0  0  0
  1  2  1  0  0  0
  1 39  1  0  0  0
  1 40  1  0  0  0
  1 41  1  0  0  0
  2  3  1  0  0  0
  2  4  1  0  0  0
  2 10  1  0  0  0
  4  9  2  0  0  0
  4  5  1  0  0  0
  5  6  2  0  0  0
  5 42  1  0  0  0
  6  7  1  0  0  0
  6 43  1  0  0  0
  7  8  2  0  0  0
  7 44  1  0  0  0
  8  9  1  0  0  0
  8 45  1  0  0  0
  9 46  1  0  0  0
 10 11  1  0  0  0
 10 47  1  0  0  0
 11 16  2  0  0  0
 11 12  1  0  0  0
 12 13  2  0  0  0
 12 48  1  0  0  0
 13 14  1  0  0  0
 13 17  1  0  0  0
 14 15  2  0  0  0
 14 49  1  0  0  0
 15 16  1  0  0  0
 15 50  1  0  0  0
 17 21  1  0  0  0
 17 18  2  0  0  0
 18 19  1  0  0  0
 18 29  1  0  0  0
 19 20  2  0  0  0
 20 21  1  0  0  0
 20 23  1  0  0  0
 21 22  1  0  0  0
 22 51  1  0  0  0
 22 52  1  0  0  0
 22 53  1  0  0  0
 23 28  1  0  0  0
 23 24  1  0  0  0
 23 54  1  0  0  0
 24 25  1  0  0  0
 24 55  1  0  0  0
 24 56  1  0  0  0
 25 26  1  0  0  0
 25 57  1  0  0  0
 25 58  1  0  0  0
 26 27  1  0  0  0
 26 59  1  0  0  0
 26 68  1  0  0  0
 27 28  1  0  0  0
 27 60  1  0  0  0
 27 61  1  0  0  0
 28 62  1  0  0  0
 28 63  1  0  0  0
 29 34  2  0  0  0
 29 30  1  0  0  0
 30 31  2  0  0  0
 30 64  1  0  0  0
 31 32  1  0  0  0
 31 65  1  0  0  0
 32 33  2  0  0  0
 32 66  1  0  0  0
 33 34  1  0  0  0
 33 35  1  0  0  0
 34 67  1  0  0  0
 35 36  1  0  0  0
 35 37  1  0  0  0
 35 38  1  0  0  0
M  CHG  1  26   1
M  END
> <i_i_glide_confnum>
197

> <i_i_glide_lignum>
2910

> <i_i_glide_posenum>
359

> <i_i_glide_rotatable_bonds>
7

> <i_m_Source_File_Index>
1520

> <b_m_subgroup_collapsed>
0

> <r_i_docking_score>
-6.96545

> <r_i_glide_ecoul>
-6.95229

> <r_i_glide_eff_state_penalty>
0

> <r_i_glide_einternal>
4.49387

> <r_i_glide_emodel>
-63.9893

> <r_i_glide_energy>
-44.4505

> <r_i_glide_erotb>
0.47838

> <r_i_glide_esite>
-0.124159

> <r_i_glide_evdw>
-37.4982

> <r_i_glide_gscore>
-6.96545

> <r_i_glide_hbond>
-0.128665

> <r_i_glide_ligand_efficiency>
-0.188255

> <r_i_glide_ligand_efficiency_ln>
-1.51064

> <r_i_glide_ligand_efficiency_sa>
-0.627309

> <r_i_glide_lipo>
-3.50268

> <r_i_glide_metal>
0

> <r_i_glide_rewards>
-0.770576

> <s_i_glide_gridfile>
wee1_glide-grid

> <s_m_Source_File>
wee1_decoys_glide_SP.sdf

> <s_m_Source_Path>
/Users/zhangxujun/Desktop

> <s_m_entry_id>
1795

> <s_m_entry_name>
wee1_decoys_glide_SP.1520

> <s_m_subgroup_title>
wee1_decoys_glide_SP

> <s_m_subgroupid>
wee1_decoys_glide_SP


$$$$
