ZINC44854004_5255
                    3D
 Schrodinger Suite 2024-2.
 69 72  0  0  1  0            999 V2000
   -0.0400   52.8087   31.0460 C   0  0  0  0  0  0
    0.5050   53.3413   29.7130 C   0  0  0  0  0  0
    1.7526   54.2130   29.8989 C   0  0  0  0  0  0
    2.2674   54.7523   28.5481 C   0  0  0  0  0  0
    2.5489   53.6807   27.5670 N   0  0  0  0  0  0
    1.3960   52.7677   27.4162 C   0  0  0  0  0  0
    0.8942   52.2041   28.7602 C   0  0  0  0  0  0
    3.3669   53.9811   26.4819 C   0  0  0  0  0  0
    4.6697   54.4374   26.7063 C   0  0  0  0  0  0
    5.5259   54.6927   25.6389 C   0  0  0  0  0  0
    5.0956   54.4979   24.3212 C   0  0  0  0  0  0
    3.7772   54.0861   24.0912 C   0  0  0  0  0  0
    2.9315   53.8130   25.1603 C   0  0  0  0  0  0
    6.0792   54.7674   23.1697 C   0  0  1  0  0  0
    6.3847   55.8073   23.3054 H   0  0  0  0  0  0
    7.3398   53.9007   23.2826 C   0  0  0  0  0  0
    5.4983   54.6340   21.8263 N   0  0  0  0  0  0
    5.9100   55.2957   20.7319 C   0  0  0  0  0  0
    6.8200   56.1305   20.7651 O   0  0  0  0  0  0
    5.1848   54.9637   19.4079 C   0  0  2  0  0  0
    5.8011   53.6780   18.8005 C   0  0  0  0  0  0
    5.0889   53.3247   17.4789 C   0  0  0  0  0  0
    5.2163   54.5279   16.5097 N   0  3  2  0  0  0
    4.5597   55.8014   17.1006 C   0  0  0  0  0  0
    5.2720   56.1548   18.4175 C   0  0  0  0  0  0
    4.5969   54.2195   15.1233 C   0  0  0  0  0  0
    5.1618   52.9829   14.4293 C   0  0  0  0  0  0
    6.4405   53.0486   13.8580 C   0  0  0  0  0  0
    6.9927   51.9333   13.2273 C   0  0  0  0  0  0
    6.2677   50.7458   13.1458 C   0  0  0  0  0  0
    4.9860   50.6762   13.6941 C   0  0  0  0  0  0
    4.4339   51.7818   14.3413 C   0  0  0  0  0  0
    2.8498   51.6259   15.0217 Cl  0  0  0  0  0  0
    6.9520   49.3608   12.3735 Cl  0  0  0  0  0  0
    0.7057   52.2245   31.5889 H   0  0  0  0  0  0
   -0.3627   53.6174   31.7024 H   0  0  0  0  0  0
   -0.8958   52.1555   30.8813 H   0  0  0  0  0  0
   -0.2686   53.9421   29.2291 H   0  0  0  0  0  0
    2.5449   53.6631   30.4097 H   0  0  0  0  0  0
    1.5183   55.0435   30.5676 H   0  0  0  0  0  0
    3.1711   55.3277   28.7459 H   0  0  0  0  0  0
    1.5463   55.4459   28.1103 H   0  0  0  0  0  0
    0.5908   53.2869   26.8933 H   0  0  0  0  0  0
    1.6940   51.9223   26.7954 H   0  0  0  0  0  0
    0.0336   51.5551   28.5932 H   0  0  0  0  0  0
    1.6409   51.5407   29.2014 H   0  0  0  0  0  0
    5.0363   54.5703   27.7139 H   0  0  0  0  0  0
    6.5299   55.0328   25.8453 H   0  0  0  0  0  0
    3.3962   53.9444   23.0923 H   0  0  0  0  0  0
    1.9284   53.4765   24.9500 H   0  0  0  0  0  0
    7.8701   54.0316   24.2264 H   0  0  0  0  0  0
    7.0657   52.8623   23.1944 H   0  0  0  0  0  0
    8.0454   54.1096   22.4815 H   0  0  0  0  0  0
    4.7825   53.9314   21.7222 H   0  0  0  0  0  0
    4.1417   54.7882   19.6831 H   0  0  0  0  0  0
    5.6576   52.8119   19.4517 H   0  0  0  0  0  0
    6.8573   53.8145   18.5523 H   0  0  0  0  0  0
    4.0294   53.0865   17.6044 H   0  0  0  0  0  0
    5.6017   52.4834   17.0087 H   0  0  0  0  0  0
    4.7006   56.6037   16.3732 H   0  0  0  0  0  0
    3.4928   55.6051   17.2362 H   0  0  0  0  0  0
    6.3070   56.3812   18.1481 H   0  0  0  0  0  0
    4.7681   57.0354   18.8194 H   0  0  0  0  0  0
    4.8009   55.1110   14.5258 H   0  0  0  0  0  0
    3.5177   54.1685   15.2773 H   0  0  0  0  0  0
    7.0191   53.9611   13.9171 H   0  0  0  0  0  0
    7.9875   51.9901   12.8046 H   0  0  0  0  0  0
    4.4249   49.7547   13.6414 H   0  0  0  0  0  0
    6.2033   54.7087   16.3707 H   0  0  0  0  0  0
  1  2  1  0  0  0
  1 35  1  0  0  0
  1 36  1  0  0  0
  1 37  1  0  0  0
  2  7  1  0  0  0
  2  3  1  0  0  0
  2 38  1  0  0  0
  3  4  1  0  0  0
  3 39  1  0  0  0
  3 40  1  0  0  0
  4  5  1  0  0  0
  4 41  1  0  0  0
  4 42  1  0  0  0
  5  6  1  0  0  0
  5  8  1  0  0  0
  6  7  1  0  0  0
  6 43  1  0  0  0
  6 44  1  0  0  0
  7 45  1  0  0  0
  7 46  1  0  0  0
  8 13  2  0  0  0
  8  9  1  0  0  0
  9 10  2  0  0  0
  9 47  1  0  0  0
 10 11  1  0  0  0
 10 48  1  0  0  0
 11 12  2  0  0  0
 11 14  1  0  0  0
 12 13  1  0  0  0
 12 49  1  0  0  0
 13 50  1  0  0  0
 14 15  1  0  0  0
 14 16  1  0  0  0
 14 17  1  0  0  0
 16 51  1  0  0  0
 16 52  1  0  0  0
 16 53  1  0  0  0
 17 18  1  0  0  0
 17 54  1  0  0  0
 18 19  2  0  0  0
 18 20  1  0  0  0
 20 25  1  0  0  0
 20 21  1  0  0  0
 20 55  1  0  0  0
 21 22  1  0  0  0
 21 56  1  0  0  0
 21 57  1  0  0  0
 22 23  1  0  0  0
 22 58  1  0  0  0
 22 59  1  0  0  0
 23 24  1  0  0  0
 23 26  1  0  0  0
 23 69  1  0  0  0
 24 25  1  0  0  0
 24 60  1  0  0  0
 24 61  1  0  0  0
 25 62  1  0  0  0
 25 63  1  0  0  0
 26 27  1  0  0  0
 26 64  1  0  0  0
 26 65  1  0  0  0
 27 32  2  0  0  0
 27 28  1  0  0  0
 28 29  2  0  0  0
 28 66  1  0  0  0
 29 30  1  0  0  0
 29 67  1  0  0  0
 30 31  2  0  0  0
 30 34  1  0  0  0
 31 32  1  0  0  0
 31 68  1  0  0  0
 32 33  1  0  0  0
M  CHG  1  23   1
M  END
> <i_i_glide_confnum>
224

> <i_i_glide_lignum>
5256

> <i_i_glide_posenum>
253

> <i_i_glide_rotatable_bonds>
7

> <i_m_Source_File_Index>
4201

> <b_m_subgroup_collapsed>
0

> <r_i_docking_score>
-5.08855

> <r_i_glide_ecoul>
-2.47017

> <r_i_glide_eff_state_penalty>
0

> <r_i_glide_einternal>
6.53731

> <r_i_glide_emodel>
-51.7322

> <r_i_glide_energy>
-40.5121

> <r_i_glide_erotb>
0.594331

> <r_i_glide_esite>
-0.00422625

> <r_i_glide_evdw>
-38.0419

> <r_i_glide_gscore>
-5.08855

> <r_i_glide_hbond>
-0.0163383

> <r_i_glide_ligand_efficiency>
-0.154198

> <r_i_glide_ligand_efficiency_ln>
-1.13167

> <r_i_glide_ligand_efficiency_sa>
-0.494597

> <r_i_glide_lipo>
-2.79119

> <r_i_glide_metal>
0

> <r_i_glide_rewards>
-0.598508

> <s_i_glide_gridfile>
wee1_glide-grid

> <s_m_Source_File>
wee1_decoys_glide_SP.sdf

> <s_m_Source_Path>
/Users/zhangxujun/Desktop

> <s_m_entry_id>
4476

> <s_m_entry_name>
wee1_decoys_glide_SP.4201

> <s_m_subgroup_title>
wee1_decoys_glide_SP

> <s_m_subgroupid>
wee1_decoys_glide_SP


$$$$
