ZINC38547000_581
                    3D
 Schrodinger Suite 2024-2.
 54 57  0  0  1  0            999 V2000
    2.3043   48.6793   21.0420 C   0  0  0  0  0  0
    1.9436   50.0256   21.6318 C   0  0  0  0  0  0
    1.9441   51.1907   20.8630 C   0  0  0  0  0  0
    1.5112   52.3855   21.4372 C   0  0  0  0  0  0
    1.0760   52.3997   22.7640 C   0  0  0  0  0  0
    1.1111   51.2174   23.5201 C   0  0  0  0  0  0
    1.5529   50.0886   22.9235 N   0  3  0  0  0  0
    0.7045   51.1297   24.8822 N   0  0  0  0  0  0
   -0.0579   52.1548   25.6134 C   0  0  1  0  0  0
    0.0797   53.0852   25.0702 H   0  0  0  0  0  0
   -1.5524   51.8278   25.5344 C   0  0  0  0  0  0
   -2.0762   50.7104   26.1933 C   0  0  0  0  0  0
   -3.4338   50.4172   26.1117 C   0  0  0  0  0  0
   -4.2829   51.2297   25.3525 C   0  0  0  0  0  0
   -3.7545   52.3302   24.6698 C   0  0  0  0  0  0
   -2.3959   52.6209   24.7525 C   0  0  0  0  0  0
   -5.7781   50.9265   25.2597 C   0  0  0  0  0  0
   -6.1948   50.1562   26.2669 F   0  0  0  0  0  0
   -6.4906   52.0545   25.2801 F   0  0  0  0  0  0
   -6.0203   50.2902   24.1138 F   0  0  0  0  0  0
    0.5112   52.4563   27.0081 C   0  0  0  0  0  0
   -0.1703   52.2785   28.2288 C   0  0  0  0  0  0
    0.5145   52.6338   29.3819 C   0  0  0  0  0  0
    2.0775   53.2361   28.9602 S   0  0  0  0  0  0
    1.7750   53.0143   27.2512 C   0  0  0  0  0  0
    2.7065   53.3497   26.2678 N   0  0  0  0  0  0
    3.8750   54.0200   26.4092 C   0  0  0  0  0  0
    4.3160   54.4968   27.4554 O   0  0  0  0  0  0
    4.6295   54.1133   25.1863 C   0  0  0  0  0  0
    4.2522   54.0967   23.8439 C   0  0  0  0  0  0
    5.4178   54.2521   23.0908 C   0  0  0  0  0  0
    6.4440   54.4412   23.9993 C   0  0  0  0  0  0
    5.9631   54.3817   25.2679 O   0  0  0  0  0  0
    0.0535   52.5599   30.8138 C   0  0  0  0  0  0
    2.7879   48.7909   20.0701 H   0  0  0  0  0  0
    2.9751   48.1225   21.6966 H   0  0  0  0  0  0
    1.3987   48.0965   20.8814 H   0  0  0  0  0  0
    2.2595   51.1706   19.8281 H   0  0  0  0  0  0
    1.5031   53.2925   20.8538 H   0  0  0  0  0  0
    0.7371   53.3373   23.1729 H   0  0  0  0  0  0
    0.7622   50.2291   25.3372 H   0  0  0  0  0  0
   -1.4362   50.0705   26.7857 H   0  0  0  0  0  0
   -3.8122   49.5556   26.6446 H   0  0  0  0  0  0
   -4.3981   52.9614   24.0737 H   0  0  0  0  0  0
   -2.0046   53.4698   24.2121 H   0  0  0  0  0  0
   -1.1741   51.8891   28.2955 H   0  0  0  0  0  0
    2.4724   53.0576   25.3327 H   0  0  0  0  0  0
    3.2565   53.9659   23.4515 H   0  0  0  0  0  0
    5.4982   54.2599   22.0133 H   0  0  0  0  0  0
    7.5041   54.6236   23.8967 H   0  0  0  0  0  0
   -0.8953   52.0266   30.8828 H   0  0  0  0  0  0
    0.7638   52.0353   31.4525 H   0  0  0  0  0  0
   -0.0961   53.5489   31.2466 H   0  0  0  0  0  0
    1.5836   49.2391   23.4711 H   0  0  0  0  0  0
  1  2  1  0  0  0
  1 35  1  0  0  0
  1 36  1  0  0  0
  1 37  1  0  0  0
  2  7  2  0  0  0
  2  3  1  0  0  0
  3  4  2  0  0  0
  3 38  1  0  0  0
  4  5  1  0  0  0
  4 39  1  0  0  0
  5  6  2  0  0  0
  5 40  1  0  0  0
  6  7  1  0  0  0
  6  8  1  0  0  0
  7 54  1  0  0  0
  8  9  1  0  0  0
  8 41  1  0  0  0
  9 10  1  0  0  0
  9 11  1  0  0  0
  9 21  1  0  0  0
 11 16  2  0  0  0
 11 12  1  0  0  0
 12 13  2  0  0  0
 12 42  1  0  0  0
 13 14  1  0  0  0
 13 43  1  0  0  0
 14 15  2  0  0  0
 14 17  1  0  0  0
 15 16  1  0  0  0
 15 44  1  0  0  0
 16 45  1  0  0  0
 17 18  1  0  0  0
 17 19  1  0  0  0
 17 20  1  0  0  0
 21 25  2  0  0  0
 21 22  1  0  0  0
 22 23  2  0  0  0
 22 46  1  0  0  0
 23 24  1  0  0  0
 23 34  1  0  0  0
 24 25  1  0  0  0
 25 26  1  0  0  0
 26 27  1  0  0  0
 26 47  1  0  0  0
 27 28  2  0  0  0
 27 29  1  0  0  0
 29 33  1  0  0  0
 29 30  2  0  0  0
 30 31  1  0  0  0
 30 48  1  0  0  0
 31 32  2  0  0  0
 31 49  1  0  0  0
 32 33  1  0  0  0
 32 50  1  0  0  0
 34 51  1  0  0  0
 34 52  1  0  0  0
 34 53  1  0  0  0
M  CHG  1   7   1
M  END
> <i_i_glide_confnum>
142

> <i_i_glide_lignum>
582

> <i_i_glide_posenum>
340

> <i_i_glide_rotatable_bonds>
8

> <i_m_Source_File_Index>
2535

> <b_m_subgroup_collapsed>
0

> <r_i_docking_score>
-4.62708

> <r_i_glide_ecoul>
-4.83125

> <r_i_glide_eff_state_penalty>
0

> <r_i_glide_einternal>
6.61508

> <r_i_glide_emodel>
-55.3642

> <r_i_glide_energy>
-44.4894

> <r_i_glide_erotb>
0.633988

> <r_i_glide_esite>
-0.000306544

> <r_i_glide_evdw>
-39.6581

> <r_i_glide_gscore>
-4.62708

> <r_i_glide_hbond>
0

> <r_i_glide_ligand_efficiency>
-0.140214

> <r_i_glide_ligand_efficiency_ln>
-1.02904

> <r_i_glide_ligand_efficiency_sa>
-0.449743

> <r_i_glide_lipo>
-1.99708

> <r_i_glide_metal>
0

> <r_i_glide_rewards>
-0.556088

> <s_i_glide_gridfile>
wee1_glide-grid

> <s_m_Source_File>
wee1_decoys_glide_SP.sdf

> <s_m_Source_Path>
/Users/zhangxujun/Desktop

> <s_m_entry_id>
2810

> <s_m_entry_name>
wee1_decoys_glide_SP.2535

> <s_m_subgroup_title>
wee1_decoys_glide_SP

> <s_m_subgroupid>
wee1_decoys_glide_SP


$$$$
