ZINC10505479_2342
                    3D
 Schrodinger Suite 2024-2.
 50 52  0  0  1  0            999 V2000
    3.6135   54.4967   27.1318 C   0  0  0  0  0  0
    2.2862   53.8161   27.5187 C   0  0  2  0  0  0
    1.5408   54.6151   27.5508 H   0  0  0  0  0  0
    2.3143   53.1662   28.9130 C   0  0  0  0  0  0
    1.1507   53.1747   29.6930 C   0  0  0  0  0  0
    1.1526   52.6254   30.9707 C   0  0  0  0  0  0
    2.3324   52.0967   31.4849 C   0  0  0  0  0  0
    3.5045   52.0979   30.7335 C   0  0  0  0  0  0
    3.4941   52.6272   29.4468 C   0  0  0  0  0  0
    1.9039   52.8954   26.4467 N   0  0  0  0  0  0
    0.7092   52.2959   26.2704 C   0  0  0  0  0  0
   -0.2375   52.4967   27.0293 O   0  0  0  0  0  0
    0.6090   51.3290   25.0969 C   0  0  0  0  0  0
    1.5044   51.4469   24.0150 C   0  0  0  0  0  0
    1.4827   50.5493   22.9497 C   0  0  0  0  0  0
    0.5566   49.5129   22.9316 C   0  0  0  0  0  0
   -0.3634   49.3870   23.9677 C   0  0  0  0  0  0
   -0.3662   50.2984   25.0297 C   0  0  0  0  0  0
   -1.3897   50.1469   25.9847 N   0  0  0  0  0  0
   -2.6333   50.7203   25.9714 C   0  0  0  0  0  0
   -3.2177   51.6109   24.6547 S   0  0  0  0  0  0
   -3.2843   50.4979   27.1596 N   0  0  0  0  0  0
   -4.3958   51.0678   27.6989 C   0  0  0  0  0  0
   -4.9819   52.0550   27.2438 O   0  0  0  0  0  0
   -4.8916   50.4605   28.9886 C   0  0  0  0  0  0
   -4.6791   49.1077   29.2977 C   0  0  0  0  0  0
   -5.1777   48.5671   30.4820 C   0  0  0  0  0  0
   -5.8663   49.3729   31.3878 C   0  0  0  0  0  0
   -6.0785   50.7187   31.0976 C   0  0  0  0  0  0
   -5.6105   51.2522   29.8977 C   0  0  0  0  0  0
   -6.9187   51.7279   32.2175 Cl  0  0  0  0  0  0
   -4.9386   46.8967   30.8282 Cl  0  0  0  0  0  0
    3.9435   55.1877   27.9084 H   0  0  0  0  0  0
    4.4141   53.7758   26.9624 H   0  0  0  0  0  0
    3.5047   55.0724   26.2118 H   0  0  0  0  0  0
    0.2347   53.5969   29.3059 H   0  0  0  0  0  0
    0.2481   52.6139   31.5643 H   0  0  0  0  0  0
    2.3345   51.6813   32.4816 H   0  0  0  0  0  0
    4.4180   51.6961   31.1471 H   0  0  0  0  0  0
    4.4097   52.6118   28.8749 H   0  0  0  0  0  0
    2.6445   52.6388   25.8143 H   0  0  0  0  0  0
    2.2439   52.2338   23.9822 H   0  0  0  0  0  0
    2.1873   50.6558   22.1376 H   0  0  0  0  0  0
    0.5412   48.8195   22.1047 H   0  0  0  0  0  0
   -1.0975   48.5952   23.9305 H   0  0  0  0  0  0
   -1.1562   49.5717   26.7875 H   0  0  0  0  0  0
   -2.8751   49.7609   27.7217 H   0  0  0  0  0  0
   -4.1309   48.4577   28.6289 H   0  0  0  0  0  0
   -6.2332   48.9551   32.3138 H   0  0  0  0  0  0
   -5.8037   52.2926   29.6798 H   0  0  0  0  0  0
  1  2  1  0  0  0
  1 33  1  0  0  0
  1 34  1  0  0  0
  1 35  1  0  0  0
  2  3  1  0  0  0
  2  4  1  0  0  0
  2 10  1  0  0  0
  4  9  2  0  0  0
  4  5  1  0  0  0
  5  6  2  0  0  0
  5 36  1  0  0  0
  6  7  1  0  0  0
  6 37  1  0  0  0
  7  8  2  0  0  0
  7 38  1  0  0  0
  8  9  1  0  0  0
  8 39  1  0  0  0
  9 40  1  0  0  0
 10 11  1  0  0  0
 10 41  1  0  0  0
 11 12  2  0  0  0
 11 13  1  0  0  0
 13 18  2  0  0  0
 13 14  1  0  0  0
 14 15  2  0  0  0
 14 42  1  0  0  0
 15 16  1  0  0  0
 15 43  1  0  0  0
 16 17  2  0  0  0
 16 44  1  0  0  0
 17 18  1  0  0  0
 17 45  1  0  0  0
 18 19  1  0  0  0
 19 20  1  0  0  0
 19 46  1  0  0  0
 20 21  2  0  0  0
 20 22  1  0  0  0
 22 23  1  0  0  0
 22 47  1  0  0  0
 23 24  2  0  0  0
 23 25  1  0  0  0
 25 30  2  0  0  0
 25 26  1  0  0  0
 26 27  2  0  0  0
 26 48  1  0  0  0
 27 28  1  0  0  0
 27 32  1  0  0  0
 28 29  2  0  0  0
 28 49  1  0  0  0
 29 30  1  0  0  0
 29 31  1  0  0  0
 30 50  1  0  0  0
M  END
> <i_i_glide_confnum>
180

> <i_i_glide_lignum>
2343

> <i_i_glide_posenum>
165

> <i_i_glide_rotatable_bonds>
9

> <i_m_Source_File_Index>
5061

> <b_m_subgroup_collapsed>
0

> <r_i_docking_score>
-4.69257

> <r_i_glide_ecoul>
-7.34815

> <r_i_glide_eff_state_penalty>
0

> <r_i_glide_einternal>
3.71551

> <r_i_glide_emodel>
-59.5445

> <r_i_glide_energy>
-46.1695

> <r_i_glide_erotb>
0.634273

> <r_i_glide_esite>
-0.24681

> <r_i_glide_evdw>
-38.8213

> <r_i_glide_gscore>
-4.69257

> <r_i_glide_hbond>
-0.288515

> <r_i_glide_ligand_efficiency>
-0.151373

> <r_i_glide_ligand_efficiency_ln>
-1.05832

> <r_i_glide_ligand_efficiency_sa>
-0.475521

> <r_i_glide_lipo>
-1.48648

> <r_i_glide_metal>
0

> <r_i_glide_rewards>
-0.261751

> <s_i_glide_gridfile>
wee1_glide-grid

> <s_m_Source_File>
wee1_decoys_glide_SP.sdf

> <s_m_Source_Path>
/Users/zhangxujun/Desktop

> <s_m_entry_id>
5336

> <s_m_entry_name>
wee1_decoys_glide_SP.5061

> <s_m_subgroup_title>
wee1_decoys_glide_SP

> <s_m_subgroupid>
wee1_decoys_glide_SP


$$$$
