ZINC40755833_3947
                    3D
 Schrodinger Suite 2024-2.
 62 67  0  0  1  0            999 V2000
    1.6980   46.8888   16.9865 C   0  0  0  0  0  0
    0.8650   45.7754   17.0441 C   0  0  0  0  0  0
   -0.0070   45.6212   18.1192 C   0  0  0  0  0  0
   -0.0506   46.5774   19.1372 C   0  0  0  0  0  0
    0.7736   47.7219   19.0882 C   0  0  0  0  0  0
    1.6517   47.8453   17.9987 C   0  0  0  0  0  0
    0.7686   48.6699   20.1147 N   0  0  0  0  0  0
   -0.4967   49.3526   20.4396 C   0  0  0  0  0  0
   -0.4772   50.3595   21.6154 C   0  0  0  0  0  0
    0.7094   50.2872   22.4698 N   0  0  0  0  0  0
    1.9474   50.3342   21.6789 C   0  0  0  0  0  0
    1.9008   49.5919   20.3172 C   0  0  0  0  0  0
    0.6254   50.6860   23.7974 C   0  0  0  0  0  0
    1.1275   51.9007   24.3279 C   0  0  0  0  0  0
    0.9589   52.1071   25.7199 C   0  0  0  0  0  0
    0.3024   51.1980   26.4903 N   0  0  0  0  0  0
   -0.1855   50.0959   25.8779 C   0  0  0  0  0  0
   -0.0626   49.8025   24.5671 N   0  0  0  0  0  0
    1.4978   53.2663   26.3320 N   0  0  0  0  0  0
    1.7058   53.4740   27.7747 C   0  0  0  0  0  0
    0.3905   53.4158   28.6177 C   0  0  0  0  0  0
    0.7177   53.7319   30.1041 C   0  0  2  0  0  0
    1.3592   55.1362   30.2254 C   0  0  0  0  0  0
    2.6788   55.1759   29.4130 C   0  0  2  0  0  0
    2.3155   54.8968   27.9461 C   0  0  0  0  0  0
    3.6937   54.0966   29.8784 C   0  0  0  0  0  0
    3.0352   52.7011   29.7981 C   0  0  1  0  0  0
    1.7219   52.6749   30.6314 C   0  0  0  0  0  0
    2.7167   52.4252   28.3110 C   0  0  0  0  0  0
    1.7416   52.8675   23.5101 N   0  0  0  0  0  0
   -0.8944   46.3566   20.1738 F   0  0  0  0  0  0
    2.3851   47.0202   16.1622 H   0  0  0  0  0  0
    0.8980   45.0338   16.2588 H   0  0  0  0  0  0
   -0.6472   44.7532   18.1696 H   0  0  0  0  0  0
    2.3045   48.7012   17.9067 H   0  0  0  0  0  0
   -1.1253   48.5541   20.8259 H   0  0  0  0  0  0
   -0.9829   49.7935   19.5672 H   0  0  0  0  0  0
   -1.4199   50.3837   22.1636 H   0  0  0  0  0  0
   -0.3790   51.3527   21.1727 H   0  0  0  0  0  0
    2.3469   51.3353   21.5227 H   0  0  0  0  0  0
    2.6484   49.7637   22.2912 H   0  0  0  0  0  0
    1.7051   50.3678   19.5746 H   0  0  0  0  0  0
    2.8730   49.1692   20.0582 H   0  0  0  0  0  0
   -0.7160   49.3725   26.4842 H   0  0  0  0  0  0
    2.2006   53.7071   25.7607 H   0  0  0  0  0  0
   -0.0849   52.4369   28.5841 H   0  0  0  0  0  0
   -0.3454   54.1170   28.2276 H   0  0  0  0  0  0
   -0.2000   53.6947   30.6948 H   0  0  0  0  0  0
    0.6952   55.9093   29.8480 H   0  0  0  0  0  0
    1.5042   55.4000   31.2741 H   0  0  0  0  0  0
    3.1091   56.1742   29.4933 H   0  0  0  0  0  0
    1.5842   55.6583   27.6817 H   0  0  0  0  0  0
    3.1881   55.0391   27.3040 H   0  0  0  0  0  0
    4.0591   54.2895   30.8808 H   0  0  0  0  0  0
    4.5886   54.1323   29.2524 H   0  0  0  0  0  0
    3.7292   51.9465   30.1718 H   0  0  0  0  0  0
    1.2567   51.6962   30.5758 H   0  0  0  0  0  0
    1.9283   52.8436   31.6882 H   0  0  0  0  0  0
    3.6372   52.4843   27.7267 H   0  0  0  0  0  0
    2.3333   51.4104   28.2022 H   0  0  0  0  0  0
    1.7298   52.7168   22.5107 H   0  0  0  0  0  0
    1.9015   53.7974   23.8705 H   0  0  0  0  0  0
  1  6  2  0  0  0
  1  2  1  0  0  0
  1 32  1  0  0  0
  2  3  2  0  0  0
  2 33  1  0  0  0
  3  4  1  0  0  0
  3 34  1  0  0  0
  4  5  2  0  0  0
  4 31  1  0  0  0
  5  6  1  0  0  0
  5  7  1  0  0  0
  6 35  1  0  0  0
  7 12  1  0  0  0
  7  8  1  0  0  0
  8  9  1  0  0  0
  8 36  1  0  0  0
  8 37  1  0  0  0
  9 10  1  0  0  0
  9 38  1  0  0  0
  9 39  1  0  0  0
 10 11  1  0  0  0
 10 13  1  0  0  0
 11 12  1  0  0  0
 11 40  1  0  0  0
 11 41  1  0  0  0
 12 42  1  0  0  0
 12 43  1  0  0  0
 13 18  2  0  0  0
 13 14  1  0  0  0
 14 15  2  0  0  0
 14 30  1  0  0  0
 15 16  1  0  0  0
 15 19  1  0  0  0
 16 17  2  0  0  0
 17 18  1  0  0  0
 17 44  1  0  0  0
 19 20  1  0  0  0
 19 45  1  0  0  0
 20 25  1  0  0  0
 20 29  1  0  0  0
 20 21  1  0  0  0
 21 22  1  0  0  0
 21 46  1  0  0  0
 21 47  1  0  0  0
 22 28  1  0  0  0
 22 23  1  0  0  0
 22 48  1  0  0  0
 23 24  1  0  0  0
 23 49  1  0  0  0
 23 50  1  0  0  0
 24 25  1  0  0  0
 24 26  1  0  0  0
 24 51  1  0  0  0
 25 52  1  0  0  0
 25 53  1  0  0  0
 26 27  1  0  0  0
 26 54  1  0  0  0
 26 55  1  0  0  0
 27 28  1  0  0  0
 27 29  1  0  0  0
 27 56  1  0  0  0
 28 57  1  0  0  0
 28 58  1  0  0  0
 29 59  1  0  0  0
 29 60  1  0  0  0
 30 61  1  0  0  0
 30 62  1  0  0  0
M  END
> <i_i_glide_confnum>
247

> <i_i_glide_lignum>
3948

> <i_i_glide_posenum>
341

> <i_i_glide_rotatable_bonds>
4

> <i_m_Source_File_Index>
1892

> <b_m_subgroup_collapsed>
0

> <r_i_docking_score>
-4.48621

> <r_i_glide_ecoul>
-2.14918

> <r_i_glide_eff_state_penalty>
0

> <r_i_glide_einternal>
7.30504

> <r_i_glide_emodel>
-46.2069

> <r_i_glide_energy>
-39.6527

> <r_i_glide_erotb>
0.44385

> <r_i_glide_esite>
-0.0689029

> <r_i_glide_evdw>
-37.5035

> <r_i_glide_gscore>
-4.48621

> <r_i_glide_hbond>
0

> <r_i_glide_ligand_efficiency>
-0.144717

> <r_i_glide_ligand_efficiency_ln>
-1.01178

> <r_i_glide_ligand_efficiency_sa>
-0.45461

> <r_i_glide_lipo>
-1.97579

> <r_i_glide_metal>
0

> <r_i_glide_rewards>
-0.687812

> <s_i_glide_gridfile>
wee1_glide-grid

> <s_m_Source_File>
wee1_decoys_glide_SP.sdf

> <s_m_Source_Path>
/Users/zhangxujun/Desktop

> <s_m_entry_id>
2167

> <s_m_entry_name>
wee1_decoys_glide_SP.1892

> <s_m_subgroup_title>
wee1_decoys_glide_SP

> <s_m_subgroupid>
wee1_decoys_glide_SP


$$$$
