ZINC10272803_5025
                    3D
 Schrodinger Suite 2024-2.
 53 55  0  0  1  0            999 V2000
    4.7153   53.1058   28.6436 C   0  0  0  0  0  0
    3.3550   53.1535   29.3860 C   0  0  0  0  0  0
    3.5071   52.3232   30.6866 C   0  0  0  0  0  0
    3.0940   54.6052   29.8060 C   0  0  0  0  0  0
    2.1965   52.6782   28.4769 C   0  0  0  0  0  0
    1.2399   51.7448   28.9065 C   0  0  0  0  0  0
    0.1668   51.3894   28.0938 C   0  0  0  0  0  0
    0.0322   51.9686   26.8353 C   0  0  0  0  0  0
    0.9891   52.8791   26.3866 C   0  0  0  0  0  0
    2.0542   53.2369   27.2014 C   0  0  0  0  0  0
   -1.3796   51.5613   25.8033 S   0  0  0  0  0  0
   -2.1381   50.4970   26.4668 O   0  0  0  0  0  0
   -2.0525   52.8184   25.4575 O   0  0  0  0  0  0
   -0.6715   50.8572   24.3195 C   0  0  0  0  0  0
   -0.5556   49.4730   24.1809 C   0  0  0  0  0  0
    0.0168   48.8969   23.0906 N   0  0  0  0  0  0
    0.4934   49.7372   22.1350 C   0  0  0  0  0  0
    0.4005   51.0887   22.1668 N   0  0  0  0  0  0
   -0.1664   51.6308   23.2698 C   0  0  0  0  0  0
   -0.1655   52.8958   23.2814 O   0  5  0  0  0  0
    1.3291   48.9933   20.7599 S   0  0  0  0  0  0
    2.1510   50.3044   19.7797 C   0  0  0  0  0  0
    3.1412   51.1973   20.5450 C   0  0  0  0  0  0
    3.5043   50.8963   21.6814 O   0  0  0  0  0  0
    3.5836   52.2780   19.8718 N   0  0  0  0  0  0
    4.4787   53.2723   20.3033 C   0  0  0  0  0  0
    5.0415   54.0778   19.3079 C   0  0  0  0  0  0
    5.9486   55.0832   19.6407 C   0  0  0  0  0  0
    6.3030   55.2913   20.9725 C   0  0  0  0  0  0
    5.7434   54.4982   21.9765 C   0  0  0  0  0  0
    4.8232   53.5044   21.6472 C   0  0  0  0  0  0
    6.0886   54.6913   23.2705 F   0  0  0  0  0  0
    7.1940   56.2556   21.2835 F   0  0  0  0  0  0
    5.5264   53.4575   29.2813 H   0  0  0  0  0  0
    4.7339   53.7354   27.7541 H   0  0  0  0  0  0
    4.9696   52.0967   28.3328 H   0  0  0  0  0  0
    2.6040   52.3266   31.2988 H   0  0  0  0  0  0
    3.7693   51.2967   30.4551 H   0  0  0  0  0  0
    4.3045   52.7103   31.3222 H   0  0  0  0  0  0
    2.1401   54.7183   30.3240 H   0  0  0  0  0  0
    3.8904   54.8966   30.4813 H   0  0  0  0  0  0
    3.1004   55.2954   28.9609 H   0  0  0  0  0  0
    1.2934   51.2970   29.8827 H   0  0  0  0  0  0
   -0.5655   50.6775   28.4490 H   0  0  0  0  0  0
    0.8991   53.3486   25.4221 H   0  0  0  0  0  0
    2.7546   53.9718   26.8350 H   0  0  0  0  0  0
   -0.9053   48.8030   24.9538 H   0  0  0  0  0  0
    2.6923   49.8240   18.9624 H   0  0  0  0  0  0
    1.3751   50.9223   19.3286 H   0  0  0  0  0  0
    3.3196   52.3318   18.9001 H   0  0  0  0  0  0
    4.7879   53.9242   18.2673 H   0  0  0  0  0  0
    6.3838   55.6975   18.8646 H   0  0  0  0  0  0
    4.3950   52.9343   22.4557 H   0  0  0  0  0  0
  1  2  1  0  0  0
  1 34  1  0  0  0
  1 35  1  0  0  0
  1 36  1  0  0  0
  2  3  1  0  0  0
  2  4  1  0  0  0
  2  5  1  0  0  0
  3 37  1  0  0  0
  3 38  1  0  0  0
  3 39  1  0  0  0
  4 40  1  0  0  0
  4 41  1  0  0  0
  4 42  1  0  0  0
  5 10  2  0  0  0
  5  6  1  0  0  0
  6  7  2  0  0  0
  6 43  1  0  0  0
  7  8  1  0  0  0
  7 44  1  0  0  0
  8  9  2  0  0  0
  8 11  1  0  0  0
  9 10  1  0  0  0
  9 45  1  0  0  0
 10 46  1  0  0  0
 11 12  2  0  0  0
 11 13  2  0  0  0
 11 14  1  0  0  0
 14 19  2  0  0  0
 14 15  1  0  0  0
 15 47  1  0  0  0
 15 16  2  0  0  0
 16 17  1  0  0  0
 17 21  1  0  0  0
 17 18  2  0  0  0
 18 19  1  0  0  0
 19 20  1  0  0  0
 21 22  1  0  0  0
 22 23  1  0  0  0
 22 48  1  0  0  0
 22 49  1  0  0  0
 23 24  2  0  0  0
 23 25  1  0  0  0
 25 26  1  0  0  0
 25 50  1  0  0  0
 26 31  2  0  0  0
 26 27  1  0  0  0
 27 28  2  0  0  0
 27 51  1  0  0  0
 28 29  1  0  0  0
 28 52  1  0  0  0
 29 30  2  0  0  0
 29 33  1  0  0  0
 30 31  1  0  0  0
 30 32  1  0  0  0
 31 53  1  0  0  0
M  CHG  1  20  -1
M  END
> <i_i_glide_confnum>
3

> <i_i_glide_lignum>
5026

> <i_i_glide_posenum>
219

> <i_i_glide_rotatable_bonds>
8

> <i_m_Source_File_Index>
650

> <b_m_subgroup_collapsed>
0

> <r_i_docking_score>
-4.50081

> <r_i_glide_ecoul>
-2.86068

> <r_i_glide_eff_state_penalty>
0

> <r_i_glide_einternal>
4.2758

> <r_i_glide_emodel>
-56.6697

> <r_i_glide_energy>
-42.9866

> <r_i_glide_erotb>
0.503683

> <r_i_glide_esite>
-0.174439

> <r_i_glide_evdw>
-40.126

> <r_i_glide_gscore>
-4.50081

> <r_i_glide_hbond>
0

> <r_i_glide_ligand_efficiency>
-0.136388

> <r_i_glide_ligand_efficiency_ln>
-1.00096

> <r_i_glide_ligand_efficiency_sa>
-0.437469

> <r_i_glide_lipo>
-1.86845

> <r_i_glide_metal>
0

> <r_i_glide_rewards>
-0.526201

> <s_i_glide_gridfile>
wee1_glide-grid

> <s_m_Source_File>
wee1_decoys_glide_SP.sdf

> <s_m_Source_Path>
/Users/zhangxujun/Desktop

> <s_m_entry_id>
925

> <s_m_entry_name>
wee1_decoys_glide_SP.650

> <s_m_subgroup_title>
wee1_decoys_glide_SP

> <s_m_subgroupid>
wee1_decoys_glide_SP


$$$$
