ZINC12950916_2954
                    3D
 Schrodinger Suite 2024-2.
 51 53  0  0  1  0            999 V2000
   -4.2180   53.5177   24.7556 C   0  0  0  0  0  0
   -3.3491   52.4074   24.9375 O   0  0  0  0  0  0
   -2.1180   52.3841   24.3665 C   0  0  0  0  0  0
   -1.6557   53.2981   23.6817 O   0  0  0  0  0  0
   -1.3733   51.1478   24.6433 C   0  0  0  0  0  0
   -0.1011   50.7498   24.1796 C   0  0  0  0  0  0
    0.2882   49.5055   24.7222 C   0  0  0  0  0  0
   -0.6588   48.9538   25.5626 C   0  0  0  0  0  0
   -2.0738   49.9317   25.6818 S   0  0  0  0  0  0
    0.6465   51.5407   23.3102 N   0  0  0  0  0  0
    1.7637   51.1973   22.6353 C   0  0  0  0  0  0
    2.2988   50.0899   22.6849 O   0  0  0  0  0  0
    2.3607   52.3060   21.7581 C   0  0  0  0  0  0
    3.7537   51.7756   20.7090 S   0  0  0  0  0  0
    4.1425   53.1786   19.6900 C   0  0  0  0  0  0
    3.6883   53.1775   18.3712 C   0  0  0  0  0  0
    4.0038   54.2304   17.5169 C   0  0  0  0  0  0
    4.7875   55.2883   17.9744 C   0  0  0  0  0  0
    5.2640   55.2896   19.2851 C   0  0  0  0  0  0
    4.9508   54.2337   20.1578 C   0  0  0  0  0  0
    5.4218   54.1346   21.4797 N   0  0  0  0  0  0
    6.3067   54.8838   22.1645 C   0  0  0  0  0  0
    6.8780   55.8840   21.7302 O   0  0  0  0  0  0
    6.6109   54.3653   23.5764 C   0  0  0  0  0  0
    6.3078   55.5986   24.8768 S   0  0  0  0  0  0
    5.5794   54.7264   26.2125 C   0  0  0  0  0  0
    6.3775   54.3457   27.2872 C   0  0  0  0  0  0
    5.7968   53.6917   28.3669 C   0  0  0  0  0  0
    4.4299   53.4144   28.3606 C   0  0  0  0  0  0
    3.6348   53.7964   27.2794 C   0  0  0  0  0  0
    4.2120   54.4571   26.1980 C   0  0  0  0  0  0
    3.6444   52.4975   29.8341 Br  0  0  0  0  0  0
   -5.1643   53.3310   25.2639 H   0  0  0  0  0  0
   -4.4287   53.6842   23.6990 H   0  0  0  0  0  0
   -3.7883   54.4313   25.1662 H   0  0  0  0  0  0
    1.2310   49.0145   24.5359 H   0  0  0  0  0  0
   -0.5921   48.0363   26.1298 H   0  0  0  0  0  0
    0.2532   52.4520   23.1261 H   0  0  0  0  0  0
    1.5853   52.6999   21.1004 H   0  0  0  0  0  0
    2.6898   53.1223   22.4015 H   0  0  0  0  0  0
    3.1045   52.3443   18.0047 H   0  0  0  0  0  0
    3.6517   54.2207   16.4959 H   0  0  0  0  0  0
    5.0343   56.1020   17.3078 H   0  0  0  0  0  0
    5.8709   56.1270   19.5932 H   0  0  0  0  0  0
    5.0622   53.3187   21.9503 H   0  0  0  0  0  0
    6.0374   53.4640   23.8003 H   0  0  0  0  0  0
    7.6554   54.0627   23.6071 H   0  0  0  0  0  0
    7.4361   54.5643   27.2973 H   0  0  0  0  0  0
    6.4161   53.3993   29.2003 H   0  0  0  0  0  0
    2.5754   53.5806   27.2785 H   0  0  0  0  0  0
    3.6017   54.7657   25.3599 H   0  0  0  0  0  0
  1  2  1  0  0  0
  1 33  1  0  0  0
  1 34  1  0  0  0
  1 35  1  0  0  0
  2  3  1  0  0  0
  3  4  2  0  0  0
  3  5  1  0  0  0
  5  9  1  0  0  0
  5  6  2  0  0  0
  6  7  1  0  0  0
  6 10  1  0  0  0
  7  8  2  0  0  0
  7 36  1  0  0  0
  8  9  1  0  0  0
  8 37  1  0  0  0
 10 11  1  0  0  0
 10 38  1  0  0  0
 11 12  2  0  0  0
 11 13  1  0  0  0
 13 14  1  0  0  0
 13 39  1  0  0  0
 13 40  1  0  0  0
 14 15  1  0  0  0
 15 20  2  0  0  0
 15 16  1  0  0  0
 16 17  2  0  0  0
 16 41  1  0  0  0
 17 18  1  0  0  0
 17 42  1  0  0  0
 18 19  2  0  0  0
 18 43  1  0  0  0
 19 20  1  0  0  0
 19 44  1  0  0  0
 20 21  1  0  0  0
 21 22  1  0  0  0
 21 45  1  0  0  0
 22 23  2  0  0  0
 22 24  1  0  0  0
 24 25  1  0  0  0
 24 46  1  0  0  0
 24 47  1  0  0  0
 25 26  1  0  0  0
 26 31  2  0  0  0
 26 27  1  0  0  0
 27 28  2  0  0  0
 27 48  1  0  0  0
 28 29  1  0  0  0
 28 49  1  0  0  0
 29 30  2  0  0  0
 29 32  1  0  0  0
 30 31  1  0  0  0
 30 50  1  0  0  0
 31 51  1  0  0  0
M  END
> <i_i_glide_confnum>
58

> <i_i_glide_lignum>
2955

> <i_i_glide_posenum>
127

> <i_i_glide_rotatable_bonds>
12

> <i_m_Source_File_Index>
1531

> <b_m_subgroup_collapsed>
0

> <r_i_docking_score>
-6.4279

> <r_i_glide_ecoul>
-5.27222

> <r_i_glide_eff_state_penalty>
0

> <r_i_glide_einternal>
6.66409

> <r_i_glide_emodel>
-78.3901

> <r_i_glide_energy>
-58.7057

> <r_i_glide_erotb>
0.611646

> <r_i_glide_esite>
0

> <r_i_glide_evdw>
-53.4335

> <r_i_glide_gscore>
-6.4279

> <r_i_glide_hbond>
0

> <r_i_glide_ligand_efficiency>
-0.200872

> <r_i_glide_ligand_efficiency_ln>
-1.43938

> <r_i_glide_ligand_efficiency_sa>
-0.637728

> <r_i_glide_lipo>
-2.85327

> <r_i_glide_metal>
0

> <r_i_glide_rewards>
-0.723766

> <s_i_glide_gridfile>
wee1_glide-grid

> <s_m_Source_File>
wee1_decoys_glide_SP.sdf

> <s_m_Source_Path>
/Users/zhangxujun/Desktop

> <s_m_entry_id>
1806

> <s_m_entry_name>
wee1_decoys_glide_SP.1531

> <s_m_subgroup_title>
wee1_decoys_glide_SP

> <s_m_subgroupid>
wee1_decoys_glide_SP


$$$$
