ZINC04222001_862
                    3D
 Schrodinger Suite 2024-2.
 79 83  0  0  1  0            999 V2000
    1.4115   49.4754   23.3875 C   0  0  0  0  0  0
    1.1210   50.9736   23.1769 C   0  0  2  0  0  0
    0.0391   51.1137   23.1947 H   0  0  0  0  0  0
    1.6262   51.3729   21.7796 C   0  0  0  0  0  0
    2.5347   52.4090   21.5493 C   0  0  0  0  0  0
    2.9140   52.4967   19.8568 S   0  0  0  0  0  0
    1.7434   51.2325   19.5934 C   0  0  0  0  0  0
    1.2094   50.7502   20.6888 N   0  0  0  0  0  0
    1.4002   50.7285   18.3473 N   0  0  0  0  0  0
    1.5453   51.3355   17.1480 C   0  0  0  0  0  0
    1.9279   52.4971   16.9946 O   0  0  0  0  0  0
    1.0921   50.5260   15.9538 C   0  0  0  0  0  0
    1.1053   49.1236   15.9708 C   0  0  0  0  0  0
    0.6867   48.4005   14.8574 C   0  0  0  0  0  0
    0.2494   49.0645   13.7042 C   0  0  0  0  0  0
    0.2440   50.4573   13.6833 C   0  0  0  0  0  0
    0.6630   51.1840   14.7941 C   0  0  0  0  0  0
   -0.1800   48.4322   12.5546 O   0  0  0  0  0  0
   -0.2059   47.0102   12.5113 C   0  0  0  0  0  0
    3.1216   53.3012   22.6159 C   0  0  0  0  0  0
    2.1360   53.3513   23.8242 C   0  0  1  0  0  0
    1.7489   51.9012   24.2948 C   0  0  1  0  0  0
    2.7043   51.4802   24.4816 H   0  0  0  0  0  0
    1.0229   51.9120   25.6996 C   0  0  2  0  0  0
    0.0720   52.4251   25.5459 H   0  0  0  0  0  0
    1.8211   52.6845   26.8095 C   0  0  1  0  0  0
    2.7751   52.1882   26.8882 H   0  0  0  0  0  0
    2.0806   54.0936   26.2765 C   0  0  0  0  0  0
    2.8778   54.0902   24.9677 C   0  0  0  0  0  0
    1.1639   52.6917   28.2443 C   0  0  2  0  0  0
    1.1178   51.6445   28.5487 H   0  0  0  0  0  0
   -0.3055   53.1774   28.2595 C   0  0  0  0  0  0
    1.9731   53.3554   29.4058 C   0  0  0  0  0  0
    1.4196   53.5975   30.4778 O   0  0  0  0  0  0
    3.3047   53.5490   29.3039 N   0  0  0  0  0  0
    4.1669   52.3795   29.4435 C   0  0  0  0  0  0
    5.1686   52.4273   28.2868 C   0  0  0  0  0  0
    5.0261   54.8958   28.0777 C   0  0  0  0  0  0
    3.8960   54.8968   29.1449 C   0  0  0  0  0  0
    7.0630   53.6941   27.1875 C   0  0  0  0  0  0
    0.6934   50.6316   26.1983 O   0  0  0  0  0  0
    0.8636   54.1020   23.4014 C   0  0  0  0  0  0
    0.9047   48.8666   22.6403 H   0  0  0  0  0  0
    2.4808   49.2969   23.2823 H   0  0  0  0  0  0
    1.1040   49.0908   24.3551 H   0  0  0  0  0  0
    0.8604   49.8785   18.3495 H   0  0  0  0  0  0
    1.4685   48.5783   16.8312 H   0  0  0  0  0  0
    0.7203   47.3235   14.9055 H   0  0  0  0  0  0
   -0.0831   50.9758   12.7942 H   0  0  0  0  0  0
    0.6472   52.2633   14.7469 H   0  0  0  0  0  0
   -0.5602   46.6855   11.5341 H   0  0  0  0  0  0
    0.7876   46.5864   12.6578 H   0  0  0  0  0  0
   -0.8860   46.6009   13.2596 H   0  0  0  0  0  0
    3.3208   54.2983   22.2225 H   0  0  0  0  0  0
    4.0908   52.8953   22.9043 H   0  0  0  0  0  0
    1.1044   54.4966   26.1727 H   0  0  0  0  0  0
    2.5635   54.7344   26.9947 H   0  0  0  0  0  0
    3.1005   55.1145   24.6671 H   0  0  0  0  0  0
    3.8476   53.6243   25.1484 H   0  0  0  0  0  0
   -0.7730   52.9813   29.2255 H   0  0  0  0  0  0
   -0.3774   54.2489   28.0834 H   0  0  0  0  0  0
   -0.9229   52.6670   27.5215 H   0  0  0  0  0  0
    3.6073   51.4450   29.3623 H   0  0  0  0  0  0
    4.6717   52.3878   30.4074 H   0  0  0  0  0  0
    5.9136   51.6967   28.4817 H   0  0  0  0  0  0
    4.8011   52.1025   27.3145 H   0  0  0  0  0  0
    5.7262   55.6967   28.2646 H   0  0  0  0  0  0
    4.6992   54.9319   27.0407 H   0  0  0  0  0  0
    4.3460   55.2059   30.0817 H   0  0  0  0  0  0
    3.1354   55.6337   28.8763 H   0  0  0  0  0  0
    6.5754   53.5760   26.2163 H   0  0  0  0  0  0
    7.6029   54.6363   27.2605 H   0  0  0  0  0  0
    7.7189   52.8537   27.4094 H   0  0  0  0  0  0
   -0.0449   50.2723   25.7022 H   0  0  0  0  0  0
    0.3044   53.4702   22.7227 H   0  0  0  0  0  0
    0.1949   54.3401   24.2198 H   0  0  0  0  0  0
    1.1038   55.0291   22.8822 H   0  0  0  0  0  0
    5.9781   53.7208   28.2832 N   0  3  0  0  0  0
    6.4182   53.8231   29.1901 H   0  0  0  0  0  0
  1  2  1  0  0  0
  1 43  1  0  0  0
  1 44  1  0  0  0
  1 45  1  0  0  0
  2  3  1  0  0  0
  2 22  1  0  0  0
  2  4  1  0  0  0
  4  8  1  0  0  0
  4  5  2  0  0  0
  5  6  1  0  0  0
  5 20  1  0  0  0
  6  7  1  0  0  0
  7  8  2  0  0  0
  7  9  1  0  0  0
  9 10  1  0  0  0
  9 46  1  0  0  0
 10 11  2  0  0  0
 10 12  1  0  0  0
 12 17  2  0  0  0
 12 13  1  0  0  0
 13 14  2  0  0  0
 13 47  1  0  0  0
 14 15  1  0  0  0
 14 48  1  0  0  0
 15 16  2  0  0  0
 15 18  1  0  0  0
 16 17  1  0  0  0
 16 49  1  0  0  0
 17 50  1  0  0  0
 18 19  1  0  0  0
 19 51  1  0  0  0
 19 52  1  0  0  0
 19 53  1  0  0  0
 20 21  1  0  0  0
 20 54  1  0  0  0
 20 55  1  0  0  0
 21 29  1  0  0  0
 21 22  1  0  0  0
 21 42  1  0  0  0
 22 23  1  0  0  0
 22 24  1  0  0  0
 24 25  1  0  0  0
 24 26  1  0  0  0
 24 41  1  0  0  0
 26 27  1  0  0  0
 26 28  1  0  0  0
 26 30  1  0  0  0
 28 29  1  0  0  0
 28 56  1  0  0  0
 28 57  1  0  0  0
 29 58  1  0  0  0
 29 59  1  0  0  0
 30 31  1  0  0  0
 30 32  1  0  0  0
 30 33  1  0  0  0
 32 60  1  0  0  0
 32 61  1  0  0  0
 32 62  1  0  0  0
 33 34  2  0  0  0
 33 35  1  0  0  0
 35 39  1  0  0  0
 35 36  1  0  0  0
 36 37  1  0  0  0
 36 63  1  0  0  0
 36 64  1  0  0  0
 37 65  1  0  0  0
 37 66  1  0  0  0
 37 78  1  0  0  0
 38 39  1  0  0  0
 38 67  1  0  0  0
 38 68  1  0  0  0
 38 78  1  0  0  0
 39 69  1  0  0  0
 39 70  1  0  0  0
 40 71  1  0  0  0
 40 72  1  0  0  0
 40 73  1  0  0  0
 40 78  1  0  0  0
 41 74  1  0  0  0
 42 75  1  0  0  0
 42 76  1  0  0  0
 42 77  1  0  0  0
 78 79  1  0  0  0
M  CHG  1  78   1
M  END
> <i_i_glide_confnum>
16

> <i_i_glide_lignum>
863

> <i_i_glide_posenum>
332

> <i_i_glide_rotatable_bonds>
8

> <i_m_Source_File_Index>
5142

> <b_m_subgroup_collapsed>
0

> <r_i_docking_score>
2.41813

> <r_i_glide_ecoul>
0.675575

> <r_i_glide_eff_state_penalty>
0

> <r_i_glide_einternal>
13.3551

> <r_i_glide_emodel>
6.47519

> <r_i_glide_energy>
-18.7686

> <r_i_glide_erotb>
0.422851

> <r_i_glide_esite>
-0.0948501

> <r_i_glide_evdw>
-19.4442

> <r_i_glide_gscore>
2.41813

> <r_i_glide_hbond>
-0.0883399

> <r_i_glide_ligand_efficiency>
0.0636349

> <r_i_glide_ligand_efficiency_ln>
0.521419

> <r_i_glide_ligand_efficiency_sa>
0.213939

> <r_i_glide_lipo>
-2.44613

> <r_i_glide_metal>
0

> <r_i_glide_rewards>
5.49547

> <s_i_glide_gridfile>
wee1_glide-grid

> <s_m_Source_File>
wee1_decoys_glide_SP.sdf

> <s_m_Source_Path>
/Users/zhangxujun/Desktop

> <s_m_entry_id>
5417

> <s_m_entry_name>
wee1_decoys_glide_SP.5142

> <s_m_subgroup_title>
wee1_decoys_glide_SP

> <s_m_subgroupid>
wee1_decoys_glide_SP


$$$$
