ZINC57003558_1811
                    3D
 Schrodinger Suite 2024-2.
 44 47  0  0  1  0            999 V2000
    1.0237   53.1771   23.0958 C   0  0  0  0  0  0
    1.7598   51.9966   23.1690 C   0  0  0  0  0  0
    1.3031   50.9421   23.9583 C   0  0  0  0  0  0
    0.1033   51.0672   24.6593 C   0  0  0  0  0  0
   -0.6702   52.2215   24.5405 C   0  0  0  0  0  0
   -0.1925   53.2875   23.7778 C   0  0  0  0  0  0
   -1.9284   52.1234   25.3866 C   0  0  0  0  0  0
   -1.9141   50.6783   25.9155 C   0  0  1  0  0  0
   -2.5480   50.0946   25.2440 H   0  0  0  0  0  0
   -0.4818   50.1452   25.7029 C   0  0  2  0  0  0
   -0.5560   49.1323   25.3050 H   0  0  0  0  0  0
    0.3965   50.0967   26.8803 N   0  0  0  0  0  0
    0.8706   51.0703   27.6805 C   0  0  0  0  0  0
    1.9047   50.8967   28.3124 O   0  0  0  0  0  0
    0.1617   52.2022   27.7674 N   0  0  0  0  0  0
    0.6460   53.4618   28.3426 C   0  0  1  0  0  0
    0.0206   54.1865   27.8347 H   0  0  0  0  0  0
    0.3672   53.6101   29.8508 C   0  0  0  0  0  0
    1.4998   52.9823   30.6771 C   0  0  0  0  0  0
    2.7521   53.6195   30.3919 O   0  0  0  0  0  0
    3.0629   53.8248   29.0624 C   0  0  0  0  0  0
    2.1042   53.8244   28.0317 C   0  0  0  0  0  0
    2.5536   54.0345   26.7217 C   0  0  0  0  0  0
    3.8979   54.2879   26.4481 C   0  0  0  0  0  0
    4.8246   54.3264   27.4879 C   0  0  0  0  0  0
    4.4043   54.0986   28.7962 C   0  0  0  0  0  0
   -2.4667   50.4979   27.2098 O   0  0  0  0  0  0
    1.3961   54.0026   22.5039 H   0  0  0  0  0  0
    2.6972   51.9112   22.6391 H   0  0  0  0  0  0
    1.9087   50.0541   24.0800 H   0  0  0  0  0  0
   -0.7559   54.2049   23.7155 H   0  0  0  0  0  0
   -1.8992   52.8372   26.2086 H   0  0  0  0  0  0
   -2.8358   52.3095   24.8113 H   0  0  0  0  0  0
    0.7993   49.1859   27.0514 H   0  0  0  0  0  0
   -0.8050   52.1626   27.4807 H   0  0  0  0  0  0
    0.3064   54.6670   30.1136 H   0  0  0  0  0  0
   -0.5850   53.1526   30.1216 H   0  0  0  0  0  0
    1.2797   53.0988   31.7390 H   0  0  0  0  0  0
    1.5658   51.9109   30.5006 H   0  0  0  0  0  0
    1.8500   53.9885   25.9033 H   0  0  0  0  0  0
    4.2196   54.4467   25.4293 H   0  0  0  0  0  0
    5.8656   54.5271   27.2826 H   0  0  0  0  0  0
    5.1181   54.1300   29.6036 H   0  0  0  0  0  0
   -2.1701   49.6351   27.5692 H   0  0  0  0  0  0
  1  6  2  0  0  0
  1  2  1  0  0  0
  1 28  1  0  0  0
  2  3  2  0  0  0
  2 29  1  0  0  0
  3  4  1  0  0  0
  3 30  1  0  0  0
  4 10  1  0  0  0
  4  5  2  0  0  0
  5  6  1  0  0  0
  5  7  1  0  0  0
  6 31  1  0  0  0
  7  8  1  0  0  0
  7 32  1  0  0  0
  7 33  1  0  0  0
  8  9  1  0  0  0
  8 10  1  0  0  0
  8 27  1  0  0  0
 10 11  1  0  0  0
 10 12  1  0  0  0
 12 13  1  0  0  0
 12 34  1  0  0  0
 13 14  2  0  0  0
 13 15  1  0  0  0
 15 16  1  0  0  0
 15 35  1  0  0  0
 16 17  1  0  0  0
 16 22  1  0  0  0
 16 18  1  0  0  0
 18 19  1  0  0  0
 18 36  1  0  0  0
 18 37  1  0  0  0
 19 20  1  0  0  0
 19 38  1  0  0  0
 19 39  1  0  0  0
 20 21  1  0  0  0
 21 26  2  0  0  0
 21 22  1  0  0  0
 22 23  2  0  0  0
 23 24  1  0  0  0
 23 40  1  0  0  0
 24 25  2  0  0  0
 24 41  1  0  0  0
 25 26  1  0  0  0
 25 42  1  0  0  0
 26 43  1  0  0  0
 27 44  1  0  0  0
M  END
> <i_i_glide_confnum>
20

> <i_i_glide_lignum>
1812

> <i_i_glide_posenum>
313

> <i_i_glide_rotatable_bonds>
5

> <i_m_Source_File_Index>
4865

> <b_m_subgroup_collapsed>
0

> <r_i_docking_score>
-4.9938

> <r_i_glide_ecoul>
-10.2767

> <r_i_glide_eff_state_penalty>
0

> <r_i_glide_einternal>
7.0153

> <r_i_glide_emodel>
-39.9555

> <r_i_glide_energy>
-33.6816

> <r_i_glide_erotb>
0.533941

> <r_i_glide_esite>
-0.0914901

> <r_i_glide_evdw>
-23.4049

> <r_i_glide_gscore>
-4.9938

> <r_i_glide_hbond>
-0.456

> <r_i_glide_ligand_efficiency>
-0.208075

> <r_i_glide_ligand_efficiency_ln>
-1.19524

> <r_i_glide_ligand_efficiency_sa>
-0.600192

> <r_i_glide_lipo>
-2.17048

> <r_i_glide_metal>
0

> <r_i_glide_rewards>
-0.0980222

> <s_i_glide_gridfile>
wee1_glide-grid

> <s_m_Source_File>
wee1_decoys_glide_SP.sdf

> <s_m_Source_Path>
/Users/zhangxujun/Desktop

> <s_m_entry_id>
5140

> <s_m_entry_name>
wee1_decoys_glide_SP.4865

> <s_m_subgroup_title>
wee1_decoys_glide_SP

> <s_m_subgroupid>
wee1_decoys_glide_SP


$$$$
