ZINC39992669_5415
                    3D
 Schrodinger Suite 2024-2.
 67 71  0  0  1  0            999 V2000
    5.9521   54.5565   26.1600 C   0  0  0  0  0  0
    6.3004   54.4973   27.5087 C   0  0  0  0  0  0
    5.3002   54.4362   28.4752 C   0  0  0  0  0  0
    3.9560   54.3789   28.1031 C   0  0  0  0  0  0
    3.6189   54.4946   26.7493 C   0  0  0  0  0  0
    4.6140   54.5715   25.7776 C   0  0  0  0  0  0
    3.0103   54.2711   29.1049 O   0  0  0  0  0  0
    1.9231   53.4102   29.0514 C   0  0  0  0  0  0
    1.0154   53.4780   30.1121 C   0  0  0  0  0  0
   -0.0949   52.6359   30.1594 C   0  0  0  0  0  0
   -0.3442   51.7522   29.1132 C   0  0  0  0  0  0
    0.5278   51.6752   28.0265 C   0  0  0  0  0  0
    1.6827   52.4709   28.0311 C   0  0  0  0  0  0
    0.1957   50.7779   26.8965 C   0  0  0  0  0  0
    0.3413   51.0713   25.5805 C   0  0  0  0  0  0
    0.8114   52.3468   25.1249 C   0  0  0  0  0  0
    1.1832   53.3370   24.6572 N   0  0  0  0  0  0
    0.0136   50.0901   24.5567 C   0  0  0  0  0  0
   -0.6974   49.1061   24.7731 O   0  0  0  0  0  0
    0.5654   50.3831   23.3559 N   0  0  0  0  0  0
    0.4451   49.7457   22.1291 C   0  0  0  0  0  0
    1.3083   49.9293   21.0278 C   0  0  0  0  0  0
    1.0149   49.0039   19.9843 C   0  0  0  0  0  0
   -0.1511   48.2603   20.2429 C   0  0  0  0  0  0
   -0.8402   48.6189   21.7857 S   0  0  0  0  0  0
   -0.7292   47.1816   19.3380 C   0  0  0  0  0  0
   -0.1472   47.3456   17.9218 C   0  0  0  0  0  0
    1.3796   47.5098   17.9554 C   0  0  0  0  0  0
    1.8227   48.7937   18.6906 C   0  0  0  0  0  0
    2.4641   50.8206   21.0189 C   0  0  0  0  0  0
    3.5137   50.4966   20.4819 O   0  0  0  0  0  0
    2.3364   51.9968   21.6673 N   0  0  0  0  0  0
    3.4388   52.9448   21.8860 C   0  0  0  0  0  0
    3.9456   53.6842   20.6225 C   0  0  2  0  0  0
    3.1099   54.0964   20.0573 H   0  0  0  0  0  0
    5.0245   53.0044   19.7762 C   0  0  0  0  0  0
    5.9029   54.1185   19.2564 C   0  0  0  0  0  0
    5.5980   55.2922   20.1801 C   0  0  0  0  0  0
    4.7034   54.7714   21.1598 O   0  0  0  0  0  0
    6.7208   54.6044   25.4043 H   0  0  0  0  0  0
    7.3381   54.5188   27.8061 H   0  0  0  0  0  0
    5.5622   54.4449   29.5230 H   0  0  0  0  0  0
    2.5846   54.5018   26.4555 H   0  0  0  0  0  0
    4.3467   54.6358   24.7333 H   0  0  0  0  0  0
    1.1783   54.1815   30.9139 H   0  0  0  0  0  0
   -0.7640   52.6731   31.0073 H   0  0  0  0  0  0
   -1.2217   51.1191   29.1510 H   0  0  0  0  0  0
    2.3904   52.3528   27.2277 H   0  0  0  0  0  0
   -0.1718   49.8009   27.1884 H   0  0  0  0  0  0
    1.2604   51.1161   23.3684 H   0  0  0  0  0  0
   -0.4669   46.1965   19.7262 H   0  0  0  0  0  0
   -1.8175   47.2279   19.3064 H   0  0  0  0  0  0
   -0.4181   46.4819   17.3118 H   0  0  0  0  0  0
   -0.5979   48.2133   17.4328 H   0  0  0  0  0  0
    1.8258   46.6406   18.4405 H   0  0  0  0  0  0
    1.7806   47.5211   16.9403 H   0  0  0  0  0  0
    1.7001   49.6551   18.0341 H   0  0  0  0  0  0
    2.8937   48.7134   18.8823 H   0  0  0  0  0  0
    1.4081   52.3405   21.8603 H   0  0  0  0  0  0
    3.1028   53.6737   22.6239 H   0  0  0  0  0  0
    4.2726   52.4219   22.3533 H   0  0  0  0  0  0
    5.5955   52.3025   20.3813 H   0  0  0  0  0  0
    4.5810   52.4072   18.9807 H   0  0  0  0  0  0
    6.9596   53.8450   19.2737 H   0  0  0  0  0  0
    5.6439   54.3697   18.2257 H   0  0  0  0  0  0
    6.4908   55.6894   20.6638 H   0  0  0  0  0  0
    5.1240   56.1125   19.6385 H   0  0  0  0  0  0
  1  6  2  0  0  0
  1  2  1  0  0  0
  1 40  1  0  0  0
  2  3  2  0  0  0
  2 41  1  0  0  0
  3  4  1  0  0  0
  3 42  1  0  0  0
  4  5  2  0  0  0
  4  7  1  0  0  0
  5  6  1  0  0  0
  5 43  1  0  0  0
  6 44  1  0  0  0
  7  8  1  0  0  0
  8 13  2  0  0  0
  8  9  1  0  0  0
  9 10  2  0  0  0
  9 45  1  0  0  0
 10 11  1  0  0  0
 10 46  1  0  0  0
 11 12  2  0  0  0
 11 47  1  0  0  0
 12 13  1  0  0  0
 12 14  1  0  0  0
 13 48  1  0  0  0
 14 15  2  0  0  0
 14 49  1  0  0  0
 15 16  1  0  0  0
 15 18  1  0  0  0
 16 17  3  0  0  0
 18 19  2  0  0  0
 18 20  1  0  0  0
 20 21  1  0  0  0
 20 50  1  0  0  0
 21 25  1  0  0  0
 21 22  2  0  0  0
 22 23  1  0  0  0
 22 30  1  0  0  0
 23 29  1  0  0  0
 23 24  2  0  0  0
 24 25  1  0  0  0
 24 26  1  0  0  0
 26 27  1  0  0  0
 26 51  1  0  0  0
 26 52  1  0  0  0
 27 28  1  0  0  0
 27 53  1  0  0  0
 27 54  1  0  0  0
 28 29  1  0  0  0
 28 55  1  0  0  0
 28 56  1  0  0  0
 29 57  1  0  0  0
 29 58  1  0  0  0
 30 31  2  0  0  0
 30 32  1  0  0  0
 32 33  1  0  0  0
 32 59  1  0  0  0
 33 34  1  0  0  0
 33 60  1  0  0  0
 33 61  1  0  0  0
 34 35  1  0  0  0
 34 39  1  0  0  0
 34 36  1  0  0  0
 36 37  1  0  0  0
 36 62  1  0  0  0
 36 63  1  0  0  0
 37 38  1  0  0  0
 37 64  1  0  0  0
 37 65  1  0  0  0
 38 39  1  0  0  0
 38 66  1  0  0  0
 38 67  1  0  0  0
M  END
> <i_i_glide_confnum>
697

> <i_i_glide_lignum>
5416

> <i_i_glide_posenum>
301

> <i_i_glide_rotatable_bonds>
11

> <i_m_Source_File_Index>
4718

> <b_m_subgroup_collapsed>
0

> <r_i_docking_score>
-4.70301

> <r_i_glide_ecoul>
-2.17381

> <r_i_glide_eff_state_penalty>
0

> <r_i_glide_einternal>
9.19666

> <r_i_glide_emodel>
-61.7969

> <r_i_glide_energy>
-50.7482

> <r_i_glide_erotb>
0.739819

> <r_i_glide_esite>
-0.00748699

> <r_i_glide_evdw>
-48.5744

> <r_i_glide_gscore>
-4.70301

> <r_i_glide_hbond>
-0.0662204

> <r_i_glide_ligand_efficiency>
-0.123763

> <r_i_glide_ligand_efficiency_ln>
-1.01411

> <r_i_glide_ligand_efficiency_sa>
-0.416089

> <r_i_glide_lipo>
-2.32642

> <r_i_glide_metal>
0

> <r_i_glide_rewards>
-0.287909

> <s_i_glide_gridfile>
wee1_glide-grid

> <s_m_Source_File>
wee1_decoys_glide_SP.sdf

> <s_m_Source_Path>
/Users/zhangxujun/Desktop

> <s_m_entry_id>
4993

> <s_m_entry_name>
wee1_decoys_glide_SP.4718

> <s_m_subgroup_title>
wee1_decoys_glide_SP

> <s_m_subgroupid>
wee1_decoys_glide_SP


$$$$
