ZINC35024451_4391
                    3D
 Schrodinger Suite 2024-2.
 70 73  0  0  1  0            999 V2000
   -4.9278   48.7101   22.7743 C   0  0  0  0  0  0
   -3.6342   48.1339   23.3880 C   0  0  2  0  0  0
   -3.9239   47.2768   23.9966 H   0  0  0  0  0  0
   -2.8994   49.1311   24.3129 C   0  0  0  0  0  0
   -3.7417   49.8341   25.3998 C   0  0  0  0  0  0
   -2.9089   50.7347   26.3423 C   0  0  0  0  0  0
   -1.9724   51.7076   25.6086 C   0  0  0  0  0  0
   -2.4472   52.5491   24.8451 O   0  0  0  0  0  0
   -0.5382   51.5380   25.8366 C   0  0  0  0  0  0
    0.4803   51.8491   24.9991 C   0  0  0  0  0  0
    0.4152   52.3677   23.6422 C   0  0  0  0  0  0
    0.7103   53.5346   23.4097 O   0  0  0  0  0  0
    0.1066   51.4099   22.6981 O   0  0  0  0  0  0
    0.8103   51.1636   21.4341 C   0  0  1  0  0  0
   -0.1362   50.2194   20.5780 C   0  0  1  0  0  0
    0.5099   49.6636   19.8999 H   0  0  0  0  0  0
   -0.7994   49.0992   21.4073 C   0  0  0  0  0  0
   -2.0924   48.7163   21.4103 C   0  0  0  0  0  0
   -2.6676   47.6181   22.2940 C   0  0  0  0  0  0
   -1.1130   51.0115   19.6445 C   0  0  1  0  0  0
   -1.8612   51.4973   20.2747 H   0  0  0  0  0  0
   -0.4161   52.1123   18.8265 C   0  0  0  0  0  0
   -1.0816   52.8751   17.9379 C   0  0  0  0  0  0
    1.0752   52.3175   19.1032 C   0  0  1  0  0  0
    1.3412   53.2974   18.7037 H   0  0  0  0  0  0
    1.2700   52.4273   20.6464 C   0  0  2  0  0  0
    0.6651   53.2867   20.9461 H   0  0  0  0  0  0
    2.7047   52.6984   21.1526 C   0  0  1  0  0  0
    2.6351   53.3765   22.0001 H   0  0  0  0  0  0
    3.1213   51.3914   21.6369 N   0  0  0  0  0  0
    2.1575   50.4658   21.7601 C   0  0  0  0  0  0
    2.3114   49.2922   22.0816 O   0  0  0  0  0  0
    3.7500   53.3331   20.1962 C   0  0  0  0  0  0
    4.9393   54.0304   20.8674 C   0  0  0  0  0  0
    5.2604   53.8407   22.2201 C   0  0  0  0  0  0
    6.3306   54.5211   22.7894 C   0  0  0  0  0  0
    7.0852   55.3905   22.0077 C   0  0  0  0  0  0
    6.7896   55.5764   20.6603 C   0  0  0  0  0  0
    5.7190   54.8939   20.0917 C   0  0  0  0  0  0
    1.9032   51.3092   18.2619 C   0  0  0  0  0  0
   -1.8290   50.1733   18.7516 O   0  0  0  0  0  0
   -5.3809   48.0065   22.0775 H   0  0  0  0  0  0
   -5.6733   48.9242   23.5392 H   0  0  0  0  0  0
   -4.7394   49.6365   22.2337 H   0  0  0  0  0  0
   -2.0628   48.6191   24.7906 H   0  0  0  0  0  0
   -2.4552   49.9054   23.6903 H   0  0  0  0  0  0
   -4.5204   50.4391   24.9326 H   0  0  0  0  0  0
   -4.2580   49.0806   25.9976 H   0  0  0  0  0  0
   -3.5688   51.3108   26.9906 H   0  0  0  0  0  0
   -2.3118   50.0960   26.9974 H   0  0  0  0  0  0
   -0.2890   51.1206   26.8016 H   0  0  0  0  0  0
    1.4926   51.7012   25.3392 H   0  0  0  0  0  0
   -0.1272   48.5708   22.0689 H   0  0  0  0  0  0
   -2.8171   49.2156   20.7849 H   0  0  0  0  0  0
   -1.8478   47.0733   22.7670 H   0  0  0  0  0  0
   -3.1730   46.8926   21.6539 H   0  0  0  0  0  0
   -2.1362   52.7295   17.7552 H   0  0  0  0  0  0
   -0.5807   53.6536   17.3792 H   0  0  0  0  0  0
    4.0725   51.2100   21.9150 H   0  0  0  0  0  0
    4.1477   52.5996   19.4958 H   0  0  0  0  0  0
    3.2546   54.0925   19.5936 H   0  0  0  0  0  0
    4.6896   53.1788   22.8525 H   0  0  0  0  0  0
    6.5735   54.3792   23.8317 H   0  0  0  0  0  0
    7.9045   55.9301   22.4554 H   0  0  0  0  0  0
    7.3871   56.2417   20.0547 H   0  0  0  0  0  0
    5.4891   55.0436   19.0467 H   0  0  0  0  0  0
    2.1568   51.7322   17.2897 H   0  0  0  0  0  0
    2.8390   51.0263   18.7391 H   0  0  0  0  0  0
    1.3743   50.3812   18.0532 H   0  0  0  0  0  0
   -1.1951   49.7527   18.1648 H   0  0  0  0  0  0
  1  2  1  0  0  0
  1 42  1  0  0  0
  1 43  1  0  0  0
  1 44  1  0  0  0
  2  3  1  0  0  0
  2 19  1  0  0  0
  2  4  1  0  0  0
  4  5  1  0  0  0
  4 45  1  0  0  0
  4 46  1  0  0  0
  5  6  1  0  0  0
  5 47  1  0  0  0
  5 48  1  0  0  0
  6  7  1  0  0  0
  6 49  1  0  0  0
  6 50  1  0  0  0
  7  8  2  0  0  0
  7  9  1  0  0  0
  9 10  2  0  0  0
  9 51  1  0  0  0
 10 11  1  0  0  0
 10 52  1  0  0  0
 11 12  2  0  0  0
 11 13  1  0  0  0
 13 14  1  0  0  0
 14 26  1  0  0  0
 14 31  1  0  0  0
 14 15  1  0  0  0
 15 16  1  0  0  0
 15 17  1  0  0  0
 15 20  1  0  0  0
 17 18  2  0  0  0
 17 53  1  0  0  0
 18 19  1  0  0  0
 18 54  1  0  0  0
 19 55  1  0  0  0
 19 56  1  0  0  0
 20 21  1  0  0  0
 20 22  1  0  0  0
 20 41  1  0  0  0
 22 23  2  0  0  0
 22 24  1  0  0  0
 23 57  1  0  0  0
 23 58  1  0  0  0
 24 25  1  0  0  0
 24 26  1  0  0  0
 24 40  1  0  0  0
 26 27  1  0  0  0
 26 28  1  0  0  0
 28 29  1  0  0  0
 28 30  1  0  0  0
 28 33  1  0  0  0
 30 31  1  0  0  0
 30 59  1  0  0  0
 31 32  2  0  0  0
 33 34  1  0  0  0
 33 60  1  0  0  0
 33 61  1  0  0  0
 34 39  2  0  0  0
 34 35  1  0  0  0
 35 36  2  0  0  0
 35 62  1  0  0  0
 36 37  1  0  0  0
 36 63  1  0  0  0
 37 38  2  0  0  0
 37 64  1  0  0  0
 38 39  1  0  0  0
 38 65  1  0  0  0
 39 66  1  0  0  0
 40 67  1  0  0  0
 40 68  1  0  0  0
 40 69  1  0  0  0
 41 70  1  0  0  0
M  END
> <i_i_glide_confnum>
10

> <i_i_glide_lignum>
4392

> <i_i_glide_posenum>
117

> <i_i_glide_rotatable_bonds>
3

> <i_m_Source_File_Index>
5591

> <b_m_subgroup_collapsed>
0

> <r_i_docking_score>
-3.5752

> <r_i_glide_ecoul>
-3.06586

> <r_i_glide_eff_state_penalty>
0

> <r_i_glide_einternal>
9.20415

> <r_i_glide_emodel>
-39.5362

> <r_i_glide_energy>
-36.5223

> <r_i_glide_erotb>
0.177631

> <r_i_glide_esite>
-0.016035

> <r_i_glide_evdw>
-33.4564

> <r_i_glide_gscore>
-3.5752

> <r_i_glide_hbond>
0

> <r_i_glide_ligand_efficiency>
-0.102149

> <r_i_glide_ligand_efficiency_ln>
-0.784835

> <r_i_glide_ligand_efficiency_sa>
-0.334135

> <r_i_glide_lipo>
-1.10747

> <r_i_glide_metal>
0

> <r_i_glide_rewards>
-0.496622

> <s_i_glide_gridfile>
wee1_glide-grid

> <s_m_Source_File>
wee1_decoys_glide_SP.sdf

> <s_m_Source_Path>
/Users/zhangxujun/Desktop

> <s_m_entry_id>
5866

> <s_m_entry_name>
wee1_decoys_glide_SP.5591

> <s_m_subgroup_title>
wee1_decoys_glide_SP

> <s_m_subgroupid>
wee1_decoys_glide_SP


$$$$
