ZINC35456497_5953
                    3D
 Schrodinger Suite 2024-2.
 51 54  0  0  1  0            999 V2000
    6.7017   55.0308   26.7002 C   0  0  0  0  0  0
    6.9108   54.2628   25.3890 C   0  0  0  0  0  0
    6.0117   54.6224   24.1912 C   0  0  0  0  0  0
    4.5491   54.2224   24.2747 C   0  0  0  0  0  0
    3.6245   53.9060   23.2486 C   0  0  0  0  0  0
    2.4702   53.5668   23.9680 C   0  0  0  0  0  0
    2.7536   53.7084   25.3139 N   0  0  0  0  0  0
    4.0035   54.1501   25.4602 N   0  0  0  0  0  0
    1.9954   53.4573   26.4957 C   0  0  0  0  0  0
    2.3125   54.1449   27.6806 C   0  0  0  0  0  0
    1.6474   53.8609   28.8642 C   0  0  0  0  0  0
    0.6669   52.8778   28.8794 C   0  0  0  0  0  0
    0.3195   52.1991   27.7117 C   0  0  0  0  0  0
    0.9785   52.4936   26.5175 C   0  0  0  0  0  0
   -0.0956   52.4971   30.3741 Cl  0  0  0  0  0  0
    1.3337   53.2103   23.5194 O   0  5  0  0  0  0
    3.7893   53.8730   21.7875 C   0  0  0  0  0  0
    4.7043   54.4802   20.9907 C   0  0  0  0  0  0
    4.7043   54.3461   19.5662 C   0  0  0  0  0  0
    3.9816   53.6528   18.8491 O   0  0  0  0  0  0
    5.7011   55.1680   19.1755 N   0  0  0  0  0  0
    6.3046   55.8075   20.2009 C   0  0  0  0  0  0
    7.0995   56.7471   20.1795 O   0  0  0  0  0  0
    5.7192   55.2966   21.2817 N   0  0  0  0  0  0
    6.1981   55.2101   17.7931 C   0  0  0  0  0  0
    7.3720   54.2773   17.5119 C   0  0  0  0  0  0
    7.1247   52.9482   17.1524 C   0  0  0  0  0  0
    8.1845   52.0965   16.8406 C   0  0  0  0  0  0
    9.4960   52.5665   16.8816 C   0  0  0  0  0  0
    9.7513   53.8885   17.2436 C   0  0  0  0  0  0
    8.6931   54.7462   17.5550 C   0  0  0  0  0  0
    8.9541   56.0338   17.8826 F   0  0  0  0  0  0
   11.0275   54.3357   17.2823 F   0  0  0  0  0  0
    7.5034   54.8143   27.4070 H   0  0  0  0  0  0
    6.7047   56.0971   26.5135 H   0  0  0  0  0  0
    5.7679   54.7758   27.1982 H   0  0  0  0  0  0
    6.8922   53.1947   25.5856 H   0  0  0  0  0  0
    7.9044   54.4967   25.0420 H   0  0  0  0  0  0
    6.4617   54.1078   23.3436 H   0  0  0  0  0  0
    6.1002   55.6925   24.0031 H   0  0  0  0  0  0
    3.0862   54.8987   27.6958 H   0  0  0  0  0  0
    1.9052   54.3894   29.7691 H   0  0  0  0  0  0
   -0.4430   51.4332   27.7361 H   0  0  0  0  0  0
    0.7190   51.9378   25.6283 H   0  0  0  0  0  0
    3.0237   53.2713   21.3111 H   0  0  0  0  0  0
    6.0179   55.4956   22.2243 H   0  0  0  0  0  0
    5.3902   54.9755   17.0973 H   0  0  0  0  0  0
    6.4887   56.2343   17.5524 H   0  0  0  0  0  0
    6.1120   52.5661   17.1237 H   0  0  0  0  0  0
    7.9877   51.0698   16.5710 H   0  0  0  0  0  0
   10.3166   51.9040   16.6483 H   0  0  0  0  0  0
  1  2  1  0  0  0
  1 34  1  0  0  0
  1 35  1  0  0  0
  1 36  1  0  0  0
  2  3  1  0  0  0
  2 37  1  0  0  0
  2 38  1  0  0  0
  3  4  1  0  0  0
  3 39  1  0  0  0
  3 40  1  0  0  0
  4  8  2  0  0  0
  4  5  1  0  0  0
  5  6  2  0  0  0
  5 17  1  0  0  0
  6  7  1  0  0  0
  6 16  1  0  0  0
  7  8  1  0  0  0
  7  9  1  0  0  0
  9 14  2  0  0  0
  9 10  1  0  0  0
 10 11  2  0  0  0
 10 41  1  0  0  0
 11 12  1  0  0  0
 11 42  1  0  0  0
 12 13  2  0  0  0
 12 15  1  0  0  0
 13 14  1  0  0  0
 13 43  1  0  0  0
 14 44  1  0  0  0
 17 18  2  0  0  0
 17 45  1  0  0  0
 18 24  1  0  0  0
 18 19  1  0  0  0
 19 20  2  0  0  0
 19 21  1  0  0  0
 21 22  1  0  0  0
 21 25  1  0  0  0
 22 23  2  0  0  0
 22 24  1  0  0  0
 24 46  1  0  0  0
 25 26  1  0  0  0
 25 47  1  0  0  0
 25 48  1  0  0  0
 26 31  2  0  0  0
 26 27  1  0  0  0
 27 28  2  0  0  0
 27 49  1  0  0  0
 28 29  1  0  0  0
 28 50  1  0  0  0
 29 30  2  0  0  0
 29 51  1  0  0  0
 30 31  1  0  0  0
 30 33  1  0  0  0
 31 32  1  0  0  0
M  CHG  1  16  -1
M  END
> <i_i_glide_confnum>
284

> <i_i_glide_lignum>
5954

> <i_i_glide_posenum>
116

> <i_i_glide_rotatable_bonds>
6

> <i_m_Source_File_Index>
3517

> <b_m_subgroup_collapsed>
0

> <r_i_docking_score>
-5.81191

> <r_i_glide_ecoul>
-2.14916

> <r_i_glide_eff_state_penalty>
0

> <r_i_glide_einternal>
5.56991

> <r_i_glide_emodel>
-59.871

> <r_i_glide_energy>
-46.4076

> <r_i_glide_erotb>
0.45397

> <r_i_glide_esite>
0

> <r_i_glide_evdw>
-44.2584

> <r_i_glide_gscore>
-5.81191

> <r_i_glide_hbond>
-0.2939

> <r_i_glide_ligand_efficiency>
-0.176119

> <r_i_glide_ligand_efficiency_ln>
-1.29254

> <r_i_glide_ligand_efficiency_sa>
-0.564906

> <r_i_glide_lipo>
-2.65414

> <r_i_glide_metal>
0

> <r_i_glide_rewards>
-0.782551

> <s_i_glide_gridfile>
wee1_glide-grid

> <s_m_Source_File>
wee1_decoys_glide_SP.sdf

> <s_m_Source_Path>
/Users/zhangxujun/Desktop

> <s_m_entry_id>
3792

> <s_m_entry_name>
wee1_decoys_glide_SP.3517

> <s_m_subgroup_title>
wee1_decoys_glide_SP

> <s_m_subgroupid>
wee1_decoys_glide_SP


$$$$
