ZINC34681190_165
                    3D
 Schrodinger Suite 2024-2.
 60 63  0  0  1  0            999 V2000
   -2.9289   48.5709   17.3621 C   0  0  0  0  0  0
   -1.4536   48.4234   17.0312 C   0  0  0  0  0  0
   -1.0409   47.5392   16.0311 C   0  0  0  0  0  0
    0.3134   47.4110   15.7306 C   0  0  0  0  0  0
    1.2594   48.1616   16.4301 C   0  0  0  0  0  0
    0.8697   49.0396   17.4448 C   0  0  0  0  0  0
   -0.5024   49.1671   17.7352 C   0  0  0  0  0  0
    1.8982   49.7674   18.0846 N   0  0  0  0  0  0
    1.8333   50.4791   19.2320 C   0  0  0  0  0  0
    0.8366   50.5577   19.9502 O   0  0  0  0  0  0
    3.0011   51.1037   19.4861 N   0  0  0  0  0  0
    3.3153   51.9890   20.5422 C   0  0  0  0  0  0
    4.5720   52.6008   20.5092 C   0  0  0  0  0  0
    4.9604   53.4566   21.5454 C   0  0  0  0  0  0
    4.1077   53.6938   22.6394 C   0  0  0  0  0  0
    2.8838   53.1189   22.5928 N   0  3  0  0  0  0
    2.4620   52.2917   21.6167 C   0  0  0  0  0  0
    4.5134   54.4711   23.8002 N   0  0  0  0  0  0
    5.9639   54.6938   23.9965 C   0  0  0  0  0  0
    6.4089   55.0518   25.4256 C   0  0  0  0  0  0
    6.1034   53.9722   26.4859 C   0  0  0  0  0  0
    4.7192   53.9465   27.0022 N   0  0  0  0  0  0
    3.6233   53.6971   26.0453 C   0  0  0  0  0  0
    3.5314   54.6938   24.8859 C   0  0  0  0  0  0
    4.4833   54.3613   28.2792 C   0  0  0  0  0  0
    5.3552   54.8437   29.0008 O   0  0  0  0  0  0
    3.1015   54.2165   28.8654 C   0  0  0  0  0  0
    2.4207   52.9883   28.8483 C   0  0  0  0  0  0
    1.1590   52.8756   29.4308 C   0  0  0  0  0  0
    0.5752   53.9744   30.0534 C   0  0  0  0  0  0
    1.2478   55.1948   30.0814 C   0  0  0  0  0  0
    2.5008   55.3138   29.4911 C   0  0  0  0  0  0
    0.7045   56.2596   30.7013 F   0  0  0  0  0  0
    0.5049   51.6967   29.3852 F   0  0  0  0  0  0
   -3.4932   47.6837   17.0760 H   0  0  0  0  0  0
   -3.0704   48.7037   18.4361 H   0  0  0  0  0  0
   -3.3525   49.4393   16.8537 H   0  0  0  0  0  0
   -1.7669   46.9598   15.4807 H   0  0  0  0  0  0
    0.6325   46.7378   14.9500 H   0  0  0  0  0  0
    2.3040   48.0595   16.1738 H   0  0  0  0  0  0
   -0.8582   49.8489   18.4921 H   0  0  0  0  0  0
    2.8064   49.6933   17.6270 H   0  0  0  0  0  0
    3.7561   50.9074   18.8356 H   0  0  0  0  0  0
    5.2476   52.4097   19.6845 H   0  0  0  0  0  0
    5.9259   53.9287   21.4893 H   0  0  0  0  0  0
    1.4671   51.8957   21.7578 H   0  0  0  0  0  0
    6.2517   55.4989   23.3187 H   0  0  0  0  0  0
    6.4916   53.7922   23.6756 H   0  0  0  0  0  0
    6.0150   56.0274   25.7207 H   0  0  0  0  0  0
    7.4910   55.1704   25.3741 H   0  0  0  0  0  0
    6.8270   54.0581   27.3024 H   0  0  0  0  0  0
    6.3147   52.9828   26.0769 H   0  0  0  0  0  0
    3.7840   52.7189   25.6079 H   0  0  0  0  0  0
    2.6458   53.6216   26.5090 H   0  0  0  0  0  0
    2.5214   54.7283   24.4820 H   0  0  0  0  0  0
    3.6848   55.6961   25.2810 H   0  0  0  0  0  0
    2.8658   52.1181   28.3833 H   0  0  0  0  0  0
   -0.3932   53.8796   30.5207 H   0  0  0  0  0  0
    3.0103   56.2680   29.5295 H   0  0  0  0  0  0
    2.2590   53.2865   23.3666 H   0  0  0  0  0  0
  1  2  1  0  0  0
  1 35  1  0  0  0
  1 36  1  0  0  0
  1 37  1  0  0  0
  2  7  2  0  0  0
  2  3  1  0  0  0
  3  4  2  0  0  0
  3 38  1  0  0  0
  4  5  1  0  0  0
  4 39  1  0  0  0
  5  6  2  0  0  0
  5 40  1  0  0  0
  6  7  1  0  0  0
  6  8  1  0  0  0
  7 41  1  0  0  0
  8  9  1  0  0  0
  8 42  1  0  0  0
  9 10  2  0  0  0
  9 11  1  0  0  0
 11 12  1  0  0  0
 11 43  1  0  0  0
 12 17  2  0  0  0
 12 13  1  0  0  0
 13 14  2  0  0  0
 13 44  1  0  0  0
 14 15  1  0  0  0
 14 45  1  0  0  0
 15 16  2  0  0  0
 15 18  1  0  0  0
 16 17  1  0  0  0
 16 60  1  0  0  0
 17 46  1  0  0  0
 18 24  1  0  0  0
 18 19  1  0  0  0
 19 20  1  0  0  0
 19 47  1  0  0  0
 19 48  1  0  0  0
 20 21  1  0  0  0
 20 49  1  0  0  0
 20 50  1  0  0  0
 21 22  1  0  0  0
 21 51  1  0  0  0
 21 52  1  0  0  0
 22 23  1  0  0  0
 22 25  1  0  0  0
 23 24  1  0  0  0
 23 53  1  0  0  0
 23 54  1  0  0  0
 24 55  1  0  0  0
 24 56  1  0  0  0
 25 26  2  0  0  0
 25 27  1  0  0  0
 27 32  2  0  0  0
 27 28  1  0  0  0
 28 29  2  0  0  0
 28 57  1  0  0  0
 29 30  1  0  0  0
 29 34  1  0  0  0
 30 31  2  0  0  0
 30 58  1  0  0  0
 31 32  1  0  0  0
 31 33  1  0  0  0
 32 59  1  0  0  0
M  CHG  1  16   1
M  END
> <i_i_glide_confnum>
743

> <i_i_glide_lignum>
166

> <i_i_glide_posenum>
50

> <i_i_glide_rotatable_bonds>
7

> <i_m_Source_File_Index>
2272

> <b_m_subgroup_collapsed>
0

> <r_i_docking_score>
-6.64448

> <r_i_glide_ecoul>
-3.60552

> <r_i_glide_eff_state_penalty>
0

> <r_i_glide_einternal>
0.0710136

> <r_i_glide_emodel>
-62.4276

> <r_i_glide_energy>
-42.035

> <r_i_glide_erotb>
0.648944

> <r_i_glide_esite>
-0.23918

> <r_i_glide_evdw>
-38.4295

> <r_i_glide_gscore>
-6.64448

> <r_i_glide_hbond>
-0.304

> <r_i_glide_ligand_efficiency>
-0.195426

> <r_i_glide_ligand_efficiency_ln>
-1.46795

> <r_i_glide_ligand_efficiency_sa>
-0.633104

> <r_i_glide_lipo>
-3.0101

> <r_i_glide_metal>
0

> <r_i_glide_rewards>
-1.27784

> <s_i_glide_gridfile>
wee1_glide-grid

> <s_m_Source_File>
wee1_decoys_glide_SP.sdf

> <s_m_Source_Path>
/Users/zhangxujun/Desktop

> <s_m_entry_id>
2547

> <s_m_entry_name>
wee1_decoys_glide_SP.2272

> <s_m_subgroup_title>
wee1_decoys_glide_SP

> <s_m_subgroupid>
wee1_decoys_glide_SP


$$$$
