ZINC02201806_1440
                    3D
 Schrodinger Suite 2024-2.
 50 53  0  0  1  0            999 V2000
    7.4764   55.6980   19.9057 C   0  0  0  0  0  0
    6.3163   55.1618   19.3575 C   0  0  0  0  0  0
    5.3412   54.6209   20.1926 C   0  0  0  0  0  0
    5.5101   54.6011   21.5863 C   0  0  0  0  0  0
    6.6954   55.1459   22.1144 C   0  0  0  0  0  0
    7.6676   55.6961   21.2820 C   0  0  0  0  0  0
    4.5027   54.0983   22.4170 N   0  0  0  0  0  0
    4.4368   54.3527   23.8621 C   0  0  0  0  0  0
    2.9944   54.4961   24.3835 C   0  0  0  0  0  0
    2.2016   53.2938   24.1203 N   0  0  0  0  0  0
    2.2088   52.9810   22.6786 C   0  0  0  0  0  0
    3.6155   52.9878   22.0315 C   0  0  0  0  0  0
    1.2421   52.7852   25.0051 C   0  0  0  0  0  0
    1.4554   52.5430   26.3370 C   0  0  0  0  0  0
    0.4198   51.8249   27.0980 C   0  0  0  0  0  0
    0.6238   51.4513   28.2569 O   0  0  0  0  0  0
   -0.7412   51.5792   26.4034 N   0  0  0  0  0  0
   -1.7804   50.8968   27.0379 C   0  0  0  0  0  0
   -2.9821   50.6385   26.4773 C   0  0  0  0  0  0
   -3.2005   51.0951   25.1146 C   0  0  0  0  0  0
   -2.1958   51.7144   24.4537 C   0  0  0  0  0  0
   -0.9066   51.9592   25.0692 C   0  0  0  0  0  0
    0.0429   52.5093   24.4101 N   0  0  0  0  0  0
    2.7234   52.8573   27.0046 C   0  0  0  0  0  0
    2.8795   53.5316   28.1731 C   0  0  0  0  0  0
    1.7707   54.0596   28.9084 C   0  0  0  0  0  0
    0.8908   54.4969   29.5202 N   0  0  0  0  0  0
    4.1803   53.8033   28.7603 C   0  0  0  0  0  0
    4.3046   54.4965   29.7621 O   0  0  0  0  0  0
    5.2738   53.2962   28.1831 N   0  0  0  0  0  0
    8.2338   56.1139   19.2576 H   0  0  0  0  0  0
    6.1702   55.1692   18.2872 H   0  0  0  0  0  0
    4.4398   54.2450   19.7332 H   0  0  0  0  0  0
    6.8870   55.1447   23.1763 H   0  0  0  0  0  0
    8.5787   56.0968   21.7030 H   0  0  0  0  0  0
    4.9899   55.2519   24.1339 H   0  0  0  0  0  0
    4.9296   53.5227   24.3720 H   0  0  0  0  0  0
    2.4966   55.3841   24.0066 H   0  0  0  0  0  0
    3.0723   54.6850   25.4480 H   0  0  0  0  0  0
    1.8169   51.9718   22.5441 H   0  0  0  0  0  0
    1.5237   53.6348   22.1382 H   0  0  0  0  0  0
    4.1348   52.1034   22.3992 H   0  0  0  0  0  0
    3.5366   52.8286   20.9578 H   0  0  0  0  0  0
   -1.5599   50.5127   28.0306 H   0  0  0  0  0  0
   -3.7285   50.0655   27.0090 H   0  0  0  0  0  0
   -4.1537   50.9290   24.6347 H   0  0  0  0  0  0
   -2.3637   52.0398   23.4394 H   0  0  0  0  0  0
    3.6013   52.5090   26.4825 H   0  0  0  0  0  0
    5.2272   52.6654   27.3971 H   0  0  0  0  0  0
    6.1681   53.5148   28.5968 H   0  0  0  0  0  0
  1  6  2  0  0  0
  1  2  1  0  0  0
  1 31  1  0  0  0
  2  3  2  0  0  0
  2 32  1  0  0  0
  3  4  1  0  0  0
  3 33  1  0  0  0
  4  5  2  0  0  0
  4  7  1  0  0  0
  5  6  1  0  0  0
  5 34  1  0  0  0
  6 35  1  0  0  0
  7 12  1  0  0  0
  7  8  1  0  0  0
  8  9  1  0  0  0
  8 36  1  0  0  0
  8 37  1  0  0  0
  9 10  1  0  0  0
  9 38  1  0  0  0
  9 39  1  0  0  0
 10 11  1  0  0  0
 10 13  1  0  0  0
 11 12  1  0  0  0
 11 40  1  0  0  0
 11 41  1  0  0  0
 12 42  1  0  0  0
 12 43  1  0  0  0
 13 23  1  0  0  0
 13 14  2  0  0  0
 14 15  1  0  0  0
 14 24  1  0  0  0
 15 16  2  0  0  0
 15 17  1  0  0  0
 17 22  1  0  0  0
 17 18  1  0  0  0
 18 19  2  0  0  0
 18 44  1  0  0  0
 19 20  1  0  0  0
 19 45  1  0  0  0
 20 21  2  0  0  0
 20 46  1  0  0  0
 21 22  1  0  0  0
 21 47  1  0  0  0
 22 23  2  0  0  0
 24 25  2  0  0  0
 24 48  1  0  0  0
 25 26  1  0  0  0
 25 28  1  0  0  0
 26 27  3  0  0  0
 28 29  2  0  0  0
 28 30  1  0  0  0
 30 49  1  0  0  0
 30 50  1  0  0  0
M  END
> <i_i_glide_confnum>
121

> <i_i_glide_lignum>
1441

> <i_i_glide_posenum>
37

> <i_i_glide_rotatable_bonds>
5

> <i_m_Source_File_Index>
398

> <b_m_subgroup_collapsed>
0

> <r_i_docking_score>
-6.48253

> <r_i_glide_ecoul>
-6.77274

> <r_i_glide_eff_state_penalty>
0

> <r_i_glide_einternal>
5.58235

> <r_i_glide_emodel>
-63.3573

> <r_i_glide_energy>
-47.7408

> <r_i_glide_erotb>
0.611308

> <r_i_glide_esite>
-0.0321998

> <r_i_glide_evdw>
-40.968

> <r_i_glide_gscore>
-6.48253

> <r_i_glide_hbond>
-0.0302622

> <r_i_glide_ligand_efficiency>
-0.216084

> <r_i_glide_ligand_efficiency_ln>
-1.4729

> <r_i_glide_ligand_efficiency_sa>
-0.671424

> <r_i_glide_lipo>
-2.10786

> <r_i_glide_metal>
0

> <r_i_glide_rewards>
-1.8592

> <s_i_glide_gridfile>
wee1_glide-grid

> <s_m_Source_File>
wee1_decoys_glide_SP.sdf

> <s_m_Source_Path>
/Users/zhangxujun/Desktop

> <s_m_entry_id>
673

> <s_m_entry_name>
wee1_decoys_glide_SP.398

> <s_m_subgroup_title>
wee1_decoys_glide_SP

> <s_m_subgroupid>
wee1_decoys_glide_SP


$$$$
