ZINC22668050_2467
                    3D
 Schrodinger Suite 2024-2.
 64 67  0  0  1  0            999 V2000
    2.5823   55.4153   28.6985 C   0  0  0  0  0  0
    3.4333   54.1430   28.5039 C   0  0  1  0  0  0
    3.6590   53.7756   29.5060 H   0  0  0  0  0  0
    2.6742   52.9970   27.8040 C   0  0  0  0  0  0
    2.2787   53.3601   26.3548 C   0  0  0  0  0  0
    3.5020   53.8994   25.6084 C   0  0  0  0  0  0
    4.6410   54.3641   26.2956 C   0  0  0  0  0  0
    5.9236   54.8198   25.2135 S   0  0  0  0  0  0
    4.9703   54.3356   23.8516 C   0  0  0  0  0  0
    3.7075   53.8770   24.2090 C   0  0  0  0  0  0
    2.7933   53.4383   23.1493 C   0  0  0  0  0  0
    1.6257   53.0764   23.3261 O   0  0  0  0  0  0
    3.4146   53.4574   21.8989 N   0  0  0  0  0  0
    4.6948   53.9629   21.6268 C   0  0  0  0  0  0
    5.4496   54.3907   22.5815 N   0  0  0  0  0  0
    5.3388   54.0475   19.9194 S   0  0  0  0  0  0
    6.9051   54.9794   20.0580 C   0  0  0  0  0  0
    6.7811   56.4399   19.5983 C   0  0  0  0  0  0
    6.7042   57.2969   20.4808 O   0  0  0  0  0  0
    6.9291   56.7529   18.2797 N   0  0  0  0  0  0
    7.0736   58.1533   17.8303 C   0  0  0  0  0  0
    5.8369   58.5627   16.9948 C   0  0  0  0  0  0
    5.5048   57.5465   15.8762 C   0  0  0  0  0  0
    5.4702   56.0963   16.4304 C   0  0  0  0  0  0
    6.7774   55.7693   17.1878 C   0  0  0  0  0  0
    4.1967   57.8950   15.1163 C   0  0  0  0  0  0
    3.6217   57.0433   14.4443 O   0  0  0  0  0  0
    3.7049   59.1358   15.1689 N   0  0  0  0  0  0
    2.6204   52.8490   20.7961 C   0  0  0  0  0  0
    2.9954   51.3835   20.4449 C   0  0  0  0  0  0
    2.5924   50.3835   21.5445 C   0  0  0  0  0  0
    2.3692   50.9763   19.1011 C   0  0  0  0  0  0
    4.8059   54.3750   27.8152 C   0  0  0  0  0  0
    2.3046   55.8674   27.7484 H   0  0  0  0  0  0
    1.6574   55.1872   29.2283 H   0  0  0  0  0  0
    3.1077   56.1701   29.2819 H   0  0  0  0  0  0
    1.7658   52.7566   28.3585 H   0  0  0  0  0  0
    3.2883   52.0964   27.8029 H   0  0  0  0  0  0
    1.8670   52.4806   25.8611 H   0  0  0  0  0  0
    1.4793   54.0965   26.3434 H   0  0  0  0  0  0
    7.3376   54.9485   21.0576 H   0  0  0  0  0  0
    7.6618   54.4961   19.4409 H   0  0  0  0  0  0
    7.2760   58.8479   18.6471 H   0  0  0  0  0  0
    7.9592   58.1848   17.1956 H   0  0  0  0  0  0
    4.9999   58.6377   17.6826 H   0  0  0  0  0  0
    6.0692   59.5413   16.5698 H   0  0  0  0  0  0
    6.2765   57.6049   15.1049 H   0  0  0  0  0  0
    5.4000   55.3694   15.6199 H   0  0  0  0  0  0
    4.6547   55.9550   17.1413 H   0  0  0  0  0  0
    7.6300   55.9072   16.5198 H   0  0  0  0  0  0
    6.8472   54.7263   17.4944 H   0  0  0  0  0  0
    2.8594   59.3412   14.6619 H   0  0  0  0  0  0
    4.1276   59.8735   15.7291 H   0  0  0  0  0  0
    1.5477   52.9034   20.9865 H   0  0  0  0  0  0
    2.7347   53.4625   19.9014 H   0  0  0  0  0  0
    4.0782   51.3219   20.3137 H   0  0  0  0  0  0
    1.5192   50.4171   21.7418 H   0  0  0  0  0  0
    2.8459   49.3606   21.2639 H   0  0  0  0  0  0
    3.1043   50.5937   22.4814 H   0  0  0  0  0  0
    1.2796   51.0054   19.1364 H   0  0  0  0  0  0
    2.6976   51.6372   18.2980 H   0  0  0  0  0  0
    2.6686   49.9666   18.8161 H   0  0  0  0  0  0
    5.2663   55.2964   28.1644 H   0  0  0  0  0  0
    5.4873   53.5761   28.1125 H   0  0  0  0  0  0
  1  2  1  0  0  0
  1 34  1  0  0  0
  1 35  1  0  0  0
  1 36  1  0  0  0
  2  3  1  0  0  0
  2 33  1  0  0  0
  2  4  1  0  0  0
  4  5  1  0  0  0
  4 37  1  0  0  0
  4 38  1  0  0  0
  5  6  1  0  0  0
  5 39  1  0  0  0
  5 40  1  0  0  0
  6 10  1  0  0  0
  6  7  2  0  0  0
  7  8  1  0  0  0
  7 33  1  0  0  0
  8  9  1  0  0  0
  9 15  1  0  0  0
  9 10  2  0  0  0
 10 11  1  0  0  0
 11 12  2  0  0  0
 11 13  1  0  0  0
 13 14  1  0  0  0
 13 29  1  0  0  0
 14 15  2  0  0  0
 14 16  1  0  0  0
 16 17  1  0  0  0
 17 18  1  0  0  0
 17 41  1  0  0  0
 17 42  1  0  0  0
 18 19  2  0  0  0
 18 20  1  0  0  0
 20 25  1  0  0  0
 20 21  1  0  0  0
 21 22  1  0  0  0
 21 43  1  0  0  0
 21 44  1  0  0  0
 22 23  1  0  0  0
 22 45  1  0  0  0
 22 46  1  0  0  0
 23 24  1  0  0  0
 23 26  1  0  0  0
 23 47  1  0  0  0
 24 25  1  0  0  0
 24 48  1  0  0  0
 24 49  1  0  0  0
 25 50  1  0  0  0
 25 51  1  0  0  0
 26 27  2  0  0  0
 26 28  1  0  0  0
 28 52  1  0  0  0
 28 53  1  0  0  0
 29 30  1  0  0  0
 29 54  1  0  0  0
 29 55  1  0  0  0
 30 31  1  0  0  0
 30 32  1  0  0  0
 30 56  1  0  0  0
 31 57  1  0  0  0
 31 58  1  0  0  0
 31 59  1  0  0  0
 32 60  1  0  0  0
 32 61  1  0  0  0
 32 62  1  0  0  0
 33 63  1  0  0  0
 33 64  1  0  0  0
M  END
> <i_i_glide_confnum>
102

> <i_i_glide_lignum>
2468

> <i_i_glide_posenum>
200

> <i_i_glide_rotatable_bonds>
7

> <i_m_Source_File_Index>
124

> <b_m_subgroup_collapsed>
0

> <r_i_docking_score>
-7.03683

> <r_i_glide_ecoul>
-10.2391

> <r_i_glide_eff_state_penalty>
0

> <r_i_glide_einternal>
3.64674

> <r_i_glide_emodel>
-69.3614

> <r_i_glide_energy>
-49.5673

> <r_i_glide_erotb>
0.445669

> <r_i_glide_esite>
-0.100525

> <r_i_glide_evdw>
-39.3282

> <r_i_glide_gscore>
-7.03683

> <r_i_glide_hbond>
-0.456

> <r_i_glide_ligand_efficiency>
-0.219901

> <r_i_glide_ligand_efficiency_ln>
-1.57574

> <r_i_glide_ligand_efficiency_sa>
-0.698142

> <r_i_glide_lipo>
-2.85521

> <r_i_glide_metal>
0

> <r_i_glide_rewards>
-0.568487

> <s_i_glide_gridfile>
wee1_glide-grid

> <s_m_Source_File>
wee1_decoys_glide_SP.sdf

> <s_m_Source_Path>
/Users/zhangxujun/Desktop

> <s_m_entry_id>
399

> <s_m_entry_name>
wee1_decoys_glide_SP.124

> <s_m_subgroup_title>
wee1_decoys_glide_SP

> <s_m_subgroupid>
wee1_decoys_glide_SP


$$$$
