ZINC65216921_1352
                    3D
 Schrodinger Suite 2024-2.
 49 52  0  0  1  0            999 V2000
    5.6129   54.7070   24.5650 C   0  0  0  0  0  0
    5.8368   54.0860   23.1769 C   0  0  1  0  0  0
    5.8718   52.9995   23.2757 H   0  0  0  0  0  0
    4.7706   54.4935   22.1307 C   0  0  1  0  0  0
    4.1327   55.2673   22.5567 H   0  0  0  0  0  0
    5.5043   55.1906   21.0770 N   0  0  0  0  0  0
    6.7779   55.5481   21.6585 C   0  0  1  0  0  0
    6.6836   56.4968   22.1695 H   0  0  0  0  0  0
    7.1044   54.4970   22.6055 N   0  0  0  0  0  0
    7.9176   55.6965   20.2761 S   0  0  0  0  0  0
    6.7248   54.7972   19.2765 C   0  0  0  0  0  0
    5.5821   54.6309   19.7977 N   0  0  0  0  0  0
    7.0884   54.1943   17.9404 C   0  0  0  0  0  0
    3.7832   53.3738   21.7301 C   0  0  0  0  0  0
    2.9611   52.9923   22.8818 N   0  0  0  0  0  0
    1.6464   52.7164   22.8709 C   0  0  0  0  0  0
    0.9755   52.6882   21.8424 O   0  0  0  0  0  0
    0.9646   52.4049   24.2124 C   0  0  0  0  0  0
    1.6963   52.8926   25.4938 C   0  0  0  0  0  0
    1.0286   52.4947   26.8034 C   0  0  0  0  0  0
    0.9578   53.1399   27.9846 C   0  0  0  0  0  0
    1.5176   54.4297   28.4228 C   0  0  0  0  0  0
    1.3066   54.8853   29.6751 C   0  0  0  0  0  0
    0.5238   54.0536   30.5807 C   0  0  0  0  0  0
    0.0133   52.8568   30.1937 C   0  0  0  0  0  0
    0.2029   52.3917   28.8905 C   0  0  0  0  0  0
   -0.2443   51.2967   28.3298 N   0  3  0  0  0  0
    0.2424   51.2040   26.9498 C   0  0  0  0  0  0
    5.6662   55.7944   24.5178 H   0  0  0  0  0  0
    4.6355   54.4343   24.9659 H   0  0  0  0  0  0
    6.3656   54.3637   25.2753 H   0  0  0  0  0  0
    7.8107   54.7760   23.2802 H   0  0  0  0  0  0
    7.2460   53.1194   18.0320 H   0  0  0  0  0  0
    6.2935   54.3498   17.2097 H   0  0  0  0  0  0
    8.0026   54.6382   17.5429 H   0  0  0  0  0  0
    3.1549   53.7237   20.9061 H   0  0  0  0  0  0
    4.3219   52.5014   21.3547 H   0  0  0  0  0  0
    3.4520   52.9011   23.7565 H   0  0  0  0  0  0
   -0.0362   52.8395   24.1854 H   0  0  0  0  0  0
    0.8319   51.3234   24.2429 H   0  0  0  0  0  0
    2.7102   52.4969   25.5244 H   0  0  0  0  0  0
    1.8081   53.9779   25.4688 H   0  0  0  0  0  0
    2.1106   55.0386   27.7575 H   0  0  0  0  0  0
    1.7077   55.8347   30.0010 H   0  0  0  0  0  0
    0.3484   54.3897   31.5945 H   0  0  0  0  0  0
   -0.5292   52.2627   30.9107 H   0  0  0  0  0  0
   -0.6270   51.1262   26.2943 H   0  0  0  0  0  0
    0.8449   50.2956   26.8700 H   0  0  0  0  0  0
   -0.8253   50.5843   28.7740 H   0  0  0  0  0  0
  1  2  1  0  0  0
  1 29  1  0  0  0
  1 30  1  0  0  0
  1 31  1  0  0  0
  2  3  1  0  0  0
  2  9  1  0  0  0
  2  4  1  0  0  0
  4  5  1  0  0  0
  4  6  1  0  0  0
  4 14  1  0  0  0
  6 12  1  0  0  0
  6  7  1  0  0  0
  7  8  1  0  0  0
  7  9  1  0  0  0
  7 10  1  0  0  0
  9 32  1  0  0  0
 10 11  1  0  0  0
 11 12  2  0  0  0
 11 13  1  0  0  0
 13 33  1  0  0  0
 13 34  1  0  0  0
 13 35  1  0  0  0
 14 15  1  0  0  0
 14 36  1  0  0  0
 14 37  1  0  0  0
 15 16  1  0  0  0
 15 38  1  0  0  0
 16 17  2  0  0  0
 16 18  1  0  0  0
 18 19  1  0  0  0
 18 39  1  0  0  0
 18 40  1  0  0  0
 19 20  1  0  0  0
 19 41  1  0  0  0
 19 42  1  0  0  0
 20 28  1  0  0  0
 20 21  2  0  0  0
 21 26  1  0  0  0
 21 22  1  0  0  0
 22 23  2  0  0  0
 22 43  1  0  0  0
 23 24  1  0  0  0
 23 44  1  0  0  0
 24 25  2  0  0  0
 24 45  1  0  0  0
 25 26  1  0  0  0
 25 46  1  0  0  0
 26 27  2  0  0  0
 27 28  1  0  0  0
 27 49  1  0  0  0
 28 47  1  0  0  0
 28 48  1  0  0  0
M  CHG  1  27   1
M  END
> <i_i_glide_confnum>
66

> <i_i_glide_lignum>
1353

> <i_i_glide_posenum>
19

> <i_i_glide_rotatable_bonds>
6

> <i_m_Source_File_Index>
5624

> <b_m_subgroup_collapsed>
0

> <r_i_docking_score>
-6.07946

> <r_i_glide_ecoul>
-2.98231

> <r_i_glide_eff_state_penalty>
0

> <r_i_glide_einternal>
4.71529

> <r_i_glide_emodel>
-53.3244

> <r_i_glide_energy>
-38.6361

> <r_i_glide_erotb>
0.745326

> <r_i_glide_esite>
-0.0618882

> <r_i_glide_evdw>
-35.6538

> <r_i_glide_gscore>
-6.07946

> <r_i_glide_hbond>
-0.364437

> <r_i_glide_ligand_efficiency>
-0.243178

> <r_i_glide_ligand_efficiency_ln>
-1.44101

> <r_i_glide_ligand_efficiency_sa>
-0.711058

> <r_i_glide_lipo>
-2.48366

> <r_i_glide_metal>
0

> <r_i_glide_rewards>
-1.68477

> <s_i_glide_gridfile>
wee1_glide-grid

> <s_m_Source_File>
wee1_decoys_glide_SP.sdf

> <s_m_Source_Path>
/Users/zhangxujun/Desktop

> <s_m_entry_id>
5899

> <s_m_entry_name>
wee1_decoys_glide_SP.5624

> <s_m_subgroup_title>
wee1_decoys_glide_SP

> <s_m_subgroupid>
wee1_decoys_glide_SP


$$$$
