ZINC20499149_5488
                    3D
 Schrodinger Suite 2024-2.
 52 55  0  0  1  0            999 V2000
    6.0924   54.9802   19.4080 C   0  0  0  0  0  0
    7.2734   55.6018   19.8224 C   0  0  0  0  0  0
    7.6055   55.6960   21.1749 C   0  0  0  0  0  0
    6.7003   55.1433   22.0858 C   0  0  0  0  0  0
    5.5049   54.4969   21.6938 C   0  0  0  0  0  0
    5.1978   54.4192   20.3264 C   0  0  0  0  0  0
    4.9011   54.0668   22.9158 C   0  0  0  0  0  0
    5.7309   54.5182   23.9484 C   0  0  0  0  0  0
    6.8348   55.1415   23.4423 O   0  0  0  0  0  0
    5.6513   54.3801   25.3802 C   0  0  0  0  0  0
    6.6498   54.5453   26.0877 O   0  0  0  0  0  0
    4.3922   54.0978   25.7997 N   0  0  0  0  0  0
    3.8559   53.7910   27.0240 C   0  0  0  0  0  0
    4.6983   53.6968   28.4808 S   0  0  0  0  0  0
    2.5167   53.5349   26.8889 N   0  0  0  0  0  0
    1.5207   53.1404   27.8100 C   0  0  0  0  0  0
    1.3792   53.8048   29.0373 C   0  0  0  0  0  0
    0.4351   53.3804   29.9675 C   0  0  0  0  0  0
   -0.3992   52.3091   29.6665 C   0  0  0  0  0  0
   -0.3169   51.6917   28.4197 C   0  0  0  0  0  0
    0.6395   52.0840   27.4703 C   0  0  0  0  0  0
    0.6610   51.4831   26.2071 N   0  0  0  0  0  0
    0.3129   50.0644   25.9957 C   0  0  0  0  0  0
   -1.0958   49.8014   25.4170 C   0  0  0  0  0  0
   -1.2472   50.6239   24.2060 N   0  0  0  0  0  0
   -1.0541   52.0654   24.4268 C   0  0  0  0  0  0
    0.3640   52.2765   25.0028 C   0  0  0  0  0  0
   -1.2601   50.0431   22.9713 C   0  0  0  0  0  0
   -1.2377   48.8154   22.8327 O   0  0  0  0  0  0
   -1.4198   50.9180   21.7017 C   0  0  0  0  0  0
   -0.3390   51.6844   21.5408 F   0  0  0  0  0  0
   -2.4955   51.6990   21.8132 F   0  0  0  0  0  0
   -1.5635   50.1581   20.6133 F   0  0  0  0  0  0
    0.3030   54.1847   31.4879 Cl  0  0  0  0  0  0
    5.8708   54.9223   18.3512 H   0  0  0  0  0  0
    7.9464   56.0059   19.0786 H   0  0  0  0  0  0
    8.5295   56.1446   21.5098 H   0  0  0  0  0  0
    4.2926   53.9356   19.9867 H   0  0  0  0  0  0
    3.9788   53.5154   23.0218 H   0  0  0  0  0  0
    3.7313   54.0710   25.0406 H   0  0  0  0  0  0
    2.1995   53.4140   25.9393 H   0  0  0  0  0  0
    2.0113   54.6455   29.2811 H   0  0  0  0  0  0
   -1.1230   51.9616   30.3910 H   0  0  0  0  0  0
   -1.0047   50.8870   28.2034 H   0  0  0  0  0  0
    1.0615   49.6780   25.2990 H   0  0  0  0  0  0
    0.4334   49.4921   26.9120 H   0  0  0  0  0  0
   -1.8462   50.0908   26.1534 H   0  0  0  0  0  0
   -1.2383   48.7341   25.2377 H   0  0  0  0  0  0
   -1.2039   52.6777   23.5396 H   0  0  0  0  0  0
   -1.7853   52.4126   25.1580 H   0  0  0  0  0  0
    1.1046   51.9966   24.2514 H   0  0  0  0  0  0
    0.4913   53.3382   25.2009 H   0  0  0  0  0  0
  1  6  2  0  0  0
  1  2  1  0  0  0
  1 35  1  0  0  0
  2  3  2  0  0  0
  2 36  1  0  0  0
  3  4  1  0  0  0
  3 37  1  0  0  0
  4  9  1  0  0  0
  4  5  2  0  0  0
  5  6  1  0  0  0
  5  7  1  0  0  0
  6 38  1  0  0  0
  7  8  2  0  0  0
  7 39  1  0  0  0
  8  9  1  0  0  0
  8 10  1  0  0  0
 10 11  2  0  0  0
 10 12  1  0  0  0
 12 13  1  0  0  0
 12 40  1  0  0  0
 13 14  2  0  0  0
 13 15  1  0  0  0
 15 16  1  0  0  0
 15 41  1  0  0  0
 16 21  2  0  0  0
 16 17  1  0  0  0
 17 18  2  0  0  0
 17 42  1  0  0  0
 18 19  1  0  0  0
 18 34  1  0  0  0
 19 20  2  0  0  0
 19 43  1  0  0  0
 20 21  1  0  0  0
 20 44  1  0  0  0
 21 22  1  0  0  0
 22 27  1  0  0  0
 22 23  1  0  0  0
 23 24  1  0  0  0
 23 45  1  0  0  0
 23 46  1  0  0  0
 24 25  1  0  0  0
 24 47  1  0  0  0
 24 48  1  0  0  0
 25 26  1  0  0  0
 25 28  1  0  0  0
 26 27  1  0  0  0
 26 49  1  0  0  0
 26 50  1  0  0  0
 27 51  1  0  0  0
 27 52  1  0  0  0
 28 29  2  0  0  0
 28 30  1  0  0  0
 30 31  1  0  0  0
 30 32  1  0  0  0
 30 33  1  0  0  0
M  END
> <i_i_glide_confnum>
61

> <i_i_glide_lignum>
5489

> <i_i_glide_posenum>
394

> <i_i_glide_rotatable_bonds>
8

> <i_m_Source_File_Index>
4167

> <b_m_subgroup_collapsed>
0

> <r_i_docking_score>
-6.03793

> <r_i_glide_ecoul>
-3.84707

> <r_i_glide_eff_state_penalty>
0

> <r_i_glide_einternal>
4.46953

> <r_i_glide_emodel>
-74.4114

> <r_i_glide_energy>
-55.8284

> <r_i_glide_erotb>
0.47096

> <r_i_glide_esite>
-0.0272462

> <r_i_glide_evdw>
-51.9813

> <r_i_glide_gscore>
-6.03793

> <r_i_glide_hbond>
-0.0837325

> <r_i_glide_ligand_efficiency>
-0.177586

> <r_i_glide_ligand_efficiency_ln>
-1.33395

> <r_i_glide_ligand_efficiency_sa>
-0.57531

> <r_i_glide_lipo>
-2.13303

> <r_i_glide_metal>
0

> <r_i_glide_rewards>
-1.08876

> <s_i_glide_gridfile>
wee1_glide-grid

> <s_m_Source_File>
wee1_decoys_glide_SP.sdf

> <s_m_Source_Path>
/Users/zhangxujun/Desktop

> <s_m_entry_id>
4442

> <s_m_entry_name>
wee1_decoys_glide_SP.4167

> <s_m_subgroup_title>
wee1_decoys_glide_SP

> <s_m_subgroupid>
wee1_decoys_glide_SP


$$$$
