ZINC41552072_2731
                    3D
 Schrodinger Suite 2024-2.
 55 58  0  0  1  0            999 V2000
    5.7079   56.3438   18.2855 C   0  0  0  0  0  0
    6.6879   55.2300   18.6986 C   0  0  0  0  0  0
    7.9612   55.2447   17.8438 C   0  0  0  0  0  0
    7.1098   55.4122   20.0500 O   0  0  0  0  0  0
    6.3057   55.0264   21.1044 C   0  0  0  0  0  0
    5.0412   54.4330   20.9831 C   0  0  0  0  0  0
    4.3033   54.0966   22.1170 C   0  0  0  0  0  0
    4.8050   54.3507   23.4038 C   0  0  0  0  0  0
    4.0272   54.1319   24.6634 C   0  0  0  0  0  0
    4.6629   54.4133   25.8366 C   0  0  0  0  0  0
    6.0532   54.8782   25.9174 C   0  0  0  0  0  0
    6.7043   55.0823   26.9359 O   0  0  0  0  0  0
    6.7040   55.1237   24.7337 O   0  0  0  0  0  0
    6.0988   54.8916   23.5123 C   0  0  0  0  0  0
    6.8299   55.2344   22.3778 C   0  0  0  0  0  0
    2.6078   53.7645   24.7053 C   0  0  0  0  0  0
    1.8371   54.1196   23.8119 O   0  0  0  0  0  0
    2.2123   53.0228   25.7701 N   0  0  0  0  0  0
    0.9397   52.5175   26.0436 C   0  0  0  0  0  0
    0.3998   52.2336   27.3212 C   0  0  0  0  0  0
   -0.9378   51.7236   27.2051 C   0  0  0  0  0  0
   -1.3432   51.5791   25.8670 C   0  0  0  0  0  0
   -0.1459   52.0980   24.7483 S   0  0  0  0  0  0
   -2.7022   51.0845   25.3925 C   0  0  0  0  0  0
   -3.3906   50.3255   26.5399 C   0  0  0  0  0  0
   -3.3526   51.1379   27.8403 C   0  0  0  0  0  0
   -1.9123   51.3736   28.3441 C   0  0  0  0  0  0
    1.1314   52.5081   28.5680 C   0  0  0  0  0  0
    2.2160   53.0967   28.5703 O   0  0  0  0  0  0
    0.5512   52.0969   29.7055 N   0  0  0  0  0  0
    1.0654   52.3489   31.0456 C   0  0  0  0  0  0
    5.4113   56.2378   17.2417 H   0  0  0  0  0  0
    6.1578   57.3299   18.4027 H   0  0  0  0  0  0
    4.7967   56.3278   18.8815 H   0  0  0  0  0  0
    6.2267   54.2503   18.5622 H   0  0  0  0  0  0
    7.7311   55.1001   16.7878 H   0  0  0  0  0  0
    8.4964   56.1896   17.9441 H   0  0  0  0  0  0
    8.6412   54.4468   18.1452 H   0  0  0  0  0  0
    4.5992   54.2367   20.0186 H   0  0  0  0  0  0
    3.3276   53.6603   21.9658 H   0  0  0  0  0  0
    4.1443   54.3301   26.7818 H   0  0  0  0  0  0
    7.8152   55.6666   22.4817 H   0  0  0  0  0  0
    2.8720   52.9208   26.5289 H   0  0  0  0  0  0
   -3.3203   51.9315   25.0924 H   0  0  0  0  0  0
   -2.6081   50.4377   24.5195 H   0  0  0  0  0  0
   -4.4222   50.1005   26.2671 H   0  0  0  0  0  0
   -2.9015   49.3614   26.6972 H   0  0  0  0  0  0
   -3.8494   52.0957   27.6811 H   0  0  0  0  0  0
   -3.9253   50.6252   28.6147 H   0  0  0  0  0  0
   -1.5530   50.4967   28.8499 H   0  0  0  0  0  0
   -1.9407   52.0968   29.1448 H   0  0  0  0  0  0
   -0.2726   51.5166   29.6405 H   0  0  0  0  0  0
    0.3045   52.1018   31.7871 H   0  0  0  0  0  0
    1.9469   51.7391   31.2441 H   0  0  0  0  0  0
    1.3304   53.3989   31.1724 H   0  0  0  0  0  0
  1  2  1  0  0  0
  1 32  1  0  0  0
  1 33  1  0  0  0
  1 34  1  0  0  0
  2  3  1  0  0  0
  2  4  1  0  0  0
  2 35  1  0  0  0
  3 36  1  0  0  0
  3 37  1  0  0  0
  3 38  1  0  0  0
  4  5  1  0  0  0
  5 15  2  0  0  0
  5  6  1  0  0  0
  6  7  2  0  0  0
  6 39  1  0  0  0
  7  8  1  0  0  0
  7 40  1  0  0  0
  8 14  2  0  0  0
  8  9  1  0  0  0
  9 10  2  0  0  0
  9 16  1  0  0  0
 10 11  1  0  0  0
 10 41  1  0  0  0
 11 12  2  0  0  0
 11 13  1  0  0  0
 13 14  1  0  0  0
 14 15  1  0  0  0
 15 42  1  0  0  0
 16 17  2  0  0  0
 16 18  1  0  0  0
 18 19  1  0  0  0
 18 43  1  0  0  0
 19 23  1  0  0  0
 19 20  2  0  0  0
 20 21  1  0  0  0
 20 28  1  0  0  0
 21 27  1  0  0  0
 21 22  2  0  0  0
 22 23  1  0  0  0
 22 24  1  0  0  0
 24 25  1  0  0  0
 24 44  1  0  0  0
 24 45  1  0  0  0
 25 26  1  0  0  0
 25 46  1  0  0  0
 25 47  1  0  0  0
 26 27  1  0  0  0
 26 48  1  0  0  0
 26 49  1  0  0  0
 27 50  1  0  0  0
 27 51  1  0  0  0
 28 29  2  0  0  0
 28 30  1  0  0  0
 30 31  1  0  0  0
 30 52  1  0  0  0
 31 53  1  0  0  0
 31 54  1  0  0  0
 31 55  1  0  0  0
M  END
> <i_i_glide_confnum>
216

> <i_i_glide_lignum>
2732

> <i_i_glide_posenum>
145

> <i_i_glide_rotatable_bonds>
7

> <i_m_Source_File_Index>
628

> <b_m_subgroup_collapsed>
0

> <r_i_docking_score>
-5.61885

> <r_i_glide_ecoul>
-3.33479

> <r_i_glide_eff_state_penalty>
0

> <r_i_glide_einternal>
8.25245

> <r_i_glide_emodel>
-59.7989

> <r_i_glide_energy>
-48.2733

> <r_i_glide_erotb>
0.514483

> <r_i_glide_esite>
0

> <r_i_glide_evdw>
-44.9385

> <r_i_glide_gscore>
-5.61885

> <r_i_glide_hbond>
-0.194667

> <r_i_glide_ligand_efficiency>
-0.181253

> <r_i_glide_ligand_efficiency_ln>
-1.26722

> <r_i_glide_ligand_efficiency_sa>
-0.569385

> <r_i_glide_lipo>
-2.133

> <r_i_glide_metal>
0

> <r_i_glide_rewards>
-1.05852

> <s_i_glide_gridfile>
wee1_glide-grid

> <s_m_Source_File>
wee1_decoys_glide_SP.sdf

> <s_m_Source_Path>
/Users/zhangxujun/Desktop

> <s_m_entry_id>
903

> <s_m_entry_name>
wee1_decoys_glide_SP.628

> <s_m_subgroup_title>
wee1_decoys_glide_SP

> <s_m_subgroupid>
wee1_decoys_glide_SP


$$$$
