ZINC09309067_6026
                    3D
 Schrodinger Suite 2024-2.
 72 77  0  0  1  0            999 V2000
    6.3068   53.7145   28.1547 C   0  0  0  0  0  0
    6.5579   54.1067   26.7001 C   0  0  0  0  0  0
    5.3020   54.3334   26.0738 O   0  0  0  0  0  0
    5.2382   54.4125   24.6972 C   0  0  0  0  0  0
    3.9615   54.4402   24.1417 C   0  0  0  0  0  0
    3.7918   54.4917   22.7617 C   0  0  0  0  0  0
    4.9015   54.4965   21.9095 C   0  0  0  0  0  0
    6.1855   54.4967   22.4677 C   0  0  0  0  0  0
    6.3551   54.4589   23.8495 C   0  0  0  0  0  0
    4.6714   54.4874   20.3877 C   0  0  2  0  0  0
    3.6804   54.8982   20.2083 H   0  0  0  0  0  0
    4.7053   53.1082   19.7713 C   0  0  0  0  0  0
    5.8709   53.0479   19.0923 C   0  0  0  0  0  0
    6.5332   54.2815   19.1414 N   0  0  0  0  0  0
    5.6098   55.2758   19.6219 N   0  0  0  0  0  0
    7.7242   54.6944   18.5065 C   0  0  0  0  0  0
    8.2439   55.9849   18.6983 C   0  0  0  0  0  0
    9.4316   56.3786   18.0866 C   0  0  0  0  0  0
   10.1204   55.4807   17.2783 C   0  0  0  0  0  0
    9.6278   54.1958   17.0747 C   0  0  0  0  0  0
    8.4366   53.8092   17.6821 C   0  0  0  0  0  0
    3.6848   52.0750   19.8813 C   0  0  0  0  0  0
    2.4652   52.3015   20.4158 C   0  0  0  0  0  0
    1.3014   51.3206   20.6349 C   0  0  1  0  0  0
    0.2968   51.2385   19.4089 C   0  0  0  0  0  0
    0.7136   49.9295   18.7591 C   0  0  0  0  0  0
    0.3088   49.3755   17.5380 C   0  0  0  0  0  0
    0.8947   48.1950   17.0742 C   0  0  0  0  0  0
    1.9014   47.5752   17.8161 C   0  0  0  0  0  0
    2.2938   48.1188   19.0384 C   0  0  0  0  0  0
    1.6686   49.2587   19.5230 C   0  0  0  0  0  0
    1.8521   49.9533   20.7110 N   0  0  0  0  0  0
    2.1995   49.4772   22.0535 C   0  0  0  0  0  0
    1.0537   49.7092   23.0592 C   0  0  0  0  0  0
    0.5769   51.1392   22.8964 C   0  0  0  0  0  0
    0.6405   51.8577   21.8511 N   0  0  0  0  0  0
    0.0635   51.7055   24.0327 O   0  0  0  0  0  0
   -1.1992   51.1413   19.8197 C   0  0  0  0  0  0
    0.4327   52.4131   18.3999 C   0  0  0  0  0  0
    5.7156   52.8010   28.2164 H   0  0  0  0  0  0
    7.2466   53.5443   28.6799 H   0  0  0  0  0  0
    5.7713   54.5016   28.6860 H   0  0  0  0  0  0
    7.1639   55.0116   26.6512 H   0  0  0  0  0  0
    7.1039   53.2988   26.2101 H   0  0  0  0  0  0
    3.0953   54.4163   24.7864 H   0  0  0  0  0  0
    2.7881   54.5192   22.3662 H   0  0  0  0  0  0
    7.0578   54.5178   21.8326 H   0  0  0  0  0  0
    7.3612   54.4560   24.2403 H   0  0  0  0  0  0
    6.2989   52.2178   18.5485 H   0  0  0  0  0  0
    5.1410   55.5821   18.7807 H   0  0  0  0  0  0
    7.7340   56.6926   19.3325 H   0  0  0  0  0  0
    9.8229   57.3719   18.2500 H   0  0  0  0  0  0
   11.0464   55.7815   16.8109 H   0  0  0  0  0  0
   10.1677   53.5003   16.4495 H   0  0  0  0  0  0
    8.0841   52.8050   17.5050 H   0  0  0  0  0  0
    3.9044   51.0826   19.5211 H   0  0  0  0  0  0
    2.2433   53.2972   20.7346 H   0  0  0  0  0  0
   -0.4334   49.8683   16.9277 H   0  0  0  0  0  0
    0.5988   47.7824   16.1208 H   0  0  0  0  0  0
    2.3958   46.6952   17.4318 H   0  0  0  0  0  0
    3.1025   47.6967   19.6053 H   0  0  0  0  0  0
    2.4558   48.4192   22.0084 H   0  0  0  0  0  0
    3.1041   49.9843   22.3891 H   0  0  0  0  0  0
    0.2223   49.0359   22.8525 H   0  0  0  0  0  0
    1.4070   49.5327   24.0763 H   0  0  0  0  0  0
    0.0117   51.0459   24.7270 H   0  0  0  0  0  0
   -1.5458   52.0579   20.2988 H   0  0  0  0  0  0
   -1.8429   50.9651   18.9567 H   0  0  0  0  0  0
   -1.3667   50.3208   20.5193 H   0  0  0  0  0  0
    1.4129   52.4246   17.9212 H   0  0  0  0  0  0
   -0.3045   52.3475   17.5992 H   0  0  0  0  0  0
    0.2995   53.3783   18.8852 H   0  0  0  0  0  0
  1  2  1  0  0  0
  1 40  1  0  0  0
  1 41  1  0  0  0
  1 42  1  0  0  0
  2  3  1  0  0  0
  2 43  1  0  0  0
  2 44  1  0  0  0
  3  4  1  0  0  0
  4  9  2  0  0  0
  4  5  1  0  0  0
  5  6  2  0  0  0
  5 45  1  0  0  0
  6  7  1  0  0  0
  6 46  1  0  0  0
  7  8  2  0  0  0
  7 10  1  0  0  0
  8  9  1  0  0  0
  8 47  1  0  0  0
  9 48  1  0  0  0
 10 11  1  0  0  0
 10 15  1  0  0  0
 10 12  1  0  0  0
 12 13  2  0  0  0
 12 22  1  0  0  0
 13 14  1  0  0  0
 13 49  1  0  0  0
 14 15  1  0  0  0
 14 16  1  0  0  0
 15 50  1  0  0  0
 16 21  2  0  0  0
 16 17  1  0  0  0
 17 18  2  0  0  0
 17 51  1  0  0  0
 18 19  1  0  0  0
 18 52  1  0  0  0
 19 20  2  0  0  0
 19 53  1  0  0  0
 20 21  1  0  0  0
 20 54  1  0  0  0
 21 55  1  0  0  0
 22 23  2  0  0  0
 22 56  1  0  0  0
 23 24  1  0  0  0
 23 57  1  0  0  0
 24 32  1  0  0  0
 24 36  1  0  0  0
 24 25  1  0  0  0
 25 26  1  0  0  0
 25 38  1  0  0  0
 25 39  1  0  0  0
 26 31  2  0  0  0
 26 27  1  0  0  0
 27 28  2  0  0  0
 27 58  1  0  0  0
 28 29  1  0  0  0
 28 59  1  0  0  0
 29 30  2  0  0  0
 29 60  1  0  0  0
 30 31  1  0  0  0
 30 61  1  0  0  0
 31 32  1  0  0  0
 32 33  1  0  0  0
 33 34  1  0  0  0
 33 62  1  0  0  0
 33 63  1  0  0  0
 34 35  1  0  0  0
 34 64  1  0  0  0
 34 65  1  0  0  0
 35 36  2  0  0  0
 35 37  1  0  0  0
 37 66  1  0  0  0
 38 67  1  0  0  0
 38 68  1  0  0  0
 38 69  1  0  0  0
 39 70  1  0  0  0
 39 71  1  0  0  0
 39 72  1  0  0  0
M  END
> <i_i_glide_confnum>
39

> <i_i_glide_lignum>
6027

> <i_i_glide_posenum>
152

> <i_i_glide_rotatable_bonds>
7

> <i_m_Source_File_Index>
4532

> <b_m_subgroup_collapsed>
0

> <r_i_docking_score>
-4.86045

> <r_i_glide_ecoul>
-3.11912

> <r_i_glide_eff_state_penalty>
0

> <r_i_glide_einternal>
2.1122

> <r_i_glide_emodel>
-60.3456

> <r_i_glide_energy>
-47.9618

> <r_i_glide_erotb>
0.398574

> <r_i_glide_esite>
-0.00907471

> <r_i_glide_evdw>
-44.8427

> <r_i_glide_gscore>
-4.86045

> <r_i_glide_hbond>
0

> <r_i_glide_ligand_efficiency>
-0.127907

> <r_i_glide_ligand_efficiency_ln>
-1.04806

> <r_i_glide_ligand_efficiency_sa>
-0.430019

> <r_i_glide_lipo>
-2.46006

> <r_i_glide_metal>
0

> <r_i_glide_rewards>
-0.0798881

> <s_i_glide_gridfile>
wee1_glide-grid

> <s_m_Source_File>
wee1_decoys_glide_SP.sdf

> <s_m_Source_Path>
/Users/zhangxujun/Desktop

> <s_m_entry_id>
4807

> <s_m_entry_name>
wee1_decoys_glide_SP.4532

> <s_m_subgroup_title>
wee1_decoys_glide_SP

> <s_m_subgroupid>
wee1_decoys_glide_SP


$$$$
