ZINC39560852_742
                    3D
 Schrodinger Suite 2024-2.
 64 69  0  0  1  0            999 V2000
   -4.3193   53.6880   24.9634 C   0  0  0  0  0  0
   -3.3819   52.7038   25.3713 O   0  0  0  0  0  0
   -2.3495   52.3633   24.5671 C   0  0  0  0  0  0
   -2.1129   52.8778   23.4668 O   0  0  0  0  0  0
   -1.5048   51.1946   25.1665 C   0  0  2  0  0  0
   -2.2290   50.3928   25.3036 H   0  0  0  0  0  0
   -0.9529   51.4901   26.5921 C   0  0  0  0  0  0
    0.3208   52.3201   26.5538 C   0  0  0  0  0  0
    0.9491   53.0723   27.4594 C   0  0  0  0  0  0
    0.6093   53.3830   28.9249 C   0  0  0  0  0  0
    1.6360   54.3688   29.5029 C   0  0  0  0  0  0
    2.6913   54.8425   28.8088 C   0  0  0  0  0  0
    2.9304   54.4567   27.4275 C   0  0  0  0  0  0
    2.0882   53.6294   26.7754 C   0  0  0  0  0  0
    2.1228   53.2155   25.4929 N   0  0  0  0  0  0
    1.1044   52.4521   25.3564 C   0  0  0  0  0  0
    0.6862   51.7119   24.0568 C   0  0  2  0  0  0
    0.3001   52.4768   23.3817 H   0  0  0  0  0  0
   -0.3891   50.7069   24.2996 N   0  0  0  0  0  0
   -0.8021   49.9243   23.1121 C   0  0  1  0  0  0
   -1.2753   50.6146   22.4136 H   0  0  0  0  0  0
    0.4217   49.2771   22.4115 C   0  0  0  0  0  0
    1.5833   50.2392   22.0920 C   0  0  2  0  0  0
    2.4399   49.6981   21.6781 H   0  0  0  0  0  0
    1.9048   51.0416   23.3686 C   0  0  0  0  0  0
    1.0683   51.2071   21.0059 N   0  3  0  0  0  0
    2.1465   52.1040   20.3762 C   0  0  0  0  0  0
    3.0683   51.5303   19.3189 C   0  0  0  0  0  0
    1.9877   52.5093   18.9307 C   0  0  0  0  0  0
   -1.8328   48.8290   23.4088 C   0  0  0  0  0  0
   -2.9640   48.7032   22.5978 C   0  0  0  0  0  0
   -3.9154   47.7240   22.8735 C   0  0  0  0  0  0
   -3.7440   46.8608   23.9608 C   0  0  0  0  0  0
   -2.6102   46.9842   24.7738 C   0  0  0  0  0  0
   -1.6551   47.9557   24.4882 C   0  0  0  0  0  0
   -4.8049   45.7993   24.2417 C   0  0  0  0  0  0
   -4.5879   45.1632   25.3964 F   0  0  0  0  0  0
   -6.0193   46.3527   24.2856 F   0  0  0  0  0  0
   -4.7788   44.8948   23.2608 F   0  0  0  0  0  0
   -5.0472   53.8572   25.7569 H   0  0  0  0  0  0
   -3.8329   54.6411   24.7375 H   0  0  0  0  0  0
   -4.8615   53.3619   24.0734 H   0  0  0  0  0  0
   -0.7349   50.5309   27.0668 H   0  0  0  0  0  0
   -1.7102   51.9513   27.2292 H   0  0  0  0  0  0
    0.6200   52.4647   29.5117 H   0  0  0  0  0  0
   -0.3917   53.8118   28.9930 H   0  0  0  0  0  0
    1.5022   54.7086   30.5198 H   0  0  0  0  0  0
    3.3683   55.5431   29.2793 H   0  0  0  0  0  0
    3.7770   54.8785   26.9041 H   0  0  0  0  0  0
    0.8052   48.4969   23.0698 H   0  0  0  0  0  0
    0.0741   48.7940   21.4946 H   0  0  0  0  0  0
    2.6522   51.8045   23.1514 H   0  0  0  0  0  0
    2.3187   50.3358   24.0812 H   0  0  0  0  0  0
    0.6256   50.6540   20.2859 H   0  0  0  0  0  0
    2.5266   52.8286   21.1017 H   0  0  0  0  0  0
    4.1071   51.8665   19.2818 H   0  0  0  0  0  0
    2.9715   50.4871   19.0139 H   0  0  0  0  0  0
    1.1280   52.1498   18.3618 H   0  0  0  0  0  0
    2.2815   53.5196   18.6324 H   0  0  0  0  0  0
   -3.1160   49.3628   21.7566 H   0  0  0  0  0  0
   -4.7888   47.6381   22.2414 H   0  0  0  0  0  0
   -2.4606   46.3475   25.6335 H   0  0  0  0  0  0
   -0.7888   48.0518   25.1293 H   0  0  0  0  0  0
    0.3367   51.7827   21.3972 H   0  0  0  0  0  0
  1  2  1  0  0  0
  1 40  1  0  0  0
  1 41  1  0  0  0
  1 42  1  0  0  0
  2  3  1  0  0  0
  3  4  2  0  0  0
  3  5  1  0  0  0
  5  6  1  0  0  0
  5 19  1  0  0  0
  5  7  1  0  0  0
  7  8  1  0  0  0
  7 43  1  0  0  0
  7 44  1  0  0  0
  8 16  1  0  0  0
  8  9  2  0  0  0
  9 14  1  0  0  0
  9 10  1  0  0  0
 10 11  1  0  0  0
 10 45  1  0  0  0
 10 46  1  0  0  0
 11 12  2  0  0  0
 11 47  1  0  0  0
 12 13  1  0  0  0
 12 48  1  0  0  0
 13 14  2  0  0  0
 13 49  1  0  0  0
 14 15  1  0  0  0
 15 16  2  0  0  0
 16 17  1  0  0  0
 17 18  1  0  0  0
 17 25  1  0  0  0
 17 19  1  0  0  0
 19 20  1  0  0  0
 20 21  1  0  0  0
 20 22  1  0  0  0
 20 30  1  0  0  0
 22 23  1  0  0  0
 22 50  1  0  0  0
 22 51  1  0  0  0
 23 24  1  0  0  0
 23 25  1  0  0  0
 23 26  1  0  0  0
 25 52  1  0  0  0
 25 53  1  0  0  0
 26 27  1  0  0  0
 26 54  1  0  0  0
 26 64  1  0  0  0
 27 29  1  0  0  0
 27 28  1  0  0  0
 27 55  1  0  0  0
 28 29  1  0  0  0
 28 56  1  0  0  0
 28 57  1  0  0  0
 29 58  1  0  0  0
 29 59  1  0  0  0
 30 35  2  0  0  0
 30 31  1  0  0  0
 31 32  2  0  0  0
 31 60  1  0  0  0
 32 33  1  0  0  0
 32 61  1  0  0  0
 33 34  2  0  0  0
 33 36  1  0  0  0
 34 35  1  0  0  0
 34 62  1  0  0  0
 35 63  1  0  0  0
 36 37  1  0  0  0
 36 38  1  0  0  0
 36 39  1  0  0  0
M  CHG  1  26   1
M  END
> <i_i_glide_confnum>
24

> <i_i_glide_lignum>
743

> <i_i_glide_posenum>
22

> <i_i_glide_rotatable_bonds>
6

> <i_m_Source_File_Index>
696

> <b_m_subgroup_collapsed>
0

> <r_i_docking_score>
-3.6973

> <r_i_glide_ecoul>
-1.96252

> <r_i_glide_eff_state_penalty>
0

> <r_i_glide_einternal>
0.979011

> <r_i_glide_emodel>
-44.4505

> <r_i_glide_energy>
-34.4645

> <r_i_glide_erotb>
0.346014

> <r_i_glide_esite>
-0.127425

> <r_i_glide_evdw>
-32.502

> <r_i_glide_gscore>
-3.6973

> <r_i_glide_hbond>
0

> <r_i_glide_ligand_efficiency>
-0.105637

> <r_i_glide_ligand_efficiency_ln>
-0.811639

> <r_i_glide_ligand_efficiency_sa>
-0.345546

> <r_i_glide_lipo>
-1.68437

> <r_i_glide_metal>
0

> <r_i_glide_rewards>
-0.31204

> <s_i_glide_gridfile>
wee1_glide-grid

> <s_m_Source_File>
wee1_decoys_glide_SP.sdf

> <s_m_Source_Path>
/Users/zhangxujun/Desktop

> <s_m_entry_id>
971

> <s_m_entry_name>
wee1_decoys_glide_SP.696

> <s_m_subgroup_title>
wee1_decoys_glide_SP

> <s_m_subgroupid>
wee1_decoys_glide_SP


$$$$
