ZINC65639235_6223
                    3D
 Schrodinger Suite 2024-2.
 55 56  0  0  1  0            999 V2000
    6.4280   55.3335   26.5546 C   0  0  0  0  0  0
    5.2965   54.4977   27.1251 C   0  0  0  0  0  0
    5.3662   54.2042   28.4863 C   0  0  0  0  0  0
    4.3036   53.5812   29.1330 C   0  0  0  0  0  0
    3.1457   53.2249   28.4378 C   0  0  0  0  0  0
    3.0901   53.4887   27.0588 C   0  0  0  0  0  0
    4.1566   54.1069   26.3903 C   0  0  0  0  0  0
    3.9674   54.3310   25.0127 N   0  0  0  0  0  0
    4.8395   54.0966   24.0054 C   0  0  0  0  0  0
    6.0317   53.8045   24.1465 O   0  0  0  0  0  0
    4.2058   54.1847   22.6637 C   0  0  0  0  0  0
    2.9873   54.3086   22.5009 O   0  0  0  0  0  0
    5.0959   54.1334   21.6551 N   0  0  0  0  0  0
    4.7912   54.2741   20.2314 C   0  0  0  0  0  0
    4.6503   52.9344   19.4681 C   0  0  1  0  0  0
    3.7030   51.8874   20.0915 C   0  0  0  0  0  0
    2.4882   51.8020   19.1806 C   0  0  0  0  0  0
    3.1041   52.0377   17.7945 N   0  3  2  0  0  0
    4.1440   53.1519   18.0268 C   0  0  0  0  0  0
    2.1140   52.1897   16.6144 C   0  0  0  0  0  0
    1.3087   53.5071   16.6820 C   0  0  0  0  0  0
    2.8924   52.0205   15.2991 C   0  0  0  0  0  0
    2.0108   52.5629   29.1903 C   0  0  0  0  0  0
    2.1966   52.0964   30.3179 O   0  0  0  0  0  0
    0.8087   52.5527   28.5900 N   0  0  0  0  0  0
   -0.3901   51.9700   29.1824 C   0  0  0  0  0  0
    6.7044   56.0901   27.2883 H   0  0  0  0  0  0
    7.2953   54.7111   26.3355 H   0  0  0  0  0  0
    6.1376   55.8975   25.6695 H   0  0  0  0  0  0
    6.2438   54.4923   29.0555 H   0  0  0  0  0  0
    4.3762   53.3864   30.1936 H   0  0  0  0  0  0
    2.2185   53.2033   26.4888 H   0  0  0  0  0  0
    3.0148   54.4914   24.7169 H   0  0  0  0  0  0
    6.0696   54.0376   21.9128 H   0  0  0  0  0  0
    3.9043   54.8933   20.0844 H   0  0  0  0  0  0
    5.6170   54.8376   19.7951 H   0  0  0  0  0  0
    5.6470   52.4974   19.3750 H   0  0  0  0  0  0
    4.1908   50.9102   20.0818 H   0  0  0  0  0  0
    3.4334   52.0665   21.1287 H   0  0  0  0  0  0
    1.9783   50.8367   19.1746 H   0  0  0  0  0  0
    1.7620   52.5937   19.3614 H   0  0  0  0  0  0
    3.6286   54.1022   17.8924 H   0  0  0  0  0  0
    4.9003   53.0252   17.2486 H   0  0  0  0  0  0
    1.4472   51.3361   16.7448 H   0  0  0  0  0  0
    0.5319   53.5114   15.9162 H   0  0  0  0  0  0
    0.8071   53.6424   17.6400 H   0  0  0  0  0  0
    1.9265   54.3856   16.4961 H   0  0  0  0  0  0
    2.2160   52.0167   14.4433 H   0  0  0  0  0  0
    3.6108   52.8256   15.1437 H   0  0  0  0  0  0
    3.4413   51.0769   15.2814 H   0  0  0  0  0  0
    0.7166   52.9492   27.6689 H   0  0  0  0  0  0
   -1.2520   52.1236   28.5342 H   0  0  0  0  0  0
   -0.6039   52.4076   30.1592 H   0  0  0  0  0  0
   -0.2637   50.8964   29.3089 H   0  0  0  0  0  0
    3.6465   51.1963   17.5935 H   0  0  0  0  0  0
  1  2  1  0  0  0
  1 27  1  0  0  0
  1 28  1  0  0  0
  1 29  1  0  0  0
  2  7  2  0  0  0
  2  3  1  0  0  0
  3  4  2  0  0  0
  3 30  1  0  0  0
  4  5  1  0  0  0
  4 31  1  0  0  0
  5  6  2  0  0  0
  5 23  1  0  0  0
  6  7  1  0  0  0
  6 32  1  0  0  0
  7  8  1  0  0  0
  8  9  1  0  0  0
  8 33  1  0  0  0
  9 10  2  0  0  0
  9 11  1  0  0  0
 11 12  2  0  0  0
 11 13  1  0  0  0
 13 14  1  0  0  0
 13 34  1  0  0  0
 14 15  1  0  0  0
 14 35  1  0  0  0
 14 36  1  0  0  0
 15 19  1  0  0  0
 15 16  1  0  0  0
 15 37  1  0  0  0
 16 17  1  0  0  0
 16 38  1  0  0  0
 16 39  1  0  0  0
 17 18  1  0  0  0
 17 40  1  0  0  0
 17 41  1  0  0  0
 18 19  1  0  0  0
 18 20  1  0  0  0
 18 55  1  0  0  0
 19 42  1  0  0  0
 19 43  1  0  0  0
 20 21  1  0  0  0
 20 22  1  0  0  0
 20 44  1  0  0  0
 21 45  1  0  0  0
 21 46  1  0  0  0
 21 47  1  0  0  0
 22 48  1  0  0  0
 22 49  1  0  0  0
 22 50  1  0  0  0
 23 24  2  0  0  0
 23 25  1  0  0  0
 25 26  1  0  0  0
 25 51  1  0  0  0
 26 52  1  0  0  0
 26 53  1  0  0  0
 26 54  1  0  0  0
M  CHG  1  18   1
M  END
> <i_i_glide_confnum>
36

> <i_i_glide_lignum>
6224

> <i_i_glide_posenum>
322

> <i_i_glide_rotatable_bonds>
9

> <i_m_Source_File_Index>
3928

> <b_m_subgroup_collapsed>
0

> <r_i_docking_score>
-5.35532

> <r_i_glide_ecoul>
-3.04106

> <r_i_glide_eff_state_penalty>
0

> <r_i_glide_einternal>
17.4805

> <r_i_glide_emodel>
-48.6818

> <r_i_glide_energy>
-40.8751

> <r_i_glide_erotb>
1.02819

> <r_i_glide_esite>
-0.1

> <r_i_glide_evdw>
-37.8341

> <r_i_glide_gscore>
-5.35532

> <r_i_glide_hbond>
-0.518499

> <r_i_glide_ligand_efficiency>
-0.205974

> <r_i_glide_ligand_efficiency_ln>
-1.25768

> <r_i_glide_ligand_efficiency_sa>
-0.610197

> <r_i_glide_lipo>
-1.65348

> <r_i_glide_metal>
0

> <r_i_glide_rewards>
-1.76367

> <s_i_glide_gridfile>
wee1_glide-grid

> <s_m_Source_File>
wee1_decoys_glide_SP.sdf

> <s_m_Source_Path>
/Users/zhangxujun/Desktop

> <s_m_entry_id>
4203

> <s_m_entry_name>
wee1_decoys_glide_SP.3928

> <s_m_subgroup_title>
wee1_decoys_glide_SP

> <s_m_subgroupid>
wee1_decoys_glide_SP


$$$$
