ZINC33635875_1320
                    3D
 Schrodinger Suite 2024-2.
 40 42  0  0  1  0            999 V2000
    2.6028   53.6802   27.9380 C   0  0  0  0  0  0
    1.8738   53.2804   29.0583 C   0  0  0  0  0  0
    2.5261   52.6792   30.1308 C   0  0  0  0  0  0
    3.9042   52.4967   30.1035 C   0  0  0  0  0  0
    4.6312   52.8963   28.9860 C   0  0  0  0  0  0
    3.9918   53.4700   27.8825 C   0  0  0  0  0  0
    4.8219   53.7982   26.6737 C   0  0  0  0  0  0
    6.0515   53.6968   26.6710 O   0  0  0  0  0  0
    4.0507   54.1734   25.3831 C   0  0  0  0  0  0
    4.7932   54.0976   24.1087 N   0  0  0  0  0  0
    5.9046   54.7587   23.7278 C   0  0  0  0  0  0
    6.6052   55.4387   24.4806 O   0  0  0  0  0  0
    6.1485   54.7222   22.3023 C   0  0  0  0  0  0
    7.2430   55.3016   21.6738 C   0  0  0  0  0  0
    7.0743   55.1906   20.3348 O   0  0  0  0  0  0
    5.9045   54.5132   20.2158 C   0  0  0  0  0  0
    5.3422   54.2176   21.3677 N   0  0  0  0  0  0
    5.4278   54.1765   18.8107 C   0  0  2  0  0  0
    6.2911   53.9651   18.1746 H   0  0  0  0  0  0
    4.5066   55.2302   18.1822 C   0  0  0  0  0  0
    3.6225   54.4958   17.1671 C   0  0  0  0  0  0
    3.8788   52.9966   17.3593 C   0  0  0  0  0  0
    4.5803   52.8967   18.7203 N   0  3  0  0  0  0
    1.5366   52.0967   31.6496 Br  0  0  0  0  0  0
    2.0602   54.1322   27.1212 H   0  0  0  0  0  0
    0.8041   53.4246   29.0894 H   0  0  0  0  0  0
    4.4097   52.0417   30.9432 H   0  0  0  0  0  0
    5.6990   52.7344   28.9706 H   0  0  0  0  0  0
    3.2153   53.4812   25.2790 H   0  0  0  0  0  0
    3.6198   55.1677   25.4989 H   0  0  0  0  0  0
    4.3352   53.5712   23.3794 H   0  0  0  0  0  0
    8.1246   55.8195   22.0269 H   0  0  0  0  0  0
    3.8482   55.6493   18.9452 H   0  0  0  0  0  0
    5.0593   56.0763   17.7686 H   0  0  0  0  0  0
    2.5664   54.7335   17.3181 H   0  0  0  0  0  0
    3.8708   54.7926   16.1460 H   0  0  0  0  0  0
    2.9871   52.3671   17.3836 H   0  0  0  0  0  0
    4.5967   52.5953   16.6397 H   0  0  0  0  0  0
    5.1044   52.0165   18.7595 H   0  0  0  0  0  0
    3.8928   52.8769   19.4590 H   0  0  0  0  0  0
  1  6  2  0  0  0
  1  2  1  0  0  0
  1 25  1  0  0  0
  2  3  2  0  0  0
  2 26  1  0  0  0
  3  4  1  0  0  0
  3 24  1  0  0  0
  4  5  2  0  0  0
  4 27  1  0  0  0
  5  6  1  0  0  0
  5 28  1  0  0  0
  6  7  1  0  0  0
  7  8  2  0  0  0
  7  9  1  0  0  0
  9 10  1  0  0  0
  9 29  1  0  0  0
  9 30  1  0  0  0
 10 11  1  0  0  0
 10 31  1  0  0  0
 11 12  2  0  0  0
 11 13  1  0  0  0
 13 17  1  0  0  0
 13 14  2  0  0  0
 14 15  1  0  0  0
 14 32  1  0  0  0
 15 16  1  0  0  0
 16 17  2  0  0  0
 16 18  1  0  0  0
 18 19  1  0  0  0
 18 23  1  0  0  0
 18 20  1  0  0  0
 20 21  1  0  0  0
 20 33  1  0  0  0
 20 34  1  0  0  0
 21 22  1  0  0  0
 21 35  1  0  0  0
 21 36  1  0  0  0
 22 23  1  0  0  0
 22 37  1  0  0  0
 22 38  1  0  0  0
 23 39  1  0  0  0
 23 40  1  0  0  0
M  CHG  1  23   1
M  END
> <i_i_glide_confnum>
12

> <i_i_glide_lignum>
1321

> <i_i_glide_posenum>
329

> <i_i_glide_rotatable_bonds>
6

> <i_m_Source_File_Index>
677

> <b_m_subgroup_collapsed>
0

> <r_i_docking_score>
-5.4983

> <r_i_glide_ecoul>
-5.42977

> <r_i_glide_eff_state_penalty>
0

> <r_i_glide_einternal>
5.16553

> <r_i_glide_emodel>
-53.9972

> <r_i_glide_energy>
-40.126

> <r_i_glide_erotb>
0.674051

> <r_i_glide_esite>
-0.0930922

> <r_i_glide_evdw>
-34.6963

> <r_i_glide_gscore>
-5.4983

> <r_i_glide_hbond>
-0.2

> <r_i_glide_ligand_efficiency>
-0.239057

> <r_i_glide_ligand_efficiency_ln>
-1.32954

> <r_i_glide_ligand_efficiency_sa>
-0.679845

> <r_i_glide_lipo>
-1.79808

> <r_i_glide_metal>
0

> <r_i_glide_rewards>
-1.53191

> <s_i_glide_gridfile>
wee1_glide-grid

> <s_m_Source_File>
wee1_decoys_glide_SP.sdf

> <s_m_Source_Path>
/Users/zhangxujun/Desktop

> <s_m_entry_id>
952

> <s_m_entry_name>
wee1_decoys_glide_SP.677

> <s_m_subgroup_title>
wee1_decoys_glide_SP

> <s_m_subgroupid>
wee1_decoys_glide_SP


$$$$
