ZINC13362272_5631
                    3D
 Schrodinger Suite 2024-2.
 48 50  0  0  1  0            999 V2000
    2.1608   53.5182   25.6040 C   0  0  0  0  0  0
    1.9041   53.6948   26.9605 C   0  0  0  0  0  0
    2.8986   54.1895   27.8072 C   0  0  0  0  0  0
    4.1574   54.4968   27.2833 C   0  0  0  0  0  0
    4.4126   54.3222   25.9263 C   0  0  0  0  0  0
    3.4189   53.8305   25.0731 C   0  0  0  0  0  0
    3.7643   53.6004   23.6519 C   0  0  0  0  0  0
    2.9603   53.0441   22.7154 C   0  0  0  0  0  0
    3.3957   52.7731   21.3397 C   0  0  0  0  0  0
    4.4924   53.1923   20.9588 O   0  0  0  0  0  0
    2.4865   52.0210   20.4017 C   0  0  0  0  0  0
    2.8136   51.9664   19.0363 C   0  0  0  0  0  0
    2.0046   51.2837   18.1332 C   0  0  0  0  0  0
    0.8469   50.6468   18.5797 C   0  0  0  0  0  0
    0.5173   50.6643   19.9354 C   0  0  0  0  0  0
    1.3347   51.3407   20.8392 C   0  0  0  0  0  0
   -0.2137   49.8305   17.3884 S   0  0  0  0  0  0
   -1.5210   49.5996   18.0128 O   0  0  0  0  0  0
   -0.1106   50.5943   16.1398 O   0  0  0  0  0  0
    0.5325   48.2523   17.0549 N   0  0  0  0  0  0
    0.3181   47.0629   17.7706 C   0  0  0  0  0  0
    0.7453   45.8716   17.1794 C   0  0  0  0  0  0
    0.5474   44.6521   17.8248 C   0  0  0  0  0  0
   -0.0760   44.6022   19.0811 C   0  0  0  0  0  0
   -0.4969   45.8054   19.6705 C   0  0  0  0  0  0
   -0.2955   47.0220   19.0253 C   0  0  0  0  0  0
   -0.2709   43.2965   19.7943 C   0  0  0  0  0  0
    0.1910   42.2464   19.2821 O   0  0  0  0  0  0
    2.6154   54.4009   29.2938 C   0  0  0  0  0  0
    2.3049   55.6809   29.4994 F   0  0  0  0  0  0
    1.5979   53.6520   29.7201 F   0  0  0  0  0  0
    3.6840   54.0991   30.0338 F   0  0  0  0  0  0
    1.3689   53.1234   24.9848 H   0  0  0  0  0  0
    0.9246   53.4512   27.3446 H   0  0  0  0  0  0
    4.9410   54.8769   27.9240 H   0  0  0  0  0  0
    5.3948   54.5588   25.5432 H   0  0  0  0  0  0
    4.7672   53.8960   23.3674 H   0  0  0  0  0  0
    1.9551   52.7643   22.9713 H   0  0  0  0  0  0
    3.7090   52.4400   18.6533 H   0  0  0  0  0  0
    2.2796   51.2516   17.0867 H   0  0  0  0  0  0
   -0.3729   50.1659   20.2929 H   0  0  0  0  0  0
    1.0460   51.3038   21.8795 H   0  0  0  0  0  0
    1.1508   48.2183   16.2593 H   0  0  0  0  0  0
    1.2290   45.8857   16.2123 H   0  0  0  0  0  0
    0.8861   43.7457   17.3403 H   0  0  0  0  0  0
   -0.9707   45.8086   20.6426 H   0  0  0  0  0  0
   -0.6222   47.9233   19.5167 H   0  0  0  0  0  0
   -0.8955   43.2962   20.8810 O   0  5  0  0  0  0
  1  6  2  0  0  0
  1  2  1  0  0  0
  1 33  1  0  0  0
  2  3  2  0  0  0
  2 34  1  0  0  0
  3  4  1  0  0  0
  3 29  1  0  0  0
  4  5  2  0  0  0
  4 35  1  0  0  0
  5  6  1  0  0  0
  5 36  1  0  0  0
  6  7  1  0  0  0
  7  8  2  0  0  0
  7 37  1  0  0  0
  8  9  1  0  0  0
  8 38  1  0  0  0
  9 10  2  0  0  0
  9 11  1  0  0  0
 11 16  2  0  0  0
 11 12  1  0  0  0
 12 13  2  0  0  0
 12 39  1  0  0  0
 13 14  1  0  0  0
 13 40  1  0  0  0
 14 15  2  0  0  0
 14 17  1  0  0  0
 15 16  1  0  0  0
 15 41  1  0  0  0
 16 42  1  0  0  0
 17 18  2  0  0  0
 17 19  2  0  0  0
 17 20  1  0  0  0
 20 21  1  0  0  0
 20 43  1  0  0  0
 21 26  2  0  0  0
 21 22  1  0  0  0
 22 23  2  0  0  0
 22 44  1  0  0  0
 23 24  1  0  0  0
 23 45  1  0  0  0
 24 25  2  0  0  0
 24 27  1  0  0  0
 25 26  1  0  0  0
 25 46  1  0  0  0
 26 47  1  0  0  0
 27 28  2  0  0  0
 27 48  1  0  0  0
 29 30  1  0  0  0
 29 31  1  0  0  0
 29 32  1  0  0  0
M  CHG  1  48  -1
M  END
> <i_i_glide_confnum>
142

> <i_i_glide_lignum>
5632

> <i_i_glide_posenum>
363

> <i_i_glide_rotatable_bonds>
8

> <i_m_Source_File_Index>
1388

> <b_m_subgroup_collapsed>
0

> <r_i_docking_score>
-5.14534

> <r_i_glide_ecoul>
-7.3139

> <r_i_glide_eff_state_penalty>
0

> <r_i_glide_einternal>
4.16048

> <r_i_glide_emodel>
-54.1166

> <r_i_glide_energy>
-37.4902

> <r_i_glide_erotb>
0.539396

> <r_i_glide_esite>
-0.165382

> <r_i_glide_evdw>
-30.1763

> <r_i_glide_gscore>
-5.14534

> <r_i_glide_hbond>
-0.41618

> <r_i_glide_ligand_efficiency>
-0.155919

> <r_i_glide_ligand_efficiency_ln>
-1.1443

> <r_i_glide_ligand_efficiency_sa>
-0.500117

> <r_i_glide_lipo>
-1.67656

> <r_i_glide_metal>
0

> <r_i_glide_rewards>
-0.820719

> <s_i_glide_gridfile>
wee1_glide-grid

> <s_m_Source_File>
wee1_decoys_glide_SP.sdf

> <s_m_Source_Path>
/Users/zhangxujun/Desktop

> <s_m_entry_id>
1663

> <s_m_entry_name>
wee1_decoys_glide_SP.1388

> <s_m_subgroup_title>
wee1_decoys_glide_SP

> <s_m_subgroupid>
wee1_decoys_glide_SP


$$$$
