ZINC04222007_4208
                    3D
 Schrodinger Suite 2024-2.
 74 78  0  0  1  0            999 V2000
    2.6595   49.5176   22.0144 C   0  0  0  0  0  0
    2.2687   51.0039   22.0882 C   0  0  2  0  0  0
    1.4677   51.1482   21.3605 H   0  0  0  0  0  0
    3.4208   51.9487   21.6566 C   0  0  0  0  0  0
    3.8215   53.0708   22.3968 C   0  0  0  0  0  0
    5.0149   53.9783   21.5329 S   0  0  0  0  0  0
    4.8362   52.8406   20.2276 C   0  0  0  0  0  0
    4.0131   51.8444   20.4777 N   0  0  0  0  0  0
    5.5539   52.8967   19.0363 N   0  0  0  0  0  0
    6.3091   53.9117   18.5555 C   0  0  0  0  0  0
    6.4144   55.0178   19.0880 O   0  0  0  0  0  0
    7.1057   53.6003   17.3072 C   0  0  0  0  0  0
    6.6889   52.6294   16.3880 C   0  0  0  0  0  0
    7.4805   52.3063   15.2893 C   0  0  0  0  0  0
    8.7036   52.9619   15.0828 C   0  0  0  0  0  0
    9.1000   53.9560   15.9745 C   0  0  0  0  0  0
    8.3118   54.2762   17.0758 C   0  0  0  0  0  0
    9.5700   52.6922   14.0414 O   0  0  0  0  0  0
    9.2847   51.6102   13.1603 C   0  0  0  0  0  0
    3.2225   53.4856   23.7165 C   0  0  0  0  0  0
    1.7553   52.9808   23.7264 C   0  0  1  0  0  0
    1.6773   51.4271   23.4954 C   0  0  1  0  0  0
    2.3056   50.9965   24.2517 H   0  0  0  0  0  0
    0.2456   50.8649   23.8416 C   0  0  2  0  0  0
   -0.4607   51.2950   23.1343 H   0  0  0  0  0  0
   -0.2361   51.2731   25.2740 C   0  0  2  0  0  0
   -1.2595   50.9078   25.3735 H   0  0  0  0  0  0
   -0.3151   52.8149   25.2525 C   0  0  0  0  0  0
    1.1047   53.4170   25.0518 C   0  0  0  0  0  0
    0.5839   50.7963   26.5359 C   0  0  2  0  0  0
    1.5043   51.3196   26.4571 H   0  0  0  0  0  0
    1.0202   49.3079   26.5561 C   0  0  0  0  0  0
   -0.0429   51.2982   27.8802 C   0  0  0  0  0  0
   -1.2730   51.2965   27.9693 O   0  0  0  0  0  0
    0.7346   51.6919   28.9347 N   0  0  0  0  0  0
    2.1692   51.9985   28.8486 C   0  0  0  0  0  0
    2.3280   53.5239   28.6623 C   0  0  0  0  0  0
    1.6449   54.4971   30.0376 S   0  0  0  0  0  0
    0.0147   53.6975   30.1151 C   0  0  0  0  0  0
    0.1074   52.1591   30.1858 C   0  0  0  0  0  0
    0.0493   49.4841   23.6137 O   0  0  0  0  0  0
    0.9996   53.6968   22.6228 C   0  0  0  0  0  0
    3.1096   49.2744   21.0582 H   0  0  0  0  0  0
    3.2765   49.2181   22.8573 H   0  0  0  0  0  0
    1.7841   48.8744   22.0396 H   0  0  0  0  0  0
    5.4996   52.0314   18.4853 H   0  0  0  0  0  0
    5.7543   52.1033   16.5146 H   0  0  0  0  0  0
    7.1334   51.5412   14.6126 H   0  0  0  0  0  0
   10.0394   54.4655   15.8174 H   0  0  0  0  0  0
    8.6660   55.0306   17.7656 H   0  0  0  0  0  0
   10.0947   51.5137   12.4378 H   0  0  0  0  0  0
    9.2132   50.6684   13.7019 H   0  0  0  0  0  0
    8.3626   51.7714   12.6036 H   0  0  0  0  0  0
    3.2693   54.5708   23.8309 H   0  0  0  0  0  0
    3.8014   53.0876   24.5451 H   0  0  0  0  0  0
   -1.0077   53.1637   24.4855 H   0  0  0  0  0  0
   -0.7483   53.1572   26.1889 H   0  0  0  0  0  0
    1.1039   54.4970   25.1054 H   0  0  0  0  0  0
    1.7835   53.1695   25.8520 H   0  0  0  0  0  0
    1.8678   49.1755   27.2423 H   0  0  0  0  0  0
    0.2171   48.6458   26.8821 H   0  0  0  0  0  0
    1.3925   48.9342   25.6063 H   0  0  0  0  0  0
    2.6966   51.3798   28.1242 H   0  0  0  0  0  0
    2.6368   51.6966   29.7840 H   0  0  0  0  0  0
    3.3771   53.7952   28.5462 H   0  0  0  0  0  0
    1.7991   53.8857   27.7856 H   0  0  0  0  0  0
   -0.4941   54.0962   30.9931 H   0  0  0  0  0  0
   -0.5333   54.0133   29.2290 H   0  0  0  0  0  0
    0.7210   51.8519   31.0339 H   0  0  0  0  0  0
   -0.8372   51.6495   30.3864 H   0  0  0  0  0  0
    0.5456   48.9952   24.2744 H   0  0  0  0  0  0
    1.4519   53.6282   21.6434 H   0  0  0  0  0  0
   -0.0038   53.2961   22.5259 H   0  0  0  0  0  0
    0.9553   54.7595   22.8748 H   0  0  0  0  0  0
  1  2  1  0  0  0
  1 43  1  0  0  0
  1 44  1  0  0  0
  1 45  1  0  0  0
  2  3  1  0  0  0
  2 22  1  0  0  0
  2  4  1  0  0  0
  4  8  1  0  0  0
  4  5  2  0  0  0
  5  6  1  0  0  0
  5 20  1  0  0  0
  6  7  1  0  0  0
  7  8  2  0  0  0
  7  9  1  0  0  0
  9 10  1  0  0  0
  9 46  1  0  0  0
 10 11  2  0  0  0
 10 12  1  0  0  0
 12 17  2  0  0  0
 12 13  1  0  0  0
 13 14  2  0  0  0
 13 47  1  0  0  0
 14 15  1  0  0  0
 14 48  1  0  0  0
 15 16  2  0  0  0
 15 18  1  0  0  0
 16 17  1  0  0  0
 16 49  1  0  0  0
 17 50  1  0  0  0
 18 19  1  0  0  0
 19 51  1  0  0  0
 19 52  1  0  0  0
 19 53  1  0  0  0
 20 21  1  0  0  0
 20 54  1  0  0  0
 20 55  1  0  0  0
 21 29  1  0  0  0
 21 22  1  0  0  0
 21 42  1  0  0  0
 22 23  1  0  0  0
 22 24  1  0  0  0
 24 25  1  0  0  0
 24 26  1  0  0  0
 24 41  1  0  0  0
 26 27  1  0  0  0
 26 28  1  0  0  0
 26 30  1  0  0  0
 28 29  1  0  0  0
 28 56  1  0  0  0
 28 57  1  0  0  0
 29 58  1  0  0  0
 29 59  1  0  0  0
 30 31  1  0  0  0
 30 32  1  0  0  0
 30 33  1  0  0  0
 32 60  1  0  0  0
 32 61  1  0  0  0
 32 62  1  0  0  0
 33 34  2  0  0  0
 33 35  1  0  0  0
 35 40  1  0  0  0
 35 36  1  0  0  0
 36 37  1  0  0  0
 36 63  1  0  0  0
 36 64  1  0  0  0
 37 38  1  0  0  0
 37 65  1  0  0  0
 37 66  1  0  0  0
 38 39  1  0  0  0
 39 40  1  0  0  0
 39 67  1  0  0  0
 39 68  1  0  0  0
 40 69  1  0  0  0
 40 70  1  0  0  0
 41 71  1  0  0  0
 42 72  1  0  0  0
 42 73  1  0  0  0
 42 74  1  0  0  0
M  END
> <i_i_glide_confnum>
88

> <i_i_glide_lignum>
4209

> <i_i_glide_posenum>
144

> <i_i_glide_rotatable_bonds>
8

> <i_m_Source_File_Index>
4900

> <b_m_subgroup_collapsed>
0

> <r_i_docking_score>
-4.19999

> <r_i_glide_ecoul>
-5.34658

> <r_i_glide_eff_state_penalty>
0

> <r_i_glide_einternal>
4.66755

> <r_i_glide_emodel>
-40.8945

> <r_i_glide_energy>
-32.7459

> <r_i_glide_erotb>
0.419963

> <r_i_glide_esite>
-0.172139

> <r_i_glide_evdw>
-27.3993

> <r_i_glide_gscore>
-4.19999

> <r_i_glide_hbond>
-0.16

> <r_i_glide_ligand_efficiency>
-0.113513

> <r_i_glide_ligand_efficiency_ln>
-0.910879

> <r_i_glide_ligand_efficiency_sa>
-0.378251

> <r_i_glide_lipo>
-1.98126

> <r_i_glide_metal>
0

> <r_i_glide_rewards>
-0.134595

> <s_i_glide_gridfile>
wee1_glide-grid

> <s_m_Source_File>
wee1_decoys_glide_SP.sdf

> <s_m_Source_Path>
/Users/zhangxujun/Desktop

> <s_m_entry_id>
5175

> <s_m_entry_name>
wee1_decoys_glide_SP.4900

> <s_m_subgroup_title>
wee1_decoys_glide_SP

> <s_m_subgroupid>
wee1_decoys_glide_SP


$$$$
