ZINC12767399_5184
                    3D
 Schrodinger Suite 2024-2.
 54 57  0  0  1  0            999 V2000
    5.4865   52.9931   22.5189 C   0  0  0  0  0  0
    5.0793   53.5362   21.1592 C   0  0  0  0  0  0
    5.6770   54.7250   20.7291 C   0  0  0  0  0  0
    5.4479   55.2134   19.4460 C   0  0  0  0  0  0
    4.6097   54.5168   18.5778 C   0  0  0  0  0  0
    3.9949   53.3367   18.9978 C   0  0  0  0  0  0
    4.2011   52.8469   20.2917 C   0  0  0  0  0  0
    3.5426   51.6452   20.6190 N   0  0  0  0  0  0
    2.7252   51.4445   21.6781 C   0  0  0  0  0  0
    2.4513   52.3262   22.4951 O   0  0  0  0  0  0
    2.1177   50.0281   21.7970 C   0  0  0  0  0  0
    1.6617   49.6967   23.1573 N   0  0  0  0  0  0
    0.4617   50.0232   23.6741 C   0  0  0  0  0  0
   -0.3694   50.6588   23.0240 O   0  0  0  0  0  0
    0.1597   49.5224   25.1224 C   0  0  2  0  0  0
    1.0843   49.0801   25.5000 H   0  0  0  0  0  0
   -0.9388   48.4221   25.0795 C   0  0  0  0  0  0
   -2.3560   48.9310   24.7286 C   0  0  0  0  0  0
   -2.7868   50.0960   25.6444 C   0  0  0  0  0  0
   -1.7333   51.2246   25.7472 C   0  0  0  0  0  0
   -0.3356   50.6518   26.0986 C   0  0  2  0  0  0
   -0.5273   50.1052   27.0253 H   0  0  0  0  0  0
    0.7048   51.6987   26.4650 C   0  0  0  0  0  0
    1.2328   52.5128   25.5899 N   0  0  0  0  0  0
    2.2633   53.2304   26.1095 C   0  0  0  0  0  0
    3.0866   54.0964   25.3780 C   0  0  0  0  0  0
    4.1525   54.7125   26.0350 C   0  0  0  0  0  0
    4.3869   54.4960   27.3931 C   0  0  0  0  0  0
    3.5676   53.6560   28.1481 C   0  0  0  0  0  0
    2.5101   53.0141   27.4894 C   0  0  0  0  0  0
    1.3444   51.8484   28.0932 S   0  0  0  0  0  0
    6.2958   56.8233   18.8875 Br  0  0  0  0  0  0
    4.7683   53.2889   23.2805 H   0  0  0  0  0  0
    5.5559   51.9072   22.4813 H   0  0  0  0  0  0
    6.4699   53.3509   22.8263 H   0  0  0  0  0  0
    6.3501   55.2610   21.3819 H   0  0  0  0  0  0
    4.4369   54.8886   17.5787 H   0  0  0  0  0  0
    3.3516   52.8054   18.3108 H   0  0  0  0  0  0
    3.6205   50.9126   19.9259 H   0  0  0  0  0  0
    1.2869   49.9415   21.0954 H   0  0  0  0  0  0
    2.8590   49.2835   21.5092 H   0  0  0  0  0  0
    2.2929   49.1359   23.7179 H   0  0  0  0  0  0
   -0.6213   47.5849   24.4562 H   0  0  0  0  0  0
   -0.9575   47.9434   26.0628 H   0  0  0  0  0  0
   -3.0711   48.1126   24.8169 H   0  0  0  0  0  0
   -2.3981   49.2470   23.6862 H   0  0  0  0  0  0
   -2.9748   49.6979   26.6444 H   0  0  0  0  0  0
   -3.7380   50.5056   25.3020 H   0  0  0  0  0  0
   -2.0744   51.8757   26.5539 H   0  0  0  0  0  0
   -1.7131   51.7996   24.8215 H   0  0  0  0  0  0
    2.9088   54.2609   24.3252 H   0  0  0  0  0  0
    4.8085   55.3694   25.4822 H   0  0  0  0  0  0
    5.2235   54.9884   27.8691 H   0  0  0  0  0  0
    3.7622   53.4837   29.1962 H   0  0  0  0  0  0
  1  2  1  0  0  0
  1 33  1  0  0  0
  1 34  1  0  0  0
  1 35  1  0  0  0
  2  7  2  0  0  0
  2  3  1  0  0  0
  3  4  2  0  0  0
  3 36  1  0  0  0
  4  5  1  0  0  0
  4 32  1  0  0  0
  5  6  2  0  0  0
  5 37  1  0  0  0
  6  7  1  0  0  0
  6 38  1  0  0  0
  7  8  1  0  0  0
  8  9  1  0  0  0
  8 39  1  0  0  0
  9 10  2  0  0  0
  9 11  1  0  0  0
 11 12  1  0  0  0
 11 40  1  0  0  0
 11 41  1  0  0  0
 12 13  1  0  0  0
 12 42  1  0  0  0
 13 14  2  0  0  0
 13 15  1  0  0  0
 15 16  1  0  0  0
 15 21  1  0  0  0
 15 17  1  0  0  0
 17 18  1  0  0  0
 17 43  1  0  0  0
 17 44  1  0  0  0
 18 19  1  0  0  0
 18 45  1  0  0  0
 18 46  1  0  0  0
 19 20  1  0  0  0
 19 47  1  0  0  0
 19 48  1  0  0  0
 20 21  1  0  0  0
 20 49  1  0  0  0
 20 50  1  0  0  0
 21 22  1  0  0  0
 21 23  1  0  0  0
 23 31  1  0  0  0
 23 24  2  0  0  0
 24 25  1  0  0  0
 25 30  2  0  0  0
 25 26  1  0  0  0
 26 27  2  0  0  0
 26 51  1  0  0  0
 27 28  1  0  0  0
 27 52  1  0  0  0
 28 29  2  0  0  0
 28 53  1  0  0  0
 29 30  1  0  0  0
 29 54  1  0  0  0
 30 31  1  0  0  0
M  END
> <i_i_glide_confnum>
212

> <i_i_glide_lignum>
5185

> <i_i_glide_posenum>
333

> <i_i_glide_rotatable_bonds>
7

> <i_m_Source_File_Index>
3671

> <b_m_subgroup_collapsed>
0

> <r_i_docking_score>
-4.90741

> <r_i_glide_ecoul>
-4.59804

> <r_i_glide_eff_state_penalty>
0

> <r_i_glide_einternal>
7.47993

> <r_i_glide_emodel>
-55.2513

> <r_i_glide_energy>
-45.2827

> <r_i_glide_erotb>
0.601222

> <r_i_glide_esite>
-0.0309922

> <r_i_glide_evdw>
-40.6846

> <r_i_glide_gscore>
-4.90741

> <r_i_glide_hbond>
-0.32

> <r_i_glide_ligand_efficiency>
-0.16358

> <r_i_glide_ligand_efficiency_ln>
-1.11502

> <r_i_glide_ligand_efficiency_sa>
-0.508282

> <r_i_glide_lipo>
-2.13263

> <r_i_glide_metal>
0

> <r_i_glide_rewards>
-0.301069

> <s_i_glide_gridfile>
wee1_glide-grid

> <s_m_Source_File>
wee1_decoys_glide_SP.sdf

> <s_m_Source_Path>
/Users/zhangxujun/Desktop

> <s_m_entry_id>
3946

> <s_m_entry_name>
wee1_decoys_glide_SP.3671

> <s_m_subgroup_title>
wee1_decoys_glide_SP

> <s_m_subgroupid>
wee1_decoys_glide_SP


$$$$
