ZINC00293762_1569
                    3D
 Schrodinger Suite 2024-2.
 33 34  0  0  1  0            999 V2000
   -0.3623   51.6965   28.9532 C   0  0  0  0  0  0
    0.0854   52.5042   29.9954 C   0  0  0  0  0  0
    1.2956   53.1800   29.8706 C   0  0  0  0  0  0
    2.0635   53.0286   28.7105 C   0  0  0  0  0  0
    1.6146   52.2080   27.6768 C   0  0  0  0  0  0
    0.3981   51.5415   27.7961 C   0  0  0  0  0  0
    3.6300   53.8875   28.5448 S   0  0  0  0  0  0
    4.6774   52.8971   28.2845 O   0  0  0  0  0  0
    3.7308   54.8079   29.6814 O   0  0  0  0  0  0
    3.4847   54.8949   27.1005 N   0  0  0  0  0  0
    3.7085   54.4319   25.7994 C   0  0  0  0  0  0
    2.6296   54.0914   24.9846 C   0  0  0  0  0  0
    2.8350   53.7556   23.6499 C   0  0  0  0  0  0
    4.1294   53.7638   23.1077 C   0  0  0  0  0  0
    5.2099   54.0975   23.9385 C   0  0  0  0  0  0
    5.0013   54.4224   25.2787 C   0  0  0  0  0  0
    4.3696   53.4566   21.6451 C   0  0  0  0  0  0
    5.3508   53.9317   21.0659 O   0  0  0  0  0  0
    3.4758   52.6325   21.0557 N   0  0  0  0  0  0
    3.5150   52.3882   19.6743 N   0  0  0  0  0  0
   -1.2952   51.1588   29.0545 H   0  0  0  0  0  0
   -0.4973   52.5969   30.9017 H   0  0  0  0  0  0
    1.6267   53.8095   30.6815 H   0  0  0  0  0  0
    2.2117   52.0968   26.7854 H   0  0  0  0  0  0
    0.0479   50.8949   27.0043 H   0  0  0  0  0  0
    2.9247   55.7249   27.2125 H   0  0  0  0  0  0
    1.6231   54.0976   25.3775 H   0  0  0  0  0  0
    1.9724   53.5214   23.0426 H   0  0  0  0  0  0
    6.2191   54.1156   23.5495 H   0  0  0  0  0  0
    5.8389   54.6928   25.9043 H   0  0  0  0  0  0
    2.5940   52.3922   21.4842 H   0  0  0  0  0  0
    3.8533   53.2273   19.2206 H   0  0  0  0  0  0
    4.1799   51.6439   19.4794 H   0  0  0  0  0  0
  1  6  2  0  0  0
  1  2  1  0  0  0
  1 21  1  0  0  0
  2  3  2  0  0  0
  2 22  1  0  0  0
  3  4  1  0  0  0
  3 23  1  0  0  0
  4  5  2  0  0  0
  4  7  1  0  0  0
  5  6  1  0  0  0
  5 24  1  0  0  0
  6 25  1  0  0  0
  7  8  2  0  0  0
  7  9  2  0  0  0
  7 10  1  0  0  0
 10 11  1  0  0  0
 10 26  1  0  0  0
 11 16  2  0  0  0
 11 12  1  0  0  0
 12 13  2  0  0  0
 12 27  1  0  0  0
 13 14  1  0  0  0
 13 28  1  0  0  0
 14 15  2  0  0  0
 14 17  1  0  0  0
 15 16  1  0  0  0
 15 29  1  0  0  0
 16 30  1  0  0  0
 17 18  2  0  0  0
 17 19  1  0  0  0
 19 20  1  0  0  0
 19 31  1  0  0  0
 20 32  1  0  0  0
 20 33  1  0  0  0
M  END
> <i_i_glide_confnum>
9

> <i_i_glide_lignum>
1570

> <i_i_glide_posenum>
79

> <i_i_glide_rotatable_bonds>
5

> <i_m_Source_File_Index>
5662

> <b_m_subgroup_collapsed>
0

> <r_i_docking_score>
-4.28989

> <r_i_glide_ecoul>
-2.385

> <r_i_glide_eff_state_penalty>
0

> <r_i_glide_einternal>
6.51226

> <r_i_glide_emodel>
-40.1533

> <r_i_glide_energy>
-35.2388

> <r_i_glide_erotb>
0.85962

> <r_i_glide_esite>
0

> <r_i_glide_evdw>
-32.8538

> <r_i_glide_gscore>
-4.28989

> <r_i_glide_hbond>
-0.0900932

> <r_i_glide_ligand_efficiency>
-0.214495

> <r_i_glide_ligand_efficiency_ln>
-1.07362

> <r_i_glide_ligand_efficiency_sa>
-0.582228

> <r_i_glide_lipo>
-1.90759

> <r_i_glide_metal>
0

> <r_i_glide_rewards>
-1.15139

> <s_i_glide_gridfile>
wee1_glide-grid

> <s_m_Source_File>
wee1_decoys_glide_SP.sdf

> <s_m_Source_Path>
/Users/zhangxujun/Desktop

> <s_m_entry_id>
5937

> <s_m_entry_name>
wee1_decoys_glide_SP.5662

> <s_m_subgroup_title>
wee1_decoys_glide_SP

> <s_m_subgroupid>
wee1_decoys_glide_SP


$$$$
