ZINC02089875_2845
                    3D
 Schrodinger Suite 2024-2.
 49 52  0  0  1  0            999 V2000
    6.7750   54.8874   18.0871 C   0  0  0  0  0  0
    6.4281   54.9105   19.5701 C   0  0  0  0  0  0
    7.3181   55.4378   20.5116 C   0  0  0  0  0  0
    6.7045   55.2965   22.1141 S   0  0  0  0  0  0
    5.2797   54.4704   21.5565 C   0  0  0  0  0  0
    5.2666   54.3157   20.1512 C   0  0  0  0  0  0
    4.2101   53.6478   19.3571 C   0  0  0  0  0  0
    4.0313   53.8426   18.1530 O   0  0  0  0  0  0
    3.4677   52.7950   20.1063 O   0  0  0  0  0  0
    2.4387   52.0206   19.5059 C   0  0  0  0  0  0
    4.2692   54.0545   22.4280 N   0  0  0  0  0  0
    4.2062   54.0968   23.7805 C   0  0  0  0  0  0
    5.1195   54.4958   24.5063 O   0  0  0  0  0  0
    2.9486   53.6204   24.3579 C   0  0  0  0  0  0
    2.6018   53.4907   25.7120 C   0  0  0  0  0  0
    1.3059   52.8961   25.9303 C   0  0  0  0  0  0
    0.5916   52.4965   27.0991 C   0  0  0  0  0  0
   -0.7028   51.9856   26.9341 C   0  0  0  0  0  0
   -1.2611   51.8852   25.6587 C   0  0  0  0  0  0
   -0.5974   52.2317   24.5275 N   0  0  0  0  0  0
    0.6370   52.7059   24.6833 C   0  0  0  0  0  0
    1.6039   53.1722   23.3078 S   0  0  0  0  0  0
   -2.6871   51.3758   25.4428 C   0  0  0  0  0  0
   -3.3064   51.1039   26.5935 F   0  0  0  0  0  0
   -3.4013   52.3043   24.8011 F   0  0  0  0  0  0
   -2.6698   50.2653   24.7025 F   0  0  0  0  0  0
    1.1050   52.5662   28.5012 C   0  0  0  0  0  0
    2.3197   52.2749   29.1114 C   0  0  0  0  0  0
    2.1638   52.4965   30.4811 C   0  0  0  0  0  0
    0.8508   52.8956   30.6593 C   0  0  0  0  0  0
    0.2150   52.9489   29.4609 O   0  0  0  0  0  0
    3.4289   53.8881   26.7300 N   0  0  0  0  0  0
    8.6811   56.0481   20.2917 C   0  0  0  0  0  0
    7.8223   55.1059   17.8772 H   0  0  0  0  0  0
    6.5934   53.9051   17.6528 H   0  0  0  0  0  0
    6.1580   55.5827   17.5197 H   0  0  0  0  0  0
    1.9559   51.3995   20.2603 H   0  0  0  0  0  0
    2.8430   51.3649   18.7319 H   0  0  0  0  0  0
    1.6806   52.6634   19.0559 H   0  0  0  0  0  0
    3.4819   53.6300   21.9582 H   0  0  0  0  0  0
   -1.2706   51.6601   27.7969 H   0  0  0  0  0  0
    3.2109   51.9239   28.6157 H   0  0  0  0  0  0
    2.9074   52.3571   31.2527 H   0  0  0  0  0  0
    0.2572   53.1454   31.5286 H   0  0  0  0  0  0
    3.1663   53.8178   27.7037 H   0  0  0  0  0  0
    4.3433   54.2735   26.5196 H   0  0  0  0  0  0
    9.3872   55.3164   19.8978 H   0  0  0  0  0  0
    8.6492   56.8775   19.5862 H   0  0  0  0  0  0
    9.1045   56.4258   21.2198 H   0  0  0  0  0  0
  1  2  1  0  0  0
  1 34  1  0  0  0
  1 35  1  0  0  0
  1 36  1  0  0  0
  2  6  1  0  0  0
  2  3  2  0  0  0
  3  4  1  0  0  0
  3 33  1  0  0  0
  4  5  1  0  0  0
  5  6  2  0  0  0
  5 11  1  0  0  0
  6  7  1  0  0  0
  7  8  2  0  0  0
  7  9  1  0  0  0
  9 10  1  0  0  0
 10 37  1  0  0  0
 10 38  1  0  0  0
 10 39  1  0  0  0
 11 12  1  0  0  0
 11 40  1  0  0  0
 12 13  2  0  0  0
 12 14  1  0  0  0
 14 22  1  0  0  0
 14 15  2  0  0  0
 15 16  1  0  0  0
 15 32  1  0  0  0
 16 21  2  0  0  0
 16 17  1  0  0  0
 17 18  2  0  0  0
 17 27  1  0  0  0
 18 19  1  0  0  0
 18 41  1  0  0  0
 19 20  2  0  0  0
 19 23  1  0  0  0
 20 21  1  0  0  0
 21 22  1  0  0  0
 23 24  1  0  0  0
 23 25  1  0  0  0
 23 26  1  0  0  0
 27 31  1  0  0  0
 27 28  2  0  0  0
 28 29  1  0  0  0
 28 42  1  0  0  0
 29 30  2  0  0  0
 29 43  1  0  0  0
 30 31  1  0  0  0
 30 44  1  0  0  0
 32 45  1  0  0  0
 32 46  1  0  0  0
 33 47  1  0  0  0
 33 48  1  0  0  0
 33 49  1  0  0  0
M  END
> <i_i_glide_confnum>
27

> <i_i_glide_lignum>
2846

> <i_i_glide_posenum>
339

> <i_i_glide_rotatable_bonds>
7

> <i_m_Source_File_Index>
5501

> <b_m_subgroup_collapsed>
0

> <r_i_docking_score>
-4.61957

> <r_i_glide_ecoul>
-0.89039

> <r_i_glide_eff_state_penalty>
0

> <r_i_glide_einternal>
4.03627

> <r_i_glide_emodel>
-58.8237

> <r_i_glide_energy>
-47.6879

> <r_i_glide_erotb>
0.415161

> <r_i_glide_esite>
-0.0731041

> <r_i_glide_evdw>
-46.7975

> <r_i_glide_gscore>
-4.61957

> <r_i_glide_hbond>
0

> <r_i_glide_ligand_efficiency>
-0.139987

> <r_i_glide_ligand_efficiency_ln>
-1.02737

> <r_i_glide_ligand_efficiency_sa>
-0.449013

> <r_i_glide_lipo>
-2.09714

> <r_i_glide_metal>
0

> <r_i_glide_rewards>
-0.39106

> <s_i_glide_gridfile>
wee1_glide-grid

> <s_m_Source_File>
wee1_decoys_glide_SP.sdf

> <s_m_Source_Path>
/Users/zhangxujun/Desktop

> <s_m_entry_id>
5776

> <s_m_entry_name>
wee1_decoys_glide_SP.5501

> <s_m_subgroup_title>
wee1_decoys_glide_SP

> <s_m_subgroupid>
wee1_decoys_glide_SP


$$$$
