ZINC66395275_1356
                    3D
 Schrodinger Suite 2024-2.
 49 50  0  0  1  0            999 V2000
    3.3810   53.2967   22.8673 C   0  0  0  0  0  0
    4.1824   54.4938   23.3941 C   0  0  0  0  0  0
    5.0854   54.0519   24.5788 N   0  3  0  0  0  0
    6.5845   54.3579   24.3198 C   0  0  0  0  0  0
    6.9063   55.8296   24.6214 C   0  0  0  0  0  0
    4.5875   54.4764   25.9923 C   0  0  0  0  0  0
    3.1125   54.0761   26.2122 C   0  0  0  0  0  0
    2.6693   54.4371   27.6452 C   0  0  0  0  0  0
    3.5291   53.6390   28.5392 N   0  0  0  0  0  0
    4.9451   54.0488   28.5380 C   0  0  0  0  0  0
    5.4816   53.8474   27.1007 C   0  0  0  0  0  0
    3.1188   52.5452   29.2433 C   0  0  0  0  0  0
    3.8635   51.8890   29.9741 O   0  0  0  0  0  0
    1.7265   52.1786   29.1606 C   0  0  0  0  0  0
    0.8149   52.0967   30.2173 C   0  0  0  0  0  0
   -0.4656   51.8081   29.7308 C   0  0  0  0  0  0
   -0.5499   51.6968   28.3509 C   0  0  0  0  0  0
    1.0082   51.7545   27.6265 S   0  0  0  0  0  0
   -2.0629   51.5388   27.3790 S   0  0  0  0  0  0
   -2.0941   52.6570   26.4324 O   0  0  0  0  0  0
   -3.1675   51.2895   28.3089 O   0  0  0  0  0  0
   -1.7411   50.0967   26.4817 N   0  0  0  0  0  0
    1.1038   52.3639   31.6817 C   0  0  0  0  0  0
    2.7329   53.6046   22.0450 H   0  0  0  0  0  0
    4.0369   52.5156   22.4816 H   0  0  0  0  0  0
    2.7424   52.8557   23.6324 H   0  0  0  0  0  0
    3.5379   55.2967   23.7452 H   0  0  0  0  0  0
    4.8212   54.8967   22.6062 H   0  0  0  0  0  0
    7.1474   53.6679   24.9480 H   0  0  0  0  0  0
    6.7912   54.0813   23.2837 H   0  0  0  0  0  0
    7.9044   56.0967   24.3047 H   0  0  0  0  0  0
    6.2501   56.4967   24.0817 H   0  0  0  0  0  0
    6.8304   56.0732   25.6797 H   0  0  0  0  0  0
    4.6346   55.5632   26.0817 H   0  0  0  0  0  0
    3.0106   53.0021   26.0519 H   0  0  0  0  0  0
    2.4415   54.4967   25.4689 H   0  0  0  0  0  0
    1.6012   54.3616   27.8506 H   0  0  0  0  0  0
    2.8702   55.4885   27.8540 H   0  0  0  0  0  0
    4.9864   55.1044   28.8105 H   0  0  0  0  0  0
    5.5438   53.5229   29.2817 H   0  0  0  0  0  0
    6.5158   54.1815   27.0382 H   0  0  0  0  0  0
    5.5443   52.7722   26.9265 H   0  0  0  0  0  0
   -1.2956   51.6967   30.4028 H   0  0  0  0  0  0
   -1.6956   49.2845   27.1346 H   0  0  0  0  0  0
   -2.4923   49.9055   25.8185 H   0  0  0  0  0  0
    2.0362   52.8967   31.8392 H   0  0  0  0  0  0
    0.3198   52.9745   32.1316 H   0  0  0  0  0  0
    1.1365   51.4501   32.2744 H   0  0  0  0  0  0
    5.0277   53.0417   24.5830 H   0  0  0  0  0  0
  1  2  1  0  0  0
  1 24  1  0  0  0
  1 25  1  0  0  0
  1 26  1  0  0  0
  2  3  1  0  0  0
  2 27  1  0  0  0
  2 28  1  0  0  0
  3  4  1  0  0  0
  3  6  1  0  0  0
  3 49  1  0  0  0
  4  5  1  0  0  0
  4 29  1  0  0  0
  4 30  1  0  0  0
  5 31  1  0  0  0
  5 32  1  0  0  0
  5 33  1  0  0  0
  6 11  1  0  0  0
  6  7  1  0  0  0
  6 34  1  0  0  0
  7  8  1  0  0  0
  7 35  1  0  0  0
  7 36  1  0  0  0
  8  9  1  0  0  0
  8 37  1  0  0  0
  8 38  1  0  0  0
  9 10  1  0  0  0
  9 12  1  0  0  0
 10 11  1  0  0  0
 10 39  1  0  0  0
 10 40  1  0  0  0
 11 41  1  0  0  0
 11 42  1  0  0  0
 12 13  2  0  0  0
 12 14  1  0  0  0
 14 18  1  0  0  0
 14 15  2  0  0  0
 15 16  1  0  0  0
 15 23  1  0  0  0
 16 17  2  0  0  0
 16 43  1  0  0  0
 17 18  1  0  0  0
 17 19  1  0  0  0
 19 20  2  0  0  0
 19 21  2  0  0  0
 19 22  1  0  0  0
 22 44  1  0  0  0
 22 45  1  0  0  0
 23 46  1  0  0  0
 23 47  1  0  0  0
 23 48  1  0  0  0
M  CHG  1   3   1
M  END
> <i_i_glide_confnum>
15

> <i_i_glide_lignum>
1357

> <i_i_glide_posenum>
133

> <i_i_glide_rotatable_bonds>
6

> <i_m_Source_File_Index>
4864

> <b_m_subgroup_collapsed>
0

> <r_i_docking_score>
-5.86943

> <r_i_glide_ecoul>
-7.68484

> <r_i_glide_eff_state_penalty>
0

> <r_i_glide_einternal>
18.3299

> <r_i_glide_emodel>
-45.0879

> <r_i_glide_energy>
-40.5

> <r_i_glide_erotb>
0.442706

> <r_i_glide_esite>
-0.238626

> <r_i_glide_evdw>
-32.8152

> <r_i_glide_gscore>
-5.86943

> <r_i_glide_hbond>
-0.34889

> <r_i_glide_ligand_efficiency>
-0.255192

> <r_i_glide_ligand_efficiency_ln>
-1.41928

> <r_i_glide_ligand_efficiency_sa>
-0.725733

> <r_i_glide_lipo>
-2.15393

> <r_i_glide_metal>
0

> <r_i_glide_rewards>
-0.777205

> <s_i_glide_gridfile>
wee1_glide-grid

> <s_m_Source_File>
wee1_decoys_glide_SP.sdf

> <s_m_Source_Path>
/Users/zhangxujun/Desktop

> <s_m_entry_id>
5139

> <s_m_entry_name>
wee1_decoys_glide_SP.4864

> <s_m_subgroup_title>
wee1_decoys_glide_SP

> <s_m_subgroupid>
wee1_decoys_glide_SP


$$$$
