ZINC28109023_269
                    3D
 Schrodinger Suite 2024-2.
 55 58  0  0  1  0            999 V2000
   -0.4710   52.2321   30.4538 C   0  0  0  0  0  0
    0.3553   51.9286   29.1957 C   0  0  1  0  0  0
    0.6868   50.8976   29.2656 H   0  0  0  0  0  0
   -0.4875   51.9464   27.8907 C   0  0  0  0  0  0
   -0.0443   52.4969   26.8801 O   0  0  0  0  0  0
   -1.6698   51.2970   27.9319 N   0  0  0  0  0  0
   -2.5603   50.9980   26.8859 C   0  0  0  0  0  0
   -3.8524   50.5876   27.2718 C   0  0  0  0  0  0
   -4.7907   50.1619   26.3217 C   0  0  0  0  0  0
   -4.3923   50.1413   24.9899 C   0  0  0  0  0  0
   -3.1442   50.5341   24.6036 C   0  0  0  0  0  0
   -2.1965   50.9765   25.5222 C   0  0  0  0  0  0
   -3.0149   50.3741   23.2598 O   0  0  0  0  0  0
   -4.2059   49.7731   22.8161 C   0  0  0  0  0  0
   -5.0909   49.7216   23.9044 O   0  0  0  0  0  0
   -4.7423   50.4969   21.8344 F   0  0  0  0  0  0
   -3.9569   48.5414   22.3712 F   0  0  0  0  0  0
    1.6671   52.7388   28.9355 N   0  3  1  0  0  0
    1.6997   54.1039   29.6564 C   0  0  0  0  0  0
    2.9488   54.9176   29.2430 C   0  0  0  0  0  0
    4.2743   54.1228   28.9951 C   0  0  1  0  0  0
    4.1159   52.6284   28.6226 C   0  0  0  0  0  0
    2.9278   51.9323   29.2956 C   0  0  0  0  0  0
    5.3365   54.8540   28.2868 N   0  0  0  0  0  0
    5.8943   54.7065   27.0630 C   0  0  0  0  0  0
    7.1042   54.8965   26.9736 O   0  0  0  0  0  0
    5.1017   54.4396   25.7887 C   0  0  0  0  0  0
    5.8028   54.2834   24.5783 C   0  0  0  0  0  0
    5.1314   54.0966   23.3729 C   0  0  0  0  0  0
    3.7421   54.0570   23.3584 C   0  0  0  0  0  0
    3.0254   54.1952   24.5416 C   0  0  0  0  0  0
    3.7016   54.3953   25.7438 C   0  0  0  0  0  0
   -1.2816   51.5121   30.5846 H   0  0  0  0  0  0
    0.1596   52.1617   31.3400 H   0  0  0  0  0  0
   -0.8955   53.2325   30.4070 H   0  0  0  0  0  0
   -1.9145   50.8460   28.8019 H   0  0  0  0  0  0
   -4.1258   50.5689   28.3173 H   0  0  0  0  0  0
   -5.7747   49.8317   26.6253 H   0  0  0  0  0  0
   -1.2049   51.2370   25.1869 H   0  0  0  0  0  0
    0.7930   54.6376   29.3602 H   0  0  0  0  0  0
    1.6697   53.8982   30.7265 H   0  0  0  0  0  0
    2.6621   55.4906   28.3639 H   0  0  0  0  0  0
    3.1033   55.6310   30.0576 H   0  0  0  0  0  0
    4.6582   54.0338   30.0132 H   0  0  0  0  0  0
    5.0357   52.0926   28.8633 H   0  0  0  0  0  0
    3.9590   52.5171   27.5514 H   0  0  0  0  0  0
    3.0026   51.8791   30.3820 H   0  0  0  0  0  0
    2.8066   50.9314   28.8818 H   0  0  0  0  0  0
    6.0434   55.2123   28.9173 H   0  0  0  0  0  0
    6.8825   54.3175   24.5537 H   0  0  0  0  0  0
    5.6865   53.9841   22.4533 H   0  0  0  0  0  0
    3.2168   53.9152   22.4248 H   0  0  0  0  0  0
    1.9461   54.1601   24.5231 H   0  0  0  0  0  0
    3.1046   54.5096   26.6243 H   0  0  0  0  0  0
    1.6603   52.8733   27.9291 H   0  0  0  0  0  0
  1  2  1  0  0  0
  1 33  1  0  0  0
  1 34  1  0  0  0
  1 35  1  0  0  0
  2  3  1  0  0  0
  2  4  1  0  0  0
  2 18  1  0  0  0
  4  5  2  0  0  0
  4  6  1  0  0  0
  6  7  1  0  0  0
  6 36  1  0  0  0
  7 12  2  0  0  0
  7  8  1  0  0  0
  8  9  2  0  0  0
  8 37  1  0  0  0
  9 10  1  0  0  0
  9 38  1  0  0  0
 10 15  1  0  0  0
 10 11  2  0  0  0
 11 12  1  0  0  0
 11 13  1  0  0  0
 12 39  1  0  0  0
 13 14  1  0  0  0
 14 15  1  0  0  0
 14 16  1  0  0  0
 14 17  1  0  0  0
 18 23  1  0  0  0
 18 19  1  0  0  0
 18 55  1  0  0  0
 19 20  1  0  0  0
 19 40  1  0  0  0
 19 41  1  0  0  0
 20 21  1  0  0  0
 20 42  1  0  0  0
 20 43  1  0  0  0
 21 22  1  0  0  0
 21 24  1  0  0  0
 21 44  1  0  0  0
 22 23  1  0  0  0
 22 45  1  0  0  0
 22 46  1  0  0  0
 23 47  1  0  0  0
 23 48  1  0  0  0
 24 25  1  0  0  0
 24 49  1  0  0  0
 25 26  2  0  0  0
 25 27  1  0  0  0
 27 32  2  0  0  0
 27 28  1  0  0  0
 28 29  2  0  0  0
 28 50  1  0  0  0
 29 30  1  0  0  0
 29 51  1  0  0  0
 30 31  2  0  0  0
 30 52  1  0  0  0
 31 32  1  0  0  0
 31 53  1  0  0  0
 32 54  1  0  0  0
M  CHG  1  18   1
M  END
> <i_i_glide_confnum>
32

> <i_i_glide_lignum>
270

> <i_i_glide_posenum>
140

> <i_i_glide_rotatable_bonds>
7

> <i_m_Source_File_Index>
3135

> <b_m_subgroup_collapsed>
0

> <r_i_docking_score>
-2.71106

> <r_i_glide_ecoul>
-1.70917

> <r_i_glide_eff_state_penalty>
0

> <r_i_glide_einternal>
14.6532

> <r_i_glide_emodel>
-29.5916

> <r_i_glide_energy>
-39.1333

> <r_i_glide_erotb>
0.446908

> <r_i_glide_esite>
-0.135509

> <r_i_glide_evdw>
-37.4241

> <r_i_glide_gscore>
-2.71106

> <r_i_glide_hbond>
-0.50066

> <r_i_glide_ligand_efficiency>
-0.0874536

> <r_i_glide_ligand_efficiency_ln>
-0.611427

> <r_i_glide_ligand_efficiency_sa>
-0.274725

> <r_i_glide_lipo>
-2.59744

> <r_i_glide_metal>
0

> <r_i_glide_rewards>
2.20322

> <s_i_glide_gridfile>
wee1_glide-grid

> <s_m_Source_File>
wee1_decoys_glide_SP.sdf

> <s_m_Source_Path>
/Users/zhangxujun/Desktop

> <s_m_entry_id>
3410

> <s_m_entry_name>
wee1_decoys_glide_SP.3135

> <s_m_subgroup_title>
wee1_decoys_glide_SP

> <s_m_subgroupid>
wee1_decoys_glide_SP


$$$$
