ZINC63376156_4095
                    3D
 Schrodinger Suite 2024-2.
 60 65  0  0  1  0            999 V2000
   -5.0794   52.1896   24.7367 C   0  0  0  0  0  0
   -4.0763   51.0543   24.9821 C   0  0  0  0  0  0
   -2.7480   51.2670   24.2442 C   0  0  0  0  0  0
   -1.7319   50.1435   24.5315 C   0  0  0  0  0  0
   -0.4348   50.3542   23.8739 N   0  0  0  0  0  0
    0.5136   51.1636   24.3963 C   0  0  0  0  0  0
    0.4510   51.8124   25.4424 O   0  0  0  0  0  0
    1.7351   51.0898   23.4891 C   0  0  2  0  0  0
    2.5183   50.6272   24.0814 H   0  0  0  0  0  0
    2.1801   52.4280   22.8526 C   0  0  1  0  0  0
    3.2144   52.2918   22.5382 H   0  0  0  0  0  0
    1.4093   52.5020   21.6262 N   0  0  0  0  0  0
    1.3617   51.1535   21.0519 C   0  0  1  0  0  0
    1.3052   50.2236   22.3240 C   0  0  2  0  0  0
    1.9503   49.3437   22.2560 H   0  0  0  0  0  0
   -0.0883   49.7363   22.7195 C   0  0  0  0  0  0
   -0.7454   48.9088   22.0862 O   0  0  0  0  0  0
    0.3262   51.0246   19.9633 C   0  0  0  0  0  0
   -1.0450   51.2981   19.9595 C   0  0  0  0  0  0
   -1.7845   51.1172   18.7913 C   0  0  0  0  0  0
   -1.1569   50.6520   17.6309 C   0  0  0  0  0  0
    0.2167   50.3879   17.6298 C   0  0  0  0  0  0
    0.9411   50.5924   18.8021 C   0  0  0  0  0  0
    2.3042   50.4800   19.0144 N   0  0  0  0  0  0
    2.6709   50.8447   20.2556 C   0  0  0  0  0  0
    3.8218   50.8970   20.6908 O   0  0  0  0  0  0
   -3.4700   51.4897   18.7852 Cl  0  0  0  0  0  0
    2.2086   53.7375   23.6842 C   0  0  0  0  0  0
    3.4371   53.8833   24.5709 C   0  0  0  0  0  0
    3.5760   53.9450   25.9104 C   0  0  0  0  0  0
    2.5796   53.8650   26.9889 C   0  0  0  0  0  0
    2.9531   53.9526   28.2811 C   0  0  0  0  0  0
    4.3703   54.1260   28.5747 C   0  0  0  0  0  0
    5.3065   54.1943   27.5934 C   0  0  0  0  0  0
    4.9258   54.1066   26.2477 C   0  0  0  0  0  0
    5.6683   54.1598   25.1685 N   0  3  0  0  0  0
    4.8252   54.0138   23.9717 C   0  0  0  0  0  0
   -5.9983   52.0235   25.2995 H   0  0  0  0  0  0
   -4.6713   53.1536   25.0467 H   0  0  0  0  0  0
   -5.3457   52.2607   23.6808 H   0  0  0  0  0  0
   -4.5235   50.1060   24.6778 H   0  0  0  0  0  0
   -3.8905   50.9695   26.0535 H   0  0  0  0  0  0
   -2.3227   52.2267   24.5454 H   0  0  0  0  0  0
   -2.9375   51.3248   23.1700 H   0  0  0  0  0  0
   -2.1642   49.1857   24.2314 H   0  0  0  0  0  0
   -1.5837   50.0515   25.6099 H   0  0  0  0  0  0
    1.7817   53.1760   20.9643 H   0  0  0  0  0  0
   -1.5330   51.6569   20.8536 H   0  0  0  0  0  0
   -1.7300   50.5081   16.7270 H   0  0  0  0  0  0
    0.7020   50.0555   16.7231 H   0  0  0  0  0  0
    2.9862   50.2194   18.3080 H   0  0  0  0  0  0
    2.2289   54.5864   22.9997 H   0  0  0  0  0  0
    1.2951   53.8725   24.2606 H   0  0  0  0  0  0
    1.5304   53.7216   26.7793 H   0  0  0  0  0  0
    2.2220   53.8875   29.0746 H   0  0  0  0  0  0
    4.6849   54.2092   29.6040 H   0  0  0  0  0  0
    6.3423   54.3260   27.8736 H   0  0  0  0  0  0
    5.1655   53.1325   23.4279 H   0  0  0  0  0  0
    4.9573   54.8941   23.3476 H   0  0  0  0  0  0
    6.6786   54.2668   25.1478 H   0  0  0  0  0  0
  1  2  1  0  0  0
  1 38  1  0  0  0
  1 39  1  0  0  0
  1 40  1  0  0  0
  2  3  1  0  0  0
  2 41  1  0  0  0
  2 42  1  0  0  0
  3  4  1  0  0  0
  3 43  1  0  0  0
  3 44  1  0  0  0
  4  5  1  0  0  0
  4 45  1  0  0  0
  4 46  1  0  0  0
  5 16  1  0  0  0
  5  6  1  0  0  0
  6  7  2  0  0  0
  6  8  1  0  0  0
  8  9  1  0  0  0
  8 14  1  0  0  0
  8 10  1  0  0  0
 10 11  1  0  0  0
 10 12  1  0  0  0
 10 28  1  0  0  0
 12 13  1  0  0  0
 12 47  1  0  0  0
 13 25  1  0  0  0
 13 14  1  0  0  0
 13 18  1  0  0  0
 14 15  1  0  0  0
 14 16  1  0  0  0
 16 17  2  0  0  0
 18 23  2  0  0  0
 18 19  1  0  0  0
 19 20  2  0  0  0
 19 48  1  0  0  0
 20 21  1  0  0  0
 20 27  1  0  0  0
 21 22  2  0  0  0
 21 49  1  0  0  0
 22 23  1  0  0  0
 22 50  1  0  0  0
 23 24  1  0  0  0
 24 25  1  0  0  0
 24 51  1  0  0  0
 25 26  2  0  0  0
 28 29  1  0  0  0
 28 52  1  0  0  0
 28 53  1  0  0  0
 29 37  1  0  0  0
 29 30  2  0  0  0
 30 35  1  0  0  0
 30 31  1  0  0  0
 31 32  2  0  0  0
 31 54  1  0  0  0
 32 33  1  0  0  0
 32 55  1  0  0  0
 33 34  2  0  0  0
 33 56  1  0  0  0
 34 35  1  0  0  0
 34 57  1  0  0  0
 35 36  2  0  0  0
 36 37  1  0  0  0
 36 60  1  0  0  0
 37 58  1  0  0  0
 37 59  1  0  0  0
M  CHG  1  36   1
M  END
> <i_i_glide_confnum>
35

> <i_i_glide_lignum>
4096

> <i_i_glide_posenum>
273

> <i_i_glide_rotatable_bonds>
5

> <i_m_Source_File_Index>
5461

> <b_m_subgroup_collapsed>
0

> <r_i_docking_score>
-5.25514

> <r_i_glide_ecoul>
-4.24941

> <r_i_glide_eff_state_penalty>
0

> <r_i_glide_einternal>
5.25529

> <r_i_glide_emodel>
-51.6148

> <r_i_glide_energy>
-40.302

> <r_i_glide_erotb>
0.354759

> <r_i_glide_esite>
-0.117571

> <r_i_glide_evdw>
-36.0526

> <r_i_glide_gscore>
-5.25514

> <r_i_glide_hbond>
-0.224938

> <r_i_glide_ligand_efficiency>
-0.154563

> <r_i_glide_ligand_efficiency_ln>
-1.16101

> <r_i_glide_ligand_efficiency_sa>
-0.500724

> <r_i_glide_lipo>
-2.57893

> <r_i_glide_metal>
0

> <r_i_glide_rewards>
-0.248418

> <s_i_glide_gridfile>
wee1_glide-grid

> <s_m_Source_File>
wee1_decoys_glide_SP.sdf

> <s_m_Source_Path>
/Users/zhangxujun/Desktop

> <s_m_entry_id>
5736

> <s_m_entry_name>
wee1_decoys_glide_SP.5461

> <s_m_subgroup_title>
wee1_decoys_glide_SP

> <s_m_subgroupid>
wee1_decoys_glide_SP


$$$$
