ZINC40307622_3586
                    3D
 Schrodinger Suite 2024-2.
 35 36  0  0  1  0            999 V2000
    5.7779   54.1384   25.7831 C   0  0  0  0  0  0
    4.8997   54.0983   24.5355 C   0  0  0  0  0  0
    5.5209   54.1106   23.2817 C   0  0  0  0  0  0
    4.7557   54.0953   22.1174 C   0  0  0  0  0  0
    3.3728   54.0545   22.1983 C   0  0  0  0  0  0
    2.7235   54.0304   23.4359 C   0  0  0  0  0  0
    3.4924   54.0470   24.6237 C   0  0  0  0  0  0
    2.9073   54.0568   25.9109 N   0  0  0  0  0  0
    1.9050   53.2736   26.3633 C   0  0  0  0  0  0
    1.3700   52.4106   25.6687 O   0  0  0  0  0  0
    1.4779   53.4715   27.8115 C   0  0  0  0  0  0
    1.8001   54.6656   28.4871 C   0  0  0  0  0  0
    1.4268   54.8656   29.8156 C   0  0  0  0  0  0
    0.7156   53.8844   30.4966 C   0  0  0  0  0  0
    0.3535   52.7131   29.8435 C   0  0  0  0  0  0
    0.7181   52.5017   28.5140 C   0  0  0  0  0  0
    0.3008   51.2971   27.9443 N   0  0  0  0  0  0
    0.3034   54.1033   32.1557 Cl  0  0  0  0  0  0
    1.3459   54.0210   23.4677 O   0  0  0  0  0  0
    0.7310   52.9214   22.7915 C   0  0  0  0  0  0
    5.5760   54.1723   20.4045 Br  0  0  0  0  0  0
    6.8423   54.0753   25.5429 H   0  0  0  0  0  0
    5.6012   55.0581   26.3450 H   0  0  0  0  0  0
    5.5392   53.2956   26.4383 H   0  0  0  0  0  0
    6.5975   54.1541   23.2018 H   0  0  0  0  0  0
    2.7979   54.0612   21.2846 H   0  0  0  0  0  0
    3.3734   54.6304   26.5911 H   0  0  0  0  0  0
    2.3437   55.4603   27.9995 H   0  0  0  0  0  0
    1.6935   55.7871   30.3177 H   0  0  0  0  0  0
   -0.2096   51.9644   30.3832 H   0  0  0  0  0  0
    0.4761   51.1700   26.9538 H   0  0  0  0  0  0
   -0.3059   50.6619   28.4489 H   0  0  0  0  0  0
   -0.2992   52.8273   23.1306 H   0  0  0  0  0  0
    0.7109   53.0794   21.7117 H   0  0  0  0  0  0
    1.2335   51.9727   22.9947 H   0  0  0  0  0  0
  1  2  1  0  0  0
  1 22  1  0  0  0
  1 23  1  0  0  0
  1 24  1  0  0  0
  2  7  2  0  0  0
  2  3  1  0  0  0
  3  4  2  0  0  0
  3 25  1  0  0  0
  4  5  1  0  0  0
  4 21  1  0  0  0
  5  6  2  0  0  0
  5 26  1  0  0  0
  6  7  1  0  0  0
  6 19  1  0  0  0
  7  8  1  0  0  0
  8  9  1  0  0  0
  8 27  1  0  0  0
  9 10  2  0  0  0
  9 11  1  0  0  0
 11 16  2  0  0  0
 11 12  1  0  0  0
 12 13  2  0  0  0
 12 28  1  0  0  0
 13 14  1  0  0  0
 13 29  1  0  0  0
 14 15  2  0  0  0
 14 18  1  0  0  0
 15 16  1  0  0  0
 15 30  1  0  0  0
 16 17  1  0  0  0
 17 31  1  0  0  0
 17 32  1  0  0  0
 19 20  1  0  0  0
 20 33  1  0  0  0
 20 34  1  0  0  0
 20 35  1  0  0  0
M  END
> <i_i_glide_confnum>
17

> <i_i_glide_lignum>
3587

> <i_i_glide_posenum>
177

> <i_i_glide_rotatable_bonds>
4

> <i_m_Source_File_Index>
2844

> <b_m_subgroup_collapsed>
0

> <r_i_docking_score>
-5.49828

> <r_i_glide_ecoul>
-1.18405

> <r_i_glide_eff_state_penalty>
0

> <r_i_glide_einternal>
4.31789

> <r_i_glide_emodel>
-46.7028

> <r_i_glide_energy>
-36.366

> <r_i_glide_erotb>
0.423391

> <r_i_glide_esite>
-0.0338411

> <r_i_glide_evdw>
-35.1819

> <r_i_glide_gscore>
-5.49828

> <r_i_glide_hbond>
0

> <r_i_glide_ligand_efficiency>
-0.261823

> <r_i_glide_ligand_efficiency_ln>
-1.35944

> <r_i_glide_ligand_efficiency_sa>
-0.72235

> <r_i_glide_lipo>
-2.8198

> <r_i_glide_metal>
0

> <r_i_glide_rewards>
-1.13133

> <s_i_glide_gridfile>
wee1_glide-grid

> <s_m_Source_File>
wee1_decoys_glide_SP.sdf

> <s_m_Source_Path>
/Users/zhangxujun/Desktop

> <s_m_entry_id>
3119

> <s_m_entry_name>
wee1_decoys_glide_SP.2844

> <s_m_subgroup_title>
wee1_decoys_glide_SP

> <s_m_subgroupid>
wee1_decoys_glide_SP


$$$$
