ZINC39667111_4081
                    3D
 Schrodinger Suite 2024-2.
 72 75  0  0  1  0            999 V2000
    2.7197   53.8753   28.1575 C   0  0  0  0  0  0
    3.4858   54.0072   26.8546 C   0  0  0  0  0  0
    2.8051   54.0966   25.6439 C   0  0  0  0  0  0
    3.5077   54.2583   24.4501 C   0  0  0  0  0  0
    4.9112   54.2552   24.4264 C   0  0  0  0  0  0
    5.5889   54.1800   25.6589 C   0  0  0  0  0  0
    4.8783   54.0674   26.8583 C   0  0  0  0  0  0
    7.1041   54.1977   25.7203 C   0  0  0  0  0  0
    5.7357   54.2779   23.1172 C   0  0  0  0  0  0
    5.0545   54.4860   21.7376 C   0  0  0  0  0  0
    3.8680   53.6690   21.4912 N   0  0  0  0  0  0
    3.8605   52.3286   21.3889 C   0  0  0  0  0  0
    4.9052   51.6949   21.2808 O   0  0  0  0  0  0
    2.5259   51.5465   21.5558 C   0  0  1  0  0  0
    2.6889   50.8457   22.3804 H   0  0  0  0  0  0
    1.3725   52.4645   22.0290 C   0  0  0  0  0  0
    0.1724   51.7245   21.6398 N   0  0  0  0  0  0
    0.4964   50.6470   20.7016 C   0  0  0  0  0  0
    1.9726   50.8501   20.2909 C   0  0  0  0  0  0
    2.6968   49.5293   19.9565 C   0  0  0  0  0  0
    1.9517   48.7474   18.8613 C   0  0  0  0  0  0
    1.9040   49.6395   17.6043 N   0  3  0  0  0  0
    1.3774   51.0800   17.8000 C   0  0  0  0  0  0
    2.1058   51.7162   19.0020 C   0  0  0  0  0  0
   -0.9789   51.8042   22.3579 C   0  0  0  0  0  0
   -1.0777   52.4963   23.3733 O   0  0  0  0  0  0
   -2.1993   51.0514   21.8765 C   0  0  0  0  0  0
   -3.0138   50.3887   22.7977 C   0  0  0  0  0  0
   -4.1622   49.7219   22.3776 C   0  0  0  0  0  0
   -4.5395   49.7221   21.0254 C   0  0  0  0  0  0
   -3.7408   50.4077   20.0954 C   0  0  0  0  0  0
   -2.5815   51.0661   20.5294 C   0  0  0  0  0  0
   -4.1411   50.4558   18.6182 C   0  0  0  0  0  0
   -5.3301   51.0466   18.4948 F   0  0  0  0  0  0
   -3.2673   51.1411   17.8767 F   0  0  0  0  0  0
   -4.2165   49.2205   18.1228 F   0  0  0  0  0  0
   -5.6758   49.0881   20.5535 O   0  0  0  0  0  0
   -6.5773   48.4778   21.4726 C   0  0  0  0  0  0
    3.2167   54.4364   28.9499 H   0  0  0  0  0  0
    1.7105   54.2833   28.0708 H   0  0  0  0  0  0
    2.6542   52.8276   28.4572 H   0  0  0  0  0  0
    1.7256   54.0688   25.6223 H   0  0  0  0  0  0
    2.9187   54.3719   23.5599 H   0  0  0  0  0  0
    5.4129   54.0004   27.7945 H   0  0  0  0  0  0
    7.5042   53.4004   25.0926 H   0  0  0  0  0  0
    7.4880   55.1408   25.3355 H   0  0  0  0  0  0
    7.4868   54.0496   26.7307 H   0  0  0  0  0  0
    6.5099   55.0414   23.2056 H   0  0  0  0  0  0
    6.2632   53.3227   23.0745 H   0  0  0  0  0  0
    4.7045   55.5103   21.6813 H   0  0  0  0  0  0
    5.7685   54.3323   20.9268 H   0  0  0  0  0  0
    2.9921   54.1644   21.4095 H   0  0  0  0  0  0
    1.4674   52.6528   23.1011 H   0  0  0  0  0  0
    1.3749   53.3648   21.4180 H   0  0  0  0  0  0
   -0.1968   50.4528   19.8892 H   0  0  0  0  0  0
    0.4682   49.7352   21.3012 H   0  0  0  0  0  0
    3.7352   49.7025   19.6824 H   0  0  0  0  0  0
    2.7101   48.8939   20.8427 H   0  0  0  0  0  0
    2.4880   47.8456   18.5622 H   0  0  0  0  0  0
    0.9232   48.4856   19.1169 H   0  0  0  0  0  0
    2.8737   49.6831   17.2558 H   0  0  0  0  0  0
    1.5956   51.6053   16.8694 H   0  0  0  0  0  0
    0.2955   51.0125   17.9151 H   0  0  0  0  0  0
    1.6601   52.6988   19.1679 H   0  0  0  0  0  0
    3.1508   51.9141   18.7537 H   0  0  0  0  0  0
   -2.7598   50.3782   23.8496 H   0  0  0  0  0  0
   -4.7545   49.2168   23.1251 H   0  0  0  0  0  0
   -1.9885   51.6213   19.8159 H   0  0  0  0  0  0
   -7.4256   48.0702   20.9242 H   0  0  0  0  0  0
   -6.1078   47.6517   22.0074 H   0  0  0  0  0  0
   -6.9658   49.2028   22.1906 H   0  0  0  0  0  0
    1.3890   49.1741   16.8702 H   0  0  0  0  0  0
  1  2  1  0  0  0
  1 39  1  0  0  0
  1 40  1  0  0  0
  1 41  1  0  0  0
  2  7  2  0  0  0
  2  3  1  0  0  0
  3  4  2  0  0  0
  3 42  1  0  0  0
  4  5  1  0  0  0
  4 43  1  0  0  0
  5  6  2  0  0  0
  5  9  1  0  0  0
  6  7  1  0  0  0
  6  8  1  0  0  0
  7 44  1  0  0  0
  8 45  1  0  0  0
  8 46  1  0  0  0
  8 47  1  0  0  0
  9 10  1  0  0  0
  9 48  1  0  0  0
  9 49  1  0  0  0
 10 11  1  0  0  0
 10 50  1  0  0  0
 10 51  1  0  0  0
 11 12  1  0  0  0
 11 52  1  0  0  0
 12 13  2  0  0  0
 12 14  1  0  0  0
 14 15  1  0  0  0
 14 19  1  0  0  0
 14 16  1  0  0  0
 16 17  1  0  0  0
 16 53  1  0  0  0
 16 54  1  0  0  0
 17 18  1  0  0  0
 17 25  1  0  0  0
 18 19  1  0  0  0
 18 55  1  0  0  0
 18 56  1  0  0  0
 19 24  1  0  0  0
 19 20  1  0  0  0
 20 21  1  0  0  0
 20 57  1  0  0  0
 20 58  1  0  0  0
 21 22  1  0  0  0
 21 59  1  0  0  0
 21 60  1  0  0  0
 22 23  1  0  0  0
 22 61  1  0  0  0
 22 72  1  0  0  0
 23 24  1  0  0  0
 23 62  1  0  0  0
 23 63  1  0  0  0
 24 64  1  0  0  0
 24 65  1  0  0  0
 25 26  2  0  0  0
 25 27  1  0  0  0
 27 32  2  0  0  0
 27 28  1  0  0  0
 28 29  2  0  0  0
 28 66  1  0  0  0
 29 30  1  0  0  0
 29 67  1  0  0  0
 30 31  2  0  0  0
 30 37  1  0  0  0
 31 32  1  0  0  0
 31 33  1  0  0  0
 32 68  1  0  0  0
 33 34  1  0  0  0
 33 35  1  0  0  0
 33 36  1  0  0  0
 37 38  1  0  0  0
 38 69  1  0  0  0
 38 70  1  0  0  0
 38 71  1  0  0  0
M  CHG  1  22   1
M  END
> <i_i_glide_confnum>
158

> <i_i_glide_lignum>
4082

> <i_i_glide_posenum>
222

> <i_i_glide_rotatable_bonds>
9

> <i_m_Source_File_Index>
5059

> <b_m_subgroup_collapsed>
0

> <r_i_docking_score>
-4.92955

> <r_i_glide_ecoul>
-7.43176

> <r_i_glide_eff_state_penalty>
0

> <r_i_glide_einternal>
6.31219

> <r_i_glide_emodel>
-53.7352

> <r_i_glide_energy>
-40.5861

> <r_i_glide_erotb>
0.534608

> <r_i_glide_esite>
-0.101519

> <r_i_glide_evdw>
-33.1543

> <r_i_glide_gscore>
-4.92955

> <r_i_glide_hbond>
-0.294009

> <r_i_glide_ligand_efficiency>
-0.133231

> <r_i_glide_ligand_efficiency_ln>
-1.0691

> <r_i_glide_ligand_efficiency_sa>
-0.443956

> <r_i_glide_lipo>
-2.1848

> <r_i_glide_metal>
0

> <r_i_glide_rewards>
-0.11135

> <s_i_glide_gridfile>
wee1_glide-grid

> <s_m_Source_File>
wee1_decoys_glide_SP.sdf

> <s_m_Source_Path>
/Users/zhangxujun/Desktop

> <s_m_entry_id>
5334

> <s_m_entry_name>
wee1_decoys_glide_SP.5059

> <s_m_subgroup_title>
wee1_decoys_glide_SP

> <s_m_subgroupid>
wee1_decoys_glide_SP


$$$$
