ZINC15133785_4228
                    3D
 Schrodinger Suite 2024-2.
 67 72  0  0  1  0            999 V2000
    4.4892   54.3970   16.6511 C   0  0  0  0  0  0
    3.2707   54.0949   17.5344 C   0  0  0  0  0  0
    2.6950   52.6857   17.3025 C   0  0  0  0  0  0
    1.5833   52.3653   18.1945 N   0  0  0  0  0  0
    0.3267   52.8581   18.0648 C   0  0  0  0  0  0
   -0.0093   53.5940   17.1356 O   0  0  0  0  0  0
   -0.6629   52.4452   19.1043 C   0  0  0  0  0  0
   -1.8810   52.4967   18.8813 O   0  0  0  0  0  0
   -0.1339   52.0762   20.2955 N   0  0  0  0  0  0
   -0.9027   51.6843   21.3289 N   0  0  0  0  0  0
   -0.2310   51.3707   22.3618 C   0  0  0  0  0  0
   -0.8754   50.8048   23.6495 C   0  0  1  0  0  0
   -2.0725   51.6248   24.2358 C   0  0  0  0  0  0
   -2.6167   52.8277   23.7581 C   0  0  0  0  0  0
   -3.6946   53.4329   24.4081 C   0  0  0  0  0  0
   -4.2301   52.8607   25.5579 C   0  0  0  0  0  0
   -3.6974   51.6733   26.0554 C   0  0  0  0  0  0
   -2.6319   51.0536   25.3981 C   0  0  0  0  0  0
   -1.9616   49.7488   25.8570 C   0  0  1  0  0  0
   -2.0014   48.8152   24.6418 C   0  0  0  0  0  0
   -1.4292   49.3550   23.4701 C   0  0  0  0  0  0
   -1.4067   48.5614   22.3105 C   0  0  0  0  0  0
   -1.9459   47.2747   22.3174 C   0  0  0  0  0  0
   -2.5065   46.7561   23.4818 C   0  0  0  0  0  0
   -2.5299   47.5226   24.6458 C   0  0  0  0  0  0
   -0.4310   50.0459   26.0752 C   0  0  1  0  0  0
    0.0875   49.1193   26.3393 H   0  0  0  0  0  0
    0.2022   50.6731   24.8214 C   0  0  2  0  0  0
    1.0261   50.0344   24.4931 H   0  0  0  0  0  0
    0.8457   51.9646   25.3513 C   0  0  0  0  0  0
    1.4821   52.7429   24.6403 O   0  0  0  0  0  0
    0.6306   52.0608   26.6983 N   0  0  0  0  0  0
   -0.1240   51.0381   27.1828 C   0  0  0  0  0  0
   -0.4948   50.8968   28.3435 O   0  0  0  0  0  0
    1.0989   53.1284   27.5291 C   0  0  0  0  0  0
    0.3044   53.5951   28.5910 C   0  0  0  0  0  0
    0.7146   54.6431   29.3898 C   0  0  0  0  0  0
    1.8969   55.3025   29.0951 C   0  0  0  0  0  0
    2.7406   54.8237   28.0914 C   0  0  0  0  0  0
    2.3476   53.7356   27.3151 C   0  0  0  0  0  0
    2.2035   56.5698   29.8542 C   0  0  0  0  0  0
    4.8718   55.3996   16.8442 H   0  0  0  0  0  0
    4.2300   54.3392   15.5923 H   0  0  0  0  0  0
    5.2985   53.6893   16.8380 H   0  0  0  0  0  0
    3.5499   54.2098   18.5835 H   0  0  0  0  0  0
    2.5010   54.8445   17.3442 H   0  0  0  0  0  0
    2.4050   52.5621   16.2565 H   0  0  0  0  0  0
    3.4838   51.9441   17.4485 H   0  0  0  0  0  0
    1.8052   51.7239   18.9390 H   0  0  0  0  0  0
    0.8596   52.1020   20.4719 H   0  0  0  0  0  0
    0.8549   51.4333   22.4167 H   0  0  0  0  0  0
   -2.2096   53.3042   22.8812 H   0  0  0  0  0  0
   -4.1065   54.3540   24.0211 H   0  0  0  0  0  0
   -5.0580   53.3354   26.0649 H   0  0  0  0  0  0
   -4.1090   51.2306   26.9504 H   0  0  0  0  0  0
   -2.4627   49.3232   26.7292 H   0  0  0  0  0  0
   -0.9764   48.9342   21.3925 H   0  0  0  0  0  0
   -1.9276   46.6816   21.4144 H   0  0  0  0  0  0
   -2.9304   45.7625   23.4808 H   0  0  0  0  0  0
   -2.9541   47.1211   25.5545 H   0  0  0  0  0  0
   -0.6667   53.1751   28.8036 H   0  0  0  0  0  0
    0.0735   54.9856   30.1869 H   0  0  0  0  0  0
    3.6895   55.2972   27.8876 H   0  0  0  0  0  0
    3.0106   53.3879   26.5371 H   0  0  0  0  0  0
    2.0511   56.4283   30.9239 H   0  0  0  0  0  0
    3.2204   56.8966   29.6817 H   0  0  0  0  0  0
    1.5224   57.3590   29.5400 H   0  0  0  0  0  0
  1  2  1  0  0  0
  1 42  1  0  0  0
  1 43  1  0  0  0
  1 44  1  0  0  0
  2  3  1  0  0  0
  2 45  1  0  0  0
  2 46  1  0  0  0
  3  4  1  0  0  0
  3 47  1  0  0  0
  3 48  1  0  0  0
  4  5  1  0  0  0
  4 49  1  0  0  0
  5  6  2  0  0  0
  5  7  1  0  0  0
  7  8  2  0  0  0
  7  9  1  0  0  0
  9 10  1  0  0  0
  9 50  1  0  0  0
 10 11  2  0  0  0
 11 12  1  0  0  0
 11 51  1  0  0  0
 12 21  1  0  0  0
 12 28  1  0  0  0
 12 13  1  0  0  0
 13 18  2  0  0  0
 13 14  1  0  0  0
 14 15  2  0  0  0
 14 52  1  0  0  0
 15 16  1  0  0  0
 15 53  1  0  0  0
 16 17  2  0  0  0
 16 54  1  0  0  0
 17 18  1  0  0  0
 17 55  1  0  0  0
 18 19  1  0  0  0
 19 20  1  0  0  0
 19 26  1  0  0  0
 19 56  1  0  0  0
 20 25  2  0  0  0
 20 21  1  0  0  0
 21 22  2  0  0  0
 22 23  1  0  0  0
 22 57  1  0  0  0
 23 24  2  0  0  0
 23 58  1  0  0  0
 24 25  1  0  0  0
 24 59  1  0  0  0
 25 60  1  0  0  0
 26 27  1  0  0  0
 26 33  1  0  0  0
 26 28  1  0  0  0
 28 29  1  0  0  0
 28 30  1  0  0  0
 30 31  2  0  0  0
 30 32  1  0  0  0
 32 33  1  0  0  0
 32 35  1  0  0  0
 33 34  2  0  0  0
 35 40  2  0  0  0
 35 36  1  0  0  0
 36 37  2  0  0  0
 36 61  1  0  0  0
 37 38  1  0  0  0
 37 62  1  0  0  0
 38 39  2  0  0  0
 38 41  1  0  0  0
 39 40  1  0  0  0
 39 63  1  0  0  0
 40 64  1  0  0  0
 41 65  1  0  0  0
 41 66  1  0  0  0
 41 67  1  0  0  0
M  END
> <i_i_glide_confnum>
133

> <i_i_glide_lignum>
4229

> <i_i_glide_posenum>
216

> <i_i_glide_rotatable_bonds>
8

> <i_m_Source_File_Index>
4282

> <b_m_subgroup_collapsed>
0

> <r_i_docking_score>
-4.47224

> <r_i_glide_ecoul>
-5.57712

> <r_i_glide_eff_state_penalty>
0

> <r_i_glide_einternal>
6.40385

> <r_i_glide_emodel>
-49.8623

> <r_i_glide_energy>
-42.0715

> <r_i_glide_erotb>
0.530862

> <r_i_glide_esite>
-0.132445

> <r_i_glide_evdw>
-36.4943

> <r_i_glide_gscore>
-4.47224

> <r_i_glide_hbond>
-0.171766

> <r_i_glide_ligand_efficiency>
-0.114673

> <r_i_glide_ligand_efficiency_ln>
-0.958976

> <r_i_glide_ligand_efficiency_sa>
-0.38888

> <r_i_glide_lipo>
-1.84033

> <r_i_glide_metal>
0

> <r_i_glide_rewards>
-0.197282

> <s_i_glide_gridfile>
wee1_glide-grid

> <s_m_Source_File>
wee1_decoys_glide_SP.sdf

> <s_m_Source_Path>
/Users/zhangxujun/Desktop

> <s_m_entry_id>
4557

> <s_m_entry_name>
wee1_decoys_glide_SP.4282

> <s_m_subgroup_title>
wee1_decoys_glide_SP

> <s_m_subgroupid>
wee1_decoys_glide_SP


$$$$
