ZINC39485920_126
                    3D
 Schrodinger Suite 2024-2.
 58 62  0  0  1  0            999 V2000
   -6.6913   50.1801   31.3524 C   0  0  0  0  0  0
   -7.3532   50.4321   30.1514 C   0  0  0  0  0  0
   -6.6177   50.7237   29.0042 C   0  0  0  0  0  0
   -5.2222   50.7580   29.0625 C   0  0  0  0  0  0
   -4.5640   50.4886   30.2680 C   0  0  0  0  0  0
   -5.2995   50.2072   31.4153 C   0  0  0  0  0  0
   -4.4072   51.1199   27.8283 C   0  0  0  0  0  0
   -3.6287   49.9264   27.2351 C   0  0  1  0  0  0
   -3.2960   49.2996   28.0657 H   0  0  0  0  0  0
   -4.3764   49.0721   26.3358 N   0  0  0  0  0  0
   -3.3829   48.2464   25.7029 N   0  0  0  0  0  0
   -2.3303   49.1697   25.3287 C   0  0  1  0  0  0
   -2.6932   49.7279   24.4619 H   0  0  0  0  0  0
   -2.3072   50.1838   26.4816 N   0  3  1  0  0  0
   -1.9160   51.5812   25.9487 C   0  0  0  0  0  0
   -0.4259   51.7242   25.5730 C   0  0  0  0  0  0
    0.1840   50.7873   24.6162 N   0  0  0  0  0  0
    0.2699   49.3933   25.0855 C   0  0  0  0  0  0
   -0.9935   48.5161   24.9509 C   0  0  0  0  0  0
    1.4602   51.2898   24.0804 C   0  0  0  0  0  0
    1.2908   52.3780   22.9939 C   0  0  2  0  0  0
    0.6456   53.1904   23.3239 H   0  0  0  0  0  0
    0.8316   51.8721   21.6609 C   0  0  0  0  0  0
    1.6700   52.0964   20.7450 N   0  0  0  0  0  0
    2.6894   52.7055   21.2021 N   0  0  0  0  0  0
    2.5858   52.9399   22.4453 C   0  0  0  0  0  0
    3.5896   53.6355   23.2799 C   0  0  0  0  0  0
    4.9086   53.7813   22.8214 C   0  0  0  0  0  0
    5.8732   54.3828   23.6274 C   0  0  0  0  0  0
    5.5224   54.8431   24.8942 C   0  0  0  0  0  0
    4.2183   54.7042   25.3616 C   0  0  0  0  0  0
    3.2515   54.1116   24.5538 C   0  0  0  0  0  0
    6.7043   55.6089   25.8886 Cl  0  0  0  0  0  0
   -7.2621   49.9596   32.2434 H   0  0  0  0  0  0
   -8.4326   50.4046   30.1117 H   0  0  0  0  0  0
   -7.1337   50.9266   28.0765 H   0  0  0  0  0  0
   -3.4829   50.4960   30.3248 H   0  0  0  0  0  0
   -4.7884   50.0186   32.3493 H   0  0  0  0  0  0
   -5.0273   51.6003   27.0699 H   0  0  0  0  0  0
   -3.7140   51.8878   28.1648 H   0  0  0  0  0  0
   -5.0179   48.4444   26.8050 H   0  0  0  0  0  0
   -3.0049   47.6876   26.4622 H   0  0  0  0  0  0
   -2.5914   51.7866   25.1176 H   0  0  0  0  0  0
   -2.1358   52.2724   26.7588 H   0  0  0  0  0  0
   -0.2205   52.7642   25.3172 H   0  0  0  0  0  0
    0.1098   51.5300   26.5054 H   0  0  0  0  0  0
    0.9771   48.8760   24.4346 H   0  0  0  0  0  0
    0.6879   49.3339   26.0927 H   0  0  0  0  0  0
   -0.8333   47.6542   25.6001 H   0  0  0  0  0  0
   -1.0524   48.0929   23.9474 H   0  0  0  0  0  0
    2.0533   51.6967   24.8973 H   0  0  0  0  0  0
    2.0549   50.4754   23.6582 H   0  0  0  0  0  0
   -0.1147   51.3703   21.4811 H   0  0  0  0  0  0
    5.1984   53.4211   21.8437 H   0  0  0  0  0  0
    6.8874   54.4940   23.2702 H   0  0  0  0  0  0
    3.9536   55.0662   26.3440 H   0  0  0  0  0  0
    2.2457   54.0246   24.9373 H   0  0  0  0  0  0
   -1.6025   49.8573   27.1381 H   0  0  0  0  0  0
  1  6  2  0  0  0
  1  2  1  0  0  0
  1 34  1  0  0  0
  2  3  2  0  0  0
  2 35  1  0  0  0
  3  4  1  0  0  0
  3 36  1  0  0  0
  4  5  2  0  0  0
  4  7  1  0  0  0
  5  6  1  0  0  0
  5 37  1  0  0  0
  6 38  1  0  0  0
  7  8  1  0  0  0
  7 39  1  0  0  0
  7 40  1  0  0  0
  8  9  1  0  0  0
  8 14  1  0  0  0
  8 10  1  0  0  0
 10 11  1  0  0  0
 10 41  1  0  0  0
 11 12  1  0  0  0
 11 42  1  0  0  0
 12 13  1  0  0  0
 12 19  1  0  0  0
 12 14  1  0  0  0
 14 15  1  0  0  0
 14 58  1  0  0  0
 15 16  1  0  0  0
 15 43  1  0  0  0
 15 44  1  0  0  0
 16 17  1  0  0  0
 16 45  1  0  0  0
 16 46  1  0  0  0
 17 18  1  0  0  0
 17 20  1  0  0  0
 18 19  1  0  0  0
 18 47  1  0  0  0
 18 48  1  0  0  0
 19 49  1  0  0  0
 19 50  1  0  0  0
 20 21  1  0  0  0
 20 51  1  0  0  0
 20 52  1  0  0  0
 21 22  1  0  0  0
 21 26  1  0  0  0
 21 23  1  0  0  0
 23 24  2  0  0  0
 23 53  1  0  0  0
 24 25  1  0  0  0
 25 26  2  0  0  0
 26 27  1  0  0  0
 27 32  2  0  0  0
 27 28  1  0  0  0
 28 29  2  0  0  0
 28 54  1  0  0  0
 29 30  1  0  0  0
 29 55  1  0  0  0
 30 31  2  0  0  0
 30 33  1  0  0  0
 31 32  1  0  0  0
 31 56  1  0  0  0
 32 57  1  0  0  0
M  CHG  1  14   1
M  END
> <i_i_glide_confnum>
2

> <i_i_glide_lignum>
127

> <i_i_glide_posenum>
163

> <i_i_glide_rotatable_bonds>
5

> <i_m_Source_File_Index>
2721

> <b_m_subgroup_collapsed>
0

> <r_i_docking_score>
-4.98532

> <r_i_glide_ecoul>
-4.53962

> <r_i_glide_eff_state_penalty>
0

> <r_i_glide_einternal>
0.758057

> <r_i_glide_emodel>
-54.5578

> <r_i_glide_energy>
-38.2338

> <r_i_glide_erotb>
0.551456

> <r_i_glide_esite>
-0.401119

> <r_i_glide_evdw>
-33.6942

> <r_i_glide_gscore>
-4.98532

> <r_i_glide_hbond>
-0.140496

> <r_i_glide_ligand_efficiency>
-0.166177

> <r_i_glide_ligand_efficiency_ln>
-1.13272

> <r_i_glide_ligand_efficiency_sa>
-0.516352

> <r_i_glide_lipo>
-1.88445

> <r_i_glide_metal>
0

> <r_i_glide_rewards>
-0.745058

> <s_i_glide_gridfile>
wee1_glide-grid

> <s_m_Source_File>
wee1_decoys_glide_SP.sdf

> <s_m_Source_Path>
/Users/zhangxujun/Desktop

> <s_m_entry_id>
2996

> <s_m_entry_name>
wee1_decoys_glide_SP.2721

> <s_m_subgroup_title>
wee1_decoys_glide_SP

> <s_m_subgroupid>
wee1_decoys_glide_SP


$$$$
