ZINC33009757_4439
                    3D
 Schrodinger Suite 2024-2.
 54 57  0  0  1  0            999 V2000
    1.1044   55.8348   30.8110 C   0  0  0  0  0  0
    0.4106   54.6261   30.8807 C   0  0  0  0  0  0
    0.4376   53.7532   29.7961 C   0  0  0  0  0  0
    1.1695   54.0962   28.6501 C   0  0  0  0  0  0
    1.8848   55.2943   28.6059 C   0  0  0  0  0  0
    1.8421   56.1702   29.6828 C   0  0  0  0  0  0
    1.2741   53.2816   27.5162 N   0  0  0  0  0  0
    0.4086   52.3584   27.0583 C   0  0  0  0  0  0
   -0.6674   52.0659   27.5775 O   0  0  0  0  0  0
    0.9002   51.8388   25.9209 N   0  0  0  0  0  0
    0.3988   50.8372   25.0668 C   0  0  0  0  0  0
   -0.4781   49.8515   25.5521 C   0  0  0  0  0  0
   -0.9595   48.8380   24.7245 C   0  0  0  0  0  0
   -0.5541   48.8107   23.3861 C   0  0  0  0  0  0
    0.3167   49.7793   22.8977 C   0  0  0  0  0  0
    0.8135   50.8132   23.7073 C   0  0  0  0  0  0
    1.7093   51.7478   23.1212 N   0  0  0  0  0  0
    2.2716   51.6572   21.7666 C   0  0  0  0  0  0
    3.4081   52.6671   21.6457 C   0  0  0  0  0  0
    2.9627   53.7697   22.5763 C   0  0  0  0  0  0
    2.2321   53.0054   23.6754 C   0  0  0  0  0  0
   -1.8492   47.9237   25.3178 N   0  0  0  0  0  0
   -2.5343   46.8968   24.7680 C   0  0  0  0  0  0
   -2.3887   46.4716   23.6198 O   0  0  0  0  0  0
   -3.5896   46.2824   25.6547 C   0  0  0  0  0  0
   -3.4073   46.1913   27.0407 C   0  0  0  0  0  0
   -4.4191   45.6966   27.8507 C   0  0  0  0  0  0
   -5.5995   45.2330   27.2837 C   0  0  0  0  0  0
   -5.7845   45.2806   25.9047 C   0  0  0  0  0  0
   -4.7840   45.8093   25.0917 C   0  0  0  0  0  0
   -6.5672   44.7278   28.0810 F   0  0  0  0  0  0
    1.1045   56.5113   31.6535 H   0  0  0  0  0  0
   -0.1345   54.3618   31.7754 H   0  0  0  0  0  0
   -0.0947   52.8151   29.8651 H   0  0  0  0  0  0
    2.4646   55.5607   27.7343 H   0  0  0  0  0  0
    2.3805   57.1047   29.6497 H   0  0  0  0  0  0
    2.0755   53.4760   26.9381 H   0  0  0  0  0  0
    1.6850   52.3302   25.5240 H   0  0  0  0  0  0
   -0.7768   49.8500   26.5916 H   0  0  0  0  0  0
   -0.8952   48.0542   22.6985 H   0  0  0  0  0  0
    0.5978   49.7104   21.8581 H   0  0  0  0  0  0
    2.6849   50.6577   21.6220 H   0  0  0  0  0  0
    1.5053   51.8259   21.0079 H   0  0  0  0  0  0
    4.3557   52.2246   21.9567 H   0  0  0  0  0  0
    3.5341   53.0172   20.6201 H   0  0  0  0  0  0
    2.2891   54.4699   22.0820 H   0  0  0  0  0  0
    3.8036   54.3467   22.9629 H   0  0  0  0  0  0
    1.3934   53.6182   24.0093 H   0  0  0  0  0  0
    2.9058   52.8296   24.5146 H   0  0  0  0  0  0
   -2.0232   48.0969   26.3020 H   0  0  0  0  0  0
   -2.4888   46.4968   27.5186 H   0  0  0  0  0  0
   -4.2567   45.6546   28.9154 H   0  0  0  0  0  0
   -6.7067   44.9197   25.4741 H   0  0  0  0  0  0
   -4.9530   45.8670   24.0250 H   0  0  0  0  0  0
  1  6  2  0  0  0
  1  2  1  0  0  0
  1 32  1  0  0  0
  2  3  2  0  0  0
  2 33  1  0  0  0
  3  4  1  0  0  0
  3 34  1  0  0  0
  4  5  2  0  0  0
  4  7  1  0  0  0
  5  6  1  0  0  0
  5 35  1  0  0  0
  6 36  1  0  0  0
  7  8  1  0  0  0
  7 37  1  0  0  0
  8  9  2  0  0  0
  8 10  1  0  0  0
 10 11  1  0  0  0
 10 38  1  0  0  0
 11 16  2  0  0  0
 11 12  1  0  0  0
 12 13  2  0  0  0
 12 39  1  0  0  0
 13 14  1  0  0  0
 13 22  1  0  0  0
 14 15  2  0  0  0
 14 40  1  0  0  0
 15 16  1  0  0  0
 15 41  1  0  0  0
 16 17  1  0  0  0
 17 21  1  0  0  0
 17 18  1  0  0  0
 18 19  1  0  0  0
 18 42  1  0  0  0
 18 43  1  0  0  0
 19 20  1  0  0  0
 19 44  1  0  0  0
 19 45  1  0  0  0
 20 21  1  0  0  0
 20 46  1  0  0  0
 20 47  1  0  0  0
 21 48  1  0  0  0
 21 49  1  0  0  0
 22 23  1  0  0  0
 22 50  1  0  0  0
 23 24  2  0  0  0
 23 25  1  0  0  0
 25 30  2  0  0  0
 25 26  1  0  0  0
 26 27  2  0  0  0
 26 51  1  0  0  0
 27 28  1  0  0  0
 27 52  1  0  0  0
 28 29  2  0  0  0
 28 31  1  0  0  0
 29 30  1  0  0  0
 29 53  1  0  0  0
 30 54  1  0  0  0
M  END
> <i_i_glide_confnum>
63

> <i_i_glide_lignum>
4440

> <i_i_glide_posenum>
62

> <i_i_glide_rotatable_bonds>
8

> <i_m_Source_File_Index>
849

> <b_m_subgroup_collapsed>
0

> <r_i_docking_score>
-5.12801

> <r_i_glide_ecoul>
-5.84739

> <r_i_glide_eff_state_penalty>
0

> <r_i_glide_einternal>
6.91149

> <r_i_glide_emodel>
-56.8399

> <r_i_glide_energy>
-45.4324

> <r_i_glide_erotb>
0.790476

> <r_i_glide_esite>
-0.195676

> <r_i_glide_evdw>
-39.5851

> <r_i_glide_gscore>
-5.12801

> <r_i_glide_hbond>
-0.111794

> <r_i_glide_ligand_efficiency>
-0.16542

> <r_i_glide_ligand_efficiency_ln>
-1.15652

> <r_i_glide_ligand_efficiency_sa>
-0.519646

> <r_i_glide_lipo>
-2.00657

> <r_i_glide_metal>
0

> <r_i_glide_rewards>
-0.748084

> <s_i_glide_gridfile>
wee1_glide-grid

> <s_m_Source_File>
wee1_decoys_glide_SP.sdf

> <s_m_Source_Path>
/Users/zhangxujun/Desktop

> <s_m_entry_id>
1124

> <s_m_entry_name>
wee1_decoys_glide_SP.849

> <s_m_subgroup_title>
wee1_decoys_glide_SP

> <s_m_subgroupid>
wee1_decoys_glide_SP


$$$$
