ZINC12468353_1307
                    3D
 Schrodinger Suite 2024-2.
 51 54  0  0  1  0            999 V2000
    3.6053   54.6267   25.7150 C   0  0  0  0  0  0
    4.8153   54.3229   26.5670 C   0  0  0  0  0  0
    4.9930   54.2362   27.9489 C   0  0  0  0  0  0
    6.3557   53.9342   28.0797 C   0  0  0  0  0  0
    6.9946   53.8728   26.9391 N   0  0  0  0  0  0
    6.0582   54.1101   26.0200 N   0  0  0  0  0  0
    6.4296   54.1116   24.6115 C   0  0  0  0  0  0
    3.9841   54.4348   29.0633 C   0  0  0  0  0  0
    2.7131   53.7682   28.7890 N   0  0  0  0  0  0
    2.1182   52.8487   29.5616 C   0  0  0  0  0  0
    2.5850   52.4208   30.6205 O   0  0  0  0  0  0
    0.8331   52.4312   29.0721 C   0  0  0  0  0  0
   -0.2812   52.0964   29.8476 C   0  0  0  0  0  0
   -1.2957   51.6967   29.1234 N   0  0  0  0  0  0
   -0.8905   51.7341   27.8438 N   0  0  0  0  0  0
    0.4442   52.1014   27.7719 C   0  0  0  0  0  0
    1.1044   52.1277   26.5575 N   0  0  0  0  0  0
    0.5246   51.3482   25.4575 C   0  0  1  0  0  0
    0.7379   50.2974   25.6651 H   0  0  0  0  0  0
   -1.0047   51.5098   25.4119 C   0  0  0  0  0  0
   -1.7033   51.1689   26.7502 C   0  0  2  0  0  0
   -1.6702   50.0866   26.8808 H   0  0  0  0  0  0
   -3.2017   51.5672   26.7410 C   0  0  0  0  0  0
   -3.8255   51.2962   27.8874 F   0  0  0  0  0  0
   -3.3639   52.8668   26.4822 F   0  0  0  0  0  0
   -3.8489   50.9069   25.7807 F   0  0  0  0  0  0
    1.1661   51.6268   24.0983 C   0  0  0  0  0  0
    1.6162   50.5648   23.3032 C   0  0  0  0  0  0
    2.2524   50.8204   22.0909 C   0  0  0  0  0  0
    2.4297   52.1360   21.6696 C   0  0  0  0  0  0
    1.9555   53.1961   22.4372 C   0  0  0  0  0  0
    1.3153   52.9437   23.6463 C   0  0  0  0  0  0
    3.3330   52.4872   20.0331 Br  0  0  0  0  0  0
    2.6796   54.2804   26.1661 H   0  0  0  0  0  0
    3.5058   55.6965   25.5761 H   0  0  0  0  0  0
    3.6632   54.1683   24.7279 H   0  0  0  0  0  0
    6.8855   53.7962   29.0111 H   0  0  0  0  0  0
    5.9126   53.2986   24.1016 H   0  0  0  0  0  0
    6.1370   55.0617   24.1638 H   0  0  0  0  0  0
    7.5035   53.9805   24.4850 H   0  0  0  0  0  0
    4.3980   54.1597   30.0344 H   0  0  0  0  0  0
    3.7743   55.5014   29.1457 H   0  0  0  0  0  0
    2.2157   54.0701   27.9647 H   0  0  0  0  0  0
   -0.3553   52.1330   30.9279 H   0  0  0  0  0  0
    2.1066   52.0061   26.5910 H   0  0  0  0  0  0
   -1.4269   50.8884   24.6198 H   0  0  0  0  0  0
   -1.2487   52.5310   25.1128 H   0  0  0  0  0  0
    1.5046   49.5421   23.6359 H   0  0  0  0  0  0
    2.6214   50.0028   21.4876 H   0  0  0  0  0  0
    2.0878   54.2108   22.0866 H   0  0  0  0  0  0
    0.9530   53.7707   24.2410 H   0  0  0  0  0  0
  1  2  1  0  0  0
  1 34  1  0  0  0
  1 35  1  0  0  0
  1 36  1  0  0  0
  2  6  1  0  0  0
  2  3  2  0  0  0
  3  4  1  0  0  0
  3  8  1  0  0  0
  4  5  2  0  0  0
  4 37  1  0  0  0
  5  6  1  0  0  0
  6  7  1  0  0  0
  7 38  1  0  0  0
  7 39  1  0  0  0
  7 40  1  0  0  0
  8  9  1  0  0  0
  8 41  1  0  0  0
  8 42  1  0  0  0
  9 10  1  0  0  0
  9 43  1  0  0  0
 10 11  2  0  0  0
 10 12  1  0  0  0
 12 16  2  0  0  0
 12 13  1  0  0  0
 13 14  2  0  0  0
 13 44  1  0  0  0
 14 15  1  0  0  0
 15 21  1  0  0  0
 15 16  1  0  0  0
 16 17  1  0  0  0
 17 18  1  0  0  0
 17 45  1  0  0  0
 18 19  1  0  0  0
 18 20  1  0  0  0
 18 27  1  0  0  0
 20 21  1  0  0  0
 20 46  1  0  0  0
 20 47  1  0  0  0
 21 22  1  0  0  0
 21 23  1  0  0  0
 23 24  1  0  0  0
 23 25  1  0  0  0
 23 26  1  0  0  0
 27 32  2  0  0  0
 27 28  1  0  0  0
 28 29  2  0  0  0
 28 48  1  0  0  0
 29 30  1  0  0  0
 29 49  1  0  0  0
 30 31  2  0  0  0
 30 33  1  0  0  0
 31 32  1  0  0  0
 31 50  1  0  0  0
 32 51  1  0  0  0
M  END
> <i_i_glide_confnum>
9

> <i_i_glide_lignum>
1308

> <i_i_glide_posenum>
314

> <i_i_glide_rotatable_bonds>
6

> <i_m_Source_File_Index>
2949

> <b_m_subgroup_collapsed>
0

> <r_i_docking_score>
-6.31619

> <r_i_glide_ecoul>
-5.18302

> <r_i_glide_eff_state_penalty>
0

> <r_i_glide_einternal>
7.82955

> <r_i_glide_emodel>
-65.5683

> <r_i_glide_energy>
-51.0853

> <r_i_glide_erotb>
0.412388

> <r_i_glide_esite>
-0.116553

> <r_i_glide_evdw>
-45.9023

> <r_i_glide_gscore>
-6.31619

> <r_i_glide_hbond>
-0.147678

> <r_i_glide_ligand_efficiency>
-0.203748

> <r_i_glide_ligand_efficiency_ln>
-1.42449

> <r_i_glide_ligand_efficiency_sa>
-0.64005

> <r_i_glide_lipo>
-2.64876

> <r_i_glide_metal>
0

> <r_i_glide_rewards>
-0.743023

> <s_i_glide_gridfile>
wee1_glide-grid

> <s_m_Source_File>
wee1_decoys_glide_SP.sdf

> <s_m_Source_Path>
/Users/zhangxujun/Desktop

> <s_m_entry_id>
3224

> <s_m_entry_name>
wee1_decoys_glide_SP.2949

> <s_m_subgroup_title>
wee1_decoys_glide_SP

> <s_m_subgroupid>
wee1_decoys_glide_SP


$$$$
