ZINC42620557_1847
                    3D
 Schrodinger Suite 2024-2.
 32 33  0  0  1  0            999 V2000
    6.2977   54.4675   24.8876 C   0  0  0  0  0  0
    5.4656   54.4370   26.0082 C   0  0  0  0  0  0
    4.0888   54.2230   25.8626 C   0  0  0  0  0  0
    3.5487   54.0965   24.5711 C   0  0  0  0  0  0
    4.3829   54.0967   23.4520 C   0  0  0  0  0  0
    5.7627   54.2825   23.6129 C   0  0  0  0  0  0
    3.7941   53.9598   22.1893 N   0  0  0  0  0  0
    4.2012   53.1112   21.2333 C   0  0  0  0  0  0
    5.1042   52.2894   21.3436 O   0  0  0  0  0  0
    3.5045   53.2420   20.1116 N   0  0  0  0  0  0
    3.3159   54.1649   27.0376 N   0  0  0  0  0  0
    2.1147   53.5685   27.2121 C   0  0  0  0  0  0
    1.5078   52.9382   26.3438 O   0  0  0  0  0  0
    1.5220   53.6919   28.5905 C   0  0  0  0  0  0
    0.9960   52.5576   29.2351 C   0  0  0  0  0  0
    0.3884   52.6734   30.4858 C   0  0  0  0  0  0
    0.3047   53.9126   31.1127 C   0  0  0  0  0  0
    0.8230   55.0422   30.4827 C   0  0  0  0  0  0
    1.4296   54.9403   29.2323 C   0  0  0  0  0  0
    1.9046   56.0696   28.6557 F   0  0  0  0  0  0
    1.0748   51.3302   28.6651 F   0  0  0  0  0  0
    7.3626   54.6105   25.0023 H   0  0  0  0  0  0
    5.9028   54.5548   26.9902 H   0  0  0  0  0  0
    2.4871   53.9759   24.4235 H   0  0  0  0  0  0
    6.4191   54.2978   22.7534 H   0  0  0  0  0  0
    2.9144   54.4299   22.0407 H   0  0  0  0  0  0
    2.7756   53.9377   20.0206 H   0  0  0  0  0  0
    3.7294   52.6368   19.3347 H   0  0  0  0  0  0
    3.7311   54.5843   27.8539 H   0  0  0  0  0  0
   -0.0290   51.8007   30.9719 H   0  0  0  0  0  0
   -0.1685   53.9911   32.0814 H   0  0  0  0  0  0
    0.7521   56.0066   30.9643 H   0  0  0  0  0  0
  1  6  2  0  0  0
  1  2  1  0  0  0
  1 22  1  0  0  0
  2  3  2  0  0  0
  2 23  1  0  0  0
  3  4  1  0  0  0
  3 11  1  0  0  0
  4  5  2  0  0  0
  4 24  1  0  0  0
  5  6  1  0  0  0
  5  7  1  0  0  0
  6 25  1  0  0  0
  7  8  1  0  0  0
  7 26  1  0  0  0
  8  9  2  0  0  0
  8 10  1  0  0  0
 10 27  1  0  0  0
 10 28  1  0  0  0
 11 12  1  0  0  0
 11 29  1  0  0  0
 12 13  2  0  0  0
 12 14  1  0  0  0
 14 19  2  0  0  0
 14 15  1  0  0  0
 15 16  2  0  0  0
 15 21  1  0  0  0
 16 17  1  0  0  0
 16 30  1  0  0  0
 17 18  2  0  0  0
 17 31  1  0  0  0
 18 19  1  0  0  0
 18 32  1  0  0  0
 19 20  1  0  0  0
M  END
> <i_i_glide_confnum>
9

> <i_i_glide_lignum>
1848

> <i_i_glide_posenum>
12

> <i_i_glide_rotatable_bonds>
5

> <i_m_Source_File_Index>
3423

> <b_m_subgroup_collapsed>
0

> <r_i_docking_score>
-6.63727

> <r_i_glide_ecoul>
-5.0174

> <r_i_glide_eff_state_penalty>
0

> <r_i_glide_einternal>
4.2255

> <r_i_glide_emodel>
-57.3911

> <r_i_glide_energy>
-42.0503

> <r_i_glide_erotb>
0.86

> <r_i_glide_esite>
-0.00301184

> <r_i_glide_evdw>
-37.0329

> <r_i_glide_gscore>
-6.63727

> <r_i_glide_hbond>
-0.32

> <r_i_glide_ligand_efficiency>
-0.31606

> <r_i_glide_ligand_efficiency_ln>
-1.64105

> <r_i_glide_ligand_efficiency_sa>
-0.871987

> <r_i_glide_lipo>
-2.64601

> <r_i_glide_metal>
0

> <r_i_glide_rewards>
-1.92399

> <s_i_glide_gridfile>
wee1_glide-grid

> <s_m_Source_File>
wee1_decoys_glide_SP.sdf

> <s_m_Source_Path>
/Users/zhangxujun/Desktop

> <s_m_entry_id>
3698

> <s_m_entry_name>
wee1_decoys_glide_SP.3423

> <s_m_subgroup_title>
wee1_decoys_glide_SP

> <s_m_subgroupid>
wee1_decoys_glide_SP


$$$$
