ZINC35056555_5499
                    3D
 Schrodinger Suite 2024-2.
 63 66  0  0  1  0            999 V2000
   -4.8952   51.0926   26.0327 C   0  0  0  0  0  0
   -3.5336   51.1579   26.7129 C   0  0  0  0  0  0
   -3.4454   51.5392   27.8772 O   0  0  0  0  0  0
   -2.4806   50.7936   25.9679 N   0  0  0  0  0  0
   -1.0765   50.7547   26.4008 C   0  0  1  0  0  0
   -1.0770   50.4500   27.4461 H   0  0  0  0  0  0
   -0.2408   49.7124   25.6271 C   0  0  2  0  0  0
    0.7226   49.5999   26.1269 H   0  0  0  0  0  0
    0.0135   50.1773   24.1733 C   0  0  2  0  0  0
    0.7371   49.4915   23.7311 H   0  0  0  0  0  0
    0.5587   51.6262   24.1595 C   0  0  1  0  0  0
    1.5864   51.6117   24.5269 H   0  0  0  0  0  0
    0.5487   52.1726   22.7212 C   0  0  0  0  0  0
   -0.6906   51.9239   22.0498 O   0  0  0  0  0  0
   -1.1490   50.5933   22.1063 C   0  0  0  0  0  0
   -1.2198   50.1447   23.4392 O   0  0  0  0  0  0
   -2.5906   50.6497   21.6341 C   0  0  0  0  0  0
   -0.2539   49.6755   21.2566 C   0  0  0  0  0  0
   -0.2763   52.4978   24.9480 O   0  0  0  0  0  0
   -0.3795   52.1255   26.3013 C   0  0  2  0  0  0
   -0.9775   52.9312   26.7268 H   0  0  0  0  0  0
    0.8945   52.1217   26.8967 O   0  0  0  0  0  0
    1.0684   52.3274   28.2570 C   0  0  0  0  0  0
    0.0349   52.1931   29.2000 C   0  0  0  0  0  0
    0.3004   52.2898   30.5623 C   0  0  0  0  0  0
    1.6009   52.4991   31.0049 C   0  0  0  0  0  0
    2.6244   52.7055   30.0814 C   0  0  0  0  0  0
    2.3640   52.6522   28.7049 C   0  0  0  0  0  0
    3.4260   52.9828   27.7252 C   0  0  0  0  0  0
    4.4726   53.8139   27.9324 C   0  0  0  0  0  0
    5.5117   54.1343   26.9448 C   0  0  0  0  0  0
    6.6365   54.3933   27.3760 O   0  0  0  0  0  0
    5.2623   54.1192   25.4555 C   0  0  0  0  0  0
    6.3675   54.0988   24.5881 C   0  0  0  0  0  0
    6.1902   54.0966   23.2070 C   0  0  0  0  0  0
    4.9053   54.0966   22.6760 C   0  0  0  0  0  0
    3.7978   54.1484   23.5165 C   0  0  0  0  0  0
    3.9743   54.1907   24.8983 C   0  0  0  0  0  0
    4.6842   54.0772   20.9647 Cl  0  0  0  0  0  0
   -0.8352   48.4256   25.6817 O   0  0  0  0  0  0
   -4.8263   51.4060   24.9888 H   0  0  0  0  0  0
   -5.2826   50.0729   26.0662 H   0  0  0  0  0  0
   -5.6055   51.7470   26.5400 H   0  0  0  0  0  0
   -2.6350   50.4838   25.0185 H   0  0  0  0  0  0
    0.7296   53.2469   22.7223 H   0  0  0  0  0  0
    1.3646   51.7525   22.1315 H   0  0  0  0  0  0
   -3.1715   51.3051   22.2822 H   0  0  0  0  0  0
   -2.6373   51.0259   20.6121 H   0  0  0  0  0  0
   -3.0290   49.6509   21.6618 H   0  0  0  0  0  0
    0.7878   49.6942   21.5652 H   0  0  0  0  0  0
   -0.6145   48.6486   21.3256 H   0  0  0  0  0  0
   -0.2976   49.9885   20.2135 H   0  0  0  0  0  0
   -0.9826   51.9874   28.9076 H   0  0  0  0  0  0
   -0.4955   52.1532   31.2819 H   0  0  0  0  0  0
    1.8059   52.5217   32.0668 H   0  0  0  0  0  0
    3.6220   52.9058   30.4433 H   0  0  0  0  0  0
    3.3294   52.4967   26.7690 H   0  0  0  0  0  0
    4.6076   54.2885   28.8932 H   0  0  0  0  0  0
    7.3789   54.0832   24.9684 H   0  0  0  0  0  0
    7.0510   54.0966   22.5532 H   0  0  0  0  0  0
    2.8054   54.1949   23.0954 H   0  0  0  0  0  0
    3.0898   54.2865   25.5083 H   0  0  0  0  0  0
   -0.9959   48.2095   26.6194 H   0  0  0  0  0  0
  1  2  1  0  0  0
  1 41  1  0  0  0
  1 42  1  0  0  0
  1 43  1  0  0  0
  2  3  2  0  0  0
  2  4  1  0  0  0
  4  5  1  0  0  0
  4 44  1  0  0  0
  5  6  1  0  0  0
  5 20  1  0  0  0
  5  7  1  0  0  0
  7  8  1  0  0  0
  7  9  1  0  0  0
  7 40  1  0  0  0
  9 10  1  0  0  0
  9 16  1  0  0  0
  9 11  1  0  0  0
 11 12  1  0  0  0
 11 13  1  0  0  0
 11 19  1  0  0  0
 13 14  1  0  0  0
 13 45  1  0  0  0
 13 46  1  0  0  0
 14 15  1  0  0  0
 15 16  1  0  0  0
 15 17  1  0  0  0
 15 18  1  0  0  0
 17 47  1  0  0  0
 17 48  1  0  0  0
 17 49  1  0  0  0
 18 50  1  0  0  0
 18 51  1  0  0  0
 18 52  1  0  0  0
 19 20  1  0  0  0
 20 21  1  0  0  0
 20 22  1  0  0  0
 22 23  1  0  0  0
 23 28  2  0  0  0
 23 24  1  0  0  0
 24 25  2  0  0  0
 24 53  1  0  0  0
 25 26  1  0  0  0
 25 54  1  0  0  0
 26 27  2  0  0  0
 26 55  1  0  0  0
 27 28  1  0  0  0
 27 56  1  0  0  0
 28 29  1  0  0  0
 29 30  2  0  0  0
 29 57  1  0  0  0
 30 31  1  0  0  0
 30 58  1  0  0  0
 31 32  2  0  0  0
 31 33  1  0  0  0
 33 38  2  0  0  0
 33 34  1  0  0  0
 34 35  2  0  0  0
 34 59  1  0  0  0
 35 36  1  0  0  0
 35 60  1  0  0  0
 36 37  2  0  0  0
 36 39  1  0  0  0
 37 38  1  0  0  0
 37 61  1  0  0  0
 38 62  1  0  0  0
 40 63  1  0  0  0
M  END
> <i_i_glide_confnum>
15

> <i_i_glide_lignum>
5500

> <i_i_glide_posenum>
48

> <i_i_glide_rotatable_bonds>
8

> <i_m_Source_File_Index>
1472

> <b_m_subgroup_collapsed>
0

> <r_i_docking_score>
-6.21735

> <r_i_glide_ecoul>
-6.72521

> <r_i_glide_eff_state_penalty>
0

> <r_i_glide_einternal>
4.80237

> <r_i_glide_emodel>
-73.3888

> <r_i_glide_energy>
-53.3271

> <r_i_glide_erotb>
0.405421

> <r_i_glide_esite>
-0.08552

> <r_i_glide_evdw>
-46.6019

> <r_i_glide_gscore>
-6.21735

> <r_i_glide_hbond>
0

> <r_i_glide_ligand_efficiency>
-0.177639

> <r_i_glide_ligand_efficiency_ln>
-1.36485

> <r_i_glide_ligand_efficiency_sa>
-0.581067

> <r_i_glide_lipo>
-2.63885

> <r_i_glide_metal>
0

> <r_i_glide_rewards>
-0.559525

> <s_i_glide_gridfile>
wee1_glide-grid

> <s_m_Source_File>
wee1_decoys_glide_SP.sdf

> <s_m_Source_Path>
/Users/zhangxujun/Desktop

> <s_m_entry_id>
1747

> <s_m_entry_name>
wee1_decoys_glide_SP.1472

> <s_m_subgroup_title>
wee1_decoys_glide_SP

> <s_m_subgroupid>
wee1_decoys_glide_SP


$$$$
