ZINC47156475_6018
                    3D
 Schrodinger Suite 2024-2.
 52 55  0  0  1  0            999 V2000
    6.3145   54.4371   27.9216 C   0  0  0  0  0  0
    5.6117   54.3484   26.5817 C   0  0  0  0  0  0
    4.2374   54.1012   26.5498 C   0  0  0  0  0  0
    3.5283   53.9714   25.3497 C   0  0  0  0  0  0
    4.2613   54.0967   24.1528 C   0  0  0  0  0  0
    5.6564   54.3725   24.1888 C   0  0  0  0  0  0
    6.3419   54.4980   25.4004 C   0  0  0  0  0  0
    6.2697   54.4971   22.5485 S   0  0  0  0  0  0
    4.6429   54.1336   21.9834 C   0  0  0  0  0  0
    3.7383   53.9694   22.9029 N   0  0  0  0  0  0
    4.2506   54.1014   20.6595 N   0  0  0  0  0  0
    4.9912   54.2980   19.5509 C   0  0  0  0  0  0
    6.2045   54.5020   19.5109 O   0  0  0  0  0  0
    4.1588   54.3216   18.2986 C   0  0  0  0  0  0
    3.4058   53.1913   17.9456 C   0  0  0  0  0  0
    2.4679   53.2440   16.9071 C   0  0  0  0  0  0
    2.3321   54.4294   16.1682 C   0  0  0  0  0  0
    3.1106   55.5402   16.4865 C   0  0  0  0  0  0
    4.0079   55.5046   17.5520 C   0  0  0  0  0  0
    4.8692   56.9596   17.9277 Cl  0  0  0  0  0  0
    1.1987   54.5784   14.8677 Cl  0  0  0  0  0  0
    1.4112   51.8320   16.5349 S   0  0  0  0  0  0
    0.0536   52.2107   16.9440 O   0  0  0  0  0  0
    1.7108   51.4413   15.1540 O   0  0  0  0  0  0
    1.9042   50.4864   17.5569 N   0  0  0  0  0  0
    1.6142   50.4919   19.0055 C   0  0  0  0  0  0
    0.3341   49.7613   19.4092 C   0  0  0  0  0  0
    0.5105   49.4530   20.9030 C   0  0  0  0  0  0
    2.0239   49.5083   21.1889 C   0  0  0  0  0  0
    2.7039   49.8378   19.8542 C   0  0  0  0  0  0
    2.0351   53.6793   25.3957 C   0  0  0  0  0  0
    7.3904   54.5750   27.8177 H   0  0  0  0  0  0
    5.9047   55.2623   28.5053 H   0  0  0  0  0  0
    6.1497   53.5215   28.4901 H   0  0  0  0  0  0
    3.7082   53.9954   27.4869 H   0  0  0  0  0  0
    7.4052   54.6815   25.4103 H   0  0  0  0  0  0
    3.2572   53.9859   20.5164 H   0  0  0  0  0  0
    3.5447   52.2772   18.5031 H   0  0  0  0  0  0
    2.9975   56.4518   15.9173 H   0  0  0  0  0  0
    2.8079   50.0638   17.2818 H   0  0  0  0  0  0
    1.5560   51.5542   19.2489 H   0  0  0  0  0  0
   -0.5586   50.3579   19.2165 H   0  0  0  0  0  0
    0.2401   48.8316   18.8454 H   0  0  0  0  0  0
   -0.0089   50.1984   21.5075 H   0  0  0  0  0  0
    0.0845   48.4823   21.1600 H   0  0  0  0  0  0
    2.2421   50.2885   21.9239 H   0  0  0  0  0  0
    2.3982   48.5683   21.6048 H   0  0  0  0  0  0
    3.0573   48.9193   19.3770 H   0  0  0  0  0  0
    3.5671   50.4890   19.9970 H   0  0  0  0  0  0
    1.8394   52.6849   24.9930 H   0  0  0  0  0  0
    1.4893   54.3928   24.7762 H   0  0  0  0  0  0
    1.6304   53.7267   26.4069 H   0  0  0  0  0  0
  1  2  1  0  0  0
  1 32  1  0  0  0
  1 33  1  0  0  0
  1 34  1  0  0  0
  2  7  2  0  0  0
  2  3  1  0  0  0
  3  4  2  0  0  0
  3 35  1  0  0  0
  4  5  1  0  0  0
  4 31  1  0  0  0
  5 10  1  0  0  0
  5  6  2  0  0  0
  6  7  1  0  0  0
  6  8  1  0  0  0
  7 36  1  0  0  0
  8  9  1  0  0  0
  9 10  2  0  0  0
  9 11  1  0  0  0
 11 12  1  0  0  0
 11 37  1  0  0  0
 12 13  2  0  0  0
 12 14  1  0  0  0
 14 19  2  0  0  0
 14 15  1  0  0  0
 15 16  2  0  0  0
 15 38  1  0  0  0
 16 17  1  0  0  0
 16 22  1  0  0  0
 17 18  2  0  0  0
 17 21  1  0  0  0
 18 19  1  0  0  0
 18 39  1  0  0  0
 19 20  1  0  0  0
 22 23  2  0  0  0
 22 24  2  0  0  0
 22 25  1  0  0  0
 25 26  1  0  0  0
 25 40  1  0  0  0
 26 30  1  0  0  0
 26 27  1  0  0  0
 26 41  1  0  0  0
 27 28  1  0  0  0
 27 42  1  0  0  0
 27 43  1  0  0  0
 28 29  1  0  0  0
 28 44  1  0  0  0
 28 45  1  0  0  0
 29 30  1  0  0  0
 29 46  1  0  0  0
 29 47  1  0  0  0
 30 48  1  0  0  0
 30 49  1  0  0  0
 31 50  1  0  0  0
 31 51  1  0  0  0
 31 52  1  0  0  0
M  END
> <i_i_glide_confnum>
41

> <i_i_glide_lignum>
6019

> <i_i_glide_posenum>
350

> <i_i_glide_rotatable_bonds>
6

> <i_m_Source_File_Index>
5645

> <b_m_subgroup_collapsed>
0

> <r_i_docking_score>
-3.05321

> <r_i_glide_ecoul>
-4.84834

> <r_i_glide_eff_state_penalty>
0

> <r_i_glide_einternal>
1.08153

> <r_i_glide_emodel>
-44.8233

> <r_i_glide_energy>
-43.3518

> <r_i_glide_erotb>
0.492802

> <r_i_glide_esite>
-0.154335

> <r_i_glide_evdw>
-38.5034

> <r_i_glide_gscore>
-3.05321

> <r_i_glide_hbond>
-0.256865

> <r_i_glide_ligand_efficiency>
-0.0984907

> <r_i_glide_ligand_efficiency_ln>
-0.688593

> <r_i_glide_ligand_efficiency_sa>
-0.309397

> <r_i_glide_lipo>
-2.71214

> <r_i_glide_metal>
0

> <r_i_glide_rewards>
2.22975

> <s_i_glide_gridfile>
wee1_glide-grid

> <s_m_Source_File>
wee1_decoys_glide_SP.sdf

> <s_m_Source_Path>
/Users/zhangxujun/Desktop

> <s_m_entry_id>
5920

> <s_m_entry_name>
wee1_decoys_glide_SP.5645

> <s_m_subgroup_title>
wee1_decoys_glide_SP

> <s_m_subgroupid>
wee1_decoys_glide_SP


$$$$
