ZINC16572403_676
                    3D
 Schrodinger Suite 2024-2.
 50 53  0  0  1  0            999 V2000
    2.2065   53.4375   25.4469 C   0  0  0  0  0  0
    3.2571   53.7924   26.4888 C   0  0  0  0  0  0
    2.9019   53.7127   27.8412 C   0  0  0  0  0  0
    3.8258   54.0154   28.8355 C   0  0  0  0  0  0
    5.1108   54.4088   28.4898 C   0  0  0  0  0  0
    5.4763   54.4961   27.1487 C   0  0  0  0  0  0
    4.5595   54.1874   26.1216 C   0  0  0  0  0  0
    4.8647   54.2631   24.7351 N   0  0  0  0  0  0
    6.0495   54.4967   24.1262 C   0  0  0  0  0  0
    7.1042   54.6131   24.7493 O   0  0  0  0  0  0
    6.0053   54.6765   22.7755 N   0  0  0  0  0  0
    7.1401   55.2819   22.0683 C   0  0  0  0  0  0
    6.5618   55.8497   20.7830 C   0  0  0  0  0  0
    5.4562   54.8663   20.4591 C   0  0  0  0  0  0
    4.8707   54.4660   21.8298 C   0  0  1  0  0  0
    4.0725   55.1636   22.0853 H   0  0  0  0  0  0
    4.3151   53.0340   21.7814 C   0  0  0  0  0  0
    5.1040   52.0964   21.6809 O   0  0  0  0  0  0
    2.9749   52.9186   21.8604 N   0  0  0  0  0  0
    2.2895   51.7137   21.9141 C   0  0  0  0  0  0
    2.6259   50.5738   21.3423 N   0  0  0  0  0  0
    1.7487   49.5442   21.6621 N   0  0  0  0  0  0
    0.8049   49.9263   22.4935 C   0  0  0  0  0  0
    0.8519   51.6208   22.8876 S   0  0  0  0  0  0
   -0.2293   49.0295   23.0723 C   0  0  0  0  0  0
   -0.3535   48.9184   24.4599 C   0  0  0  0  0  0
   -1.2928   48.0491   25.0069 C   0  0  0  0  0  0
   -2.1092   47.2979   24.1653 C   0  0  0  0  0  0
   -2.0002   47.4124   22.7812 C   0  0  0  0  0  0
   -1.0574   48.2778   22.2329 C   0  0  0  0  0  0
   -3.3806   46.0969   24.9130 Br  0  0  0  0  0  0
    1.2117   53.3355   25.8775 H   0  0  0  0  0  0
    2.1465   54.2055   24.6767 H   0  0  0  0  0  0
    2.4792   52.4997   24.9705 H   0  0  0  0  0  0
    1.9025   53.4101   28.1233 H   0  0  0  0  0  0
    3.5423   53.9469   29.8746 H   0  0  0  0  0  0
    5.8310   54.6549   29.2566 H   0  0  0  0  0  0
    6.4827   54.8231   26.9515 H   0  0  0  0  0  0
    4.0723   54.1119   24.1331 H   0  0  0  0  0  0
    7.8772   54.5051   21.8648 H   0  0  0  0  0  0
    7.6310   56.0677   22.6453 H   0  0  0  0  0  0
    7.2982   55.9547   19.9867 H   0  0  0  0  0  0
    6.1255   56.8291   20.9791 H   0  0  0  0  0  0
    5.8885   54.0005   19.9520 H   0  0  0  0  0  0
    4.7093   55.2947   19.7894 H   0  0  0  0  0  0
    2.4226   53.7591   21.9499 H   0  0  0  0  0  0
    0.2915   49.4856   25.1167 H   0  0  0  0  0  0
   -1.3735   47.9529   26.0814 H   0  0  0  0  0  0
   -2.6422   46.8337   22.1340 H   0  0  0  0  0  0
   -0.9610   48.3604   21.1586 H   0  0  0  0  0  0
  1  2  1  0  0  0
  1 32  1  0  0  0
  1 33  1  0  0  0
  1 34  1  0  0  0
  2  7  2  0  0  0
  2  3  1  0  0  0
  3  4  2  0  0  0
  3 35  1  0  0  0
  4  5  1  0  0  0
  4 36  1  0  0  0
  5  6  2  0  0  0
  5 37  1  0  0  0
  6  7  1  0  0  0
  6 38  1  0  0  0
  7  8  1  0  0  0
  8  9  1  0  0  0
  8 39  1  0  0  0
  9 10  2  0  0  0
  9 11  1  0  0  0
 11 15  1  0  0  0
 11 12  1  0  0  0
 12 13  1  0  0  0
 12 40  1  0  0  0
 12 41  1  0  0  0
 13 14  1  0  0  0
 13 42  1  0  0  0
 13 43  1  0  0  0
 14 15  1  0  0  0
 14 44  1  0  0  0
 14 45  1  0  0  0
 15 16  1  0  0  0
 15 17  1  0  0  0
 17 18  2  0  0  0
 17 19  1  0  0  0
 19 20  1  0  0  0
 19 46  1  0  0  0
 20 24  1  0  0  0
 20 21  2  0  0  0
 21 22  1  0  0  0
 22 23  2  0  0  0
 23 24  1  0  0  0
 23 25  1  0  0  0
 25 30  2  0  0  0
 25 26  1  0  0  0
 26 27  2  0  0  0
 26 47  1  0  0  0
 27 28  1  0  0  0
 27 48  1  0  0  0
 28 29  2  0  0  0
 28 31  1  0  0  0
 29 30  1  0  0  0
 29 49  1  0  0  0
 30 50  1  0  0  0
M  END
> <i_i_glide_confnum>
24

> <i_i_glide_lignum>
677

> <i_i_glide_posenum>
300

> <i_i_glide_rotatable_bonds>
7

> <i_m_Source_File_Index>
4288

> <b_m_subgroup_collapsed>
0

> <r_i_docking_score>
-5.91418

> <r_i_glide_ecoul>
-3.98749

> <r_i_glide_eff_state_penalty>
0

> <r_i_glide_einternal>
8.12423

> <r_i_glide_emodel>
-65.5405

> <r_i_glide_energy>
-51.5399

> <r_i_glide_erotb>
0.601312

> <r_i_glide_esite>
0

> <r_i_glide_evdw>
-47.5524

> <r_i_glide_gscore>
-5.91418

> <r_i_glide_hbond>
-0.0447292

> <r_i_glide_ligand_efficiency>
-0.197139

> <r_i_glide_ligand_efficiency_ln>
-1.34377

> <r_i_glide_ligand_efficiency_sa>
-0.612558

> <r_i_glide_lipo>
-2.41662

> <r_i_glide_metal>
0

> <r_i_glide_rewards>
-1.07841

> <s_i_glide_gridfile>
wee1_glide-grid

> <s_m_Source_File>
wee1_decoys_glide_SP.sdf

> <s_m_Source_Path>
/Users/zhangxujun/Desktop

> <s_m_entry_id>
4563

> <s_m_entry_name>
wee1_decoys_glide_SP.4288

> <s_m_subgroup_title>
wee1_decoys_glide_SP

> <s_m_subgroupid>
wee1_decoys_glide_SP


$$$$
