ZINC33018994_2875
                    3D
 Schrodinger Suite 2024-2.
 55 58  0  0  1  0            999 V2000
   -0.0461   50.7463   27.0005 C   0  0  0  0  0  0
    0.3285   51.6314   28.1743 C   0  0  0  0  0  0
   -0.4843   51.6967   29.3108 C   0  0  0  0  0  0
   -0.1175   52.4971   30.3939 C   0  0  0  0  0  0
    1.0445   53.2616   30.3374 C   0  0  0  0  0  0
    1.8653   53.1877   29.2109 C   0  0  0  0  0  0
    1.5102   52.3716   28.1316 C   0  0  0  0  0  0
    3.0129   53.9731   29.1399 N   0  0  0  0  0  0
    4.2666   53.4848   29.0800 C   0  0  0  0  0  0
    4.5586   52.3054   29.2817 O   0  0  0  0  0  0
    5.3421   54.5204   28.7443 C   0  0  0  0  0  0
    6.7038   53.9440   27.6818 S   0  0  0  0  0  0
    6.0741   54.3435   26.0854 C   0  0  0  0  0  0
    6.8525   54.7279   25.1170 N   0  0  0  0  0  0
    6.2132   54.7159   23.9201 C   0  0  0  0  0  0
    6.7964   55.0630   22.6969 C   0  0  0  0  0  0
    6.0531   54.8959   21.5318 C   0  0  0  0  0  0
    4.7553   54.3596   21.5620 C   0  0  0  0  0  0
    4.1244   54.0968   22.7826 C   0  0  0  0  0  0
    4.8623   54.2918   23.9598 C   0  0  0  0  0  0
    4.3933   54.0967   25.6402 S   0  0  0  0  0  0
    4.0152   54.0977   20.3957 N   0  0  0  0  0  0
    4.4845   53.8640   19.1550 C   0  0  0  0  0  0
    5.6717   53.6964   18.8714 O   0  0  0  0  0  0
    3.4716   53.8822   18.2709 N   0  0  0  0  0  0
    3.5233   53.6656   16.8843 C   0  0  0  0  0  0
    4.5115   52.8967   16.2500 C   0  0  0  0  0  0
    4.4799   52.7153   14.8676 C   0  0  0  0  0  0
    3.4644   53.2969   14.1076 C   0  0  0  0  0  0
    2.4698   54.0551   14.7336 C   0  0  0  0  0  0
    2.4993   54.2297   16.1184 C   0  0  0  0  0  0
    1.1550   54.8089   13.8163 S   0  0  0  0  0  0
    1.4280   54.5160   12.0475 C   0  0  0  0  0  0
   -0.8950   50.0987   27.2229 H   0  0  0  0  0  0
    0.7905   50.0972   26.7393 H   0  0  0  0  0  0
   -0.2834   51.3508   26.1242 H   0  0  0  0  0  0
   -1.3854   51.1022   29.3715 H   0  0  0  0  0  0
   -0.7351   52.5205   31.2804 H   0  0  0  0  0  0
    1.3010   53.8903   31.1751 H   0  0  0  0  0  0
    2.1455   52.3211   27.2577 H   0  0  0  0  0  0
    2.8747   54.9703   29.1151 H   0  0  0  0  0  0
    4.8798   55.3586   28.2395 H   0  0  0  0  0  0
    5.7671   54.8975   29.6742 H   0  0  0  0  0  0
    7.8138   55.4219   22.6441 H   0  0  0  0  0  0
    6.5210   55.1574   20.5936 H   0  0  0  0  0  0
    3.1059   53.7388   22.8221 H   0  0  0  0  0  0
    3.0106   54.0871   20.5064 H   0  0  0  0  0  0
    2.5746   54.1799   18.6262 H   0  0  0  0  0  0
    5.2958   52.4165   16.8179 H   0  0  0  0  0  0
    5.2398   52.1156   14.3893 H   0  0  0  0  0  0
    3.4616   53.1426   13.0407 H   0  0  0  0  0  0
    1.7248   54.8140   16.5951 H   0  0  0  0  0  0
    0.6345   54.9892   11.4690 H   0  0  0  0  0  0
    2.3810   54.9392   11.7295 H   0  0  0  0  0  0
    1.4180   53.4487   11.8293 H   0  0  0  0  0  0
  1  2  1  0  0  0
  1 34  1  0  0  0
  1 35  1  0  0  0
  1 36  1  0  0  0
  2  7  2  0  0  0
  2  3  1  0  0  0
  3  4  2  0  0  0
  3 37  1  0  0  0
  4  5  1  0  0  0
  4 38  1  0  0  0
  5  6  2  0  0  0
  5 39  1  0  0  0
  6  7  1  0  0  0
  6  8  1  0  0  0
  7 40  1  0  0  0
  8  9  1  0  0  0
  8 41  1  0  0  0
  9 10  2  0  0  0
  9 11  1  0  0  0
 11 12  1  0  0  0
 11 42  1  0  0  0
 11 43  1  0  0  0
 12 13  1  0  0  0
 13 21  1  0  0  0
 13 14  2  0  0  0
 14 15  1  0  0  0
 15 20  2  0  0  0
 15 16  1  0  0  0
 16 17  2  0  0  0
 16 44  1  0  0  0
 17 18  1  0  0  0
 17 45  1  0  0  0
 18 19  2  0  0  0
 18 22  1  0  0  0
 19 20  1  0  0  0
 19 46  1  0  0  0
 20 21  1  0  0  0
 22 23  1  0  0  0
 22 47  1  0  0  0
 23 24  2  0  0  0
 23 25  1  0  0  0
 25 26  1  0  0  0
 25 48  1  0  0  0
 26 31  2  0  0  0
 26 27  1  0  0  0
 27 28  2  0  0  0
 27 49  1  0  0  0
 28 29  1  0  0  0
 28 50  1  0  0  0
 29 30  2  0  0  0
 29 51  1  0  0  0
 30 31  1  0  0  0
 30 32  1  0  0  0
 31 52  1  0  0  0
 32 33  1  0  0  0
 33 53  1  0  0  0
 33 54  1  0  0  0
 33 55  1  0  0  0
M  END
> <i_i_glide_confnum>
118

> <i_i_glide_lignum>
2876

> <i_i_glide_posenum>
368

> <i_i_glide_rotatable_bonds>
10

> <i_m_Source_File_Index>
1711

> <b_m_subgroup_collapsed>
0

> <r_i_docking_score>
-5.32807

> <r_i_glide_ecoul>
-7.28745

> <r_i_glide_eff_state_penalty>
0

> <r_i_glide_einternal>
11.4663

> <r_i_glide_emodel>
-68.2528

> <r_i_glide_energy>
-55.8185

> <r_i_glide_erotb>
0.74962

> <r_i_glide_esite>
-0.0347577

> <r_i_glide_evdw>
-48.531

> <r_i_glide_gscore>
-5.32807

> <r_i_glide_hbond>
-0.559195

> <r_i_glide_ligand_efficiency>
-0.161457

> <r_i_glide_ligand_efficiency_ln>
-1.18493

> <r_i_glide_ligand_efficiency_sa>
-0.517877

> <r_i_glide_lipo>
-2.57585

> <r_i_glide_metal>
0

> <r_i_glide_rewards>
0.611789

> <s_i_glide_gridfile>
wee1_glide-grid

> <s_m_Source_File>
wee1_decoys_glide_SP.sdf

> <s_m_Source_Path>
/Users/zhangxujun/Desktop

> <s_m_entry_id>
1986

> <s_m_entry_name>
wee1_decoys_glide_SP.1711

> <s_m_subgroup_title>
wee1_decoys_glide_SP

> <s_m_subgroupid>
wee1_decoys_glide_SP


$$$$
