ZINC40828883_3777
                    3D
 Schrodinger Suite 2024-2.
 32 33  0  0  1  0            999 V2000
    2.0550   53.5662   24.8229 C   0  0  0  0  0  0
    3.3127   53.9453   25.5998 C   0  0  0  0  0  0
    4.3803   54.4950   24.8903 C   0  0  0  0  0  0
    5.5545   54.8375   25.5473 C   0  0  0  0  0  0
    5.6949   54.6239   26.9141 C   0  0  0  0  0  0
    4.6339   54.0903   27.6355 C   0  0  0  0  0  0
    3.4268   53.7636   26.9934 C   0  0  0  0  0  0
    2.3211   53.2392   27.6798 N   0  0  0  0  0  0
    2.0158   53.3233   28.9883 C   0  0  0  0  0  0
    2.6936   53.9050   29.8404 O   0  0  0  0  0  0
    0.7812   52.6577   29.3396 C   0  0  0  0  0  0
    0.3021   52.4974   30.6362 C   0  0  0  0  0  0
   -0.8691   51.8152   30.4814 N   0  0  0  0  0  0
   -1.4488   51.5191   31.2623 H   0  0  0  0  0  0
   -1.2099   51.5970   29.2164 N   0  0  0  0  0  0
   -0.2170   52.0770   28.5065 C   0  0  0  0  0  0
   -0.2987   51.9285   27.0004 C   0  0  0  0  0  0
    0.8186   52.8966   31.9988 C   0  0  0  0  0  0
    7.1032   55.6944   24.4676 I   0  0  0  0  0  0
    1.8625   52.4949   24.9190 H   0  0  0  0  0  0
    1.1888   54.0966   25.2128 H   0  0  0  0  0  0
    2.1362   53.7966   23.7584 H   0  0  0  0  0  0
    4.3058   54.6571   23.8249 H   0  0  0  0  0  0
    6.6139   54.8839   27.4189 H   0  0  0  0  0  0
    4.7792   53.9273   28.6914 H   0  0  0  0  0  0
    1.6345   52.7846   27.0980 H   0  0  0  0  0  0
   -0.3228   52.8966   26.5042 H   0  0  0  0  0  0
    0.5435   51.3584   26.6079 H   0  0  0  0  0  0
   -1.1964   51.3955   26.6790 H   0  0  0  0  0  0
    1.8727   52.6435   32.1021 H   0  0  0  0  0  0
    0.7050   53.9677   32.1637 H   0  0  0  0  0  0
    0.3045   52.4011   32.8184 H   0  0  0  0  0  0
  1  2  1  0  0  0
  1 20  1  0  0  0
  1 21  1  0  0  0
  1 22  1  0  0  0
  2  7  2  0  0  0
  2  3  1  0  0  0
  3  4  2  0  0  0
  3 23  1  0  0  0
  4  5  1  0  0  0
  4 19  1  0  0  0
  5  6  2  0  0  0
  5 24  1  0  0  0
  6  7  1  0  0  0
  6 25  1  0  0  0
  7  8  1  0  0  0
  8  9  1  0  0  0
  8 26  1  0  0  0
  9 10  2  0  0  0
  9 11  1  0  0  0
 11 16  1  0  0  0
 11 12  2  0  0  0
 12 13  1  0  0  0
 12 18  1  0  0  0
 13 14  1  0  0  0
 13 15  1  0  0  0
 15 16  2  0  0  0
 16 17  1  0  0  0
 17 27  1  0  0  0
 17 28  1  0  0  0
 17 29  1  0  0  0
 18 30  1  0  0  0
 18 31  1  0  0  0
 18 32  1  0  0  0
M  END
> <i_i_glide_confnum>
1

> <i_i_glide_lignum>
3778

> <i_i_glide_posenum>
312

> <i_i_glide_rotatable_bonds>
3

> <i_m_Source_File_Index>
4018

> <b_m_subgroup_collapsed>
0

> <r_i_docking_score>
-5.62791

> <r_i_glide_ecoul>
-6.09409

> <r_i_glide_eff_state_penalty>
0

> <r_i_glide_einternal>
0.352747

> <r_i_glide_emodel>
-48.0162

> <r_i_glide_energy>
-35.0786

> <r_i_glide_erotb>
0.454641

> <r_i_glide_esite>
-0.1

> <r_i_glide_evdw>
-28.9845

> <r_i_glide_gscore>
-5.62791

> <r_i_glide_hbond>
-0.407483

> <r_i_glide_ligand_efficiency>
-0.312661

> <r_i_glide_ligand_efficiency_ln>
-1.44662

> <r_i_glide_ligand_efficiency_sa>
-0.819405

> <r_i_glide_lipo>
-1.9181

> <r_i_glide_metal>
0

> <r_i_glide_rewards>
-1.29362

> <s_i_glide_gridfile>
wee1_glide-grid

> <s_m_Source_File>
wee1_decoys_glide_SP.sdf

> <s_m_Source_Path>
/Users/zhangxujun/Desktop

> <s_m_entry_id>
4293

> <s_m_entry_name>
wee1_decoys_glide_SP.4018

> <s_m_subgroup_title>
wee1_decoys_glide_SP

> <s_m_subgroupid>
wee1_decoys_glide_SP


$$$$
