ZINC22925285_1181
                    3D
 Schrodinger Suite 2024-2.
 66 70  0  0  1  0            999 V2000
    0.6867   54.1788   30.8817 C   0  0  0  0  0  0
    1.2160   52.8997   30.7260 C   0  0  0  0  0  0
    2.1647   52.6673   29.7337 C   0  0  0  0  0  0
    2.5496   53.7021   28.8715 C   0  0  0  0  0  0
    2.0222   54.9853   29.0477 C   0  0  0  0  0  0
    1.1041   55.2275   30.0648 C   0  0  0  0  0  0
    3.5539   53.4222   27.7407 C   0  0  2  0  0  0
    3.8302   52.3712   27.8221 H   0  0  0  0  0  0
    4.8424   54.2321   28.0297 C   0  0  0  0  0  0
    5.8776   53.9291   27.1143 O   0  0  0  0  0  0
    5.5131   54.1235   25.8058 C   0  0  0  0  0  0
    6.5752   54.3978   24.9469 C   0  0  0  0  0  0
    6.3608   54.5024   23.5792 C   0  0  0  0  0  0
    5.0763   54.3402   23.0782 C   0  0  0  0  0  0
    4.0091   54.0966   23.9423 C   0  0  0  0  0  0
    4.1865   53.9740   25.3439 C   0  0  0  0  0  0
    3.1517   53.6361   26.3029 N   0  0  0  0  0  0
    1.8983   53.2225   25.8896 C   0  0  0  0  0  0
    1.3611   53.6395   24.8620 O   0  0  0  0  0  0
    1.0601   52.2254   26.7523 C   0  0  0  0  0  0
    0.0418   51.4668   25.9876 N   0  0  0  0  0  0
    0.6581   50.3636   25.2292 C   0  0  0  0  0  0
   -0.3796   49.6132   24.3731 C   0  0  0  0  0  0
   -1.4866   49.0265   25.2814 N   0  3  0  0  0  0
   -2.0771   50.1569   26.1607 C   0  0  0  0  0  0
   -0.9401   50.8781   26.9177 C   0  0  0  0  0  0
   -2.5843   48.3297   24.4282 C   0  0  0  0  0  0
   -3.0147   46.9849   25.0364 C   0  0  0  0  0  0
   -2.2252   46.3175   25.7028 O   0  0  0  0  0  0
   -4.2484   46.5719   24.6808 N   0  0  0  0  0  0
   -4.9059   45.3865   25.0486 C   0  0  0  0  0  0
   -5.8290   44.8712   24.1346 C   0  0  0  0  0  0
   -6.5448   43.7106   24.4306 C   0  0  0  0  0  0
   -6.3511   43.0639   25.6493 C   0  0  0  0  0  0
   -5.4502   43.5817   26.5763 C   0  0  0  0  0  0
   -4.7254   44.7398   26.2834 C   0  0  0  0  0  0
   -5.2957   42.9635   27.7643 F   0  0  0  0  0  0
   -0.0410   54.3625   31.6599 H   0  0  0  0  0  0
    0.8925   52.0986   31.3779 H   0  0  0  0  0  0
    2.5759   51.6764   29.6141 H   0  0  0  0  0  0
    2.3171   55.7938   28.3942 H   0  0  0  0  0  0
    0.7040   56.2205   30.2069 H   0  0  0  0  0  0
    4.6271   55.2964   27.9784 H   0  0  0  0  0  0
    5.2137   54.0298   29.0354 H   0  0  0  0  0  0
    7.5708   54.4968   25.3408 H   0  0  0  0  0  0
    7.1895   54.6985   22.9136 H   0  0  0  0  0  0
    4.8988   54.4151   22.0149 H   0  0  0  0  0  0
    3.0622   53.9846   23.4456 H   0  0  0  0  0  0
    0.5429   52.8077   27.5149 H   0  0  0  0  0  0
    1.7001   51.5233   27.2867 H   0  0  0  0  0  0
    1.1045   49.6600   25.9341 H   0  0  0  0  0  0
    1.4394   50.7411   24.5659 H   0  0  0  0  0  0
    0.0957   48.7613   23.8856 H   0  0  0  0  0  0
   -0.8537   50.2595   23.6342 H   0  0  0  0  0  0
   -2.6281   50.8384   25.5100 H   0  0  0  0  0  0
   -2.7564   49.6907   26.8746 H   0  0  0  0  0  0
   -1.3868   51.6523   27.5434 H   0  0  0  0  0  0
   -0.4298   50.1717   27.5749 H   0  0  0  0  0  0
   -2.1276   48.0998   23.4661 H   0  0  0  0  0  0
   -3.3993   49.0340   24.2628 H   0  0  0  0  0  0
   -4.7461   47.1403   24.0135 H   0  0  0  0  0  0
   -6.0006   45.3612   23.1865 H   0  0  0  0  0  0
   -7.2548   43.3154   23.7202 H   0  0  0  0  0  0
   -6.9085   42.1689   25.8871 H   0  0  0  0  0  0
   -4.0416   45.1254   27.0266 H   0  0  0  0  0  0
   -1.0598   48.3444   25.9039 H   0  0  0  0  0  0
  1  6  2  0  0  0
  1  2  1  0  0  0
  1 38  1  0  0  0
  2  3  2  0  0  0
  2 39  1  0  0  0
  3  4  1  0  0  0
  3 40  1  0  0  0
  4  5  2  0  0  0
  4  7  1  0  0  0
  5  6  1  0  0  0
  5 41  1  0  0  0
  6 42  1  0  0  0
  7  8  1  0  0  0
  7 17  1  0  0  0
  7  9  1  0  0  0
  9 10  1  0  0  0
  9 43  1  0  0  0
  9 44  1  0  0  0
 10 11  1  0  0  0
 11 16  2  0  0  0
 11 12  1  0  0  0
 12 13  2  0  0  0
 12 45  1  0  0  0
 13 14  1  0  0  0
 13 46  1  0  0  0
 14 15  2  0  0  0
 14 47  1  0  0  0
 15 16  1  0  0  0
 15 48  1  0  0  0
 16 17  1  0  0  0
 17 18  1  0  0  0
 18 19  2  0  0  0
 18 20  1  0  0  0
 20 21  1  0  0  0
 20 49  1  0  0  0
 20 50  1  0  0  0
 21 26  1  0  0  0
 21 22  1  0  0  0
 22 23  1  0  0  0
 22 51  1  0  0  0
 22 52  1  0  0  0
 23 24  1  0  0  0
 23 53  1  0  0  0
 23 54  1  0  0  0
 24 25  1  0  0  0
 24 27  1  0  0  0
 24 66  1  0  0  0
 25 26  1  0  0  0
 25 55  1  0  0  0
 25 56  1  0  0  0
 26 57  1  0  0  0
 26 58  1  0  0  0
 27 28  1  0  0  0
 27 59  1  0  0  0
 27 60  1  0  0  0
 28 29  2  0  0  0
 28 30  1  0  0  0
 30 31  1  0  0  0
 30 61  1  0  0  0
 31 36  2  0  0  0
 31 32  1  0  0  0
 32 33  2  0  0  0
 32 62  1  0  0  0
 33 34  1  0  0  0
 33 63  1  0  0  0
 34 35  2  0  0  0
 34 64  1  0  0  0
 35 36  1  0  0  0
 35 37  1  0  0  0
 36 65  1  0  0  0
M  CHG  1  24   1
M  END
> <i_i_glide_confnum>
81

> <i_i_glide_lignum>
1182

> <i_i_glide_posenum>
166

> <i_i_glide_rotatable_bonds>
8

> <i_m_Source_File_Index>
106

> <b_m_subgroup_collapsed>
0

> <r_i_docking_score>
-5.78634

> <r_i_glide_ecoul>
-2.02128

> <r_i_glide_eff_state_penalty>
0

> <r_i_glide_einternal>
11.2766

> <r_i_glide_emodel>
-60.0075

> <r_i_glide_energy>
-48.2484

> <r_i_glide_erotb>
0.594194

> <r_i_glide_esite>
-0.242935

> <r_i_glide_evdw>
-46.2271

> <r_i_glide_gscore>
-5.78634

> <r_i_glide_hbond>
0

> <r_i_glide_ligand_efficiency>
-0.160732

> <r_i_glide_ligand_efficiency_ln>
-1.26242

> <r_i_glide_ligand_efficiency_sa>
-0.530724

> <r_i_glide_lipo>
-3.21703

> <r_i_glide_metal>
0

> <r_i_glide_rewards>
-0.306022

> <s_i_glide_gridfile>
wee1_glide-grid

> <s_m_Source_File>
wee1_decoys_glide_SP.sdf

> <s_m_Source_Path>
/Users/zhangxujun/Desktop

> <s_m_entry_id>
381

> <s_m_entry_name>
wee1_decoys_glide_SP.106

> <s_m_subgroup_title>
wee1_decoys_glide_SP

> <s_m_subgroupid>
wee1_decoys_glide_SP


$$$$
