ZINC17518458_2460
                    3D
 Schrodinger Suite 2024-2.
 60 62  0  0  1  0            999 V2000
    2.9874   52.7586   30.4117 C   0  0  0  0  0  0
    1.8869   53.4199   29.5410 C   0  0  0  0  0  0
    0.6350   52.5054   29.6337 C   0  0  0  0  0  0
    1.4989   54.7983   30.1261 C   0  0  0  0  0  0
    2.4040   53.6128   28.0919 C   0  0  0  0  0  0
    3.6073   54.2967   27.8655 C   0  0  0  0  0  0
    4.1072   54.4633   26.5756 C   0  0  0  0  0  0
    3.4120   53.9569   25.4704 C   0  0  0  0  0  0
    2.1946   53.2957   25.6932 C   0  0  0  0  0  0
    1.7017   53.1241   26.9822 C   0  0  0  0  0  0
    3.9907   54.1044   24.0764 C   0  0  0  0  0  0
    5.1704   54.4339   23.9177 O   0  0  0  0  0  0
    3.1215   53.9016   23.0594 N   0  0  0  0  0  0
    3.5149   54.0410   21.7243 N   0  0  0  0  0  0
    4.1212   53.0227   21.0720 C   0  0  0  0  0  0
    4.4463   51.9628   21.6141 O   0  0  0  0  0  0
    4.2761   53.1517   19.5403 C   0  0  0  0  0  0
    3.2686   52.1954   18.8350 C   0  0  0  0  0  0
    3.2608   52.4066   17.3118 C   0  0  0  0  0  0
    3.0833   53.8423   17.0160 N   0  0  0  0  0  0
    4.2156   54.6852   17.4581 C   0  0  0  0  0  0
    4.3527   54.6191   18.9956 C   0  0  0  0  0  0
    2.1713   54.3154   15.5710 S   0  0  0  0  0  0
    2.9915   55.2395   14.7783 O   0  0  0  0  0  0
    1.6023   53.1091   14.9566 O   0  0  0  0  0  0
    0.7764   55.2306   16.2369 C   0  0  0  0  0  0
   -0.3360   54.5150   16.6988 C   0  0  0  0  0  0
   -1.4381   55.1870   17.2274 C   0  0  0  0  0  0
   -1.4417   56.5788   17.2875 C   0  0  0  0  0  0
   -0.3357   57.2947   16.8334 C   0  0  0  0  0  0
    0.7819   56.6293   16.3286 C   0  0  0  0  0  0
    1.8509   57.3589   15.9388 F   0  0  0  0  0  0
   -2.5035   54.4903   17.6807 F   0  0  0  0  0  0
    2.6268   52.5125   31.4121 H   0  0  0  0  0  0
    3.8621   53.3972   30.5341 H   0  0  0  0  0  0
    3.3333   51.8279   29.9609 H   0  0  0  0  0  0
   -0.2204   52.9264   29.1030 H   0  0  0  0  0  0
    0.8272   51.5128   29.2238 H   0  0  0  0  0  0
    0.3150   52.3635   30.6677 H   0  0  0  0  0  0
    0.7255   55.2776   29.5236 H   0  0  0  0  0  0
    1.1039   54.7112   31.1394 H   0  0  0  0  0  0
    2.3452   55.4843   30.1637 H   0  0  0  0  0  0
    4.1736   54.6994   28.6919 H   0  0  0  0  0  0
    5.0478   54.9803   26.4459 H   0  0  0  0  0  0
    1.6205   52.8764   24.8802 H   0  0  0  0  0  0
    0.7693   52.5935   27.0929 H   0  0  0  0  0  0
    2.2571   53.3906   23.1519 H   0  0  0  0  0  0
    3.1964   54.8974   21.2930 H   0  0  0  0  0  0
    5.2654   52.7325   19.3422 H   0  0  0  0  0  0
    3.5043   51.1464   19.0196 H   0  0  0  0  0  0
    2.2472   52.4159   19.1506 H   0  0  0  0  0  0
    4.2281   52.0963   16.9122 H   0  0  0  0  0  0
    2.4849   51.8123   16.8308 H   0  0  0  0  0  0
    5.1292   54.2792   17.0203 H   0  0  0  0  0  0
    4.0829   55.7082   17.1037 H   0  0  0  0  0  0
    3.5044   55.2081   19.3357 H   0  0  0  0  0  0
    5.2913   55.1036   19.2703 H   0  0  0  0  0  0
   -0.3493   53.4349   16.6520 H   0  0  0  0  0  0
   -2.2973   57.1056   17.6800 H   0  0  0  0  0  0
   -0.3355   58.3743   16.8818 H   0  0  0  0  0  0
  1  2  1  0  0  0
  1 34  1  0  0  0
  1 35  1  0  0  0
  1 36  1  0  0  0
  2  3  1  0  0  0
  2  4  1  0  0  0
  2  5  1  0  0  0
  3 37  1  0  0  0
  3 38  1  0  0  0
  3 39  1  0  0  0
  4 40  1  0  0  0
  4 41  1  0  0  0
  4 42  1  0  0  0
  5 10  2  0  0  0
  5  6  1  0  0  0
  6  7  2  0  0  0
  6 43  1  0  0  0
  7  8  1  0  0  0
  7 44  1  0  0  0
  8  9  2  0  0  0
  8 11  1  0  0  0
  9 10  1  0  0  0
  9 45  1  0  0  0
 10 46  1  0  0  0
 11 12  2  0  0  0
 11 13  1  0  0  0
 13 14  1  0  0  0
 13 47  1  0  0  0
 14 15  1  0  0  0
 14 48  1  0  0  0
 15 16  2  0  0  0
 15 17  1  0  0  0
 17 22  1  0  0  0
 17 18  1  0  0  0
 17 49  1  0  0  0
 18 19  1  0  0  0
 18 50  1  0  0  0
 18 51  1  0  0  0
 19 20  1  0  0  0
 19 52  1  0  0  0
 19 53  1  0  0  0
 20 21  1  0  0  0
 20 23  1  0  0  0
 21 22  1  0  0  0
 21 54  1  0  0  0
 21 55  1  0  0  0
 22 56  1  0  0  0
 22 57  1  0  0  0
 23 24  2  0  0  0
 23 25  2  0  0  0
 23 26  1  0  0  0
 26 31  2  0  0  0
 26 27  1  0  0  0
 27 28  2  0  0  0
 27 58  1  0  0  0
 28 29  1  0  0  0
 28 33  1  0  0  0
 29 30  2  0  0  0
 29 59  1  0  0  0
 30 31  1  0  0  0
 30 60  1  0  0  0
 31 32  1  0  0  0
M  END
> <i_i_glide_confnum>
8

> <i_i_glide_lignum>
2461

> <i_i_glide_posenum>
377

> <i_i_glide_rotatable_bonds>
8

> <i_m_Source_File_Index>
2067

> <b_m_subgroup_collapsed>
0

> <r_i_docking_score>
-4.52555

> <r_i_glide_ecoul>
-3.55559

> <r_i_glide_eff_state_penalty>
0

> <r_i_glide_einternal>
7.38151

> <r_i_glide_emodel>
-52.0832

> <r_i_glide_energy>
-43.5811

> <r_i_glide_erotb>
0.617098

> <r_i_glide_esite>
-0.0687641

> <r_i_glide_evdw>
-40.0255

> <r_i_glide_gscore>
-4.52555

> <r_i_glide_hbond>
-0.128242

> <r_i_glide_ligand_efficiency>
-0.137138

> <r_i_glide_ligand_efficiency_ln>
-1.00646

> <r_i_glide_ligand_efficiency_sa>
-0.439874

> <r_i_glide_lipo>
-1.89934

> <r_i_glide_metal>
0

> <r_i_glide_rewards>
-0.511682

> <s_i_glide_gridfile>
wee1_glide-grid

> <s_m_Source_File>
wee1_decoys_glide_SP.sdf

> <s_m_Source_Path>
/Users/zhangxujun/Desktop

> <s_m_entry_id>
2342

> <s_m_entry_name>
wee1_decoys_glide_SP.2067

> <s_m_subgroup_title>
wee1_decoys_glide_SP

> <s_m_subgroupid>
wee1_decoys_glide_SP


$$$$
