ZINC56229194_1608
                    3D
 Schrodinger Suite 2024-2.
 35 36  0  0  1  0            999 V2000
    2.8250   53.0873   21.9127 C   0  0  0  0  0  0
    2.7467   53.9076   23.2159 C   0  0  0  0  0  0
    1.6830   53.3226   24.1705 C   0  0  0  0  0  0
    4.1104   54.0967   23.8857 C   0  0  0  0  0  0
    4.2445   54.3224   25.1728 N   0  0  0  0  0  0
    5.4949   54.4525   25.5788 C   0  0  0  0  0  0
    6.4326   54.3992   24.5548 C   0  0  0  0  0  0
    5.6351   54.0967   23.0446 S   0  0  0  0  0  0
    5.7517   54.6515   27.0677 C   0  0  0  0  0  0
    4.7452   53.6192   28.1867 S   0  0  0  0  0  0
    3.1739   54.5426   28.2535 C   0  0  0  0  0  0
    2.0384   53.6810   28.7779 C   0  0  0  0  0  0
    1.4777   52.7956   27.9118 N   0  0  0  0  0  0
    0.5027   52.0321   28.4605 C   0  0  0  0  0  0
    0.0684   52.0967   29.7389 N   0  0  0  0  0  0
    0.7042   53.0210   30.4931 C   0  0  0  0  0  0
    1.6991   53.8418   30.0817 N   0  0  0  0  0  0
    0.3044   53.1462   31.8088 N   0  0  0  0  0  0
   -0.0957   51.0913   27.6423 N   0  0  0  0  0  0
    3.4325   53.5891   21.1584 H   0  0  0  0  0  0
    1.8369   52.9424   21.4744 H   0  0  0  0  0  0
    3.2538   52.0994   22.0854 H   0  0  0  0  0  0
    2.3937   54.8966   22.9262 H   0  0  0  0  0  0
    1.5031   53.9808   25.0216 H   0  0  0  0  0  0
    0.7265   53.1831   23.6654 H   0  0  0  0  0  0
    1.9921   52.3526   24.5625 H   0  0  0  0  0  0
    7.5044   54.4900   24.6052 H   0  0  0  0  0  0
    6.7794   54.3586   27.2845 H   0  0  0  0  0  0
    5.6987   55.6967   27.3609 H   0  0  0  0  0  0
    3.3029   55.4326   28.8703 H   0  0  0  0  0  0
    2.8922   54.8979   27.2653 H   0  0  0  0  0  0
    0.7139   53.8651   32.3776 H   0  0  0  0  0  0
   -0.4144   52.5177   32.1834 H   0  0  0  0  0  0
   -0.7003   50.3949   28.0685 H   0  0  0  0  0  0
    0.2857   50.9538   26.7217 H   0  0  0  0  0  0
  1  2  1  0  0  0
  1 20  1  0  0  0
  1 21  1  0  0  0
  1 22  1  0  0  0
  2  3  1  0  0  0
  2  4  1  0  0  0
  2 23  1  0  0  0
  3 24  1  0  0  0
  3 25  1  0  0  0
  3 26  1  0  0  0
  4  8  1  0  0  0
  4  5  2  0  0  0
  5  6  1  0  0  0
  6  7  2  0  0  0
  6  9  1  0  0  0
  7  8  1  0  0  0
  7 27  1  0  0  0
  9 10  1  0  0  0
  9 28  1  0  0  0
  9 29  1  0  0  0
 10 11  1  0  0  0
 11 12  1  0  0  0
 11 30  1  0  0  0
 11 31  1  0  0  0
 12 17  2  0  0  0
 12 13  1  0  0  0
 13 14  2  0  0  0
 14 15  1  0  0  0
 14 19  1  0  0  0
 15 16  2  0  0  0
 16 17  1  0  0  0
 16 18  1  0  0  0
 18 32  1  0  0  0
 18 33  1  0  0  0
 19 34  1  0  0  0
 19 35  1  0  0  0
M  END
> <i_i_glide_confnum>
17

> <i_i_glide_lignum>
1609

> <i_i_glide_posenum>
332

> <i_i_glide_rotatable_bonds>
5

> <i_m_Source_File_Index>
1110

> <b_m_subgroup_collapsed>
0

> <r_i_docking_score>
-6.82661

> <r_i_glide_ecoul>
-6.20531

> <r_i_glide_eff_state_penalty>
0

> <r_i_glide_einternal>
1.4032

> <r_i_glide_emodel>
-61.7835

> <r_i_glide_energy>
-43.0292

> <r_i_glide_erotb>
0.834009

> <r_i_glide_esite>
-0.162475

> <r_i_glide_evdw>
-36.8239

> <r_i_glide_gscore>
-6.82661

> <r_i_glide_hbond>
-0.356691

> <r_i_glide_ligand_efficiency>
-0.359295

> <r_i_glide_ligand_efficiency_ln>
-1.73069

> <r_i_glide_ligand_efficiency_sa>
-0.958744

> <r_i_glide_lipo>
-2.4969

> <r_i_glide_metal>
0

> <r_i_glide_rewards>
-1.87256

> <s_i_glide_gridfile>
wee1_glide-grid

> <s_m_Source_File>
wee1_decoys_glide_SP.sdf

> <s_m_Source_Path>
/Users/zhangxujun/Desktop

> <s_m_entry_id>
1385

> <s_m_entry_name>
wee1_decoys_glide_SP.1110

> <s_m_subgroup_title>
wee1_decoys_glide_SP

> <s_m_subgroupid>
wee1_decoys_glide_SP


$$$$
