ZINC63405723_1348
                    3D
 Schrodinger Suite 2024-2.
 49 51  0  0  1  0            999 V2000
   -0.7785   51.4474   25.9690 C   0  0  0  0  0  0
    0.3542   51.4404   27.0157 C   0  0  1  0  0  0
    1.0127   50.5846   26.8649 H   0  0  0  0  0  0
    1.1299   52.7465   27.1570 C   0  0  0  0  0  0
    0.9596   53.2189   28.4100 C   0  0  0  0  0  0
    1.4191   54.4470   29.0788 C   0  0  0  0  0  0
    1.0953   54.6949   30.3640 C   0  0  0  0  0  0
    0.3057   53.6971   31.0784 C   0  0  0  0  0  0
   -0.1120   52.5538   30.4779 C   0  0  0  0  0  0
    0.1768   52.3090   29.1327 C   0  0  0  0  0  0
   -0.1875   51.2968   28.3771 N   0  3  0  0  0  0
    1.9046   53.2961   26.0378 C   0  0  0  0  0  0
    1.4274   53.3822   24.9008 O   0  0  0  0  0  0
    3.4277   53.6969   26.2708 C   0  0  0  0  0  0
    3.9800   53.5521   27.3623 O   0  0  0  0  0  0
    4.0079   54.1350   25.1359 N   0  0  0  0  0  0
    5.4437   54.2592   24.8466 C   0  0  2  0  0  0
    5.8945   53.2968   25.0866 H   0  0  0  0  0  0
    6.1471   55.2968   25.7391 C   0  0  0  0  0  0
    5.6970   54.4415   23.3344 C   0  0  0  0  0  0
    6.7044   55.2815   22.8369 C   0  0  0  0  0  0
    6.8331   55.5138   21.4683 C   0  0  0  0  0  0
    5.9707   54.8931   20.5670 C   0  0  0  0  0  0
    5.0094   53.9914   21.0288 C   0  0  0  0  0  0
    4.8687   53.7900   22.4099 C   0  0  0  0  0  0
    4.2044   53.3479   20.0720 N   0  0  0  0  0  0
    3.5482   52.1741   20.1884 C   0  0  0  0  0  0
    3.6034   51.4272   21.1669 O   0  0  0  0  0  0
    2.7038   51.7685   18.9883 C   0  0  0  0  0  0
   -0.3837   51.4903   24.9529 H   0  0  0  0  0  0
   -1.3783   50.5357   26.0373 H   0  0  0  0  0  0
   -1.4488   52.2986   26.0998 H   0  0  0  0  0  0
    2.0123   55.1851   28.5554 H   0  0  0  0  0  0
    1.4156   55.6031   30.8571 H   0  0  0  0  0  0
    0.0593   53.8578   32.1199 H   0  0  0  0  0  0
   -0.6860   51.8444   31.0609 H   0  0  0  0  0  0
    3.4062   54.1843   24.3231 H   0  0  0  0  0  0
    7.2294   55.2030   25.6691 H   0  0  0  0  0  0
    5.8711   56.3089   25.4429 H   0  0  0  0  0  0
    5.8945   55.1803   26.7938 H   0  0  0  0  0  0
    7.3896   55.7885   23.4988 H   0  0  0  0  0  0
    7.6131   56.1634   21.1026 H   0  0  0  0  0  0
    6.0895   55.0784   19.5061 H   0  0  0  0  0  0
    4.0953   53.1331   22.7766 H   0  0  0  0  0  0
    4.1577   53.7947   19.1682 H   0  0  0  0  0  0
    1.9105   52.4957   18.8201 H   0  0  0  0  0  0
    3.3190   51.6980   18.0913 H   0  0  0  0  0  0
    2.2485   50.7913   19.1556 H   0  0  0  0  0  0
   -0.7633   50.5079   28.6725 H   0  0  0  0  0  0
  1  2  1  0  0  0
  1 30  1  0  0  0
  1 31  1  0  0  0
  1 32  1  0  0  0
  2  3  1  0  0  0
  2 11  1  0  0  0
  2  4  1  0  0  0
  4  5  2  0  0  0
  4 12  1  0  0  0
  5 10  1  0  0  0
  5  6  1  0  0  0
  6  7  2  0  0  0
  6 33  1  0  0  0
  7  8  1  0  0  0
  7 34  1  0  0  0
  8  9  2  0  0  0
  8 35  1  0  0  0
  9 10  1  0  0  0
  9 36  1  0  0  0
 10 11  2  0  0  0
 11 49  1  0  0  0
 12 13  2  0  0  0
 12 14  1  0  0  0
 14 15  2  0  0  0
 14 16  1  0  0  0
 16 17  1  0  0  0
 16 37  1  0  0  0
 17 18  1  0  0  0
 17 19  1  0  0  0
 17 20  1  0  0  0
 19 38  1  0  0  0
 19 39  1  0  0  0
 19 40  1  0  0  0
 20 25  2  0  0  0
 20 21  1  0  0  0
 21 22  2  0  0  0
 21 41  1  0  0  0
 22 23  1  0  0  0
 22 42  1  0  0  0
 23 24  2  0  0  0
 23 43  1  0  0  0
 24 25  1  0  0  0
 24 26  1  0  0  0
 25 44  1  0  0  0
 26 27  1  0  0  0
 26 45  1  0  0  0
 27 28  2  0  0  0
 27 29  1  0  0  0
 29 46  1  0  0  0
 29 47  1  0  0  0
 29 48  1  0  0  0
M  CHG  1  11   1
M  END
> <i_i_glide_confnum>
21

> <i_i_glide_lignum>
1349

> <i_i_glide_posenum>
363

> <i_i_glide_rotatable_bonds>
7

> <i_m_Source_File_Index>
2824

> <b_m_subgroup_collapsed>
0

> <r_i_docking_score>
-5.81548

> <r_i_glide_ecoul>
-2.95425

> <r_i_glide_eff_state_penalty>
0

> <r_i_glide_einternal>
12.3513

> <r_i_glide_emodel>
-60.4362

> <r_i_glide_energy>
-47.7648

> <r_i_glide_erotb>
0.868579

> <r_i_glide_esite>
-0.0997259

> <r_i_glide_evdw>
-44.8106

> <r_i_glide_gscore>
-5.81548

> <r_i_glide_hbond>
-0.0939394

> <r_i_glide_ligand_efficiency>
-0.215388

> <r_i_glide_ligand_efficiency_ln>
-1.35375

> <r_i_glide_ligand_efficiency_sa>
-0.646164

> <r_i_glide_lipo>
-2.48817

> <r_i_glide_metal>
0

> <r_i_glide_rewards>
-1.31855

> <s_i_glide_gridfile>
wee1_glide-grid

> <s_m_Source_File>
wee1_decoys_glide_SP.sdf

> <s_m_Source_Path>
/Users/zhangxujun/Desktop

> <s_m_entry_id>
3099

> <s_m_entry_name>
wee1_decoys_glide_SP.2824

> <s_m_subgroup_title>
wee1_decoys_glide_SP

> <s_m_subgroupid>
wee1_decoys_glide_SP


$$$$
