ZINC44018966_1444
                    3D
 Schrodinger Suite 2024-2.
 53 56  0  0  1  0            999 V2000
    5.8742   54.0966   28.4808 C   0  0  0  0  0  0
    4.6460   53.2111   28.6433 C   0  0  0  0  0  0
    4.7043   52.1705   29.2965 O   0  0  0  0  0  0
    3.5353   53.6231   28.0221 N   0  0  0  0  0  0
    2.2814   52.8622   27.9254 C   0  0  2  0  0  0
    2.5581   51.8037   27.9263 H   0  0  0  0  0  0
    1.5218   53.1135   26.5855 C   0  0  2  0  0  0
    1.1715   54.1432   26.5857 H   0  0  0  0  0  0
    0.2897   52.1937   26.5228 C   0  0  1  0  0  0
    0.6247   51.1548   26.5022 H   0  0  0  0  0  0
   -0.5587   52.4457   27.7686 C   0  0  1  0  0  0
   -0.8949   53.4833   27.7380 H   0  0  0  0  0  0
   -1.7937   51.5530   27.6726 C   0  0  0  0  0  0
   -2.5014   51.9138   26.4809 O   0  0  0  0  0  0
   -1.7185   51.7409   25.3146 C   0  0  1  0  0  0
   -2.2942   52.1595   24.4898 H   0  0  0  0  0  0
   -0.5247   52.4969   25.3777 O   0  0  0  0  0  0
   -1.4859   50.2464   24.9724 C   0  0  0  0  0  0
   -0.3074   49.8312   24.3444 C   0  0  0  0  0  0
   -0.0958   48.4811   24.0893 C   0  0  0  0  0  0
   -1.0673   47.5477   24.4395 C   0  0  0  0  0  0
   -2.2557   47.9522   25.0414 C   0  0  0  0  0  0
   -2.4658   49.3018   25.3013 C   0  0  0  0  0  0
    0.1855   52.1802   28.9562 O   0  0  0  0  0  0
    1.2797   53.0427   29.1115 C   0  0  1  0  0  0
    0.8440   54.0456   29.1414 H   0  0  0  0  0  0
    1.9041   52.7383   30.2918 O   0  0  0  0  0  0
    2.2595   52.9539   25.3635 O   0  0  0  0  0  0
    3.0797   53.9125   24.8369 C   0  0  0  0  0  0
    3.5046   54.8896   25.4614 O   0  0  0  0  0  0
    3.4943   53.6004   23.4351 C   0  0  0  0  0  0
    2.6803   52.8248   22.5932 C   0  0  0  0  0  0
    3.0896   52.5345   21.2948 C   0  0  0  0  0  0
    4.3010   53.0334   20.8244 C   0  0  0  0  0  0
    5.1043   53.8229   21.6402 C   0  0  0  0  0  0
    4.7080   54.0970   22.9447 C   0  0  0  0  0  0
    6.0509   54.3230   27.4288 H   0  0  0  0  0  0
    5.7380   55.0318   29.0214 H   0  0  0  0  0  0
    6.7600   53.6019   28.8793 H   0  0  0  0  0  0
    3.5841   54.4671   27.4673 H   0  0  0  0  0  0
   -1.5336   50.4968   27.6815 H   0  0  0  0  0  0
   -2.4488   51.6969   28.5330 H   0  0  0  0  0  0
    0.4582   50.5448   24.0802 H   0  0  0  0  0  0
    0.8301   48.1606   23.6420 H   0  0  0  0  0  0
   -0.8970   46.5006   24.2563 H   0  0  0  0  0  0
   -3.0021   47.2265   25.3262 H   0  0  0  0  0  0
   -3.3786   49.6101   25.7899 H   0  0  0  0  0  0
    1.2426   52.7904   30.9874 H   0  0  0  0  0  0
    1.7307   52.4381   22.9358 H   0  0  0  0  0  0
    2.4655   51.9330   20.6494 H   0  0  0  0  0  0
    4.6120   52.8099   19.8121 H   0  0  0  0  0  0
    6.0326   54.2215   21.2612 H   0  0  0  0  0  0
    5.3500   54.7051   23.5684 H   0  0  0  0  0  0
  1  2  1  0  0  0
  1 37  1  0  0  0
  1 38  1  0  0  0
  1 39  1  0  0  0
  2  3  2  0  0  0
  2  4  1  0  0  0
  4  5  1  0  0  0
  4 40  1  0  0  0
  5  6  1  0  0  0
  5 25  1  0  0  0
  5  7  1  0  0  0
  7  8  1  0  0  0
  7  9  1  0  0  0
  7 28  1  0  0  0
  9 10  1  0  0  0
  9 17  1  0  0  0
  9 11  1  0  0  0
 11 12  1  0  0  0
 11 13  1  0  0  0
 11 24  1  0  0  0
 13 14  1  0  0  0
 13 41  1  0  0  0
 13 42  1  0  0  0
 14 15  1  0  0  0
 15 16  1  0  0  0
 15 17  1  0  0  0
 15 18  1  0  0  0
 18 23  2  0  0  0
 18 19  1  0  0  0
 19 20  2  0  0  0
 19 43  1  0  0  0
 20 21  1  0  0  0
 20 44  1  0  0  0
 21 22  2  0  0  0
 21 45  1  0  0  0
 22 23  1  0  0  0
 22 46  1  0  0  0
 23 47  1  0  0  0
 24 25  1  0  0  0
 25 26  1  0  0  0
 25 27  1  0  0  0
 27 48  1  0  0  0
 28 29  1  0  0  0
 29 30  2  0  0  0
 29 31  1  0  0  0
 31 36  2  0  0  0
 31 32  1  0  0  0
 32 33  2  0  0  0
 32 49  1  0  0  0
 33 34  1  0  0  0
 33 50  1  0  0  0
 34 35  2  0  0  0
 34 51  1  0  0  0
 35 36  1  0  0  0
 35 52  1  0  0  0
 36 53  1  0  0  0
M  END
> <i_i_glide_confnum>
4

> <i_i_glide_lignum>
1445

> <i_i_glide_posenum>
90

> <i_i_glide_rotatable_bonds>
7

> <i_m_Source_File_Index>
2882

> <b_m_subgroup_collapsed>
0

> <r_i_docking_score>
-4.64711

> <r_i_glide_ecoul>
-2.55138

> <r_i_glide_eff_state_penalty>
0

> <r_i_glide_einternal>
5.62454

> <r_i_glide_emodel>
-52.771

> <r_i_glide_energy>
-43.1724

> <r_i_glide_erotb>
0.577126

> <r_i_glide_esite>
-0.0113382

> <r_i_glide_evdw>
-40.621

> <r_i_glide_gscore>
-4.64711

> <r_i_glide_hbond>
0

> <r_i_glide_ligand_efficiency>
-0.154904

> <r_i_glide_ligand_efficiency_ln>
-1.05587

> <r_i_glide_ligand_efficiency_sa>
-0.481322

> <r_i_glide_lipo>
-1.31599

> <r_i_glide_metal>
0

> <r_i_glide_rewards>
-1.48315

> <s_i_glide_gridfile>
wee1_glide-grid

> <s_m_Source_File>
wee1_decoys_glide_SP.sdf

> <s_m_Source_Path>
/Users/zhangxujun/Desktop

> <s_m_entry_id>
3157

> <s_m_entry_name>
wee1_decoys_glide_SP.2882

> <s_m_subgroup_title>
wee1_decoys_glide_SP

> <s_m_subgroupid>
wee1_decoys_glide_SP


$$$$
