ZINC03007163_1088
                    3D
 Schrodinger Suite 2024-2.
 72 75  0  0  1  0            999 V2000
    1.6323   52.6035   23.2839 C   0  0  0  0  0  0
    2.2680   52.5165   21.8930 C   0  0  0  0  0  0
    3.4729   53.2773   21.8412 O   0  0  0  0  0  0
    4.1413   53.4124   20.6670 C   0  0  0  0  0  0
    3.7685   52.8965   19.6122 O   0  0  0  0  0  0
    5.3636   54.2485   20.7759 C   0  0  0  0  0  0
    6.1408   54.6623   19.6482 C   0  0  0  0  0  0
    7.2562   55.4377   19.9899 C   0  0  0  0  0  0
    7.3720   55.6966   21.6819 S   0  0  0  0  0  0
    5.9542   54.7284   21.9695 C   0  0  0  0  0  0
    5.4724   54.4963   23.2561 N   0  0  0  0  0  0
    5.9389   54.8727   24.4690 C   0  0  0  0  0  0
    7.0026   55.4515   24.6922 O   0  0  0  0  0  0
    5.0204   54.4922   25.6063 C   0  0  0  0  0  0
    3.6317   54.4961   25.4157 C   0  0  0  0  0  0
    2.7821   54.0961   26.4357 C   0  0  0  0  0  0
    3.3020   53.7276   27.6733 C   0  0  0  0  0  0
    4.6824   53.7506   27.8943 C   0  0  0  0  0  0
    5.5410   54.1274   26.8575 C   0  0  0  0  0  0
    2.1532   53.2394   28.9569 S   0  0  0  0  0  0
    2.8640   52.2930   29.8278 O   0  0  0  0  0  0
    1.5908   54.4875   29.4852 O   0  0  0  0  0  0
    0.8853   52.3658   28.0605 N   0  0  0  0  0  0
    0.9809   50.8977   27.9853 C   0  0  0  0  0  0
    0.3401   50.3686   26.6866 C   0  0  0  0  0  0
   -1.0912   50.9054   26.5176 C   0  0  0  0  0  0
   -1.1615   52.4444   26.6383 C   0  0  2  0  0  0
   -0.5760   52.8623   25.8187 H   0  0  0  0  0  0
   -0.4957   52.9129   27.9659 C   0  0  0  0  0  0
   -2.6263   52.8985   26.4815 C   0  0  0  0  0  0
    8.2509   56.0551   19.0201 C   0  0  0  0  0  0
    8.1594   55.2313   17.7089 N   0  3  1  0  0  0
    6.6949   55.2051   17.2113 C   0  0  0  0  0  0
    5.8461   54.3444   18.1750 C   0  0  0  0  0  0
    9.1675   55.7661   16.6476 C   0  0  0  0  0  0
    9.4171   54.6723   15.5917 C   0  0  0  0  0  0
    8.7262   57.1123   16.0272 C   0  0  0  0  0  0
    0.7139   52.0141   23.3252 H   0  0  0  0  0  0
    2.3027   52.2187   24.0509 H   0  0  0  0  0  0
    1.3710   53.6316   23.5344 H   0  0  0  0  0  0
    1.5631   52.8867   21.1459 H   0  0  0  0  0  0
    2.4825   51.4740   21.6490 H   0  0  0  0  0  0
    4.6360   53.9323   23.2673 H   0  0  0  0  0  0
    3.1943   54.8061   24.4776 H   0  0  0  0  0  0
    1.7155   54.0976   26.2596 H   0  0  0  0  0  0
    5.0892   53.4674   28.8573 H   0  0  0  0  0  0
    6.6088   54.1242   27.0323 H   0  0  0  0  0  0
    2.0172   50.5791   28.0917 H   0  0  0  0  0  0
    0.3909   50.5061   28.8148 H   0  0  0  0  0  0
    0.9446   50.6588   25.8248 H   0  0  0  0  0  0
    0.3261   49.2782   26.6967 H   0  0  0  0  0  0
   -1.5170   50.5716   25.5704 H   0  0  0  0  0  0
   -1.7326   50.4611   27.2815 H   0  0  0  0  0  0
   -1.0648   52.4881   28.7962 H   0  0  0  0  0  0
   -0.4775   53.9956   28.0816 H   0  0  0  0  0  0
   -3.2639   52.4482   27.2405 H   0  0  0  0  0  0
   -2.7509   53.9768   26.5540 H   0  0  0  0  0  0
   -3.0233   52.5994   25.5101 H   0  0  0  0  0  0
    9.2825   55.9686   19.3638 H   0  0  0  0  0  0
    8.0179   57.0949   18.7962 H   0  0  0  0  0  0
    6.3527   56.2433   17.1641 H   0  0  0  0  0  0
    6.6804   54.7698   16.2082 H   0  0  0  0  0  0
    4.7965   54.4946   17.9337 H   0  0  0  0  0  0
    6.0487   53.2861   17.9995 H   0  0  0  0  0  0
   10.0964   55.9047   17.2057 H   0  0  0  0  0  0
   10.2168   54.9678   14.9114 H   0  0  0  0  0  0
    8.5354   54.4731   14.9809 H   0  0  0  0  0  0
    9.7247   53.7326   16.0528 H   0  0  0  0  0  0
    9.4919   57.4921   15.3507 H   0  0  0  0  0  0
    7.8110   57.0170   15.4411 H   0  0  0  0  0  0
    8.5658   57.8873   16.7782 H   0  0  0  0  0  0
    8.4471   54.2788   17.8953 H   0  0  0  0  0  0
  1  2  1  0  0  0
  1 38  1  0  0  0
  1 39  1  0  0  0
  1 40  1  0  0  0
  2  3  1  0  0  0
  2 41  1  0  0  0
  2 42  1  0  0  0
  3  4  1  0  0  0
  4  5  2  0  0  0
  4  6  1  0  0  0
  6 10  2  0  0  0
  6  7  1  0  0  0
  7 34  1  0  0  0
  7  8  2  0  0  0
  8  9  1  0  0  0
  8 31  1  0  0  0
  9 10  1  0  0  0
 10 11  1  0  0  0
 11 12  1  0  0  0
 11 43  1  0  0  0
 12 13  2  0  0  0
 12 14  1  0  0  0
 14 19  2  0  0  0
 14 15  1  0  0  0
 15 16  2  0  0  0
 15 44  1  0  0  0
 16 17  1  0  0  0
 16 45  1  0  0  0
 17 18  2  0  0  0
 17 20  1  0  0  0
 18 19  1  0  0  0
 18 46  1  0  0  0
 19 47  1  0  0  0
 20 21  2  0  0  0
 20 22  2  0  0  0
 20 23  1  0  0  0
 23 29  1  0  0  0
 23 24  1  0  0  0
 24 25  1  0  0  0
 24 48  1  0  0  0
 24 49  1  0  0  0
 25 26  1  0  0  0
 25 50  1  0  0  0
 25 51  1  0  0  0
 26 27  1  0  0  0
 26 52  1  0  0  0
 26 53  1  0  0  0
 27 28  1  0  0  0
 27 29  1  0  0  0
 27 30  1  0  0  0
 29 54  1  0  0  0
 29 55  1  0  0  0
 30 56  1  0  0  0
 30 57  1  0  0  0
 30 58  1  0  0  0
 31 32  1  0  0  0
 31 59  1  0  0  0
 31 60  1  0  0  0
 32 33  1  0  0  0
 32 35  1  0  0  0
 32 72  1  0  0  0
 33 34  1  0  0  0
 33 61  1  0  0  0
 33 62  1  0  0  0
 34 63  1  0  0  0
 34 64  1  0  0  0
 35 36  1  0  0  0
 35 37  1  0  0  0
 35 65  1  0  0  0
 36 66  1  0  0  0
 36 67  1  0  0  0
 36 68  1  0  0  0
 37 69  1  0  0  0
 37 70  1  0  0  0
 37 71  1  0  0  0
M  CHG  1  32   1
M  END
> <i_i_glide_confnum>
127

> <i_i_glide_lignum>
1089

> <i_i_glide_posenum>
113

> <i_i_glide_rotatable_bonds>
9

> <i_m_Source_File_Index>
3634

> <b_m_subgroup_collapsed>
0

> <r_i_docking_score>
-5.65446

> <r_i_glide_ecoul>
-4.00718

> <r_i_glide_eff_state_penalty>
0

> <r_i_glide_einternal>
4.69155

> <r_i_glide_emodel>
-67.7965

> <r_i_glide_energy>
-51.1492

> <r_i_glide_erotb>
0.505319

> <r_i_glide_esite>
0

> <r_i_glide_evdw>
-47.1421

> <r_i_glide_gscore>
-5.65446

> <r_i_glide_hbond>
-0.181221

> <r_i_glide_ligand_efficiency>
-0.157068

> <r_i_glide_ligand_efficiency_ln>
-1.23365

> <r_i_glide_ligand_efficiency_sa>
-0.518628

> <r_i_glide_lipo>
-2.52688

> <r_i_glide_metal>
0

> <r_i_glide_rewards>
-0.493495

> <s_i_glide_gridfile>
wee1_glide-grid

> <s_m_Source_File>
wee1_decoys_glide_SP.sdf

> <s_m_Source_Path>
/Users/zhangxujun/Desktop

> <s_m_entry_id>
3909

> <s_m_entry_name>
wee1_decoys_glide_SP.3634

> <s_m_subgroup_title>
wee1_decoys_glide_SP

> <s_m_subgroupid>
wee1_decoys_glide_SP


$$$$
