ZINC13805999_5296
                    3D
 Schrodinger Suite 2024-2.
 45 47  0  0  1  0            999 V2000
    3.3142   53.4550   27.9094 C   0  0  0  0  0  0
    3.7167   53.7767   26.6103 C   0  0  0  0  0  0
    5.0773   54.0980   26.5179 C   0  0  0  0  0  0
    5.8329   54.0768   28.0826 S   0  0  0  0  0  0
    4.3490   53.5656   28.8249 C   0  0  0  0  0  0
    5.8266   54.5425   25.3746 C   0  0  0  0  0  0
    6.8150   55.2706   25.4948 O   0  0  0  0  0  0
    5.3177   54.0971   24.2062 N   0  0  0  0  0  0
    5.6675   54.4655   22.8993 C   0  0  0  0  0  0
    4.8324   54.0098   21.8766 C   0  0  0  0  0  0
    5.0503   54.4851   20.5835 C   0  0  0  0  0  0
    6.0966   55.3859   20.3879 C   0  0  0  0  0  0
    6.9261   55.7622   21.3946 N   0  0  0  0  0  0
    6.7159   55.2969   22.6369 N   0  0  0  0  0  0
    6.2843   56.1843   18.8307 S   0  0  0  0  0  0
    6.8475   54.8931   17.6806 C   0  0  0  0  0  0
    8.3209   54.4870   17.8313 C   0  0  0  0  0  0
    9.0491   55.0451   18.6515 O   0  0  0  0  0  0
    8.7169   53.4949   17.0100 N   0  0  0  0  0  0
   10.0099   52.9731   16.8208 C   0  0  0  0  0  0
   11.1935   53.6600   17.1437 C   0  0  0  0  0  0
   12.4420   53.0890   16.8740 C   0  0  0  0  0  0
   12.5011   51.8260   16.2740 C   0  0  0  0  0  0
   11.3333   51.1357   15.9376 C   0  0  0  0  0  0
   10.0903   51.7163   16.2169 C   0  0  0  0  0  0
   11.4340   49.7742   15.2527 C   0  0  0  0  0  0
   12.1812   49.8818   14.1521 F   0  0  0  0  0  0
   10.2399   49.2967   14.9008 F   0  0  0  0  0  0
   12.0107   48.8995   16.0808 F   0  0  0  0  0  0
   13.7412   53.8264   17.1899 C   0  0  0  0  0  0
   14.4492   53.1310   18.0826 F   0  0  0  0  0  0
   14.4654   53.9558   16.0778 F   0  0  0  0  0  0
   13.5290   55.0472   17.6808 F   0  0  0  0  0  0
    2.3075   53.1610   28.1707 H   0  0  0  0  0  0
    3.0351   53.7698   25.7714 H   0  0  0  0  0  0
    4.3043   53.3819   29.8875 H   0  0  0  0  0  0
    4.5334   53.4675   24.2821 H   0  0  0  0  0  0
    3.9966   53.3543   22.0705 H   0  0  0  0  0  0
    4.3906   54.2087   19.7750 H   0  0  0  0  0  0
    6.6944   55.2650   16.6670 H   0  0  0  0  0  0
    6.2114   54.0160   17.8018 H   0  0  0  0  0  0
    7.9912   53.0355   16.4805 H   0  0  0  0  0  0
   11.1529   54.6410   17.5923 H   0  0  0  0  0  0
   13.4608   51.3790   16.0534 H   0  0  0  0  0  0
    9.1826   51.1863   15.9587 H   0  0  0  0  0  0
  1  5  2  0  0  0
  1  2  1  0  0  0
  1 34  1  0  0  0
  2  3  2  0  0  0
  2 35  1  0  0  0
  3  4  1  0  0  0
  3  6  1  0  0  0
  4  5  1  0  0  0
  5 36  1  0  0  0
  6  7  2  0  0  0
  6  8  1  0  0  0
  8  9  1  0  0  0
  8 37  1  0  0  0
  9 14  2  0  0  0
  9 10  1  0  0  0
 10 11  2  0  0  0
 10 38  1  0  0  0
 11 12  1  0  0  0
 11 39  1  0  0  0
 12 13  2  0  0  0
 12 15  1  0  0  0
 13 14  1  0  0  0
 15 16  1  0  0  0
 16 17  1  0  0  0
 16 40  1  0  0  0
 16 41  1  0  0  0
 17 18  2  0  0  0
 17 19  1  0  0  0
 19 20  1  0  0  0
 19 42  1  0  0  0
 20 25  2  0  0  0
 20 21  1  0  0  0
 21 22  2  0  0  0
 21 43  1  0  0  0
 22 23  1  0  0  0
 22 30  1  0  0  0
 23 24  2  0  0  0
 23 44  1  0  0  0
 24 25  1  0  0  0
 24 26  1  0  0  0
 25 45  1  0  0  0
 26 27  1  0  0  0
 26 28  1  0  0  0
 26 29  1  0  0  0
 30 31  1  0  0  0
 30 32  1  0  0  0
 30 33  1  0  0  0
M  END
> <i_i_glide_confnum>
9

> <i_i_glide_lignum>
5297

> <i_i_glide_posenum>
398

> <i_i_glide_rotatable_bonds>
10

> <i_m_Source_File_Index>
4411

> <b_m_subgroup_collapsed>
0

> <r_i_docking_score>
-5.39112

> <r_i_glide_ecoul>
-2.23901

> <r_i_glide_eff_state_penalty>
0

> <r_i_glide_einternal>
5.58826

> <r_i_glide_emodel>
-65.7766

> <r_i_glide_energy>
-50.0771

> <r_i_glide_erotb>
0.63816

> <r_i_glide_esite>
-0.0892879

> <r_i_glide_evdw>
-47.8381

> <r_i_glide_gscore>
-5.39112

> <r_i_glide_hbond>
-0.32

> <r_i_glide_ligand_efficiency>
-0.163367

> <r_i_glide_ligand_efficiency_ln>
-1.19896

> <r_i_glide_ligand_efficiency_sa>
-0.524006

> <r_i_glide_lipo>
-2.0702

> <r_i_glide_metal>
0

> <r_i_glide_rewards>
-0.822041

> <s_i_glide_gridfile>
wee1_glide-grid

> <s_m_Source_File>
wee1_decoys_glide_SP.sdf

> <s_m_Source_Path>
/Users/zhangxujun/Desktop

> <s_m_entry_id>
4686

> <s_m_entry_name>
wee1_decoys_glide_SP.4411

> <s_m_subgroup_title>
wee1_decoys_glide_SP

> <s_m_subgroupid>
wee1_decoys_glide_SP


$$$$
