ZINC63384544_806
                    3D
 Schrodinger Suite 2024-2.
 58 64  0  0  1  0            999 V2000
    4.0241   54.8469   28.9105 C   0  0  0  0  0  0
    2.6352   54.8675   29.0092 C   0  0  0  0  0  0
    1.8663   54.2802   28.0085 C   0  0  0  0  0  0
    2.4842   53.6845   26.8965 C   0  0  0  0  0  0
    3.8850   53.6971   26.8044 C   0  0  0  0  0  0
    4.6526   54.2692   27.8127 C   0  0  0  0  0  0
    1.7112   53.0384   25.8948 N   0  0  0  0  0  0
    1.9172   53.1710   24.5382 C   0  0  0  0  0  0
    2.7890   53.7911   23.9291 O   0  0  0  0  0  0
    0.7388   52.4667   23.9055 C   0  0  1  0  0  0
   -0.0473   53.2214   23.8098 H   0  0  0  0  0  0
    0.7494   51.6294   22.6356 C   0  0  1  0  0  0
    1.6579   51.0195   22.6293 H   0  0  0  0  0  0
   -0.4314   50.7650   22.8611 N   0  0  0  0  0  0
   -0.7422   50.7271   24.3134 C   0  0  1  0  0  0
    0.5282   51.3905   24.8714 C   0  0  2  0  0  0
    1.3163   50.6268   24.8809 H   0  0  0  0  0  0
    0.7049   52.1410   26.1718 C   0  0  0  0  0  0
    0.1450   51.8847   27.2375 O   0  0  0  0  0  0
   -2.0649   51.2872   24.7666 C   0  0  0  0  0  0
   -2.7129   52.4992   24.5112 C   0  0  0  0  0  0
   -3.9059   52.7944   25.1763 C   0  0  0  0  0  0
   -4.4432   51.8859   26.0940 C   0  0  0  0  0  0
   -3.8004   50.6693   26.3375 C   0  0  0  0  0  0
   -2.6201   50.3839   25.6543 C   0  0  0  0  0  0
   -1.8514   49.2308   25.6817 N   0  0  0  0  0  0
   -0.8351   49.2604   24.8035 C   0  0  0  0  0  0
   -0.0957   48.3291   24.4821 O   0  0  0  0  0  0
    0.7043   52.4299   21.3274 C   0  0  0  0  0  0
    1.2126   51.6674   20.1221 C   0  0  0  0  0  0
    0.5608   51.0397   19.1271 C   0  0  0  0  0  0
   -0.8759   50.8408   18.8864 C   0  0  0  0  0  0
   -1.3034   50.1541   17.8069 C   0  0  0  0  0  0
   -0.3012   49.6150   16.8954 C   0  0  0  0  0  0
    1.0303   49.7890   17.1053 C   0  0  0  0  0  0
    1.4801   50.5061   18.2191 C   0  0  0  0  0  0
    2.7044   50.7839   18.5877 N   0  3  0  0  0  0
    2.6953   51.5607   19.8337 C   0  0  0  0  0  0
    4.6300   55.2964   29.6818 H   0  0  0  0  0  0
    2.1552   55.3334   29.8574 H   0  0  0  0  0  0
    0.7896   54.2923   28.1007 H   0  0  0  0  0  0
    4.3905   53.2447   25.9638 H   0  0  0  0  0  0
    5.7308   54.2654   27.7445 H   0  0  0  0  0  0
   -0.2275   49.8266   22.5395 H   0  0  0  0  0  0
   -2.3006   53.2190   23.8213 H   0  0  0  0  0  0
   -4.4096   53.7308   24.9872 H   0  0  0  0  0  0
   -5.3624   52.1203   26.6099 H   0  0  0  0  0  0
   -4.2241   49.9627   27.0367 H   0  0  0  0  0  0
   -1.9977   48.4656   26.3288 H   0  0  0  0  0  0
    1.3356   53.3092   21.4243 H   0  0  0  0  0  0
   -0.3057   52.7896   21.1397 H   0  0  0  0  0  0
   -1.6188   51.2305   19.5674 H   0  0  0  0  0  0
   -2.3575   50.0000   17.6243 H   0  0  0  0  0  0
   -0.6261   49.0575   16.0285 H   0  0  0  0  0  0
    1.7397   49.3657   16.4054 H   0  0  0  0  0  0
    3.2585   51.0014   20.5820 H   0  0  0  0  0  0
    3.1799   52.5194   19.6378 H   0  0  0  0  0  0
    3.5659   50.4969   18.0994 H   0  0  0  0  0  0
  1  6  2  0  0  0
  1  2  1  0  0  0
  1 39  1  0  0  0
  2  3  2  0  0  0
  2 40  1  0  0  0
  3  4  1  0  0  0
  3 41  1  0  0  0
  4  5  2  0  0  0
  4  7  1  0  0  0
  5  6  1  0  0  0
  5 42  1  0  0  0
  6 43  1  0  0  0
  7 18  1  0  0  0
  7  8  1  0  0  0
  8  9  2  0  0  0
  8 10  1  0  0  0
 10 11  1  0  0  0
 10 16  1  0  0  0
 10 12  1  0  0  0
 12 13  1  0  0  0
 12 14  1  0  0  0
 12 29  1  0  0  0
 14 15  1  0  0  0
 14 44  1  0  0  0
 15 27  1  0  0  0
 15 16  1  0  0  0
 15 20  1  0  0  0
 16 17  1  0  0  0
 16 18  1  0  0  0
 18 19  2  0  0  0
 20 25  2  0  0  0
 20 21  1  0  0  0
 21 22  2  0  0  0
 21 45  1  0  0  0
 22 23  1  0  0  0
 22 46  1  0  0  0
 23 24  2  0  0  0
 23 47  1  0  0  0
 24 25  1  0  0  0
 24 48  1  0  0  0
 25 26  1  0  0  0
 26 27  1  0  0  0
 26 49  1  0  0  0
 27 28  2  0  0  0
 29 30  1  0  0  0
 29 50  1  0  0  0
 29 51  1  0  0  0
 30 38  1  0  0  0
 30 31  2  0  0  0
 31 36  1  0  0  0
 31 32  1  0  0  0
 32 33  2  0  0  0
 32 52  1  0  0  0
 33 34  1  0  0  0
 33 53  1  0  0  0
 34 35  2  0  0  0
 34 54  1  0  0  0
 35 36  1  0  0  0
 35 55  1  0  0  0
 36 37  2  0  0  0
 37 38  1  0  0  0
 37 58  1  0  0  0
 38 56  1  0  0  0
 38 57  1  0  0  0
M  CHG  1  37   1
M  END
> <i_i_glide_confnum>
5

> <i_i_glide_lignum>
807

> <i_i_glide_posenum>
207

> <i_i_glide_rotatable_bonds>
3

> <i_m_Source_File_Index>
1891

> <b_m_subgroup_collapsed>
0

> <r_i_docking_score>
-5.58069

> <r_i_glide_ecoul>
-4.07791

> <r_i_glide_eff_state_penalty>
0

> <r_i_glide_einternal>
2.15039

> <r_i_glide_emodel>
-56.2931

> <r_i_glide_energy>
-40.6135

> <r_i_glide_erotb>
0.281405

> <r_i_glide_esite>
-0.23956

> <r_i_glide_evdw>
-36.5356

> <r_i_glide_gscore>
-5.58069

> <r_i_glide_hbond>
-0.434583

> <r_i_glide_ligand_efficiency>
-0.159448

> <r_i_glide_ligand_efficiency_ln>
-1.22508

> <r_i_glide_ligand_efficiency_sa>
-0.521566

> <r_i_glide_lipo>
-1.90386

> <r_i_glide_metal>
0

> <r_i_glide_rewards>
-0.845618

> <s_i_glide_gridfile>
wee1_glide-grid

> <s_m_Source_File>
wee1_decoys_glide_SP.sdf

> <s_m_Source_Path>
/Users/zhangxujun/Desktop

> <s_m_entry_id>
2166

> <s_m_entry_name>
wee1_decoys_glide_SP.1891

> <s_m_subgroup_title>
wee1_decoys_glide_SP

> <s_m_subgroupid>
wee1_decoys_glide_SP


$$$$
