ZINC11130107_4221
                    3D
 Schrodinger Suite 2024-2.
 64 67  0  0  1  0            999 V2000
    6.6097   54.3523   24.3070 C   0  0  0  0  0  0
    5.7128   54.3388   25.5329 C   0  0  0  0  0  0
    4.3250   54.4246   25.3900 C   0  0  0  0  0  0
    3.5047   54.4062   26.5171 C   0  0  0  0  0  0
    4.0724   54.2959   27.7865 C   0  0  0  0  0  0
    5.4608   54.1943   27.9263 C   0  0  0  0  0  0
    6.2778   54.2100   26.8018 C   0  0  0  0  0  0
    3.0357   54.3629   29.2491 S   0  0  0  0  0  0
    2.4546   55.7097   29.2820 O   0  0  0  0  0  0
    3.8729   53.8754   30.3515 O   0  0  0  0  0  0
    1.7239   53.1898   29.0247 N   0  0  0  0  0  0
    2.0234   51.7470   29.0296 C   0  0  0  0  0  0
    1.6157   51.1406   27.6816 C   0  0  0  0  0  0
    0.0943   51.3332   27.4599 C   0  0  0  0  0  0
   -0.1723   52.8642   27.3926 C   0  0  0  0  0  0
    0.3376   53.5947   28.6633 C   0  0  0  0  0  0
   -0.2850   50.7190   26.0866 C   0  0  0  0  0  0
    0.2273   51.1746   25.0600 O   0  0  0  0  0  0
   -1.1781   49.7024   26.0817 N   0  0  0  0  0  0
   -1.6867   49.1354   24.9216 C   0  0  0  0  0  0
   -2.3032   49.7184   23.7881 C   0  0  0  0  0  0
   -2.4943   48.7482   22.7668 C   0  0  0  0  0  0
   -2.2173   47.4441   23.2124 C   0  0  0  0  0  0
   -1.6112   47.4120   24.8323 S   0  0  0  0  0  0
   -2.4883   46.1702   22.4222 C   0  0  0  0  0  0
   -2.6403   46.5210   20.9298 C   0  0  0  0  0  0
   -3.6034   47.7009   20.7285 C   0  0  0  0  0  0
   -3.0697   49.0033   21.3644 C   0  0  0  0  0  0
   -2.6322   51.1286   23.6303 C   0  0  0  0  0  0
   -2.4951   51.7025   22.5446 O   0  0  0  0  0  0
   -3.1606   51.6757   24.7486 N   0  0  0  0  0  0
   -3.7167   52.8944   24.8900 C   0  0  0  0  0  0
   -3.6835   53.8233   24.0788 O   0  0  0  0  0  0
   -4.3519   52.8863   26.1067 O   0  0  0  0  0  0
   -5.1532   54.0294   26.3827 C   0  0  0  0  0  0
    6.0992   53.9278   23.4435 H   0  0  0  0  0  0
    6.9186   55.3697   24.0669 H   0  0  0  0  0  0
    7.5039   53.7479   24.4662 H   0  0  0  0  0  0
    3.8808   54.5197   24.4092 H   0  0  0  0  0  0
    2.4332   54.4869   26.4033 H   0  0  0  0  0  0
    5.9172   54.1242   28.9015 H   0  0  0  0  0  0
    7.3491   54.1295   26.9239 H   0  0  0  0  0  0
    1.5034   51.2969   29.8740 H   0  0  0  0  0  0
    3.0926   51.6142   29.2007 H   0  0  0  0  0  0
    1.9044   50.0962   27.6892 H   0  0  0  0  0  0
    2.1900   51.6978   26.9397 H   0  0  0  0  0  0
   -0.5018   50.8306   28.2250 H   0  0  0  0  0  0
    0.4037   53.2966   26.5751 H   0  0  0  0  0  0
   -1.2362   53.0846   27.2888 H   0  0  0  0  0  0
   -0.3029   53.3869   29.5207 H   0  0  0  0  0  0
    0.3062   54.6749   28.5193 H   0  0  0  0  0  0
   -1.2958   49.1782   26.9577 H   0  0  0  0  0  0
   -1.6955   45.4364   22.5573 H   0  0  0  0  0  0
   -3.4103   45.7103   22.7793 H   0  0  0  0  0  0
   -1.6661   46.7673   20.5044 H   0  0  0  0  0  0
   -2.9965   45.6494   20.3804 H   0  0  0  0  0  0
   -3.7818   47.8627   19.6641 H   0  0  0  0  0  0
   -4.5752   47.4541   21.1602 H   0  0  0  0  0  0
   -3.8685   49.7459   21.3867 H   0  0  0  0  0  0
   -2.2899   49.4299   20.7324 H   0  0  0  0  0  0
   -3.2216   51.0737   25.5545 H   0  0  0  0  0  0
   -5.6962   53.8832   27.3142 H   0  0  0  0  0  0
   -5.8931   54.1983   25.5973 H   0  0  0  0  0  0
   -4.5382   54.9256   26.4816 H   0  0  0  0  0  0
  1  2  1  0  0  0
  1 36  1  0  0  0
  1 37  1  0  0  0
  1 38  1  0  0  0
  2  7  2  0  0  0
  2  3  1  0  0  0
  3  4  2  0  0  0
  3 39  1  0  0  0
  4  5  1  0  0  0
  4 40  1  0  0  0
  5  6  2  0  0  0
  5  8  1  0  0  0
  6  7  1  0  0  0
  6 41  1  0  0  0
  7 42  1  0  0  0
  8  9  2  0  0  0
  8 10  2  0  0  0
  8 11  1  0  0  0
 11 16  1  0  0  0
 11 12  1  0  0  0
 12 13  1  0  0  0
 12 43  1  0  0  0
 12 44  1  0  0  0
 13 14  1  0  0  0
 13 45  1  0  0  0
 13 46  1  0  0  0
 14 15  1  0  0  0
 14 17  1  0  0  0
 14 47  1  0  0  0
 15 16  1  0  0  0
 15 48  1  0  0  0
 15 49  1  0  0  0
 16 50  1  0  0  0
 16 51  1  0  0  0
 17 18  2  0  0  0
 17 19  1  0  0  0
 19 20  1  0  0  0
 19 52  1  0  0  0
 20 24  1  0  0  0
 20 21  2  0  0  0
 21 22  1  0  0  0
 21 29  1  0  0  0
 22 28  1  0  0  0
 22 23  2  0  0  0
 23 24  1  0  0  0
 23 25  1  0  0  0
 25 26  1  0  0  0
 25 53  1  0  0  0
 25 54  1  0  0  0
 26 27  1  0  0  0
 26 55  1  0  0  0
 26 56  1  0  0  0
 27 28  1  0  0  0
 27 57  1  0  0  0
 27 58  1  0  0  0
 28 59  1  0  0  0
 28 60  1  0  0  0
 29 30  2  0  0  0
 29 31  1  0  0  0
 31 32  1  0  0  0
 31 61  1  0  0  0
 32 33  2  0  0  0
 32 34  1  0  0  0
 34 35  1  0  0  0
 35 62  1  0  0  0
 35 63  1  0  0  0
 35 64  1  0  0  0
M  END
> <i_i_glide_confnum>
192

> <i_i_glide_lignum>
4222

> <i_i_glide_posenum>
213

> <i_i_glide_rotatable_bonds>
9

> <i_m_Source_File_Index>
1420

> <b_m_subgroup_collapsed>
0

> <r_i_docking_score>
-5.67828

> <r_i_glide_ecoul>
-8.65921

> <r_i_glide_eff_state_penalty>
0

> <r_i_glide_einternal>
13.6537

> <r_i_glide_emodel>
-65.082

> <r_i_glide_energy>
-53.5944

> <r_i_glide_erotb>
0.608725

> <r_i_glide_esite>
-0.181097

> <r_i_glide_evdw>
-44.9352

> <r_i_glide_gscore>
-5.67828

> <r_i_glide_hbond>
-0.16

> <r_i_glide_ligand_efficiency>
-0.162237

> <r_i_glide_ligand_efficiency_ln>
-1.24651

> <r_i_glide_ligand_efficiency_sa>
-0.530686

> <r_i_glide_lipo>
-2.5222

> <r_i_glide_metal>
0

> <r_i_glide_rewards>
0.12193

> <s_i_glide_gridfile>
wee1_glide-grid

> <s_m_Source_File>
wee1_decoys_glide_SP.sdf

> <s_m_Source_Path>
/Users/zhangxujun/Desktop

> <s_m_entry_id>
1695

> <s_m_entry_name>
wee1_decoys_glide_SP.1420

> <s_m_subgroup_title>
wee1_decoys_glide_SP

> <s_m_subgroupid>
wee1_decoys_glide_SP


$$$$
