ZINC22456800_2363
                    3D
 Schrodinger Suite 2024-2.
 48 51  0  0  1  0            999 V2000
    5.8751   58.3081   14.5823 C   0  0  0  0  0  0
    5.7455   56.9375   14.3725 C   0  0  0  0  0  0
    5.5769   56.0851   15.4601 C   0  0  0  0  0  0
    5.5478   56.6010   16.7582 C   0  0  0  0  0  0
    5.6707   57.9845   16.9607 C   0  0  0  0  0  0
    5.8361   58.8336   15.8708 C   0  0  0  0  0  0
    5.3409   55.6761   17.7964 N   0  0  0  0  0  0
    5.6497   55.8020   19.1004 C   0  0  0  0  0  0
    6.3069   56.7279   19.5856 O   0  0  0  0  0  0
    5.1090   54.7932   19.8135 N   0  0  0  0  0  0
    5.2093   54.6076   21.2013 C   0  0  0  0  0  0
    4.0941   54.0967   21.8680 C   0  0  0  0  0  0
    4.1334   53.9173   23.2483 C   0  0  0  0  0  0
    5.2926   54.2228   23.9647 C   0  0  0  0  0  0
    6.4221   54.7019   23.2882 C   0  0  0  0  0  0
    6.3770   54.8984   21.9152 C   0  0  0  0  0  0
    5.2736   53.9414   25.3393 N   0  0  0  0  0  0
    6.1486   54.3130   26.2905 C   0  0  0  0  0  0
    6.9986   55.1956   26.1626 O   0  0  0  0  0  0
    6.0427   53.5440   27.6063 C   0  0  0  0  0  0
    5.1833   54.5022   28.8809 S   0  0  0  0  0  0
    3.5260   53.9448   28.7729 C   0  0  0  0  0  0
    3.1208   52.8957   28.1168 N   0  0  0  0  0  0
    1.8296   52.6001   28.4150 C   0  0  0  0  0  0
    1.1276   51.4910   27.9332 C   0  0  0  0  0  0
   -0.1785   51.2969   28.3646 C   0  0  0  0  0  0
   -0.7508   52.1242   29.3180 C   0  0  0  0  0  0
   -0.0866   53.2504   29.8008 C   0  0  0  0  0  0
    1.2025   53.4910   29.3196 C   0  0  0  0  0  0
    2.3041   54.7985   29.6809 S   0  0  0  0  0  0
    5.9984   58.9732   13.7392 H   0  0  0  0  0  0
    5.7715   56.5402   13.3693 H   0  0  0  0  0  0
    5.4726   55.0236   15.2858 H   0  0  0  0  0  0
    5.6206   58.4229   17.9458 H   0  0  0  0  0  0
    5.9145   59.9000   16.0316 H   0  0  0  0  0  0
    4.9679   54.7865   17.5021 H   0  0  0  0  0  0
    4.4513   54.1932   19.3393 H   0  0  0  0  0  0
    3.1882   53.8650   21.3268 H   0  0  0  0  0  0
    3.2575   53.5317   23.7526 H   0  0  0  0  0  0
    7.3503   54.9127   23.7973 H   0  0  0  0  0  0
    7.2604   55.2658   21.4128 H   0  0  0  0  0  0
    4.5261   53.3310   25.6379 H   0  0  0  0  0  0
    7.0581   53.3724   27.9635 H   0  0  0  0  0  0
    5.6068   52.5540   27.4695 H   0  0  0  0  0  0
    1.5850   50.7716   27.2815 H   0  0  0  0  0  0
   -0.7534   50.4669   27.9915 H   0  0  0  0  0  0
   -1.7313   51.8732   29.6815 H   0  0  0  0  0  0
   -0.5219   53.9011   30.5420 H   0  0  0  0  0  0
  1  6  2  0  0  0
  1  2  1  0  0  0
  1 31  1  0  0  0
  2  3  2  0  0  0
  2 32  1  0  0  0
  3  4  1  0  0  0
  3 33  1  0  0  0
  4  5  2  0  0  0
  4  7  1  0  0  0
  5  6  1  0  0  0
  5 34  1  0  0  0
  6 35  1  0  0  0
  7  8  1  0  0  0
  7 36  1  0  0  0
  8  9  2  0  0  0
  8 10  1  0  0  0
 10 11  1  0  0  0
 10 37  1  0  0  0
 11 16  2  0  0  0
 11 12  1  0  0  0
 12 13  2  0  0  0
 12 38  1  0  0  0
 13 14  1  0  0  0
 13 39  1  0  0  0
 14 15  2  0  0  0
 14 17  1  0  0  0
 15 16  1  0  0  0
 15 40  1  0  0  0
 16 41  1  0  0  0
 17 18  1  0  0  0
 17 42  1  0  0  0
 18 19  2  0  0  0
 18 20  1  0  0  0
 20 21  1  0  0  0
 20 43  1  0  0  0
 20 44  1  0  0  0
 21 22  1  0  0  0
 22 30  1  0  0  0
 22 23  2  0  0  0
 23 24  1  0  0  0
 24 29  2  0  0  0
 24 25  1  0  0  0
 25 26  2  0  0  0
 25 45  1  0  0  0
 26 27  1  0  0  0
 26 46  1  0  0  0
 27 28  2  0  0  0
 27 47  1  0  0  0
 28 29  1  0  0  0
 28 48  1  0  0  0
 29 30  1  0  0  0
M  END
> <i_i_glide_confnum>
117

> <i_i_glide_lignum>
2364

> <i_i_glide_posenum>
251

> <i_i_glide_rotatable_bonds>
9

> <i_m_Source_File_Index>
2240

> <b_m_subgroup_collapsed>
0

> <r_i_docking_score>
-6.47398

> <r_i_glide_ecoul>
-8.92461

> <r_i_glide_eff_state_penalty>
0

> <r_i_glide_einternal>
6.89627

> <r_i_glide_emodel>
-69.7325

> <r_i_glide_energy>
-52.1212

> <r_i_glide_erotb>
0.738349

> <r_i_glide_esite>
0

> <r_i_glide_evdw>
-43.1966

> <r_i_glide_gscore>
-6.47398

> <r_i_glide_hbond>
-0.32

> <r_i_glide_ligand_efficiency>
-0.215799

> <r_i_glide_ligand_efficiency_ln>
-1.47096

> <r_i_glide_ligand_efficiency_sa>
-0.670538

> <r_i_glide_lipo>
-2.5075

> <r_i_glide_metal>
0

> <r_i_glide_rewards>
-0.886308

> <s_i_glide_gridfile>
wee1_glide-grid

> <s_m_Source_File>
wee1_decoys_glide_SP.sdf

> <s_m_Source_Path>
/Users/zhangxujun/Desktop

> <s_m_entry_id>
2515

> <s_m_entry_name>
wee1_decoys_glide_SP.2240

> <s_m_subgroup_title>
wee1_decoys_glide_SP

> <s_m_subgroupid>
wee1_decoys_glide_SP


$$$$
