ZINC36619904_2627
                    3D
 Schrodinger Suite 2024-2.
 40 42  0  0  1  0            999 V2000
    5.1123   56.3607   16.6636 C   0  0  0  0  0  0
    5.9289   57.0727   17.5476 C   0  0  0  0  0  0
    6.0834   56.6260   18.8641 C   0  0  0  0  0  0
    5.4097   55.4631   19.2818 C   0  0  0  0  0  0
    4.6275   54.8119   18.3915 N   0  3  0  0  0  0
    4.4597   55.2108   17.1145 C   0  0  0  0  0  0
    5.5140   55.0246   20.6360 N   0  0  0  0  0  0
    4.6650   54.0537   21.3312 C   0  0  0  0  0  0
    3.8248   53.3613   20.7581 O   0  0  0  0  0  0
    4.8588   54.0248   22.8165 C   0  0  0  0  0  0
    3.7531   54.0261   23.6745 C   0  0  0  0  0  0
    3.9407   54.0969   25.0541 C   0  0  0  0  0  0
    5.2387   54.1421   25.5776 C   0  0  0  0  0  0
    6.3366   54.0972   24.7167 C   0  0  0  0  0  0
    6.1521   54.0582   23.3446 C   0  0  0  0  0  0
    5.6179   54.3149   27.3290 S   0  0  0  0  0  0
    5.9762   52.9722   27.7918 O   0  0  0  0  0  0
    6.7044   55.2967   27.2817 O   0  0  0  0  0  0
    4.2874   54.8946   27.9409 N   0  5  0  0  0  0
    3.2263   54.1734   28.4273 C   0  0  0  0  0  0
    2.2495   54.8842   29.1344 C   0  0  0  0  0  0
    1.1153   54.2526   29.6405 C   0  0  0  0  0  0
    0.9397   52.8879   29.4327 C   0  0  0  0  0  0
    1.8944   52.1566   28.7360 C   0  0  0  0  0  0
    3.0251   52.7990   28.2397 C   0  0  0  0  0  0
   -0.4739   52.0975   30.0239 Cl  0  0  0  0  0  0
    6.8046   57.2973   19.6746 O   0  5  0  0  0  0
    4.9847   56.7036   15.6467 H   0  0  0  0  0  0
    6.4278   57.9728   17.2176 H   0  0  0  0  0  0
    3.8062   54.5990   16.5086 H   0  0  0  0  0  0
    6.1623   55.5439   21.2116 H   0  0  0  0  0  0
    2.7477   54.0082   23.2763 H   0  0  0  0  0  0
    3.0764   54.1314   25.6988 H   0  0  0  0  0  0
    7.3424   54.1296   25.1091 H   0  0  0  0  0  0
    7.0245   54.0624   22.7068 H   0  0  0  0  0  0
    2.3683   55.9472   29.2911 H   0  0  0  0  0  0
    0.3742   54.8216   30.1821 H   0  0  0  0  0  0
    1.7537   51.0986   28.5667 H   0  0  0  0  0  0
    3.7303   52.2078   27.6816 H   0  0  0  0  0  0
    4.1343   53.9891   18.7179 H   0  0  0  0  0  0
  1  6  2  0  0  0
  1 28  1  0  0  0
  1  2  1  0  0  0
  2  3  2  0  0  0
  2 29  1  0  0  0
  3 27  1  0  0  0
  3  4  1  0  0  0
  4  7  1  0  0  0
  4  5  2  0  0  0
  5 40  1  0  0  0
  5  6  1  0  0  0
  6 30  1  0  0  0
  7  8  1  0  0  0
  7 31  1  0  0  0
  8  9  2  0  0  0
  8 10  1  0  0  0
 10 15  2  0  0  0
 10 11  1  0  0  0
 11 12  2  0  0  0
 11 32  1  0  0  0
 12 13  1  0  0  0
 12 33  1  0  0  0
 13 14  2  0  0  0
 13 16  1  0  0  0
 14 15  1  0  0  0
 14 34  1  0  0  0
 15 35  1  0  0  0
 16 17  2  0  0  0
 16 18  2  0  0  0
 16 19  1  0  0  0
 19 20  1  0  0  0
 20 25  2  0  0  0
 20 21  1  0  0  0
 21 22  2  0  0  0
 21 36  1  0  0  0
 22 23  1  0  0  0
 22 37  1  0  0  0
 23 24  2  0  0  0
 23 26  1  0  0  0
 24 25  1  0  0  0
 24 38  1  0  0  0
 25 39  1  0  0  0
M  CHG  3   5   1  19  -1  27  -1
M  END
> <i_i_glide_confnum>
26

> <i_i_glide_lignum>
2628

> <i_i_glide_posenum>
2

> <i_i_glide_rotatable_bonds>
6

> <i_m_Source_File_Index>
96

> <b_m_subgroup_collapsed>
0

> <r_i_docking_score>
-4.80449

> <r_i_glide_ecoul>
0.442656

> <r_i_glide_eff_state_penalty>
0

> <r_i_glide_einternal>
3.58926

> <r_i_glide_emodel>
-50.9437

> <r_i_glide_energy>
-40.3304

> <r_i_glide_erotb>
0.725722

> <r_i_glide_esite>
0

> <r_i_glide_evdw>
-40.7731

> <r_i_glide_gscore>
-4.80449

> <r_i_glide_hbond>
-0.16

> <r_i_glide_ligand_efficiency>
-0.177944

> <r_i_glide_ligand_efficiency_ln>
-1.11841

> <r_i_glide_ligand_efficiency_sa>
-0.533832

> <r_i_glide_lipo>
-3.01979

> <r_i_glide_metal>
0

> <r_i_glide_rewards>
-0.378164

> <s_i_glide_gridfile>
wee1_glide-grid

> <s_m_Source_File>
wee1_decoys_glide_SP.sdf

> <s_m_Source_Path>
/Users/zhangxujun/Desktop

> <s_m_entry_id>
371

> <s_m_entry_name>
wee1_decoys_glide_SP.96

> <s_m_subgroup_title>
wee1_decoys_glide_SP

> <s_m_subgroupid>
wee1_decoys_glide_SP


$$$$
