ZINC22914041_1202
                    3D
 Schrodinger Suite 2024-2.
 65 69  0  0  1  0            999 V2000
    5.9400   53.3147   28.0317 C   0  0  0  0  0  0
    4.9230   54.3002   27.4144 C   0  0  1  0  0  0
    5.1477   55.2967   27.7928 H   0  0  0  0  0  0
    5.0811   54.3795   25.8851 C   0  0  0  0  0  0
    4.0284   54.0967   25.0026 C   0  0  0  0  0  0
    4.2334   54.1149   23.6263 C   0  0  0  0  0  0
    5.4834   54.4536   23.0903 C   0  0  0  0  0  0
    6.5201   54.7676   23.9760 C   0  0  0  0  0  0
    6.3209   54.7381   25.3514 C   0  0  0  0  0  0
    5.6950   54.4971   21.6107 C   0  0  0  0  0  0
    5.0032   53.6232   20.7580 C   0  0  0  0  0  0
    5.2186   53.6483   19.3821 C   0  0  0  0  0  0
    6.1270   54.5533   18.8430 C   0  0  0  0  0  0
    6.8207   55.4328   19.6680 C   0  0  0  0  0  0
    6.6044   55.4045   21.0434 C   0  0  0  0  0  0
    3.5466   53.9984   27.8292 N   0  0  0  0  0  0
    3.0478   53.9205   29.0747 C   0  0  0  0  0  0
    3.7258   54.0975   30.0816 O   0  0  0  0  0  0
    1.5413   53.6189   29.2364 C   0  0  0  0  0  0
    0.9658   52.9307   28.0637 N   0  0  0  0  0  0
    1.3168   51.4980   28.0396 C   0  0  0  0  0  0
    0.6847   50.7820   26.8183 C   0  0  0  0  0  0
   -0.7744   50.9550   26.8067 N   0  0  0  0  0  0
   -1.1171   52.3827   26.8338 C   0  0  0  0  0  0
   -0.4941   53.0467   28.0835 C   0  0  0  0  0  0
   -1.3830   50.2639   25.6671 C   0  0  0  0  0  0
   -2.8839   50.0470   25.7895 C   0  0  0  0  0  0
   -3.8165   50.5339   24.9393 C   0  0  0  0  0  0
   -5.2404   50.3403   25.0952 C   0  0  0  0  0  0
   -6.1567   50.7408   24.3773 O   0  0  0  0  0  0
   -5.5441   49.5440   26.3144 N   0  0  0  0  0  0
   -6.8299   49.2252   26.7035 C   0  0  0  0  0  0
   -6.8624   48.5076   27.8375 C   0  0  0  0  0  0
   -5.2443   48.1941   28.4750 S   0  0  0  0  0  0
   -4.5890   49.0723   27.1394 C   0  0  0  0  0  0
   -3.2958   49.3086   26.8817 N   0  3  0  0  0  0
    6.9664   53.5124   27.7243 H   0  0  0  0  0  0
    5.9353   53.3592   29.1177 H   0  0  0  0  0  0
    5.6961   52.2956   27.7500 H   0  0  0  0  0  0
    3.0458   53.8240   25.3585 H   0  0  0  0  0  0
    3.4014   53.8863   22.9773 H   0  0  0  0  0  0
    7.5015   55.0263   23.6041 H   0  0  0  0  0  0
    7.1408   54.9789   26.0056 H   0  0  0  0  0  0
    4.3075   52.8983   21.1528 H   0  0  0  0  0  0
    4.6936   52.9569   18.7373 H   0  0  0  0  0  0
    6.2959   54.5691   17.7753 H   0  0  0  0  0  0
    7.5270   56.1290   19.2419 H   0  0  0  0  0  0
    7.1529   56.0967   21.6630 H   0  0  0  0  0  0
    2.8697   53.9106   27.0873 H   0  0  0  0  0  0
    1.3730   53.0416   30.1492 H   0  0  0  0  0  0
    1.0596   54.5869   29.3842 H   0  0  0  0  0  0
    2.3985   51.3703   27.9967 H   0  0  0  0  0  0
    0.9538   51.0111   28.9483 H   0  0  0  0  0  0
    0.9362   49.7213   26.8777 H   0  0  0  0  0  0
    1.1034   51.2048   25.9043 H   0  0  0  0  0  0
   -2.1995   52.5085   26.8793 H   0  0  0  0  0  0
   -0.7488   52.8886   25.9390 H   0  0  0  0  0  0
   -0.8967   52.5837   28.9863 H   0  0  0  0  0  0
   -0.7735   54.0980   28.0830 H   0  0  0  0  0  0
   -1.1641   50.8070   24.7453 H   0  0  0  0  0  0
   -0.9197   49.2821   25.5461 H   0  0  0  0  0  0
   -3.5006   51.1188   24.0871 H   0  0  0  0  0  0
   -7.6564   49.5648   26.0939 H   0  0  0  0  0  0
   -7.7396   48.1371   28.3492 H   0  0  0  0  0  0
   -2.5750   48.9358   27.5178 H   0  0  0  0  0  0
  1  2  1  0  0  0
  1 37  1  0  0  0
  1 38  1  0  0  0
  1 39  1  0  0  0
  2  3  1  0  0  0
  2  4  1  0  0  0
  2 16  1  0  0  0
  4  9  2  0  0  0
  4  5  1  0  0  0
  5  6  2  0  0  0
  5 40  1  0  0  0
  6  7  1  0  0  0
  6 41  1  0  0  0
  7  8  2  0  0  0
  7 10  1  0  0  0
  8  9  1  0  0  0
  8 42  1  0  0  0
  9 43  1  0  0  0
 10 15  2  0  0  0
 10 11  1  0  0  0
 11 12  2  0  0  0
 11 44  1  0  0  0
 12 13  1  0  0  0
 12 45  1  0  0  0
 13 14  2  0  0  0
 13 46  1  0  0  0
 14 15  1  0  0  0
 14 47  1  0  0  0
 15 48  1  0  0  0
 16 17  1  0  0  0
 16 49  1  0  0  0
 17 18  2  0  0  0
 17 19  1  0  0  0
 19 20  1  0  0  0
 19 50  1  0  0  0
 19 51  1  0  0  0
 20 25  1  0  0  0
 20 21  1  0  0  0
 21 22  1  0  0  0
 21 52  1  0  0  0
 21 53  1  0  0  0
 22 23  1  0  0  0
 22 54  1  0  0  0
 22 55  1  0  0  0
 23 24  1  0  0  0
 23 26  1  0  0  0
 24 25  1  0  0  0
 24 56  1  0  0  0
 24 57  1  0  0  0
 25 58  1  0  0  0
 25 59  1  0  0  0
 26 27  1  0  0  0
 26 60  1  0  0  0
 26 61  1  0  0  0
 27 36  1  0  0  0
 27 28  2  0  0  0
 28 29  1  0  0  0
 28 62  1  0  0  0
 29 30  2  0  0  0
 29 31  1  0  0  0
 31 35  1  0  0  0
 31 32  1  0  0  0
 32 33  2  0  0  0
 32 63  1  0  0  0
 33 34  1  0  0  0
 33 64  1  0  0  0
 34 35  1  0  0  0
 35 36  2  0  0  0
 36 65  1  0  0  0
M  CHG  1  36   1
M  END
> <i_i_glide_confnum>
249

> <i_i_glide_lignum>
1203

> <i_i_glide_posenum>
220

> <i_i_glide_rotatable_bonds>
8

> <i_m_Source_File_Index>
5544

> <b_m_subgroup_collapsed>
0

> <r_i_docking_score>
-6.31871

> <r_i_glide_ecoul>
-5.69305

> <r_i_glide_eff_state_penalty>
0

> <r_i_glide_einternal>
4.92746

> <r_i_glide_emodel>
-65.3771

> <r_i_glide_energy>
-46.769

> <r_i_glide_erotb>
0.681461

> <r_i_glide_esite>
-0.154522

> <r_i_glide_evdw>
-41.0759

> <r_i_glide_gscore>
-6.31871

> <r_i_glide_hbond>
-0.506399

> <r_i_glide_ligand_efficiency>
-0.180534

> <r_i_glide_ligand_efficiency_ln>
-1.3871

> <r_i_glide_ligand_efficiency_sa>
-0.59054

> <r_i_glide_lipo>
-3.01016

> <r_i_glide_metal>
0

> <r_i_glide_rewards>
-0.421336

> <s_i_glide_gridfile>
wee1_glide-grid

> <s_m_Source_File>
wee1_decoys_glide_SP.sdf

> <s_m_Source_Path>
/Users/zhangxujun/Desktop

> <s_m_entry_id>
5819

> <s_m_entry_name>
wee1_decoys_glide_SP.5544

> <s_m_subgroup_title>
wee1_decoys_glide_SP

> <s_m_subgroupid>
wee1_decoys_glide_SP


$$$$
