ZINC00866077_5419
                    3D
 Schrodinger Suite 2024-2.
 56 59  0  0  1  0            999 V2000
    0.3043   53.3077   32.2309 C   0  0  0  0  0  0
    0.9109   53.9894   31.1466 O   0  0  0  0  0  0
    0.8258   53.4627   29.8775 C   0  0  0  0  0  0
    0.1041   52.3023   29.5535 C   0  0  0  0  0  0
    0.0851   51.8233   28.2445 C   0  0  0  0  0  0
    0.7774   52.4945   27.2308 C   0  0  0  0  0  0
    1.5042   53.6493   27.5608 C   0  0  0  0  0  0
    1.5220   54.1369   28.8652 C   0  0  0  0  0  0
    2.2682   55.2611   29.1301 O   0  0  0  0  0  0
    1.5042   56.4370   29.3606 C   0  0  0  0  0  0
    0.7489   51.9397   25.8009 C   0  0  1  0  0  0
    1.0932   50.9142   25.9353 H   0  0  0  0  0  0
   -0.6786   51.8967   25.1949 C   0  0  0  0  0  0
   -0.7277   51.2816   23.7689 C   0  0  1  0  0  0
   -1.6754   51.5486   23.2995 H   0  0  0  0  0  0
    0.3477   51.9188   23.0029 N   0  0  0  0  0  0
    1.5072   52.4702   23.5147 C   0  0  0  0  0  0
    2.2605   52.8968   22.4262 C   0  0  0  0  0  0
    1.4830   52.4961   21.3214 C   0  0  0  0  0  0
    0.3562   51.9184   21.6627 N   0  0  0  0  0  0
    3.5093   53.6292   22.4582 C   0  0  0  0  0  0
    3.9572   54.0619   23.5220 O   0  0  0  0  0  0
    4.0988   53.7703   21.2518 N   0  0  0  0  0  0
    5.3021   54.4135   20.9097 C   0  0  0  0  0  0
    6.2429   54.9128   21.8296 C   0  0  0  0  0  0
    7.3969   55.5527   21.3767 C   0  0  0  0  0  0
    7.6412   55.6771   20.0100 C   0  0  0  0  0  0
    6.7279   55.1635   19.0806 C   0  0  0  0  0  0
    5.5629   54.5376   19.5413 C   0  0  0  0  0  0
    6.9940   55.2657   17.5792 C   0  0  0  0  0  0
    6.6571   54.1304   16.9652 F   0  0  0  0  0  0
    8.2781   55.5175   17.3148 F   0  0  0  0  0  0
    6.2578   56.2586   17.0795 F   0  0  0  0  0  0
    1.6919   52.5850   24.8770 N   0  0  0  0  0  0
   -0.6477   49.7318   23.7529 C   0  0  0  0  0  0
   -1.6126   49.1942   24.4989 F   0  0  0  0  0  0
   -0.7903   49.2423   22.5206 F   0  0  0  0  0  0
    0.5120   49.2805   24.2281 F   0  0  0  0  0  0
    0.5012   53.8380   33.1626 H   0  0  0  0  0  0
   -0.7719   53.2990   32.0815 H   0  0  0  0  0  0
    0.6782   52.2888   32.3418 H   0  0  0  0  0  0
   -0.4480   51.7549   30.3035 H   0  0  0  0  0  0
   -0.4692   50.9214   28.0254 H   0  0  0  0  0  0
    2.0580   54.1939   26.8105 H   0  0  0  0  0  0
    2.1693   57.2958   29.4015 H   0  0  0  0  0  0
    0.7852   56.6115   28.5602 H   0  0  0  0  0  0
    0.9678   56.3961   30.3092 H   0  0  0  0  0  0
   -1.1126   52.8976   25.1770 H   0  0  0  0  0  0
   -1.3429   51.3336   25.8529 H   0  0  0  0  0  0
    1.7192   52.6566   20.2785 H   0  0  0  0  0  0
    3.5904   53.3853   20.4709 H   0  0  0  0  0  0
    6.1059   54.8255   22.8952 H   0  0  0  0  0  0
    8.1177   55.9405   22.0824 H   0  0  0  0  0  0
    8.5532   56.1580   19.6828 H   0  0  0  0  0  0
    4.8569   54.1461   18.8208 H   0  0  0  0  0  0
    2.6370   52.5754   25.2325 H   0  0  0  0  0  0
  1  2  1  0  0  0
  1 39  1  0  0  0
  1 40  1  0  0  0
  1 41  1  0  0  0
  2  3  1  0  0  0
  3  8  2  0  0  0
  3  4  1  0  0  0
  4  5  2  0  0  0
  4 42  1  0  0  0
  5  6  1  0  0  0
  5 43  1  0  0  0
  6  7  2  0  0  0
  6 11  1  0  0  0
  7  8  1  0  0  0
  7 44  1  0  0  0
  8  9  1  0  0  0
  9 10  1  0  0  0
 10 45  1  0  0  0
 10 46  1  0  0  0
 10 47  1  0  0  0
 11 12  1  0  0  0
 11 34  1  0  0  0
 11 13  1  0  0  0
 13 14  1  0  0  0
 13 48  1  0  0  0
 13 49  1  0  0  0
 14 15  1  0  0  0
 14 16  1  0  0  0
 14 35  1  0  0  0
 16 20  1  0  0  0
 16 17  1  0  0  0
 17 18  2  0  0  0
 17 34  1  0  0  0
 18 19  1  0  0  0
 18 21  1  0  0  0
 19 20  2  0  0  0
 19 50  1  0  0  0
 21 22  2  0  0  0
 21 23  1  0  0  0
 23 24  1  0  0  0
 23 51  1  0  0  0
 24 29  2  0  0  0
 24 25  1  0  0  0
 25 26  2  0  0  0
 25 52  1  0  0  0
 26 27  1  0  0  0
 26 53  1  0  0  0
 27 28  2  0  0  0
 27 54  1  0  0  0
 28 29  1  0  0  0
 28 30  1  0  0  0
 29 55  1  0  0  0
 30 31  1  0  0  0
 30 32  1  0  0  0
 30 33  1  0  0  0
 34 56  1  0  0  0
 35 36  1  0  0  0
 35 37  1  0  0  0
 35 38  1  0  0  0
M  END
> <i_i_glide_confnum>
12

> <i_i_glide_lignum>
5420

> <i_i_glide_posenum>
146

> <i_i_glide_rotatable_bonds>
8

> <i_m_Source_File_Index>
1404

> <b_m_subgroup_collapsed>
0

> <r_i_docking_score>
-5.09152

> <r_i_glide_ecoul>
-4.89391

> <r_i_glide_eff_state_penalty>
0

> <r_i_glide_einternal>
12.8768

> <r_i_glide_emodel>
-56.9288

> <r_i_glide_energy>
-47.8378

> <r_i_glide_erotb>
0.310058

> <r_i_glide_esite>
-0.054133

> <r_i_glide_evdw>
-42.9439

> <r_i_glide_gscore>
-5.09152

> <r_i_glide_hbond>
-0.0250081

> <r_i_glide_ligand_efficiency>
-0.141431

> <r_i_glide_ligand_efficiency_ln>
-1.11083

> <r_i_glide_ligand_efficiency_sa>
-0.466995

> <r_i_glide_lipo>
-2.10554

> <r_i_glide_metal>
0

> <r_i_glide_rewards>
-0.335612

> <s_i_glide_gridfile>
wee1_glide-grid

> <s_m_Source_File>
wee1_decoys_glide_SP.sdf

> <s_m_Source_Path>
/Users/zhangxujun/Desktop

> <s_m_entry_id>
1679

> <s_m_entry_name>
wee1_decoys_glide_SP.1404

> <s_m_subgroup_title>
wee1_decoys_glide_SP

> <s_m_subgroupid>
wee1_decoys_glide_SP


$$$$
