ZINC14358358_3376
                    3D
 Schrodinger Suite 2024-2.
 60 64  0  0  1  0            999 V2000
    4.7957   54.5483   28.4184 C   0  0  0  0  0  0
    5.9539   54.6941   27.4272 C   0  0  0  0  0  0
    5.4740   54.4417   26.1110 O   0  0  0  0  0  0
    6.1214   54.9224   25.0212 C   0  0  0  0  0  0
    7.1044   55.6622   25.0778 O   0  0  0  0  0  0
    5.4930   54.4968   23.7533 C   0  0  0  0  0  0
    6.0914   54.6733   22.4848 C   0  0  0  0  0  0
    5.3258   54.2538   21.4205 C   0  0  0  0  0  0
    3.8374   53.5504   21.8986 S   0  0  0  0  0  0
    4.2138   53.9144   23.5730 C   0  0  0  0  0  0
    3.2973   53.7029   24.5924 N   0  0  0  0  0  0
    2.1756   52.9633   24.6017 C   0  0  0  0  0  0
    1.7869   52.2406   23.6846 O   0  0  0  0  0  0
    1.4342   53.0705   25.9432 C   0  0  0  0  0  0
    0.2749   52.1651   26.1078 N   0  0  0  0  0  0
   -0.8329   52.1256   25.3267 C   0  0  0  0  0  0
   -1.0967   52.8367   24.3522 O   0  0  0  0  0  0
   -1.6565   50.9387   25.8232 C   0  0  2  0  0  0
   -0.7909   50.4967   26.8818 N   0  0  0  0  0  0
    0.2757   51.2611   27.1131 C   0  0  0  0  0  0
    0.9240   51.2968   28.1588 O   0  0  0  0  0  0
   -1.7217   49.8608   24.7137 C   0  0  0  0  0  0
   -3.0740   51.3189   26.3201 C   0  0  0  0  0  0
   -3.9496   52.0273   25.4774 C   0  0  0  0  0  0
   -5.2335   52.3781   25.8963 C   0  0  0  0  0  0
   -5.6624   52.0243   27.1724 C   0  0  0  0  0  0
   -4.8140   51.2967   28.0211 C   0  0  0  0  0  0
   -3.5302   50.9527   27.6015 C   0  0  0  0  0  0
   -5.1751   50.9778   29.3147 O   0  0  0  0  0  0
   -6.5873   50.9987   29.5428 C   0  0  0  0  0  0
   -7.2099   52.2805   28.9380 C   0  0  0  0  0  0
   -6.9537   52.3578   27.5310 O   0  0  0  0  0  0
    5.9536   54.5308   20.0831 C   0  0  0  0  0  0
    7.1075   55.4656   20.4821 C   0  0  0  0  0  0
    7.4022   55.2206   21.9714 C   0  0  0  0  0  0
    5.1460   54.6990   29.4395 H   0  0  0  0  0  0
    4.3457   53.5563   28.3609 H   0  0  0  0  0  0
    4.0191   55.2907   28.2254 H   0  0  0  0  0  0
    6.3754   55.6967   27.5142 H   0  0  0  0  0  0
    6.7500   53.9864   27.6634 H   0  0  0  0  0  0
    3.5967   54.0685   25.4856 H   0  0  0  0  0  0
    2.1633   52.9118   26.7408 H   0  0  0  0  0  0
    1.1046   54.0968   26.0522 H   0  0  0  0  0  0
   -0.8965   49.5680   27.2961 H   0  0  0  0  0  0
   -2.2574   50.2166   23.8323 H   0  0  0  0  0  0
   -0.7302   49.5429   24.3839 H   0  0  0  0  0  0
   -2.2396   48.9693   25.0702 H   0  0  0  0  0  0
   -3.6379   52.3065   24.4816 H   0  0  0  0  0  0
   -5.8945   52.9148   25.2313 H   0  0  0  0  0  0
   -2.9006   50.3964   28.2836 H   0  0  0  0  0  0
   -6.7812   50.9397   30.6141 H   0  0  0  0  0  0
   -7.0402   50.1232   29.0740 H   0  0  0  0  0  0
   -6.7786   53.1548   29.4281 H   0  0  0  0  0  0
   -8.2864   52.3009   29.1093 H   0  0  0  0  0  0
    6.3030   53.6206   19.5945 H   0  0  0  0  0  0
    5.2752   55.0313   19.3908 H   0  0  0  0  0  0
    7.9910   55.3207   19.8581 H   0  0  0  0  0  0
    6.7920   56.5013   20.3440 H   0  0  0  0  0  0
    7.7304   56.1249   22.4791 H   0  0  0  0  0  0
    8.2071   54.4967   22.0815 H   0  0  0  0  0  0
  1  2  1  0  0  0
  1 36  1  0  0  0
  1 37  1  0  0  0
  1 38  1  0  0  0
  2  3  1  0  0  0
  2 39  1  0  0  0
  2 40  1  0  0  0
  3  4  1  0  0  0
  4  5  2  0  0  0
  4  6  1  0  0  0
  6 10  2  0  0  0
  6  7  1  0  0  0
  7 35  1  0  0  0
  7  8  2  0  0  0
  8  9  1  0  0  0
  8 33  1  0  0  0
  9 10  1  0  0  0
 10 11  1  0  0  0
 11 12  1  0  0  0
 11 41  1  0  0  0
 12 13  2  0  0  0
 12 14  1  0  0  0
 14 15  1  0  0  0
 14 42  1  0  0  0
 14 43  1  0  0  0
 15 20  1  0  0  0
 15 16  1  0  0  0
 16 17  2  0  0  0
 16 18  1  0  0  0
 18 19  1  0  0  0
 18 22  1  0  0  0
 18 23  1  0  0  0
 19 20  1  0  0  0
 19 44  1  0  0  0
 20 21  2  0  0  0
 22 45  1  0  0  0
 22 46  1  0  0  0
 22 47  1  0  0  0
 23 28  2  0  0  0
 23 24  1  0  0  0
 24 25  2  0  0  0
 24 48  1  0  0  0
 25 26  1  0  0  0
 25 49  1  0  0  0
 26 32  1  0  0  0
 26 27  2  0  0  0
 27 28  1  0  0  0
 27 29  1  0  0  0
 28 50  1  0  0  0
 29 30  1  0  0  0
 30 31  1  0  0  0
 30 51  1  0  0  0
 30 52  1  0  0  0
 31 32  1  0  0  0
 31 53  1  0  0  0
 31 54  1  0  0  0
 33 34  1  0  0  0
 33 55  1  0  0  0
 33 56  1  0  0  0
 34 35  1  0  0  0
 34 57  1  0  0  0
 34 58  1  0  0  0
 35 59  1  0  0  0
 35 60  1  0  0  0
M  END
> <i_i_glide_confnum>
64

> <i_i_glide_lignum>
3377

> <i_i_glide_posenum>
146

> <i_i_glide_rotatable_bonds>
8

> <i_m_Source_File_Index>
3838

> <b_m_subgroup_collapsed>
0

> <r_i_docking_score>
-6.51903

> <r_i_glide_ecoul>
-7.43899

> <r_i_glide_eff_state_penalty>
0

> <r_i_glide_einternal>
10.3832

> <r_i_glide_emodel>
-67.113

> <r_i_glide_energy>
-51.1926

> <r_i_glide_erotb>
0.572638

> <r_i_glide_esite>
-0.134163

> <r_i_glide_evdw>
-43.7536

> <r_i_glide_gscore>
-6.51903

> <r_i_glide_hbond>
-0.456

> <r_i_glide_ligand_efficiency>
-0.186258

> <r_i_glide_ligand_efficiency_ln>
-1.43107

> <r_i_glide_ligand_efficiency_sa>
-0.609262

> <r_i_glide_lipo>
-1.93631

> <r_i_glide_metal>
0

> <r_i_glide_rewards>
-1.26167

> <s_i_glide_gridfile>
wee1_glide-grid

> <s_m_Source_File>
wee1_decoys_glide_SP.sdf

> <s_m_Source_Path>
/Users/zhangxujun/Desktop

> <s_m_entry_id>
4113

> <s_m_entry_name>
wee1_decoys_glide_SP.3838

> <s_m_subgroup_title>
wee1_decoys_glide_SP

> <s_m_subgroupid>
wee1_decoys_glide_SP


$$$$
