ZINC33009614_4542
                    3D
 Schrodinger Suite 2024-2.
 60 63  0  0  1  0            999 V2000
    8.1161   55.5474   18.6144 C   0  0  0  0  0  0
    6.9514   54.8524   18.2998 C   0  0  0  0  0  0
    6.0488   54.5294   19.3093 C   0  0  0  0  0  0
    6.3040   54.8975   20.6420 C   0  0  0  0  0  0
    7.4740   55.6216   20.9390 C   0  0  0  0  0  0
    8.3783   55.9328   19.9264 C   0  0  0  0  0  0
    5.3168   54.4961   21.7176 C   0  0  0  0  0  0
    4.1655   54.1958   21.4072 O   0  0  0  0  0  0
    5.7903   54.4984   22.9880 N   0  0  0  0  0  0
    5.0902   54.3530   24.2058 C   0  0  0  0  0  0
    5.8243   54.5579   25.3727 C   0  0  0  0  0  0
    5.2276   54.4112   26.6235 C   0  0  0  0  0  0
    3.8813   54.0397   26.7487 C   0  0  0  0  0  0
    3.1293   53.8373   25.5666 C   0  0  0  0  0  0
    3.7345   54.0182   24.3126 C   0  0  0  0  0  0
    1.8026   53.3589   25.6626 N   0  0  0  0  0  0
    1.1942   52.4381   24.8887 C   0  0  0  0  0  0
    1.6913   51.9160   23.8907 O   0  0  0  0  0  0
   -0.0043   52.0954   25.3932 N   0  0  0  0  0  0
   -0.7092   50.9135   25.1120 C   0  0  0  0  0  0
   -0.0339   49.6811   25.0801 C   0  0  0  0  0  0
   -0.7324   48.4961   24.8814 C   0  0  0  0  0  0
   -2.1125   48.5260   24.7126 C   0  0  0  0  0  0
   -2.7969   49.7414   24.7412 C   0  0  0  0  0  0
   -2.1106   50.9493   24.9429 C   0  0  0  0  0  0
   -2.8900   52.2719   24.9689 C   0  0  0  0  0  0
   -2.4600   53.0672   23.9898 F   0  0  0  0  0  0
   -4.2027   52.1013   24.8049 F   0  0  0  0  0  0
   -2.7031   52.8903   26.1355 F   0  0  0  0  0  0
    3.3398   53.8332   28.0224 N   0  0  0  0  0  0
    4.1173   53.3844   29.1948 C   0  0  0  0  0  0
    3.3555   52.2610   29.9402 C   0  0  0  0  0  0
    1.9120   52.6475   30.3202 C   0  0  0  0  0  0
    1.1931   53.3251   29.1403 C   0  0  0  0  0  0
    2.0687   54.4179   28.4857 C   0  0  0  0  0  0
    8.8258   55.7889   17.8326 H   0  0  0  0  0  0
    6.7505   54.5586   17.2792 H   0  0  0  0  0  0
    5.1537   53.9787   19.0466 H   0  0  0  0  0  0
    7.7118   55.9371   21.9465 H   0  0  0  0  0  0
    9.2877   56.4736   20.1551 H   0  0  0  0  0  0
    6.7729   54.7012   23.0856 H   0  0  0  0  0  0
    6.8692   54.8283   25.3256 H   0  0  0  0  0  0
    5.8279   54.5865   27.5052 H   0  0  0  0  0  0
    3.1315   53.8598   23.4342 H   0  0  0  0  0  0
    1.3957   53.4911   26.5759 H   0  0  0  0  0  0
   -0.4490   52.7247   26.0434 H   0  0  0  0  0  0
    1.0339   49.6308   25.2320 H   0  0  0  0  0  0
   -0.2035   47.5530   24.8828 H   0  0  0  0  0  0
   -2.6599   47.6064   24.5781 H   0  0  0  0  0  0
   -3.8689   49.7338   24.6179 H   0  0  0  0  0  0
    5.0706   52.9663   28.8645 H   0  0  0  0  0  0
    4.3439   54.2292   29.8477 H   0  0  0  0  0  0
    3.3634   51.3621   29.3197 H   0  0  0  0  0  0
    3.9103   51.9943   30.8406 H   0  0  0  0  0  0
    1.9083   53.3188   31.1780 H   0  0  0  0  0  0
    1.3567   51.7655   30.6397 H   0  0  0  0  0  0
    0.2592   53.7638   29.4877 H   0  0  0  0  0  0
    0.9060   52.5792   28.3965 H   0  0  0  0  0  0
    2.2855   55.2126   29.2024 H   0  0  0  0  0  0
    1.5215   54.8964   27.6719 H   0  0  0  0  0  0
  1  6  2  0  0  0
  1  2  1  0  0  0
  1 36  1  0  0  0
  2  3  2  0  0  0
  2 37  1  0  0  0
  3  4  1  0  0  0
  3 38  1  0  0  0
  4  5  2  0  0  0
  4  7  1  0  0  0
  5  6  1  0  0  0
  5 39  1  0  0  0
  6 40  1  0  0  0
  7  8  2  0  0  0
  7  9  1  0  0  0
  9 10  1  0  0  0
  9 41  1  0  0  0
 10 15  2  0  0  0
 10 11  1  0  0  0
 11 12  2  0  0  0
 11 42  1  0  0  0
 12 13  1  0  0  0
 12 43  1  0  0  0
 13 14  2  0  0  0
 13 30  1  0  0  0
 14 15  1  0  0  0
 14 16  1  0  0  0
 15 44  1  0  0  0
 16 17  1  0  0  0
 16 45  1  0  0  0
 17 18  2  0  0  0
 17 19  1  0  0  0
 19 20  1  0  0  0
 19 46  1  0  0  0
 20 25  2  0  0  0
 20 21  1  0  0  0
 21 22  2  0  0  0
 21 47  1  0  0  0
 22 23  1  0  0  0
 22 48  1  0  0  0
 23 24  2  0  0  0
 23 49  1  0  0  0
 24 25  1  0  0  0
 24 50  1  0  0  0
 25 26  1  0  0  0
 26 27  1  0  0  0
 26 28  1  0  0  0
 26 29  1  0  0  0
 30 35  1  0  0  0
 30 31  1  0  0  0
 31 32  1  0  0  0
 31 51  1  0  0  0
 31 52  1  0  0  0
 32 33  1  0  0  0
 32 53  1  0  0  0
 32 54  1  0  0  0
 33 34  1  0  0  0
 33 55  1  0  0  0
 33 56  1  0  0  0
 34 35  1  0  0  0
 34 57  1  0  0  0
 34 58  1  0  0  0
 35 59  1  0  0  0
 35 60  1  0  0  0
M  END
> <i_i_glide_confnum>
153

> <i_i_glide_lignum>
4543

> <i_i_glide_posenum>
161

> <i_i_glide_rotatable_bonds>
9

> <i_m_Source_File_Index>
404

> <b_m_subgroup_collapsed>
0

> <r_i_docking_score>
-6.04718

> <r_i_glide_ecoul>
0.12356

> <r_i_glide_eff_state_penalty>
0

> <r_i_glide_einternal>
5.11299

> <r_i_glide_emodel>
-67.4108

> <r_i_glide_energy>
-50.2226

> <r_i_glide_erotb>
0.697376

> <r_i_glide_esite>
0

> <r_i_glide_evdw>
-50.3461

> <r_i_glide_gscore>
-6.04718

> <r_i_glide_hbond>
0

> <r_i_glide_ligand_efficiency>
-0.172777

> <r_i_glide_ligand_efficiency_ln>
-1.32749

> <r_i_glide_ligand_efficiency_sa>
-0.565164

> <r_i_glide_lipo>
-3.12702

> <r_i_glide_metal>
0

> <r_i_glide_rewards>
-1.11877

> <s_i_glide_gridfile>
wee1_glide-grid

> <s_m_Source_File>
wee1_decoys_glide_SP.sdf

> <s_m_Source_Path>
/Users/zhangxujun/Desktop

> <s_m_entry_id>
679

> <s_m_entry_name>
wee1_decoys_glide_SP.404

> <s_m_subgroup_title>
wee1_decoys_glide_SP

> <s_m_subgroupid>
wee1_decoys_glide_SP


$$$$
