ZINC27318047_4983
                    3D
 Schrodinger Suite 2024-2.
 86 91  0  0  1  0            999 V2000
    1.6361   48.7237   21.2489 C   0  0  0  0  0  0
    1.2369   50.1726   20.8471 C   0  0  0  0  0  0
   -0.1471   50.6214   21.3634 C   0  0  2  0  0  0
   -0.9822   50.0132   21.0128 H   0  0  0  0  0  0
   -0.2323   52.0944   20.9026 C   0  0  0  0  0  0
    1.2237   52.5748   21.0839 C   0  0  0  0  0  0
    1.9522   51.3132   21.6395 C   0  0  1  0  0  0
    1.4832   51.0503   23.1194 C   0  0  2  0  0  0
    2.0706   50.2095   23.4941 H   0  0  0  0  0  0
    0.0049   50.6204   22.9071 C   0  0  0  0  0  0
    1.6720   52.1960   24.0201 N   0  0  0  0  0  0
    1.3148   52.2190   25.3163 C   0  0  0  0  0  0
    0.7044   51.3011   25.8637 O   0  0  0  0  0  0
    1.6754   53.4681   26.1228 C   0  0  0  0  0  0
    2.5500   53.3234   27.3952 C   0  0  0  0  0  0
    4.0997   53.4253   27.2887 C   0  0  1  0  0  0
    4.4910   52.4152   27.3155 H   0  0  0  0  0  0
    4.6618   54.0544   25.9955 C   0  0  0  0  0  0
    6.1984   53.9556   25.9709 C   0  0  0  0  0  0
    6.8307   54.6629   27.1800 C   0  0  0  0  0  0
    6.2378   54.0961   28.4817 N   0  3  0  0  0  0
    4.6951   54.1438   28.5275 C   0  0  0  0  0  0
    3.4941   51.2720   21.4595 C   0  0  0  0  0  0
    4.4255   52.8633   21.8911 S   0  0  0  0  0  0
    3.5543   53.7804   22.6369 O   0  0  0  0  0  0
    5.7155   52.4971   22.4817 O   0  0  0  0  0  0
    4.7616   53.5330   20.2937 N   0  0  0  0  0  0
    5.5100   52.7972   19.2478 C   0  0  0  0  0  0
    6.6224   53.6560   18.5890 C   0  0  0  0  0  0
    6.1465   55.0784   18.1879 C   0  0  0  0  0  0
    5.0920   55.0326   17.0602 C   0  0  0  0  0  0
    5.8555   55.2444   15.7524 C   0  0  0  0  0  0
    7.1019   55.9875   16.1881 C   0  0  0  0  0  0
    7.2732   55.8905   17.5739 C   0  0  0  0  0  0
    8.4080   56.4388   18.1803 C   0  0  0  0  0  0
    9.3677   57.0833   17.4003 C   0  0  0  0  0  0
    9.2072   57.1642   16.0161 C   0  0  0  0  0  0
    8.0827   56.6025   15.4066 C   0  0  0  0  0  0
    5.5521   55.7196   19.4697 C   0  0  0  0  0  0
    4.3640   54.8968   20.0079 C   0  0  0  0  0  0
    1.3817   50.2101   19.2881 C   0  0  0  0  0  0
    2.6708   48.5083   20.9787 H   0  0  0  0  0  0
    1.5399   48.4967   22.3072 H   0  0  0  0  0  0
    1.0114   48.0060   20.7162 H   0  0  0  0  0  0
   -0.5514   52.1747   19.8630 H   0  0  0  0  0  0
   -0.9438   52.6640   21.4998 H   0  0  0  0  0  0
    1.6584   52.8967   20.1378 H   0  0  0  0  0  0
    1.2629   53.4339   21.7511 H   0  0  0  0  0  0
   -0.1747   49.6275   23.3210 H   0  0  0  0  0  0
   -0.7126   51.2962   23.3746 H   0  0  0  0  0  0
    2.2639   52.9395   23.6644 H   0  0  0  0  0  0
    0.7044   53.6967   26.5331 H   0  0  0  0  0  0
    1.9683   54.3028   25.4859 H   0  0  0  0  0  0
    2.2872   52.4008   27.9178 H   0  0  0  0  0  0
    2.2123   54.1141   28.0694 H   0  0  0  0  0  0
    4.3192   55.0841   25.8800 H   0  0  0  0  0  0
    4.2621   53.5262   25.1295 H   0  0  0  0  0  0
    6.5858   54.3738   25.0400 H   0  0  0  0  0  0
    6.5034   52.9068   25.9867 H   0  0  0  0  0  0
    6.6252   55.7317   27.1950 H   0  0  0  0  0  0
    7.9041   54.4965   27.2542 H   0  0  0  0  0  0
    6.6249   54.6245   29.2583 H   0  0  0  0  0  0
    4.4046   53.6680   29.4657 H   0  0  0  0  0  0
    4.4153   55.1978   28.5745 H   0  0  0  0  0  0
    3.9043   50.4968   22.0817 H   0  0  0  0  0  0
    3.7643   51.0294   20.4330 H   0  0  0  0  0  0
    5.9062   51.8802   19.6819 H   0  0  0  0  0  0
    4.7831   52.4967   18.4942 H   0  0  0  0  0  0
    7.4524   53.7577   19.2817 H   0  0  0  0  0  0
    7.0564   53.1351   17.7335 H   0  0  0  0  0  0
    4.4377   54.1612   17.0675 H   0  0  0  0  0  0
    4.4189   55.8867   17.1641 H   0  0  0  0  0  0
    5.2576   55.7949   15.0251 H   0  0  0  0  0  0
    6.1150   54.2829   15.3063 H   0  0  0  0  0  0
    8.5648   56.3514   19.2449 H   0  0  0  0  0  0
   10.2472   57.5017   17.8687 H   0  0  0  0  0  0
    9.9616   57.6493   15.4133 H   0  0  0  0  0  0
    7.9809   56.6518   14.3325 H   0  0  0  0  0  0
    5.2647   56.7557   19.2817 H   0  0  0  0  0  0
    6.3162   55.7841   20.2470 H   0  0  0  0  0  0
    3.5063   54.8899   19.3339 H   0  0  0  0  0  0
    4.0401   55.2962   20.9603 H   0  0  0  0  0  0
    2.3731   49.8842   18.9680 H   0  0  0  0  0  0
    0.6644   49.5358   18.8187 H   0  0  0  0  0  0
    1.2268   51.1857   18.8333 H   0  0  0  0  0  0
    6.5420   53.1391   28.5919 H   0  0  0  0  0  0
  1  2  1  0  0  0
  1 42  1  0  0  0
  1 43  1  0  0  0
  1 44  1  0  0  0
  2  7  1  0  0  0
  2  3  1  0  0  0
  2 41  1  0  0  0
  3  4  1  0  0  0
  3 10  1  0  0  0
  3  5  1  0  0  0
  5  6  1  0  0  0
  5 45  1  0  0  0
  5 46  1  0  0  0
  6  7  1  0  0  0
  6 47  1  0  0  0
  6 48  1  0  0  0
  7  8  1  0  0  0
  7 23  1  0  0  0
  8  9  1  0  0  0
  8 10  1  0  0  0
  8 11  1  0  0  0
 10 49  1  0  0  0
 10 50  1  0  0  0
 11 12  1  0  0  0
 11 51  1  0  0  0
 12 13  2  0  0  0
 12 14  1  0  0  0
 14 15  1  0  0  0
 14 52  1  0  0  0
 14 53  1  0  0  0
 15 16  1  0  0  0
 15 54  1  0  0  0
 15 55  1  0  0  0
 16 17  1  0  0  0
 16 22  1  0  0  0
 16 18  1  0  0  0
 18 19  1  0  0  0
 18 56  1  0  0  0
 18 57  1  0  0  0
 19 20  1  0  0  0
 19 58  1  0  0  0
 19 59  1  0  0  0
 20 21  1  0  0  0
 20 60  1  0  0  0
 20 61  1  0  0  0
 21 22  1  0  0  0
 21 62  1  0  0  0
 21 86  1  0  0  0
 22 63  1  0  0  0
 22 64  1  0  0  0
 23 24  1  0  0  0
 23 65  1  0  0  0
 23 66  1  0  0  0
 24 25  2  0  0  0
 24 26  2  0  0  0
 24 27  1  0  0  0
 27 40  1  0  0  0
 27 28  1  0  0  0
 28 29  1  0  0  0
 28 67  1  0  0  0
 28 68  1  0  0  0
 29 30  1  0  0  0
 29 69  1  0  0  0
 29 70  1  0  0  0
 30 34  1  0  0  0
 30 31  1  0  0  0
 30 39  1  0  0  0
 31 32  1  0  0  0
 31 71  1  0  0  0
 31 72  1  0  0  0
 32 33  1  0  0  0
 32 73  1  0  0  0
 32 74  1  0  0  0
 33 38  2  0  0  0
 33 34  1  0  0  0
 34 35  2  0  0  0
 35 36  1  0  0  0
 35 75  1  0  0  0
 36 37  2  0  0  0
 36 76  1  0  0  0
 37 38  1  0  0  0
 37 77  1  0  0  0
 38 78  1  0  0  0
 39 40  1  0  0  0
 39 79  1  0  0  0
 39 80  1  0  0  0
 40 81  1  0  0  0
 40 82  1  0  0  0
 41 83  1  0  0  0
 41 84  1  0  0  0
 41 85  1  0  0  0
M  CHG  1  21   1
M  END
> <i_i_glide_confnum>
166

> <i_i_glide_lignum>
4984

> <i_i_glide_posenum>
166

> <i_i_glide_rotatable_bonds>
8

> <i_m_Source_File_Index>
495

> <b_m_subgroup_collapsed>
0

> <r_i_docking_score>
-3.11089

> <r_i_glide_ecoul>
-0.643297

> <r_i_glide_eff_state_penalty>
0

> <r_i_glide_einternal>
17.0416

> <r_i_glide_emodel>
-25.0748

> <r_i_glide_energy>
-26.3962

> <r_i_glide_erotb>
0.491533

> <r_i_glide_esite>
-0.000898186

> <r_i_glide_evdw>
-25.7529

> <r_i_glide_gscore>
-3.11089

> <r_i_glide_hbond>
0

> <r_i_glide_ligand_efficiency>
-0.0818656

> <r_i_glide_ligand_efficiency_ln>
-0.6708

> <r_i_glide_ligand_efficiency_sa>
-0.27523

> <r_i_glide_lipo>
-1.86554

> <r_i_glide_metal>
0

> <r_i_glide_rewards>
-0.351851

> <s_i_glide_gridfile>
wee1_glide-grid

> <s_m_Source_File>
wee1_decoys_glide_SP.sdf

> <s_m_Source_Path>
/Users/zhangxujun/Desktop

> <s_m_entry_id>
770

> <s_m_entry_name>
wee1_decoys_glide_SP.495

> <s_m_subgroup_title>
wee1_decoys_glide_SP

> <s_m_subgroupid>
wee1_decoys_glide_SP


$$$$
