ZINC15732081_3217
                    3D
 Schrodinger Suite 2024-2.
 55 58  0  0  1  0            999 V2000
    1.4953   50.3455   22.5736 C   0  0  0  0  0  0
    1.7784   49.3395   21.6525 C   0  0  0  0  0  0
    0.8889   49.0415   20.6163 C   0  0  0  0  0  0
   -0.3290   49.7619   20.5099 C   0  0  0  0  0  0
   -0.5880   50.7745   21.4353 C   0  0  0  0  0  0
    0.3113   51.0699   22.4626 C   0  0  0  0  0  0
   -0.0742   52.3601   23.6398 S   0  0  0  0  0  0
   -1.3920   52.8965   23.2818 O   0  0  0  0  0  0
    0.1787   51.8086   24.9750 O   0  0  0  0  0  0
    1.1048   53.6596   23.3231 N   0  0  0  0  0  0
    2.3185   53.7565   24.0131 C   0  0  0  0  0  0
    3.5168   53.9414   23.3209 C   0  0  0  0  0  0
    4.7304   54.0967   24.0160 C   0  0  0  0  0  0
    4.7095   54.0968   25.4189 C   0  0  0  0  0  0
    3.5141   53.9331   26.1155 C   0  0  0  0  0  0
    2.3282   53.7593   25.4066 C   0  0  0  0  0  0
    3.5368   53.9761   27.8906 S   0  0  0  0  0  0
    1.8554   53.6694   28.5253 C   0  0  0  0  0  0
    1.4378   52.1901   28.3409 C   0  0  0  0  0  0
    0.0263   51.9332   28.8997 C   0  0  0  0  0  0
   -0.0790   52.3595   30.3766 C   0  0  0  0  0  0
    0.3650   53.8215   30.5880 C   0  0  0  0  0  0
    1.7679   54.0827   30.0041 C   0  0  0  0  0  0
    6.0084   54.2444   23.2821 N   0  3  0  0  0  0
    7.0550   54.0960   23.9068 O   0  0  0  0  0  0
    5.9668   54.4978   22.0825 O   0  5  0  0  0  0
   -1.2699   49.5052   19.4930 N   0  0  0  0  0  0
   -1.1081   49.3061   18.1710 C   0  0  0  0  0  0
   -1.9961   48.8726   17.4407 O   0  0  0  0  0  0
    0.3039   49.6254   17.6564 C   0  0  0  0  0  0
    1.2970   48.4680   17.8694 C   0  0  0  0  0  0
    1.2816   47.6973   19.5223 S   0  0  0  0  0  0
    2.1914   50.5563   23.3717 H   0  0  0  0  0  0
    2.6961   48.7769   21.7525 H   0  0  0  0  0  0
   -1.5074   51.3322   21.3510 H   0  0  0  0  0  0
    1.0982   53.9993   22.3716 H   0  0  0  0  0  0
    3.5048   53.9581   22.2391 H   0  0  0  0  0  0
    5.6261   54.2146   25.9780 H   0  0  0  0  0  0
    1.3899   53.6822   25.9229 H   0  0  0  0  0  0
    1.1811   54.3227   27.9708 H   0  0  0  0  0  0
    1.4743   51.8887   27.2948 H   0  0  0  0  0  0
    2.1457   51.5410   28.8571 H   0  0  0  0  0  0
   -0.7091   52.4779   28.3047 H   0  0  0  0  0  0
   -0.2306   50.8803   28.7981 H   0  0  0  0  0  0
   -1.0949   52.2075   30.7382 H   0  0  0  0  0  0
    0.5409   51.7001   30.9849 H   0  0  0  0  0  0
   -0.3559   54.4886   30.1120 H   0  0  0  0  0  0
    0.3451   54.0633   31.6531 H   0  0  0  0  0  0
    2.5026   53.5128   30.5743 H   0  0  0  0  0  0
    2.0228   55.1369   30.1164 H   0  0  0  0  0  0
   -2.1985   49.2611   19.8028 H   0  0  0  0  0  0
    0.2434   49.9087   16.6060 H   0  0  0  0  0  0
    0.6696   50.4742   18.2362 H   0  0  0  0  0  0
    1.1274   47.6837   17.1314 H   0  0  0  0  0  0
    2.3044   48.8304   17.6655 H   0  0  0  0  0  0
  1  6  2  0  0  0
  1  2  1  0  0  0
  1 33  1  0  0  0
  2  3  2  0  0  0
  2 34  1  0  0  0
  3 32  1  0  0  0
  3  4  1  0  0  0
  4  5  2  0  0  0
  4 27  1  0  0  0
  5  6  1  0  0  0
  5 35  1  0  0  0
  6  7  1  0  0  0
  7  8  2  0  0  0
  7  9  2  0  0  0
  7 10  1  0  0  0
 10 11  1  0  0  0
 10 36  1  0  0  0
 11 16  2  0  0  0
 11 12  1  0  0  0
 12 13  2  0  0  0
 12 37  1  0  0  0
 13 14  1  0  0  0
 13 24  1  0  0  0
 14 15  2  0  0  0
 14 38  1  0  0  0
 15 16  1  0  0  0
 15 17  1  0  0  0
 16 39  1  0  0  0
 17 18  1  0  0  0
 18 23  1  0  0  0
 18 19  1  0  0  0
 18 40  1  0  0  0
 19 20  1  0  0  0
 19 41  1  0  0  0
 19 42  1  0  0  0
 20 21  1  0  0  0
 20 43  1  0  0  0
 20 44  1  0  0  0
 21 22  1  0  0  0
 21 45  1  0  0  0
 21 46  1  0  0  0
 22 23  1  0  0  0
 22 47  1  0  0  0
 22 48  1  0  0  0
 23 49  1  0  0  0
 23 50  1  0  0  0
 24 25  2  0  0  0
 24 26  1  0  0  0
 27 28  1  0  0  0
 27 51  1  0  0  0
 28 29  2  0  0  0
 28 30  1  0  0  0
 30 31  1  0  0  0
 30 52  1  0  0  0
 30 53  1  0  0  0
 31 32  1  0  0  0
 31 54  1  0  0  0
 31 55  1  0  0  0
M  CHG  2  24   1  26  -1
M  END
> <i_i_glide_confnum>
48

> <i_i_glide_lignum>
3218

> <i_i_glide_posenum>
9

> <i_i_glide_rotatable_bonds>
6

> <i_m_Source_File_Index>
183

> <b_m_subgroup_collapsed>
0

> <r_i_docking_score>
-4.83427

> <r_i_glide_ecoul>
-2.18774

> <r_i_glide_eff_state_penalty>
0

> <r_i_glide_einternal>
6.05362

> <r_i_glide_emodel>
-58.804

> <r_i_glide_energy>
-48.0581

> <r_i_glide_erotb>
0.418053

> <r_i_glide_esite>
-0.00217889

> <r_i_glide_evdw>
-45.8703

> <r_i_glide_gscore>
-4.83427

> <r_i_glide_hbond>
0

> <r_i_glide_ligand_efficiency>
-0.151071

> <r_i_glide_ligand_efficiency_ln>
-1.08252

> <r_i_glide_ligand_efficiency_sa>
-0.47962

> <r_i_glide_lipo>
-2.48263

> <r_i_glide_metal>
0

> <r_i_glide_rewards>
-0.145829

> <s_i_glide_gridfile>
wee1_glide-grid

> <s_m_Source_File>
wee1_decoys_glide_SP.sdf

> <s_m_Source_Path>
/Users/zhangxujun/Desktop

> <s_m_entry_id>
458

> <s_m_entry_name>
wee1_decoys_glide_SP.183

> <s_m_subgroup_title>
wee1_decoys_glide_SP

> <s_m_subgroupid>
wee1_decoys_glide_SP


$$$$
