ZINC39665956_3070
                    3D
 Schrodinger Suite 2024-2.
 69 72  0  0  1  0            999 V2000
   10.2339   50.0435   15.1137 C   0  0  0  0  0  0
    9.0805   51.0167   15.2904 C   0  0  0  0  0  0
    8.3348   51.4203   14.1831 C   0  0  0  0  0  0
    7.2506   52.2813   14.3514 C   0  0  0  0  0  0
    6.8917   52.7446   15.6182 C   0  0  0  0  0  0
    7.6419   52.3250   16.7277 C   0  0  0  0  0  0
    8.7315   51.4719   16.5617 C   0  0  0  0  0  0
    5.7932   53.5890   15.6684 O   0  0  0  0  0  0
    5.3575   54.1995   16.8902 C   0  0  1  0  0  0
    6.1461   54.2672   17.6389 H   0  0  0  0  0  0
    4.9997   55.6530   16.5354 C   0  0  0  0  0  0
    4.1354   53.4219   17.4501 C   0  0  0  0  0  0
    3.7349   53.7861   18.8195 N   0  0  0  0  0  0
    4.4182   53.4326   19.9208 C   0  0  0  0  0  0
    5.5039   52.8581   19.8599 O   0  0  0  0  0  0
    3.8185   53.8482   21.2881 C   0  0  2  0  0  0
    3.2252   54.7529   21.1714 H   0  0  0  0  0  0
    4.9718   54.1554   22.2647 C   0  0  0  0  0  0
    4.3723   53.9655   23.5846 N   0  0  0  0  0  0
    3.1040   53.2306   23.4811 C   0  0  0  0  0  0
    2.9774   52.7517   22.0103 C   0  0  0  0  0  0
    3.5040   51.2953   21.7812 C   0  0  0  0  0  0
    2.7030   50.2146   22.5576 C   0  0  0  0  0  0
    1.2178   50.3131   22.1571 N   0  3  0  0  0  0
    0.6385   51.7330   22.3364 C   0  0  0  0  0  0
    1.5110   52.7083   21.5235 C   0  0  0  0  0  0
    5.0095   54.3823   24.7177 C   0  0  0  0  0  0
    6.0999   54.9582   24.6672 O   0  0  0  0  0  0
    4.4314   54.0578   26.0848 C   0  0  0  0  0  0
    3.0561   54.0963   26.3551 C   0  0  0  0  0  0
    2.5630   53.7068   27.5944 C   0  0  0  0  0  0
    3.4368   53.2784   28.5943 C   0  0  0  0  0  0
    4.8147   53.2989   28.3587 C   0  0  0  0  0  0
    5.3061   53.6967   27.1195 C   0  0  0  0  0  0
    2.8682   52.7759   29.9179 C   0  0  0  0  0  0
    2.1266   51.6986   29.6854 F   0  0  0  0  0  0
    3.8172   52.4501   30.7981 F   0  0  0  0  0  0
    2.0842   53.7052   30.4617 F   0  0  0  0  0  0
   10.4451   49.4993   16.0350 H   0  0  0  0  0  0
   11.1355   50.5635   14.7882 H   0  0  0  0  0  0
    9.9851   49.2910   14.3634 H   0  0  0  0  0  0
    8.5886   51.0606   13.1967 H   0  0  0  0  0  0
    6.6754   52.5892   13.4918 H   0  0  0  0  0  0
    7.3852   52.6176   17.7306 H   0  0  0  0  0  0
    9.2876   51.1489   17.4299 H   0  0  0  0  0  0
    4.6535   56.2046   17.4106 H   0  0  0  0  0  0
    5.8704   56.1779   16.1400 H   0  0  0  0  0  0
    4.2163   55.6978   15.7777 H   0  0  0  0  0  0
    3.2803   53.5740   16.7895 H   0  0  0  0  0  0
    4.3163   52.3459   17.4042 H   0  0  0  0  0  0
    2.8737   54.3035   18.9326 H   0  0  0  0  0  0
    5.7610   53.4021   22.2027 H   0  0  0  0  0  0
    5.3970   55.1461   22.1012 H   0  0  0  0  0  0
    2.3233   53.9830   23.5985 H   0  0  0  0  0  0
    2.9215   52.4556   24.2220 H   0  0  0  0  0  0
    3.5102   51.0375   20.7213 H   0  0  0  0  0  0
    4.5521   51.2493   22.0724 H   0  0  0  0  0  0
    3.0108   49.1986   22.3043 H   0  0  0  0  0  0
    2.7000   50.3196   23.6418 H   0  0  0  0  0  0
    1.1289   50.0362   21.1881 H   0  0  0  0  0  0
   -0.3898   51.6939   21.9742 H   0  0  0  0  0  0
    0.6330   51.9411   23.4085 H   0  0  0  0  0  0
    1.0925   53.6976   21.6769 H   0  0  0  0  0  0
    1.4466   52.5163   20.4501 H   0  0  0  0  0  0
    2.3461   54.4338   25.6174 H   0  0  0  0  0  0
    1.4956   53.7196   27.7725 H   0  0  0  0  0  0
    5.5117   52.9794   29.1178 H   0  0  0  0  0  0
    6.3750   53.6681   26.9547 H   0  0  0  0  0  0
    0.6795   49.6514   22.7017 H   0  0  0  0  0  0
  1  2  1  0  0  0
  1 39  1  0  0  0
  1 40  1  0  0  0
  1 41  1  0  0  0
  2  7  2  0  0  0
  2  3  1  0  0  0
  3  4  2  0  0  0
  3 42  1  0  0  0
  4  5  1  0  0  0
  4 43  1  0  0  0
  5  6  2  0  0  0
  5  8  1  0  0  0
  6  7  1  0  0  0
  6 44  1  0  0  0
  7 45  1  0  0  0
  8  9  1  0  0  0
  9 10  1  0  0  0
  9 11  1  0  0  0
  9 12  1  0  0  0
 11 46  1  0  0  0
 11 47  1  0  0  0
 11 48  1  0  0  0
 12 13  1  0  0  0
 12 49  1  0  0  0
 12 50  1  0  0  0
 13 14  1  0  0  0
 13 51  1  0  0  0
 14 15  2  0  0  0
 14 16  1  0  0  0
 16 17  1  0  0  0
 16 21  1  0  0  0
 16 18  1  0  0  0
 18 19  1  0  0  0
 18 52  1  0  0  0
 18 53  1  0  0  0
 19 20  1  0  0  0
 19 27  1  0  0  0
 20 21  1  0  0  0
 20 54  1  0  0  0
 20 55  1  0  0  0
 21 26  1  0  0  0
 21 22  1  0  0  0
 22 23  1  0  0  0
 22 56  1  0  0  0
 22 57  1  0  0  0
 23 24  1  0  0  0
 23 58  1  0  0  0
 23 59  1  0  0  0
 24 25  1  0  0  0
 24 60  1  0  0  0
 24 69  1  0  0  0
 25 26  1  0  0  0
 25 61  1  0  0  0
 25 62  1  0  0  0
 26 63  1  0  0  0
 26 64  1  0  0  0
 27 28  2  0  0  0
 27 29  1  0  0  0
 29 34  2  0  0  0
 29 30  1  0  0  0
 30 31  2  0  0  0
 30 65  1  0  0  0
 31 32  1  0  0  0
 31 66  1  0  0  0
 32 33  2  0  0  0
 32 35  1  0  0  0
 33 34  1  0  0  0
 33 67  1  0  0  0
 34 68  1  0  0  0
 35 36  1  0  0  0
 35 37  1  0  0  0
 35 38  1  0  0  0
M  CHG  1  24   1
M  END
> <i_i_glide_confnum>
128

> <i_i_glide_lignum>
3071

> <i_i_glide_posenum>
217

> <i_i_glide_rotatable_bonds>
9

> <i_m_Source_File_Index>
3127

> <b_m_subgroup_collapsed>
0

> <r_i_docking_score>
-5.60149

> <r_i_glide_ecoul>
-5.59806

> <r_i_glide_eff_state_penalty>
0

> <r_i_glide_einternal>
7.01925

> <r_i_glide_emodel>
-56.6259

> <r_i_glide_energy>
-42.9548

> <r_i_glide_erotb>
0.642535

> <r_i_glide_esite>
-0.0482115

> <r_i_glide_evdw>
-37.3568

> <r_i_glide_gscore>
-5.60149

> <r_i_glide_hbond>
-0.275679

> <r_i_glide_ligand_efficiency>
-0.155597

> <r_i_glide_ligand_efficiency_ln>
-1.22209

> <r_i_glide_ligand_efficiency_sa>
-0.51377

> <r_i_glide_lipo>
-2.38581

> <r_i_glide_metal>
0

> <r_i_glide_rewards>
-0.826779

> <s_i_glide_gridfile>
wee1_glide-grid

> <s_m_Source_File>
wee1_decoys_glide_SP.sdf

> <s_m_Source_Path>
/Users/zhangxujun/Desktop

> <s_m_entry_id>
3402

> <s_m_entry_name>
wee1_decoys_glide_SP.3127

> <s_m_subgroup_title>
wee1_decoys_glide_SP

> <s_m_subgroupid>
wee1_decoys_glide_SP


$$$$
