ZINC30827598_4034
                    3D
 Schrodinger Suite 2024-2.
 63 67  0  0  1  0            999 V2000
    0.9346   52.1207   29.4045 C   0  0  0  0  0  0
    0.1932   53.0715   30.1034 C   0  0  0  0  0  0
    0.6581   54.3839   30.1995 C   0  0  0  0  0  0
    1.8670   54.7499   29.6070 C   0  0  0  0  0  0
    2.6431   53.7855   28.9481 C   0  0  0  0  0  0
    2.1594   52.4722   28.8403 C   0  0  0  0  0  0
    3.9817   54.1458   28.3546 C   0  0  0  0  0  0
    4.8693   54.4970   29.1337 O   0  0  0  0  0  0
    4.1689   54.0207   27.0093 N   0  0  0  0  0  0
    5.5508   54.0971   26.4944 C   0  0  0  0  0  0
    5.6057   54.6268   25.0427 C   0  0  0  0  0  0
    4.5807   54.0965   24.1342 N   0  0  0  0  0  0
    3.2426   54.2171   24.7192 C   0  0  0  0  0  0
    3.0800   53.5879   26.1138 C   0  0  0  0  0  0
    4.7624   53.9427   22.7619 C   0  0  0  0  0  0
    5.7447   54.6600   22.0664 C   0  0  0  0  0  0
    5.9027   54.4973   20.6934 C   0  0  0  0  0  0
    5.1047   53.5750   20.0046 C   0  0  0  0  0  0
    4.1442   52.8366   20.6891 C   0  0  0  0  0  0
    3.9627   53.0363   22.0530 C   0  0  0  0  0  0
    5.2728   53.2970   18.6420 N   0  0  0  0  0  0
    5.5650   54.1813   17.6690 C   0  0  0  0  0  0
    5.7194   55.3918   17.8539 O   0  0  0  0  0  0
    5.6771   53.5634   16.3693 C   0  0  0  0  0  0
    5.9071   54.2836   15.2518 C   0  0  0  0  0  0
    6.0360   53.7708   13.9059 C   0  0  0  0  0  0
    6.2493   54.4018   12.6907 C   0  0  0  0  0  0
    6.2929   53.4108   11.7126 C   0  0  0  0  0  0
    6.1076   52.1960   12.3578 C   0  0  0  0  0  0
    5.9516   52.4293   13.6899 O   0  0  0  0  0  0
    6.0519   50.7825   11.8846 C   0  0  0  0  0  0
    5.9575   49.7160   12.7868 C   0  0  0  0  0  0
    5.9243   48.4042   12.3170 C   0  0  0  0  0  0
    5.9698   48.1626   10.9462 C   0  0  0  0  0  0
    6.0478   49.2168   10.0420 C   0  0  0  0  0  0
    6.0940   50.5253   10.5113 C   0  0  0  0  0  0
    5.9421   46.8951   10.4817 F   0  0  0  0  0  0
    2.2709   56.0404   29.6819 F   0  0  0  0  0  0
    0.5629   51.1108   29.3038 H   0  0  0  0  0  0
   -0.7420   52.7886   30.5662 H   0  0  0  0  0  0
    0.0767   55.1227   30.7304 H   0  0  0  0  0  0
    2.7325   51.7142   28.3240 H   0  0  0  0  0  0
    5.9391   53.0782   26.4661 H   0  0  0  0  0  0
    6.2038   54.7278   27.1009 H   0  0  0  0  0  0
    6.6029   54.4606   24.6341 H   0  0  0  0  0  0
    5.4343   55.7038   25.0690 H   0  0  0  0  0  0
    3.0821   55.2924   24.8061 H   0  0  0  0  0  0
    2.4610   53.8589   24.0494 H   0  0  0  0  0  0
    2.0973   53.9003   26.4697 H   0  0  0  0  0  0
    3.1081   52.5048   25.9857 H   0  0  0  0  0  0
    6.3830   55.3636   22.5794 H   0  0  0  0  0  0
    6.6693   55.0592   20.1808 H   0  0  0  0  0  0
    3.5333   52.1128   20.1684 H   0  0  0  0  0  0
    3.2099   52.4527   22.5602 H   0  0  0  0  0  0
    5.1052   52.3329   18.3664 H   0  0  0  0  0  0
    5.5657   52.4872   16.3203 H   0  0  0  0  0  0
    6.0127   55.3594   15.3093 H   0  0  0  0  0  0
    6.3618   55.4647   12.5335 H   0  0  0  0  0  0
    6.4475   53.5633   10.6548 H   0  0  0  0  0  0
    5.9083   49.8986   13.8509 H   0  0  0  0  0  0
    5.8666   47.5778   13.0109 H   0  0  0  0  0  0
    6.0692   49.0228    8.9802 H   0  0  0  0  0  0
    6.1584   51.3359    9.8006 H   0  0  0  0  0  0
  1  6  2  0  0  0
  1  2  1  0  0  0
  1 39  1  0  0  0
  2  3  2  0  0  0
  2 40  1  0  0  0
  3  4  1  0  0  0
  3 41  1  0  0  0
  4  5  2  0  0  0
  4 38  1  0  0  0
  5  6  1  0  0  0
  5  7  1  0  0  0
  6 42  1  0  0  0
  7  8  2  0  0  0
  7  9  1  0  0  0
  9 14  1  0  0  0
  9 10  1  0  0  0
 10 11  1  0  0  0
 10 43  1  0  0  0
 10 44  1  0  0  0
 11 12  1  0  0  0
 11 45  1  0  0  0
 11 46  1  0  0  0
 12 13  1  0  0  0
 12 15  1  0  0  0
 13 14  1  0  0  0
 13 47  1  0  0  0
 13 48  1  0  0  0
 14 49  1  0  0  0
 14 50  1  0  0  0
 15 20  2  0  0  0
 15 16  1  0  0  0
 16 17  2  0  0  0
 16 51  1  0  0  0
 17 18  1  0  0  0
 17 52  1  0  0  0
 18 19  2  0  0  0
 18 21  1  0  0  0
 19 20  1  0  0  0
 19 53  1  0  0  0
 20 54  1  0  0  0
 21 22  1  0  0  0
 21 55  1  0  0  0
 22 23  2  0  0  0
 22 24  1  0  0  0
 24 25  2  0  0  0
 24 56  1  0  0  0
 25 26  1  0  0  0
 25 57  1  0  0  0
 26 30  1  0  0  0
 26 27  2  0  0  0
 27 28  1  0  0  0
 27 58  1  0  0  0
 28 29  2  0  0  0
 28 59  1  0  0  0
 29 30  1  0  0  0
 29 31  1  0  0  0
 31 36  2  0  0  0
 31 32  1  0  0  0
 32 33  2  0  0  0
 32 60  1  0  0  0
 33 34  1  0  0  0
 33 61  1  0  0  0
 34 35  2  0  0  0
 34 37  1  0  0  0
 35 36  1  0  0  0
 35 62  1  0  0  0
 36 63  1  0  0  0
M  END
> <i_i_glide_confnum>
189

> <i_i_glide_lignum>
4035

> <i_i_glide_posenum>
44

> <i_i_glide_rotatable_bonds>
8

> <i_m_Source_File_Index>
3134

> <b_m_subgroup_collapsed>
0

> <r_i_docking_score>
-6.60785

> <r_i_glide_ecoul>
-3.78783

> <r_i_glide_eff_state_penalty>
0

> <r_i_glide_einternal>
5.20561

> <r_i_glide_emodel>
-70.0102

> <r_i_glide_energy>
-51.2626

> <r_i_glide_erotb>
0.622082

> <r_i_glide_esite>
-0.197634

> <r_i_glide_evdw>
-47.4748

> <r_i_glide_gscore>
-6.60785

> <r_i_glide_hbond>
-0.16

> <r_i_glide_ligand_efficiency>
-0.173891

> <r_i_glide_ligand_efficiency_ln>
-1.42485

> <r_i_glide_ligand_efficiency_sa>
-0.584616

> <r_i_glide_lipo>
-2.77781

> <r_i_glide_metal>
0

> <r_i_glide_rewards>
-1.15257

> <s_i_glide_gridfile>
wee1_glide-grid

> <s_m_Source_File>
wee1_decoys_glide_SP.sdf

> <s_m_Source_Path>
/Users/zhangxujun/Desktop

> <s_m_entry_id>
3409

> <s_m_entry_name>
wee1_decoys_glide_SP.3134

> <s_m_subgroup_title>
wee1_decoys_glide_SP

> <s_m_subgroupid>
wee1_decoys_glide_SP


$$$$
