ZINC02258993_2945
                    3D
 Schrodinger Suite 2024-2.
 47 48  0  0  1  0            999 V2000
    0.6986   50.2724   24.7397 C   0  0  0  0  0  0
    1.0104   50.6248   23.2982 C   0  0  0  0  0  0
    1.6532   49.6987   22.4751 C   0  0  0  0  0  0
    1.9180   50.0119   21.1449 C   0  0  0  0  0  0
    1.5390   51.2575   20.6426 C   0  0  0  0  0  0
    0.9303   52.1992   21.4717 C   0  0  0  0  0  0
    0.6535   51.8790   22.7980 C   0  0  0  0  0  0
    1.8182   51.6313   18.9152 S   0  0  0  0  0  0
    1.0000   52.7978   18.5640 O   0  0  0  0  0  0
    1.6654   50.3677   18.1865 O   0  0  0  0  0  0
    3.5042   52.0969   18.8276 N   0  0  0  0  0  0
    3.9902   53.3962   19.3312 C   0  0  2  0  0  0
    3.1045   54.0063   19.5276 H   0  0  0  0  0  0
    4.7890   54.1759   18.2474 C   0  0  0  0  0  0
    5.2384   55.7931   18.8675 Cl  0  0  0  0  0  0
    6.2824   53.2979   17.8055 Cl  0  0  0  0  0  0
    3.7891   54.4064   16.7835 Cl  0  0  0  0  0  0
    4.7633   53.1924   20.5676 N   0  0  0  0  0  0
    4.5086   53.8077   21.7376 C   0  0  0  0  0  0
    3.5054   54.4967   21.8932 O   0  0  0  0  0  0
    5.5365   53.6681   22.8815 C   0  0  0  0  0  0
    5.3195   54.6922   23.8633 O   0  0  0  0  0  0
    5.0732   54.3246   25.1696 C   0  0  0  0  0  0
    6.1401   54.2919   26.0731 C   0  0  0  0  0  0
    5.9167   54.0265   27.4273 C   0  0  0  0  0  0
    4.6186   53.7968   27.8874 C   0  0  0  0  0  0
    3.5540   53.8263   26.9931 C   0  0  0  0  0  0
    3.7686   54.0965   25.6401 C   0  0  0  0  0  0
    2.5658   54.1534   24.7187 C   0  0  0  0  0  0
    4.3046   53.4952   29.5586 Cl  0  0  0  0  0  0
    1.1570   49.3294   25.0452 H   0  0  0  0  0  0
    1.0546   51.0573   25.4074 H   0  0  0  0  0  0
   -0.3795   50.1931   24.8814 H   0  0  0  0  0  0
    1.9308   48.7311   22.8620 H   0  0  0  0  0  0
    2.4020   49.2852   20.5055 H   0  0  0  0  0  0
    0.6695   53.1752   21.0885 H   0  0  0  0  0  0
    0.1678   52.6044   23.4321 H   0  0  0  0  0  0
    4.1956   51.3926   18.5055 H   0  0  0  0  0  0
    5.6158   52.6681   20.4582 H   0  0  0  0  0  0
    6.5394   53.8167   22.4801 H   0  0  0  0  0  0
    5.5044   52.6597   23.2829 H   0  0  0  0  0  0
    7.1406   54.4903   25.7201 H   0  0  0  0  0  0
    6.7460   54.0123   28.1195 H   0  0  0  0  0  0
    2.5529   53.6515   27.3610 H   0  0  0  0  0  0
    1.6188   54.0899   25.2569 H   0  0  0  0  0  0
    2.5641   55.0906   24.1631 H   0  0  0  0  0  0
    2.6135   53.3322   24.0068 H   0  0  0  0  0  0
  1  2  1  0  0  0
  1 31  1  0  0  0
  1 32  1  0  0  0
  1 33  1  0  0  0
  2  7  2  0  0  0
  2  3  1  0  0  0
  3  4  2  0  0  0
  3 34  1  0  0  0
  4  5  1  0  0  0
  4 35  1  0  0  0
  5  6  2  0  0  0
  5  8  1  0  0  0
  6  7  1  0  0  0
  6 36  1  0  0  0
  7 37  1  0  0  0
  8  9  2  0  0  0
  8 10  2  0  0  0
  8 11  1  0  0  0
 11 12  1  0  0  0
 11 38  1  0  0  0
 12 13  1  0  0  0
 12 14  1  0  0  0
 12 18  1  0  0  0
 14 15  1  0  0  0
 14 16  1  0  0  0
 14 17  1  0  0  0
 18 19  1  0  0  0
 18 39  1  0  0  0
 19 20  2  0  0  0
 19 21  1  0  0  0
 21 22  1  0  0  0
 21 40  1  0  0  0
 21 41  1  0  0  0
 22 23  1  0  0  0
 23 28  2  0  0  0
 23 24  1  0  0  0
 24 25  2  0  0  0
 24 42  1  0  0  0
 25 26  1  0  0  0
 25 43  1  0  0  0
 26 27  2  0  0  0
 26 30  1  0  0  0
 27 28  1  0  0  0
 27 44  1  0  0  0
 28 29  1  0  0  0
 29 45  1  0  0  0
 29 46  1  0  0  0
 29 47  1  0  0  0
M  END
> <i_i_glide_confnum>
172

> <i_i_glide_lignum>
2946

> <i_i_glide_posenum>
368

> <i_i_glide_rotatable_bonds>
9

> <i_m_Source_File_Index>
1564

> <b_m_subgroup_collapsed>
0

> <r_i_docking_score>
-4.95888

> <r_i_glide_ecoul>
-3.19286

> <r_i_glide_eff_state_penalty>
0

> <r_i_glide_einternal>
14.6159

> <r_i_glide_emodel>
-46.553

> <r_i_glide_energy>
-40.2344

> <r_i_glide_erotb>
0.652799

> <r_i_glide_esite>
-0.259764

> <r_i_glide_evdw>
-37.0416

> <r_i_glide_gscore>
-4.95888

> <r_i_glide_hbond>
-0.16

> <r_i_glide_ligand_efficiency>
-0.170996

> <r_i_glide_ligand_efficiency_ln>
-1.13546

> <r_i_glide_ligand_efficiency_sa>
-0.525354

> <r_i_glide_lipo>
-2.62342

> <r_i_glide_metal>
0

> <r_i_glide_rewards>
-0.23749

> <s_i_glide_gridfile>
wee1_glide-grid

> <s_m_Source_File>
wee1_decoys_glide_SP.sdf

> <s_m_Source_Path>
/Users/zhangxujun/Desktop

> <s_m_entry_id>
1839

> <s_m_entry_name>
wee1_decoys_glide_SP.1564

> <s_m_subgroup_title>
wee1_decoys_glide_SP

> <s_m_subgroupid>
wee1_decoys_glide_SP


$$$$
