ZINC14742864_3716
                    3D
 Schrodinger Suite 2024-2.
 56 59  0  0  1  0            999 V2000
    0.3226   50.9813   18.3502 C   0  0  0  0  0  0
   -0.7971   50.3142   19.0446 N   0  0  0  0  0  0
   -1.7739   51.1767   20.2288 S   0  0  0  0  0  0
   -2.8452   50.2665   20.6464 O   0  0  0  0  0  0
   -2.0952   52.4964   19.6761 O   0  0  0  0  0  0
   -0.7028   51.4353   21.6486 C   0  0  0  0  0  0
    0.4969   52.1491   21.5203 C   0  0  0  0  0  0
    1.3458   52.3012   22.6265 C   0  0  0  0  0  0
    0.9955   51.6859   23.8307 C   0  0  0  0  0  0
   -0.2396   51.0645   24.0091 C   0  0  0  0  0  0
   -1.0788   50.9321   22.9011 C   0  0  0  0  0  0
   -0.6805   50.5728   25.2519 N   0  0  0  0  0  0
    0.1906   50.4036   26.4188 C   0  0  0  0  0  0
    0.4454   51.6186   27.3096 C   0  0  0  0  0  0
   -0.0331   51.8269   28.5944 C   0  0  0  0  0  0
    0.4193   53.0199   29.2179 C   0  0  0  0  0  0
    0.1593   53.5205   30.5021 C   0  0  0  0  0  0
    0.7040   54.7463   30.8817 C   0  0  0  0  0  0
    1.5045   55.4845   30.0187 C   0  0  0  0  0  0
    1.8067   55.0080   28.7479 C   0  0  0  0  0  0
    1.2617   53.7751   28.3619 C   0  0  0  0  0  0
    1.5023   52.9476   26.8467 S   0  0  0  0  0  0
    2.5727   53.1780   22.6057 C   0  0  0  0  0  0
    2.8244   53.8691   23.5967 O   0  0  0  0  0  0
    3.3417   53.1383   21.4962 N   0  0  0  0  0  0
    4.5434   53.8445   21.2915 C   0  0  0  0  0  0
    5.4322   54.1628   22.3303 C   0  0  0  0  0  0
    6.5826   54.8974   22.0633 C   0  0  0  0  0  0
    6.8800   55.2968   20.7610 C   0  0  0  0  0  0
    6.0086   54.9464   19.7177 C   0  0  0  0  0  0
    4.8495   54.2198   19.9830 C   0  0  0  0  0  0
    8.0525   56.0046   20.5937 O   0  0  0  0  0  0
    8.5256   56.2680   19.2771 C   0  0  0  0  0  0
    0.1096   52.0415   18.2065 H   0  0  0  0  0  0
    1.2334   50.8767   18.9407 H   0  0  0  0  0  0
    0.4953   50.5017   17.3858 H   0  0  0  0  0  0
   -0.7205   49.3025   19.1785 H   0  0  0  0  0  0
    0.7421   52.6164   20.5763 H   0  0  0  0  0  0
    1.6962   51.7240   24.6419 H   0  0  0  0  0  0
   -2.0263   50.4254   23.0143 H   0  0  0  0  0  0
   -1.4521   49.9214   25.2165 H   0  0  0  0  0  0
   -0.3432   49.6965   27.0473 H   0  0  0  0  0  0
    1.1043   49.8896   26.1297 H   0  0  0  0  0  0
   -0.6866   51.1224   29.0903 H   0  0  0  0  0  0
   -0.4579   52.9603   31.1933 H   0  0  0  0  0  0
    0.5067   55.1283   31.8723 H   0  0  0  0  0  0
    1.9034   56.4354   30.3451 H   0  0  0  0  0  0
    2.4415   55.5727   28.0803 H   0  0  0  0  0  0
    2.9979   52.6124   20.7081 H   0  0  0  0  0  0
    5.2455   53.8548   23.3481 H   0  0  0  0  0  0
    7.2593   55.1480   22.8677 H   0  0  0  0  0  0
    6.2126   55.2311   18.6972 H   0  0  0  0  0  0
    4.1847   53.9689   19.1685 H   0  0  0  0  0  0
    9.4937   56.7661   19.3359 H   0  0  0  0  0  0
    7.8478   56.9268   18.7323 H   0  0  0  0  0  0
    8.6650   55.3461   18.7098 H   0  0  0  0  0  0
  1  2  1  0  0  0
  1 34  1  0  0  0
  1 35  1  0  0  0
  1 36  1  0  0  0
  2  3  1  0  0  0
  2 37  1  0  0  0
  3  4  2  0  0  0
  3  5  2  0  0  0
  3  6  1  0  0  0
  6 11  2  0  0  0
  6  7  1  0  0  0
  7  8  2  0  0  0
  7 38  1  0  0  0
  8  9  1  0  0  0
  8 23  1  0  0  0
  9 10  2  0  0  0
  9 39  1  0  0  0
 10 11  1  0  0  0
 10 12  1  0  0  0
 11 40  1  0  0  0
 12 13  1  0  0  0
 12 41  1  0  0  0
 13 14  1  0  0  0
 13 42  1  0  0  0
 13 43  1  0  0  0
 14 22  1  0  0  0
 14 15  2  0  0  0
 15 16  1  0  0  0
 15 44  1  0  0  0
 16 21  2  0  0  0
 16 17  1  0  0  0
 17 18  2  0  0  0
 17 45  1  0  0  0
 18 19  1  0  0  0
 18 46  1  0  0  0
 19 20  2  0  0  0
 19 47  1  0  0  0
 20 21  1  0  0  0
 20 48  1  0  0  0
 21 22  1  0  0  0
 23 24  2  0  0  0
 23 25  1  0  0  0
 25 26  1  0  0  0
 25 49  1  0  0  0
 26 31  2  0  0  0
 26 27  1  0  0  0
 27 28  2  0  0  0
 27 50  1  0  0  0
 28 29  1  0  0  0
 28 51  1  0  0  0
 29 30  2  0  0  0
 29 32  1  0  0  0
 30 31  1  0  0  0
 30 52  1  0  0  0
 31 53  1  0  0  0
 32 33  1  0  0  0
 33 54  1  0  0  0
 33 55  1  0  0  0
 33 56  1  0  0  0
M  END
> <i_i_glide_confnum>
4

> <i_i_glide_lignum>
3717

> <i_i_glide_posenum>
385

> <i_i_glide_rotatable_bonds>
9

> <i_m_Source_File_Index>
3404

> <b_m_subgroup_collapsed>
0

> <r_i_docking_score>
-5.41456

> <r_i_glide_ecoul>
-10.6054

> <r_i_glide_eff_state_penalty>
0

> <r_i_glide_einternal>
1.77244

> <r_i_glide_emodel>
-68.9177

> <r_i_glide_energy>
-54.2358

> <r_i_glide_erotb>
0.61231

> <r_i_glide_esite>
-0.0934379

> <r_i_glide_evdw>
-43.6303

> <r_i_glide_gscore>
-5.41456

> <r_i_glide_hbond>
-0.0424668

> <r_i_glide_ligand_efficiency>
-0.164078

> <r_i_glide_ligand_efficiency_ln>
-1.20417

> <r_i_glide_ligand_efficiency_sa>
-0.526285

> <r_i_glide_lipo>
-2.7243

> <r_i_glide_metal>
0

> <r_i_glide_rewards>
0.605664

> <s_i_glide_gridfile>
wee1_glide-grid

> <s_m_Source_File>
wee1_decoys_glide_SP.sdf

> <s_m_Source_Path>
/Users/zhangxujun/Desktop

> <s_m_entry_id>
3679

> <s_m_entry_name>
wee1_decoys_glide_SP.3404

> <s_m_subgroup_title>
wee1_decoys_glide_SP

> <s_m_subgroupid>
wee1_decoys_glide_SP


$$$$
