ZINC63097159_144
                    3D
 Schrodinger Suite 2024-2.
 57 61  0  0  1  0            999 V2000
    0.2406   49.5291   25.0949 C   0  0  0  0  0  0
   -0.5007   50.7257   25.7217 C   0  0  2  0  0  0
   -1.4681   50.8726   25.2371 H   0  0  0  0  0  0
    0.3003   52.0214   25.7699 C   0  0  0  0  0  0
    0.4112   52.3840   27.0617 C   0  0  0  0  0  0
    1.1040   53.5239   27.6869 C   0  0  0  0  0  0
    1.0476   53.7170   29.0205 C   0  0  0  0  0  0
    0.2887   52.7640   29.8198 C   0  0  0  0  0  0
   -0.3371   51.6967   29.2579 C   0  0  0  0  0  0
   -0.2732   51.4779   27.8733 C   0  0  0  0  0  0
   -0.7723   50.4967   27.1526 N   0  3  0  0  0  0
    0.7857   52.7350   24.5195 C   0  0  0  0  0  0
    2.2421   52.4081   24.1819 C   0  0  0  0  0  0
    2.8336   53.3503   23.2395 N   0  0  0  0  0  0
    4.0715   53.9699   23.3130 C   0  0  0  0  0  0
    4.8438   54.2348   22.2195 C   0  0  0  0  0  0
    6.1111   54.8966   22.0803 C   0  0  0  0  0  0
    6.4078   55.0172   20.8616 N   0  0  0  0  0  0
    5.4795   54.4042   20.1291 N   0  0  0  0  0  0
    4.4846   53.8730   20.8678 C   0  0  0  0  0  0
    3.5000   53.2403   20.4841 O   0  0  0  0  0  0
    5.5744   54.4606   18.6568 C   0  0  1  0  0  0
    6.6142   54.5833   18.3477 H   0  0  0  0  0  0
    5.0579   53.2967   17.9430 N   0  0  0  0  0  0
    3.8133   53.4877   17.3479 C   0  0  0  0  0  0
    2.9711   52.4962   16.8456 C   0  0  0  0  0  0
    1.7594   52.8580   16.2517 C   0  0  0  0  0  0
    1.4008   54.2054   16.1536 C   0  0  0  0  0  0
    2.2518   55.1953   16.6506 C   0  0  0  0  0  0
    3.4571   54.8281   17.2503 C   0  0  0  0  0  0
    4.6917   55.8792   17.9284 S   0  0  0  0  0  0
    6.9977   55.4270   23.1853 C   0  0  0  0  0  0
    4.4448   54.3516   24.7464 C   0  0  0  0  0  0
    0.4951   49.7156   24.0515 H   0  0  0  0  0  0
    1.1628   49.2958   25.6264 H   0  0  0  0  0  0
   -0.3730   48.6277   25.1269 H   0  0  0  0  0  0
    1.6691   54.2321   27.0981 H   0  0  0  0  0  0
    1.5485   54.5541   29.4847 H   0  0  0  0  0  0
    0.2140   52.9076   30.8900 H   0  0  0  0  0  0
   -0.8938   51.0225   29.8986 H   0  0  0  0  0  0
    0.7020   53.8067   24.7013 H   0  0  0  0  0  0
    0.1251   52.5176   23.6793 H   0  0  0  0  0  0
    2.3053   51.3957   23.7814 H   0  0  0  0  0  0
    2.8069   52.4276   25.1128 H   0  0  0  0  0  0
    2.4925   53.2078   22.2938 H   0  0  0  0  0  0
    5.4979   52.3906   18.0807 H   0  0  0  0  0  0
    3.2465   51.4513   16.9093 H   0  0  0  0  0  0
    1.1036   52.0934   15.8629 H   0  0  0  0  0  0
    0.4652   54.4793   15.6895 H   0  0  0  0  0  0
    1.9705   56.2347   16.5679 H   0  0  0  0  0  0
    7.2862   54.6340   23.8751 H   0  0  0  0  0  0
    7.9042   55.8607   22.7655 H   0  0  0  0  0  0
    6.5240   56.2279   23.7450 H   0  0  0  0  0  0
    4.9603   55.3017   24.8061 H   0  0  0  0  0  0
    3.5667   54.4818   25.3793 H   0  0  0  0  0  0
    5.0755   53.5817   25.1905 H   0  0  0  0  0  0
   -1.2623   49.6631   27.5315 H   0  0  0  0  0  0
  1  2  1  0  0  0
  1 34  1  0  0  0
  1 35  1  0  0  0
  1 36  1  0  0  0
  2  3  1  0  0  0
  2 11  1  0  0  0
  2  4  1  0  0  0
  4  5  2  0  0  0
  4 12  1  0  0  0
  5 10  1  0  0  0
  5  6  1  0  0  0
  6  7  2  0  0  0
  6 37  1  0  0  0
  7  8  1  0  0  0
  7 38  1  0  0  0
  8  9  2  0  0  0
  8 39  1  0  0  0
  9 10  1  0  0  0
  9 40  1  0  0  0
 10 11  2  0  0  0
 11 57  1  0  0  0
 12 13  1  0  0  0
 12 41  1  0  0  0
 12 42  1  0  0  0
 13 14  1  0  0  0
 13 43  1  0  0  0
 13 44  1  0  0  0
 14 15  1  0  0  0
 14 45  1  0  0  0
 15 16  2  0  0  0
 15 33  1  0  0  0
 16 20  1  0  0  0
 16 17  1  0  0  0
 17 18  2  0  0  0
 17 32  1  0  0  0
 18 19  1  0  0  0
 19 20  1  0  0  0
 19 22  1  0  0  0
 20 21  2  0  0  0
 22 23  1  0  0  0
 22 31  1  0  0  0
 22 24  1  0  0  0
 24 25  1  0  0  0
 24 46  1  0  0  0
 25 30  2  0  0  0
 25 26  1  0  0  0
 26 27  2  0  0  0
 26 47  1  0  0  0
 27 28  1  0  0  0
 27 48  1  0  0  0
 28 29  2  0  0  0
 28 49  1  0  0  0
 29 30  1  0  0  0
 29 50  1  0  0  0
 30 31  1  0  0  0
 32 51  1  0  0  0
 32 52  1  0  0  0
 32 53  1  0  0  0
 33 54  1  0  0  0
 33 55  1  0  0  0
 33 56  1  0  0  0
M  CHG  1  11   1
M  END
> <i_i_glide_confnum>
67

> <i_i_glide_lignum>
145

> <i_i_glide_posenum>
163

> <i_i_glide_rotatable_bonds>
5

> <i_m_Source_File_Index>
1981

> <b_m_subgroup_collapsed>
0

> <r_i_docking_score>
-4.95229

> <r_i_glide_ecoul>
-4.09243

> <r_i_glide_eff_state_penalty>
0

> <r_i_glide_einternal>
6.56587

> <r_i_glide_emodel>
-51.8418

> <r_i_glide_energy>
-39.5021

> <r_i_glide_erotb>
0.531762

> <r_i_glide_esite>
-0.191486

> <r_i_glide_evdw>
-35.4097

> <r_i_glide_gscore>
-4.95229

> <r_i_glide_hbond>
-0.36

> <r_i_glide_ligand_efficiency>
-0.159751

> <r_i_glide_ligand_efficiency_ln>
-1.11689

> <r_i_glide_ligand_efficiency_sa>
-0.50184

> <r_i_glide_lipo>
-1.54073

> <r_i_glide_metal>
0

> <r_i_glide_rewards>
-1.00749

> <s_i_glide_gridfile>
wee1_glide-grid

> <s_m_Source_File>
wee1_decoys_glide_SP.sdf

> <s_m_Source_Path>
/Users/zhangxujun/Desktop

> <s_m_entry_id>
2256

> <s_m_entry_name>
wee1_decoys_glide_SP.1981

> <s_m_subgroup_title>
wee1_decoys_glide_SP

> <s_m_subgroupid>
wee1_decoys_glide_SP


$$$$
