ZINC39530366_587
                    3D
 Schrodinger Suite 2024-2.
 65 69  0  0  1  0            999 V2000
    6.6044   54.3704   27.0427 C   0  0  0  0  0  0
    5.3815   54.0806   27.6422 C   0  0  0  0  0  0
    4.2168   54.0980   26.8786 C   0  0  0  0  0  0
    4.2710   54.4078   25.5147 C   0  0  0  0  0  0
    5.5078   54.7012   24.9281 C   0  0  0  0  0  0
    6.6747   54.6763   25.6874 C   0  0  0  0  0  0
    2.9688   54.4478   24.7020 C   0  0  0  0  0  0
    2.9476   53.6474   23.4030 C   0  0  0  0  0  0
    2.1916   52.4852   23.3114 C   0  0  0  0  0  0
    2.1415   51.7813   22.1140 C   0  0  0  0  0  0
    2.8404   52.2070   20.9723 C   0  0  0  0  0  0
    3.6333   53.3804   21.0711 C   0  0  0  0  0  0
    3.6314   54.0976   22.2726 C   0  0  0  0  0  0
    4.7167   53.9897   19.7397 S   0  0  0  0  0  0
    5.6120   52.8968   19.3526 O   0  0  0  0  0  0
    3.9045   54.7025   18.7500 O   0  0  0  0  0  0
    5.6343   55.1282   20.5554 O   0  0  0  0  0  0
    6.4841   55.8906   19.7942 C   0  0  0  0  0  0
    5.9868   56.8973   18.9614 C   0  0  0  0  0  0
    6.8570   57.6663   18.1945 C   0  0  0  0  0  0
    8.2269   57.4190   18.2562 C   0  0  0  0  0  0
    8.7301   56.4199   19.0859 C   0  0  0  0  0  0
    7.8581   55.6635   19.8667 C   0  0  0  0  0  0
    2.6536   51.4548   19.8139 N   0  0  0  0  0  0
    2.7115   49.9813   19.8081 C   0  0  0  0  0  0
    1.6643   49.2833   18.9211 C   0  0  0  0  0  0
    1.7248   49.8841   17.5118 N   0  3  0  0  0  0
    1.5193   51.4035   17.5305 C   0  0  1  0  0  0
    0.5081   51.5206   17.9281 H   0  0  0  0  0  0
    2.5499   52.0458   18.4731 C   0  0  0  0  0  0
    1.5553   52.0098   16.1235 C   0  0  0  0  0  0
    2.3163   51.4246   15.0984 C   0  0  0  0  0  0
    2.3317   51.9749   13.8179 C   0  0  0  0  0  0
    1.5935   53.1251   13.5431 C   0  0  0  0  0  0
    0.8508   53.7298   14.5566 C   0  0  0  0  0  0
    0.8374   53.1869   15.8403 C   0  0  0  0  0  0
    0.1317   53.8464   16.8125 O   0  0  0  0  0  0
    7.5044   54.3592   27.6416 H   0  0  0  0  0  0
    5.3377   53.8445   28.6940 H   0  0  0  0  0  0
    3.2743   53.8698   27.3524 H   0  0  0  0  0  0
    5.5963   54.9534   23.8858 H   0  0  0  0  0  0
    7.6182   54.8963   25.2126 H   0  0  0  0  0  0
    2.1454   54.1000   25.3319 H   0  0  0  0  0  0
    2.7116   55.4799   24.4742 H   0  0  0  0  0  0
    1.6316   52.1231   24.1622 H   0  0  0  0  0  0
    1.5160   50.9023   22.0749 H   0  0  0  0  0  0
    4.1694   55.0247   22.3394 H   0  0  0  0  0  0
    4.9251   57.0806   18.8939 H   0  0  0  0  0  0
    6.4742   58.4461   17.5515 H   0  0  0  0  0  0
    8.9038   58.0087   17.6566 H   0  0  0  0  0  0
    9.7949   56.2393   19.1322 H   0  0  0  0  0  0
    8.2455   54.8969   20.5180 H   0  0  0  0  0  0
    3.6937   49.7553   19.3973 H   0  0  0  0  0  0
    2.7128   49.5545   20.8116 H   0  0  0  0  0  0
    1.8862   48.2230   18.7849 H   0  0  0  0  0  0
    0.6426   49.4052   19.2859 H   0  0  0  0  0  0
    2.6469   49.6931   17.1134 H   0  0  0  0  0  0
    2.2805   53.0949   18.5733 H   0  0  0  0  0  0
    3.5351   52.0093   18.0031 H   0  0  0  0  0  0
    2.9143   50.5425   15.2798 H   0  0  0  0  0  0
    2.9210   51.5121   13.0392 H   0  0  0  0  0  0
    1.6089   53.5545   12.5526 H   0  0  0  0  0  0
    0.2979   54.6338   14.3498 H   0  0  0  0  0  0
    0.5390   53.7811   17.6763 H   0  0  0  0  0  0
    1.0540   49.4534   16.8897 H   0  0  0  0  0  0
  1  6  2  0  0  0
  1  2  1  0  0  0
  1 38  1  0  0  0
  2  3  2  0  0  0
  2 39  1  0  0  0
  3  4  1  0  0  0
  3 40  1  0  0  0
  4  5  2  0  0  0
  4  7  1  0  0  0
  5  6  1  0  0  0
  5 41  1  0  0  0
  6 42  1  0  0  0
  7  8  1  0  0  0
  7 43  1  0  0  0
  7 44  1  0  0  0
  8 13  2  0  0  0
  8  9  1  0  0  0
  9 10  2  0  0  0
  9 45  1  0  0  0
 10 11  1  0  0  0
 10 46  1  0  0  0
 11 12  2  0  0  0
 11 24  1  0  0  0
 12 13  1  0  0  0
 12 14  1  0  0  0
 13 47  1  0  0  0
 14 15  2  0  0  0
 14 16  2  0  0  0
 14 17  1  0  0  0
 17 18  1  0  0  0
 18 23  2  0  0  0
 18 19  1  0  0  0
 19 20  2  0  0  0
 19 48  1  0  0  0
 20 21  1  0  0  0
 20 49  1  0  0  0
 21 22  2  0  0  0
 21 50  1  0  0  0
 22 23  1  0  0  0
 22 51  1  0  0  0
 23 52  1  0  0  0
 24 30  1  0  0  0
 24 25  1  0  0  0
 25 26  1  0  0  0
 25 53  1  0  0  0
 25 54  1  0  0  0
 26 27  1  0  0  0
 26 55  1  0  0  0
 26 56  1  0  0  0
 27 28  1  0  0  0
 27 57  1  0  0  0
 27 65  1  0  0  0
 28 29  1  0  0  0
 28 30  1  0  0  0
 28 31  1  0  0  0
 30 58  1  0  0  0
 30 59  1  0  0  0
 31 36  2  0  0  0
 31 32  1  0  0  0
 32 33  2  0  0  0
 32 60  1  0  0  0
 33 34  1  0  0  0
 33 61  1  0  0  0
 34 35  2  0  0  0
 34 62  1  0  0  0
 35 36  1  0  0  0
 35 63  1  0  0  0
 36 37  1  0  0  0
 37 64  1  0  0  0
M  CHG  1  27   1
M  END
> <i_i_glide_confnum>
12

> <i_i_glide_lignum>
588

> <i_i_glide_posenum>
296

> <i_i_glide_rotatable_bonds>
8

> <i_m_Source_File_Index>
5024

> <b_m_subgroup_collapsed>
0

> <r_i_docking_score>
-5.41201

> <r_i_glide_ecoul>
-4.69207

> <r_i_glide_eff_state_penalty>
0

> <r_i_glide_einternal>
4.15166

> <r_i_glide_emodel>
-59.7065

> <r_i_glide_energy>
-44.5633

> <r_i_glide_erotb>
0.568291

> <r_i_glide_esite>
-0.237903

> <r_i_glide_evdw>
-39.8713

> <r_i_glide_gscore>
-5.41201

> <r_i_glide_hbond>
-0.2

> <r_i_glide_ligand_efficiency>
-0.150334

> <r_i_glide_ligand_efficiency_ln>
-1.18075

> <r_i_glide_ligand_efficiency_sa>
-0.49639

> <r_i_glide_lipo>
-2.74618

> <r_i_glide_metal>
0

> <r_i_glide_rewards>
-0.0988465

> <s_i_glide_gridfile>
wee1_glide-grid

> <s_m_Source_File>
wee1_decoys_glide_SP.sdf

> <s_m_Source_Path>
/Users/zhangxujun/Desktop

> <s_m_entry_id>
5299

> <s_m_entry_name>
wee1_decoys_glide_SP.5024

> <s_m_subgroup_title>
wee1_decoys_glide_SP

> <s_m_subgroupid>
wee1_decoys_glide_SP


$$$$
