ZINC59166666_4305
                    3D
 Schrodinger Suite 2024-2.
 36 37  0  0  1  0            999 V2000
    0.5402   51.4756   28.4310 C   0  0  0  0  0  0
   -0.3820   52.2435   29.1297 C   0  0  0  0  0  0
   -0.0346   53.5245   29.5489 C   0  0  0  0  0  0
    1.2329   54.0435   29.2720 C   0  0  0  0  0  0
    2.1902   53.2459   28.6088 C   0  0  0  0  0  0
    1.8233   51.9628   28.1949 C   0  0  0  0  0  0
    3.6187   53.7240   28.3239 C   0  0  0  0  0  0
    3.6153   54.7996   27.3883 O   0  0  0  0  0  0
    3.7614   54.4460   26.0699 C   0  0  0  0  0  0
    2.6537   54.0162   25.3365 C   0  0  0  0  0  0
    2.7761   53.7109   23.9822 C   0  0  0  0  0  0
    4.0098   53.8348   23.3316 C   0  0  0  0  0  0
    5.1209   54.2572   24.0809 C   0  0  0  0  0  0
    5.0032   54.5510   25.4397 C   0  0  0  0  0  0
    6.7036   55.1496   26.5017 I   0  0  0  0  0  0
    4.1168   53.4928   21.9100 C   0  0  0  0  0  0
    5.1067   53.8464   21.1968 N   0  0  0  0  0  0
    5.1038   53.3060   19.9591 N   0  0  0  0  0  0
    5.8951   53.7285   18.9290 C   0  0  0  0  0  0
    6.8420   55.1047   18.8809 S   0  0  0  0  0  0
    5.8921   52.8968   17.8656 N   0  0  0  0  0  0
    1.5064   55.4122   29.6828 C   0  0  0  0  0  0
    1.7180   56.4970   30.0130 N   0  0  0  0  0  0
    0.2542   50.4967   28.0812 H   0  0  0  0  0  0
   -1.3634   51.8412   29.3371 H   0  0  0  0  0  0
   -0.7682   54.1115   30.0808 H   0  0  0  0  0  0
    2.5308   51.3316   27.6819 H   0  0  0  0  0  0
    4.0593   54.0795   29.2568 H   0  0  0  0  0  0
    4.2605   52.8986   28.0026 H   0  0  0  0  0  0
    1.6885   53.9397   25.8170 H   0  0  0  0  0  0
    1.8970   53.3902   23.4394 H   0  0  0  0  0  0
    6.0912   54.3546   23.6121 H   0  0  0  0  0  0
    3.2808   52.9132   21.5130 H   0  0  0  0  0  0
    4.3659   52.6421   19.7700 H   0  0  0  0  0  0
    5.5644   51.9266   17.9760 H   0  0  0  0  0  0
    6.3795   53.1693   17.0258 H   0  0  0  0  0  0
  1  6  2  0  0  0
  1  2  1  0  0  0
  1 24  1  0  0  0
  2  3  2  0  0  0
  2 25  1  0  0  0
  3  4  1  0  0  0
  3 26  1  0  0  0
  4  5  2  0  0  0
  4 22  1  0  0  0
  5  6  1  0  0  0
  5  7  1  0  0  0
  6 27  1  0  0  0
  7  8  1  0  0  0
  7 28  1  0  0  0
  7 29  1  0  0  0
  8  9  1  0  0  0
  9 14  2  0  0  0
  9 10  1  0  0  0
 10 11  2  0  0  0
 10 30  1  0  0  0
 11 12  1  0  0  0
 11 31  1  0  0  0
 12 13  2  0  0  0
 12 16  1  0  0  0
 13 14  1  0  0  0
 13 32  1  0  0  0
 14 15  1  0  0  0
 16 17  2  0  0  0
 16 33  1  0  0  0
 17 18  1  0  0  0
 18 19  1  0  0  0
 18 34  1  0  0  0
 19 20  2  0  0  0
 19 21  1  0  0  0
 21 35  1  0  0  0
 21 36  1  0  0  0
 22 23  3  0  0  0
M  END
> <i_i_glide_confnum>
20

> <i_i_glide_lignum>
4306

> <i_i_glide_posenum>
358

> <i_i_glide_rotatable_bonds>
7

> <i_m_Source_File_Index>
3159

> <b_m_subgroup_collapsed>
0

> <r_i_docking_score>
-6.36508

> <r_i_glide_ecoul>
-5.61646

> <r_i_glide_eff_state_penalty>
0

> <r_i_glide_einternal>
12.01

> <r_i_glide_emodel>
-58.5909

> <r_i_glide_energy>
-45.6633

> <r_i_glide_erotb>
0.523595

> <r_i_glide_esite>
-0.166796

> <r_i_glide_evdw>
-40.0468

> <r_i_glide_gscore>
-6.36508

> <r_i_glide_hbond>
-0.16

> <r_i_glide_ligand_efficiency>
-0.276743

> <r_i_glide_ligand_efficiency_ln>
-1.53913

> <r_i_glide_ligand_efficiency_sa>
-0.787019

> <r_i_glide_lipo>
-2.49758

> <r_i_glide_metal>
0

> <r_i_glide_rewards>
-1.21949

> <s_i_glide_gridfile>
wee1_glide-grid

> <s_m_Source_File>
wee1_decoys_glide_SP.sdf

> <s_m_Source_Path>
/Users/zhangxujun/Desktop

> <s_m_entry_id>
3434

> <s_m_entry_name>
wee1_decoys_glide_SP.3159

> <s_m_subgroup_title>
wee1_decoys_glide_SP

> <s_m_subgroupid>
wee1_decoys_glide_SP


$$$$
