ZINC02475887_2072
                    3D
 Schrodinger Suite 2024-2.
 48 52  0  0  1  0            999 V2000
    8.3047   55.4883   19.4269 C   0  0  0  0  0  0
    9.1544   55.9849   18.4432 C   0  0  0  0  0  0
    8.8096   57.1406   17.7469 C   0  0  0  0  0  0
    7.6122   57.7985   18.0171 C   0  0  0  0  0  0
    6.7591   57.2994   18.9969 C   0  0  0  0  0  0
    7.1079   56.1522   19.7174 C   0  0  0  0  0  0
    6.1655   55.6331   20.7988 C   0  0  1  0  0  0
    5.5279   56.4842   21.0449 H   0  0  0  0  0  0
    5.2880   54.4707   20.2754 C   0  0  0  0  0  0
    4.2434   53.9444   21.2965 C   0  0  2  0  0  0
    3.3781   54.6055   21.2522 H   0  0  0  0  0  0
    4.7901   54.0962   22.6524 N   0  0  0  0  0  0
    5.9522   54.7482   23.0084 C   0  0  0  0  0  0
    5.9264   54.8532   24.3878 C   0  0  0  0  0  0
    4.7251   54.2303   24.7955 C   0  0  0  0  0  0
    4.0605   53.8033   23.7348 N   0  0  0  0  0  0
    4.2524   54.0968   26.1659 C   0  0  0  0  0  0
    4.9190   54.4961   27.1213 O   0  0  0  0  0  0
    3.0368   53.5144   26.2675 N   0  0  0  0  0  0
    2.3064   53.1575   27.4102 C   0  0  0  0  0  0
    0.9498   52.8472   27.1965 C   0  0  0  0  0  0
    0.1151   52.4779   28.2575 C   0  0  0  0  0  0
    0.6786   52.4296   29.5238 C   0  0  0  0  0  0
    2.0021   52.6916   29.7399 C   0  0  0  0  0  0
    2.8570   53.0551   28.7057 C   0  0  0  0  0  0
    2.2840   52.4968   31.0552 O   0  0  0  0  0  0
    1.0298   52.4322   31.6812 C   0  0  0  0  0  0
    0.0893   52.0997   30.6985 O   0  0  0  0  0  0
    7.1042   55.6444   25.3539 Cl  0  0  0  0  0  0
    6.8229   55.2172   22.0438 N   0  0  0  0  0  0
    3.7348   52.5176   20.9730 C   0  0  0  0  0  0
    4.7071   51.6150   21.1087 F   0  0  0  0  0  0
    2.7265   52.1486   21.7643 F   0  0  0  0  0  0
    3.2953   52.4422   19.7172 F   0  0  0  0  0  0
    9.6429   57.6274   16.8006 F   0  0  0  0  0  0
    8.5770   54.5865   19.9553 H   0  0  0  0  0  0
   10.0847   55.4800   18.2262 H   0  0  0  0  0  0
    7.3463   58.6918   17.4692 H   0  0  0  0  0  0
    5.8311   57.8137   19.1947 H   0  0  0  0  0  0
    5.9395   53.6522   19.9671 H   0  0  0  0  0  0
    4.7744   54.7635   19.3581 H   0  0  0  0  0  0
    2.5905   53.2928   25.3908 H   0  0  0  0  0  0
    0.5282   52.8948   26.2028 H   0  0  0  0  0  0
   -0.9244   52.2378   28.0906 H   0  0  0  0  0  0
    3.9013   53.2378   28.9047 H   0  0  0  0  0  0
    1.0159   51.6987   32.4884 H   0  0  0  0  0  0
    0.7659   53.4009   32.1124 H   0  0  0  0  0  0
    7.5246   55.8776   22.3499 H   0  0  0  0  0  0
  1  6  2  0  0  0
  1  2  1  0  0  0
  1 36  1  0  0  0
  2  3  2  0  0  0
  2 37  1  0  0  0
  3  4  1  0  0  0
  3 35  1  0  0  0
  4  5  2  0  0  0
  4 38  1  0  0  0
  5  6  1  0  0  0
  5 39  1  0  0  0
  6  7  1  0  0  0
  7  8  1  0  0  0
  7 30  1  0  0  0
  7  9  1  0  0  0
  9 10  1  0  0  0
  9 40  1  0  0  0
  9 41  1  0  0  0
 10 11  1  0  0  0
 10 12  1  0  0  0
 10 31  1  0  0  0
 12 16  1  0  0  0
 12 13  1  0  0  0
 13 14  2  0  0  0
 13 30  1  0  0  0
 14 15  1  0  0  0
 14 29  1  0  0  0
 15 16  2  0  0  0
 15 17  1  0  0  0
 17 18  2  0  0  0
 17 19  1  0  0  0
 19 20  1  0  0  0
 19 42  1  0  0  0
 20 25  2  0  0  0
 20 21  1  0  0  0
 21 22  2  0  0  0
 21 43  1  0  0  0
 22 23  1  0  0  0
 22 44  1  0  0  0
 23 28  1  0  0  0
 23 24  2  0  0  0
 24 25  1  0  0  0
 24 26  1  0  0  0
 25 45  1  0  0  0
 26 27  1  0  0  0
 27 28  1  0  0  0
 27 46  1  0  0  0
 27 47  1  0  0  0
 30 48  1  0  0  0
 31 32  1  0  0  0
 31 33  1  0  0  0
 31 34  1  0  0  0
M  END
> <i_i_glide_confnum>
9

> <i_i_glide_lignum>
2073

> <i_i_glide_posenum>
169

> <i_i_glide_rotatable_bonds>
5

> <i_m_Source_File_Index>
2843

> <b_m_subgroup_collapsed>
0

> <r_i_docking_score>
-5.8663

> <r_i_glide_ecoul>
-4.51875

> <r_i_glide_eff_state_penalty>
0

> <r_i_glide_einternal>
4.55775

> <r_i_glide_emodel>
-64.965

> <r_i_glide_energy>
-51.7018

> <r_i_glide_erotb>
0.348269

> <r_i_glide_esite>
-0.129292

> <r_i_glide_evdw>
-47.1831

> <r_i_glide_gscore>
-5.8663

> <r_i_glide_hbond>
-0.111853

> <r_i_glide_ligand_efficiency>
-0.177767

> <r_i_glide_ligand_efficiency_ln>
-1.30463

> <r_i_glide_ligand_efficiency_sa>
-0.570193

> <r_i_glide_lipo>
-2.02005

> <r_i_glide_metal>
0

> <r_i_glide_rewards>
-0.916405

> <s_i_glide_gridfile>
wee1_glide-grid

> <s_m_Source_File>
wee1_decoys_glide_SP.sdf

> <s_m_Source_Path>
/Users/zhangxujun/Desktop

> <s_m_entry_id>
3118

> <s_m_entry_name>
wee1_decoys_glide_SP.2843

> <s_m_subgroup_title>
wee1_decoys_glide_SP

> <s_m_subgroupid>
wee1_decoys_glide_SP


$$$$
