ZINC13070191_2706
                    3D
 Schrodinger Suite 2024-2.
 53 56  0  0  1  0            999 V2000
    3.1116   53.4885   29.5677 C   0  0  0  0  0  0
    3.6926   53.7227   28.1838 C   0  0  0  0  0  0
    2.8543   53.7118   27.0656 C   0  0  0  0  0  0
    3.3857   53.9121   25.7939 C   0  0  0  0  0  0
    4.7661   54.1046   25.6349 C   0  0  0  0  0  0
    5.5984   54.1199   26.7586 C   0  0  0  0  0  0
    5.0647   53.9236   28.0286 C   0  0  0  0  0  0
    5.3939   54.3308   24.3962 N   0  0  0  0  0  0
    4.9519   54.0965   23.1375 C   0  0  0  0  0  0
    3.8874   53.5293   22.8713 O   0  0  0  0  0  0
    5.8437   54.6206   22.0273 C   0  0  0  0  0  0
    7.1017   55.1726   22.3007 C   0  0  0  0  0  0
    7.8870   55.6964   21.2827 C   0  0  0  0  0  0
    7.4305   55.7076   19.9685 C   0  0  0  0  0  0
    6.1856   55.1413   19.6757 C   0  0  0  0  0  0
    5.4038   54.5941   20.6938 C   0  0  0  0  0  0
    8.2390   56.3813   19.0376 N   0  0  0  0  0  0
    8.2898   56.1239   17.2847 S   0  0  0  0  0  0
    6.9343   55.8537   16.7946 O   0  0  0  0  0  0
    9.0635   57.2488   16.7506 O   0  0  0  0  0  0
    9.2908   54.6638   17.0391 C   0  0  0  0  0  0
   10.6733   54.7472   17.2033 C   0  0  0  0  0  0
   11.4690   53.6339   16.9506 C   0  0  0  0  0  0
   10.9086   52.4258   16.5313 C   0  0  0  0  0  0
    9.4993   52.3348   16.3792 C   0  0  0  0  0  0
    8.7099   53.4575   16.6417 C   0  0  0  0  0  0
    8.8407   51.2196   15.9026 O   0  0  0  0  0  0
    9.5132   50.3974   14.9560 C   0  0  0  0  0  0
   10.4770   49.4210   15.6323 C   0  0  0  0  0  0
   11.3290   50.0691   16.7275 C   0  0  0  0  0  0
   11.7810   51.3663   16.3645 O   0  0  0  0  0  0
    3.8555   53.0531   30.2390 H   0  0  0  0  0  0
    2.2782   52.7836   29.5241 H   0  0  0  0  0  0
    2.7489   54.4261   29.9923 H   0  0  0  0  0  0
    1.7914   53.5560   27.1797 H   0  0  0  0  0  0
    2.7145   53.9161   24.9492 H   0  0  0  0  0  0
    6.6636   54.2726   26.6607 H   0  0  0  0  0  0
    5.7214   53.9311   28.8857 H   0  0  0  0  0  0
    6.3182   54.7237   24.4644 H   0  0  0  0  0  0
    7.5028   55.2150   23.3013 H   0  0  0  0  0  0
    8.8522   56.1090   21.5323 H   0  0  0  0  0  0
    5.7820   55.1382   18.6781 H   0  0  0  0  0  0
    4.4364   54.1835   20.4405 H   0  0  0  0  0  0
    9.0070   56.9198   19.4039 H   0  0  0  0  0  0
   11.1338   55.6729   17.5175 H   0  0  0  0  0  0
   12.5379   53.7030   17.0826 H   0  0  0  0  0  0
    7.6390   53.3897   16.5059 H   0  0  0  0  0  0
   10.0233   51.0109   14.2081 H   0  0  0  0  0  0
    8.7624   49.8397   14.3951 H   0  0  0  0  0  0
   11.1168   48.9650   14.8755 H   0  0  0  0  0  0
    9.9043   48.6154   16.0853 H   0  0  0  0  0  0
   12.2051   49.4494   16.9214 H   0  0  0  0  0  0
   10.7929   50.0959   17.6788 H   0  0  0  0  0  0
  1  2  1  0  0  0
  1 32  1  0  0  0
  1 33  1  0  0  0
  1 34  1  0  0  0
  2  7  2  0  0  0
  2  3  1  0  0  0
  3  4  2  0  0  0
  3 35  1  0  0  0
  4  5  1  0  0  0
  4 36  1  0  0  0
  5  6  2  0  0  0
  5  8  1  0  0  0
  6  7  1  0  0  0
  6 37  1  0  0  0
  7 38  1  0  0  0
  8  9  1  0  0  0
  8 39  1  0  0  0
  9 10  2  0  0  0
  9 11  1  0  0  0
 11 16  2  0  0  0
 11 12  1  0  0  0
 12 13  2  0  0  0
 12 40  1  0  0  0
 13 14  1  0  0  0
 13 41  1  0  0  0
 14 15  2  0  0  0
 14 17  1  0  0  0
 15 16  1  0  0  0
 15 42  1  0  0  0
 16 43  1  0  0  0
 17 18  1  0  0  0
 17 44  1  0  0  0
 18 19  2  0  0  0
 18 20  2  0  0  0
 18 21  1  0  0  0
 21 26  2  0  0  0
 21 22  1  0  0  0
 22 23  2  0  0  0
 22 45  1  0  0  0
 23 24  1  0  0  0
 23 46  1  0  0  0
 24 31  1  0  0  0
 24 25  2  0  0  0
 25 26  1  0  0  0
 25 27  1  0  0  0
 26 47  1  0  0  0
 27 28  1  0  0  0
 28 29  1  0  0  0
 28 48  1  0  0  0
 28 49  1  0  0  0
 29 30  1  0  0  0
 29 50  1  0  0  0
 29 51  1  0  0  0
 30 31  1  0  0  0
 30 52  1  0  0  0
 30 53  1  0  0  0
M  END
> <i_i_glide_confnum>
187

> <i_i_glide_lignum>
2707

> <i_i_glide_posenum>
116

> <i_i_glide_rotatable_bonds>
6

> <i_m_Source_File_Index>
5749

> <b_m_subgroup_collapsed>
0

> <r_i_docking_score>
-5.1

> <r_i_glide_ecoul>
-1.58877

> <r_i_glide_eff_state_penalty>
0

> <r_i_glide_einternal>
4.29724

> <r_i_glide_emodel>
-54.0764

> <r_i_glide_energy>
-41.2669

> <r_i_glide_erotb>
0.62254

> <r_i_glide_esite>
0

> <r_i_glide_evdw>
-39.6782

> <r_i_glide_gscore>
-5.1

> <r_i_glide_hbond>
0

> <r_i_glide_ligand_efficiency>
-0.164516

> <r_i_glide_ligand_efficiency_ln>
-1.15021

> <r_i_glide_ligand_efficiency_sa>
-0.516808

> <r_i_glide_lipo>
-2.93084

> <r_i_glide_metal>
0

> <r_i_glide_rewards>
-0.569484

> <s_i_glide_gridfile>
wee1_glide-grid

> <s_m_Source_File>
wee1_decoys_glide_SP.sdf

> <s_m_Source_Path>
/Users/zhangxujun/Desktop

> <s_m_entry_id>
6024

> <s_m_entry_name>
wee1_decoys_glide_SP.5749

> <s_m_subgroup_title>
wee1_decoys_glide_SP

> <s_m_subgroupid>
wee1_decoys_glide_SP


$$$$
