ZINC61682292_4707
                    3D
 Schrodinger Suite 2024-2.
 37 39  0  0  1  0            999 V2000
    4.9267   54.3883   19.4261 C   0  0  0  0  0  0
    6.1335   55.0254   20.1489 C   0  0  0  0  0  0
    6.3288   56.4972   19.7384 C   0  0  0  0  0  0
    6.0451   54.8933   21.6157 N   0  0  0  0  0  0
    5.0412   54.3484   22.3846 C   0  0  0  0  0  0
    5.4389   54.4736   23.7054 C   0  0  0  0  0  0
    6.7044   55.0728   23.6137 C   0  0  0  0  0  0
    7.0697   55.3145   22.3736 N   0  0  0  0  0  0
    4.6891   54.0969   24.8060 N   0  0  0  0  0  0
    5.0229   54.2315   26.1099 C   0  0  0  0  0  0
    6.0987   54.6734   26.5265 O   0  0  0  0  0  0
    3.9909   53.7804   27.0295 C   0  0  0  0  0  0
    4.1412   53.4688   28.3754 C   0  0  0  0  0  0
    2.9169   53.1253   29.0219 C   0  0  0  0  0  0
    2.6758   52.7399   30.3539 C   0  0  0  0  0  0
    1.3669   52.4964   30.7678 C   0  0  0  0  0  0
    0.3022   52.5867   29.8832 C   0  0  0  0  0  0
    0.4993   52.9390   28.5534 C   0  0  0  0  0  0
    1.8062   53.2152   28.1331 C   0  0  0  0  0  0
    2.3050   53.6967   26.5271 S   0  0  0  0  0  0
    1.1044   52.1290   32.0817 N   0  0  0  0  0  0
    5.0388   54.4572   18.3431 H   0  0  0  0  0  0
    3.9899   54.8840   19.6864 H   0  0  0  0  0  0
    4.8285   53.3285   19.6668 H   0  0  0  0  0  0
    7.0299   54.4864   19.8418 H   0  0  0  0  0  0
    6.3940   56.5999   18.6545 H   0  0  0  0  0  0
    5.5048   57.1214   20.0774 H   0  0  0  0  0  0
    7.2535   56.8980   20.1521 H   0  0  0  0  0  0
    4.1388   53.9549   21.9393 H   0  0  0  0  0  0
    7.3346   55.3454   24.4455 H   0  0  0  0  0  0
    3.7896   53.6849   24.6102 H   0  0  0  0  0  0
    5.0954   53.4810   28.8820 H   0  0  0  0  0  0
    3.4969   52.6340   31.0436 H   0  0  0  0  0  0
   -0.6965   52.3577   30.2272 H   0  0  0  0  0  0
   -0.3330   52.9957   27.8683 H   0  0  0  0  0  0
    1.8451   52.0979   32.7692 H   0  0  0  0  0  0
    0.1336   52.0436   32.3857 H   0  0  0  0  0  0
  1  2  1  0  0  0
  1 22  1  0  0  0
  1 23  1  0  0  0
  1 24  1  0  0  0
  2  3  1  0  0  0
  2  4  1  0  0  0
  2 25  1  0  0  0
  3 26  1  0  0  0
  3 27  1  0  0  0
  3 28  1  0  0  0
  4  8  1  0  0  0
  4  5  1  0  0  0
  5  6  2  0  0  0
  5 29  1  0  0  0
  6  7  1  0  0  0
  6  9  1  0  0  0
  7  8  2  0  0  0
  7 30  1  0  0  0
  9 10  1  0  0  0
  9 31  1  0  0  0
 10 11  2  0  0  0
 10 12  1  0  0  0
 12 20  1  0  0  0
 12 13  2  0  0  0
 13 14  1  0  0  0
 13 32  1  0  0  0
 14 19  2  0  0  0
 14 15  1  0  0  0
 15 16  2  0  0  0
 15 33  1  0  0  0
 16 17  1  0  0  0
 16 21  1  0  0  0
 17 18  2  0  0  0
 17 34  1  0  0  0
 18 19  1  0  0  0
 18 35  1  0  0  0
 19 20  1  0  0  0
 21 36  1  0  0  0
 21 37  1  0  0  0
M  END
> <i_i_glide_confnum>
3

> <i_i_glide_lignum>
4708

> <i_i_glide_posenum>
365

> <i_i_glide_rotatable_bonds>
4

> <i_m_Source_File_Index>
931

> <b_m_subgroup_collapsed>
0

> <r_i_docking_score>
-6.65142

> <r_i_glide_ecoul>
-6.17985

> <r_i_glide_eff_state_penalty>
0

> <r_i_glide_einternal>
5.38449

> <r_i_glide_emodel>
-59.5426

> <r_i_glide_energy>
-43.7948

> <r_i_glide_erotb>
0.611145

> <r_i_glide_esite>
-0.1

> <r_i_glide_evdw>
-37.615

> <r_i_glide_gscore>
-6.65142

> <r_i_glide_hbond>
-0.424579

> <r_i_glide_ligand_efficiency>
-0.316734

> <r_i_glide_ligand_efficiency_ln>
-1.64455

> <r_i_glide_ligand_efficiency_sa>
-0.873845

> <r_i_glide_lipo>
-1.90537

> <r_i_glide_metal>
0

> <r_i_glide_rewards>
-2.02489

> <s_i_glide_gridfile>
wee1_glide-grid

> <s_m_Source_File>
wee1_decoys_glide_SP.sdf

> <s_m_Source_Path>
/Users/zhangxujun/Desktop

> <s_m_entry_id>
1206

> <s_m_entry_name>
wee1_decoys_glide_SP.931

> <s_m_subgroup_title>
wee1_decoys_glide_SP

> <s_m_subgroupid>
wee1_decoys_glide_SP


$$$$
