ZINC08682302_2894
                    3D
 Schrodinger Suite 2024-2.
 54 56  0  0  1  0            999 V2000
   -4.3026   46.8014   28.2606 C   0  0  0  0  0  0
   -4.6952   47.6037   27.0103 C   0  0  0  0  0  0
   -3.5522   48.0309   26.2753 O   0  0  0  0  0  0
   -2.9439   47.2249   25.3809 C   0  0  0  0  0  0
   -3.3112   46.0966   25.0529 O   0  0  0  0  0  0
   -1.7319   47.8633   24.7066 C   0  0  0  0  0  0
   -0.5352   50.1009   25.4598 C   0  0  2  0  0  0
    0.0415   50.2867   26.3687 H   0  0  0  0  0  0
   -1.8314   50.9141   25.5726 C   0  0  0  0  0  0
   -2.3740   51.5865   24.4685 C   0  0  0  0  0  0
   -3.5578   52.3082   24.5988 C   0  0  0  0  0  0
   -4.2054   52.3553   25.8306 C   0  0  0  0  0  0
   -3.6722   51.6969   26.9353 C   0  0  0  0  0  0
   -2.4788   50.9941   26.8106 C   0  0  0  0  0  0
    0.3899   50.4951   24.2817 C   0  0  0  0  0  0
    0.5285   49.6561   23.1629 C   0  0  0  0  0  0
    1.3232   50.0186   22.0789 C   0  0  0  0  0  0
    1.9821   51.2411   22.0792 C   0  0  0  0  0  0
    1.8798   52.0802   23.1838 C   0  0  0  0  0  0
    1.1236   51.7049   24.3099 C   0  0  0  0  0  0
    1.0923   52.4968   25.4815 N   0  0  0  0  0  0
    2.0728   53.2932   25.9708 C   0  0  0  0  0  0
    3.1059   53.5617   25.3554 O   0  0  0  0  0  0
    1.8600   53.8751   27.3532 C   0  0  0  0  0  0
    0.8243   53.4515   28.2065 C   0  0  0  0  0  0
    0.6105   54.0970   29.4252 C   0  0  0  0  0  0
    1.4187   55.1745   29.7869 C   0  0  0  0  0  0
    2.4819   55.5558   28.9861 C   0  0  0  0  0  0
    2.7142   54.8967   27.7877 C   0  0  0  0  0  0
    1.1044   56.0907   31.2112 Cl  0  0  0  0  0  0
    1.4997   48.8448   20.5908 Br  0  0  0  0  0  0
   -5.1885   46.4897   28.8122 H   0  0  0  0  0  0
   -3.6955   47.4064   28.9352 H   0  0  0  0  0  0
   -3.7306   45.9077   28.0073 H   0  0  0  0  0  0
   -5.3735   47.0274   26.3783 H   0  0  0  0  0  0
   -5.2442   48.4946   27.3168 H   0  0  0  0  0  0
   -1.1268   47.1079   24.2064 H   0  0  0  0  0  0
   -2.0632   48.6167   23.9918 H   0  0  0  0  0  0
   -1.8913   51.5491   23.5031 H   0  0  0  0  0  0
   -3.9772   52.8210   23.7458 H   0  0  0  0  0  0
   -5.1304   52.9046   25.9296 H   0  0  0  0  0  0
   -4.1786   51.7319   27.8887 H   0  0  0  0  0  0
   -2.0742   50.4967   27.6801 H   0  0  0  0  0  0
    0.0261   48.7076   23.0994 H   0  0  0  0  0  0
    2.5822   51.5337   21.2293 H   0  0  0  0  0  0
    2.4082   53.0204   23.1458 H   0  0  0  0  0  0
    0.2980   52.3414   26.0806 H   0  0  0  0  0  0
    0.1580   52.6459   27.9339 H   0  0  0  0  0  0
   -0.2047   53.7915   30.0651 H   0  0  0  0  0  0
    3.1044   56.3865   29.2817 H   0  0  0  0  0  0
    3.5345   55.2354   27.1695 H   0  0  0  0  0  0
   -0.7784   48.5896   25.6817 N   0  3  0  0  0  0
   -1.1642   48.4958   26.6280 H   0  0  0  0  0  0
    0.1126   48.1095   25.7188 H   0  0  0  0  0  0
  1  2  1  0  0  0
  1 32  1  0  0  0
  1 33  1  0  0  0
  1 34  1  0  0  0
  2  3  1  0  0  0
  2 35  1  0  0  0
  2 36  1  0  0  0
  3  4  1  0  0  0
  4  5  2  0  0  0
  4  6  1  0  0  0
  6 37  1  0  0  0
  6 38  1  0  0  0
  6 52  1  0  0  0
  7  8  1  0  0  0
  7  9  1  0  0  0
  7 15  1  0  0  0
  7 52  1  0  0  0
  9 14  2  0  0  0
  9 10  1  0  0  0
 10 11  2  0  0  0
 10 39  1  0  0  0
 11 12  1  0  0  0
 11 40  1  0  0  0
 12 13  2  0  0  0
 12 41  1  0  0  0
 13 14  1  0  0  0
 13 42  1  0  0  0
 14 43  1  0  0  0
 15 20  2  0  0  0
 15 16  1  0  0  0
 16 17  2  0  0  0
 16 44  1  0  0  0
 17 18  1  0  0  0
 17 31  1  0  0  0
 18 19  2  0  0  0
 18 45  1  0  0  0
 19 20  1  0  0  0
 19 46  1  0  0  0
 20 21  1  0  0  0
 21 22  1  0  0  0
 21 47  1  0  0  0
 22 23  2  0  0  0
 22 24  1  0  0  0
 24 29  2  0  0  0
 24 25  1  0  0  0
 25 26  2  0  0  0
 25 48  1  0  0  0
 26 27  1  0  0  0
 26 49  1  0  0  0
 27 28  2  0  0  0
 27 30  1  0  0  0
 28 29  1  0  0  0
 28 50  1  0  0  0
 29 51  1  0  0  0
 52 53  1  0  0  0
 52 54  1  0  0  0
M  CHG  1  52   1
M  END
> <i_i_glide_confnum>
286

> <i_i_glide_lignum>
2895

> <i_i_glide_posenum>
145

> <i_i_glide_rotatable_bonds>
10

> <i_m_Source_File_Index>
5971

> <b_m_subgroup_collapsed>
0

> <r_i_docking_score>
-4.77309

> <r_i_glide_ecoul>
-6.16509

> <r_i_glide_eff_state_penalty>
0

> <r_i_glide_einternal>
5.11743

> <r_i_glide_emodel>
-54.7275

> <r_i_glide_energy>
-42.2698

> <r_i_glide_erotb>
0.727491

> <r_i_glide_esite>
-0.172897

> <r_i_glide_evdw>
-36.1047

> <r_i_glide_gscore>
-4.77309

> <r_i_glide_hbond>
-0.304607

> <r_i_glide_ligand_efficiency>
-0.153971

> <r_i_glide_ligand_efficiency_ln>
-1.07648

> <r_i_glide_ligand_efficiency_sa>
-0.483681

> <r_i_glide_lipo>
-2.10051

> <r_i_glide_metal>
0

> <r_i_glide_rewards>
-0.192573

> <s_i_glide_gridfile>
wee1_glide-grid

> <s_m_Source_File>
wee1_decoys_glide_SP.sdf

> <s_m_Source_Path>
/Users/zhangxujun/Desktop

> <s_m_entry_id>
6246

> <s_m_entry_name>
wee1_decoys_glide_SP.5971

> <s_m_subgroup_title>
wee1_decoys_glide_SP

> <s_m_subgroupid>
wee1_decoys_glide_SP


$$$$
