ZINC21157939_2127
                    3D
 Schrodinger Suite 2024-2.
 46 49  0  0  1  0            999 V2000
    2.6697   50.0451   18.9218 C   0  0  0  0  0  0
    2.1617   50.5648   20.1428 O   0  0  0  0  0  0
    1.8439   49.7402   21.1631 C   0  0  0  0  0  0
    1.9045   48.5075   21.1087 O   0  0  0  0  0  0
    1.3553   50.4889   22.3350 C   0  0  0  0  0  0
    0.5386   49.9092   23.3411 C   0  0  0  0  0  0
    0.1204   50.7802   24.3232 C   0  0  0  0  0  0
    0.6776   52.3811   24.0809 S   0  0  0  0  0  0
    1.5458   51.8636   22.6643 C   0  0  0  0  0  0
    2.2634   52.8971   22.0815 N   0  0  0  0  0  0
    3.5550   52.8652   21.6961 C   0  0  0  0  0  0
    4.2651   51.8595   21.6812 O   0  0  0  0  0  0
    4.1327   54.2379   21.3187 C   0  0  0  0  0  0
    5.9073   54.4971   21.6856 S   0  0  0  0  0  0
    5.9302   54.4970   23.4541 C   0  0  0  0  0  0
    4.9016   54.3175   24.2403 N   0  0  0  0  0  0
    7.9829   54.8825   23.9060 H   0  0  0  0  0  0
    5.4105   54.3853   25.4657 C   0  0  0  0  0  0
    6.7048   54.6445   25.5256 N   0  0  0  0  0  0
    7.0346   54.7032   24.2334 N   0  0  0  0  0  0
    4.5640   54.1153   26.6810 C   0  0  0  0  0  0
    5.0827   54.2315   27.9777 C   0  0  0  0  0  0
    4.2972   53.9019   29.0816 C   0  0  0  0  0  0
    2.9955   53.4414   28.8961 C   0  0  0  0  0  0
    2.4563   53.3535   27.6181 C   0  0  0  0  0  0
    3.2354   53.6970   26.5192 C   0  0  0  0  0  0
    1.9470   52.8963   30.3883 Br  0  0  0  0  0  0
   -0.7635   50.1442   25.3599 C   0  0  0  0  0  0
   -1.1317   48.8266   24.6665 C   0  0  0  0  0  0
   -0.0324   48.5363   23.6315 C   0  0  0  0  0  0
    3.0302   50.8584   18.2911 H   0  0  0  0  0  0
    3.5038   49.3648   19.0998 H   0  0  0  0  0  0
    1.8967   49.5033   18.3754 H   0  0  0  0  0  0
    1.8987   53.8219   22.2492 H   0  0  0  0  0  0
    3.9902   54.3677   20.2458 H   0  0  0  0  0  0
    3.5698   55.0333   21.8058 H   0  0  0  0  0  0
    6.0998   54.5616   28.1358 H   0  0  0  0  0  0
    4.7013   53.9863   30.0778 H   0  0  0  0  0  0
    1.4457   52.9994   27.4775 H   0  0  0  0  0  0
    2.8089   53.5993   25.5337 H   0  0  0  0  0  0
   -1.6602   50.7239   25.5818 H   0  0  0  0  0  0
   -0.2402   49.9714   26.3024 H   0  0  0  0  0  0
   -2.0902   48.9398   24.1557 H   0  0  0  0  0  0
   -1.2514   48.0124   25.3851 H   0  0  0  0  0  0
    0.7044   47.8723   24.0804 H   0  0  0  0  0  0
   -0.4446   48.0451   22.7499 H   0  0  0  0  0  0
  1  2  1  0  0  0
  1 31  1  0  0  0
  1 32  1  0  0  0
  1 33  1  0  0  0
  2  3  1  0  0  0
  3  4  2  0  0  0
  3  5  1  0  0  0
  5  9  2  0  0  0
  5  6  1  0  0  0
  6 30  1  0  0  0
  6  7  2  0  0  0
  7  8  1  0  0  0
  7 28  1  0  0  0
  8  9  1  0  0  0
  9 10  1  0  0  0
 10 11  1  0  0  0
 10 34  1  0  0  0
 11 12  2  0  0  0
 11 13  1  0  0  0
 13 35  1  0  0  0
 13 36  1  0  0  0
 13 14  1  0  0  0
 14 15  1  0  0  0
 15 16  2  0  0  0
 15 20  1  0  0  0
 16 18  1  0  0  0
 17 20  1  0  0  0
 18 21  1  0  0  0
 18 19  2  0  0  0
 19 20  1  0  0  0
 21 26  2  0  0  0
 21 22  1  0  0  0
 22 23  2  0  0  0
 22 37  1  0  0  0
 23 24  1  0  0  0
 23 38  1  0  0  0
 24 25  2  0  0  0
 24 27  1  0  0  0
 25 26  1  0  0  0
 25 39  1  0  0  0
 26 40  1  0  0  0
 28 29  1  0  0  0
 28 41  1  0  0  0
 28 42  1  0  0  0
 29 30  1  0  0  0
 29 43  1  0  0  0
 29 44  1  0  0  0
 30 45  1  0  0  0
 30 46  1  0  0  0
M  END
> <i_i_glide_confnum>
7

> <i_i_glide_lignum>
2128

> <i_i_glide_posenum>
363

> <i_i_glide_rotatable_bonds>
8

> <i_m_Source_File_Index>
4580

> <b_m_subgroup_collapsed>
0

> <r_i_docking_score>
-7.38325

> <r_i_glide_ecoul>
-7.76504

> <r_i_glide_eff_state_penalty>
0

> <r_i_glide_einternal>
10.6421

> <r_i_glide_emodel>
-72.5749

> <r_i_glide_energy>
-53.6303

> <r_i_glide_erotb>
0.410031

> <r_i_glide_esite>
0

> <r_i_glide_evdw>
-45.8652

> <r_i_glide_gscore>
-7.38325

> <r_i_glide_hbond>
-0.411463

> <r_i_glide_ligand_efficiency>
-0.254595

> <r_i_glide_ligand_efficiency_ln>
-1.69058

> <r_i_glide_ligand_efficiency_sa>
-0.782196

> <r_i_glide_lipo>
-2.02981

> <r_i_glide_metal>
0

> <r_i_glide_rewards>
-1.894

> <s_i_glide_gridfile>
wee1_glide-grid

> <s_m_Source_File>
wee1_decoys_glide_SP.sdf

> <s_m_Source_Path>
/Users/zhangxujun/Desktop

> <s_m_entry_id>
4855

> <s_m_entry_name>
wee1_decoys_glide_SP.4580

> <s_m_subgroup_title>
wee1_decoys_glide_SP

> <s_m_subgroupid>
wee1_decoys_glide_SP


$$$$
