ZINC12181439_155
                    3D
 Schrodinger Suite 2024-2.
 66 70  0  0  1  0            999 V2000
    5.3617   53.2518   28.4194 C   0  0  0  0  0  0
    4.4813   54.3337   27.7696 C   0  0  2  0  0  0
    4.8125   55.2959   28.1610 H   0  0  0  0  0  0
    3.0295   54.1501   28.2088 C   0  0  0  0  0  0
    2.4987   54.9692   29.2117 C   0  0  0  0  0  0
    1.2075   54.7498   29.6821 C   0  0  0  0  0  0
    0.4456   53.7145   29.1469 C   0  0  0  0  0  0
    0.9517   52.9112   28.1280 C   0  0  0  0  0  0
    2.2433   53.1325   27.6568 C   0  0  0  0  0  0
    4.6252   54.3756   26.3104 N   0  0  0  0  0  0
    5.7221   54.7853   25.6439 C   0  0  0  0  0  0
    6.7139   55.2373   26.2200 O   0  0  0  0  0  0
    5.6865   54.6950   24.1313 C   0  0  0  0  0  0
    6.7042   55.2968   23.3828 C   0  0  0  0  0  0
    6.6892   55.2644   21.9912 C   0  0  0  0  0  0
    5.6715   54.5881   21.3029 C   0  0  0  0  0  0
    4.6563   53.9782   22.0514 C   0  0  0  0  0  0
    4.6552   54.0378   23.4435 C   0  0  0  0  0  0
    5.6860   54.4634   19.9135 N   0  0  0  0  0  0
    4.4753   54.6048   19.0815 C   0  0  0  0  0  0
    4.4695   53.6144   17.8916 C   0  0  0  0  0  0
    5.7284   53.7274   17.0070 C   0  0  0  0  0  0
    6.9676   53.6807   17.9163 C   0  0  0  0  0  0
    6.9000   54.6640   19.1013 C   0  0  0  0  0  0
    4.9233   52.5045   14.8380 C   0  0  0  0  0  0
    5.3840   51.4809   13.8125 C   0  0  0  0  0  0
    6.4942   51.7625   12.9897 C   0  0  0  0  0  0
    6.9596   50.8212   12.0604 C   0  0  0  0  0  0
    6.2858   49.6080   11.9804 C   0  0  0  0  0  0
    5.1942   49.3402   12.7591 C   0  0  0  0  0  0
    4.7060   50.2576   13.6818 C   0  0  0  0  0  0
    4.7162   48.1067   12.4511 O   0  0  0  0  0  0
    5.7165   47.5191   11.6701 C   0  0  0  0  0  0
    6.5276   48.5460   11.1648 O   0  0  0  0  0  0
    5.1044   53.1297   29.4714 H   0  0  0  0  0  0
    5.2082   52.2867   27.9439 H   0  0  0  0  0  0
    6.4225   53.4921   28.3494 H   0  0  0  0  0  0
    3.0912   55.7628   29.6419 H   0  0  0  0  0  0
    0.8017   55.3723   30.4667 H   0  0  0  0  0  0
   -0.5488   53.5318   29.5256 H   0  0  0  0  0  0
    0.3515   52.1118   27.7173 H   0  0  0  0  0  0
    2.6446   52.4949   26.8835 H   0  0  0  0  0  0
    3.7903   54.1843   25.7813 H   0  0  0  0  0  0
    7.5045   55.8261   23.8773 H   0  0  0  0  0  0
    7.4910   55.7541   21.4600 H   0  0  0  0  0  0
    3.8658   53.4311   21.5600 H   0  0  0  0  0  0
    3.8509   53.5438   23.9703 H   0  0  0  0  0  0
    3.5687   54.4477   19.6668 H   0  0  0  0  0  0
    4.4265   55.6339   18.7212 H   0  0  0  0  0  0
    4.3902   52.6072   18.3090 H   0  0  0  0  0  0
    3.5653   53.7102   17.2883 H   0  0  0  0  0  0
    5.7343   54.6712   16.4571 H   0  0  0  0  0  0
    7.8759   53.8278   17.3295 H   0  0  0  0  0  0
    7.0925   52.6792   18.3300 H   0  0  0  0  0  0
    6.9331   55.6997   18.7579 H   0  0  0  0  0  0
    7.7937   54.5020   19.7040 H   0  0  0  0  0  0
    3.9093   52.3271   15.2036 H   0  0  0  0  0  0
    4.9864   53.5167   14.4340 H   0  0  0  0  0  0
    7.0079   52.7094   13.0762 H   0  0  0  0  0  0
    7.8162   51.0359   11.4386 H   0  0  0  0  0  0
    3.8531   50.0223   14.3036 H   0  0  0  0  0  0
    5.2871   46.9018   10.8819 H   0  0  0  0  0  0
    6.3078   46.8747   12.3198 H   0  0  0  0  0  0
    5.8222   52.4971   16.0837 N   0  3  0  0  0  0
    6.7827   52.4002   15.7889 H   0  0  0  0  0  0
    5.6338   51.6724   16.6503 H   0  0  0  0  0  0
  1  2  1  0  0  0
  1 35  1  0  0  0
  1 36  1  0  0  0
  1 37  1  0  0  0
  2  3  1  0  0  0
  2  4  1  0  0  0
  2 10  1  0  0  0
  4  9  2  0  0  0
  4  5  1  0  0  0
  5  6  2  0  0  0
  5 38  1  0  0  0
  6  7  1  0  0  0
  6 39  1  0  0  0
  7  8  2  0  0  0
  7 40  1  0  0  0
  8  9  1  0  0  0
  8 41  1  0  0  0
  9 42  1  0  0  0
 10 11  1  0  0  0
 10 43  1  0  0  0
 11 12  2  0  0  0
 11 13  1  0  0  0
 13 18  2  0  0  0
 13 14  1  0  0  0
 14 15  2  0  0  0
 14 44  1  0  0  0
 15 16  1  0  0  0
 15 45  1  0  0  0
 16 17  2  0  0  0
 16 19  1  0  0  0
 17 18  1  0  0  0
 17 46  1  0  0  0
 18 47  1  0  0  0
 19 24  1  0  0  0
 19 20  1  0  0  0
 20 21  1  0  0  0
 20 48  1  0  0  0
 20 49  1  0  0  0
 21 22  1  0  0  0
 21 50  1  0  0  0
 21 51  1  0  0  0
 22 23  1  0  0  0
 22 52  1  0  0  0
 22 64  1  0  0  0
 23 24  1  0  0  0
 23 53  1  0  0  0
 23 54  1  0  0  0
 24 55  1  0  0  0
 24 56  1  0  0  0
 25 26  1  0  0  0
 25 57  1  0  0  0
 25 58  1  0  0  0
 25 64  1  0  0  0
 26 31  2  0  0  0
 26 27  1  0  0  0
 27 28  2  0  0  0
 27 59  1  0  0  0
 28 29  1  0  0  0
 28 60  1  0  0  0
 29 34  1  0  0  0
 29 30  2  0  0  0
 30 31  1  0  0  0
 30 32  1  0  0  0
 31 61  1  0  0  0
 32 33  1  0  0  0
 33 34  1  0  0  0
 33 62  1  0  0  0
 33 63  1  0  0  0
 64 65  1  0  0  0
 64 66  1  0  0  0
M  CHG  1  64   1
M  END
> <i_i_glide_confnum>
96

> <i_i_glide_lignum>
156

> <i_i_glide_posenum>
244

> <i_i_glide_rotatable_bonds>
8

> <i_m_Source_File_Index>
2458

> <b_m_subgroup_collapsed>
0

> <r_i_docking_score>
-7.18784

> <r_i_glide_ecoul>
-7.78604

> <r_i_glide_eff_state_penalty>
0

> <r_i_glide_einternal>
4.9905

> <r_i_glide_emodel>
-74.3332

> <r_i_glide_energy>
-51.6694

> <r_i_glide_erotb>
0.669541

> <r_i_glide_esite>
-0.0578563

> <r_i_glide_evdw>
-43.8834

> <r_i_glide_gscore>
-7.18784

> <r_i_glide_hbond>
-0.52

> <r_i_glide_ligand_efficiency>
-0.211407

> <r_i_glide_ligand_efficiency_ln>
-1.588

> <r_i_glide_ligand_efficiency_sa>
-0.684877

> <r_i_glide_lipo>
-3.09034

> <r_i_glide_metal>
0

> <r_i_glide_rewards>
-0.827108

> <s_i_glide_gridfile>
wee1_glide-grid

> <s_m_Source_File>
wee1_decoys_glide_SP.sdf

> <s_m_Source_Path>
/Users/zhangxujun/Desktop

> <s_m_entry_id>
2733

> <s_m_entry_name>
wee1_decoys_glide_SP.2458

> <s_m_subgroup_title>
wee1_decoys_glide_SP

> <s_m_subgroupid>
wee1_decoys_glide_SP


$$$$
