ZINC09236942_4117
                    3D
 Schrodinger Suite 2024-2.
 49 53  0  0  1  0            999 V2000
   -6.0546   49.6050   30.1065 C   0  0  0  0  0  0
   -6.8448   50.3813   29.2663 C   0  0  0  0  0  0
   -6.2580   51.0564   28.2005 C   0  0  0  0  0  0
   -4.8778   50.9669   27.9598 C   0  0  0  0  0  0
   -4.0987   50.1826   28.8192 C   0  0  0  0  0  0
   -4.6849   49.5042   29.8859 C   0  0  0  0  0  0
   -4.2994   51.7537   26.8118 C   0  0  0  0  0  0
   -4.8760   52.8526   26.3757 N   0  0  0  0  0  0
   -4.0905   53.3929   25.3728 N   0  0  0  0  0  0
   -3.0462   52.6193   25.2408 C   0  0  0  0  0  0
   -3.1016   51.5619   26.1337 N   0  0  0  0  0  0
   -2.1791   50.5023   26.2414 N   0  0  0  0  0  0
   -0.7912   50.9286   26.0084 C   0  0  1  0  0  0
   -0.1979   50.0119   26.0489 H   0  0  0  0  0  0
   -0.7087   51.4254   24.5130 C   0  0  1  0  0  0
   -1.0820   50.6298   23.8662 H   0  0  0  0  0  0
   -1.7369   52.8962   24.0904 S   0  0  0  0  0  0
    0.7453   51.5797   23.9918 C   0  0  0  0  0  0
    1.5042   50.6160   24.0816 O   0  0  0  0  0  0
    1.1340   52.7720   23.4898 N   0  0  0  0  0  0
    2.4534   53.1507   23.2447 C   0  0  0  0  0  0
    2.9849   53.0617   21.9572 C   0  0  0  0  0  0
    4.2712   53.5418   21.7126 C   0  0  0  0  0  0
    5.0057   54.1107   22.7531 C   0  0  0  0  0  0
    4.4823   54.1780   24.0414 C   0  0  0  0  0  0
    3.2023   53.6983   24.2890 C   0  0  0  0  0  0
    6.7045   54.8969   22.4160 Br  0  0  0  0  0  0
   -0.1803   51.7758   27.1636 C   0  0  0  0  0  0
   -0.4283   51.3837   28.4853 C   0  0  0  0  0  0
    0.0675   52.1051   29.5678 C   0  0  0  0  0  0
    0.8556   53.2262   29.3385 C   0  0  0  0  0  0
    1.1477   53.6216   28.0374 C   0  0  0  0  0  0
    0.6367   52.8967   26.9613 C   0  0  0  0  0  0
   -6.5035   49.0802   30.9368 H   0  0  0  0  0  0
   -7.9078   50.4590   29.4396 H   0  0  0  0  0  0
   -6.8890   51.6532   27.5575 H   0  0  0  0  0  0
   -3.0370   50.0946   28.6943 H   0  0  0  0  0  0
   -4.0767   48.9011   30.5426 H   0  0  0  0  0  0
   -2.2583   50.0608   27.1505 H   0  0  0  0  0  0
    0.4360   53.4989   23.4276 H   0  0  0  0  0  0
    2.4003   52.6529   21.1447 H   0  0  0  0  0  0
    4.6811   53.5030   20.7134 H   0  0  0  0  0  0
    5.0578   54.6230   24.8398 H   0  0  0  0  0  0
    2.8031   53.7764   25.2875 H   0  0  0  0  0  0
   -1.0023   50.4969   28.6840 H   0  0  0  0  0  0
   -0.1570   51.7892   30.5771 H   0  0  0  0  0  0
    1.2406   53.7904   30.1750 H   0  0  0  0  0  0
    1.7561   54.4966   27.8591 H   0  0  0  0  0  0
    0.8390   53.2672   25.9771 H   0  0  0  0  0  0
  1  6  2  0  0  0
  1  2  1  0  0  0
  1 34  1  0  0  0
  2  3  2  0  0  0
  2 35  1  0  0  0
  3  4  1  0  0  0
  3 36  1  0  0  0
  4  5  2  0  0  0
  4  7  1  0  0  0
  5  6  1  0  0  0
  5 37  1  0  0  0
  6 38  1  0  0  0
  7 11  1  0  0  0
  7  8  2  0  0  0
  8  9  1  0  0  0
  9 10  2  0  0  0
 10 17  1  0  0  0
 10 11  1  0  0  0
 11 12  1  0  0  0
 12 13  1  0  0  0
 12 39  1  0  0  0
 13 14  1  0  0  0
 13 15  1  0  0  0
 13 28  1  0  0  0
 15 16  1  0  0  0
 15 17  1  0  0  0
 15 18  1  0  0  0
 18 19  2  0  0  0
 18 20  1  0  0  0
 20 21  1  0  0  0
 20 40  1  0  0  0
 21 26  2  0  0  0
 21 22  1  0  0  0
 22 23  2  0  0  0
 22 41  1  0  0  0
 23 24  1  0  0  0
 23 42  1  0  0  0
 24 25  2  0  0  0
 24 27  1  0  0  0
 25 26  1  0  0  0
 25 43  1  0  0  0
 26 44  1  0  0  0
 28 33  2  0  0  0
 28 29  1  0  0  0
 29 30  2  0  0  0
 29 45  1  0  0  0
 30 31  1  0  0  0
 30 46  1  0  0  0
 31 32  2  0  0  0
 31 47  1  0  0  0
 32 33  1  0  0  0
 32 48  1  0  0  0
 33 49  1  0  0  0
M  END
> <i_i_glide_confnum>
225

> <i_i_glide_lignum>
4118

> <i_i_glide_posenum>
260

> <i_i_glide_rotatable_bonds>
5

> <i_m_Source_File_Index>
519

> <b_m_subgroup_collapsed>
0

> <r_i_docking_score>
-2.36267

> <r_i_glide_ecoul>
-4.17756

> <r_i_glide_eff_state_penalty>
0

> <r_i_glide_einternal>
16.7928

> <r_i_glide_emodel>
-34.8325

> <r_i_glide_energy>
-42.5269

> <r_i_glide_erotb>
0.419968

> <r_i_glide_esite>
-0.105039

> <r_i_glide_evdw>
-38.3494

> <r_i_glide_gscore>
-2.36267

> <r_i_glide_hbond>
-0.0655325

> <r_i_glide_ligand_efficiency>
-0.0762151

> <r_i_glide_ligand_efficiency_ln>
-0.532854

> <r_i_glide_ligand_efficiency_sa>
-0.239421

> <r_i_glide_lipo>
-1.83785

> <r_i_glide_metal>
0

> <r_i_glide_rewards>
1.76989

> <s_i_glide_gridfile>
wee1_glide-grid

> <s_m_Source_File>
wee1_decoys_glide_SP.sdf

> <s_m_Source_Path>
/Users/zhangxujun/Desktop

> <s_m_entry_id>
794

> <s_m_entry_name>
wee1_decoys_glide_SP.519

> <s_m_subgroup_title>
wee1_decoys_glide_SP

> <s_m_subgroupid>
wee1_decoys_glide_SP


$$$$
