ZINC09059459_2735
                    3D
 Schrodinger Suite 2024-2.
 57 60  0  0  1  0            999 V2000
    8.5872   56.7422   17.3486 C   0  0  0  0  0  0
    7.4046   56.6370   18.3245 C   0  0  1  0  0  0
    7.0156   57.6434   18.4919 H   0  0  0  0  0  0
    6.2698   55.7407   17.7729 C   0  0  0  0  0  0
    5.1101   55.5320   18.7816 C   0  0  2  0  0  0
    4.5913   56.4863   18.8811 H   0  0  0  0  0  0
    5.7275   55.2389   20.0796 N   0  0  0  0  0  0
    6.9846   55.6062   20.4899 C   0  0  0  0  0  0
    7.1583   55.2967   21.7437 N   0  0  0  0  0  0
    5.9882   54.7734   22.1109 C   0  0  0  0  0  0
    5.0810   54.7459   21.1469 N   0  0  0  0  0  0
    5.7825   54.2357   23.4364 C   0  0  0  0  0  0
    6.7215   53.6968   24.0170 O   0  0  0  0  0  0
    4.5375   54.4123   23.9434 N   0  0  0  0  0  0
    4.0855   54.0651   25.2211 C   0  0  0  0  0  0
    4.7177   53.9807   26.4775 C   0  0  0  0  0  0
    3.8554   53.5630   27.5053 C   0  0  0  0  0  0
    2.5269   53.4663   27.0825 C   0  0  0  0  0  0
    2.3922   53.6967   25.3640 S   0  0  0  0  0  0
    1.3342   53.2599   28.0135 C   0  0  0  0  0  0
    1.8160   52.7983   29.4329 C   0  0  1  0  0  0
    2.1016   51.7489   29.3408 H   0  0  0  0  0  0
    3.0676   53.6003   29.8648 C   0  0  0  0  0  0
    4.2637   53.3249   28.9618 C   0  0  0  0  0  0
    0.6867   52.8414   30.5281 C   0  0  0  0  0  0
    0.2716   54.2961   30.8787 C   0  0  0  0  0  0
    1.1756   52.1879   31.8479 C   0  0  0  0  0  0
   -0.5497   52.0517   30.0348 C   0  0  0  0  0  0
    6.0969   54.2725   26.7902 C   0  0  0  0  0  0
    7.1879   54.4967   27.0599 N   0  0  0  0  0  0
    7.9085   56.1141   19.5990 N   0  0  0  0  0  0
    4.0682   54.4944   18.3154 C   0  0  0  0  0  0
    3.4091   54.8939   17.2269 F   0  0  0  0  0  0
    4.5988   53.2969   18.0756 F   0  0  0  0  0  0
    8.2666   57.1462   16.3869 H   0  0  0  0  0  0
    9.3665   57.4043   17.7331 H   0  0  0  0  0  0
    9.0446   55.7686   17.1607 H   0  0  0  0  0  0
    6.6754   54.7755   17.4617 H   0  0  0  0  0  0
    5.8688   56.1660   16.8506 H   0  0  0  0  0  0
    3.8270   54.6706   23.2741 H   0  0  0  0  0  0
    0.6553   52.5218   27.5844 H   0  0  0  0  0  0
    0.7897   54.2010   28.0843 H   0  0  0  0  0  0
    2.8587   54.6684   29.9345 H   0  0  0  0  0  0
    3.3669   53.2965   30.8656 H   0  0  0  0  0  0
    5.0903   53.9659   29.2691 H   0  0  0  0  0  0
    4.6169   52.2995   29.0849 H   0  0  0  0  0  0
   -0.4954   54.3093   31.6491 H   0  0  0  0  0  0
   -0.0976   54.8568   30.0254 H   0  0  0  0  0  0
    1.1023   54.8740   31.2814 H   0  0  0  0  0  0
    1.8207   51.3261   31.6825 H   0  0  0  0  0  0
    1.7377   52.8965   32.4562 H   0  0  0  0  0  0
    0.3441   51.8616   32.4721 H   0  0  0  0  0  0
   -0.2789   51.0577   29.6809 H   0  0  0  0  0  0
   -1.2939   51.9135   30.8215 H   0  0  0  0  0  0
   -1.0539   52.5500   29.2078 H   0  0  0  0  0  0
    8.8089   56.4632   19.8972 H   0  0  0  0  0  0
    3.3053   54.3362   19.0780 H   0  0  0  0  0  0
  1  2  1  0  0  0
  1 35  1  0  0  0
  1 36  1  0  0  0
  1 37  1  0  0  0
  2  3  1  0  0  0
  2 31  1  0  0  0
  2  4  1  0  0  0
  4  5  1  0  0  0
  4 38  1  0  0  0
  4 39  1  0  0  0
  5  6  1  0  0  0
  5  7  1  0  0  0
  5 32  1  0  0  0
  7 11  1  0  0  0
  7  8  1  0  0  0
  8  9  2  0  0  0
  8 31  1  0  0  0
  9 10  1  0  0  0
 10 11  2  0  0  0
 10 12  1  0  0  0
 12 13  2  0  0  0
 12 14  1  0  0  0
 14 15  1  0  0  0
 14 40  1  0  0  0
 15 19  1  0  0  0
 15 16  2  0  0  0
 16 17  1  0  0  0
 16 29  1  0  0  0
 17 24  1  0  0  0
 17 18  2  0  0  0
 18 19  1  0  0  0
 18 20  1  0  0  0
 20 21  1  0  0  0
 20 41  1  0  0  0
 20 42  1  0  0  0
 21 22  1  0  0  0
 21 23  1  0  0  0
 21 25  1  0  0  0
 23 24  1  0  0  0
 23 43  1  0  0  0
 23 44  1  0  0  0
 24 45  1  0  0  0
 24 46  1  0  0  0
 25 26  1  0  0  0
 25 27  1  0  0  0
 25 28  1  0  0  0
 26 47  1  0  0  0
 26 48  1  0  0  0
 26 49  1  0  0  0
 27 50  1  0  0  0
 27 51  1  0  0  0
 27 52  1  0  0  0
 28 53  1  0  0  0
 28 54  1  0  0  0
 28 55  1  0  0  0
 29 30  3  0  0  0
 31 56  1  0  0  0
 32 33  1  0  0  0
 32 34  1  0  0  0
 32 57  1  0  0  0
M  END
> <i_i_glide_confnum>
9

> <i_i_glide_lignum>
2736

> <i_i_glide_posenum>
228

> <i_i_glide_rotatable_bonds>
6

> <i_m_Source_File_Index>
4239

> <b_m_subgroup_collapsed>
0

> <r_i_docking_score>
-6.30019

> <r_i_glide_ecoul>
-2.04481

> <r_i_glide_eff_state_penalty>
0

> <r_i_glide_einternal>
13.2561

> <r_i_glide_emodel>
-54.9504

> <r_i_glide_energy>
-45.272

> <r_i_glide_erotb>
0.298737

> <r_i_glide_esite>
-0.0772274

> <r_i_glide_evdw>
-43.2272

> <r_i_glide_gscore>
-6.30019

> <r_i_glide_hbond>
-0.175651

> <r_i_glide_ligand_efficiency>
-0.203232

> <r_i_glide_ligand_efficiency_ln>
-1.42089

> <r_i_glide_ligand_efficiency_sa>
-0.638429

> <r_i_glide_lipo>
-1.95315

> <r_i_glide_metal>
0

> <r_i_glide_rewards>
-1.92482

> <s_i_glide_gridfile>
wee1_glide-grid

> <s_m_Source_File>
wee1_decoys_glide_SP.sdf

> <s_m_Source_Path>
/Users/zhangxujun/Desktop

> <s_m_entry_id>
4514

> <s_m_entry_name>
wee1_decoys_glide_SP.4239

> <s_m_subgroup_title>
wee1_decoys_glide_SP

> <s_m_subgroupid>
wee1_decoys_glide_SP


$$$$
