ZINC44460423_1793
                    3D
 Schrodinger Suite 2024-2.
 54 57  0  0  1  0            999 V2000
    1.7603   49.4148   22.3293 C   0  0  0  0  0  0
    1.4113   50.2377   21.0361 C   0  0  2  0  0  0
    2.7653   50.4968   20.2547 C   0  0  0  0  0  0
    3.3431   51.9371   20.4172 C   0  0  2  0  0  0
    4.4063   51.9140   20.1784 H   0  0  0  0  0  0
    3.1232   52.4487   21.8839 C   0  0  2  0  0  0
    3.4739   51.6178   22.4816 H   0  0  0  0  0  0
    1.6077   52.6485   22.1812 C   0  0  1  0  0  0
    1.3105   53.6156   21.7710 H   0  0  0  0  0  0
    0.7381   51.5868   21.4386 C   0  0  2  0  0  0
    0.5519   52.0940   20.4968 H   0  0  0  0  0  0
   -0.6687   51.2172   21.9139 C   0  0  0  0  0  0
   -1.0748   50.0327   21.0089 C   0  0  0  0  0  0
    0.2124   49.5157   20.2783 C   0  0  1  0  0  0
    0.1231   49.8009   18.7303 C   0  0  0  0  0  0
    0.3038   48.8950   17.9045 O   0  0  0  0  0  0
   -0.1796   51.2331   18.2368 C   0  0  0  0  0  0
   -0.4749   51.2376   16.8499 O   0  0  0  0  0  0
    0.2662   48.0967   20.3819 O   0  0  0  0  0  0
    1.4309   52.7494   23.7022 C   0  0  0  0  0  0
    2.1156   54.0283   24.2163 C   0  0  0  0  0  0
    3.6116   54.0382   23.8736 C   0  0  0  0  0  0
    4.5285   54.4125   24.8020 C   0  0  0  0  0  0
    5.9754   54.4341   24.5893 C   0  0  0  0  0  0
    6.7686   54.9691   25.3627 O   0  0  0  0  0  0
    6.3745   53.6965   23.3924 C   0  0  0  0  0  0
    5.5049   53.2957   22.4390 C   0  0  0  0  0  0
    4.0169   53.6384   22.4108 C   0  0  1  0  0  0
    3.9033   54.8740   21.5123 C   0  0  0  0  0  0
    2.7505   52.7909   19.4495 O   0  0  0  0  0  0
    0.8714   49.1019   22.8772 H   0  0  0  0  0  0
    2.2977   48.4990   22.0786 H   0  0  0  0  0  0
    2.3824   49.9407   23.0462 H   0  0  0  0  0  0
    3.5045   49.7679   20.5814 H   0  0  0  0  0  0
    2.6401   50.3537   19.1821 H   0  0  0  0  0  0
   -0.6382   50.8806   22.9514 H   0  0  0  0  0  0
   -1.3591   52.0616   21.8852 H   0  0  0  0  0  0
   -1.5116   49.2512   21.6340 H   0  0  0  0  0  0
   -1.8758   50.3221   20.3267 H   0  0  0  0  0  0
   -1.0131   51.6731   18.7829 H   0  0  0  0  0  0
    0.6979   51.8598   18.3814 H   0  0  0  0  0  0
    0.2165   50.7430   16.3976 H   0  0  0  0  0  0
    0.7634   47.7802   19.6192 H   0  0  0  0  0  0
    0.3689   52.8256   23.9374 H   0  0  0  0  0  0
    1.7611   51.8456   24.2153 H   0  0  0  0  0  0
    1.6276   54.9046   23.7908 H   0  0  0  0  0  0
    1.9648   54.0972   25.2946 H   0  0  0  0  0  0
    4.1702   54.6967   25.7802 H   0  0  0  0  0  0
    7.4151   53.4282   23.2813 H   0  0  0  0  0  0
    5.9038   52.7418   21.6072 H   0  0  0  0  0  0
    2.9206   55.2967   21.6821 H   0  0  0  0  0  0
    4.6678   55.6388   21.6818 H   0  0  0  0  0  0
    4.0101   54.6438   20.4559 H   0  0  0  0  0  0
    2.8580   53.7093   19.7169 H   0  0  0  0  0  0
  1  2  1  0  0  0
  1 31  1  0  0  0
  1 32  1  0  0  0
  1 33  1  0  0  0
  2 10  1  0  0  0
  2 14  1  0  0  0
  2  3  1  0  0  0
  3  4  1  0  0  0
  3 34  1  0  0  0
  3 35  1  0  0  0
  4  5  1  0  0  0
  4  6  1  0  0  0
  4 30  1  0  0  0
  6  7  1  0  0  0
  6 28  1  0  0  0
  6  8  1  0  0  0
  8  9  1  0  0  0
  8 10  1  0  0  0
  8 20  1  0  0  0
 10 11  1  0  0  0
 10 12  1  0  0  0
 12 13  1  0  0  0
 12 36  1  0  0  0
 12 37  1  0  0  0
 13 14  1  0  0  0
 13 38  1  0  0  0
 13 39  1  0  0  0
 14 15  1  0  0  0
 14 19  1  0  0  0
 15 16  2  0  0  0
 15 17  1  0  0  0
 17 18  1  0  0  0
 17 40  1  0  0  0
 17 41  1  0  0  0
 18 42  1  0  0  0
 19 43  1  0  0  0
 20 21  1  0  0  0
 20 44  1  0  0  0
 20 45  1  0  0  0
 21 22  1  0  0  0
 21 46  1  0  0  0
 21 47  1  0  0  0
 22 28  1  0  0  0
 22 23  2  0  0  0
 23 24  1  0  0  0
 23 48  1  0  0  0
 24 25  2  0  0  0
 24 26  1  0  0  0
 26 27  2  0  0  0
 26 49  1  0  0  0
 27 28  1  0  0  0
 27 50  1  0  0  0
 28 29  1  0  0  0
 29 51  1  0  0  0
 29 52  1  0  0  0
 29 53  1  0  0  0
 30 54  1  0  0  0
M  END
> <i_i_glide_confnum>
3

> <i_i_glide_lignum>
1794

> <i_i_glide_posenum>
219

> <i_i_glide_rotatable_bonds>
5

> <i_m_Source_File_Index>
3241

> <b_m_subgroup_collapsed>
0

> <r_i_docking_score>
-4.87461

> <r_i_glide_ecoul>
-2.66547

> <r_i_glide_eff_state_penalty>
0

> <r_i_glide_einternal>
3.09476

> <r_i_glide_emodel>
-32.8661

> <r_i_glide_energy>
-24.8311

> <r_i_glide_erotb>
0.295244

> <r_i_glide_esite>
-0.0100851

> <r_i_glide_evdw>
-22.1656

> <r_i_glide_gscore>
-4.87461

> <r_i_glide_hbond>
-0.343859

> <r_i_glide_ligand_efficiency>
-0.187485

> <r_i_glide_ligand_efficiency_ln>
-1.14479

> <r_i_glide_ligand_efficiency_sa>
-0.555423

> <r_i_glide_lipo>
-1.84276

> <r_i_glide_metal>
0

> <r_i_glide_rewards>
-1.46504

> <s_i_glide_gridfile>
wee1_glide-grid

> <s_m_Source_File>
wee1_decoys_glide_SP.sdf

> <s_m_Source_Path>
/Users/zhangxujun/Desktop

> <s_m_entry_id>
3516

> <s_m_entry_name>
wee1_decoys_glide_SP.3241

> <s_m_subgroup_title>
wee1_decoys_glide_SP

> <s_m_subgroupid>
wee1_decoys_glide_SP


$$$$
