ZINC09215856_4871
                    3D
 Schrodinger Suite 2024-2.
 64 67  0  0  1  0            999 V2000
    2.4295   55.6640   28.8806 C   0  0  0  0  0  0
    3.2637   54.7436   28.1864 O   0  0  0  0  0  0
    2.6157   53.9176   27.2977 C   0  0  0  0  0  0
    2.8530   54.0960   25.9391 C   0  0  0  0  0  0
    2.1954   53.3149   24.9929 C   0  0  0  0  0  0
    1.3612   52.2462   25.3685 C   0  0  0  0  0  0
    1.1668   52.0723   26.7508 C   0  0  0  0  0  0
    1.7447   52.9082   27.7206 C   0  0  0  0  0  0
    1.5284   52.7717   29.0805 O   0  0  0  0  0  0
    0.3993   52.0259   29.5269 C   0  0  0  0  0  0
    0.7958   51.1777   24.3635 C   0  0  1  0  0  0
    1.3952   50.2812   24.5339 H   0  0  0  0  0  0
   -0.7181   50.7536   24.4469 C   0  0  1  0  0  0
   -0.7927   49.9441   23.7154 H   0  0  0  0  0  0
   -1.2129   50.0622   25.7481 C   0  0  0  0  0  0
   -2.5902   49.4138   25.5517 C   0  0  0  0  0  0
   -3.6228   50.4652   25.1149 C   0  0  0  0  0  0
   -3.1761   51.2551   23.8639 C   0  0  0  0  0  0
   -1.7309   51.8286   23.9095 C   0  0  2  0  0  0
   -1.2692   52.4060   22.5499 C   0  0  0  0  0  0
    0.2426   52.7063   22.3986 C   0  0  0  0  0  0
    2.5154   51.3264   22.3687 C   0  0  0  0  0  0
    2.7456   51.5339   20.8617 C   0  0  0  0  0  0
    3.8084   52.0521   20.5303 O   0  0  0  0  0  0
    1.7738   51.1448   20.0064 N   0  0  0  0  0  0
    1.6721   51.3547   18.6177 C   0  0  0  0  0  0
    0.4387   51.0318   18.0447 C   0  0  0  0  0  0
    0.2235   51.2241   16.6822 C   0  0  0  0  0  0
    1.2452   51.7366   15.8863 C   0  0  0  0  0  0
    2.4808   52.0562   16.4433 C   0  0  0  0  0  0
    2.7002   51.8629   17.8044 C   0  0  0  0  0  0
    0.9792   51.9696   14.1975 Cl  0  0  0  0  0  0
   -1.6445   52.8458   24.8841 O   0  0  0  0  0  0
    3.0457   56.4581   29.3022 H   0  0  0  0  0  0
    1.6906   56.1269   28.2255 H   0  0  0  0  0  0
    1.9047   55.1858   29.7072 H   0  0  0  0  0  0
    3.5168   54.8844   25.6161 H   0  0  0  0  0  0
    2.3983   53.5746   23.9717 H   0  0  0  0  0  0
    0.6314   51.2139   27.1019 H   0  0  0  0  0  0
    0.3092   52.1128   30.6103 H   0  0  0  0  0  0
   -0.5298   52.3970   29.0878 H   0  0  0  0  0  0
    0.4976   50.9643   29.2917 H   0  0  0  0  0  0
   -0.5135   49.2718   26.0310 H   0  0  0  0  0  0
   -1.2555   50.7359   26.5994 H   0  0  0  0  0  0
   -2.5281   48.6176   24.8080 H   0  0  0  0  0  0
   -2.9057   48.9348   26.4808 H   0  0  0  0  0  0
   -4.5834   49.9840   24.9261 H   0  0  0  0  0  0
   -3.7978   51.1594   25.9379 H   0  0  0  0  0  0
   -3.8843   52.0567   23.6504 H   0  0  0  0  0  0
   -3.2606   50.5988   22.9970 H   0  0  0  0  0  0
   -1.8688   53.2943   22.3506 H   0  0  0  0  0  0
   -1.5579   51.7131   21.7587 H   0  0  0  0  0  0
    0.5547   53.5633   22.9887 H   0  0  0  0  0  0
    0.4512   52.9069   21.3489 H   0  0  0  0  0  0
    2.8642   50.3329   22.6547 H   0  0  0  0  0  0
    3.0992   52.0695   22.8890 H   0  0  0  0  0  0
    0.9768   50.6797   20.4074 H   0  0  0  0  0  0
   -0.3661   50.6369   18.6485 H   0  0  0  0  0  0
   -0.7303   50.9723   16.2432 H   0  0  0  0  0  0
    3.2797   52.4310   15.8205 H   0  0  0  0  0  0
    3.6819   52.0915   18.1853 H   0  0  0  0  0  0
   -1.8218   52.4498   25.7417 H   0  0  0  0  0  0
    1.0270   51.4466   22.8409 N   0  3  1  0  0  0
    0.5783   50.6860   22.3515 H   0  0  0  0  0  0
  1  2  1  0  0  0
  1 34  1  0  0  0
  1 35  1  0  0  0
  1 36  1  0  0  0
  2  3  1  0  0  0
  3  8  2  0  0  0
  3  4  1  0  0  0
  4  5  2  0  0  0
  4 37  1  0  0  0
  5  6  1  0  0  0
  5 38  1  0  0  0
  6  7  2  0  0  0
  6 11  1  0  0  0
  7  8  1  0  0  0
  7 39  1  0  0  0
  8  9  1  0  0  0
  9 10  1  0  0  0
 10 40  1  0  0  0
 10 41  1  0  0  0
 10 42  1  0  0  0
 11 12  1  0  0  0
 11 13  1  0  0  0
 11 63  1  0  0  0
 13 14  1  0  0  0
 13 19  1  0  0  0
 13 15  1  0  0  0
 15 16  1  0  0  0
 15 43  1  0  0  0
 15 44  1  0  0  0
 16 17  1  0  0  0
 16 45  1  0  0  0
 16 46  1  0  0  0
 17 18  1  0  0  0
 17 47  1  0  0  0
 17 48  1  0  0  0
 18 19  1  0  0  0
 18 49  1  0  0  0
 18 50  1  0  0  0
 19 20  1  0  0  0
 19 33  1  0  0  0
 20 21  1  0  0  0
 20 51  1  0  0  0
 20 52  1  0  0  0
 21 53  1  0  0  0
 21 54  1  0  0  0
 21 63  1  0  0  0
 22 23  1  0  0  0
 22 55  1  0  0  0
 22 56  1  0  0  0
 22 63  1  0  0  0
 23 24  2  0  0  0
 23 25  1  0  0  0
 25 26  1  0  0  0
 25 57  1  0  0  0
 26 31  2  0  0  0
 26 27  1  0  0  0
 27 28  2  0  0  0
 27 58  1  0  0  0
 28 29  1  0  0  0
 28 59  1  0  0  0
 29 30  2  0  0  0
 29 32  1  0  0  0
 30 31  1  0  0  0
 30 60  1  0  0  0
 31 61  1  0  0  0
 33 62  1  0  0  0
 63 64  1  0  0  0
M  CHG  1  63   1
M  END
> <i_i_glide_confnum>
3

> <i_i_glide_lignum>
4872

> <i_i_glide_posenum>
186

> <i_i_glide_rotatable_bonds>
8

> <i_m_Source_File_Index>
458

> <b_m_subgroup_collapsed>
0

> <r_i_docking_score>
-2.79518

> <r_i_glide_ecoul>
-0.638997

> <r_i_glide_eff_state_penalty>
0

> <r_i_glide_einternal>
15.3129

> <r_i_glide_emodel>
-24.711

> <r_i_glide_energy>
-27.1331

> <r_i_glide_erotb>
0.380457

> <r_i_glide_esite>
-0.0195564

> <r_i_glide_evdw>
-26.4941

> <r_i_glide_gscore>
-2.79518

> <r_i_glide_hbond>
0

> <r_i_glide_ligand_efficiency>
-0.0873495

> <r_i_glide_ligand_efficiency_ln>
-0.625918

> <r_i_glide_ligand_efficiency_sa>
-0.277317

> <r_i_glide_lipo>
-1.46413

> <r_i_glide_metal>
0

> <r_i_glide_rewards>
-0.271395

> <s_i_glide_gridfile>
wee1_glide-grid

> <s_m_Source_File>
wee1_decoys_glide_SP.sdf

> <s_m_Source_Path>
/Users/zhangxujun/Desktop

> <s_m_entry_id>
733

> <s_m_entry_name>
wee1_decoys_glide_SP.458

> <s_m_subgroup_title>
wee1_decoys_glide_SP

> <s_m_subgroupid>
wee1_decoys_glide_SP


$$$$
