ZINC16094811_2096
                    3D
 Schrodinger Suite 2024-2.
 39 40  0  0  1  0            999 V2000
    6.9647   55.7298   24.9062 C   0  0  0  0  0  0
    6.7033   55.2958   26.2385 O   0  0  0  0  0  0
    5.4903   54.6873   26.5048 C   0  0  0  0  0  0
    4.4942   54.4856   25.5406 C   0  0  0  0  0  0
    3.2985   53.8181   25.8388 C   0  0  0  0  0  0
    3.0903   53.4052   27.1635 C   0  0  0  0  0  0
    4.0584   53.6224   28.1592 C   0  0  0  0  0  0
    5.2521   54.2558   27.8089 C   0  0  0  0  0  0
    3.9182   53.2416   29.4808 O   0  0  0  0  0  0
    2.7409   52.5485   29.8827 C   0  0  0  0  0  0
    2.2652   53.5191   24.7668 C   0  0  0  0  0  0
    1.2293   52.9122   25.0508 O   0  0  0  0  0  0
    2.5487   53.9456   23.5173 N   0  0  0  0  0  0
    1.7803   53.5871   22.4280 N   0  0  0  0  0  0
    2.4849   52.4134   21.2993 S   0  0  0  0  0  0
    3.1062   51.3384   22.0772 O   0  0  0  0  0  0
    1.4221   52.0951   20.3391 O   0  0  0  0  0  0
    3.7770   53.2968   20.3725 C   0  0  0  0  0  0
    3.5045   53.6628   19.0464 C   0  0  0  0  0  0
    4.3888   54.4552   18.3176 C   0  0  0  0  0  0
    5.5759   54.8848   18.9008 C   0  0  0  0  0  0
    5.8843   54.4967   20.2011 C   0  0  0  0  0  0
    5.0110   53.6793   20.9262 C   0  0  0  0  0  0
    5.5929   53.0759   22.6301 Br  0  0  0  0  0  0
    3.9578   54.9741   16.5386 Br  0  0  0  0  0  0
    7.9046   56.2602   24.8715 H   0  0  0  0  0  0
    7.0471   54.8895   24.2187 H   0  0  0  0  0  0
    6.2136   56.4341   24.5452 H   0  0  0  0  0  0
    4.6663   54.8368   24.5391 H   0  0  0  0  0  0
    2.1700   52.8964   27.4104 H   0  0  0  0  0  0
    6.0080   54.4175   28.5641 H   0  0  0  0  0  0
    2.8065   52.3120   30.9453 H   0  0  0  0  0  0
    2.6246   51.6077   29.3413 H   0  0  0  0  0  0
    1.8474   53.1577   29.7362 H   0  0  0  0  0  0
    3.3660   54.4988   23.3067 H   0  0  0  0  0  0
    1.4117   54.4144   21.9475 H   0  0  0  0  0  0
    2.5731   53.3739   18.5812 H   0  0  0  0  0  0
    6.2609   55.5038   18.3400 H   0  0  0  0  0  0
    6.8216   54.8081   20.6376 H   0  0  0  0  0  0
  1  2  1  0  0  0
  1 26  1  0  0  0
  1 27  1  0  0  0
  1 28  1  0  0  0
  2  3  1  0  0  0
  3  8  2  0  0  0
  3  4  1  0  0  0
  4  5  2  0  0  0
  4 29  1  0  0  0
  5  6  1  0  0  0
  5 11  1  0  0  0
  6  7  2  0  0  0
  6 30  1  0  0  0
  7  8  1  0  0  0
  7  9  1  0  0  0
  8 31  1  0  0  0
  9 10  1  0  0  0
 10 32  1  0  0  0
 10 33  1  0  0  0
 10 34  1  0  0  0
 11 12  2  0  0  0
 11 13  1  0  0  0
 13 14  1  0  0  0
 13 35  1  0  0  0
 14 15  1  0  0  0
 14 36  1  0  0  0
 15 16  2  0  0  0
 15 17  2  0  0  0
 15 18  1  0  0  0
 18 23  2  0  0  0
 18 19  1  0  0  0
 19 20  2  0  0  0
 19 37  1  0  0  0
 20 21  1  0  0  0
 20 25  1  0  0  0
 21 22  2  0  0  0
 21 38  1  0  0  0
 22 23  1  0  0  0
 22 39  1  0  0  0
 23 24  1  0  0  0
M  END
> <i_i_glide_confnum>
4

> <i_i_glide_lignum>
2097

> <i_i_glide_posenum>
262

> <i_i_glide_rotatable_bonds>
7

> <i_m_Source_File_Index>
5710

> <b_m_subgroup_collapsed>
0

> <r_i_docking_score>
-4.70458

> <r_i_glide_ecoul>
-2.98079

> <r_i_glide_eff_state_penalty>
0

> <r_i_glide_einternal>
9.13142

> <r_i_glide_emodel>
-46.9705

> <r_i_glide_energy>
-38.9908

> <r_i_glide_erotb>
0.333781

> <r_i_glide_esite>
-0.0247365

> <r_i_glide_evdw>
-36.01

> <r_i_glide_gscore>
-4.70458

> <r_i_glide_hbond>
-0.559707

> <r_i_glide_ligand_efficiency>
-0.188183

> <r_i_glide_ligand_efficiency_ln>
-1.11513

> <r_i_glide_ligand_efficiency_sa>
-0.550251

> <r_i_glide_lipo>
-1.99537

> <r_i_glide_metal>
0

> <r_i_glide_rewards>
-0.21093

> <s_i_glide_gridfile>
wee1_glide-grid

> <s_m_Source_File>
wee1_decoys_glide_SP.sdf

> <s_m_Source_Path>
/Users/zhangxujun/Desktop

> <s_m_entry_id>
5985

> <s_m_entry_name>
wee1_decoys_glide_SP.5710

> <s_m_subgroup_title>
wee1_decoys_glide_SP

> <s_m_subgroupid>
wee1_decoys_glide_SP


$$$$
