ZINC16312552_5389
                    3D
 Schrodinger Suite 2024-2.
 69 73  0  0  1  0            999 V2000
    0.5306   58.4563   15.5735 C   0  0  0  0  0  0
    1.7961   57.7608   16.0566 C   0  0  0  0  0  0
    2.9955   58.4781   16.0816 C   0  0  0  0  0  0
    4.1635   57.8765   16.5453 C   0  0  0  0  0  0
    4.1564   56.5569   16.9973 C   0  0  0  0  0  0
    2.9505   55.8434   16.9830 C   0  0  0  0  0  0
    1.7720   56.4317   16.5109 C   0  0  0  0  0  0
    0.4855   55.6183   16.5202 C   0  0  0  0  0  0
    5.3706   56.0175   17.4489 N   0  0  0  0  0  0
    5.6599   54.3259   17.9045 S   0  0  0  0  0  0
    4.8280   53.4672   17.0580 O   0  0  0  0  0  0
    7.1181   54.1713   17.9290 O   0  0  0  0  0  0
    5.1092   54.1888   19.6005 C   0  0  0  0  0  0
    5.9214   54.6909   20.6126 C   0  0  0  0  0  0
    5.5753   54.4999   21.9454 C   0  0  0  0  0  0
    4.3887   53.8462   22.2696 C   0  0  0  0  0  0
    3.5058   53.4158   21.2688 C   0  0  0  0  0  0
    3.9042   53.5682   19.9312 C   0  0  0  0  0  0
    2.1656   52.7760   21.6220 C   0  0  1  0  0  0
    1.4054   53.2961   21.0365 H   0  0  0  0  0  0
    2.1499   51.2965   21.2959 C   0  0  0  0  0  0
    1.8691   50.5452   22.3687 C   0  0  0  0  0  0
    1.6118   51.3909   23.5910 C   0  0  0  0  0  0
    1.7810   52.8438   23.1257 C   0  0  1  0  0  0
    0.7787   53.2809   23.1532 H   0  0  0  0  0  0
    2.6665   53.7818   24.0344 C   0  0  2  0  0  0
    2.3542   54.8080   23.8278 H   0  0  0  0  0  0
    4.0693   53.7330   23.6258 N   0  0  0  0  0  0
    2.4803   53.6569   25.5692 C   0  0  0  0  0  0
    3.5103   54.0231   26.4538 C   0  0  0  0  0  0
    3.3643   53.9107   27.8455 C   0  0  0  0  0  0
    2.1497   53.4539   28.3644 C   0  0  0  0  0  0
    1.1059   53.0744   27.5127 C   0  0  0  0  0  0
    1.2871   53.1851   26.1248 C   0  0  0  0  0  0
   -0.0544   52.6076   28.1023 O   0  0  0  0  0  0
   -1.0768   52.0385   27.2907 C   0  0  0  0  0  0
    1.9819   53.3788   29.7283 O   0  0  0  0  0  0
    2.2681   52.0966   30.2684 C   0  0  0  0  0  0
    4.3625   54.2140   28.7538 O   0  0  0  0  0  0
    5.6966   54.3954   28.2942 C   0  0  0  0  0  0
    0.6844   59.5265   15.4250 H   0  0  0  0  0  0
    0.1804   58.0166   14.6407 H   0  0  0  0  0  0
   -0.2632   58.3482   16.3125 H   0  0  0  0  0  0
    3.0309   59.5094   15.7562 H   0  0  0  0  0  0
    5.0746   58.4577   16.5574 H   0  0  0  0  0  0
    2.9028   54.8328   17.3544 H   0  0  0  0  0  0
    0.6646   54.5682   16.7562 H   0  0  0  0  0  0
    0.0065   55.6527   15.5406 H   0  0  0  0  0  0
   -0.2133   56.0252   17.2511 H   0  0  0  0  0  0
    6.1694   56.6310   17.4883 H   0  0  0  0  0  0
    6.8532   55.1839   20.3715 H   0  0  0  0  0  0
    6.2306   54.8677   22.7224 H   0  0  0  0  0  0
    3.2659   53.1940   19.1439 H   0  0  0  0  0  0
    2.3523   50.9286   20.3004 H   0  0  0  0  0  0
    1.8112   49.4657   22.3984 H   0  0  0  0  0  0
    2.3043   51.1571   24.3839 H   0  0  0  0  0  0
    0.6041   51.1998   23.9596 H   0  0  0  0  0  0
    4.7029   54.1038   24.3145 H   0  0  0  0  0  0
    4.4380   54.4007   26.0582 H   0  0  0  0  0  0
    0.4748   52.9268   25.4668 H   0  0  0  0  0  0
   -1.8657   51.6443   27.9312 H   0  0  0  0  0  0
   -1.5270   52.7848   26.6339 H   0  0  0  0  0  0
   -0.6980   51.2096   26.6901 H   0  0  0  0  0  0
    1.9577   52.0674   31.3133 H   0  0  0  0  0  0
    1.7462   51.2991   29.7331 H   0  0  0  0  0  0
    3.3389   51.8906   30.2322 H   0  0  0  0  0  0
    6.3532   54.4968   29.1568 H   0  0  0  0  0  0
    6.0408   53.5359   27.7150 H   0  0  0  0  0  0
    5.7968   55.2963   27.6904 H   0  0  0  0  0  0
  1  2  1  0  0  0
  1 41  1  0  0  0
  1 42  1  0  0  0
  1 43  1  0  0  0
  2  7  2  0  0  0
  2  3  1  0  0  0
  3  4  2  0  0  0
  3 44  1  0  0  0
  4  5  1  0  0  0
  4 45  1  0  0  0
  5  6  2  0  0  0
  5  9  1  0  0  0
  6  7  1  0  0  0
  6 46  1  0  0  0
  7  8  1  0  0  0
  8 47  1  0  0  0
  8 48  1  0  0  0
  8 49  1  0  0  0
  9 10  1  0  0  0
  9 50  1  0  0  0
 10 11  2  0  0  0
 10 12  2  0  0  0
 10 13  1  0  0  0
 13 18  2  0  0  0
 13 14  1  0  0  0
 14 15  2  0  0  0
 14 51  1  0  0  0
 15 16  1  0  0  0
 15 52  1  0  0  0
 16 28  1  0  0  0
 16 17  2  0  0  0
 17 18  1  0  0  0
 17 19  1  0  0  0
 18 53  1  0  0  0
 19 20  1  0  0  0
 19 24  1  0  0  0
 19 21  1  0  0  0
 21 22  2  0  0  0
 21 54  1  0  0  0
 22 23  1  0  0  0
 22 55  1  0  0  0
 23 24  1  0  0  0
 23 56  1  0  0  0
 23 57  1  0  0  0
 24 25  1  0  0  0
 24 26  1  0  0  0
 26 27  1  0  0  0
 26 28  1  0  0  0
 26 29  1  0  0  0
 28 58  1  0  0  0
 29 34  2  0  0  0
 29 30  1  0  0  0
 30 31  2  0  0  0
 30 59  1  0  0  0
 31 32  1  0  0  0
 31 39  1  0  0  0
 32 33  2  0  0  0
 32 37  1  0  0  0
 33 34  1  0  0  0
 33 35  1  0  0  0
 34 60  1  0  0  0
 35 36  1  0  0  0
 36 61  1  0  0  0
 36 62  1  0  0  0
 36 63  1  0  0  0
 37 38  1  0  0  0
 38 64  1  0  0  0
 38 65  1  0  0  0
 38 66  1  0  0  0
 39 40  1  0  0  0
 40 67  1  0  0  0
 40 68  1  0  0  0
 40 69  1  0  0  0
M  END
> <i_i_glide_confnum>
23

> <i_i_glide_lignum>
5390

> <i_i_glide_posenum>
231

> <i_i_glide_rotatable_bonds>
7

> <i_m_Source_File_Index>
2878

> <b_m_subgroup_collapsed>
0

> <r_i_docking_score>
-4.63902

> <r_i_glide_ecoul>
-1.06892

> <r_i_glide_eff_state_penalty>
0

> <r_i_glide_einternal>
3.84805

> <r_i_glide_emodel>
-54.537

> <r_i_glide_energy>
-42.8324

> <r_i_glide_erotb>
0.303283

> <r_i_glide_esite>
-0.0617838

> <r_i_glide_evdw>
-41.7634

> <r_i_glide_gscore>
-4.63902

> <r_i_glide_hbond>
0

> <r_i_glide_ligand_efficiency>
-0.125379

> <r_i_glide_ligand_efficiency_ln>
-1.00609

> <r_i_glide_ligand_efficiency_sa>
-0.41779

> <r_i_glide_lipo>
-2.74144

> <r_i_glide_metal>
0

> <r_i_glide_rewards>
0.109431

> <s_i_glide_gridfile>
wee1_glide-grid

> <s_m_Source_File>
wee1_decoys_glide_SP.sdf

> <s_m_Source_Path>
/Users/zhangxujun/Desktop

> <s_m_entry_id>
3153

> <s_m_entry_name>
wee1_decoys_glide_SP.2878

> <s_m_subgroup_title>
wee1_decoys_glide_SP

> <s_m_subgroupid>
wee1_decoys_glide_SP


$$$$
