ZINC39666263_340
                    3D
 Schrodinger Suite 2024-2.
 79 82  0  0  1  0            999 V2000
   -0.4961   52.1964   14.1743 C   0  0  0  0  0  0
   -0.8558   52.2596   15.6483 C   0  0  0  0  0  0
   -0.1958   51.4363   16.5631 C   0  0  0  0  0  0
   -0.5353   51.4859   17.9135 C   0  0  0  0  0  0
   -1.5400   52.3582   18.3653 C   0  0  0  0  0  0
   -2.1977   53.1674   17.4371 C   0  0  0  0  0  0
   -1.8615   53.1220   16.0854 C   0  0  0  0  0  0
   -1.9613   52.4966   19.6786 O   0  0  0  0  0  0
   -1.3363   51.8387   20.7868 C   0  0  1  0  0  0
   -1.8805   52.2405   21.6443 H   0  0  0  0  0  0
   -1.6586   50.3277   20.7989 C   0  0  0  0  0  0
    0.1584   52.2217   21.0233 C   0  0  0  0  0  0
    0.6891   51.7771   22.3137 N   0  0  0  0  0  0
    0.3830   52.2923   23.5171 C   0  0  0  0  0  0
   -0.3105   53.2965   23.6816 O   0  0  0  0  0  0
    0.9773   51.5505   24.7298 C   0  0  1  0  0  0
    1.8713   51.0216   24.3937 H   0  0  0  0  0  0
    1.3708   52.5766   25.8128 C   0  0  0  0  0  0
    1.1414   51.8644   27.0687 N   0  0  0  0  0  0
    0.5676   50.5342   26.8507 C   0  0  0  0  0  0
   -0.0164   50.5737   25.4154 C   0  0  0  0  0  0
   -1.5011   51.0751   25.4301 C   0  0  0  0  0  0
   -2.4291   50.1550   26.2459 C   0  0  0  0  0  0
   -2.3357   48.7186   25.6817 N   0  3  0  0  0  0
   -0.8958   48.1934   25.4846 C   0  0  0  0  0  0
   -0.0732   49.2114   24.6874 C   0  0  0  0  0  0
    1.7101   52.2367   28.2428 C   0  0  0  0  0  0
    1.8248   51.4499   29.1829 O   0  0  0  0  0  0
    2.1523   53.7137   28.4551 C   0  0  1  0  0  0
    1.8016   54.3416   27.6409 H   0  0  0  0  0  0
    1.5552   54.3591   29.7448 C   0  0  0  0  0  0
    1.8485   55.8752   29.7960 C   0  0  0  0  0  0
    0.0481   54.0973   29.9484 C   0  0  0  0  0  0
    3.5725   53.7348   28.6513 O   0  0  0  0  0  0
    4.4588   54.0516   27.6396 C   0  0  0  0  0  0
    4.1173   54.6069   26.3964 C   0  0  0  0  0  0
    5.1048   54.8796   25.4533 C   0  0  0  0  0  0
    6.4384   54.6211   25.7531 C   0  0  0  0  0  0
    6.7883   54.0962   26.9936 C   0  0  0  0  0  0
    5.8004   53.8106   27.9271 C   0  0  0  0  0  0
   -0.1160   51.2092   13.9068 H   0  0  0  0  0  0
   -1.3731   52.3725   13.5500 H   0  0  0  0  0  0
    0.2611   52.9430   13.9302 H   0  0  0  0  0  0
    0.5813   50.7590   16.2314 H   0  0  0  0  0  0
   -0.0014   50.8271   18.5747 H   0  0  0  0  0  0
   -2.9768   53.8401   17.7659 H   0  0  0  0  0  0
   -2.3838   53.7534   15.3807 H   0  0  0  0  0  0
   -1.2572   49.8426   21.6855 H   0  0  0  0  0  0
   -2.7377   50.1696   20.8107 H   0  0  0  0  0  0
   -1.2682   49.7915   19.9355 H   0  0  0  0  0  0
    0.3045   53.2963   20.9220 H   0  0  0  0  0  0
    0.8047   51.7986   20.2591 H   0  0  0  0  0  0
    1.3256   50.9959   22.2786 H   0  0  0  0  0  0
    0.7045   53.4352   25.8183 H   0  0  0  0  0  0
    2.4210   52.8217   25.6659 H   0  0  0  0  0  0
    1.3955   49.8240   26.8816 H   0  0  0  0  0  0
   -0.0984   50.1786   27.6356 H   0  0  0  0  0  0
   -1.5407   52.0678   25.8815 H   0  0  0  0  0  0
   -1.9051   51.2009   24.4241 H   0  0  0  0  0  0
   -2.1656   50.0980   27.2999 H   0  0  0  0  0  0
   -3.4786   50.4448   26.1739 H   0  0  0  0  0  0
   -2.7955   48.1005   26.3399 H   0  0  0  0  0  0
   -0.4949   48.0824   26.4817 H   0  0  0  0  0  0
   -0.9642   47.2141   25.0115 H   0  0  0  0  0  0
   -0.4302   49.3085   23.6644 H   0  0  0  0  0  0
    0.9384   48.8086   24.6072 H   0  0  0  0  0  0
    2.0590   53.9049   30.5987 H   0  0  0  0  0  0
    1.3270   56.4124   29.0027 H   0  0  0  0  0  0
    1.5380   56.3114   30.7463 H   0  0  0  0  0  0
    2.9121   56.0799   29.6798 H   0  0  0  0  0  0
   -0.4959   54.2946   29.0288 H   0  0  0  0  0  0
   -0.1473   53.0595   30.2258 H   0  0  0  0  0  0
   -0.3644   54.7194   30.7430 H   0  0  0  0  0  0
    3.1048   54.8528   26.1321 H   0  0  0  0  0  0
    4.8383   55.2961   24.4934 H   0  0  0  0  0  0
    7.2020   54.8298   25.0176 H   0  0  0  0  0  0
    7.8209   53.9020   27.2405 H   0  0  0  0  0  0
    6.0767   53.3937   28.8819 H   0  0  0  0  0  0
   -2.8400   48.6652   24.8077 H   0  0  0  0  0  0
  1  2  1  0  0  0
  1 41  1  0  0  0
  1 42  1  0  0  0
  1 43  1  0  0  0
  2  7  2  0  0  0
  2  3  1  0  0  0
  3  4  2  0  0  0
  3 44  1  0  0  0
  4  5  1  0  0  0
  4 45  1  0  0  0
  5  6  2  0  0  0
  5  8  1  0  0  0
  6  7  1  0  0  0
  6 46  1  0  0  0
  7 47  1  0  0  0
  8  9  1  0  0  0
  9 10  1  0  0  0
  9 11  1  0  0  0
  9 12  1  0  0  0
 11 48  1  0  0  0
 11 49  1  0  0  0
 11 50  1  0  0  0
 12 13  1  0  0  0
 12 51  1  0  0  0
 12 52  1  0  0  0
 13 14  1  0  0  0
 13 53  1  0  0  0
 14 15  2  0  0  0
 14 16  1  0  0  0
 16 17  1  0  0  0
 16 21  1  0  0  0
 16 18  1  0  0  0
 18 19  1  0  0  0
 18 54  1  0  0  0
 18 55  1  0  0  0
 19 20  1  0  0  0
 19 27  1  0  0  0
 20 21  1  0  0  0
 20 56  1  0  0  0
 20 57  1  0  0  0
 21 26  1  0  0  0
 21 22  1  0  0  0
 22 23  1  0  0  0
 22 58  1  0  0  0
 22 59  1  0  0  0
 23 24  1  0  0  0
 23 60  1  0  0  0
 23 61  1  0  0  0
 24 25  1  0  0  0
 24 62  1  0  0  0
 24 79  1  0  0  0
 25 26  1  0  0  0
 25 63  1  0  0  0
 25 64  1  0  0  0
 26 65  1  0  0  0
 26 66  1  0  0  0
 27 28  2  0  0  0
 27 29  1  0  0  0
 29 30  1  0  0  0
 29 31  1  0  0  0
 29 34  1  0  0  0
 31 32  1  0  0  0
 31 33  1  0  0  0
 31 67  1  0  0  0
 32 68  1  0  0  0
 32 69  1  0  0  0
 32 70  1  0  0  0
 33 71  1  0  0  0
 33 72  1  0  0  0
 33 73  1  0  0  0
 34 35  1  0  0  0
 35 40  2  0  0  0
 35 36  1  0  0  0
 36 37  2  0  0  0
 36 74  1  0  0  0
 37 38  1  0  0  0
 37 75  1  0  0  0
 38 39  2  0  0  0
 38 76  1  0  0  0
 39 40  1  0  0  0
 39 77  1  0  0  0
 40 78  1  0  0  0
M  CHG  1  24   1
M  END
> <i_i_glide_confnum>
501

> <i_i_glide_lignum>
341

> <i_i_glide_posenum>
272

> <i_i_glide_rotatable_bonds>
11

> <i_m_Source_File_Index>
1028

> <b_m_subgroup_collapsed>
0

> <r_i_docking_score>
-6.37547

> <r_i_glide_ecoul>
-8.76022

> <r_i_glide_eff_state_penalty>
0

> <r_i_glide_einternal>
9.51457

> <r_i_glide_emodel>
-64.9985

> <r_i_glide_energy>
-48.6423

> <r_i_glide_erotb>
0.712176

> <r_i_glide_esite>
-0.1

> <r_i_glide_evdw>
-39.882

> <r_i_glide_gscore>
-6.37547

> <r_i_glide_hbond>
-0.375338

> <r_i_glide_ligand_efficiency>
-0.17231

> <r_i_glide_ligand_efficiency_ln>
-1.38269

> <r_i_glide_ligand_efficiency_sa>
-0.574175

> <r_i_glide_lipo>
-2.75919

> <r_i_glide_metal>
0

> <r_i_glide_rewards>
-0.544988

> <s_i_glide_gridfile>
wee1_glide-grid

> <s_m_Source_File>
wee1_decoys_glide_SP.sdf

> <s_m_Source_Path>
/Users/zhangxujun/Desktop

> <s_m_entry_id>
1303

> <s_m_entry_name>
wee1_decoys_glide_SP.1028

> <s_m_subgroup_title>
wee1_decoys_glide_SP

> <s_m_subgroupid>
wee1_decoys_glide_SP


$$$$
