ZINC35674681_842
                    3D
 Schrodinger Suite 2024-2.
 68 70  0  0  1  0            999 V2000
   -4.6366   54.1222   26.0823 C   0  0  0  0  0  0
   -4.7173   53.6933   24.6095 C   0  0  0  0  0  0
   -4.3103   52.2208   24.3505 C   0  0  0  0  0  0
   -2.9876   51.8439   24.8669 N   0  0  0  0  0  0
   -1.8166   52.4008   24.4996 C   0  0  0  0  0  0
   -1.7663   53.2988   23.6577 O   0  0  0  0  0  0
   -0.7061   51.9603   25.1489 N   0  0  0  0  0  0
   -0.6418   50.6815   25.8742 C   0  0  0  0  0  0
   -0.3668   51.0237   27.3403 C   0  0  0  0  0  0
    0.7826   52.0056   27.5144 C   0  0  0  0  0  0
    1.3900   52.1334   28.7650 C   0  0  0  0  0  0
    2.4760   52.9788   28.9614 C   0  0  0  0  0  0
    2.9686   53.7350   27.8963 C   0  0  0  0  0  0
    2.3063   53.6684   26.6661 C   0  0  0  0  0  0
    1.2362   52.7941   26.4310 C   0  0  0  0  0  0
    0.5927   52.6793   25.0237 C   0  0  1  0  0  0
    0.3686   53.7011   24.7225 H   0  0  0  0  0  0
    1.5434   52.0780   23.9281 C   0  0  2  0  0  0
    1.9041   51.1232   24.3170 H   0  0  0  0  0  0
    2.7771   52.9575   23.5735 C   0  0  0  0  0  0
    2.4559   54.3656   23.0456 C   0  0  0  0  0  0
    0.8008   51.7824   22.7008 N   0  0  0  0  0  0
    1.1744   50.9220   21.7364 C   0  0  0  0  0  0
    2.2207   50.2722   21.7858 O   0  0  0  0  0  0
    0.2428   50.8191   20.5566 C   0  0  0  0  0  0
    0.7530   50.4507   19.3050 C   0  0  0  0  0  0
   -0.0907   50.3444   18.2043 C   0  0  0  0  0  0
   -1.4544   50.6047   18.3416 C   0  0  0  0  0  0
   -1.9757   50.9666   19.5856 C   0  0  0  0  0  0
   -1.1335   51.0761   20.6869 C   0  0  0  0  0  0
   -2.3786   50.4692   17.1461 C   0  0  0  0  0  0
    4.1011   54.4996   28.1145 O   0  0  0  0  0  0
    4.9171   54.8315   26.9939 C   0  0  0  0  0  0
    3.0694   53.0188   30.2006 O   0  0  0  0  0  0
    4.1798   52.1421   30.3056 C   0  0  0  0  0  0
   -4.9091   55.1701   26.2037 H   0  0  0  0  0  0
   -5.3103   53.5287   26.7047 H   0  0  0  0  0  0
   -3.6264   54.0079   26.4808 H   0  0  0  0  0  0
   -4.0972   54.3622   24.0103 H   0  0  0  0  0  0
   -5.7378   53.8444   24.2532 H   0  0  0  0  0  0
   -4.3648   51.9869   23.2862 H   0  0  0  0  0  0
   -5.0200   51.5642   24.8582 H   0  0  0  0  0  0
   -2.9736   51.1525   25.6004 H   0  0  0  0  0  0
   -1.5116   50.0374   25.7417 H   0  0  0  0  0  0
    0.1685   50.0740   25.4740 H   0  0  0  0  0  0
   -1.2732   51.4086   27.8124 H   0  0  0  0  0  0
   -0.1320   50.0967   27.8558 H   0  0  0  0  0  0
    1.0263   51.5435   29.5951 H   0  0  0  0  0  0
    2.6390   54.3074   25.8667 H   0  0  0  0  0  0
    3.4696   53.0077   24.4109 H   0  0  0  0  0  0
    3.3625   52.4673   22.7977 H   0  0  0  0  0  0
    3.3723   54.8954   22.7779 H   0  0  0  0  0  0
    1.8401   54.3079   22.1476 H   0  0  0  0  0  0
    1.9254   54.9677   23.7819 H   0  0  0  0  0  0
   -0.0834   52.2577   22.6034 H   0  0  0  0  0  0
    1.8085   50.2468   19.1738 H   0  0  0  0  0  0
    0.3202   50.0588   17.2458 H   0  0  0  0  0  0
   -3.0341   51.1544   19.6983 H   0  0  0  0  0  0
   -1.5651   51.3462   21.6397 H   0  0  0  0  0  0
   -2.5022   51.4313   16.6503 H   0  0  0  0  0  0
   -1.9890   49.7478   16.4280 H   0  0  0  0  0  0
   -3.3589   50.1055   17.4535 H   0  0  0  0  0  0
    5.8375   55.3030   27.3412 H   0  0  0  0  0  0
    5.1976   53.9384   26.4310 H   0  0  0  0  0  0
    4.4276   55.5318   26.3163 H   0  0  0  0  0  0
    4.5199   52.0957   31.3408 H   0  0  0  0  0  0
    3.9044   51.1353   29.9970 H   0  0  0  0  0  0
    5.0108   52.4769   29.6803 H   0  0  0  0  0  0
  1  2  1  0  0  0
  1 36  1  0  0  0
  1 37  1  0  0  0
  1 38  1  0  0  0
  2  3  1  0  0  0
  2 39  1  0  0  0
  2 40  1  0  0  0
  3  4  1  0  0  0
  3 41  1  0  0  0
  3 42  1  0  0  0
  4  5  1  0  0  0
  4 43  1  0  0  0
  5  6  2  0  0  0
  5  7  1  0  0  0
  7 16  1  0  0  0
  7  8  1  0  0  0
  8  9  1  0  0  0
  8 44  1  0  0  0
  8 45  1  0  0  0
  9 10  1  0  0  0
  9 46  1  0  0  0
  9 47  1  0  0  0
 10 15  2  0  0  0
 10 11  1  0  0  0
 11 12  2  0  0  0
 11 48  1  0  0  0
 12 13  1  0  0  0
 12 34  1  0  0  0
 13 14  2  0  0  0
 13 32  1  0  0  0
 14 15  1  0  0  0
 14 49  1  0  0  0
 15 16  1  0  0  0
 16 17  1  0  0  0
 16 18  1  0  0  0
 18 19  1  0  0  0
 18 20  1  0  0  0
 18 22  1  0  0  0
 20 21  1  0  0  0
 20 50  1  0  0  0
 20 51  1  0  0  0
 21 52  1  0  0  0
 21 53  1  0  0  0
 21 54  1  0  0  0
 22 23  1  0  0  0
 22 55  1  0  0  0
 23 24  2  0  0  0
 23 25  1  0  0  0
 25 30  2  0  0  0
 25 26  1  0  0  0
 26 27  2  0  0  0
 26 56  1  0  0  0
 27 28  1  0  0  0
 27 57  1  0  0  0
 28 29  2  0  0  0
 28 31  1  0  0  0
 29 30  1  0  0  0
 29 58  1  0  0  0
 30 59  1  0  0  0
 31 60  1  0  0  0
 31 61  1  0  0  0
 31 62  1  0  0  0
 32 33  1  0  0  0
 33 63  1  0  0  0
 33 64  1  0  0  0
 33 65  1  0  0  0
 34 35  1  0  0  0
 35 66  1  0  0  0
 35 67  1  0  0  0
 35 68  1  0  0  0
M  END
> <i_i_glide_confnum>
66

> <i_i_glide_lignum>
843

> <i_i_glide_posenum>
190

> <i_i_glide_rotatable_bonds>
11

> <i_m_Source_File_Index>
2869

> <b_m_subgroup_collapsed>
0

> <r_i_docking_score>
-4.58622

> <r_i_glide_ecoul>
-2.36958

> <r_i_glide_eff_state_penalty>
0

> <r_i_glide_einternal>
12.6551

> <r_i_glide_emodel>
-44.8952

> <r_i_glide_energy>
-40.3743

> <r_i_glide_erotb>
0.683031

> <r_i_glide_esite>
-0.00270993

> <r_i_glide_evdw>
-38.0047

> <r_i_glide_gscore>
-4.58622

> <r_i_glide_hbond>
-0.217655

> <r_i_glide_ligand_efficiency>
-0.138976

> <r_i_glide_ligand_efficiency_ln>
-1.01995

> <r_i_glide_ligand_efficiency_sa>
-0.445772

> <r_i_glide_lipo>
-2.36165

> <r_i_glide_metal>
0

> <r_i_glide_rewards>
-0.431567

> <s_i_glide_gridfile>
wee1_glide-grid

> <s_m_Source_File>
wee1_decoys_glide_SP.sdf

> <s_m_Source_Path>
/Users/zhangxujun/Desktop

> <s_m_entry_id>
3144

> <s_m_entry_name>
wee1_decoys_glide_SP.2869

> <s_m_subgroup_title>
wee1_decoys_glide_SP

> <s_m_subgroupid>
wee1_decoys_glide_SP


$$$$
