ZINC16588674_2907
                    3D
 Schrodinger Suite 2024-2.
 61 63  0  0  1  0            999 V2000
    6.3471   53.3459   17.8372 C   0  0  0  0  0  0
    5.0321   53.1417   17.0641 C   0  0  0  0  0  0
    2.7718   51.9956   17.0542 C   0  0  0  0  0  0
    2.0347   53.1618   16.3610 C   0  0  0  0  0  0
    2.4919   53.6248   15.3167 O   0  0  0  0  0  0
    0.9412   53.6463   16.9847 N   0  0  0  0  0  0
    0.2829   54.8571   16.6970 C   0  0  0  0  0  0
    1.0252   56.0309   16.4862 C   0  0  0  0  0  0
    0.3824   57.2499   16.2867 C   0  0  0  0  0  0
   -1.0078   57.3103   16.2936 C   0  0  0  0  0  0
   -1.7559   56.1516   16.4933 C   0  0  0  0  0  0
   -1.1272   54.9135   16.7012 C   0  0  0  0  0  0
   -1.9801   53.6541   16.9053 C   0  0  0  0  0  0
   -3.2894   53.9118   16.8766 F   0  0  0  0  0  0
   -1.7143   52.7649   15.9483 F   0  0  0  0  0  0
   -1.7008   53.1053   18.0872 F   0  0  0  0  0  0
    3.4329   53.3982   19.0535 C   0  0  0  0  0  0
    4.2054   53.2032   20.3654 C   0  0  0  0  0  0
    5.1041   52.3691   20.4818 O   0  0  0  0  0  0
    3.7927   54.0277   21.3457 N   0  0  0  0  0  0
    4.3174   54.0795   22.6250 C   0  0  0  0  0  0
    3.6240   53.9207   23.8418 C   0  0  0  0  0  0
    4.5310   54.1008   24.9334 C   0  0  0  0  0  0
    5.8210   54.4607   24.5120 C   0  0  0  0  0  0
    5.9887   54.4966   22.8013 S   0  0  0  0  0  0
    6.9743   54.8231   25.4215 C   0  0  0  0  0  0
    6.7498   54.1694   26.7970 C   0  0  0  0  0  0
    5.3496   54.4996   27.3302 C   0  0  0  0  0  0
    4.2072   53.9677   26.4320 C   0  0  0  0  0  0
    2.1894   53.5734   23.9124 C   0  0  0  0  0  0
    1.4177   53.6939   22.9580 O   0  0  0  0  0  0
    1.8304   53.0811   25.1167 O   0  0  0  0  0  0
    0.5198   52.5757   25.3320 C   0  0  0  0  0  0
    7.1315   53.7031   17.1697 H   0  0  0  0  0  0
    6.2496   54.0841   18.6325 H   0  0  0  0  0  0
    6.7037   52.4136   18.2769 H   0  0  0  0  0  0
    5.1947   52.4413   16.2425 H   0  0  0  0  0  0
    4.6482   54.0794   16.6599 H   0  0  0  0  0  0
    3.2121   51.2979   16.3399 H   0  0  0  0  0  0
    2.1296   51.4140   17.7174 H   0  0  0  0  0  0
    0.5908   53.1407   17.7840 H   0  0  0  0  0  0
    2.1055   56.0096   16.4965 H   0  0  0  0  0  0
    0.9636   58.1498   16.1397 H   0  0  0  0  0  0
   -1.5035   58.2578   16.1391 H   0  0  0  0  0  0
   -2.8335   56.2286   16.4769 H   0  0  0  0  0  0
    2.3935   53.1374   19.2594 H   0  0  0  0  0  0
    3.4882   54.4304   18.7019 H   0  0  0  0  0  0
    2.9308   54.5332   21.1814 H   0  0  0  0  0  0
    7.0388   55.9077   25.5189 H   0  0  0  0  0  0
    7.9044   54.4970   24.9679 H   0  0  0  0  0  0
    7.5060   54.5146   27.5038 H   0  0  0  0  0  0
    6.8741   53.0878   26.7261 H   0  0  0  0  0  0
    5.2662   55.5795   27.4183 H   0  0  0  0  0  0
    5.2336   54.1120   28.3436 H   0  0  0  0  0  0
    4.0388   52.9156   26.6656 H   0  0  0  0  0  0
    3.2844   54.4903   26.6876 H   0  0  0  0  0  0
    0.3761   52.3545   26.3892 H   0  0  0  0  0  0
   -0.2408   53.2960   25.0279 H   0  0  0  0  0  0
    0.3647   51.6557   24.7678 H   0  0  0  0  0  0
    3.9044   52.4967   17.9311 N   0  3  2  0  0  0
    4.3569   51.6557   18.3181 H   0  0  0  0  0  0
  1  2  1  0  0  0
  1 34  1  0  0  0
  1 35  1  0  0  0
  1 36  1  0  0  0
  2 37  1  0  0  0
  2 38  1  0  0  0
  2 60  1  0  0  0
  3  4  1  0  0  0
  3 39  1  0  0  0
  3 40  1  0  0  0
  3 60  1  0  0  0
  4  5  2  0  0  0
  4  6  1  0  0  0
  6  7  1  0  0  0
  6 41  1  0  0  0
  7 12  2  0  0  0
  7  8  1  0  0  0
  8  9  2  0  0  0
  8 42  1  0  0  0
  9 10  1  0  0  0
  9 43  1  0  0  0
 10 11  2  0  0  0
 10 44  1  0  0  0
 11 12  1  0  0  0
 11 45  1  0  0  0
 12 13  1  0  0  0
 13 14  1  0  0  0
 13 15  1  0  0  0
 13 16  1  0  0  0
 17 18  1  0  0  0
 17 46  1  0  0  0
 17 47  1  0  0  0
 17 60  1  0  0  0
 18 19  2  0  0  0
 18 20  1  0  0  0
 20 21  1  0  0  0
 20 48  1  0  0  0
 21 25  1  0  0  0
 21 22  2  0  0  0
 22 23  1  0  0  0
 22 30  1  0  0  0
 23 29  1  0  0  0
 23 24  2  0  0  0
 24 25  1  0  0  0
 24 26  1  0  0  0
 26 27  1  0  0  0
 26 49  1  0  0  0
 26 50  1  0  0  0
 27 28  1  0  0  0
 27 51  1  0  0  0
 27 52  1  0  0  0
 28 29  1  0  0  0
 28 53  1  0  0  0
 28 54  1  0  0  0
 29 55  1  0  0  0
 29 56  1  0  0  0
 30 31  2  0  0  0
 30 32  1  0  0  0
 32 33  1  0  0  0
 33 57  1  0  0  0
 33 58  1  0  0  0
 33 59  1  0  0  0
 60 61  1  0  0  0
M  CHG  1  60   1
M  END
> <i_i_glide_confnum>
31

> <i_i_glide_lignum>
2908

> <i_i_glide_posenum>
77

> <i_i_glide_rotatable_bonds>
12

> <i_m_Source_File_Index>
793

> <b_m_subgroup_collapsed>
0

> <r_i_docking_score>
-5.8746

> <r_i_glide_ecoul>
-8.37939

> <r_i_glide_eff_state_penalty>
0

> <r_i_glide_einternal>
21.0921

> <r_i_glide_emodel>
-57.3687

> <r_i_glide_energy>
-48.0576

> <r_i_glide_erotb>
0.738952

> <r_i_glide_esite>
-0.145154

> <r_i_glide_evdw>
-39.6782

> <r_i_glide_gscore>
-5.8746

> <r_i_glide_hbond>
-0.519064

> <r_i_glide_ligand_efficiency>
-0.172782

> <r_i_glide_ligand_efficiency_ln>
-1.29786

> <r_i_glide_ligand_efficiency_sa>
-0.559747

> <r_i_glide_lipo>
-2.27047

> <r_i_glide_metal>
0

> <r_i_glide_rewards>
-0.438041

> <s_i_glide_gridfile>
wee1_glide-grid

> <s_m_Source_File>
wee1_decoys_glide_SP.sdf

> <s_m_Source_Path>
/Users/zhangxujun/Desktop

> <s_m_entry_id>
1068

> <s_m_entry_name>
wee1_decoys_glide_SP.793

> <s_m_subgroup_title>
wee1_decoys_glide_SP

> <s_m_subgroupid>
wee1_decoys_glide_SP


$$$$
