ZINC35646798_5688
                    3D
 Schrodinger Suite 2024-2.
 80 82  0  0  1  0            999 V2000
    0.8972   48.8542   25.5519 C   0  0  0  0  0  0
    0.3062   48.5348   24.1840 C   0  0  0  0  0  0
   -0.8576   49.3470   24.0736 O   0  0  0  0  0  0
   -2.0928   48.8557   24.2389 C   0  0  0  0  0  0
   -2.3123   47.6419   24.1831 O   0  0  0  0  0  0
   -3.1772   49.8771   24.4258 C   0  0  0  0  0  0
   -3.0082   51.2280   24.6206 C   0  0  0  0  0  0
   -4.1072   52.0787   24.7625 N   0  0  0  0  0  0
   -5.3972   51.6258   24.8942 C   0  0  0  0  0  0
   -6.3391   52.2365   25.3994 O   0  0  0  0  0  0
   -5.6098   50.3440   24.5279 N   0  0  0  0  0  0
   -4.6071   49.2705   24.4288 C   0  0  2  0  0  0
   -4.7815   48.8592   23.4309 H   0  0  0  0  0  0
   -4.8699   48.1163   25.4196 C   0  0  0  0  0  0
   -5.1748   46.8424   24.9192 C   0  0  0  0  0  0
   -5.3296   45.7553   25.7751 C   0  0  0  0  0  0
   -5.1840   45.9167   27.1584 C   0  0  0  0  0  0
   -4.9108   47.1879   27.6567 C   0  0  0  0  0  0
   -4.7570   48.2998   26.8110 C   0  0  0  0  0  0
   -4.5020   49.5766   27.2804 O   0  0  0  0  0  0
   -4.5196   49.8129   28.6851 C   0  0  0  0  0  0
   -5.2969   44.8962   28.0816 O   0  0  0  0  0  0
   -5.3437   43.5480   27.6214 C   0  0  0  0  0  0
   -4.0190   53.5547   24.8568 C   0  0  0  0  0  0
   -1.6355   51.9447   24.8153 C   0  0  0  0  0  0
   -0.9686   51.6377   26.1881 N   0  3  2  0  0  0
   -1.8629   52.0640   27.3685 C   0  0  0  0  0  0
   -1.3862   51.5571   28.7421 C   0  0  0  0  0  0
   -0.2567   52.3615   29.4279 C   0  0  0  0  0  0
    1.0660   52.3430   28.7784 N   0  0  0  0  0  0
    1.2018   51.5773   27.5283 C   0  0  0  0  0  0
    0.4607   52.2137   26.3284 C   0  0  0  0  0  0
    2.0217   53.2220   29.1935 C   0  0  0  0  0  0
    1.8207   54.0755   30.0598 O   0  0  0  0  0  0
    3.2648   52.9690   28.7261 N   0  0  0  0  0  0
    4.3166   53.9258   28.3742 C   0  0  0  0  0  0
    5.6006   53.1396   28.0543 C   0  0  0  0  0  0
    4.6074   54.9154   29.5192 C   0  0  0  0  0  0
    3.8985   54.6885   27.0997 C   0  0  0  0  0  0
    1.9036   48.4967   25.6881 H   0  0  0  0  0  0
    1.0138   49.9129   25.6191 H   0  0  0  0  0  0
    0.2719   48.4987   26.3731 H   0  0  0  0  0  0
    0.1098   47.4654   24.0807 H   0  0  0  0  0  0
    1.0097   48.8174   23.4003 H   0  0  0  0  0  0
   -6.5761   50.0554   24.5650 H   0  0  0  0  0  0
   -5.2694   46.6814   23.8546 H   0  0  0  0  0  0
   -5.5640   44.7933   25.3496 H   0  0  0  0  0  0
   -4.7943   47.2893   28.7239 H   0  0  0  0  0  0
   -4.4187   50.8807   28.8746 H   0  0  0  0  0  0
   -5.4621   49.4986   29.1382 H   0  0  0  0  0  0
   -3.6949   49.3043   29.1864 H   0  0  0  0  0  0
   -5.2879   42.8697   28.4712 H   0  0  0  0  0  0
   -6.2729   43.3368   27.0923 H   0  0  0  0  0  0
   -4.4981   43.3195   26.9730 H   0  0  0  0  0  0
   -4.9776   54.0760   24.8083 H   0  0  0  0  0  0
   -3.5463   53.8495   25.7935 H   0  0  0  0  0  0
   -3.4333   53.9504   24.0260 H   0  0  0  0  0  0
   -1.6400   53.0314   24.7580 H   0  0  0  0  0  0
   -0.9324   51.6382   24.0431 H   0  0  0  0  0  0
   -2.8450   51.6439   27.1622 H   0  0  0  0  0  0
   -1.8931   53.1433   27.2807 H   0  0  0  0  0  0
   -1.1195   50.5029   28.6721 H   0  0  0  0  0  0
   -2.2437   51.5592   29.4087 H   0  0  0  0  0  0
   -0.1520   52.0346   30.4643 H   0  0  0  0  0  0
   -0.5871   53.4008   29.4664 H   0  0  0  0  0  0
    2.2462   51.4157   27.2818 H   0  0  0  0  0  0
    0.8387   50.5654   27.7108 H   0  0  0  0  0  0
    0.3791   53.2959   26.4044 H   0  0  0  0  0  0
    0.9742   52.0067   25.3867 H   0  0  0  0  0  0
    3.4094   52.0539   28.3316 H   0  0  0  0  0  0
    6.4398   53.8032   27.8430 H   0  0  0  0  0  0
    5.4725   52.4986   27.1813 H   0  0  0  0  0  0
    5.8930   52.4982   28.8801 H   0  0  0  0  0  0
    3.8160   55.6629   29.6173 H   0  0  0  0  0  0
    4.7022   54.4136   30.4808 H   0  0  0  0  0  0
    5.5304   55.4650   29.3500 H   0  0  0  0  0  0
    3.0119   55.2966   27.2758 H   0  0  0  0  0  0
    4.6963   55.3422   26.7472 H   0  0  0  0  0  0
    3.6662   54.0070   26.2798 H   0  0  0  0  0  0
   -0.9030   50.6263   26.2417 H   0  0  0  0  0  0
  1  2  1  0  0  0
  1 40  1  0  0  0
  1 41  1  0  0  0
  1 42  1  0  0  0
  2  3  1  0  0  0
  2 43  1  0  0  0
  2 44  1  0  0  0
  3  4  1  0  0  0
  4  5  2  0  0  0
  4  6  1  0  0  0
  6 12  1  0  0  0
  6  7  2  0  0  0
  7  8  1  0  0  0
  7 25  1  0  0  0
  8  9  1  0  0  0
  8 24  1  0  0  0
  9 10  2  0  0  0
  9 11  1  0  0  0
 11 12  1  0  0  0
 11 45  1  0  0  0
 12 13  1  0  0  0
 12 14  1  0  0  0
 14 19  2  0  0  0
 14 15  1  0  0  0
 15 16  2  0  0  0
 15 46  1  0  0  0
 16 17  1  0  0  0
 16 47  1  0  0  0
 17 18  2  0  0  0
 17 22  1  0  0  0
 18 19  1  0  0  0
 18 48  1  0  0  0
 19 20  1  0  0  0
 20 21  1  0  0  0
 21 49  1  0  0  0
 21 50  1  0  0  0
 21 51  1  0  0  0
 22 23  1  0  0  0
 23 52  1  0  0  0
 23 53  1  0  0  0
 23 54  1  0  0  0
 24 55  1  0  0  0
 24 56  1  0  0  0
 24 57  1  0  0  0
 25 26  1  0  0  0
 25 58  1  0  0  0
 25 59  1  0  0  0
 26 32  1  0  0  0
 26 27  1  0  0  0
 26 80  1  0  0  0
 27 28  1  0  0  0
 27 60  1  0  0  0
 27 61  1  0  0  0
 28 29  1  0  0  0
 28 62  1  0  0  0
 28 63  1  0  0  0
 29 30  1  0  0  0
 29 64  1  0  0  0
 29 65  1  0  0  0
 30 31  1  0  0  0
 30 33  1  0  0  0
 31 32  1  0  0  0
 31 66  1  0  0  0
 31 67  1  0  0  0
 32 68  1  0  0  0
 32 69  1  0  0  0
 33 34  2  0  0  0
 33 35  1  0  0  0
 35 36  1  0  0  0
 35 70  1  0  0  0
 36 37  1  0  0  0
 36 38  1  0  0  0
 36 39  1  0  0  0
 37 71  1  0  0  0
 37 72  1  0  0  0
 37 73  1  0  0  0
 38 74  1  0  0  0
 38 75  1  0  0  0
 38 76  1  0  0  0
 39 77  1  0  0  0
 39 78  1  0  0  0
 39 79  1  0  0  0
M  CHG  1  26   1
M  END
> <i_i_glide_confnum>
270

> <i_i_glide_lignum>
5689

> <i_i_glide_posenum>
155

> <i_i_glide_rotatable_bonds>
11

> <i_m_Source_File_Index>
3340

> <b_m_subgroup_collapsed>
0

> <r_i_docking_score>
-3.08816

> <r_i_glide_ecoul>
-4.64613

> <r_i_glide_eff_state_penalty>
0

> <r_i_glide_einternal>
13.7687

> <r_i_glide_emodel>
-35.6101

> <r_i_glide_energy>
-37.0469

> <r_i_glide_erotb>
0.508927

> <r_i_glide_esite>
-0.045942

> <r_i_glide_evdw>
-32.4008

> <r_i_glide_gscore>
-3.08816

> <r_i_glide_hbond>
-0.351283

> <r_i_glide_ligand_efficiency>
-0.0812674

> <r_i_glide_ligand_efficiency_ln>
-0.665899

> <r_i_glide_ligand_efficiency_sa>
-0.273219

> <r_i_glide_lipo>
-1.18886

> <r_i_glide_metal>
0

> <r_i_glide_rewards>
0.305959

> <s_i_glide_gridfile>
wee1_glide-grid

> <s_m_Source_File>
wee1_decoys_glide_SP.sdf

> <s_m_Source_Path>
/Users/zhangxujun/Desktop

> <s_m_entry_id>
3615

> <s_m_entry_name>
wee1_decoys_glide_SP.3340

> <s_m_subgroup_title>
wee1_decoys_glide_SP

> <s_m_subgroupid>
wee1_decoys_glide_SP


$$$$
