ZINC08455851_6126
                    3D
 Schrodinger Suite 2024-2.
 56 60  0  0  1  0            999 V2000
    3.9008   53.6652   30.0221 C   0  0  0  0  0  0
    3.5747   53.9803   28.5580 C   0  0  2  0  0  0
    3.0941   54.9605   28.5434 H   0  0  0  0  0  0
    2.6244   52.9076   27.9924 C   0  0  0  0  0  0
    2.0953   53.2966   26.6029 C   0  0  0  0  0  0
    3.2603   53.7374   25.7094 C   0  0  0  0  0  0
    4.5119   54.0968   26.2400 C   0  0  0  0  0  0
    5.6564   54.5000   24.9996 S   0  0  0  0  0  0
    4.4939   54.1311   23.7688 C   0  0  0  0  0  0
    3.2439   53.7730   24.3002 C   0  0  0  0  0  0
    2.0504   53.4847   23.5154 C   0  0  0  0  0  0
    1.1044   53.2540   22.8943 N   0  0  0  0  0  0
    4.8996   54.2888   22.4522 N   0  0  0  0  0  0
    4.7126   53.3665   21.4861 C   0  0  0  0  0  0
    4.2386   52.2434   21.6800 O   0  0  0  0  0  0
    5.0950   53.7929   20.1588 C   0  0  0  0  0  0
    6.1318   54.6859   19.7895 C   0  0  0  0  0  0
    6.1511   54.6565   18.4034 C   0  0  0  0  0  0
    5.1125   53.8302   18.0152 N   0  0  0  0  0  0
    4.5166   53.2948   19.0873 N   0  0  0  0  0  0
    4.8274   53.3553   16.6487 C   0  0  2  0  0  0
    5.2662   52.3592   16.5640 H   0  0  0  0  0  0
    5.5717   54.3066   15.6739 C   0  0  0  0  0  0
    7.0091   54.6743   16.1171 C   0  0  1  0  0  0
    7.3571   55.4607   15.4440 H   0  0  0  0  0  0
    6.9569   55.2711   17.4597 N   0  0  0  0  0  0
    7.9979   53.5105   15.9419 C   0  0  0  0  0  0
    8.8010   53.4775   14.7952 C   0  0  0  0  0  0
    9.7097   52.4397   14.5991 C   0  0  0  0  0  0
    9.8191   51.4291   15.5505 C   0  0  0  0  0  0
    9.0219   51.4449   16.6925 C   0  0  0  0  0  0
    8.1070   52.4769   16.8818 C   0  0  0  0  0  0
    3.3186   53.2026   16.3212 C   0  0  0  0  0  0
    3.1444   52.8474   15.0476 F   0  0  0  0  0  0
    2.7171   52.2773   17.0704 F   0  0  0  0  0  0
    2.6605   54.3514   16.4937 F   0  0  0  0  0  0
    7.2095   55.5858   20.7960 Cl  0  0  0  0  0  0
    4.8774   54.0535   27.7211 C   0  0  0  0  0  0
    4.4552   52.7301   30.1131 H   0  0  0  0  0  0
    4.4901   54.4618   30.4810 H   0  0  0  0  0  0
    2.9841   53.5512   30.5988 H   0  0  0  0  0  0
    1.7714   52.7803   28.6608 H   0  0  0  0  0  0
    3.1055   51.9290   27.9906 H   0  0  0  0  0  0
    1.5535   52.4535   26.1737 H   0  0  0  0  0  0
    1.3731   54.1028   26.6978 H   0  0  0  0  0  0
    5.5446   55.0381   22.2487 H   0  0  0  0  0  0
    5.5819   53.8720   14.6725 H   0  0  0  0  0  0
    4.9900   55.2235   15.5557 H   0  0  0  0  0  0
    7.8269   55.7025   17.7394 H   0  0  0  0  0  0
    8.7271   54.2562   14.0501 H   0  0  0  0  0  0
   10.3288   52.4181   13.7136 H   0  0  0  0  0  0
   10.5262   50.6255   15.3994 H   0  0  0  0  0  0
    9.1100   50.6563   17.4262 H   0  0  0  0  0  0
    7.4815   52.4593   17.7601 H   0  0  0  0  0  0
    5.4722   54.9222   28.0072 H   0  0  0  0  0  0
    5.4890   53.1688   27.9058 H   0  0  0  0  0  0
  1  2  1  0  0  0
  1 39  1  0  0  0
  1 40  1  0  0  0
  1 41  1  0  0  0
  2  3  1  0  0  0
  2 38  1  0  0  0
  2  4  1  0  0  0
  4  5  1  0  0  0
  4 42  1  0  0  0
  4 43  1  0  0  0
  5  6  1  0  0  0
  5 44  1  0  0  0
  5 45  1  0  0  0
  6 10  1  0  0  0
  6  7  2  0  0  0
  7  8  1  0  0  0
  7 38  1  0  0  0
  8  9  1  0  0  0
  9 10  2  0  0  0
  9 13  1  0  0  0
 10 11  1  0  0  0
 11 12  3  0  0  0
 13 14  1  0  0  0
 13 46  1  0  0  0
 14 15  2  0  0  0
 14 16  1  0  0  0
 16 20  2  0  0  0
 16 17  1  0  0  0
 17 18  2  0  0  0
 17 37  1  0  0  0
 18 26  1  0  0  0
 18 19  1  0  0  0
 19 20  1  0  0  0
 19 21  1  0  0  0
 21 22  1  0  0  0
 21 23  1  0  0  0
 21 33  1  0  0  0
 23 24  1  0  0  0
 23 47  1  0  0  0
 23 48  1  0  0  0
 24 25  1  0  0  0
 24 26  1  0  0  0
 24 27  1  0  0  0
 26 49  1  0  0  0
 27 32  2  0  0  0
 27 28  1  0  0  0
 28 29  2  0  0  0
 28 50  1  0  0  0
 29 30  1  0  0  0
 29 51  1  0  0  0
 30 31  2  0  0  0
 30 52  1  0  0  0
 31 32  1  0  0  0
 31 53  1  0  0  0
 32 54  1  0  0  0
 33 34  1  0  0  0
 33 35  1  0  0  0
 33 36  1  0  0  0
 38 55  1  0  0  0
 38 56  1  0  0  0
M  END
> <i_i_glide_confnum>
40

> <i_i_glide_lignum>
6127

> <i_i_glide_posenum>
268

> <i_i_glide_rotatable_bonds>
6

> <i_m_Source_File_Index>
3373

> <b_m_subgroup_collapsed>
0

> <r_i_docking_score>
-5.04664

> <r_i_glide_ecoul>
-0.360784

> <r_i_glide_eff_state_penalty>
0

> <r_i_glide_einternal>
12.6271

> <r_i_glide_emodel>
-52.5067

> <r_i_glide_energy>
-44.4678

> <r_i_glide_erotb>
0.304002

> <r_i_glide_esite>
-0.10575

> <r_i_glide_evdw>
-44.107

> <r_i_glide_gscore>
-5.04664

> <r_i_glide_hbond>
0

> <r_i_glide_ligand_efficiency>
-0.14419

> <r_i_glide_ligand_efficiency_ln>
-1.10785

> <r_i_glide_ligand_efficiency_sa>
-0.471654

> <r_i_glide_lipo>
-2.43815

> <r_i_glide_metal>
0

> <r_i_glide_rewards>
-0.547276

> <s_i_glide_gridfile>
wee1_glide-grid

> <s_m_Source_File>
wee1_decoys_glide_SP.sdf

> <s_m_Source_Path>
/Users/zhangxujun/Desktop

> <s_m_entry_id>
3648

> <s_m_entry_name>
wee1_decoys_glide_SP.3373

> <s_m_subgroup_title>
wee1_decoys_glide_SP

> <s_m_subgroupid>
wee1_decoys_glide_SP


$$$$
