ZINC32527474_3425
                    3D
 Schrodinger Suite 2024-2.
 64 67  0  0  1  0            999 V2000
   -3.0080   51.1624   26.9241 C   0  0  0  0  0  0
   -1.6672   51.7181   27.4373 C   0  0  0  0  0  0
   -0.3066   51.0885   26.9738 C   0  0  1  0  0  0
   -0.0975   50.3597   27.7601 H   0  0  0  0  0  0
   -0.2429   50.0616   25.7946 C   0  0  0  0  0  0
    0.7048   50.0744   25.0158 O   0  0  0  0  0  0
   -1.2325   49.1556   25.6812 N   0  0  0  0  0  0
   -1.5860   48.4410   24.5256 C   0  0  0  0  0  0
   -2.5037   47.3775   24.4472 C   0  0  0  0  0  0
   -2.6453   46.8638   23.1194 C   0  0  0  0  0  0
   -1.8805   47.5984   22.2194 C   0  0  0  0  0  0
   -0.9743   48.8650   22.9412 S   0  0  0  0  0  0
   -3.4663   45.6969   22.6449 C   0  0  0  0  0  0
   -4.7506   45.4514   23.1456 C   0  0  0  0  0  0
   -5.4610   44.3261   22.7405 C   0  0  0  0  0  0
   -4.9001   43.4419   21.8189 C   0  0  0  0  0  0
   -3.6411   43.7019   21.2782 C   0  0  0  0  0  0
   -2.9275   44.8251   21.6878 C   0  0  0  0  0  0
   -5.6575   42.1982   21.3927 C   0  0  0  0  0  0
   -3.1875   46.8538   25.5993 C   0  0  0  0  0  0
   -3.0529   45.6962   25.9691 O   0  0  0  0  0  0
   -3.9800   47.7209   26.2276 N   0  0  0  0  0  0
    0.8213   52.1020   26.9709 N   0  0  0  0  0  0
    1.4210   52.2305   28.2102 C   0  0  0  0  0  0
    1.0632   51.6970   29.2626 O   0  0  0  0  0  0
    2.6329   53.0138   28.2269 C   0  0  0  0  0  0
    3.2395   53.5147   27.1364 C   0  0  0  0  0  0
    2.5609   53.3957   25.8212 C   0  0  0  0  0  0
    1.2544   52.8370   25.7775 C   0  0  0  0  0  0
    0.5425   52.9716   24.5438 C   0  0  0  0  0  0
    1.2195   53.3903   23.3925 C   0  0  0  0  0  0
    2.5440   53.7983   23.4365 C   0  0  0  0  0  0
    3.1951   53.8442   24.6580 C   0  0  0  0  0  0
    3.2714   54.2114   22.1724 C   0  0  0  0  0  0
   -0.9706   52.8246   24.3787 C   0  0  0  0  0  0
    4.5560   54.2720   27.2438 C   0  0  0  0  0  0
   -3.8377   51.7604   27.3014 H   0  0  0  0  0  0
   -3.0740   51.1739   25.8367 H   0  0  0  0  0  0
   -3.1669   50.1445   27.2776 H   0  0  0  0  0  0
   -1.6943   51.6519   28.5283 H   0  0  0  0  0  0
   -1.6512   52.7910   27.2507 H   0  0  0  0  0  0
   -1.6951   48.9005   26.5552 H   0  0  0  0  0  0
   -1.8034   47.4477   21.1521 H   0  0  0  0  0  0
   -5.2022   46.1274   23.8581 H   0  0  0  0  0  0
   -6.4433   44.1416   23.1516 H   0  0  0  0  0  0
   -3.2133   43.0302   20.5479 H   0  0  0  0  0  0
   -1.9425   44.9997   21.2807 H   0  0  0  0  0  0
   -6.7017   42.2289   21.7059 H   0  0  0  0  0  0
   -5.6427   42.1053   20.3081 H   0  0  0  0  0  0
   -5.1825   41.3125   21.8147 H   0  0  0  0  0  0
   -4.4179   47.4346   27.0904 H   0  0  0  0  0  0
   -4.0822   48.6657   25.8939 H   0  0  0  0  0  0
    3.1033   53.1338   29.1903 H   0  0  0  0  0  0
    0.7053   53.4228   22.4445 H   0  0  0  0  0  0
    4.2065   54.2202   24.6853 H   0  0  0  0  0  0
    2.8011   53.7867   21.2865 H   0  0  0  0  0  0
    4.2983   53.8469   22.1866 H   0  0  0  0  0  0
    3.2934   55.2963   22.0827 H   0  0  0  0  0  0
   -1.3037   51.8021   24.2466 H   0  0  0  0  0  0
   -1.4980   53.2953   25.2018 H   0  0  0  0  0  0
   -1.3248   53.3565   23.4975 H   0  0  0  0  0  0
    4.8933   54.3547   28.2775 H   0  0  0  0  0  0
    5.3386   53.7501   26.6919 H   0  0  0  0  0  0
    4.4539   55.2826   26.8501 H   0  0  0  0  0  0
  1  2  1  0  0  0
  1 37  1  0  0  0
  1 38  1  0  0  0
  1 39  1  0  0  0
  2  3  1  0  0  0
  2 40  1  0  0  0
  2 41  1  0  0  0
  3  4  1  0  0  0
  3  5  1  0  0  0
  3 23  1  0  0  0
  5  6  2  0  0  0
  5  7  1  0  0  0
  7  8  1  0  0  0
  7 42  1  0  0  0
  8 12  1  0  0  0
  8  9  2  0  0  0
  9 10  1  0  0  0
  9 20  1  0  0  0
 10 11  2  0  0  0
 10 13  1  0  0  0
 11 12  1  0  0  0
 11 43  1  0  0  0
 13 18  2  0  0  0
 13 14  1  0  0  0
 14 15  2  0  0  0
 14 44  1  0  0  0
 15 16  1  0  0  0
 15 45  1  0  0  0
 16 17  2  0  0  0
 16 19  1  0  0  0
 17 18  1  0  0  0
 17 46  1  0  0  0
 18 47  1  0  0  0
 19 48  1  0  0  0
 19 49  1  0  0  0
 19 50  1  0  0  0
 20 21  2  0  0  0
 20 22  1  0  0  0
 22 51  1  0  0  0
 22 52  1  0  0  0
 23 29  1  0  0  0
 23 24  1  0  0  0
 24 25  2  0  0  0
 24 26  1  0  0  0
 26 27  2  0  0  0
 26 53  1  0  0  0
 27 28  1  0  0  0
 27 36  1  0  0  0
 28 33  2  0  0  0
 28 29  1  0  0  0
 29 30  2  0  0  0
 30 31  1  0  0  0
 30 35  1  0  0  0
 31 32  2  0  0  0
 31 54  1  0  0  0
 32 33  1  0  0  0
 32 34  1  0  0  0
 33 55  1  0  0  0
 34 56  1  0  0  0
 34 57  1  0  0  0
 34 58  1  0  0  0
 35 59  1  0  0  0
 35 60  1  0  0  0
 35 61  1  0  0  0
 36 62  1  0  0  0
 36 63  1  0  0  0
 36 64  1  0  0  0
M  END
> <i_i_glide_confnum>
14

> <i_i_glide_lignum>
3426

> <i_i_glide_posenum>
290

> <i_i_glide_rotatable_bonds>
7

> <i_m_Source_File_Index>
1772

> <b_m_subgroup_collapsed>
0

> <r_i_docking_score>
-5.3379

> <r_i_glide_ecoul>
-7.02574

> <r_i_glide_eff_state_penalty>
0

> <r_i_glide_einternal>
11.9327

> <r_i_glide_emodel>
-55.629

> <r_i_glide_energy>
-46.1947

> <r_i_glide_erotb>
0.427531

> <r_i_glide_esite>
-0.298408

> <r_i_glide_evdw>
-39.169

> <r_i_glide_gscore>
-5.3379

> <r_i_glide_hbond>
-0.292678

> <r_i_glide_ligand_efficiency>
-0.152512

> <r_i_glide_ligand_efficiency_ln>
-1.17179

> <r_i_glide_ligand_efficiency_sa>
-0.498875

> <r_i_glide_lipo>
-2.07117

> <r_i_glide_metal>
0

> <r_i_glide_rewards>
-0.0908666

> <s_i_glide_gridfile>
wee1_glide-grid

> <s_m_Source_File>
wee1_decoys_glide_SP.sdf

> <s_m_Source_Path>
/Users/zhangxujun/Desktop

> <s_m_entry_id>
2047

> <s_m_entry_name>
wee1_decoys_glide_SP.1772

> <s_m_subgroup_title>
wee1_decoys_glide_SP

> <s_m_subgroupid>
wee1_decoys_glide_SP


$$$$
