ZINC12485521_3155
                    3D
 Schrodinger Suite 2024-2.
 66 69  0  0  1  0            999 V2000
    0.1901   53.5036   29.9645 C   0  0  0  0  0  0
    0.3288   52.7864   28.6314 C   0  0  0  0  0  0
   -0.4948   51.6973   28.3383 C   0  0  0  0  0  0
   -0.3374   51.0132   27.1362 C   0  0  0  0  0  0
    0.6483   51.4015   26.2243 C   0  0  0  0  0  0
    1.4701   52.4954   26.5247 C   0  0  0  0  0  0
    1.3076   53.1866   27.7215 C   0  0  0  0  0  0
    0.8929   50.5763   24.9534 C   0  0  0  0  0  0
   -0.2405   50.5248   23.9850 N   0  0  0  0  0  0
   -0.4051   51.7748   23.1257 C   0  0  1  0  0  0
   -0.9818   52.4498   23.7579 H   0  0  0  0  0  0
    0.9463   52.4524   22.8736 C   0  0  0  0  0  0
    1.2239   53.6958   23.4455 C   0  0  0  0  0  0
    2.4785   54.2798   23.2793 C   0  0  0  0  0  0
    3.4470   53.6429   22.5031 C   0  0  0  0  0  0
    3.1688   52.4158   21.9035 C   0  0  0  0  0  0
    1.9321   51.8149   22.1042 C   0  0  0  0  0  0
    4.8206   54.2649   22.3363 C   0  0  0  0  0  0
   -1.2672   51.6967   21.8132 C   0  0  0  0  0  0
   -2.4942   51.6611   21.8951 O   0  0  0  0  0  0
   -0.6507   51.8466   20.6275 N   0  0  0  0  0  0
   -1.2725   51.7091   19.3134 C   0  0  0  0  0  0
   -0.4407   50.8199   18.4125 C   0  0  0  0  0  0
    0.8094   50.2156   18.5100 C   0  0  0  0  0  0
    1.0258   49.5224   17.3179 C   0  0  0  0  0  0
   -0.1032   49.7237   16.5428 C   0  0  0  0  0  0
   -0.9919   50.5070   17.2076 O   0  0  0  0  0  0
   -1.1774   49.5234   24.1425 C   0  0  0  0  0  0
   -2.2808   49.5614   23.6034 O   0  0  0  0  0  0
   -0.8487   48.2195   24.9298 C   0  0  0  0  0  0
   -2.0090   47.7338   25.6817 N   0  0  0  0  0  0
   -2.8296   46.7370   25.3264 C   0  0  0  0  0  0
   -2.7160   46.0983   24.2746 O   0  0  0  0  0  0
   -3.8739   46.4417   26.2831 C   0  0  0  0  0  0
   -4.2181   47.1173   27.4641 C   0  0  0  0  0  0
   -5.3148   46.5542   28.1260 C   0  0  0  0  0  0
   -5.8244   45.4442   27.4665 C   0  0  0  0  0  0
   -4.9467   45.0904   26.0171 S   0  0  0  0  0  0
    1.1558   53.8801   30.3053 H   0  0  0  0  0  0
   -0.4939   54.3471   29.8834 H   0  0  0  0  0  0
   -0.1713   52.8273   30.7417 H   0  0  0  0  0  0
   -1.2468   51.3671   29.0401 H   0  0  0  0  0  0
   -0.9684   50.1591   26.9420 H   0  0  0  0  0  0
    2.2541   52.7925   25.8471 H   0  0  0  0  0  0
    1.9570   54.0189   27.9485 H   0  0  0  0  0  0
    1.2460   49.5949   25.2501 H   0  0  0  0  0  0
    1.7941   50.9563   24.4798 H   0  0  0  0  0  0
    0.4830   54.1956   24.0519 H   0  0  0  0  0  0
    2.6956   55.2274   23.7487 H   0  0  0  0  0  0
    3.9143   51.9148   21.3043 H   0  0  0  0  0  0
    1.7458   50.8390   21.6793 H   0  0  0  0  0  0
    5.5781   53.5063   22.1323 H   0  0  0  0  0  0
    4.8155   54.9896   21.5210 H   0  0  0  0  0  0
    5.1289   54.7715   23.2525 H   0  0  0  0  0  0
    0.3470   52.0101   20.6352 H   0  0  0  0  0  0
   -1.3439   52.7033   18.8725 H   0  0  0  0  0  0
   -2.2870   51.3111   19.3872 H   0  0  0  0  0  0
    1.4948   50.2767   19.3412 H   0  0  0  0  0  0
    1.9036   48.9501   17.0506 H   0  0  0  0  0  0
   -0.3957   49.3958   15.5577 H   0  0  0  0  0  0
   -0.5001   47.4626   24.2273 H   0  0  0  0  0  0
   -0.0967   48.3097   25.7033 H   0  0  0  0  0  0
   -2.0915   48.0939   26.6315 H   0  0  0  0  0  0
   -3.7021   47.9897   27.8391 H   0  0  0  0  0  0
   -5.7200   46.9441   29.0475 H   0  0  0  0  0  0
   -6.6655   44.8268   27.7490 H   0  0  0  0  0  0
  1  2  1  0  0  0
  1 39  1  0  0  0
  1 40  1  0  0  0
  1 41  1  0  0  0
  2  7  2  0  0  0
  2  3  1  0  0  0
  3  4  2  0  0  0
  3 42  1  0  0  0
  4  5  1  0  0  0
  4 43  1  0  0  0
  5  6  2  0  0  0
  5  8  1  0  0  0
  6  7  1  0  0  0
  6 44  1  0  0  0
  7 45  1  0  0  0
  8  9  1  0  0  0
  8 46  1  0  0  0
  8 47  1  0  0  0
  9 10  1  0  0  0
  9 28  1  0  0  0
 10 11  1  0  0  0
 10 12  1  0  0  0
 10 19  1  0  0  0
 12 17  2  0  0  0
 12 13  1  0  0  0
 13 14  2  0  0  0
 13 48  1  0  0  0
 14 15  1  0  0  0
 14 49  1  0  0  0
 15 16  2  0  0  0
 15 18  1  0  0  0
 16 17  1  0  0  0
 16 50  1  0  0  0
 17 51  1  0  0  0
 18 52  1  0  0  0
 18 53  1  0  0  0
 18 54  1  0  0  0
 19 20  2  0  0  0
 19 21  1  0  0  0
 21 22  1  0  0  0
 21 55  1  0  0  0
 22 23  1  0  0  0
 22 56  1  0  0  0
 22 57  1  0  0  0
 23 27  1  0  0  0
 23 24  2  0  0  0
 24 25  1  0  0  0
 24 58  1  0  0  0
 25 26  2  0  0  0
 25 59  1  0  0  0
 26 27  1  0  0  0
 26 60  1  0  0  0
 28 29  2  0  0  0
 28 30  1  0  0  0
 30 31  1  0  0  0
 30 61  1  0  0  0
 30 62  1  0  0  0
 31 32  1  0  0  0
 31 63  1  0  0  0
 32 33  2  0  0  0
 32 34  1  0  0  0
 34 38  1  0  0  0
 34 35  2  0  0  0
 35 36  1  0  0  0
 35 64  1  0  0  0
 36 37  2  0  0  0
 36 65  1  0  0  0
 37 38  1  0  0  0
 37 66  1  0  0  0
M  END
> <i_i_glide_confnum>
107

> <i_i_glide_lignum>
3156

> <i_i_glide_posenum>
172

> <i_i_glide_rotatable_bonds>
13

> <i_m_Source_File_Index>
5655

> <b_m_subgroup_collapsed>
0

> <r_i_docking_score>
-4.28206

> <r_i_glide_ecoul>
-9.19186

> <r_i_glide_eff_state_penalty>
0

> <r_i_glide_einternal>
12.4629

> <r_i_glide_emodel>
-55.8638

> <r_i_glide_energy>
-47.0936

> <r_i_glide_erotb>
0.849004

> <r_i_glide_esite>
-0.221749

> <r_i_glide_evdw>
-37.9017

> <r_i_glide_gscore>
-4.28206

> <r_i_glide_hbond>
-0.186881

> <r_i_glide_ligand_efficiency>
-0.115731

> <r_i_glide_ligand_efficiency_ln>
-0.928678

> <r_i_glide_ligand_efficiency_sa>
-0.385642

> <r_i_glide_lipo>
-1.48303

> <r_i_glide_metal>
0

> <r_i_glide_rewards>
0.0344666

> <s_i_glide_gridfile>
wee1_glide-grid

> <s_m_Source_File>
wee1_decoys_glide_SP.sdf

> <s_m_Source_Path>
/Users/zhangxujun/Desktop

> <s_m_entry_id>
5930

> <s_m_entry_name>
wee1_decoys_glide_SP.5655

> <s_m_subgroup_title>
wee1_decoys_glide_SP

> <s_m_subgroupid>
wee1_decoys_glide_SP


$$$$
