ZINC00941175_4309
                    3D
 Schrodinger Suite 2024-2.
 37 39  0  0  1  0            999 V2000
    3.0175   54.1857   28.8460 C   0  0  0  0  0  0
    4.3544   54.3977   29.1936 C   0  0  0  0  0  0
    5.3521   54.4967   28.2223 C   0  0  0  0  0  0
    4.9466   54.3857   26.8884 C   0  0  0  0  0  0
    3.6023   54.1632   26.5070 C   0  0  0  0  0  0
    2.6235   54.0622   27.5093 C   0  0  0  0  0  0
    3.6307   54.0957   25.0820 C   0  0  0  0  0  0
    4.9572   54.2847   24.7011 C   0  0  0  0  0  0
    5.7604   54.4783   25.7936 O   0  0  0  0  0  0
    5.5622   54.2196   23.3961 C   0  0  0  0  0  0
    5.0357   53.5748   22.4857 O   0  0  0  0  0  0
    6.7000   54.9369   23.2776 N   0  0  0  0  0  0
    7.4123   54.8968   22.0818 N   0  0  0  0  0  0
    7.1445   55.7478   21.0754 C   0  0  0  0  0  0
    6.3045   56.6474   21.1417 O   0  0  0  0  0  0
    7.9735   55.5330   19.7914 C   0  0  0  0  0  0
    7.8114   56.6084   18.8564 O   0  0  0  0  0  0
    6.6136   56.8244   18.1942 C   0  0  0  0  0  0
    5.5399   55.9172   18.1935 C   0  0  0  0  0  0
    4.3407   56.2350   17.5547 C   0  0  0  0  0  0
    4.2045   57.4573   16.9002 C   0  0  0  0  0  0
    5.2702   58.3562   16.8754 C   0  0  0  0  0  0
    6.4693   58.0405   17.5172 C   0  0  0  0  0  0
    7.9049   59.2956   17.4854 Br  0  0  0  0  0  0
    2.5543   57.9033   16.0669 Br  0  0  0  0  0  0
    2.2704   54.1141   29.6251 H   0  0  0  0  0  0
    4.6263   54.4977   30.2336 H   0  0  0  0  0  0
    6.3866   54.6680   28.4845 H   0  0  0  0  0  0
    1.5880   53.8929   27.2520 H   0  0  0  0  0  0
    2.8089   53.9152   24.4049 H   0  0  0  0  0  0
    7.1764   55.4243   24.0231 H   0  0  0  0  0  0
    8.1402   54.1977   22.0766 H   0  0  0  0  0  0
    7.7321   54.5768   19.3242 H   0  0  0  0  0  0
    9.0323   55.4934   20.0540 H   0  0  0  0  0  0
    5.6113   54.9690   18.7031 H   0  0  0  0  0  0
    3.5164   55.5355   17.5790 H   0  0  0  0  0  0
    5.1590   59.3101   16.3806 H   0  0  0  0  0  0
  1  6  2  0  0  0
  1  2  1  0  0  0
  1 26  1  0  0  0
  2  3  2  0  0  0
  2 27  1  0  0  0
  3  4  1  0  0  0
  3 28  1  0  0  0
  4  9  1  0  0  0
  4  5  2  0  0  0
  5  6  1  0  0  0
  5  7  1  0  0  0
  6 29  1  0  0  0
  7  8  2  0  0  0
  7 30  1  0  0  0
  8  9  1  0  0  0
  8 10  1  0  0  0
 10 11  2  0  0  0
 10 12  1  0  0  0
 12 13  1  0  0  0
 12 31  1  0  0  0
 13 14  1  0  0  0
 13 32  1  0  0  0
 14 15  2  0  0  0
 14 16  1  0  0  0
 16 17  1  0  0  0
 16 33  1  0  0  0
 16 34  1  0  0  0
 17 18  1  0  0  0
 18 23  2  0  0  0
 18 19  1  0  0  0
 19 20  2  0  0  0
 19 35  1  0  0  0
 20 21  1  0  0  0
 20 36  1  0  0  0
 21 22  2  0  0  0
 21 25  1  0  0  0
 22 23  1  0  0  0
 22 37  1  0  0  0
 23 24  1  0  0  0
M  END
> <i_i_glide_confnum>
7

> <i_i_glide_lignum>
4310

> <i_i_glide_posenum>
352

> <i_i_glide_rotatable_bonds>
7

> <i_m_Source_File_Index>
1547

> <b_m_subgroup_collapsed>
0

> <r_i_docking_score>
-5.0491

> <r_i_glide_ecoul>
-2.3966

> <r_i_glide_eff_state_penalty>
0

> <r_i_glide_einternal>
1.77193

> <r_i_glide_emodel>
-52.2311

> <r_i_glide_energy>
-38.8595

> <r_i_glide_erotb>
0.460659

> <r_i_glide_esite>
-0.0261749

> <r_i_glide_evdw>
-36.4629

> <r_i_glide_gscore>
-5.0491

> <r_i_glide_hbond>
-0.115631

> <r_i_glide_ligand_efficiency>
-0.201964

> <r_i_glide_ligand_efficiency_ln>
-1.19679

> <r_i_glide_ligand_efficiency_sa>
-0.590546

> <r_i_glide_lipo>
-2.20972

> <r_i_glide_metal>
0

> <r_i_glide_rewards>
-0.975595

> <s_i_glide_gridfile>
wee1_glide-grid

> <s_m_Source_File>
wee1_decoys_glide_SP.sdf

> <s_m_Source_Path>
/Users/zhangxujun/Desktop

> <s_m_entry_id>
1822

> <s_m_entry_name>
wee1_decoys_glide_SP.1547

> <s_m_subgroup_title>
wee1_decoys_glide_SP

> <s_m_subgroupid>
wee1_decoys_glide_SP


$$$$
