ZINC43898541_2422
                    3D
 Schrodinger Suite 2024-2.
 60 62  0  0  1  0            999 V2000
    8.1348   54.7409   15.2559 C   0  0  0  0  0  0
    8.0630   54.8760   16.7725 C   0  0  0  0  0  0
    9.0782   55.5220   17.4982 C   0  0  0  0  0  0
    8.6586   55.6965   19.1650 S   0  0  0  0  0  0
    7.1353   54.9002   18.9307 C   0  0  0  0  0  0
    6.9655   54.4719   17.6008 C   0  0  0  0  0  0
    5.7518   53.7832   17.1540 C   0  0  0  0  0  0
    4.6862   53.8978   17.7660 O   0  0  0  0  0  0
    5.8895   52.9913   16.0778 N   0  0  0  0  0  0
    4.8157   52.1794   15.5152 C   0  0  0  0  0  0
    6.2495   54.6547   19.9801 N   0  0  0  0  0  0
    6.3038   55.0519   21.2706 C   0  0  0  0  0  0
    7.1567   55.8071   21.7373 O   0  0  0  0  0  0
    5.2143   54.4966   22.1628 C   0  0  0  0  0  0
    5.4069   54.4418   23.5537 C   0  0  0  0  0  0
    4.3760   54.0296   24.3989 C   0  0  0  0  0  0
    3.1524   53.6421   23.8492 C   0  0  0  0  0  0
    2.9625   53.6715   22.4702 C   0  0  0  0  0  0
    3.9804   54.0968   21.6311 C   0  0  0  0  0  0
    1.7406   53.1107   24.8099 S   0  0  0  0  0  0
    0.7084   54.0951   24.4817 O   0  0  0  0  0  0
    1.5041   51.7094   24.4463 O   0  0  0  0  0  0
    2.0926   53.1801   26.5698 N   0  0  0  0  0  0
    2.5933   54.3894   27.2666 C   0  0  0  0  0  0
    1.6265   54.7915   28.4064 C   0  0  1  0  0  0
    0.6529   54.9943   27.9645 H   0  0  0  0  0  0
    1.4761   53.5878   29.3728 C   0  0  0  0  0  0
    0.9903   52.2994   28.6552 C   0  0  2  0  0  0
    1.1185   51.4738   29.3576 H   0  0  0  0  0  0
    1.9054   51.9923   27.4446 C   0  0  0  0  0  0
   -0.4958   52.3468   28.2582 C   0  0  0  0  0  0
    2.0862   56.0614   29.1421 C   0  0  0  0  0  0
   10.4089   56.0715   17.0294 C   0  0  0  0  0  0
    8.7668   55.4995   14.7952 H   0  0  0  0  0  0
    8.5075   53.7636   14.9478 H   0  0  0  0  0  0
    7.1629   54.8852   14.7841 H   0  0  0  0  0  0
    6.7951   52.9220   15.6401 H   0  0  0  0  0  0
    5.2311   51.3879   14.8908 H   0  0  0  0  0  0
    4.1574   52.7926   14.8993 H   0  0  0  0  0  0
    4.2152   51.7067   16.2950 H   0  0  0  0  0  0
    5.4308   54.1329   19.6962 H   0  0  0  0  0  0
    6.3495   54.7446   23.9891 H   0  0  0  0  0  0
    4.5470   53.9945   25.4634 H   0  0  0  0  0  0
    2.0120   53.3844   22.0413 H   0  0  0  0  0  0
    3.7704   54.1399   20.5709 H   0  0  0  0  0  0
    3.5825   54.1519   27.6608 H   0  0  0  0  0  0
    2.7401   55.1816   26.5464 H   0  0  0  0  0  0
    2.4338   53.3971   29.8602 H   0  0  0  0  0  0
    0.7984   53.8486   30.1877 H   0  0  0  0  0  0
    1.4904   51.1721   26.8615 H   0  0  0  0  0  0
    2.8968   51.6968   27.7843 H   0  0  0  0  0  0
   -0.7089   53.1443   27.5466 H   0  0  0  0  0  0
   -0.8076   51.4067   27.8004 H   0  0  0  0  0  0
   -1.1244   52.4968   29.1358 H   0  0  0  0  0  0
    3.0986   55.9538   29.5308 H   0  0  0  0  0  0
    2.0733   56.9278   28.4825 H   0  0  0  0  0  0
    1.4292   56.2952   29.9813 H   0  0  0  0  0  0
   10.4295   57.1600   17.0780 H   0  0  0  0  0  0
   11.2265   55.7097   17.6530 H   0  0  0  0  0  0
   10.6540   55.7899   16.0067 H   0  0  0  0  0  0
  1  2  1  0  0  0
  1 34  1  0  0  0
  1 35  1  0  0  0
  1 36  1  0  0  0
  2  6  1  0  0  0
  2  3  2  0  0  0
  3  4  1  0  0  0
  3 33  1  0  0  0
  4  5  1  0  0  0
  5  6  2  0  0  0
  5 11  1  0  0  0
  6  7  1  0  0  0
  7  8  2  0  0  0
  7  9  1  0  0  0
  9 10  1  0  0  0
  9 37  1  0  0  0
 10 38  1  0  0  0
 10 39  1  0  0  0
 10 40  1  0  0  0
 11 12  1  0  0  0
 11 41  1  0  0  0
 12 13  2  0  0  0
 12 14  1  0  0  0
 14 19  2  0  0  0
 14 15  1  0  0  0
 15 16  2  0  0  0
 15 42  1  0  0  0
 16 17  1  0  0  0
 16 43  1  0  0  0
 17 18  2  0  0  0
 17 20  1  0  0  0
 18 19  1  0  0  0
 18 44  1  0  0  0
 19 45  1  0  0  0
 20 21  2  0  0  0
 20 22  2  0  0  0
 20 23  1  0  0  0
 23 30  1  0  0  0
 23 24  1  0  0  0
 24 25  1  0  0  0
 24 46  1  0  0  0
 24 47  1  0  0  0
 25 26  1  0  0  0
 25 27  1  0  0  0
 25 32  1  0  0  0
 27 28  1  0  0  0
 27 48  1  0  0  0
 27 49  1  0  0  0
 28 29  1  0  0  0
 28 30  1  0  0  0
 28 31  1  0  0  0
 30 50  1  0  0  0
 30 51  1  0  0  0
 31 52  1  0  0  0
 31 53  1  0  0  0
 31 54  1  0  0  0
 32 55  1  0  0  0
 32 56  1  0  0  0
 32 57  1  0  0  0
 33 58  1  0  0  0
 33 59  1  0  0  0
 33 60  1  0  0  0
M  END
> <i_i_glide_confnum>
24

> <i_i_glide_lignum>
2423

> <i_i_glide_posenum>
338

> <i_i_glide_rotatable_bonds>
7

> <i_m_Source_File_Index>
3179

> <b_m_subgroup_collapsed>
0

> <r_i_docking_score>
-2.02807

> <r_i_glide_ecoul>
-1.49005

> <r_i_glide_eff_state_penalty>
0

> <r_i_glide_einternal>
5.27614

> <r_i_glide_emodel>
-28.8987

> <r_i_glide_energy>
-34.6914

> <r_i_glide_erotb>
0.56257

> <r_i_glide_esite>
-0.0599393

> <r_i_glide_evdw>
-33.2014

> <r_i_glide_gscore>
-2.02807

> <r_i_glide_hbond>
0

> <r_i_glide_ligand_efficiency>
-0.0654218

> <r_i_glide_ligand_efficiency_ln>
-0.457393

> <r_i_glide_ligand_efficiency_sa>
-0.205515

> <r_i_glide_lipo>
-2.3924

> <r_i_glide_metal>
0

> <r_i_glide_rewards>
1.74527

> <s_i_glide_gridfile>
wee1_glide-grid

> <s_m_Source_File>
wee1_decoys_glide_SP.sdf

> <s_m_Source_Path>
/Users/zhangxujun/Desktop

> <s_m_entry_id>
3454

> <s_m_entry_name>
wee1_decoys_glide_SP.3179

> <s_m_subgroup_title>
wee1_decoys_glide_SP

> <s_m_subgroupid>
wee1_decoys_glide_SP


$$$$
