ZINC08763398_2896
                    3D
 Schrodinger Suite 2024-2.
 51 54  0  0  1  0            999 V2000
    2.7045   50.0661   21.5868 C   0  0  0  0  0  0
    1.6118   50.5821   20.6701 C   0  0  0  0  0  0
    0.4471   49.8543   20.4053 C   0  0  0  0  0  0
   -0.5435   50.6475   19.2355 S   0  0  0  0  0  0
    0.5552   51.9873   19.1358 C   0  0  0  0  0  0
    1.6837   51.8002   19.9485 C   0  0  0  0  0  0
    2.8337   52.8077   20.0426 C   0  0  1  0  0  0
    2.4779   53.6967   19.5584 H   0  0  0  0  0  0
    3.2338   53.2337   21.4770 C   0  0  0  0  0  0
    2.2353   53.4808   22.4329 C   0  0  0  0  0  0
    2.5587   53.9094   23.7197 C   0  0  0  0  0  0
    3.8925   54.0969   24.0744 C   0  0  0  0  0  0
    4.8994   53.8504   23.1431 C   0  0  0  0  0  0
    4.5732   53.4186   21.8577 C   0  0  0  0  0  0
    6.7220   54.0982   23.6286 Br  0  0  0  0  0  0
    3.9348   52.4954   19.1263 N   0  0  0  0  0  0
    4.8477   53.4181   18.5535 C   0  0  0  0  0  0
    4.7882   54.8079   18.7264 C   0  0  0  0  0  0
    5.7558   55.6163   18.1207 C   0  0  0  0  0  0
    6.7676   55.0258   17.3555 C   0  0  0  0  0  0
    6.7904   53.6364   17.2025 C   0  0  0  0  0  0
    0.3047   53.1147   18.3516 N   0  0  0  0  0  0
   -0.8219   53.4514   17.6814 C   0  0  0  0  0  0
   -1.8356   52.7599   17.5757 O   0  0  0  0  0  0
   -0.7912   54.7781   17.1152 C   0  0  0  0  0  0
   -1.7648   55.4838   16.4142 C   0  0  0  0  0  0
   -1.2468   56.7548   16.1587 C   0  0  0  0  0  0
    0.0236   56.7753   16.7074 C   0  0  0  0  0  0
    0.3032   55.5761   17.2816 O   0  0  0  0  0  0
   -0.0046   48.5453   20.9995 C   0  0  0  0  0  0
    3.6921   50.4059   21.2768 H   0  0  0  0  0  0
    2.5542   50.3850   22.6182 H   0  0  0  0  0  0
    2.7560   48.9769   21.5881 H   0  0  0  0  0  0
    1.1948   53.3576   22.1694 H   0  0  0  0  0  0
    1.7754   54.0996   24.4389 H   0  0  0  0  0  0
    4.1467   54.4272   25.0709 H   0  0  0  0  0  0
    5.3793   53.2328   21.1661 H   0  0  0  0  0  0
    4.0728   51.5167   18.8846 H   0  0  0  0  0  0
    4.0077   55.2634   19.3173 H   0  0  0  0  0  0
    5.7211   56.6899   18.2416 H   0  0  0  0  0  0
    7.5213   55.6403   16.8834 H   0  0  0  0  0  0
    7.5289   53.0915   16.6294 H   0  0  0  0  0  0
    1.0261   53.8223   18.3693 H   0  0  0  0  0  0
   -2.7427   55.1197   16.1324 H   0  0  0  0  0  0
   -1.7384   57.5636   15.6375 H   0  0  0  0  0  0
    0.7956   57.5301   16.7683 H   0  0  0  0  0  0
    0.2801   48.4967   22.0508 H   0  0  0  0  0  0
   -1.0879   48.4222   20.9632 H   0  0  0  0  0  0
    0.4387   47.6961   20.4786 H   0  0  0  0  0  0
    5.8347   52.8969   17.8002 N   0  3  0  0  0  0
    5.8411   51.8784   17.6990 H   0  0  0  0  0  0
  1  2  1  0  0  0
  1 31  1  0  0  0
  1 32  1  0  0  0
  1 33  1  0  0  0
  2  6  1  0  0  0
  2  3  2  0  0  0
  3  4  1  0  0  0
  3 30  1  0  0  0
  4  5  1  0  0  0
  5  6  2  0  0  0
  5 22  1  0  0  0
  6  7  1  0  0  0
  7  8  1  0  0  0
  7  9  1  0  0  0
  7 16  1  0  0  0
  9 14  2  0  0  0
  9 10  1  0  0  0
 10 11  2  0  0  0
 10 34  1  0  0  0
 11 12  1  0  0  0
 11 35  1  0  0  0
 12 13  2  0  0  0
 12 36  1  0  0  0
 13 14  1  0  0  0
 13 15  1  0  0  0
 14 37  1  0  0  0
 16 17  1  0  0  0
 16 38  1  0  0  0
 17 18  2  0  0  0
 17 50  1  0  0  0
 18 19  1  0  0  0
 18 39  1  0  0  0
 19 20  2  0  0  0
 19 40  1  0  0  0
 20 21  1  0  0  0
 20 41  1  0  0  0
 21 42  1  0  0  0
 21 50  2  0  0  0
 22 23  1  0  0  0
 22 43  1  0  0  0
 23 24  2  0  0  0
 23 25  1  0  0  0
 25 29  1  0  0  0
 25 26  2  0  0  0
 26 27  1  0  0  0
 26 44  1  0  0  0
 27 28  2  0  0  0
 27 45  1  0  0  0
 28 29  1  0  0  0
 28 46  1  0  0  0
 30 47  1  0  0  0
 30 48  1  0  0  0
 30 49  1  0  0  0
 50 51  1  0  0  0
M  CHG  1  50   1
M  END
> <i_i_glide_confnum>
8

> <i_i_glide_lignum>
2897

> <i_i_glide_posenum>
251

> <i_i_glide_rotatable_bonds>
7

> <i_m_Source_File_Index>
4688

> <b_m_subgroup_collapsed>
0

> <r_i_docking_score>
-4.45338

> <r_i_glide_ecoul>
-8.32415

> <r_i_glide_eff_state_penalty>
0

> <r_i_glide_einternal>
3.28685

> <r_i_glide_emodel>
-46.846

> <r_i_glide_energy>
-36.8579

> <r_i_glide_erotb>
0.608118

> <r_i_glide_esite>
-0.213841

> <r_i_glide_evdw>
-28.5337

> <r_i_glide_gscore>
-4.45338

> <r_i_glide_hbond>
-0.443672

> <r_i_glide_ligand_efficiency>
-0.148446

> <r_i_glide_ligand_efficiency_ln>
-1.01186

> <r_i_glide_ligand_efficiency_sa>
-0.461256

> <r_i_glide_lipo>
-1.61574

> <r_i_glide_metal>
0

> <r_i_glide_rewards>
-0.112935

> <s_i_glide_gridfile>
wee1_glide-grid

> <s_m_Source_File>
wee1_decoys_glide_SP.sdf

> <s_m_Source_Path>
/Users/zhangxujun/Desktop

> <s_m_entry_id>
4963

> <s_m_entry_name>
wee1_decoys_glide_SP.4688

> <s_m_subgroup_title>
wee1_decoys_glide_SP

> <s_m_subgroupid>
wee1_decoys_glide_SP


$$$$
