ZINC09492092_5072
                    3D
 Schrodinger Suite 2024-2.
 50 52  0  0  1  0            999 V2000
   -0.0955   53.2049   30.8550 C   0  0  0  0  0  0
    0.8488   54.1211   30.4108 C   0  0  0  0  0  0
    1.5224   53.8848   29.2176 C   0  0  0  0  0  0
    1.2429   52.7385   28.4596 C   0  0  0  0  0  0
    0.2412   51.8618   28.8867 C   0  0  0  0  0  0
   -0.4281   52.0956   30.0831 C   0  0  0  0  0  0
    2.0937   52.3286   27.2561 C   0  0  0  0  0  0
    2.1246   53.2244   26.0756 N   0  0  0  0  0  0
    2.9217   54.4544   26.2316 C   0  0  0  0  0  0
    4.4066   54.3191   26.5124 C   0  0  0  0  0  0
    5.3147   54.6551   25.5042 C   0  0  0  0  0  0
    6.6736   54.6956   25.7774 C   0  0  0  0  0  0
    7.1044   54.4251   27.0705 C   0  0  0  0  0  0
    6.2192   54.0839   28.0798 C   0  0  0  0  0  0
    4.8639   54.0296   27.8010 C   0  0  0  0  0  0
    1.4359   52.8907   24.9421 C   0  0  0  0  0  0
    0.8908   51.7926   24.8114 O   0  0  0  0  0  0
    1.2831   53.8701   23.7489 C   0  0  0  0  0  0
    1.6777   53.2712   22.5055 O   0  0  0  0  0  0
    2.9906   53.2021   22.1202 C   0  0  0  0  0  0
    3.9323   53.4233   22.8789 O   0  0  0  0  0  0
    3.1714   52.8975   20.6664 C   0  0  0  0  0  0
    4.1518   53.4607   19.8260 C   0  0  0  0  0  0
    4.1074   53.1745   18.4489 C   0  0  0  0  0  0
    3.0875   52.3501   17.9409 C   0  0  0  0  0  0
    2.1475   51.7949   18.8212 C   0  0  0  0  0  0
    0.8805   50.7519   18.2775 Cl  0  0  0  0  0  0
    2.9870   52.0063   16.2416 Cl  0  0  0  0  0  0
    5.0756   53.6970   17.5858 N   0  0  0  0  0  0
    5.3785   54.5221   20.4561 Cl  0  0  0  0  0  0
   -0.5780   53.3485   31.8107 H   0  0  0  0  0  0
    1.0829   54.9914   31.0072 H   0  0  0  0  0  0
    2.2851   54.5884   28.9404 H   0  0  0  0  0  0
    0.0088   50.9675   28.3246 H   0  0  0  0  0  0
   -1.1694   51.3914   30.4377 H   0  0  0  0  0  0
    3.1071   52.1407   27.6049 H   0  0  0  0  0  0
    1.7414   51.3394   26.9628 H   0  0  0  0  0  0
    2.8995   55.0772   25.3487 H   0  0  0  0  0  0
    2.4919   55.0626   27.0190 H   0  0  0  0  0  0
    4.9743   54.9243   24.5169 H   0  0  0  0  0  0
    7.3785   54.9577   25.0006 H   0  0  0  0  0  0
    8.1496   54.4950   27.3112 H   0  0  0  0  0  0
    6.5878   53.8896   29.0755 H   0  0  0  0  0  0
    4.1904   53.7880   28.6048 H   0  0  0  0  0  0
    0.2230   54.1094   23.6822 H   0  0  0  0  0  0
    1.7567   54.8401   23.8503 H   0  0  0  0  0  0
    5.6254   52.9871   17.1201 H   0  0  0  0  0  0
    5.5684   54.5166   17.9080 H   0  0  0  0  0  0
    2.2287   52.0944   20.1304 N   0  3  0  0  0  0
    1.5236   51.7178   20.7490 H   0  0  0  0  0  0
  1  6  2  0  0  0
  1  2  1  0  0  0
  1 31  1  0  0  0
  2  3  2  0  0  0
  2 32  1  0  0  0
  3  4  1  0  0  0
  3 33  1  0  0  0
  4  5  2  0  0  0
  4  7  1  0  0  0
  5  6  1  0  0  0
  5 34  1  0  0  0
  6 35  1  0  0  0
  7  8  1  0  0  0
  7 36  1  0  0  0
  7 37  1  0  0  0
  8  9  1  0  0  0
  8 16  1  0  0  0
  9 10  1  0  0  0
  9 38  1  0  0  0
  9 39  1  0  0  0
 10 15  2  0  0  0
 10 11  1  0  0  0
 11 12  2  0  0  0
 11 40  1  0  0  0
 12 13  1  0  0  0
 12 41  1  0  0  0
 13 14  2  0  0  0
 13 42  1  0  0  0
 14 15  1  0  0  0
 14 43  1  0  0  0
 15 44  1  0  0  0
 16 17  2  0  0  0
 16 18  1  0  0  0
 18 19  1  0  0  0
 18 45  1  0  0  0
 18 46  1  0  0  0
 19 20  1  0  0  0
 20 21  2  0  0  0
 20 22  1  0  0  0
 22 23  2  0  0  0
 22 49  1  0  0  0
 23 24  1  0  0  0
 23 30  1  0  0  0
 24 25  2  0  0  0
 24 29  1  0  0  0
 25 26  1  0  0  0
 25 28  1  0  0  0
 26 27  1  0  0  0
 26 49  2  0  0  0
 29 47  1  0  0  0
 29 48  1  0  0  0
 49 50  1  0  0  0
M  CHG  1  49   1
M  END
> <i_i_glide_confnum>
4

> <i_i_glide_lignum>
5073

> <i_i_glide_posenum>
348

> <i_i_glide_rotatable_bonds>
9

> <i_m_Source_File_Index>
2429

> <b_m_subgroup_collapsed>
0

> <r_i_docking_score>
-4.89155

> <r_i_glide_ecoul>
-1.37009

> <r_i_glide_eff_state_penalty>
0

> <r_i_glide_einternal>
5.50232

> <r_i_glide_emodel>
-53.7582

> <r_i_glide_energy>
-41.1325

> <r_i_glide_erotb>
0.616577

> <r_i_glide_esite>
-0.0607006

> <r_i_glide_evdw>
-39.7624

> <r_i_glide_gscore>
-4.89155

> <r_i_glide_hbond>
0

> <r_i_glide_ligand_efficiency>
-0.157792

> <r_i_glide_ligand_efficiency_ln>
-1.10319

> <r_i_glide_ligand_efficiency_sa>
-0.495684

> <r_i_glide_lipo>
-2.67692

> <r_i_glide_metal>
0

> <r_i_glide_rewards>
-0.576871

> <s_i_glide_gridfile>
wee1_glide-grid

> <s_m_Source_File>
wee1_decoys_glide_SP.sdf

> <s_m_Source_Path>
/Users/zhangxujun/Desktop

> <s_m_entry_id>
2704

> <s_m_entry_name>
wee1_decoys_glide_SP.2429

> <s_m_subgroup_title>
wee1_decoys_glide_SP

> <s_m_subgroupid>
wee1_decoys_glide_SP


$$$$
