ZINC20154868_5464
                    3D
 Schrodinger Suite 2024-2.
 53 56  0  0  1  0            999 V2000
   10.2618   56.0317   16.0150 C   0  0  0  0  0  0
    9.5374   55.0076   16.9088 C   0  0  0  0  0  0
   10.4133   53.7656   17.1529 C   0  0  0  0  0  0
    9.0667   55.6252   18.2414 C   0  0  0  0  0  0
    7.8131   56.9471   18.1280 S   0  0  0  0  0  0
    6.3200   55.9494   18.3235 C   0  0  0  0  0  0
    5.5629   55.8591   17.3125 N   0  0  0  0  0  0
    4.2883   54.8378   17.6688 S   0  0  0  0  0  0
    4.8682   54.5099   19.3117 C   0  0  0  0  0  0
    4.3050   53.7145   20.1381 N   0  0  0  0  0  0
    4.8974   53.4989   21.3865 C   0  0  0  0  0  0
    4.7712   52.4963   22.0817 O   0  0  0  0  0  0
    5.8164   54.5663   21.8392 C   0  0  0  0  0  0
    5.9362   54.8970   23.1589 C   0  0  0  0  0  0
    5.2007   54.4429   24.3589 C   0  0  0  0  0  0
    5.9035   54.2630   25.5505 C   0  0  0  0  0  0
    5.2482   53.8719   26.7172 C   0  0  0  0  0  0
    3.8576   53.6721   26.7147 C   0  0  0  0  0  0
    3.1539   53.8141   25.5064 C   0  0  0  0  0  0
    3.8192   54.2228   24.3530 C   0  0  0  0  0  0
    1.4723   53.4386   25.3843 Cl  0  0  0  0  0  0
    3.2484   53.2044   27.8619 O   0  0  0  0  0  0
    2.3873   53.9904   28.5693 C   0  0  0  0  0  0
    1.9758   55.1064   28.2441 O   0  0  0  0  0  0
    2.0120   53.3208   29.8043 C   0  0  0  0  0  0
    2.6489   52.3474   30.5673 C   0  0  0  0  0  0
    1.8227   52.0964   31.6646 C   0  0  0  0  0  0
    0.7040   52.8968   31.5012 C   0  0  0  0  0  0
    0.8314   53.6624   30.3867 O   0  0  0  0  0  0
    6.0161   53.6401   27.8302 O   0  0  0  0  0  0
    5.8750   54.6028   28.8581 C   0  0  0  0  0  0
    6.5662   55.3372   20.8290 C   0  0  0  0  0  0
    7.6194   56.0032   21.0572 N   0  0  0  0  0  0
    5.9901   55.3017   19.5222 N   0  0  0  0  0  0
   11.1611   56.4160   16.4989 H   0  0  0  0  0  0
    9.6216   56.8831   15.7795 H   0  0  0  0  0  0
   10.5595   55.5837   15.0668 H   0  0  0  0  0  0
    8.6481   54.6775   16.3679 H   0  0  0  0  0  0
   11.2965   54.0069   17.7464 H   0  0  0  0  0  0
    9.8622   52.9901   17.6854 H   0  0  0  0  0  0
   10.7525   53.3262   16.2150 H   0  0  0  0  0  0
    8.7188   54.8280   18.8992 H   0  0  0  0  0  0
    9.9119   56.0596   18.7722 H   0  0  0  0  0  0
    6.6550   55.6629   23.4186 H   0  0  0  0  0  0
    6.9738   54.4054   25.5763 H   0  0  0  0  0  0
    3.2492   54.3543   23.4450 H   0  0  0  0  0  0
    3.6092   51.8985   30.3553 H   0  0  0  0  0  0
    2.0041   51.4126   32.4818 H   0  0  0  0  0  0
   -0.1952   53.0384   32.0816 H   0  0  0  0  0  0
    6.7042   54.4966   29.5485 H   0  0  0  0  0  0
    5.9046   55.6189   28.4644 H   0  0  0  0  0  0
    4.9626   54.4728   29.4352 H   0  0  0  0  0  0
    7.9454   55.9430   22.0127 H   0  0  0  0  0  0
  1  2  1  0  0  0
  1 35  1  0  0  0
  1 36  1  0  0  0
  1 37  1  0  0  0
  2  3  1  0  0  0
  2  4  1  0  0  0
  2 38  1  0  0  0
  3 39  1  0  0  0
  3 40  1  0  0  0
  3 41  1  0  0  0
  4  5  1  0  0  0
  4 42  1  0  0  0
  4 43  1  0  0  0
  5  6  1  0  0  0
  6 34  1  0  0  0
  6  7  2  0  0  0
  7  8  1  0  0  0
  8  9  1  0  0  0
  9 34  1  0  0  0
  9 10  2  0  0  0
 10 11  1  0  0  0
 11 12  2  0  0  0
 11 13  1  0  0  0
 13 14  2  0  0  0
 13 32  1  0  0  0
 14 15  1  0  0  0
 14 44  1  0  0  0
 15 20  2  0  0  0
 15 16  1  0  0  0
 16 17  2  0  0  0
 16 45  1  0  0  0
 17 18  1  0  0  0
 17 30  1  0  0  0
 18 19  2  0  0  0
 18 22  1  0  0  0
 19 20  1  0  0  0
 19 21  1  0  0  0
 20 46  1  0  0  0
 22 23  1  0  0  0
 23 24  2  0  0  0
 23 25  1  0  0  0
 25 29  1  0  0  0
 25 26  2  0  0  0
 26 27  1  0  0  0
 26 47  1  0  0  0
 27 28  2  0  0  0
 27 48  1  0  0  0
 28 29  1  0  0  0
 28 49  1  0  0  0
 30 31  1  0  0  0
 31 50  1  0  0  0
 31 51  1  0  0  0
 31 52  1  0  0  0
 32 33  2  0  0  0
 32 34  1  0  0  0
 33 53  1  0  0  0
M  END
> <i_i_glide_confnum>
11

> <i_i_glide_lignum>
5465

> <i_i_glide_posenum>
277

> <i_i_glide_rotatable_bonds>
8

> <i_m_Source_File_Index>
4565

> <b_m_subgroup_collapsed>
0

> <r_i_docking_score>
-5.54145

> <r_i_glide_ecoul>
-3.46597

> <r_i_glide_eff_state_penalty>
0

> <r_i_glide_einternal>
12.6698

> <r_i_glide_emodel>
-59.8155

> <r_i_glide_energy>
-50.4181

> <r_i_glide_erotb>
0.45758

> <r_i_glide_esite>
0

> <r_i_glide_evdw>
-46.9521

> <r_i_glide_gscore>
-5.54145

> <r_i_glide_hbond>
-0.0707435

> <r_i_glide_ligand_efficiency>
-0.162984

> <r_i_glide_ligand_efficiency_ln>
-1.22426

> <r_i_glide_ligand_efficiency_sa>
-0.528004

> <r_i_glide_lipo>
-2.165

> <r_i_glide_metal>
0

> <r_i_glide_rewards>
-0.895789

> <s_i_glide_gridfile>
wee1_glide-grid

> <s_m_Source_File>
wee1_decoys_glide_SP.sdf

> <s_m_Source_Path>
/Users/zhangxujun/Desktop

> <s_m_entry_id>
4840

> <s_m_entry_name>
wee1_decoys_glide_SP.4565

> <s_m_subgroup_title>
wee1_decoys_glide_SP

> <s_m_subgroupid>
wee1_decoys_glide_SP


$$$$
