ZINC39940316_3440
                    3D
 Schrodinger Suite 2024-2.
 56 61  0  0  1  0            999 V2000
   -2.3188   51.9258   26.4131 C   0  0  0  0  0  0
   -1.4296   50.8968   26.7011 C   0  0  0  0  0  0
   -0.7290   50.2548   25.6832 C   0  0  0  0  0  0
   -0.9110   50.6489   24.3346 C   0  0  0  0  0  0
   -0.2155   50.0205   23.2719 C   0  0  0  0  0  0
   -0.4018   50.4435   21.9531 C   0  0  0  0  0  0
   -1.2983   51.4764   21.6741 C   0  0  0  0  0  0
   -2.0074   52.1009   22.6943 C   0  0  0  0  0  0
   -1.8225   51.7086   24.0393 C   0  0  0  0  0  0
   -2.5208   52.3382   25.0994 C   0  0  0  0  0  0
    0.3733   49.7711   20.8199 C   0  0  1  0  0  0
    1.1017   49.0893   21.2641 H   0  0  0  0  0  0
   -0.5166   49.0007   19.8609 C   0  0  0  0  0  0
    0.3697   48.7970   18.6370 C   0  0  1  0  0  0
   -0.2288   48.8905   17.7298 H   0  0  0  0  0  0
    1.2895   49.9325   18.6501 N   0  0  0  0  0  0
    1.1420   50.6530   19.9339 N   0  0  0  0  0  0
    2.1756   51.5007   20.3827 C   0  0  0  0  0  0
    3.2706   51.8470   19.6817 C   0  0  0  0  0  0
    4.1693   52.6506   20.3719 N   0  0  0  0  0  0
    3.7918   52.9670   21.7056 C   0  0  0  0  0  0
    2.1924   52.2536   22.0005 S   0  0  0  0  0  0
    4.4178   53.6575   22.5834 N   0  0  0  0  0  0
    5.7807   53.9340   22.2483 O   0  0  0  0  0  0
    5.8849   54.9093   21.3045 C   0  0  0  0  0  0
    5.5038   54.7455   20.0125 C   0  0  0  0  0  0
    4.9572   53.5470   19.5224 N   0  0  0  0  0  0
    4.4169   53.7172   18.6876 H   0  0  0  0  0  0
    5.6016   55.8820   19.0333 C   0  0  0  0  0  0
    4.9325   55.8509   17.7938 C   0  0  0  0  0  0
    4.9566   56.9426   16.9244 C   0  0  0  0  0  0
    5.6508   58.0978   17.2728 C   0  0  0  0  0  0
    6.3361   58.1515   18.4818 C   0  0  0  0  0  0
    6.3198   57.0519   19.3372 C   0  0  0  0  0  0
    6.9873   59.2967   18.8618 O   0  0  0  0  0  0
    1.1288   47.4478   18.6097 C   0  0  0  0  0  0
    0.2793   46.4200   18.5946 F   0  0  0  0  0  0
    1.9032   47.3333   17.5321 F   0  0  0  0  0  0
    1.9032   47.3008   19.6821 F   0  0  0  0  0  0
   -2.8626   52.3993   27.2157 H   0  0  0  0  0  0
   -1.2950   50.5712   27.7233 H   0  0  0  0  0  0
   -0.0531   49.4453   25.9236 H   0  0  0  0  0  0
    0.4768   49.2221   23.5002 H   0  0  0  0  0  0
   -1.4382   51.7999   20.6529 H   0  0  0  0  0  0
   -2.7003   52.8966   22.4681 H   0  0  0  0  0  0
   -3.2151   53.1377   24.8832 H   0  0  0  0  0  0
   -0.7609   48.0329   20.3014 H   0  0  0  0  0  0
   -1.4760   49.4732   19.6453 H   0  0  0  0  0  0
    2.2423   49.5836   18.6477 H   0  0  0  0  0  0
    3.5049   51.5020   18.6831 H   0  0  0  0  0  0
    6.2853   55.8154   21.7267 H   0  0  0  0  0  0
    4.3560   54.9920   17.4882 H   0  0  0  0  0  0
    4.4212   56.8998   15.9875 H   0  0  0  0  0  0
    5.6441   58.9538   16.6116 H   0  0  0  0  0  0
    6.8653   57.1423   20.2585 H   0  0  0  0  0  0
    6.7044   60.0641   18.3307 H   0  0  0  0  0  0
  1 10  2  0  0  0
  1  2  1  0  0  0
  1 40  1  0  0  0
  2  3  2  0  0  0
  2 41  1  0  0  0
  3  4  1  0  0  0
  3 42  1  0  0  0
  4  9  2  0  0  0
  4  5  1  0  0  0
  5  6  2  0  0  0
  5 43  1  0  0  0
  6  7  1  0  0  0
  6 11  1  0  0  0
  7  8  2  0  0  0
  7 44  1  0  0  0
  8  9  1  0  0  0
  8 45  1  0  0  0
  9 10  1  0  0  0
 10 46  1  0  0  0
 11 12  1  0  0  0
 11 17  1  0  0  0
 11 13  1  0  0  0
 13 14  1  0  0  0
 13 47  1  0  0  0
 13 48  1  0  0  0
 14 15  1  0  0  0
 14 16  1  0  0  0
 14 36  1  0  0  0
 16 17  1  0  0  0
 16 49  1  0  0  0
 17 18  1  0  0  0
 18 22  1  0  0  0
 18 19  2  0  0  0
 19 20  1  0  0  0
 19 50  1  0  0  0
 20 27  1  0  0  0
 20 21  1  0  0  0
 21 22  1  0  0  0
 21 23  2  0  0  0
 23 24  1  0  0  0
 24 25  1  0  0  0
 25 26  2  0  0  0
 25 51  1  0  0  0
 26 27  1  0  0  0
 26 29  1  0  0  0
 27 28  1  0  0  0
 29 34  2  0  0  0
 29 30  1  0  0  0
 30 31  2  0  0  0
 30 52  1  0  0  0
 31 32  1  0  0  0
 31 53  1  0  0  0
 32 33  2  0  0  0
 32 54  1  0  0  0
 33 34  1  0  0  0
 33 35  1  0  0  0
 34 55  1  0  0  0
 35 56  1  0  0  0
 36 37  1  0  0  0
 36 38  1  0  0  0
 36 39  1  0  0  0
M  END
> <i_i_glide_confnum>
6

> <i_i_glide_lignum>
3441

> <i_i_glide_posenum>
217

> <i_i_glide_rotatable_bonds>
5

> <i_m_Source_File_Index>
2967

> <b_m_subgroup_collapsed>
0

> <r_i_docking_score>
-3.80396

> <r_i_glide_ecoul>
-7.50955

> <r_i_glide_eff_state_penalty>
0

> <r_i_glide_einternal>
4.23014

> <r_i_glide_emodel>
-54.5644

> <r_i_glide_energy>
-44.4207

> <r_i_glide_erotb>
0.234971

> <r_i_glide_esite>
-0.176563

> <r_i_glide_evdw>
-36.9111

> <r_i_glide_gscore>
-3.80396

> <r_i_glide_hbond>
-0.16

> <r_i_glide_ligand_efficiency>
-0.105665

> <r_i_glide_ligand_efficiency_ln>
-0.829921

> <r_i_glide_ligand_efficiency_sa>
-0.3489

> <r_i_glide_lipo>
-0.58807

> <r_i_glide_metal>
0

> <r_i_glide_rewards>
-0.142307

> <s_i_glide_gridfile>
wee1_glide-grid

> <s_m_Source_File>
wee1_decoys_glide_SP.sdf

> <s_m_Source_Path>
/Users/zhangxujun/Desktop

> <s_m_entry_id>
3242

> <s_m_entry_name>
wee1_decoys_glide_SP.2967

> <s_m_subgroup_title>
wee1_decoys_glide_SP

> <s_m_subgroupid>
wee1_decoys_glide_SP


$$$$
