ZINC44551576_4689
                    3D
 Schrodinger Suite 2024-2.
 42 44  0  0  1  0            999 V2000
    2.6267   53.9091   28.8859 C   0  0  0  0  0  0
    3.4032   54.0735   27.7462 C   0  0  0  0  0  0
    2.9267   53.6957   26.4848 C   0  0  0  0  0  0
    1.6676   53.0782   26.4267 C   0  0  0  0  0  0
    0.8908   52.9008   27.5715 C   0  0  0  0  0  0
    1.3449   53.3423   28.8232 C   0  0  0  0  0  0
    0.5166   53.2556   30.0516 C   0  0  0  0  0  0
    0.6033   54.2182   30.8818 N   0  0  0  0  0  0
   -0.0954   54.0350   32.0907 O   0  0  0  0  0  0
   -0.2399   52.0967   30.1155 N   0  0  0  0  0  0
    3.6881   53.9071   25.3281 N   0  0  0  0  0  0
    5.1200   54.2616   25.3691 C   0  0  0  0  0  0
    5.8804   54.6108   24.0614 C   0  0  0  0  0  0
    5.2163   54.4953   22.7496 N   0  0  0  0  0  0
    3.9394   53.7804   22.8352 C   0  0  0  0  0  0
    3.0812   54.2242   24.0317 C   0  0  0  0  0  0
    5.9043   54.7392   21.5548 C   0  0  0  0  0  0
    5.3900   54.3402   20.3086 C   0  0  0  0  0  0
    6.0760   54.6148   19.1257 C   0  0  0  0  0  0
    7.2906   55.2911   19.1719 C   0  0  0  0  0  0
    7.8205   55.6971   20.3902 C   0  0  0  0  0  0
    7.1253   55.4351   21.5679 C   0  0  0  0  0  0
    7.9588   55.5548   18.0274 F   0  0  0  0  0  0
    3.0320   54.2520   29.8270 H   0  0  0  0  0  0
    4.3718   54.5303   27.8737 H   0  0  0  0  0  0
    1.2697   52.7189   25.4914 H   0  0  0  0  0  0
   -0.0838   52.4437   27.4658 H   0  0  0  0  0  0
   -0.4276   53.1298   32.0469 H   0  0  0  0  0  0
   -0.8136   51.8626   30.9195 H   0  0  0  0  0  0
   -0.1691   51.4032   29.3842 H   0  0  0  0  0  0
    5.3941   54.9730   26.1483 H   0  0  0  0  0  0
    5.5451   53.2969   25.6461 H   0  0  0  0  0  0
    6.8979   54.2196   24.0758 H   0  0  0  0  0  0
    5.9512   55.6966   24.1318 H   0  0  0  0  0  0
    4.1079   52.7059   22.8787 H   0  0  0  0  0  0
    3.3461   53.9804   21.9453 H   0  0  0  0  0  0
    2.1019   53.7630   23.9271 H   0  0  0  0  0  0
    2.9149   55.2970   23.9696 H   0  0  0  0  0  0
    4.4607   53.8011   20.2255 H   0  0  0  0  0  0
    5.6715   54.2944   18.1767 H   0  0  0  0  0  0
    8.7719   56.2090   20.4190 H   0  0  0  0  0  0
    7.5647   55.7737   22.4931 H   0  0  0  0  0  0
  1  6  2  0  0  0
  1  2  1  0  0  0
  1 24  1  0  0  0
  2  3  2  0  0  0
  2 25  1  0  0  0
  3  4  1  0  0  0
  3 11  1  0  0  0
  4  5  2  0  0  0
  4 26  1  0  0  0
  5  6  1  0  0  0
  5 27  1  0  0  0
  6  7  1  0  0  0
  7  8  2  0  0  0
  7 10  1  0  0  0
  8  9  1  0  0  0
  9 28  1  0  0  0
 10 29  1  0  0  0
 10 30  1  0  0  0
 11 16  1  0  0  0
 11 12  1  0  0  0
 12 13  1  0  0  0
 12 31  1  0  0  0
 12 32  1  0  0  0
 13 14  1  0  0  0
 13 33  1  0  0  0
 13 34  1  0  0  0
 14 15  1  0  0  0
 14 17  1  0  0  0
 15 16  1  0  0  0
 15 35  1  0  0  0
 15 36  1  0  0  0
 16 37  1  0  0  0
 16 38  1  0  0  0
 17 22  2  0  0  0
 17 18  1  0  0  0
 18 19  2  0  0  0
 18 39  1  0  0  0
 19 20  1  0  0  0
 19 40  1  0  0  0
 20 21  2  0  0  0
 20 23  1  0  0  0
 21 22  1  0  0  0
 21 41  1  0  0  0
 22 42  1  0  0  0
M  END
> <i_i_glide_confnum>
810

> <i_i_glide_lignum>
4690

> <i_i_glide_posenum>
263

> <i_i_glide_rotatable_bonds>
4

> <i_m_Source_File_Index>
4764

> <b_m_subgroup_collapsed>
0

> <r_i_docking_score>
-6.83616

> <r_i_glide_ecoul>
-4.60578

> <r_i_glide_eff_state_penalty>
0

> <r_i_glide_einternal>
4.50922

> <r_i_glide_emodel>
-55.8083

> <r_i_glide_energy>
-40.7022

> <r_i_glide_erotb>
0.752363

> <r_i_glide_esite>
-0.142552

> <r_i_glide_evdw>
-36.0964

> <r_i_glide_gscore>
-6.83616

> <r_i_glide_hbond>
-0.144365

> <r_i_glide_ligand_efficiency>
-0.297224

> <r_i_glide_ligand_efficiency_ln>
-1.65305

> <r_i_glide_ligand_efficiency_sa>
-0.845267

> <r_i_glide_lipo>
-2.71814

> <r_i_glide_metal>
0

> <r_i_glide_rewards>
-2.08778

> <s_i_glide_gridfile>
wee1_glide-grid

> <s_m_Source_File>
wee1_decoys_glide_SP.sdf

> <s_m_Source_Path>
/Users/zhangxujun/Desktop

> <s_m_entry_id>
5039

> <s_m_entry_name>
wee1_decoys_glide_SP.4764

> <s_m_subgroup_title>
wee1_decoys_glide_SP

> <s_m_subgroupid>
wee1_decoys_glide_SP


$$$$
