ZINC10440178_2086
                    3D
 Schrodinger Suite 2024-2.
 56 59  0  0  1  0            999 V2000
    2.4073   54.8688   29.5555 C   0  0  0  0  0  0
    3.0165   53.4932   29.2190 C   0  0  0  0  0  0
    4.0121   53.4494   28.0274 C   0  0  2  0  0  0
    4.2614   52.3962   27.8992 H   0  0  0  0  0  0
    5.3103   54.2362   28.3109 C   0  0  0  0  0  0
    6.4011   53.9543   27.2594 C   0  0  0  0  0  0
    5.7773   54.1253   25.8825 C   0  0  0  0  0  0
    4.4047   54.0965   25.6153 C   0  0  0  0  0  0
    4.1465   54.1441   24.2386 C   0  0  0  0  0  0
    5.2799   54.2907   23.4370 C   0  0  0  0  0  0
    6.7041   54.2824   24.4315 S   0  0  0  0  0  0
    5.3071   54.4303   21.9722 C   0  0  0  0  0  0
    4.2839   54.0884   21.2277 N   0  0  0  0  0  0
    4.5881   54.4010   19.9104 N   0  0  0  0  0  0
    5.7754   54.9459   19.9012 C   0  0  0  0  0  0
    6.3043   54.9756   21.1771 N   0  0  0  0  0  0
    7.5985   55.5116   21.5777 C   0  0  0  0  0  0
    6.5598   55.5600   18.4435 S   0  0  0  0  0  0
    6.5563   54.0390   17.4284 C   0  0  0  0  0  0
    7.9286   53.3704   17.2816 C   0  0  0  0  0  0
    8.9632   54.0374   17.3747 O   0  0  0  0  0  0
    7.9041   52.0410   17.0475 N   0  0  0  0  0  0
    9.0989   51.3349   16.8819 N   0  0  0  0  0  0
    9.6281   51.1741   15.6458 C   0  0  0  0  0  0
    9.0932   51.5996   14.6174 O   0  0  0  0  0  0
   10.9378   50.4114   15.5729 C   0  0  0  0  0  0
   11.5352   50.1625   14.3284 C   0  0  0  0  0  0
   12.7492   49.4833   14.2497 C   0  0  0  0  0  0
   13.3776   49.0433   15.4076 C   0  0  0  0  0  0
   12.7997   49.2779   16.6502 C   0  0  0  0  0  0
   11.5848   49.9477   16.7292 C   0  0  0  0  0  0
   14.8782   48.1967   15.3113 Cl  0  0  0  0  0  0
    3.3506   53.9361   26.7074 C   0  0  0  0  0  0
    1.8328   54.8177   30.4796 H   0  0  0  0  0  0
    3.1686   55.6389   29.6826 H   0  0  0  0  0  0
    1.7206   55.2060   28.7758 H   0  0  0  0  0  0
    2.2027   52.7912   29.0262 H   0  0  0  0  0  0
    3.5206   53.1071   30.1064 H   0  0  0  0  0  0
    5.7055   53.9459   29.2800 H   0  0  0  0  0  0
    5.1047   55.2964   28.4149 H   0  0  0  0  0  0
    6.7736   52.9347   27.3753 H   0  0  0  0  0  0
    7.2506   54.6227   27.4072 H   0  0  0  0  0  0
    3.1468   54.1079   23.8315 H   0  0  0  0  0  0
    7.4855   56.1396   22.4564 H   0  0  0  0  0  0
    8.2733   54.6890   21.8047 H   0  0  0  0  0  0
    8.0430   56.0964   20.7731 H   0  0  0  0  0  0
    6.2283   54.3207   16.4263 H   0  0  0  0  0  0
    5.8180   53.3260   17.8025 H   0  0  0  0  0  0
    7.0729   51.4625   17.0239 H   0  0  0  0  0  0
    9.6190   51.2455   17.7443 H   0  0  0  0  0  0
   11.0727   50.4925   13.4064 H   0  0  0  0  0  0
   13.1951   49.2946   13.2831 H   0  0  0  0  0  0
   13.2806   48.9312   17.5516 H   0  0  0  0  0  0
   11.1573   50.0977   17.7046 H   0  0  0  0  0  0
    2.8643   54.8975   26.8503 H   0  0  0  0  0  0
    2.5700   53.2384   26.3951 H   0  0  0  0  0  0
  1  2  1  0  0  0
  1 34  1  0  0  0
  1 35  1  0  0  0
  1 36  1  0  0  0
  2  3  1  0  0  0
  2 37  1  0  0  0
  2 38  1  0  0  0
  3  4  1  0  0  0
  3 33  1  0  0  0
  3  5  1  0  0  0
  5  6  1  0  0  0
  5 39  1  0  0  0
  5 40  1  0  0  0
  6  7  1  0  0  0
  6 41  1  0  0  0
  6 42  1  0  0  0
  7 11  1  0  0  0
  7  8  2  0  0  0
  8  9  1  0  0  0
  8 33  1  0  0  0
  9 10  2  0  0  0
  9 43  1  0  0  0
 10 11  1  0  0  0
 10 12  1  0  0  0
 12 16  1  0  0  0
 12 13  2  0  0  0
 13 14  1  0  0  0
 14 15  2  0  0  0
 15 16  1  0  0  0
 15 18  1  0  0  0
 16 17  1  0  0  0
 17 44  1  0  0  0
 17 45  1  0  0  0
 17 46  1  0  0  0
 18 19  1  0  0  0
 19 20  1  0  0  0
 19 47  1  0  0  0
 19 48  1  0  0  0
 20 21  2  0  0  0
 20 22  1  0  0  0
 22 23  1  0  0  0
 22 49  1  0  0  0
 23 24  1  0  0  0
 23 50  1  0  0  0
 24 25  2  0  0  0
 24 26  1  0  0  0
 26 31  2  0  0  0
 26 27  1  0  0  0
 27 28  2  0  0  0
 27 51  1  0  0  0
 28 29  1  0  0  0
 28 52  1  0  0  0
 29 30  2  0  0  0
 29 32  1  0  0  0
 30 31  1  0  0  0
 30 53  1  0  0  0
 31 54  1  0  0  0
 33 55  1  0  0  0
 33 56  1  0  0  0
M  END
> <i_i_glide_confnum>
16

> <i_i_glide_lignum>
2087

> <i_i_glide_posenum>
23

> <i_i_glide_rotatable_bonds>
9

> <i_m_Source_File_Index>
1633

> <b_m_subgroup_collapsed>
0

> <r_i_docking_score>
-6.35041

> <r_i_glide_ecoul>
-2.5617

> <r_i_glide_eff_state_penalty>
0

> <r_i_glide_einternal>
10.8891

> <r_i_glide_emodel>
-67.5927

> <r_i_glide_energy>
-48.9936

> <r_i_glide_erotb>
0.593125

> <r_i_glide_esite>
-0.013624

> <r_i_glide_evdw>
-46.4319

> <r_i_glide_gscore>
-6.35041

> <r_i_glide_hbond>
-0.321511

> <r_i_glide_ligand_efficiency>
-0.19845

> <r_i_glide_ligand_efficiency_ln>
-1.42203

> <r_i_glide_ligand_efficiency_sa>
-0.630041

> <r_i_glide_lipo>
-2.89924

> <r_i_glide_metal>
0

> <r_i_glide_rewards>
-1.00331

> <s_i_glide_gridfile>
wee1_glide-grid

> <s_m_Source_File>
wee1_decoys_glide_SP.sdf

> <s_m_Source_Path>
/Users/zhangxujun/Desktop

> <s_m_entry_id>
1908

> <s_m_entry_name>
wee1_decoys_glide_SP.1633

> <s_m_subgroup_title>
wee1_decoys_glide_SP

> <s_m_subgroupid>
wee1_decoys_glide_SP


$$$$
