ZINC38678571_4141
                    3D
 Schrodinger Suite 2024-2.
 51 54  0  0  1  0            999 V2000
    2.1065   56.3355   29.4077 C   0  0  0  0  0  0
    2.0737   54.8254   29.2151 C   0  0  0  0  0  0
    0.9697   54.1105   29.6928 C   0  0  0  0  0  0
    0.8908   52.7319   29.5136 C   0  0  0  0  0  0
    1.9159   52.0607   28.8539 C   0  0  0  0  0  0
    3.0261   52.7637   28.3886 C   0  0  0  0  0  0
    3.1274   54.1519   28.5670 C   0  0  0  0  0  0
    4.2230   54.8967   28.1608 O   0  0  0  0  0  0
    5.2438   54.3542   27.3045 C   0  0  0  0  0  0
    4.8900   54.4952   25.8127 C   0  0  0  0  0  0
    3.7818   54.8941   25.4482 O   0  0  0  0  0  0
    5.9379   54.1640   24.9911 O   0  0  0  0  0  0
    5.8165   54.2861   23.6177 C   0  0  0  0  0  0
    6.7044   55.1147   22.9282 C   0  0  0  0  0  0
    6.5764   55.2969   21.5486 C   0  0  0  0  0  0
    5.5846   54.6355   20.8073 C   0  0  0  0  0  0
    4.7481   53.7452   21.5063 C   0  0  0  0  0  0
    4.8508   53.5840   22.8844 C   0  0  0  0  0  0
    3.7869   52.9775   20.8822 O   0  0  0  0  0  0
    3.5079   53.2117   19.5786 C   0  0  0  0  0  0
    4.1732   54.0714   18.7848 C   0  0  0  0  0  0
    5.3814   54.8595   19.2943 C   0  0  2  0  0  0
    5.0878   55.8985   19.1549 H   0  0  0  0  0  0
    6.6648   54.6457   18.4787 C   0  0  0  0  0  0
    6.9759   53.3613   18.0012 C   0  0  0  0  0  0
    8.1445   53.1393   17.2756 C   0  0  0  0  0  0
    9.0150   54.1940   17.0130 C   0  0  0  0  0  0
    8.7056   55.4776   17.4596 C   0  0  0  0  0  0
    7.5343   55.7133   18.1794 C   0  0  0  0  0  0
    7.1590   57.5091   18.7144 Br  0  0  0  0  0  0
    3.7594   54.2659   17.4311 C   0  0  0  0  0  0
    3.4058   54.4396   16.3431 N   0  0  0  0  0  0
    2.4518   52.4200   19.2240 N   0  0  0  0  0  0
    1.4385   56.6619   30.2038 H   0  0  0  0  0  0
    3.1039   56.6680   29.6816 H   0  0  0  0  0  0
    1.8359   56.8408   28.4816 H   0  0  0  0  0  0
    0.1648   54.6233   30.1991 H   0  0  0  0  0  0
    0.0327   52.1856   29.8793 H   0  0  0  0  0  0
    1.8492   50.9926   28.7047 H   0  0  0  0  0  0
    3.8013   52.2022   27.8946 H   0  0  0  0  0  0
    5.4717   53.3178   27.5439 H   0  0  0  0  0  0
    6.1557   54.9190   27.4951 H   0  0  0  0  0  0
    7.4763   55.6479   23.4673 H   0  0  0  0  0  0
    7.2654   55.9642   21.0557 H   0  0  0  0  0  0
    4.1735   52.9029   23.3792 H   0  0  0  0  0  0
    6.3263   52.5132   18.1984 H   0  0  0  0  0  0
    8.3782   52.1440   16.9246 H   0  0  0  0  0  0
    9.9252   54.0203   16.4566 H   0  0  0  0  0  0
    9.3758   56.2958   17.2412 H   0  0  0  0  0  0
    2.0597   52.4990   18.2980 H   0  0  0  0  0  0
    2.2932   51.5570   19.7173 H   0  0  0  0  0  0
  1  2  1  0  0  0
  1 34  1  0  0  0
  1 35  1  0  0  0
  1 36  1  0  0  0
  2  7  2  0  0  0
  2  3  1  0  0  0
  3  4  2  0  0  0
  3 37  1  0  0  0
  4  5  1  0  0  0
  4 38  1  0  0  0
  5  6  2  0  0  0
  5 39  1  0  0  0
  6  7  1  0  0  0
  6 40  1  0  0  0
  7  8  1  0  0  0
  8  9  1  0  0  0
  9 10  1  0  0  0
  9 41  1  0  0  0
  9 42  1  0  0  0
 10 11  2  0  0  0
 10 12  1  0  0  0
 12 13  1  0  0  0
 13 18  2  0  0  0
 13 14  1  0  0  0
 14 15  2  0  0  0
 14 43  1  0  0  0
 15 16  1  0  0  0
 15 44  1  0  0  0
 16 22  1  0  0  0
 16 17  2  0  0  0
 17 18  1  0  0  0
 17 19  1  0  0  0
 18 45  1  0  0  0
 19 20  1  0  0  0
 20 21  2  0  0  0
 20 33  1  0  0  0
 21 22  1  0  0  0
 21 31  1  0  0  0
 22 23  1  0  0  0
 22 24  1  0  0  0
 24 29  2  0  0  0
 24 25  1  0  0  0
 25 26  2  0  0  0
 25 46  1  0  0  0
 26 27  1  0  0  0
 26 47  1  0  0  0
 27 28  2  0  0  0
 27 48  1  0  0  0
 28 29  1  0  0  0
 28 49  1  0  0  0
 29 30  1  0  0  0
 31 32  3  0  0  0
 33 50  1  0  0  0
 33 51  1  0  0  0
M  END
> <i_i_glide_confnum>
108

> <i_i_glide_lignum>
4142

> <i_i_glide_posenum>
272

> <i_i_glide_rotatable_bonds>
7

> <i_m_Source_File_Index>
4169

> <b_m_subgroup_collapsed>
0

> <r_i_docking_score>
-4.56145

> <r_i_glide_ecoul>
-2.12576

> <r_i_glide_eff_state_penalty>
0

> <r_i_glide_einternal>
3.09158

> <r_i_glide_emodel>
-54.1539

> <r_i_glide_energy>
-46.3289

> <r_i_glide_erotb>
0.505951

> <r_i_glide_esite>
-0.0297405

> <r_i_glide_evdw>
-44.2031

> <r_i_glide_gscore>
-4.56145

> <r_i_glide_hbond>
0

> <r_i_glide_ligand_efficiency>
-0.142545

> <r_i_glide_ligand_efficiency_ln>
-1.02143

> <r_i_glide_ligand_efficiency_sa>
-0.452553

> <r_i_glide_lipo>
-3.23334

> <r_i_glide_metal>
0

> <r_i_glide_rewards>
0.724697

> <s_i_glide_gridfile>
wee1_glide-grid

> <s_m_Source_File>
wee1_decoys_glide_SP.sdf

> <s_m_Source_Path>
/Users/zhangxujun/Desktop

> <s_m_entry_id>
4444

> <s_m_entry_name>
wee1_decoys_glide_SP.4169

> <s_m_subgroup_title>
wee1_decoys_glide_SP

> <s_m_subgroupid>
wee1_decoys_glide_SP


$$$$
