ZINC05377480_5871
                    3D
 Schrodinger Suite 2024-2.
 60 63  0  0  1  0            999 V2000
    3.6669   50.9531   21.0642 C   0  0  0  0  0  0
    2.9352   52.2876   20.7586 C   0  0  2  0  0  0
    3.9048   53.4656   21.0629 C   0  0  0  0  0  0
    4.1717   53.6652   22.5757 C   0  0  0  0  0  0
    2.8852   53.6754   23.4577 C   0  0  2  0  0  0
    2.3851   54.6143   23.2080 H   0  0  0  0  0  0
    3.1262   53.7788   24.9811 C   0  0  0  0  0  0
    4.2928   54.3688   25.4942 C   0  0  0  0  0  0
    4.5098   54.4964   26.8621 C   0  0  0  0  0  0
    3.5449   54.0563   27.7566 C   0  0  0  0  0  0
    2.3807   53.4648   27.2774 C   0  0  0  0  0  0
    2.1592   53.2962   25.9033 C   0  0  0  0  0  0
    0.9197   52.5252   25.4361 C   0  0  0  0  0  0
    0.6137   52.7389   23.9457 C   0  0  0  0  0  0
    1.8900   52.5228   23.1138 C   0  0  1  0  0  0
    2.3158   51.5632   23.4069 H   0  0  0  0  0  0
    1.6461   52.4960   21.5855 C   0  0  2  0  0  0
    1.2606   53.4854   21.3438 H   0  0  0  0  0  0
    0.6426   51.5228   20.9800 C   0  0  0  0  0  0
    1.0034   51.4766   19.4814 C   0  0  0  0  0  0
    2.3580   52.2073   19.3408 C   0  0  0  0  0  0
    2.9312   52.6710   18.3022 N   0  0  0  0  0  0
    2.4370   52.2273   17.1316 N   0  0  0  0  0  0
    3.0998   52.4886   15.9414 C   0  0  0  0  0  0
    4.0382   53.2740   15.7732 O   0  0  0  0  0  0
    2.5384   51.7256   14.9661 O   0  0  0  0  0  0
    3.0427   51.5937   13.6266 C   0  0  0  0  0  0
    4.4600   50.9714   13.6206 C   0  0  0  0  0  0
    2.0565   50.6202   12.9511 C   0  0  0  0  0  0
    3.0266   52.9445   12.8708 C   0  0  0  0  0  0
    3.7519   54.1995   29.1025 O   0  0  0  0  0  0
    3.0436   50.0713   20.9088 H   0  0  0  0  0  0
    4.5408   50.8400   20.4202 H   0  0  0  0  0  0
    4.0340   50.8970   22.0814 H   0  0  0  0  0  0
    4.8506   53.3198   20.5375 H   0  0  0  0  0  0
    3.5043   54.3970   20.6602 H   0  0  0  0  0  0
    4.8618   52.8978   22.9262 H   0  0  0  0  0  0
    4.6817   54.6252   22.6592 H   0  0  0  0  0  0
    5.0554   54.7456   24.8316 H   0  0  0  0  0  0
    5.4220   54.9530   27.2167 H   0  0  0  0  0  0
    1.6504   53.1008   27.9857 H   0  0  0  0  0  0
    1.0973   51.4631   25.6132 H   0  0  0  0  0  0
    0.0512   52.7934   26.0390 H   0  0  0  0  0  0
   -0.1560   52.0288   23.6405 H   0  0  0  0  0  0
    0.1760   53.7174   23.7422 H   0  0  0  0  0  0
    0.7790   50.5276   21.4071 H   0  0  0  0  0  0
   -0.3905   51.8129   21.1749 H   0  0  0  0  0  0
    1.0888   50.4455   19.1361 H   0  0  0  0  0  0
    0.2419   51.9745   18.8798 H   0  0  0  0  0  0
    1.6978   51.5432   17.1618 H   0  0  0  0  0  0
    4.4744   50.0203   14.1567 H   0  0  0  0  0  0
    4.8114   50.7859   12.6053 H   0  0  0  0  0  0
    5.1931   51.6198   14.1037 H   0  0  0  0  0  0
    1.0393   51.0163   12.9576 H   0  0  0  0  0  0
    2.3286   50.4280   11.9126 H   0  0  0  0  0  0
    2.0281   49.6598   13.4696 H   0  0  0  0  0  0
    3.7601   53.6466   13.2686 H   0  0  0  0  0  0
    3.2520   52.8106   11.8117 H   0  0  0  0  0  0
    2.0495   53.4240   12.9415 H   0  0  0  0  0  0
    4.6159   54.5778   29.2826 H   0  0  0  0  0  0
  1  2  1  0  0  0
  1 32  1  0  0  0
  1 33  1  0  0  0
  1 34  1  0  0  0
  2 17  1  0  0  0
  2 21  1  0  0  0
  2  3  1  0  0  0
  3  4  1  0  0  0
  3 35  1  0  0  0
  3 36  1  0  0  0
  4  5  1  0  0  0
  4 37  1  0  0  0
  4 38  1  0  0  0
  5  6  1  0  0  0
  5 15  1  0  0  0
  5  7  1  0  0  0
  7 12  2  0  0  0
  7  8  1  0  0  0
  8  9  2  0  0  0
  8 39  1  0  0  0
  9 10  1  0  0  0
  9 40  1  0  0  0
 10 11  2  0  0  0
 10 31  1  0  0  0
 11 12  1  0  0  0
 11 41  1  0  0  0
 12 13  1  0  0  0
 13 14  1  0  0  0
 13 42  1  0  0  0
 13 43  1  0  0  0
 14 15  1  0  0  0
 14 44  1  0  0  0
 14 45  1  0  0  0
 15 16  1  0  0  0
 15 17  1  0  0  0
 17 18  1  0  0  0
 17 19  1  0  0  0
 19 20  1  0  0  0
 19 46  1  0  0  0
 19 47  1  0  0  0
 20 21  1  0  0  0
 20 48  1  0  0  0
 20 49  1  0  0  0
 21 22  2  0  0  0
 22 23  1  0  0  0
 23 24  1  0  0  0
 23 50  1  0  0  0
 24 25  2  0  0  0
 24 26  1  0  0  0
 26 27  1  0  0  0
 27 28  1  0  0  0
 27 29  1  0  0  0
 27 30  1  0  0  0
 28 51  1  0  0  0
 28 52  1  0  0  0
 28 53  1  0  0  0
 29 54  1  0  0  0
 29 55  1  0  0  0
 29 56  1  0  0  0
 30 57  1  0  0  0
 30 58  1  0  0  0
 30 59  1  0  0  0
 31 60  1  0  0  0
M  END
> <i_i_glide_confnum>
5

> <i_i_glide_lignum>
5872

> <i_i_glide_posenum>
113

> <i_i_glide_rotatable_bonds>
5

> <i_m_Source_File_Index>
958

> <b_m_subgroup_collapsed>
0

> <r_i_docking_score>
-4.14577

> <r_i_glide_ecoul>
0.503534

> <r_i_glide_eff_state_penalty>
0

> <r_i_glide_einternal>
2.41726

> <r_i_glide_emodel>
-37.8259

> <r_i_glide_energy>
-30.9002

> <r_i_glide_erotb>
0.394524

> <r_i_glide_esite>
-0.124609

> <r_i_glide_evdw>
-31.4037

> <r_i_glide_gscore>
-4.14577

> <r_i_glide_hbond>
0

> <r_i_glide_ligand_efficiency>
-0.148063

> <r_i_glide_ligand_efficiency_ln>
-0.956965

> <r_i_glide_ligand_efficiency_sa>
-0.449607

> <r_i_glide_lipo>
-2.13468

> <r_i_glide_metal>
0

> <r_i_glide_rewards>
-0.786349

> <s_i_glide_gridfile>
wee1_glide-grid

> <s_m_Source_File>
wee1_decoys_glide_SP.sdf

> <s_m_Source_Path>
/Users/zhangxujun/Desktop

> <s_m_entry_id>
1233

> <s_m_entry_name>
wee1_decoys_glide_SP.958

> <s_m_subgroup_title>
wee1_decoys_glide_SP

> <s_m_subgroupid>
wee1_decoys_glide_SP


$$$$
