ZINC05734061_4927
                    3D
 Schrodinger Suite 2024-2.
 54 58  0  0  1  0            999 V2000
   -0.3709   51.7900   22.4254 C   0  0  0  0  0  0
    0.3537   51.4514   21.2850 C   0  0  0  0  0  0
    1.6926   51.8182   21.1843 C   0  0  0  0  0  0
    2.3190   52.5307   22.2195 C   0  0  0  0  0  0
    1.5750   52.8607   23.3662 C   0  0  0  0  0  0
    0.2353   52.4947   23.4652 C   0  0  0  0  0  0
    3.7790   52.8963   22.0815 C   0  0  0  0  0  0
    4.5314   52.1939   21.4003 O   0  0  0  0  0  0
    4.1780   54.0002   22.7563 N   0  0  0  0  0  0
    5.4439   54.5448   22.8086 C   0  0  0  0  0  0
    6.0460   54.7725   24.0151 C   0  0  0  0  0  0
    5.5307   54.5462   25.3911 C   0  0  0  0  0  0
    6.4555   54.2033   26.4001 C   0  0  0  0  0  0
    6.0528   53.9809   27.7241 C   0  0  0  0  0  0
    4.6981   54.0888   28.0093 C   0  0  0  0  0  0
    3.7898   54.4214   27.0470 C   0  0  0  0  0  0
    4.1695   54.6765   25.7346 C   0  0  0  0  0  0
    2.5542   54.5006   27.6039 O   0  0  0  0  0  0
    2.6893   53.9759   28.8967 C   0  0  0  0  0  0
    4.0602   53.9483   29.2028 O   0  0  0  0  0  0
    6.0996   54.9220   21.5368 C   0  0  0  0  0  0
    5.5715   54.7049   20.4419 O   0  0  0  0  0  0
    7.2896   55.5713   21.6188 N   0  0  0  0  0  0
    8.1672   55.6952   20.5099 N   0  0  0  0  0  0
    7.8486   56.3573   19.3074 C   0  0  0  0  0  0
    6.8965   57.3815   19.2637 C   0  0  0  0  0  0
    6.6351   58.0336   18.0616 C   0  0  0  0  0  0
    7.2458   57.7176   16.8959 N   0  0  0  0  0  0
    8.1606   56.7122   16.8982 C   0  0  0  0  0  0
    8.5069   55.9948   18.0874 C   0  0  0  0  0  0
    9.4829   54.9593   17.9906 C   0  0  0  0  0  0
   10.0730   54.6526   16.7670 C   0  0  0  0  0  0
    9.7276   55.3540   15.6166 C   0  0  0  0  0  0
    8.7853   56.3781   15.6725 C   0  0  0  0  0  0
   10.4724   54.9547   14.1111 Cl  0  0  0  0  0  0
   -1.4094   51.5029   22.5070 H   0  0  0  0  0  0
   -0.1184   50.9018   20.4833 H   0  0  0  0  0  0
    2.2464   51.5435   20.2930 H   0  0  0  0  0  0
    2.0161   53.3855   24.2012 H   0  0  0  0  0  0
   -0.3332   52.7472   24.3502 H   0  0  0  0  0  0
    3.5540   54.2714   23.4950 H   0  0  0  0  0  0
    7.0380   55.2008   24.0339 H   0  0  0  0  0  0
    7.5039   54.1041   26.1679 H   0  0  0  0  0  0
    6.7765   53.7368   28.4887 H   0  0  0  0  0  0
    3.4322   54.9980   25.0182 H   0  0  0  0  0  0
    2.2958   52.9575   28.9105 H   0  0  0  0  0  0
    2.1369   54.5834   29.6148 H   0  0  0  0  0  0
    7.7641   55.7194   22.5001 H   0  0  0  0  0  0
    8.6641   54.8256   20.3814 H   0  0  0  0  0  0
    6.3500   57.6685   20.1477 H   0  0  0  0  0  0
    5.9150   58.8386   18.0123 H   0  0  0  0  0  0
    9.7747   54.4030   18.8708 H   0  0  0  0  0  0
   10.8068   53.8628   16.7133 H   0  0  0  0  0  0
    8.5221   56.9216   14.7763 H   0  0  0  0  0  0
  1  6  2  0  0  0
  1  2  1  0  0  0
  1 36  1  0  0  0
  2  3  2  0  0  0
  2 37  1  0  0  0
  3  4  1  0  0  0
  3 38  1  0  0  0
  4  5  2  0  0  0
  4  7  1  0  0  0
  5  6  1  0  0  0
  5 39  1  0  0  0
  6 40  1  0  0  0
  7  8  2  0  0  0
  7  9  1  0  0  0
  9 10  1  0  0  0
  9 41  1  0  0  0
 10 11  2  0  0  0
 10 21  1  0  0  0
 11 12  1  0  0  0
 11 42  1  0  0  0
 12 17  2  0  0  0
 12 13  1  0  0  0
 13 14  2  0  0  0
 13 43  1  0  0  0
 14 15  1  0  0  0
 14 44  1  0  0  0
 15 20  1  0  0  0
 15 16  2  0  0  0
 16 17  1  0  0  0
 16 18  1  0  0  0
 17 45  1  0  0  0
 18 19  1  0  0  0
 19 20  1  0  0  0
 19 46  1  0  0  0
 19 47  1  0  0  0
 21 22  2  0  0  0
 21 23  1  0  0  0
 23 24  1  0  0  0
 23 48  1  0  0  0
 24 25  1  0  0  0
 24 49  1  0  0  0
 25 30  2  0  0  0
 25 26  1  0  0  0
 26 27  2  0  0  0
 26 50  1  0  0  0
 27 28  1  0  0  0
 27 51  1  0  0  0
 28 29  2  0  0  0
 29 34  1  0  0  0
 29 30  1  0  0  0
 30 31  1  0  0  0
 31 32  2  0  0  0
 31 52  1  0  0  0
 32 33  1  0  0  0
 32 53  1  0  0  0
 33 34  2  0  0  0
 33 35  1  0  0  0
 34 54  1  0  0  0
M  END
> <i_i_glide_confnum>
19

> <i_i_glide_lignum>
4928

> <i_i_glide_posenum>
290

> <i_i_glide_rotatable_bonds>
8

> <i_m_Source_File_Index>
2837

> <b_m_subgroup_collapsed>
0

> <r_i_docking_score>
-5.79257

> <r_i_glide_ecoul>
-0.520611

> <r_i_glide_eff_state_penalty>
0

> <r_i_glide_einternal>
6.95783

> <r_i_glide_emodel>
-63.5784

> <r_i_glide_energy>
-48.7909

> <r_i_glide_erotb>
0.428669

> <r_i_glide_esite>
0

> <r_i_glide_evdw>
-48.2703

> <r_i_glide_gscore>
-5.79257

> <r_i_glide_hbond>
-0.0826912

> <r_i_glide_ligand_efficiency>
-0.165502

> <r_i_glide_ligand_efficiency_ln>
-1.2716

> <r_i_glide_ligand_efficiency_sa>
-0.541368

> <r_i_glide_lipo>
-2.75138

> <r_i_glide_metal>
0

> <r_i_glide_rewards>
-0.895563

> <s_i_glide_gridfile>
wee1_glide-grid

> <s_m_Source_File>
wee1_decoys_glide_SP.sdf

> <s_m_Source_Path>
/Users/zhangxujun/Desktop

> <s_m_entry_id>
3112

> <s_m_entry_name>
wee1_decoys_glide_SP.2837

> <s_m_subgroup_title>
wee1_decoys_glide_SP

> <s_m_subgroupid>
wee1_decoys_glide_SP


$$$$
