ZINC59261419_3189
                    3D
 Schrodinger Suite 2024-2.
 53 54  0  0  1  0            999 V2000
    7.1003   53.7880   27.6897 C   0  0  0  0  0  0
    5.5726   53.7569   27.5183 C   0  0  2  0  0  0
    5.3192   52.6962   27.4716 H   0  0  0  0  0  0
    5.1175   54.3863   26.1885 C   0  0  0  0  0  0
    5.7817   55.2931   25.6775 O   0  0  0  0  0  0
    3.9736   53.8709   25.6622 N   0  0  0  0  0  0
    3.4995   53.8260   24.3634 N   0  0  0  0  0  0
    4.2267   54.1529   23.3602 C   0  0  0  0  0  0
    3.8449   53.9200   21.8962 C   0  0  0  0  0  0
    4.9680   53.1491   21.1738 C   0  0  0  0  0  0
    2.4829   53.2212   21.7205 C   0  0  0  0  0  0
    4.7158   54.4969   28.9440 S   0  0  0  0  0  0
    3.3716   53.3724   29.0358 C   0  0  0  0  0  0
    3.5066   52.0967   29.2802 N   0  0  0  0  0  0
    2.2460   51.5249   29.1863 N   0  0  0  0  0  0
    1.3913   52.4821   28.9479 C   0  0  0  0  0  0
    2.0470   53.6846   28.8332 N   0  0  0  0  0  0
    1.4597   54.9995   28.6915 C   0  0  0  0  0  0
    1.1044   55.5570   30.0480 C   0  0  0  0  0  0
    1.5044   56.7509   30.4821 C   0  0  0  0  0  0
   -0.1145   52.2991   28.8765 C   0  0  0  0  0  0
   -0.5574   51.2935   27.9190 N   0  0  0  0  0  0
   -0.5234   51.4378   26.5247 C   0  0  0  0  0  0
   -1.2072   50.4781   25.7775 C   0  0  0  0  0  0
   -1.2886   50.5912   24.3927 C   0  0  0  0  0  0
   -0.6775   51.6662   23.7522 C   0  0  0  0  0  0
    0.0484   52.6038   24.4844 C   0  0  0  0  0  0
    0.1303   52.4879   25.8704 C   0  0  0  0  0  0
   -0.8797   51.8782   21.6809 I   0  0  0  0  0  0
    7.5735   53.2347   26.8815 H   0  0  0  0  0  0
    7.4955   54.8048   27.6827 H   0  0  0  0  0  0
    7.4054   53.3167   28.6239 H   0  0  0  0  0  0
    3.3645   53.3830   26.3022 H   0  0  0  0  0  0
    5.2113   54.6022   23.4429 H   0  0  0  0  0  0
    3.7641   54.8966   21.4211 H   0  0  0  0  0  0
    5.8948   53.7225   21.1576 H   0  0  0  0  0  0
    4.7035   52.9476   20.1349 H   0  0  0  0  0  0
    5.1745   52.1876   21.6469 H   0  0  0  0  0  0
    1.6712   53.8527   22.0824 H   0  0  0  0  0  0
    2.2801   53.0119   20.6699 H   0  0  0  0  0  0
    2.4383   52.2687   22.2528 H   0  0  0  0  0  0
    2.1519   55.6462   28.1495 H   0  0  0  0  0  0
    0.5627   54.9317   28.0811 H   0  0  0  0  0  0
    0.4840   54.9415   30.6854 H   0  0  0  0  0  0
    1.2375   57.1213   31.4590 H   0  0  0  0  0  0
    2.1215   57.3649   29.8524 H   0  0  0  0  0  0
   -0.4702   51.9769   29.8564 H   0  0  0  0  0  0
   -0.6437   53.2263   28.6692 H   0  0  0  0  0  0
   -0.9771   50.4354   28.2751 H   0  0  0  0  0  0
   -1.6967   49.6513   26.2748 H   0  0  0  0  0  0
   -1.8389   49.8577   23.8226 H   0  0  0  0  0  0
    0.5311   53.4305   23.9873 H   0  0  0  0  0  0
    0.6912   53.2254   26.4202 H   0  0  0  0  0  0
  1  2  1  0  0  0
  1 30  1  0  0  0
  1 31  1  0  0  0
  1 32  1  0  0  0
  2  3  1  0  0  0
  2  4  1  0  0  0
  2 12  1  0  0  0
  4  5  2  0  0  0
  4  6  1  0  0  0
  6  7  1  0  0  0
  6 33  1  0  0  0
  7  8  2  0  0  0
  8  9  1  0  0  0
  8 34  1  0  0  0
  9 10  1  0  0  0
  9 11  1  0  0  0
  9 35  1  0  0  0
 10 36  1  0  0  0
 10 37  1  0  0  0
 10 38  1  0  0  0
 11 39  1  0  0  0
 11 40  1  0  0  0
 11 41  1  0  0  0
 12 13  1  0  0  0
 13 17  1  0  0  0
 13 14  2  0  0  0
 14 15  1  0  0  0
 15 16  2  0  0  0
 16 17  1  0  0  0
 16 21  1  0  0  0
 17 18  1  0  0  0
 18 19  1  0  0  0
 18 42  1  0  0  0
 18 43  1  0  0  0
 19 20  2  0  0  0
 19 44  1  0  0  0
 20 45  1  0  0  0
 20 46  1  0  0  0
 21 22  1  0  0  0
 21 47  1  0  0  0
 21 48  1  0  0  0
 22 23  1  0  0  0
 22 49  1  0  0  0
 23 28  2  0  0  0
 23 24  1  0  0  0
 24 25  2  0  0  0
 24 50  1  0  0  0
 25 26  1  0  0  0
 25 51  1  0  0  0
 26 27  2  0  0  0
 26 29  1  0  0  0
 27 28  1  0  0  0
 27 52  1  0  0  0
 28 53  1  0  0  0
M  END
> <i_i_glide_confnum>
204

> <i_i_glide_lignum>
3190

> <i_i_glide_posenum>
132

> <i_i_glide_rotatable_bonds>
11

> <i_m_Source_File_Index>
4598

> <b_m_subgroup_collapsed>
0

> <r_i_docking_score>
-5.98558

> <r_i_glide_ecoul>
-5.83831

> <r_i_glide_eff_state_penalty>
0

> <r_i_glide_einternal>
6.06794

> <r_i_glide_emodel>
-67.0837

> <r_i_glide_energy>
-51.4916

> <r_i_glide_erotb>
0.858808

> <r_i_glide_esite>
-0.0811939

> <r_i_glide_evdw>
-45.6533

> <r_i_glide_gscore>
-5.98558

> <r_i_glide_hbond>
-0.12795

> <r_i_glide_ligand_efficiency>
-0.213771

> <r_i_glide_ligand_efficiency_ln>
-1.38165

> <r_i_glide_ligand_efficiency_sa>
-0.649134

> <r_i_glide_lipo>
-2.09727

> <r_i_glide_metal>
0

> <r_i_glide_rewards>
-1.37956

> <s_i_glide_gridfile>
wee1_glide-grid

> <s_m_Source_File>
wee1_decoys_glide_SP.sdf

> <s_m_Source_Path>
/Users/zhangxujun/Desktop

> <s_m_entry_id>
4873

> <s_m_entry_name>
wee1_decoys_glide_SP.4598

> <s_m_subgroup_title>
wee1_decoys_glide_SP

> <s_m_subgroupid>
wee1_decoys_glide_SP


$$$$
