ZINC19403735_1731
                    3D
 Schrodinger Suite 2024-2.
 33 35  0  0  1  0            999 V2000
    5.1669   54.4891   26.9300 C   0  0  0  0  0  0
    6.4223   54.6177   26.3262 C   0  0  0  0  0  0
    6.5410   54.5779   24.9329 C   0  0  0  0  0  0
    5.3882   54.3942   24.1741 C   0  0  0  0  0  0
    4.1438   54.2517   24.7582 C   0  0  0  0  0  0
    4.0219   54.3051   26.1476 C   0  0  0  0  0  0
    3.1274   54.0967   23.6733 C   0  0  0  0  0  0
    4.0032   54.1105   22.3912 C   0  0  1  0  0  0
    3.6693   54.8958   21.7121 H   0  0  0  0  0  0
    5.3596   54.3483   22.8034 O   0  0  0  0  0  0
    3.8894   52.7740   21.6280 C   0  0  0  0  0  0
    4.7918   51.9347   21.6816 O   0  0  0  0  0  0
    2.7374   52.5845   20.9526 N   0  0  0  0  0  0
    2.3679   51.3841   20.3263 C   0  0  0  0  0  0
    2.1718   51.4200   18.9436 C   0  0  0  0  0  0
    1.8032   50.2641   18.2585 C   0  0  0  0  0  0
    1.6200   49.0680   18.9491 C   0  0  0  0  0  0
    1.7939   49.0277   20.3318 C   0  0  0  0  0  0
    2.1614   50.1778   21.0314 C   0  0  0  0  0  0
    2.3044   50.0885   22.4189 N   0  0  0  0  0  0
    5.0839   54.5266   28.0066 H   0  0  0  0  0  0
    7.2963   54.7462   26.9471 H   0  0  0  0  0  0
    7.5043   54.6820   24.4583 H   0  0  0  0  0  0
    3.0587   54.2048   26.6258 H   0  0  0  0  0  0
    2.4579   54.9561   23.6819 H   0  0  0  0  0  0
    2.5526   53.1776   23.8088 H   0  0  0  0  0  0
    2.1361   53.3834   20.7950 H   0  0  0  0  0  0
    2.3313   52.3337   18.3893 H   0  0  0  0  0  0
    1.6920   50.2876   17.1842 H   0  0  0  0  0  0
    1.3538   48.1716   18.4094 H   0  0  0  0  0  0
    1.6481   48.0966   20.8553 H   0  0  0  0  0  0
    3.0955   50.6072   22.7717 H   0  0  0  0  0  0
    2.1710   49.1679   22.8132 H   0  0  0  0  0  0
  1  6  2  0  0  0
  1  2  1  0  0  0
  1 21  1  0  0  0
  2  3  2  0  0  0
  2 22  1  0  0  0
  3  4  1  0  0  0
  3 23  1  0  0  0
  4 10  1  0  0  0
  4  5  2  0  0  0
  5  6  1  0  0  0
  5  7  1  0  0  0
  6 24  1  0  0  0
  7  8  1  0  0  0
  7 25  1  0  0  0
  7 26  1  0  0  0
  8  9  1  0  0  0
  8 10  1  0  0  0
  8 11  1  0  0  0
 11 12  2  0  0  0
 11 13  1  0  0  0
 13 14  1  0  0  0
 13 27  1  0  0  0
 14 19  2  0  0  0
 14 15  1  0  0  0
 15 16  2  0  0  0
 15 28  1  0  0  0
 16 17  1  0  0  0
 16 29  1  0  0  0
 17 18  2  0  0  0
 17 30  1  0  0  0
 18 19  1  0  0  0
 18 31  1  0  0  0
 19 20  1  0  0  0
 20 32  1  0  0  0
 20 33  1  0  0  0
M  END
> <i_i_glide_confnum>
4

> <i_i_glide_lignum>
1732

> <i_i_glide_posenum>
290

> <i_i_glide_rotatable_bonds>
3

> <i_m_Source_File_Index>
4231

> <b_m_subgroup_collapsed>
0

> <r_i_docking_score>
-5.53842

> <r_i_glide_ecoul>
-3.61494

> <r_i_glide_eff_state_penalty>
0

> <r_i_glide_einternal>
4.8426

> <r_i_glide_emodel>
-44.024

> <r_i_glide_energy>
-33.9511

> <r_i_glide_erotb>
0.815863

> <r_i_glide_esite>
-0.0139214

> <r_i_glide_evdw>
-30.3362

> <r_i_glide_gscore>
-5.53842

> <r_i_glide_hbond>
-0.257113

> <r_i_glide_ligand_efficiency>
-0.291496

> <r_i_glide_ligand_efficiency_ln>
-1.40411

> <r_i_glide_ligand_efficiency_sa>
-0.777829

> <r_i_glide_lipo>
-2.12067

> <r_i_glide_metal>
0

> <r_i_glide_rewards>
-1.90353

> <s_i_glide_gridfile>
wee1_glide-grid

> <s_m_Source_File>
wee1_decoys_glide_SP.sdf

> <s_m_Source_Path>
/Users/zhangxujun/Desktop

> <s_m_entry_id>
4506

> <s_m_entry_name>
wee1_decoys_glide_SP.4231

> <s_m_subgroup_title>
wee1_decoys_glide_SP

> <s_m_subgroupid>
wee1_decoys_glide_SP


$$$$
