ZINC15737487_2453
                    3D
 Schrodinger Suite 2024-2.
 64 68  0  0  1  0            999 V2000
    5.9838   54.3391   28.2525 C   0  0  0  0  0  0
    4.9275   53.6775   27.3515 C   0  0  1  0  0  0
    5.2686   52.6494   27.2239 H   0  0  0  0  0  0
    3.5001   53.5611   28.0336 C   0  0  0  0  0  0
    3.1323   54.8077   28.9084 C   0  0  0  0  0  0
    1.7509   54.6380   29.5925 C   0  0  1  0  0  0
    0.7001   54.4879   28.4818 C   0  0  0  0  0  0
    0.9810   53.2253   27.6246 C   0  0  1  0  0  0
    2.3705   53.3707   26.9632 C   0  0  0  0  0  0
    0.9684   51.9667   28.5177 C   0  0  0  0  0  0
    2.0271   52.1461   29.6245 C   0  0  2  0  0  0
    1.6922   53.3639   30.4762 C   0  0  0  0  0  0
    3.4359   52.3380   29.0083 C   0  0  0  0  0  0
    4.9293   54.1689   25.9538 N   0  0  0  0  0  0
    5.9847   54.4962   25.1710 C   0  0  0  0  0  0
    7.1040   54.7635   25.6160 O   0  0  0  0  0  0
    5.7511   54.4967   23.6716 C   0  0  0  0  0  0
    4.6545   53.8306   23.0981 C   0  0  0  0  0  0
    4.4694   53.8266   21.7177 C   0  0  0  0  0  0
    5.3779   54.4873   20.8895 C   0  0  0  0  0  0
    6.4691   55.1594   21.4422 C   0  0  0  0  0  0
    6.6589   55.1526   22.8236 C   0  0  0  0  0  0
    5.1270   54.4864   19.1132 S   0  0  0  0  0  0
    3.7824   53.9638   18.8571 O   0  0  0  0  0  0
    5.5186   55.8192   18.6400 O   0  0  0  0  0  0
    6.2556   53.2966   18.4644 N   0  0  0  0  0  0
    7.2244   53.7192   17.4329 C   0  0  2  0  0  0
    6.6238   54.1672   16.6371 H   0  0  0  0  0  0
    7.9178   52.4574   16.8742 C   0  0  0  0  0  0
    9.1304   52.8812   16.0316 C   0  0  0  0  0  0
    9.8006   54.4204   16.8648 S   0  0  0  0  0  0
   10.9706   54.0965   17.6811 O   0  0  0  0  0  0
    9.8569   55.5012   15.8765 O   0  0  0  0  0  0
    8.3152   54.6542   17.9807 C   0  0  0  0  0  0
    5.8666   54.0253   29.2817 H   0  0  0  0  0  0
    6.9982   54.0406   27.9917 H   0  0  0  0  0  0
    5.9045   55.4258   28.2271 H   0  0  0  0  0  0
    3.1274   55.6968   28.2822 H   0  0  0  0  0  0
    3.8750   54.9894   29.6824 H   0  0  0  0  0  0
    1.5270   55.5185   30.1966 H   0  0  0  0  0  0
   -0.2933   54.4121   28.9208 H   0  0  0  0  0  0
    0.7044   55.3824   27.8573 H   0  0  0  0  0  0
    0.2191   53.1153   26.8532 H   0  0  0  0  0  0
    2.5765   52.4970   26.3445 H   0  0  0  0  0  0
    2.3384   54.2204   26.2803 H   0  0  0  0  0  0
    1.1776   51.0698   27.9288 H   0  0  0  0  0  0
   -0.0207   51.8184   28.9570 H   0  0  0  0  0  0
    2.0162   51.2965   30.2856 H   0  0  0  0  0  0
    0.7098   53.2551   30.9425 H   0  0  0  0  0  0
    2.4113   53.3467   31.2816 H   0  0  0  0  0  0
    4.1844   52.4270   29.7968 H   0  0  0  0  0  0
    3.6617   51.4242   28.4846 H   0  0  0  0  0  0
    4.0346   54.1202   25.4922 H   0  0  0  0  0  0
    3.9383   53.2989   23.7096 H   0  0  0  0  0  0
    3.6191   53.3078   21.2969 H   0  0  0  0  0  0
    7.1713   55.6736   20.8021 H   0  0  0  0  0  0
    7.5042   55.6822   23.2373 H   0  0  0  0  0  0
    5.7989   52.3991   18.2476 H   0  0  0  0  0  0
    8.2582   51.8094   17.6816 H   0  0  0  0  0  0
    7.2231   51.8636   16.2761 H   0  0  0  0  0  0
    9.9248   52.1491   15.8948 H   0  0  0  0  0  0
    8.7771   53.1848   15.0468 H   0  0  0  0  0  0
    8.0792   55.6971   18.1853 H   0  0  0  0  0  0
    8.6248   54.2390   18.9384 H   0  0  0  0  0  0
  1  2  1  0  0  0
  1 35  1  0  0  0
  1 36  1  0  0  0
  1 37  1  0  0  0
  2  3  1  0  0  0
  2  4  1  0  0  0
  2 14  1  0  0  0
  4  9  1  0  0  0
  4 13  1  0  0  0
  4  5  1  0  0  0
  5  6  1  0  0  0
  5 38  1  0  0  0
  5 39  1  0  0  0
  6 12  1  0  0  0
  6  7  1  0  0  0
  6 40  1  0  0  0
  7  8  1  0  0  0
  7 41  1  0  0  0
  7 42  1  0  0  0
  8  9  1  0  0  0
  8 10  1  0  0  0
  8 43  1  0  0  0
  9 44  1  0  0  0
  9 45  1  0  0  0
 10 11  1  0  0  0
 10 46  1  0  0  0
 10 47  1  0  0  0
 11 12  1  0  0  0
 11 13  1  0  0  0
 11 48  1  0  0  0
 12 49  1  0  0  0
 12 50  1  0  0  0
 13 51  1  0  0  0
 13 52  1  0  0  0
 14 15  1  0  0  0
 14 53  1  0  0  0
 15 16  2  0  0  0
 15 17  1  0  0  0
 17 22  2  0  0  0
 17 18  1  0  0  0
 18 19  2  0  0  0
 18 54  1  0  0  0
 19 20  1  0  0  0
 19 55  1  0  0  0
 20 21  2  0  0  0
 20 23  1  0  0  0
 21 22  1  0  0  0
 21 56  1  0  0  0
 22 57  1  0  0  0
 23 24  2  0  0  0
 23 25  2  0  0  0
 23 26  1  0  0  0
 26 27  1  0  0  0
 26 58  1  0  0  0
 27 28  1  0  0  0
 27 34  1  0  0  0
 27 29  1  0  0  0
 29 30  1  0  0  0
 29 59  1  0  0  0
 29 60  1  0  0  0
 30 31  1  0  0  0
 30 61  1  0  0  0
 30 62  1  0  0  0
 31 32  2  0  0  0
 31 33  2  0  0  0
 31 34  1  0  0  0
 34 63  1  0  0  0
 34 64  1  0  0  0
M  END
> <i_i_glide_confnum>
197

> <i_i_glide_lignum>
2454

> <i_i_glide_posenum>
86

> <i_i_glide_rotatable_bonds>
7

> <i_m_Source_File_Index>
290

> <b_m_subgroup_collapsed>
0

> <r_i_docking_score>
-6.20471

> <r_i_glide_ecoul>
-2.50289

> <r_i_glide_eff_state_penalty>
0

> <r_i_glide_einternal>
12.3521

> <r_i_glide_emodel>
-59.2096

> <r_i_glide_energy>
-47.7585

> <r_i_glide_erotb>
0.526728

> <r_i_glide_esite>
-0.0788654

> <r_i_glide_evdw>
-45.2556

> <r_i_glide_gscore>
-6.20471

> <r_i_glide_hbond>
-0.447771

> <r_i_glide_ligand_efficiency>
-0.193897

> <r_i_glide_ligand_efficiency_ln>
-1.3894

> <r_i_glide_ligand_efficiency_sa>
-0.615585

> <r_i_glide_lipo>
-3.32242

> <r_i_glide_metal>
0

> <r_i_glide_rewards>
-0.244166

> <s_i_glide_gridfile>
wee1_glide-grid

> <s_m_Source_File>
wee1_decoys_glide_SP.sdf

> <s_m_Source_Path>
/Users/zhangxujun/Desktop

> <s_m_entry_id>
565

> <s_m_entry_name>
wee1_decoys_glide_SP.290

> <s_m_subgroup_title>
wee1_decoys_glide_SP

> <s_m_subgroupid>
wee1_decoys_glide_SP


$$$$
