ZINC31170064_3933
                    3D
 Schrodinger Suite 2024-2.
 62 65  0  0  1  0            999 V2000
    6.5154   54.7654   15.3659 C   0  0  0  0  0  0
    6.3614   54.0033   16.6900 C   0  0  0  0  0  0
    4.9305   53.4577   16.7714 C   0  0  0  0  0  0
    4.2396   53.5134   17.9183 C   0  0  0  0  0  0
    4.8440   54.0881   19.1156 C   0  0  0  0  0  0
    4.3063   53.8710   20.3830 C   0  0  0  0  0  0
    4.9457   54.3604   21.5270 C   0  0  0  0  0  0
    6.1490   55.0737   21.3736 C   0  0  0  0  0  0
    6.7036   55.2940   20.1054 C   0  0  0  0  0  0
    6.0530   54.7788   18.9797 C   0  0  0  0  0  0
    6.6141   54.9872   17.7265 O   0  0  0  0  0  0
    7.8970   55.9683   19.9858 O   0  0  0  0  0  0
    6.9021   55.5327   22.4374 O   0  0  0  0  0  0
    6.3737   55.3965   23.7595 C   0  0  0  0  0  0
    5.4496   54.1640   23.9979 C   0  0  2  0  0  0
    6.0698   53.2828   23.8371 H   0  0  0  0  0  0
    4.3520   54.1586   22.9083 C   0  0  0  0  0  0
    4.9031   54.0219   25.4512 C   0  0  0  0  0  0
    3.5526   53.7054   25.7050 C   0  0  0  0  0  0
    3.0493   53.4416   26.9977 C   0  0  0  0  0  0
    3.9414   53.5494   28.0859 C   0  0  0  0  0  0
    5.2760   53.9109   27.8486 C   0  0  0  0  0  0
    5.7590   54.0975   26.5577 C   0  0  0  0  0  0
    7.1041   54.3023   26.4058 O   0  0  0  0  0  0
    6.1481   54.0967   28.8816 O   0  0  0  0  0  0
    3.4745   53.3635   29.3749 O   0  0  0  0  0  0
    4.1342   52.3954   30.1933 C   0  0  0  0  0  0
    1.5536   53.0500   27.2294 C   0  0  0  0  0  0
    0.7460   52.8952   25.9089 C   0  0  0  0  0  0
    1.4368   51.6421   27.8866 C   0  0  0  0  0  0
    0.9106   54.1432   28.0958 C   0  0  0  0  0  0
    0.3137   53.9908   29.2938 C   0  0  0  0  0  0
    7.3400   52.8296   16.8768 C   0  0  0  0  0  0
    6.3531   54.1138   14.5061 H   0  0  0  0  0  0
    5.8082   55.5930   15.2989 H   0  0  0  0  0  0
    7.5173   55.1851   15.2756 H   0  0  0  0  0  0
    4.4828   52.9752   15.9157 H   0  0  0  0  0  0
    3.2418   53.1001   17.9587 H   0  0  0  0  0  0
    3.3815   53.3202   20.4811 H   0  0  0  0  0  0
    8.3236   56.0877   20.8379 H   0  0  0  0  0  0
    5.9046   56.3175   24.0833 H   0  0  0  0  0  0
    7.2848   55.3498   24.3439 H   0  0  0  0  0  0
    3.7973   53.2192   22.9177 H   0  0  0  0  0  0
    3.6402   54.9653   23.0767 H   0  0  0  0  0  0
    2.8861   53.6202   24.8672 H   0  0  0  0  0  0
    7.3783   54.1127   25.5056 H   0  0  0  0  0  0
    6.9368   54.5813   28.6116 H   0  0  0  0  0  0
    4.3043   52.8245   31.1803 H   0  0  0  0  0  0
    3.4973   51.5265   30.3410 H   0  0  0  0  0  0
    5.0850   52.0260   29.8050 H   0  0  0  0  0  0
    0.7733   53.7806   25.2783 H   0  0  0  0  0  0
    1.1258   52.0725   25.3003 H   0  0  0  0  0  0
   -0.3059   52.6796   26.1058 H   0  0  0  0  0  0
    1.8768   51.5847   28.8754 H   0  0  0  0  0  0
    0.3940   51.3450   28.0108 H   0  0  0  0  0  0
    1.9007   50.8672   27.2842 H   0  0  0  0  0  0
    0.9537   55.1405   27.6835 H   0  0  0  0  0  0
    0.2219   53.0267   29.7724 H   0  0  0  0  0  0
   -0.0900   54.8361   29.8285 H   0  0  0  0  0  0
    7.2459   52.0992   16.0725 H   0  0  0  0  0  0
    8.3726   53.1780   16.8919 H   0  0  0  0  0  0
    7.1545   52.3040   17.8140 H   0  0  0  0  0  0
  1  2  1  0  0  0
  1 34  1  0  0  0
  1 35  1  0  0  0
  1 36  1  0  0  0
  2 11  1  0  0  0
  2  3  1  0  0  0
  2 33  1  0  0  0
  3  4  2  0  0  0
  3 37  1  0  0  0
  4  5  1  0  0  0
  4 38  1  0  0  0
  5 10  2  0  0  0
  5  6  1  0  0  0
  6  7  2  0  0  0
  6 39  1  0  0  0
  7 17  1  0  0  0
  7  8  1  0  0  0
  8  9  2  0  0  0
  8 13  1  0  0  0
  9 10  1  0  0  0
  9 12  1  0  0  0
 10 11  1  0  0  0
 12 40  1  0  0  0
 13 14  1  0  0  0
 14 15  1  0  0  0
 14 41  1  0  0  0
 14 42  1  0  0  0
 15 16  1  0  0  0
 15 17  1  0  0  0
 15 18  1  0  0  0
 17 43  1  0  0  0
 17 44  1  0  0  0
 18 23  2  0  0  0
 18 19  1  0  0  0
 19 20  2  0  0  0
 19 45  1  0  0  0
 20 21  1  0  0  0
 20 28  1  0  0  0
 21 22  2  0  0  0
 21 26  1  0  0  0
 22 23  1  0  0  0
 22 25  1  0  0  0
 23 24  1  0  0  0
 24 46  1  0  0  0
 25 47  1  0  0  0
 26 27  1  0  0  0
 27 48  1  0  0  0
 27 49  1  0  0  0
 27 50  1  0  0  0
 28 29  1  0  0  0
 28 30  1  0  0  0
 28 31  1  0  0  0
 29 51  1  0  0  0
 29 52  1  0  0  0
 29 53  1  0  0  0
 30 54  1  0  0  0
 30 55  1  0  0  0
 30 56  1  0  0  0
 31 32  2  0  0  0
 31 57  1  0  0  0
 32 58  1  0  0  0
 32 59  1  0  0  0
 33 60  1  0  0  0
 33 61  1  0  0  0
 33 62  1  0  0  0
M  END
> <i_i_glide_confnum>
34

> <i_i_glide_lignum>
3934

> <i_i_glide_posenum>
50

> <i_i_glide_rotatable_bonds>
7

> <i_m_Source_File_Index>
5900

> <b_m_subgroup_collapsed>
0

> <r_i_docking_score>
-5.9879

> <r_i_glide_ecoul>
-1.85918

> <r_i_glide_eff_state_penalty>
0

> <r_i_glide_einternal>
14.7536

> <r_i_glide_emodel>
-47.0685

> <r_i_glide_energy>
-38.4218

> <r_i_glide_erotb>
0.31125

> <r_i_glide_esite>
0

> <r_i_glide_evdw>
-36.5626

> <r_i_glide_gscore>
-5.9879

> <r_i_glide_hbond>
0

> <r_i_glide_ligand_efficiency>
-0.187122

> <r_i_glide_ligand_efficiency_ln>
-1.34085

> <r_i_glide_ligand_efficiency_sa>
-0.594075

> <r_i_glide_lipo>
-3.59749

> <r_i_glide_metal>
0

> <r_i_glide_rewards>
-0.594654

> <s_i_glide_gridfile>
wee1_glide-grid

> <s_m_Source_File>
wee1_decoys_glide_SP.sdf

> <s_m_Source_Path>
/Users/zhangxujun/Desktop

> <s_m_entry_id>
6175

> <s_m_entry_name>
wee1_decoys_glide_SP.5900

> <s_m_subgroup_title>
wee1_decoys_glide_SP

> <s_m_subgroupid>
wee1_decoys_glide_SP


$$$$
