ZINC60614809_1496
                    3D
 Schrodinger Suite 2024-2.
 51 54  0  0  1  0            999 V2000
    8.3046   55.7435   19.9195 C   0  0  0  0  0  0
    8.9398   56.4249   18.8850 C   0  0  0  0  0  0
    8.1844   57.0059   17.8713 C   0  0  0  0  0  0
    6.7960   56.9063   17.8797 C   0  0  0  0  0  0
    6.1596   56.2166   18.9085 C   0  0  0  0  0  0
    6.9100   55.6373   19.9391 C   0  0  0  0  0  0
    6.2284   54.9233   21.0622 C   0  0  0  0  0  0
    6.7055   54.9562   22.3040 N   0  0  0  0  0  0
    4.0231   53.2994   22.3580 H   0  0  0  0  0  0
    5.8168   54.2667   22.9772 C   0  0  0  0  0  0
    4.8484   53.8295   22.1206 N   0  0  0  0  0  0
    5.1050   54.2533   20.8865 N   0  0  0  0  0  0
    5.6705   54.0969   24.3390 N   0  0  0  0  0  0
    6.1919   54.8920   25.2986 C   0  0  0  0  0  0
    7.1042   55.6967   25.1216 O   0  0  0  0  0  0
    5.5479   54.8021   26.6969 C   0  0  0  0  0  0
    4.0080   54.8961   26.5256 C   0  0  0  0  0  0
    3.3166   54.8056   27.9051 C   0  0  0  0  0  0
    3.6831   53.4900   28.4496 N   0  0  0  0  0  0
    5.1247   53.3703   28.7439 C   0  0  0  0  0  0
    5.8832   53.4655   27.3978 C   0  0  0  0  0  0
    2.8114   52.5109   28.8259 C   0  0  0  0  0  0
    3.1045   51.7556   29.7616 O   0  0  0  0  0  0
    1.6600   52.3014   28.1178 N   0  0  0  0  0  0
    1.0858   53.0866   27.0149 C   0  0  0  0  0  0
    0.3911   52.0549   26.1282 C   0  0  0  0  0  0
   -0.0684   51.0123   27.1108 C   0  0  0  0  0  0
    1.1009   50.9494   28.0805 C   0  0  0  0  0  0
    8.8047   57.6741   16.8730 F   0  0  0  0  0  0
    8.9012   55.3038   20.7056 H   0  0  0  0  0  0
   10.0163   56.5102   18.8764 H   0  0  0  0  0  0
    6.2177   57.3657   17.0922 H   0  0  0  0  0  0
    5.0819   56.1476   18.9105 H   0  0  0  0  0  0
    4.9802   53.4248   24.6353 H   0  0  0  0  0  0
    5.9106   55.6650   27.2591 H   0  0  0  0  0  0
    3.6347   54.0688   25.9237 H   0  0  0  0  0  0
    3.7097   55.8404   26.0807 H   0  0  0  0  0  0
    2.2496   55.0228   27.9109 H   0  0  0  0  0  0
    3.7329   55.5563   28.5777 H   0  0  0  0  0  0
    5.4073   54.2080   29.3822 H   0  0  0  0  0  0
    5.3780   52.4582   29.2834 H   0  0  0  0  0  0
    6.9462   53.4011   27.6360 H   0  0  0  0  0  0
    5.5582   52.5982   26.8233 H   0  0  0  0  0  0
    1.7686   53.6021   26.3558 H   0  0  0  0  0  0
    0.2801   53.6967   27.4143 H   0  0  0  0  0  0
    1.1001   51.6185   25.4220 H   0  0  0  0  0  0
   -0.4216   52.4854   25.5423 H   0  0  0  0  0  0
   -0.9702   51.3423   27.6310 H   0  0  0  0  0  0
   -0.2922   50.0425   26.6637 H   0  0  0  0  0  0
    0.7841   50.6345   29.0753 H   0  0  0  0  0  0
    1.8526   50.2615   27.6870 H   0  0  0  0  0  0
  1  6  2  0  0  0
  1  2  1  0  0  0
  1 30  1  0  0  0
  2  3  2  0  0  0
  2 31  1  0  0  0
  3  4  1  0  0  0
  3 29  1  0  0  0
  4  5  2  0  0  0
  4 32  1  0  0  0
  5  6  1  0  0  0
  5 33  1  0  0  0
  6  7  1  0  0  0
  7  8  1  0  0  0
  7 12  2  0  0  0
  8 10  2  0  0  0
  9 11  1  0  0  0
 10 13  1  0  0  0
 10 11  1  0  0  0
 11 12  1  0  0  0
 13 14  1  0  0  0
 13 34  1  0  0  0
 14 15  2  0  0  0
 14 16  1  0  0  0
 16 21  1  0  0  0
 16 17  1  0  0  0
 16 35  1  0  0  0
 17 18  1  0  0  0
 17 36  1  0  0  0
 17 37  1  0  0  0
 18 19  1  0  0  0
 18 38  1  0  0  0
 18 39  1  0  0  0
 19 20  1  0  0  0
 19 22  1  0  0  0
 20 21  1  0  0  0
 20 40  1  0  0  0
 20 41  1  0  0  0
 21 42  1  0  0  0
 21 43  1  0  0  0
 22 23  2  0  0  0
 22 24  1  0  0  0
 24 28  1  0  0  0
 24 25  1  0  0  0
 25 26  1  0  0  0
 25 44  1  0  0  0
 25 45  1  0  0  0
 26 27  1  0  0  0
 26 46  1  0  0  0
 26 47  1  0  0  0
 27 28  1  0  0  0
 27 48  1  0  0  0
 27 49  1  0  0  0
 28 50  1  0  0  0
 28 51  1  0  0  0
M  END
> <i_i_glide_confnum>
278

> <i_i_glide_lignum>
1497

> <i_i_glide_posenum>
223

> <i_i_glide_rotatable_bonds>
6

> <i_m_Source_File_Index>
3024

> <b_m_subgroup_collapsed>
0

> <r_i_docking_score>
-7.30245

> <r_i_glide_ecoul>
-7.42163

> <r_i_glide_eff_state_penalty>
0

> <r_i_glide_einternal>
13.6142

> <r_i_glide_emodel>
-61.5133

> <r_i_glide_energy>
-46.2402

> <r_i_glide_erotb>
0.782059

> <r_i_glide_esite>
0

> <r_i_glide_evdw>
-38.8185

> <r_i_glide_gscore>
-7.30245

> <r_i_glide_hbond>
-0.608

> <r_i_glide_ligand_efficiency>
-0.260802

> <r_i_glide_ligand_efficiency_ln>
-1.68562

> <r_i_glide_ligand_efficiency_sa>
-0.791947

> <r_i_glide_lipo>
-1.8241

> <r_i_glide_metal>
0

> <r_i_glide_rewards>
-2.59823

> <s_i_glide_gridfile>
wee1_glide-grid

> <s_m_Source_File>
wee1_decoys_glide_SP.sdf

> <s_m_Source_Path>
/Users/zhangxujun/Desktop

> <s_m_entry_id>
3299

> <s_m_entry_name>
wee1_decoys_glide_SP.3024

> <s_m_subgroup_title>
wee1_decoys_glide_SP

> <s_m_subgroupid>
wee1_decoys_glide_SP


$$$$
