ZINC39686758_1298
                    3D
 Schrodinger Suite 2024-2.
 72 75  0  0  1  0            999 V2000
   -0.0670   52.4973   30.8120 C   0  0  0  0  0  0
    0.7445   53.4008   29.9043 C   0  0  0  0  0  0
    1.0483   54.7025   30.3087 C   0  0  0  0  0  0
    1.8108   55.5300   29.4895 C   0  0  0  0  0  0
    2.2578   55.0578   28.2580 C   0  0  0  0  0  0
    1.9324   53.7748   27.8127 C   0  0  0  0  0  0
    1.1882   52.9387   28.6597 C   0  0  0  0  0  0
    2.4530   53.3074   26.4444 C   0  0  0  0  0  0
    1.3907   52.8038   25.4355 C   0  0  0  0  0  0
    0.2701   52.4870   25.8370 O   0  0  0  0  0  0
    1.7360   52.6605   24.1294 N   0  0  0  0  0  0
    0.7951   52.1607   23.1306 C   0  0  0  0  0  0
    1.3209   52.7494   21.8007 C   0  0  1  0  0  0
    0.9026   53.7347   21.6816 H   0  0  0  0  0  0
    2.8646   52.8625   21.9953 C   0  0  0  0  0  0
    2.9607   53.1725   23.5137 C   0  0  0  0  0  0
    3.5998   54.0015   21.2438 C   0  0  0  0  0  0
    3.6755   53.7934   19.7216 C   0  0  0  0  0  0
    4.4653   52.4968   19.4722 N   0  3  0  0  0  0
    3.8960   51.2631   20.1941 C   0  0  0  0  0  0
    3.6817   51.5694   21.6859 C   0  0  0  0  0  0
    0.7906   51.8519   20.6589 C   0  0  0  0  0  0
    0.7230   50.6296   20.8081 O   0  0  0  0  0  0
    0.3336   52.4618   19.5447 N   0  0  0  0  0  0
   -0.2371   51.7272   18.4053 C   0  0  1  0  0  0
    0.4114   50.8604   18.2428 H   0  0  0  0  0  0
   -1.6381   51.1585   18.7204 C   0  0  0  0  0  0
   -0.1667   52.4913   17.0600 C   0  0  0  0  0  0
   -1.1149   53.6846   16.9004 C   0  0  0  0  0  0
   -2.4534   53.4410   16.5715 C   0  0  0  0  0  0
   -3.3350   54.4948   16.3560 C   0  0  0  0  0  0
   -2.8866   55.8070   16.4608 C   0  0  0  0  0  0
   -1.5560   56.0636   16.7762 C   0  0  0  0  0  0
   -0.6492   55.0081   16.9854 C   0  0  0  0  0  0
    0.6905   55.2080   17.2566 O   0  0  0  0  0  0
    1.2844   56.4467   16.8817 C   0  0  0  0  0  0
    0.5587   51.6976   31.2037 H   0  0  0  0  0  0
   -0.4950   53.0421   31.6557 H   0  0  0  0  0  0
   -0.8859   52.0311   30.2635 H   0  0  0  0  0  0
    0.7046   55.0736   31.2636 H   0  0  0  0  0  0
    2.0547   56.5353   29.8063 H   0  0  0  0  0  0
    2.8561   55.6963   27.6328 H   0  0  0  0  0  0
    0.9484   51.9310   28.3475 H   0  0  0  0  0  0
    3.0330   54.1082   25.9850 H   0  0  0  0  0  0
    3.1522   52.4969   26.6336 H   0  0  0  0  0  0
    0.9165   51.0752   23.1463 H   0  0  0  0  0  0
   -0.2409   52.4592   23.2991 H   0  0  0  0  0  0
    2.8849   54.2573   23.6240 H   0  0  0  0  0  0
    3.9075   52.9017   23.9789 H   0  0  0  0  0  0
    3.1045   54.9429   21.4664 H   0  0  0  0  0  0
    4.6120   54.1255   21.6371 H   0  0  0  0  0  0
    2.7041   53.6936   19.2408 H   0  0  0  0  0  0
    4.2295   54.5877   19.2196 H   0  0  0  0  0  0
    4.5261   52.2686   18.4848 H   0  0  0  0  0  0
    3.0207   50.9488   19.6297 H   0  0  0  0  0  0
    4.6531   50.4964   20.0820 H   0  0  0  0  0  0
    4.6905   51.6724   22.0817 H   0  0  0  0  0  0
    3.2480   50.7056   22.1938 H   0  0  0  0  0  0
    0.4681   53.4598   19.4344 H   0  0  0  0  0  0
   -2.0698   50.6797   17.8411 H   0  0  0  0  0  0
   -1.5972   50.3889   19.4924 H   0  0  0  0  0  0
   -2.3317   51.9392   19.0366 H   0  0  0  0  0  0
    0.8612   52.7960   16.8549 H   0  0  0  0  0  0
   -0.4020   51.7927   16.2546 H   0  0  0  0  0  0
   -2.8170   52.4285   16.4667 H   0  0  0  0  0  0
   -4.3652   54.2952   16.0988 H   0  0  0  0  0  0
   -3.5703   56.6257   16.2839 H   0  0  0  0  0  0
   -1.2463   57.0945   16.8383 H   0  0  0  0  0  0
    2.3373   56.4418   17.1671 H   0  0  0  0  0  0
    1.2345   56.5961   15.8012 H   0  0  0  0  0  0
    0.8088   57.2977   17.3662 H   0  0  0  0  0  0
    5.4203   52.6293   19.7692 H   0  0  0  0  0  0
  1  2  1  0  0  0
  1 37  1  0  0  0
  1 38  1  0  0  0
  1 39  1  0  0  0
  2  7  2  0  0  0
  2  3  1  0  0  0
  3  4  2  0  0  0
  3 40  1  0  0  0
  4  5  1  0  0  0
  4 41  1  0  0  0
  5  6  2  0  0  0
  5 42  1  0  0  0
  6  7  1  0  0  0
  6  8  1  0  0  0
  7 43  1  0  0  0
  8  9  1  0  0  0
  8 44  1  0  0  0
  8 45  1  0  0  0
  9 10  2  0  0  0
  9 11  1  0  0  0
 11 16  1  0  0  0
 11 12  1  0  0  0
 12 13  1  0  0  0
 12 46  1  0  0  0
 12 47  1  0  0  0
 13 14  1  0  0  0
 13 15  1  0  0  0
 13 22  1  0  0  0
 15 21  1  0  0  0
 15 16  1  0  0  0
 15 17  1  0  0  0
 16 48  1  0  0  0
 16 49  1  0  0  0
 17 18  1  0  0  0
 17 50  1  0  0  0
 17 51  1  0  0  0
 18 19  1  0  0  0
 18 52  1  0  0  0
 18 53  1  0  0  0
 19 20  1  0  0  0
 19 54  1  0  0  0
 19 72  1  0  0  0
 20 21  1  0  0  0
 20 55  1  0  0  0
 20 56  1  0  0  0
 21 57  1  0  0  0
 21 58  1  0  0  0
 22 23  2  0  0  0
 22 24  1  0  0  0
 24 25  1  0  0  0
 24 59  1  0  0  0
 25 26  1  0  0  0
 25 27  1  0  0  0
 25 28  1  0  0  0
 27 60  1  0  0  0
 27 61  1  0  0  0
 27 62  1  0  0  0
 28 29  1  0  0  0
 28 63  1  0  0  0
 28 64  1  0  0  0
 29 34  2  0  0  0
 29 30  1  0  0  0
 30 31  2  0  0  0
 30 65  1  0  0  0
 31 32  1  0  0  0
 31 66  1  0  0  0
 32 33  2  0  0  0
 32 67  1  0  0  0
 33 34  1  0  0  0
 33 68  1  0  0  0
 34 35  1  0  0  0
 35 36  1  0  0  0
 36 69  1  0  0  0
 36 70  1  0  0  0
 36 71  1  0  0  0
M  CHG  1  19   1
M  END
> <i_i_glide_confnum>
451

> <i_i_glide_lignum>
1299

> <i_i_glide_posenum>
277

> <i_i_glide_rotatable_bonds>
9

> <i_m_Source_File_Index>
2132

> <b_m_subgroup_collapsed>
0

> <r_i_docking_score>
-4.46246

> <r_i_glide_ecoul>
-3.56971

> <r_i_glide_eff_state_penalty>
0

> <r_i_glide_einternal>
4.19504

> <r_i_glide_emodel>
-45.5248

> <r_i_glide_energy>
-35.0617

> <r_i_glide_erotb>
0.747141

> <r_i_glide_esite>
-0.118965

> <r_i_glide_evdw>
-31.492

> <r_i_glide_gscore>
-4.46246

> <r_i_glide_hbond>
-0.324988

> <r_i_glide_ligand_efficiency>
-0.131249

> <r_i_glide_ligand_efficiency_ln>
-0.985883

> <r_i_glide_ligand_efficiency_sa>
-0.425196

> <r_i_glide_lipo>
-1.9324

> <r_i_glide_metal>
0

> <r_i_glide_rewards>
-0.723201

> <s_i_glide_gridfile>
wee1_glide-grid

> <s_m_Source_File>
wee1_decoys_glide_SP.sdf

> <s_m_Source_Path>
/Users/zhangxujun/Desktop

> <s_m_entry_id>
2407

> <s_m_entry_name>
wee1_decoys_glide_SP.2132

> <s_m_subgroup_title>
wee1_decoys_glide_SP

> <s_m_subgroupid>
wee1_decoys_glide_SP


$$$$
