ZINC16044748_2095
                    3D
 Schrodinger Suite 2024-2.
 54 56  0  0  1  0            999 V2000
    0.7038   54.1430   30.5739 C   0  0  0  0  0  0
    1.6261   54.8128   29.5316 C   0  0  1  0  0  0
    1.6368   55.8851   29.7360 H   0  0  0  0  0  0
    3.1013   54.3358   29.5362 C   0  0  0  0  0  0
    3.1907   52.8436   29.1591 C   0  0  1  0  0  0
    2.5265   52.2555   29.7938 H   0  0  0  0  0  0
    2.7065   52.7331   27.7060 C   0  0  0  0  0  0
    1.3284   53.2412   27.6014 N   0  0  0  0  0  0
    1.0868   54.6187   28.1014 C   0  0  0  0  0  0
    0.0474   52.1635   27.0276 S   0  0  0  0  0  0
   -1.2324   52.8777   27.0340 O   0  0  0  0  0  0
    0.2048   50.8967   27.7436 O   0  0  0  0  0  0
    0.4390   51.8500   25.3120 C   0  0  0  0  0  0
    0.3223   50.5565   24.8035 C   0  0  0  0  0  0
    0.6413   50.3098   23.4717 C   0  0  0  0  0  0
    1.0608   51.3526   22.6335 C   0  0  0  0  0  0
    1.1770   52.6489   23.1610 C   0  0  0  0  0  0
    0.8650   52.8962   24.4934 C   0  0  0  0  0  0
    1.3652   51.0613   21.1819 C   0  0  0  0  0  0
    1.7085   49.9268   20.8352 O   0  0  0  0  0  0
    1.1840   52.0970   20.3331 N   0  0  0  0  0  0
    1.4335   51.8931   18.9795 N   0  0  0  0  0  0
    0.4262   52.1519   18.1142 C   0  0  0  0  0  0
   -0.7112   52.4963   18.4604 O   0  0  0  0  0  0
    0.7647   52.0120   16.6444 C   0  0  0  0  0  0
    1.9210   51.3374   16.2177 C   0  0  0  0  0  0
    2.2103   51.2129   14.8627 C   0  0  0  0  0  0
    1.3469   51.7596   13.9180 C   0  0  0  0  0  0
    0.1955   52.4305   14.3207 C   0  0  0  0  0  0
   -0.0950   52.5546   15.6773 C   0  0  0  0  0  0
    1.7415   51.5868   12.0642 Br  0  0  0  0  0  0
    4.5998   52.2819   29.3294 C   0  0  0  0  0  0
    0.5345   53.0859   30.3669 H   0  0  0  0  0  0
    1.1023   54.2211   31.5828 H   0  0  0  0  0  0
   -0.2759   54.6202   30.5816 H   0  0  0  0  0  0
    3.5553   54.4659   30.5057 H   0  0  0  0  0  0
    3.7278   54.9364   28.8733 H   0  0  0  0  0  0
    2.7042   51.6967   27.3829 H   0  0  0  0  0  0
    3.3316   53.2922   27.0080 H   0  0  0  0  0  0
    1.5829   55.2964   27.4152 H   0  0  0  0  0  0
    0.0170   54.8182   28.0817 H   0  0  0  0  0  0
   -0.0044   49.7430   25.4376 H   0  0  0  0  0  0
    0.5512   49.2997   23.0957 H   0  0  0  0  0  0
    1.5071   53.4787   22.5521 H   0  0  0  0  0  0
    0.9598   53.8992   24.8821 H   0  0  0  0  0  0
    1.3603   53.0540   20.6069 H   0  0  0  0  0  0
    2.3969   52.0773   18.7368 H   0  0  0  0  0  0
    2.6178   50.8967   16.9185 H   0  0  0  0  0  0
    3.1035   50.6867   14.5562 H   0  0  0  0  0  0
   -0.4710   52.8524   13.5830 H   0  0  0  0  0  0
   -0.9952   53.0775   15.9691 H   0  0  0  0  0  0
    5.3638   52.9208   28.8840 H   0  0  0  0  0  0
    4.8235   52.1353   30.3853 H   0  0  0  0  0  0
    4.6838   51.2983   28.8819 H   0  0  0  0  0  0
  1  2  1  0  0  0
  1 33  1  0  0  0
  1 34  1  0  0  0
  1 35  1  0  0  0
  2  3  1  0  0  0
  2  9  1  0  0  0
  2  4  1  0  0  0
  4  5  1  0  0  0
  4 36  1  0  0  0
  4 37  1  0  0  0
  5  6  1  0  0  0
  5  7  1  0  0  0
  5 32  1  0  0  0
  7  8  1  0  0  0
  7 38  1  0  0  0
  7 39  1  0  0  0
  8  9  1  0  0  0
  8 10  1  0  0  0
  9 40  1  0  0  0
  9 41  1  0  0  0
 10 11  2  0  0  0
 10 12  2  0  0  0
 10 13  1  0  0  0
 13 18  2  0  0  0
 13 14  1  0  0  0
 14 15  2  0  0  0
 14 42  1  0  0  0
 15 16  1  0  0  0
 15 43  1  0  0  0
 16 17  2  0  0  0
 16 19  1  0  0  0
 17 18  1  0  0  0
 17 44  1  0  0  0
 18 45  1  0  0  0
 19 20  2  0  0  0
 19 21  1  0  0  0
 21 22  1  0  0  0
 21 46  1  0  0  0
 22 23  1  0  0  0
 22 47  1  0  0  0
 23 24  2  0  0  0
 23 25  1  0  0  0
 25 30  2  0  0  0
 25 26  1  0  0  0
 26 27  2  0  0  0
 26 48  1  0  0  0
 27 28  1  0  0  0
 27 49  1  0  0  0
 28 29  2  0  0  0
 28 31  1  0  0  0
 29 30  1  0  0  0
 29 50  1  0  0  0
 30 51  1  0  0  0
 32 52  1  0  0  0
 32 53  1  0  0  0
 32 54  1  0  0  0
M  END
> <i_i_glide_confnum>
51

> <i_i_glide_lignum>
2096

> <i_i_glide_posenum>
320

> <i_i_glide_rotatable_bonds>
7

> <i_m_Source_File_Index>
4699

> <b_m_subgroup_collapsed>
0

> <r_i_docking_score>
-2.96496

> <r_i_glide_ecoul>
-3.63442

> <r_i_glide_eff_state_penalty>
0

> <r_i_glide_einternal>
2.3067

> <r_i_glide_emodel>
-36.659

> <r_i_glide_energy>
-30.3067

> <r_i_glide_erotb>
0.500213

> <r_i_glide_esite>
-0.12454

> <r_i_glide_evdw>
-26.6723

> <r_i_glide_gscore>
-2.96496

> <r_i_glide_hbond>
-0.161108

> <r_i_glide_ligand_efficiency>
-0.0988319

> <r_i_glide_ligand_efficiency_ln>
-0.67367

> <r_i_glide_ligand_efficiency_sa>
-0.307094

> <r_i_glide_lipo>
-1.69249

> <r_i_glide_metal>
0

> <r_i_glide_rewards>
0.391744

> <s_i_glide_gridfile>
wee1_glide-grid

> <s_m_Source_File>
wee1_decoys_glide_SP.sdf

> <s_m_Source_Path>
/Users/zhangxujun/Desktop

> <s_m_entry_id>
4974

> <s_m_entry_name>
wee1_decoys_glide_SP.4699

> <s_m_subgroup_title>
wee1_decoys_glide_SP

> <s_m_subgroupid>
wee1_decoys_glide_SP


$$$$
