ZINC41006555_4958
                    3D
 Schrodinger Suite 2024-2.
 67 70  0  0  1  0            999 V2000
   -1.8198   47.6518   21.5376 C   0  0  0  0  0  0
   -1.3533   48.1646   22.8958 C   0  0  0  0  0  0
   -2.1086   47.8212   24.0185 C   0  0  0  0  0  0
   -1.6839   48.1909   25.2898 C   0  0  0  0  0  0
   -0.4945   48.8971   25.4595 C   0  0  0  0  0  0
    0.2662   49.2534   24.3507 C   0  0  0  0  0  0
   -0.1674   48.9132   23.0677 C   0  0  0  0  0  0
    0.6496   49.2957   22.0035 N   0  0  0  0  0  0
    0.2444   50.0403   20.9595 C   0  0  0  0  0  0
   -0.8278   50.6538   20.9290 O   0  0  0  0  0  0
    1.1998   50.0841   19.7467 C   0  0  2  0  0  0
    2.0939   49.5194   20.0158 H   0  0  0  0  0  0
    1.6185   51.5657   19.4183 C   0  0  2  0  0  0
    0.6981   52.1537   19.3627 H   0  0  0  0  0  0
    2.3032   51.6997   18.0042 C   0  0  1  0  0  0
    3.2790   51.2215   18.0536 H   0  0  0  0  0  0
    1.5183   50.9633   16.8600 C   0  0  1  0  0  0
    1.3414   49.4839   17.2509 C   0  0  0  0  0  0
    0.5744   49.3182   18.5518 C   0  0  0  0  0  0
   -0.4294   48.6048   18.6067 O   0  0  0  0  0  0
    0.1634   51.5867   16.4325 C   0  0  0  0  0  0
    2.3043   50.8964   15.6930 O   0  0  0  0  0  0
    2.5866   53.1939   17.6830 C   0  0  0  0  0  0
    1.6406   53.9627   17.5084 O   0  0  0  0  0  0
    3.8884   53.5606   17.6739 N   0  0  0  0  0  0
    4.4694   54.8468   17.5861 C   0  0  0  0  0  0
    3.7530   56.0012   17.2220 C   0  0  0  0  0  0
    4.3764   57.2468   17.1848 C   0  0  0  0  0  0
    5.7252   57.3611   17.5069 C   0  0  0  0  0  0
    6.4512   56.2265   17.8644 C   0  0  0  0  0  0
    5.8369   54.9695   17.9063 C   0  0  0  0  0  0
    6.6800   53.7622   18.3084 C   0  0  0  0  0  0
    2.4108   52.1870   20.6003 C   0  0  0  0  0  0
    3.8092   52.1491   20.6427 C   0  0  0  0  0  0
    4.5008   52.7699   21.6801 C   0  0  0  0  0  0
    3.8132   53.4366   22.7018 C   0  0  0  0  0  0
    2.4135   53.4531   22.6748 C   0  0  0  0  0  0
    1.7255   52.8400   21.6342 C   0  0  0  0  0  0
    4.5556   54.0969   23.8026 N   0  3  0  0  0  0
    5.7755   54.2045   23.7046 O   0  0  0  0  0  0
    3.9209   54.4972   24.7745 O   0  5  0  0  0  0
   -2.3109   48.4431   20.9688 H   0  0  0  0  0  0
   -0.9711   47.2867   20.9593 H   0  0  0  0  0  0
   -2.5095   46.8138   21.6349 H   0  0  0  0  0  0
   -3.0252   47.2602   23.9130 H   0  0  0  0  0  0
   -2.2646   47.9168   26.1592 H   0  0  0  0  0  0
   -0.1622   49.1521   26.4569 H   0  0  0  0  0  0
    1.1903   49.7947   24.4939 H   0  0  0  0  0  0
    1.6207   49.0313   22.0604 H   0  0  0  0  0  0
    2.3042   48.9957   17.3950 H   0  0  0  0  0  0
    0.8197   48.9309   16.4660 H   0  0  0  0  0  0
   -0.4877   51.7611   17.2893 H   0  0  0  0  0  0
    0.2919   52.5387   15.9189 H   0  0  0  0  0  0
   -0.3707   50.9370   15.7398 H   0  0  0  0  0  0
    3.0261   50.2731   15.8808 H   0  0  0  0  0  0
    4.5526   52.8154   17.8364 H   0  0  0  0  0  0
    2.7092   55.9666   16.9530 H   0  0  0  0  0  0
    3.8133   58.1267   16.9041 H   0  0  0  0  0  0
    6.2038   58.3295   17.4735 H   0  0  0  0  0  0
    7.5003   56.3316   18.1097 H   0  0  0  0  0  0
    7.7258   54.0222   18.4846 H   0  0  0  0  0  0
    6.2811   53.3098   19.2162 H   0  0  0  0  0  0
    6.6509   52.9955   17.5288 H   0  0  0  0  0  0
    4.3790   51.6540   19.8732 H   0  0  0  0  0  0
    5.5801   52.7316   21.6814 H   0  0  0  0  0  0
    1.8527   53.9600   23.4474 H   0  0  0  0  0  0
    0.6472   52.8958   21.6170 H   0  0  0  0  0  0
  1  2  1  0  0  0
  1 42  1  0  0  0
  1 43  1  0  0  0
  1 44  1  0  0  0
  2  7  2  0  0  0
  2  3  1  0  0  0
  3  4  2  0  0  0
  3 45  1  0  0  0
  4  5  1  0  0  0
  4 46  1  0  0  0
  5  6  2  0  0  0
  5 47  1  0  0  0
  6  7  1  0  0  0
  6 48  1  0  0  0
  7  8  1  0  0  0
  8  9  1  0  0  0
  8 49  1  0  0  0
  9 10  2  0  0  0
  9 11  1  0  0  0
 11 12  1  0  0  0
 11 19  1  0  0  0
 11 13  1  0  0  0
 13 14  1  0  0  0
 13 15  1  0  0  0
 13 33  1  0  0  0
 15 16  1  0  0  0
 15 17  1  0  0  0
 15 23  1  0  0  0
 17 18  1  0  0  0
 17 21  1  0  0  0
 17 22  1  0  0  0
 18 19  1  0  0  0
 18 50  1  0  0  0
 18 51  1  0  0  0
 19 20  2  0  0  0
 21 52  1  0  0  0
 21 53  1  0  0  0
 21 54  1  0  0  0
 22 55  1  0  0  0
 23 24  2  0  0  0
 23 25  1  0  0  0
 25 26  1  0  0  0
 25 56  1  0  0  0
 26 31  2  0  0  0
 26 27  1  0  0  0
 27 28  2  0  0  0
 27 57  1  0  0  0
 28 29  1  0  0  0
 28 58  1  0  0  0
 29 30  2  0  0  0
 29 59  1  0  0  0
 30 31  1  0  0  0
 30 60  1  0  0  0
 31 32  1  0  0  0
 32 61  1  0  0  0
 32 62  1  0  0  0
 32 63  1  0  0  0
 33 38  2  0  0  0
 33 34  1  0  0  0
 34 35  2  0  0  0
 34 64  1  0  0  0
 35 36  1  0  0  0
 35 65  1  0  0  0
 36 37  2  0  0  0
 36 39  1  0  0  0
 37 38  1  0  0  0
 37 66  1  0  0  0
 38 67  1  0  0  0
 39 40  2  0  0  0
 39 41  1  0  0  0
M  CHG  2  39   1  41  -1
M  END
> <i_i_glide_confnum>
4

> <i_i_glide_lignum>
4959

> <i_i_glide_posenum>
238

> <i_i_glide_rotatable_bonds>
9

> <i_m_Source_File_Index>
4951

> <b_m_subgroup_collapsed>
0

> <r_i_docking_score>
-3.4295

> <r_i_glide_ecoul>
-8.32211

> <r_i_glide_eff_state_penalty>
0

> <r_i_glide_einternal>
7.83649

> <r_i_glide_emodel>
-48.7199

> <r_i_glide_energy>
-41.874

> <r_i_glide_erotb>
0.540405

> <r_i_glide_esite>
-0.0679749

> <r_i_glide_evdw>
-33.5519

> <r_i_glide_gscore>
-3.4295

> <r_i_glide_hbond>
-0.16

> <r_i_glide_ligand_efficiency>
-0.09025

> <r_i_glide_ligand_efficiency_ln>
-0.739501

> <r_i_glide_ligand_efficiency_sa>
-0.303418

> <r_i_glide_lipo>
-0.532776

> <r_i_glide_metal>
0

> <r_i_glide_rewards>
-0.283242

> <s_i_glide_gridfile>
wee1_glide-grid

> <s_m_Source_File>
wee1_decoys_glide_SP.sdf

> <s_m_Source_Path>
/Users/zhangxujun/Desktop

> <s_m_entry_id>
5226

> <s_m_entry_name>
wee1_decoys_glide_SP.4951

> <s_m_subgroup_title>
wee1_decoys_glide_SP

> <s_m_subgroupid>
wee1_decoys_glide_SP


$$$$
