ZINC04279574_3576
                    3D
 Schrodinger Suite 2024-2.
 42 45  0  0  1  0            999 V2000
    2.0359   54.1846   27.9426 C   0  0  0  0  0  0
    1.0180   53.1263   27.5175 C   0  0  0  0  0  0
    0.0974   52.4921   28.3166 C   0  0  0  0  0  0
   -0.6968   51.3180   27.6701 C   0  0  2  0  0  0
   -0.6860   50.4968   28.3784 H   0  0  0  0  0  0
    0.0543   50.7910   26.5172 N   0  0  0  0  0  0
    0.7045   51.7447   25.7053 C   0  0  0  0  0  0
    1.1629   52.8469   26.1818 N   0  0  0  0  0  0
    0.7039   51.3171   24.3950 N   0  0  0  0  0  0
   -0.0026   50.2488   24.3429 C   0  0  0  0  0  0
   -0.5361   49.8867   25.6123 N   0  0  0  0  0  0
   -0.2461   49.4622   23.1192 C   0  0  0  0  0  0
    0.5549   49.6499   21.9809 C   0  0  0  0  0  0
    0.2892   48.9448   20.8099 C   0  0  0  0  0  0
   -0.7773   48.0507   20.7698 C   0  0  0  0  0  0
   -1.5741   47.8471   21.8935 C   0  0  0  0  0  0
   -1.3086   48.5484   23.0675 C   0  0  0  0  0  0
   -1.0357   47.3635   19.6348 F   0  0  0  0  0  0
   -2.1836   51.5997   27.3895 C   0  0  0  0  0  0
   -3.1704   50.8975   28.0913 C   0  0  0  0  0  0
   -4.5166   51.1073   27.8027 C   0  0  0  0  0  0
   -4.8776   52.0067   26.8030 C   0  0  0  0  0  0
   -3.9052   52.7002   26.0886 C   0  0  0  0  0  0
   -2.5603   52.4967   26.3831 C   0  0  0  0  0  0
   -6.1846   52.2117   26.5263 F   0  0  0  0  0  0
   -0.0956   52.8050   29.7282 C   0  0  0  0  0  0
    0.1786   53.8930   30.2287 O   0  0  0  0  0  0
   -0.6470   51.8541   30.4816 N   0  0  0  0  0  0
    1.6307   55.1815   27.7665 H   0  0  0  0  0  0
    2.3060   54.1038   28.9949 H   0  0  0  0  0  0
    2.9716   54.0957   27.3836 H   0  0  0  0  0  0
   -0.4954   48.9595   26.0243 H   0  0  0  0  0  0
    1.3801   50.3494   21.9926 H   0  0  0  0  0  0
    0.9043   49.0928   19.9341 H   0  0  0  0  0  0
   -2.3982   47.1507   21.8506 H   0  0  0  0  0  0
   -1.9511   48.3887   23.9226 H   0  0  0  0  0  0
   -2.8957   50.1725   28.8465 H   0  0  0  0  0  0
   -5.2764   50.5644   28.3441 H   0  0  0  0  0  0
   -4.1947   53.3905   25.3111 H   0  0  0  0  0  0
   -1.8101   53.0298   25.8186 H   0  0  0  0  0  0
   -0.8962   50.9552   30.0993 H   0  0  0  0  0  0
   -0.8508   52.0238   31.4678 H   0  0  0  0  0  0
  1  2  1  0  0  0
  1 29  1  0  0  0
  1 30  1  0  0  0
  1 31  1  0  0  0
  2  8  1  0  0  0
  2  3  2  0  0  0
  3  4  1  0  0  0
  3 26  1  0  0  0
  4  5  1  0  0  0
  4  6  1  0  0  0
  4 19  1  0  0  0
  6 11  1  0  0  0
  6  7  1  0  0  0
  7  8  2  0  0  0
  7  9  1  0  0  0
  9 10  2  0  0  0
 10 11  1  0  0  0
 10 12  1  0  0  0
 11 32  1  0  0  0
 12 17  2  0  0  0
 12 13  1  0  0  0
 13 14  2  0  0  0
 13 33  1  0  0  0
 14 15  1  0  0  0
 14 34  1  0  0  0
 15 16  2  0  0  0
 15 18  1  0  0  0
 16 17  1  0  0  0
 16 35  1  0  0  0
 17 36  1  0  0  0
 19 24  2  0  0  0
 19 20  1  0  0  0
 20 21  2  0  0  0
 20 37  1  0  0  0
 21 22  1  0  0  0
 21 38  1  0  0  0
 22 23  2  0  0  0
 22 25  1  0  0  0
 23 24  1  0  0  0
 23 39  1  0  0  0
 24 40  1  0  0  0
 26 27  2  0  0  0
 26 28  1  0  0  0
 28 41  1  0  0  0
 28 42  1  0  0  0
M  END
> <i_i_glide_confnum>
4

> <i_i_glide_lignum>
3577

> <i_i_glide_posenum>
225

> <i_i_glide_rotatable_bonds>
3

> <i_m_Source_File_Index>
3600

> <b_m_subgroup_collapsed>
0

> <r_i_docking_score>
-4.10288

> <r_i_glide_ecoul>
-7.2547

> <r_i_glide_eff_state_penalty>
0

> <r_i_glide_einternal>
2.25536

> <r_i_glide_emodel>
-43.7141

> <r_i_glide_energy>
-34.609

> <r_i_glide_erotb>
0.28541

> <r_i_glide_esite>
-0.211119

> <r_i_glide_evdw>
-27.3543

> <r_i_glide_gscore>
-4.10288

> <r_i_glide_hbond>
-0.16

> <r_i_glide_ligand_efficiency>
-0.151958

> <r_i_glide_ligand_efficiency_ln>
-0.955082

> <r_i_glide_ligand_efficiency_sa>
-0.455875

> <r_i_glide_lipo>
-0.58145

> <r_i_glide_metal>
0

> <r_i_glide_rewards>
-0.979796

> <s_i_glide_gridfile>
wee1_glide-grid

> <s_m_Source_File>
wee1_decoys_glide_SP.sdf

> <s_m_Source_Path>
/Users/zhangxujun/Desktop

> <s_m_entry_id>
3875

> <s_m_entry_name>
wee1_decoys_glide_SP.3600

> <s_m_subgroup_title>
wee1_decoys_glide_SP

> <s_m_subgroupid>
wee1_decoys_glide_SP


$$$$
