ZINC09105146_3104
                    3D
 Schrodinger Suite 2024-2.
 56 58  0  0  1  0            999 V2000
    1.9669   52.3701   31.2876 C   0  0  0  0  0  0
    0.5716   52.9569   31.0232 C   0  0  0  0  0  0
    0.4959   54.4749   31.2808 C   0  0  0  0  0  0
    0.0638   52.5774   29.6367 C   0  0  0  0  0  0
   -0.9661   51.6471   29.4999 C   0  0  0  0  0  0
   -1.4529   51.3040   28.2405 C   0  0  0  0  0  0
   -0.9197   51.9133   27.1036 C   0  0  0  0  0  0
    0.1335   52.8162   27.2434 C   0  0  0  0  0  0
    0.6264   53.1502   28.4978 C   0  0  0  0  0  0
   -1.6339   51.5967   25.4787 S   0  0  0  0  0  0
   -1.8294   52.8964   24.8336 O   0  0  0  0  0  0
   -2.7906   50.7164   25.6817 O   0  0  0  0  0  0
   -0.3315   50.6457   24.4657 C   0  0  2  0  0  0
   -0.9565   50.1764   23.7083 H   0  0  0  0  0  0
    0.2874   49.4958   25.3060 C   0  0  0  0  0  0
   -0.7250   48.4967   25.6814 N   0  0  0  0  0  0
   -1.3229   47.6899   24.7686 C   0  0  0  0  0  0
   -0.8966   47.5850   23.6163 O   0  0  0  0  0  0
   -2.5894   46.9948   25.1634 C   0  0  0  0  0  0
   -3.2832   46.4250   24.3104 O   0  0  0  0  0  0
   -2.8956   47.0200   26.4817 N   0  0  0  0  0  0
   -4.1850   46.7158   26.9530 N   0  0  0  0  0  0
   -4.6703   45.4541   26.9683 C   0  0  0  0  0  0
   -4.0955   44.4816   26.4814 O   0  0  0  0  0  0
   -5.9635   45.3200   27.5941 C   0  0  0  0  0  0
   -6.6367   46.2166   28.4320 C   0  0  0  0  0  0
   -7.8534   45.7149   28.9071 C   0  0  0  0  0  0
   -8.1165   44.4307   28.4564 C   0  0  0  0  0  0
   -6.8523   43.8250   27.4367 S   0  0  0  0  0  0
    0.6345   51.4896   23.6312 C   0  0  0  0  0  0
    0.6494   51.6280   22.2381 C   0  0  0  0  0  0
    1.6231   52.4957   21.7366 C   0  0  0  0  0  0
    2.3871   53.0589   22.7379 C   0  0  0  0  0  0
    1.8988   52.4961   24.2978 S   0  0  0  0  0  0
    1.9684   51.2984   31.0912 H   0  0  0  0  0  0
    2.7307   52.8317   30.6628 H   0  0  0  0  0  0
    2.2529   52.4961   32.3306 H   0  0  0  0  0  0
   -0.0949   52.4954   31.7504 H   0  0  0  0  0  0
   -0.4900   54.8703   31.0382 H   0  0  0  0  0  0
    0.6790   54.6997   32.3318 H   0  0  0  0  0  0
    1.2255   55.0297   30.6895 H   0  0  0  0  0  0
   -1.3949   51.1709   30.3734 H   0  0  0  0  0  0
   -2.2555   50.5806   28.1603 H   0  0  0  0  0  0
    0.5490   53.2965   26.3780 H   0  0  0  0  0  0
    1.4285   53.8666   28.5814 H   0  0  0  0  0  0
    0.7424   49.8838   26.2164 H   0  0  0  0  0  0
    1.0953   49.0027   24.7549 H   0  0  0  0  0  0
   -1.0566   48.5144   26.6472 H   0  0  0  0  0  0
   -2.3155   47.4542   27.1981 H   0  0  0  0  0  0
   -4.6983   47.5305   27.2573 H   0  0  0  0  0  0
   -6.2669   47.1959   28.6966 H   0  0  0  0  0  0
   -8.5161   46.2673   29.5600 H   0  0  0  0  0  0
   -8.9791   43.8159   28.6749 H   0  0  0  0  0  0
   -0.0386   51.1021   21.5910 H   0  0  0  0  0  0
    1.7613   52.7099   20.6854 H   0  0  0  0  0  0
    3.1999   53.7626   22.6322 H   0  0  0  0  0  0
  1  2  1  0  0  0
  1 35  1  0  0  0
  1 36  1  0  0  0
  1 37  1  0  0  0
  2  3  1  0  0  0
  2  4  1  0  0  0
  2 38  1  0  0  0
  3 39  1  0  0  0
  3 40  1  0  0  0
  3 41  1  0  0  0
  4  9  2  0  0  0
  4  5  1  0  0  0
  5  6  2  0  0  0
  5 42  1  0  0  0
  6  7  1  0  0  0
  6 43  1  0  0  0
  7  8  2  0  0  0
  7 10  1  0  0  0
  8  9  1  0  0  0
  8 44  1  0  0  0
  9 45  1  0  0  0
 10 11  2  0  0  0
 10 12  2  0  0  0
 10 13  1  0  0  0
 13 14  1  0  0  0
 13 15  1  0  0  0
 13 30  1  0  0  0
 15 16  1  0  0  0
 15 46  1  0  0  0
 15 47  1  0  0  0
 16 17  1  0  0  0
 16 48  1  0  0  0
 17 18  2  0  0  0
 17 19  1  0  0  0
 19 20  2  0  0  0
 19 21  1  0  0  0
 21 22  1  0  0  0
 21 49  1  0  0  0
 22 23  1  0  0  0
 22 50  1  0  0  0
 23 24  2  0  0  0
 23 25  1  0  0  0
 25 29  1  0  0  0
 25 26  2  0  0  0
 26 27  1  0  0  0
 26 51  1  0  0  0
 27 28  2  0  0  0
 27 52  1  0  0  0
 28 29  1  0  0  0
 28 53  1  0  0  0
 30 34  1  0  0  0
 30 31  2  0  0  0
 31 32  1  0  0  0
 31 54  1  0  0  0
 32 33  2  0  0  0
 32 55  1  0  0  0
 33 34  1  0  0  0
 33 56  1  0  0  0
M  END
> <i_i_glide_confnum>
47

> <i_i_glide_lignum>
3105

> <i_i_glide_posenum>
375

> <i_i_glide_rotatable_bonds>
12

> <i_m_Source_File_Index>
898

> <b_m_subgroup_collapsed>
0

> <r_i_docking_score>
-4.99136

> <r_i_glide_ecoul>
-15.0976

> <r_i_glide_eff_state_penalty>
0

> <r_i_glide_einternal>
9.8264

> <r_i_glide_emodel>
-63.663

> <r_i_glide_energy>
-49.2974

> <r_i_glide_erotb>
0.800057

> <r_i_glide_esite>
-0.504127

> <r_i_glide_evdw>
-34.1999

> <r_i_glide_gscore>
-4.99136

> <r_i_glide_hbond>
-0.454648

> <r_i_glide_ligand_efficiency>
-0.151253

> <r_i_glide_ligand_efficiency_ln>
-1.11005

> <r_i_glide_ligand_efficiency_sa>
-0.48515

> <r_i_glide_lipo>
-0.869165

> <r_i_glide_metal>
0

> <r_i_glide_rewards>
0.0111525

> <s_i_glide_gridfile>
wee1_glide-grid

> <s_m_Source_File>
wee1_decoys_glide_SP.sdf

> <s_m_Source_Path>
/Users/zhangxujun/Desktop

> <s_m_entry_id>
1173

> <s_m_entry_name>
wee1_decoys_glide_SP.898

> <s_m_subgroup_title>
wee1_decoys_glide_SP

> <s_m_subgroupid>
wee1_decoys_glide_SP


$$$$
