ZINC09884220_3364
                    3D
 Schrodinger Suite 2024-2.
 55 58  0  0  1  0            999 V2000
    4.0061   54.0939   22.2795 C   0  0  0  0  0  0
    3.7167   53.7939   23.6888 N   0  0  0  0  0  0
    4.7071   54.1376   24.6576 C   0  0  0  0  0  0
    4.6225   53.7239   25.9992 C   0  0  0  0  0  0
    5.5899   54.0887   26.9345 C   0  0  0  0  0  0
    6.6697   54.8733   26.5463 C   0  0  0  0  0  0
    6.7856   55.2822   25.2227 C   0  0  0  0  0  0
    5.8337   54.8967   24.2918 C   0  0  0  0  0  0
    1.9638   53.5206   24.0590 S   0  0  0  0  0  0
    1.2039   54.4967   23.2817 O   0  0  0  0  0  0
    1.7648   53.4477   25.5101 O   0  0  0  0  0  0
    1.5128   51.9234   23.3738 C   0  0  0  0  0  0
    1.0208   50.9368   24.2320 C   0  0  0  0  0  0
    0.6408   49.6974   23.7314 C   0  0  0  0  0  0
    0.7662   49.4373   22.3705 C   0  0  0  0  0  0
    1.2780   50.3975   21.4920 C   0  0  0  0  0  0
    1.6060   51.6600   21.9976 C   0  0  0  0  0  0
    1.4205   50.0759   20.0251 C   0  0  0  0  0  0
    1.0167   50.8630   19.1668 O   0  0  0  0  0  0
    1.9938   48.8772   19.7771 N   0  0  0  0  0  0
    1.9944   48.3531   18.4805 N   0  0  0  0  0  0
    1.2540   47.2340   18.2886 C   0  0  0  0  0  0
    0.4432   46.8076   19.1168 O   0  0  0  0  0  0
    1.4372   46.5671   17.0074 C   0  0  0  0  0  0
    2.3040   46.8785   15.9531 C   0  0  0  0  0  0
    2.2058   46.0599   14.9275 N   0  0  0  0  0  0
    1.2761   45.2182   15.2862 C   0  0  0  0  0  0
    0.7617   45.4410   16.5434 N   0  0  0  0  0  0
   -0.2583   44.6603   17.1330 C   0  0  0  0  0  0
   -0.0602   44.0636   18.3820 C   0  0  0  0  0  0
   -1.0860   43.3250   18.9631 C   0  0  0  0  0  0
   -2.2905   43.1541   18.2839 C   0  0  0  0  0  0
   -2.4815   43.7229   17.0270 C   0  0  0  0  0  0
   -1.4651   44.4790   16.4479 C   0  0  0  0  0  0
   -3.2820   42.4289   18.8500 F   0  0  0  0  0  0
    4.2148   55.1513   22.1290 H   0  0  0  0  0  0
    4.8569   53.5117   21.9228 H   0  0  0  0  0  0
    3.1675   53.9029   21.6214 H   0  0  0  0  0  0
    3.8419   53.0707   26.3472 H   0  0  0  0  0  0
    5.5069   53.7521   27.9575 H   0  0  0  0  0  0
    7.4092   55.1558   27.2818 H   0  0  0  0  0  0
    7.6148   55.8881   24.8876 H   0  0  0  0  0  0
    5.9952   55.2333   23.2802 H   0  0  0  0  0  0
    0.9180   51.1243   25.2914 H   0  0  0  0  0  0
    0.2472   48.9423   24.3970 H   0  0  0  0  0  0
    0.4276   48.4957   21.9851 H   0  0  0  0  0  0
    1.9217   52.4188   21.3025 H   0  0  0  0  0  0
    2.7381   48.4999   20.3493 H   0  0  0  0  0  0
    2.8108   48.6063   17.9319 H   0  0  0  0  0  0
    3.0050   47.6955   15.9111 H   0  0  0  0  0  0
    0.9107   44.3915   14.6960 H   0  0  0  0  0  0
    0.8705   44.1989   18.9145 H   0  0  0  0  0  0
   -0.9518   42.9041   19.9447 H   0  0  0  0  0  0
   -3.4196   43.5884   16.5095 H   0  0  0  0  0  0
   -1.6251   44.9336   15.4800 H   0  0  0  0  0  0
  1  2  1  0  0  0
  1 36  1  0  0  0
  1 37  1  0  0  0
  1 38  1  0  0  0
  2  3  1  0  0  0
  2  9  1  0  0  0
  3  8  2  0  0  0
  3  4  1  0  0  0
  4  5  2  0  0  0
  4 39  1  0  0  0
  5  6  1  0  0  0
  5 40  1  0  0  0
  6  7  2  0  0  0
  6 41  1  0  0  0
  7  8  1  0  0  0
  7 42  1  0  0  0
  8 43  1  0  0  0
  9 10  2  0  0  0
  9 11  2  0  0  0
  9 12  1  0  0  0
 12 17  2  0  0  0
 12 13  1  0  0  0
 13 14  2  0  0  0
 13 44  1  0  0  0
 14 15  1  0  0  0
 14 45  1  0  0  0
 15 16  2  0  0  0
 15 46  1  0  0  0
 16 17  1  0  0  0
 16 18  1  0  0  0
 17 47  1  0  0  0
 18 19  2  0  0  0
 18 20  1  0  0  0
 20 21  1  0  0  0
 20 48  1  0  0  0
 21 22  1  0  0  0
 21 49  1  0  0  0
 22 23  2  0  0  0
 22 24  1  0  0  0
 24 28  1  0  0  0
 24 25  2  0  0  0
 25 26  1  0  0  0
 25 50  1  0  0  0
 26 27  2  0  0  0
 27 28  1  0  0  0
 27 51  1  0  0  0
 28 29  1  0  0  0
 29 34  2  0  0  0
 29 30  1  0  0  0
 30 31  2  0  0  0
 30 52  1  0  0  0
 31 32  1  0  0  0
 31 53  1  0  0  0
 32 33  2  0  0  0
 32 35  1  0  0  0
 33 34  1  0  0  0
 33 54  1  0  0  0
 34 55  1  0  0  0
M  END
> <i_i_glide_confnum>
168

> <i_i_glide_lignum>
3365

> <i_i_glide_posenum>
169

> <i_i_glide_rotatable_bonds>
9

> <i_m_Source_File_Index>
3898

> <b_m_subgroup_collapsed>
0

> <r_i_docking_score>
-4.22351

> <r_i_glide_ecoul>
-4.01891

> <r_i_glide_eff_state_penalty>
0

> <r_i_glide_einternal>
5.52702

> <r_i_glide_emodel>
-54.0541

> <r_i_glide_energy>
-44.7941

> <r_i_glide_erotb>
0.752806

> <r_i_glide_esite>
-0.232698

> <r_i_glide_evdw>
-40.7752

> <r_i_glide_gscore>
-4.22351

> <r_i_glide_hbond>
-0.207531

> <r_i_glide_ligand_efficiency>
-0.120672

> <r_i_glide_ligand_efficiency_ln>
-0.927155

> <r_i_glide_ligand_efficiency_sa>
-0.394726

> <r_i_glide_lipo>
-2.03755

> <r_i_glide_metal>
0

> <r_i_glide_rewards>
0.143052

> <s_i_glide_gridfile>
wee1_glide-grid

> <s_m_Source_File>
wee1_decoys_glide_SP.sdf

> <s_m_Source_Path>
/Users/zhangxujun/Desktop

> <s_m_entry_id>
4173

> <s_m_entry_name>
wee1_decoys_glide_SP.3898

> <s_m_subgroup_title>
wee1_decoys_glide_SP

> <s_m_subgroupid>
wee1_decoys_glide_SP


$$$$
