ZINC39577343_33
                    3D
 Schrodinger Suite 2024-2.
 53 56  0  0  1  0            999 V2000
    7.4692   54.1882   16.6858 C   0  0  0  0  0  0
    8.4440   55.3744   16.8982 C   0  0  2  0  0  0
    9.4515   54.9637   16.9800 H   0  0  0  0  0  0
    8.1635   56.2992   18.0979 C   0  0  1  0  0  0
    9.1238   56.7664   18.3313 H   0  0  0  0  0  0
    7.3033   57.4337   17.4672 C   0  0  1  0  0  0
    7.8603   58.3692   17.5504 H   0  0  0  0  0  0
    7.2174   57.1004   16.0433 N   0  0  0  0  0  0
    8.4235   56.3222   15.7981 N   0  0  0  0  0  0
    6.7904   57.8978   14.9652 C   0  0  0  0  0  0
    6.7212   57.3617   13.6702 C   0  0  0  0  0  0
    6.2802   58.1367   12.6004 C   0  0  0  0  0  0
    5.8987   59.4577   12.8176 C   0  0  0  0  0  0
    5.9589   60.0083   14.0940 C   0  0  0  0  0  0
    6.4075   59.2328   15.1589 C   0  0  0  0  0  0
    5.9044   57.6787   18.0822 C   0  0  0  0  0  0
    7.6480   55.6359   19.3769 C   0  0  0  0  0  0
    8.2887   55.7045   20.4789 N   0  0  0  0  0  0
    7.7551   55.2968   21.6816 N   0  0  0  0  0  0
    6.5016   54.9139   22.0472 C   0  0  0  0  0  0
    5.5045   54.9697   21.3234 O   0  0  0  0  0  0
    6.4040   54.3123   23.4636 C   0  0  2  0  0  0
    7.1380   53.5051   23.5030 H   0  0  0  0  0  0
    5.0432   53.8390   23.8663 C   0  0  0  0  0  0
    4.8537   54.4088   25.0614 C   0  0  0  0  0  0
    5.8271   55.2965   25.3705 N   0  0  0  0  0  0
    6.7260   55.2824   24.4760 N   0  0  0  0  0  0
    3.7235   54.1754   25.9964 C   0  0  0  0  0  0
    3.8390   54.4967   27.3568 C   0  0  0  0  0  0
    2.7910   54.2527   28.2395 C   0  0  0  0  0  0
    1.6236   53.6560   27.7737 C   0  0  0  0  0  0
    1.5043   53.2967   26.4340 C   0  0  0  0  0  0
    2.5451   53.5634   25.5488 C   0  0  0  0  0  0
    0.3146   53.3685   28.8610 Cl  0  0  0  0  0  0
    7.5286   53.4718   17.5056 H   0  0  0  0  0  0
    6.4322   54.5189   16.6125 H   0  0  0  0  0  0
    7.7066   53.6453   15.7708 H   0  0  0  0  0  0
    8.2345   55.7991   14.9550 H   0  0  0  0  0  0
    6.9936   56.3331   13.4890 H   0  0  0  0  0  0
    6.2268   57.7123   11.6090 H   0  0  0  0  0  0
    5.5495   60.0592   11.9914 H   0  0  0  0  0  0
    5.6555   61.0314   14.2691 H   0  0  0  0  0  0
    6.4550   59.6955   16.1329 H   0  0  0  0  0  0
    5.9786   57.9297   19.1402 H   0  0  0  0  0  0
    5.3722   58.4981   17.6023 H   0  0  0  0  0  0
    5.2729   56.7932   17.9940 H   0  0  0  0  0  0
    6.6932   55.1367   19.2408 H   0  0  0  0  0  0
    8.4451   55.3142   22.4247 H   0  0  0  0  0  0
    4.4469   53.1199   23.3256 H   0  0  0  0  0  0
    4.7453   54.9443   27.7388 H   0  0  0  0  0  0
    2.8867   54.5237   29.2800 H   0  0  0  0  0  0
    0.6003   52.8248   26.0774 H   0  0  0  0  0  0
    2.4278   53.2857   24.5117 H   0  0  0  0  0  0
  1  2  1  0  0  0
  1 35  1  0  0  0
  1 36  1  0  0  0
  1 37  1  0  0  0
  2  3  1  0  0  0
  2  9  1  0  0  0
  2  4  1  0  0  0
  4  5  1  0  0  0
  4  6  1  0  0  0
  4 17  1  0  0  0
  6  7  1  0  0  0
  6  8  1  0  0  0
  6 16  1  0  0  0
  8  9  1  0  0  0
  8 10  1  0  0  0
  9 38  1  0  0  0
 10 15  2  0  0  0
 10 11  1  0  0  0
 11 12  2  0  0  0
 11 39  1  0  0  0
 12 13  1  0  0  0
 12 40  1  0  0  0
 13 14  2  0  0  0
 13 41  1  0  0  0
 14 15  1  0  0  0
 14 42  1  0  0  0
 15 43  1  0  0  0
 16 44  1  0  0  0
 16 45  1  0  0  0
 16 46  1  0  0  0
 17 18  2  0  0  0
 17 47  1  0  0  0
 18 19  1  0  0  0
 19 20  1  0  0  0
 19 48  1  0  0  0
 20 21  2  0  0  0
 20 22  1  0  0  0
 22 23  1  0  0  0
 22 27  1  0  0  0
 22 24  1  0  0  0
 24 25  2  0  0  0
 24 49  1  0  0  0
 25 26  1  0  0  0
 25 28  1  0  0  0
 26 27  2  0  0  0
 28 33  2  0  0  0
 28 29  1  0  0  0
 29 30  2  0  0  0
 29 50  1  0  0  0
 30 31  1  0  0  0
 30 51  1  0  0  0
 31 32  2  0  0  0
 31 34  1  0  0  0
 32 33  1  0  0  0
 32 52  1  0  0  0
 33 53  1  0  0  0
M  END
> <i_i_glide_confnum>
158

> <i_i_glide_lignum>
34

> <i_i_glide_posenum>
50

> <i_i_glide_rotatable_bonds>
6

> <i_m_Source_File_Index>
3413

> <b_m_subgroup_collapsed>
0

> <r_i_docking_score>
-5.32869

> <r_i_glide_ecoul>
-3.05993

> <r_i_glide_eff_state_penalty>
0

> <r_i_glide_einternal>
5.61646

> <r_i_glide_emodel>
-51.1921

> <r_i_glide_energy>
-38.294

> <r_i_glide_erotb>
0.664725

> <r_i_glide_esite>
-0.000985076

> <r_i_glide_evdw>
-35.2341

> <r_i_glide_gscore>
-5.32869

> <r_i_glide_hbond>
-0.32

> <r_i_glide_ligand_efficiency>
-0.177623

> <r_i_glide_ligand_efficiency_ln>
-1.21074

> <r_i_glide_ligand_efficiency_sa>
-0.551916

> <r_i_glide_lipo>
-2.26339

> <r_i_glide_metal>
0

> <r_i_glide_rewards>
-1.18835

> <s_i_glide_gridfile>
wee1_glide-grid

> <s_m_Source_File>
wee1_decoys_glide_SP.sdf

> <s_m_Source_Path>
/Users/zhangxujun/Desktop

> <s_m_entry_id>
3688

> <s_m_entry_name>
wee1_decoys_glide_SP.3413

> <s_m_subgroup_title>
wee1_decoys_glide_SP

> <s_m_subgroupid>
wee1_decoys_glide_SP


$$$$
