ZINC50654124_1652
                    3D
 Schrodinger Suite 2024-2.
 26 27  0  0  1  0            999 V2000
   -0.9513   51.6832   28.7635 C   0  0  0  0  0  0
   -0.2545   52.0971   29.8946 C   0  0  0  0  0  0
    0.8648   52.9152   29.7616 C   0  0  0  0  0  0
    1.3058   53.3410   28.4950 C   0  0  0  0  0  0
    0.5952   52.8971   27.3747 C   0  0  0  0  0  0
   -0.5232   52.0780   27.5001 C   0  0  0  0  0  0
   -1.3932   51.5851   26.0939 Cl  0  0  0  0  0  0
    2.3213   54.2451   28.3256 N   0  5  0  0  0  0
    3.7768   53.8893   28.7840 S   0  0  0  0  0  0
    4.3575   54.8926   29.6799 O   0  0  0  0  0  0
    3.9855   52.4787   29.1272 O   0  0  0  0  0  0
    4.6648   54.1036   27.2396 C   0  0  0  0  0  0
    6.0069   54.4969   27.2369 C   0  0  0  0  0  0
    6.7039   54.7074   26.0865 N   0  0  0  0  0  0
    6.0256   54.4983   24.9299 C   0  0  0  0  0  0
    4.7351   54.1067   24.8210 N   0  0  0  0  0  0
    4.0704   53.9091   25.9867 C   0  0  0  0  0  0
    6.7045   54.6977   23.7393 N   0  0  0  0  0  0
    1.5056   53.3099   30.8829 F   0  0  0  0  0  0
   -1.8120   51.0380   28.8685 H   0  0  0  0  0  0
   -0.5839   51.7814   30.8755 H   0  0  0  0  0  0
    0.8901   53.2211   26.3892 H   0  0  0  0  0  0
    6.5343   54.6739   28.1652 H   0  0  0  0  0  0
    3.0448   53.5894   25.8904 H   0  0  0  0  0  0
    6.2128   54.5180   22.8779 H   0  0  0  0  0  0
    7.6919   54.9247   23.7541 H   0  0  0  0  0  0
  1  6  2  0  0  0
  1  2  1  0  0  0
  1 20  1  0  0  0
  2  3  2  0  0  0
  2 21  1  0  0  0
  3  4  1  0  0  0
  3 19  1  0  0  0
  4  5  2  0  0  0
  4  8  1  0  0  0
  5  6  1  0  0  0
  5 22  1  0  0  0
  6  7  1  0  0  0
  8  9  1  0  0  0
  9 10  2  0  0  0
  9 11  2  0  0  0
  9 12  1  0  0  0
 12 17  2  0  0  0
 12 13  1  0  0  0
 13 14  2  0  0  0
 13 23  1  0  0  0
 14 15  1  0  0  0
 15 16  2  0  0  0
 15 18  1  0  0  0
 16 17  1  0  0  0
 17 24  1  0  0  0
 18 25  1  0  0  0
 18 26  1  0  0  0
M  CHG  1   8  -1
M  END
> <i_i_glide_confnum>
12

> <i_i_glide_lignum>
1653

> <i_i_glide_posenum>
247

> <i_i_glide_rotatable_bonds>
3

> <i_m_Source_File_Index>
3795

> <b_m_subgroup_collapsed>
0

> <r_i_docking_score>
-6.33039

> <r_i_glide_ecoul>
-7.43128

> <r_i_glide_eff_state_penalty>
0

> <r_i_glide_einternal>
11.4757

> <r_i_glide_emodel>
-50.6409

> <r_i_glide_energy>
-41.1126

> <r_i_glide_erotb>
0.424517

> <r_i_glide_esite>
-0.0351836

> <r_i_glide_evdw>
-33.6813

> <r_i_glide_gscore>
-6.33039

> <r_i_glide_hbond>
-0.491311

> <r_i_glide_ligand_efficiency>
-0.333179

> <r_i_glide_ligand_efficiency_ln>
-1.60489

> <r_i_glide_ligand_efficiency_sa>
-0.889054

> <r_i_glide_lipo>
-1.22717

> <r_i_glide_metal>
0

> <r_i_glide_rewards>
-2.20249

> <s_i_glide_gridfile>
wee1_glide-grid

> <s_m_Source_File>
wee1_decoys_glide_SP.sdf

> <s_m_Source_Path>
/Users/zhangxujun/Desktop

> <s_m_entry_id>
4070

> <s_m_entry_name>
wee1_decoys_glide_SP.3795

> <s_m_subgroup_title>
wee1_decoys_glide_SP

> <s_m_subgroupid>
wee1_decoys_glide_SP


$$$$
