ZINC39686754_1297
                    3D
 Schrodinger Suite 2024-2.
 72 75  0  0  1  0            999 V2000
    2.2149   53.6032   26.4960 C   0  0  0  0  0  0
    3.6276   53.6263   27.0698 C   0  0  0  0  0  0
    3.8178   52.9518   28.2763 C   0  0  0  0  0  0
    5.0727   52.8967   28.8689 C   0  0  0  0  0  0
    6.1540   53.5529   28.2872 C   0  0  0  0  0  0
    5.9802   54.2344   27.0888 C   0  0  0  0  0  0
    4.7279   54.2738   26.4604 C   0  0  0  0  0  0
    4.6249   55.0424   25.1478 C   0  0  0  0  0  0
    5.2699   54.3300   23.9393 C   0  0  0  0  0  0
    6.4900   54.4094   23.7955 O   0  0  0  0  0  0
    4.4766   53.6966   23.0401 N   0  0  0  0  0  0
    3.0841   53.3566   23.2822 C   0  0  0  0  0  0
    2.5619   53.0330   21.8923 C   0  0  1  0  0  0
    2.2731   54.0012   21.5043 H   0  0  0  0  0  0
    3.7569   52.4936   21.0477 C   0  0  0  0  0  0
    4.9943   53.0312   21.8328 C   0  0  0  0  0  0
    3.9003   50.9471   20.8895 C   0  0  0  0  0  0
    2.8350   50.2510   19.9830 C   0  0  0  0  0  0
    2.7046   50.9905   18.6337 N   0  3  0  0  0  0
    2.5975   52.5289   18.7455 C   0  0  0  0  0  0
    3.7792   53.0411   19.5951 C   0  0  0  0  0  0
    1.3423   52.1067   22.0737 C   0  0  0  0  0  0
    1.4289   51.0929   22.7646 O   0  0  0  0  0  0
    0.2225   52.4937   21.4495 N   0  0  0  0  0  0
   -1.0439   51.7672   21.2480 C   0  0  1  0  0  0
   -1.8084   52.5413   21.2787 H   0  0  0  0  0  0
   -1.0922   51.1872   19.8239 C   0  0  0  0  0  0
   -1.4598   50.6976   22.3014 C   0  0  0  0  0  0
   -1.7313   51.2079   23.7209 C   0  0  0  0  0  0
   -2.6393   52.2603   23.9032 C   0  0  0  0  0  0
   -2.9683   52.7015   25.1814 C   0  0  0  0  0  0
   -2.3965   52.0897   26.2914 C   0  0  0  0  0  0
   -1.4959   51.0415   26.1276 C   0  0  0  0  0  0
   -1.1493   50.5833   24.8435 C   0  0  0  0  0  0
   -0.2747   49.5312   24.6316 O   0  0  0  0  0  0
    0.3676   48.9116   25.7415 C   0  0  0  0  0  0
    2.0636   52.7254   25.8663 H   0  0  0  0  0  0
    1.4755   53.5607   27.3000 H   0  0  0  0  0  0
    1.9663   54.4942   25.9318 H   0  0  0  0  0  0
    2.9923   52.4386   28.7495 H   0  0  0  0  0  0
    5.1613   52.3272   29.7763 H   0  0  0  0  0  0
    7.1253   53.5266   28.7589 H   0  0  0  0  0  0
    6.8293   54.7291   26.6374 H   0  0  0  0  0  0
    3.6014   55.3152   24.9394 H   0  0  0  0  0  0
    5.1245   56.0018   25.2810 H   0  0  0  0  0  0
    3.1038   52.4971   23.9501 H   0  0  0  0  0  0
    2.4801   54.1371   23.7411 H   0  0  0  0  0  0
    5.5676   53.7585   21.2543 H   0  0  0  0  0  0
    5.6483   52.2172   22.1519 H   0  0  0  0  0  0
    4.8860   50.7259   20.4810 H   0  0  0  0  0  0
    3.8857   50.4971   21.8802 H   0  0  0  0  0  0
    3.1044   49.2237   19.7323 H   0  0  0  0  0  0
    1.8349   50.2083   20.3981 H   0  0  0  0  0  0
    3.5666   50.7751   18.1262 H   0  0  0  0  0  0
    2.6467   52.9012   17.7214 H   0  0  0  0  0  0
    1.6210   52.7648   19.1630 H   0  0  0  0  0  0
    3.7558   54.1325   19.6145 H   0  0  0  0  0  0
    4.7226   52.7929   19.1011 H   0  0  0  0  0  0
    0.2986   53.3673   20.9490 H   0  0  0  0  0  0
   -2.0277   50.6536   19.6514 H   0  0  0  0  0  0
   -1.0379   51.9698   19.0676 H   0  0  0  0  0  0
   -0.2967   50.4635   19.6480 H   0  0  0  0  0  0
   -2.3833   50.2171   21.9795 H   0  0  0  0  0  0
   -0.7260   49.8917   22.3054 H   0  0  0  0  0  0
   -3.1164   52.7315   23.0585 H   0  0  0  0  0  0
   -3.6760   53.5056   25.3169 H   0  0  0  0  0  0
   -2.6648   52.4164   27.2821 H   0  0  0  0  0  0
   -1.0960   50.5753   27.0163 H   0  0  0  0  0  0
    1.0793   48.1680   25.3831 H   0  0  0  0  0  0
    0.9292   49.6315   26.3374 H   0  0  0  0  0  0
   -0.3526   48.4055   26.3826 H   0  0  0  0  0  0
    1.9579   50.6015   18.0753 H   0  0  0  0  0  0
  1  2  1  0  0  0
  1 37  1  0  0  0
  1 38  1  0  0  0
  1 39  1  0  0  0
  2  7  2  0  0  0
  2  3  1  0  0  0
  3  4  2  0  0  0
  3 40  1  0  0  0
  4  5  1  0  0  0
  4 41  1  0  0  0
  5  6  2  0  0  0
  5 42  1  0  0  0
  6  7  1  0  0  0
  6 43  1  0  0  0
  7  8  1  0  0  0
  8  9  1  0  0  0
  8 44  1  0  0  0
  8 45  1  0  0  0
  9 10  2  0  0  0
  9 11  1  0  0  0
 11 16  1  0  0  0
 11 12  1  0  0  0
 12 13  1  0  0  0
 12 46  1  0  0  0
 12 47  1  0  0  0
 13 14  1  0  0  0
 13 15  1  0  0  0
 13 22  1  0  0  0
 15 21  1  0  0  0
 15 16  1  0  0  0
 15 17  1  0  0  0
 16 48  1  0  0  0
 16 49  1  0  0  0
 17 18  1  0  0  0
 17 50  1  0  0  0
 17 51  1  0  0  0
 18 19  1  0  0  0
 18 52  1  0  0  0
 18 53  1  0  0  0
 19 20  1  0  0  0
 19 54  1  0  0  0
 19 72  1  0  0  0
 20 21  1  0  0  0
 20 55  1  0  0  0
 20 56  1  0  0  0
 21 57  1  0  0  0
 21 58  1  0  0  0
 22 23  2  0  0  0
 22 24  1  0  0  0
 24 25  1  0  0  0
 24 59  1  0  0  0
 25 26  1  0  0  0
 25 27  1  0  0  0
 25 28  1  0  0  0
 27 60  1  0  0  0
 27 61  1  0  0  0
 27 62  1  0  0  0
 28 29  1  0  0  0
 28 63  1  0  0  0
 28 64  1  0  0  0
 29 34  2  0  0  0
 29 30  1  0  0  0
 30 31  2  0  0  0
 30 65  1  0  0  0
 31 32  1  0  0  0
 31 66  1  0  0  0
 32 33  2  0  0  0
 32 67  1  0  0  0
 33 34  1  0  0  0
 33 68  1  0  0  0
 34 35  1  0  0  0
 35 36  1  0  0  0
 36 69  1  0  0  0
 36 70  1  0  0  0
 36 71  1  0  0  0
M  CHG  1  19   1
M  END
> <i_i_glide_confnum>
382

> <i_i_glide_lignum>
1298

> <i_i_glide_posenum>
201

> <i_i_glide_rotatable_bonds>
9

> <i_m_Source_File_Index>
4222

> <b_m_subgroup_collapsed>
0

> <r_i_docking_score>
-5.15631

> <r_i_glide_ecoul>
-1.59335

> <r_i_glide_eff_state_penalty>
0

> <r_i_glide_einternal>
8.41127

> <r_i_glide_emodel>
-47.7699

> <r_i_glide_energy>
-38.4893

> <r_i_glide_erotb>
0.747141

> <r_i_glide_esite>
-0.112844

> <r_i_glide_evdw>
-36.896

> <r_i_glide_gscore>
-5.15631

> <r_i_glide_hbond>
-0.386518

> <r_i_glide_ligand_efficiency>
-0.151656

> <r_i_glide_ligand_efficiency_ln>
-1.13917

> <r_i_glide_ligand_efficiency_sa>
-0.491307

> <r_i_glide_lipo>
-2.35206

> <r_i_glide_metal>
0

> <r_i_glide_rewards>
-0.968222

> <s_i_glide_gridfile>
wee1_glide-grid

> <s_m_Source_File>
wee1_decoys_glide_SP.sdf

> <s_m_Source_Path>
/Users/zhangxujun/Desktop

> <s_m_entry_id>
4497

> <s_m_entry_name>
wee1_decoys_glide_SP.4222

> <s_m_subgroup_title>
wee1_decoys_glide_SP

> <s_m_subgroupid>
wee1_decoys_glide_SP


$$$$
