ZINC36218090_3986
                    3D
 Schrodinger Suite 2024-2.
 62 66  0  0  1  0            999 V2000
    5.9115   56.4149   18.6441 C   0  0  0  0  0  0
    6.4900   56.0765   19.8643 C   0  0  0  0  0  0
    5.9689   55.0208   20.6072 C   0  0  0  0  0  0
    4.8693   54.2931   20.1306 C   0  0  0  0  0  0
    4.3045   54.6355   18.8925 C   0  0  0  0  0  0
    4.8216   55.6981   18.1549 C   0  0  0  0  0  0
    4.3415   53.1312   20.9361 C   0  0  0  0  0  0
    5.1041   52.4773   21.6511 O   0  0  0  0  0  0
    3.0138   52.8967   20.8513 N   0  0  0  0  0  0
    2.3450   51.8240   21.4583 C   0  0  0  0  0  0
    2.8514   50.5189   21.4064 C   0  0  0  0  0  0
    2.1987   49.4868   22.0739 C   0  0  0  0  0  0
    1.0247   49.7436   22.7795 C   0  0  0  0  0  0
    0.4850   51.0333   22.8043 C   0  0  0  0  0  0
    1.1445   52.0705   22.1281 C   0  0  0  0  0  0
   -0.8115   51.2849   23.5736 C   0  0  1  0  0  0
   -1.4048   50.3780   23.4474 H   0  0  0  0  0  0
   -0.7696   51.6099   25.0702 C   0  0  2  0  0  0
   -0.8626   50.6981   25.6633 H   0  0  0  0  0  0
   -1.9582   52.4307   25.2160 N   0  0  0  0  0  0
   -2.4044   52.8966   23.9800 C   0  0  0  0  0  0
   -3.2961   53.6952   23.7034 O   0  0  0  0  0  0
   -1.6110   52.3294   23.0482 O   0  0  0  0  0  0
   -2.6475   52.6986   26.4800 C   0  0  0  0  0  0
   -3.7406   51.6942   26.8066 C   0  0  0  0  0  0
   -3.4802   50.6473   27.6913 C   0  0  0  0  0  0
   -4.4947   49.7575   28.0333 C   0  0  0  0  0  0
   -5.7694   49.9219   27.4967 C   0  0  0  0  0  0
   -6.0400   50.9766   26.6286 C   0  0  0  0  0  0
   -5.0258   51.8688   26.2855 C   0  0  0  0  0  0
   -6.7519   49.0529   27.8232 F   0  0  0  0  0  0
    0.4744   52.3788   25.5827 C   0  0  0  0  0  0
    0.9564   53.2856   24.9030 O   0  0  0  0  0  0
    0.8985   52.0237   26.8145 N   0  0  0  0  0  0
    1.9040   52.5907   27.6215 C   0  0  0  0  0  0
    1.9988   52.0824   28.9216 C   0  0  0  0  0  0
    2.9577   52.5773   29.8029 C   0  0  0  0  0  0
    3.8263   53.5813   29.3833 C   0  0  0  0  0  0
    3.7471   54.0944   28.0911 C   0  0  0  0  0  0
    2.7882   53.6025   27.2084 C   0  0  0  0  0  0
    6.3150   57.2354   18.0671 H   0  0  0  0  0  0
    7.3476   56.6202   20.2287 H   0  0  0  0  0  0
    6.4316   54.7669   21.5515 H   0  0  0  0  0  0
    3.4689   54.0793   18.4856 H   0  0  0  0  0  0
    4.3852   55.9584   17.2016 H   0  0  0  0  0  0
    2.4402   53.6001   20.4037 H   0  0  0  0  0  0
    3.7654   50.3101   20.8686 H   0  0  0  0  0  0
    2.6162   48.4926   22.0556 H   0  0  0  0  0  0
    0.5373   48.9361   23.3065 H   0  0  0  0  0  0
    0.7472   53.0759   22.1629 H   0  0  0  0  0  0
   -3.0856   53.6973   26.4628 H   0  0  0  0  0  0
   -1.9104   52.6989   27.2817 H   0  0  0  0  0  0
   -2.4952   50.5037   28.1121 H   0  0  0  0  0  0
   -4.2831   48.9397   28.7077 H   0  0  0  0  0  0
   -7.0326   51.0998   26.2218 H   0  0  0  0  0  0
   -5.2380   52.6887   25.6130 H   0  0  0  0  0  0
    0.4014   51.2598   27.2508 H   0  0  0  0  0  0
    1.3294   51.3014   29.2582 H   0  0  0  0  0  0
    3.0226   52.1851   30.8065 H   0  0  0  0  0  0
    4.5731   53.9688   30.0585 H   0  0  0  0  0  0
    4.4291   54.8710   27.7726 H   0  0  0  0  0  0
    2.7634   54.0205   26.2140 H   0  0  0  0  0  0
  1  6  2  0  0  0
  1  2  1  0  0  0
  1 41  1  0  0  0
  2  3  2  0  0  0
  2 42  1  0  0  0
  3  4  1  0  0  0
  3 43  1  0  0  0
  4  5  2  0  0  0
  4  7  1  0  0  0
  5  6  1  0  0  0
  5 44  1  0  0  0
  6 45  1  0  0  0
  7  8  2  0  0  0
  7  9  1  0  0  0
  9 10  1  0  0  0
  9 46  1  0  0  0
 10 15  2  0  0  0
 10 11  1  0  0  0
 11 12  2  0  0  0
 11 47  1  0  0  0
 12 13  1  0  0  0
 12 48  1  0  0  0
 13 14  2  0  0  0
 13 49  1  0  0  0
 14 15  1  0  0  0
 14 16  1  0  0  0
 15 50  1  0  0  0
 16 17  1  0  0  0
 16 23  1  0  0  0
 16 18  1  0  0  0
 18 19  1  0  0  0
 18 20  1  0  0  0
 18 32  1  0  0  0
 20 21  1  0  0  0
 20 24  1  0  0  0
 21 22  2  0  0  0
 21 23  1  0  0  0
 24 25  1  0  0  0
 24 51  1  0  0  0
 24 52  1  0  0  0
 25 30  2  0  0  0
 25 26  1  0  0  0
 26 27  2  0  0  0
 26 53  1  0  0  0
 27 28  1  0  0  0
 27 54  1  0  0  0
 28 29  2  0  0  0
 28 31  1  0  0  0
 29 30  1  0  0  0
 29 55  1  0  0  0
 30 56  1  0  0  0
 32 33  2  0  0  0
 32 34  1  0  0  0
 34 35  1  0  0  0
 34 57  1  0  0  0
 35 40  2  0  0  0
 35 36  1  0  0  0
 36 37  2  0  0  0
 36 58  1  0  0  0
 37 38  1  0  0  0
 37 59  1  0  0  0
 38 39  2  0  0  0
 38 60  1  0  0  0
 39 40  1  0  0  0
 39 61  1  0  0  0
 40 62  1  0  0  0
M  END
> <i_i_glide_confnum>
140

> <i_i_glide_lignum>
3987

> <i_i_glide_posenum>
88

> <i_i_glide_rotatable_bonds>
9

> <i_m_Source_File_Index>
3807

> <b_m_subgroup_collapsed>
0

> <r_i_docking_score>
-4.90752

> <r_i_glide_ecoul>
-5.26238

> <r_i_glide_eff_state_penalty>
0

> <r_i_glide_einternal>
10.4787

> <r_i_glide_emodel>
-60.8714

> <r_i_glide_energy>
-51.2426

> <r_i_glide_erotb>
0.709982

> <r_i_glide_esite>
-0.00611482

> <r_i_glide_evdw>
-45.9802

> <r_i_glide_gscore>
-4.90752

> <r_i_glide_hbond>
-0.32

> <r_i_glide_ligand_efficiency>
-0.129145

> <r_i_glide_ligand_efficiency_ln>
-1.05821

> <r_i_glide_ligand_efficiency_sa>
-0.434183

> <r_i_glide_lipo>
-2.06002

> <r_i_glide_metal>
0

> <r_i_glide_rewards>
-0.143

> <s_i_glide_gridfile>
wee1_glide-grid

> <s_m_Source_File>
wee1_decoys_glide_SP.sdf

> <s_m_Source_Path>
/Users/zhangxujun/Desktop

> <s_m_entry_id>
4082

> <s_m_entry_name>
wee1_decoys_glide_SP.3807

> <s_m_subgroup_title>
wee1_decoys_glide_SP

> <s_m_subgroupid>
wee1_decoys_glide_SP


$$$$
