ZINC04305439_1483
                    3D
 Schrodinger Suite 2024-2.
 49 52  0  0  1  0            999 V2000
   -0.4776   49.9181   18.8616 C   0  0  0  0  0  0
    1.0388   49.9583   19.1406 C   0  0  0  0  0  0
    1.7095   51.3418   19.4245 C   0  0  1  0  0  0
    1.3301   51.9041   20.8002 C   0  0  0  0  0  0
    0.1800   52.0959   21.2066 O   0  0  0  0  0  0
    2.4886   52.1389   21.4640 N   0  0  0  0  0  0
    3.5659   51.5912   20.8381 C   0  0  0  0  0  0
    4.6930   51.4053   21.2945 O   0  0  0  0  0  0
    3.1053   51.0996   19.6833 N   0  0  0  0  0  0
    2.4711   52.6080   22.8828 C   0  0  0  0  0  0
    3.5037   53.7297   23.2105 C   0  0  0  0  0  0
    4.0054   54.3342   22.2574 O   0  0  0  0  0  0
    3.8048   54.0817   24.5089 N   0  0  0  0  0  0
    5.0498   54.8928   24.7051 C   0  0  0  0  0  0
    5.9355   54.4979   25.9116 C   0  0  0  0  0  0
    7.1040   54.8490   26.0573 O   0  0  0  0  0  0
    5.2622   53.8291   26.8612 N   0  0  0  0  0  0
    3.9004   53.5246   26.8703 C   0  0  0  0  0  0
    3.1410   53.6047   25.6826 C   0  0  0  0  0  0
    1.7648   53.3362   25.7724 C   0  0  0  0  0  0
    1.1909   52.8984   26.9685 C   0  0  0  0  0  0
    1.9672   52.7807   28.1174 C   0  0  0  0  0  0
    3.3191   53.1096   28.0716 C   0  0  0  0  0  0
    1.4950   52.3910   18.2971 C   0  0  0  0  0  0
    2.5579   52.8313   17.4843 C   0  0  0  0  0  0
    2.3524   53.7982   16.5052 C   0  0  0  0  0  0
    1.0792   54.3349   16.3186 C   0  0  0  0  0  0
    0.0126   53.9075   17.1013 C   0  0  0  0  0  0
    0.2216   52.9432   18.0839 C   0  0  0  0  0  0
   -0.8259   48.8863   18.7854 H   0  0  0  0  0  0
   -1.0575   50.3960   19.6521 H   0  0  0  0  0  0
   -0.7240   50.4046   17.9169 H   0  0  0  0  0  0
    1.5480   49.4998   18.2890 H   0  0  0  0  0  0
    1.2408   49.2761   19.9703 H   0  0  0  0  0  0
    3.7348   50.8506   18.9235 H   0  0  0  0  0  0
    2.6275   51.7559   23.5446 H   0  0  0  0  0  0
    1.4817   53.0176   23.0736 H   0  0  0  0  0  0
    4.7654   55.9122   24.9178 H   0  0  0  0  0  0
    5.6826   54.9379   23.8191 H   0  0  0  0  0  0
    5.8137   53.6516   27.6837 H   0  0  0  0  0  0
    1.0980   53.4871   24.9415 H   0  0  0  0  0  0
    0.1338   52.6808   27.0111 H   0  0  0  0  0  0
    1.5170   52.4506   29.0445 H   0  0  0  0  0  0
    3.9132   53.0298   28.9689 H   0  0  0  0  0  0
    3.5576   52.4291   17.5971 H   0  0  0  0  0  0
    3.1769   54.1375   15.8946 H   0  0  0  0  0  0
    0.9229   55.0883   15.5602 H   0  0  0  0  0  0
   -0.9707   54.3297   16.9563 H   0  0  0  0  0  0
   -0.6142   52.6438   18.7012 H   0  0  0  0  0  0
  1  2  1  0  0  0
  1 30  1  0  0  0
  1 31  1  0  0  0
  1 32  1  0  0  0
  2  3  1  0  0  0
  2 33  1  0  0  0
  2 34  1  0  0  0
  3  9  1  0  0  0
  3  4  1  0  0  0
  3 24  1  0  0  0
  4  5  2  0  0  0
  4  6  1  0  0  0
  6  7  1  0  0  0
  6 10  1  0  0  0
  7  8  2  0  0  0
  7  9  1  0  0  0
  9 35  1  0  0  0
 10 11  1  0  0  0
 10 36  1  0  0  0
 10 37  1  0  0  0
 11 12  2  0  0  0
 11 13  1  0  0  0
 13 19  1  0  0  0
 13 14  1  0  0  0
 14 15  1  0  0  0
 14 38  1  0  0  0
 14 39  1  0  0  0
 15 16  2  0  0  0
 15 17  1  0  0  0
 17 18  1  0  0  0
 17 40  1  0  0  0
 18 23  2  0  0  0
 18 19  1  0  0  0
 19 20  2  0  0  0
 20 21  1  0  0  0
 20 41  1  0  0  0
 21 22  2  0  0  0
 21 42  1  0  0  0
 22 23  1  0  0  0
 22 43  1  0  0  0
 23 44  1  0  0  0
 24 29  2  0  0  0
 24 25  1  0  0  0
 25 26  2  0  0  0
 25 45  1  0  0  0
 26 27  1  0  0  0
 26 46  1  0  0  0
 27 28  2  0  0  0
 27 47  1  0  0  0
 28 29  1  0  0  0
 28 48  1  0  0  0
 29 49  1  0  0  0
M  END
> <i_i_glide_confnum>
13

> <i_i_glide_lignum>
1484

> <i_i_glide_posenum>
160

> <i_i_glide_rotatable_bonds>
5

> <i_m_Source_File_Index>
4632

> <b_m_subgroup_collapsed>
0

> <r_i_docking_score>
-6.39941

> <r_i_glide_ecoul>
-6.9046

> <r_i_glide_eff_state_penalty>
0

> <r_i_glide_einternal>
9.02625

> <r_i_glide_emodel>
-54.4236

> <r_i_glide_energy>
-41.0234

> <r_i_glide_erotb>
0.507181

> <r_i_glide_esite>
-0.111336

> <r_i_glide_evdw>
-34.1187

> <r_i_glide_gscore>
-6.39941

> <r_i_glide_hbond>
-0.456

> <r_i_glide_ligand_efficiency>
-0.220669

> <r_i_glide_ligand_efficiency_ln>
-1.4653

> <r_i_glide_ligand_efficiency_sa>
-0.677966

> <r_i_glide_lipo>
-1.32087

> <r_i_glide_metal>
0

> <r_i_glide_rewards>
-2.27676

> <s_i_glide_gridfile>
wee1_glide-grid

> <s_m_Source_File>
wee1_decoys_glide_SP.sdf

> <s_m_Source_Path>
/Users/zhangxujun/Desktop

> <s_m_entry_id>
4907

> <s_m_entry_name>
wee1_decoys_glide_SP.4632

> <s_m_subgroup_title>
wee1_decoys_glide_SP

> <s_m_subgroupid>
wee1_decoys_glide_SP


$$$$
