ZINC58323585_451
                    3D
 Schrodinger Suite 2024-2.
 68 71  0  0  1  0            999 V2000
    6.2523   54.3762   23.0059 C   0  0  0  0  0  0
    5.5927   54.4017   24.3808 C   0  0  0  0  0  0
    6.4063   54.4038   25.5149 C   0  0  0  0  0  0
    5.8448   54.3634   26.7903 C   0  0  0  0  0  0
    4.4534   54.3403   26.9692 C   0  0  0  0  0  0
    3.6491   54.4208   25.8196 C   0  0  0  0  0  0
    4.1930   54.4067   24.5288 C   0  0  0  0  0  0
    3.3696   54.3853   23.3851 N   0  0  0  0  0  0
    1.9362   54.1769   23.3402 C   0  0  0  0  0  0
    1.5482   52.6866   23.2265 C   0  0  0  0  0  0
    2.3045   51.8844   22.6773 O   0  0  0  0  0  0
    0.3453   52.3555   23.7446 N   0  0  0  0  0  0
   -0.2148   51.0728   23.9709 C   0  0  0  0  0  0
    0.5971   49.9282   24.0888 C   0  0  0  0  0  0
    0.0581   48.7023   24.4646 C   0  0  0  0  0  0
   -1.3000   48.5885   24.7252 C   0  0  0  0  0  0
   -2.1257   49.6991   24.5901 C   0  0  0  0  0  0
   -1.6093   50.9507   24.2074 C   0  0  0  0  0  0
   -2.5691   52.1077   24.0270 C   0  0  0  0  0  0
   -2.4281   52.8963   23.0938 O   0  0  0  0  0  0
   -3.5645   52.1942   24.9285 N   0  0  0  0  0  0
   -4.7447   53.0539   24.8471 C   0  0  0  0  0  0
   -4.8709   54.1759   25.8516 C   0  0  0  0  0  0
   -4.6529   54.4980   24.3966 C   0  0  0  0  0  0
    3.8843   54.2866   28.3846 C   0  0  0  0  0  0
    4.5677   54.7911   29.2816 O   0  0  0  0  0  0
    2.6772   53.6956   28.6624 N   0  0  0  0  0  0
    2.2321   53.7244   30.0797 C   0  0  0  0  0  0
    0.7031   53.5298   30.2008 C   0  0  1  0  0  0
    0.2706   54.4259   29.7475 H   0  0  0  0  0  0
    0.1201   52.3484   29.3960 C   0  0  0  0  0  0
    1.1093   51.7805   28.3649 C   0  0  2  0  0  0
    1.8359   51.1672   28.9034 H   0  0  0  0  0  0
    1.9155   52.8945   27.6747 C   0  0  0  0  0  0
    0.3955   50.8843   27.3470 C   0  0  0  0  0  0
    0.2012   53.5320   31.6526 C   0  0  0  0  0  0
    7.3401   54.3326   23.0637 H   0  0  0  0  0  0
    5.9115   53.5057   22.4446 H   0  0  0  0  0  0
    5.9766   55.2624   22.4328 H   0  0  0  0  0  0
    7.4815   54.4031   25.4095 H   0  0  0  0  0  0
    6.5085   54.3401   27.6462 H   0  0  0  0  0  0
    2.5856   54.4963   25.9212 H   0  0  0  0  0  0
    3.8636   54.2476   22.5134 H   0  0  0  0  0  0
    1.5016   54.6819   22.4812 H   0  0  0  0  0  0
    1.4104   54.6174   24.1840 H   0  0  0  0  0  0
   -0.2576   53.1200   24.0088 H   0  0  0  0  0  0
    1.6681   49.9699   23.9530 H   0  0  0  0  0  0
    0.7020   47.8441   24.5868 H   0  0  0  0  0  0
   -1.7116   47.6431   25.0412 H   0  0  0  0  0  0
   -3.1810   49.5677   24.7808 H   0  0  0  0  0  0
   -3.5625   51.5182   25.6783 H   0  0  0  0  0  0
   -5.6507   52.5061   24.5830 H   0  0  0  0  0  0
   -4.0497   54.3463   26.5473 H   0  0  0  0  0  0
   -5.8463   54.3513   26.3048 H   0  0  0  0  0  0
   -5.4781   54.8947   23.8057 H   0  0  0  0  0  0
   -3.6944   54.9092   24.0823 H   0  0  0  0  0  0
    2.7699   52.9646   30.6491 H   0  0  0  0  0  0
    2.4150   54.7239   30.4809 H   0  0  0  0  0  0
   -0.1563   51.5051   30.0329 H   0  0  0  0  0  0
   -0.7788   52.7105   28.8948 H   0  0  0  0  0  0
    1.2365   53.5292   27.1058 H   0  0  0  0  0  0
    2.6035   52.3769   27.0033 H   0  0  0  0  0  0
   -0.3000   51.4608   26.7398 H   0  0  0  0  0  0
    1.1044   50.3942   26.6848 H   0  0  0  0  0  0
   -0.1809   50.0974   27.8228 H   0  0  0  0  0  0
    0.7079   52.7706   32.2466 H   0  0  0  0  0  0
    0.3523   54.4972   32.1387 H   0  0  0  0  0  0
   -0.8613   53.2967   31.6867 H   0  0  0  0  0  0
  1  2  1  0  0  0
  1 37  1  0  0  0
  1 38  1  0  0  0
  1 39  1  0  0  0
  2  7  2  0  0  0
  2  3  1  0  0  0
  3  4  2  0  0  0
  3 40  1  0  0  0
  4  5  1  0  0  0
  4 41  1  0  0  0
  5  6  2  0  0  0
  5 25  1  0  0  0
  6  7  1  0  0  0
  6 42  1  0  0  0
  7  8  1  0  0  0
  8  9  1  0  0  0
  8 43  1  0  0  0
  9 10  1  0  0  0
  9 44  1  0  0  0
  9 45  1  0  0  0
 10 11  2  0  0  0
 10 12  1  0  0  0
 12 13  1  0  0  0
 12 46  1  0  0  0
 13 18  2  0  0  0
 13 14  1  0  0  0
 14 15  2  0  0  0
 14 47  1  0  0  0
 15 16  1  0  0  0
 15 48  1  0  0  0
 16 17  2  0  0  0
 16 49  1  0  0  0
 17 18  1  0  0  0
 17 50  1  0  0  0
 18 19  1  0  0  0
 19 20  2  0  0  0
 19 21  1  0  0  0
 21 22  1  0  0  0
 21 51  1  0  0  0
 22 24  1  0  0  0
 22 23  1  0  0  0
 22 52  1  0  0  0
 23 24  1  0  0  0
 23 53  1  0  0  0
 23 54  1  0  0  0
 24 55  1  0  0  0
 24 56  1  0  0  0
 25 26  2  0  0  0
 25 27  1  0  0  0
 27 34  1  0  0  0
 27 28  1  0  0  0
 28 29  1  0  0  0
 28 57  1  0  0  0
 28 58  1  0  0  0
 29 30  1  0  0  0
 29 31  1  0  0  0
 29 36  1  0  0  0
 31 32  1  0  0  0
 31 59  1  0  0  0
 31 60  1  0  0  0
 32 33  1  0  0  0
 32 34  1  0  0  0
 32 35  1  0  0  0
 34 61  1  0  0  0
 34 62  1  0  0  0
 35 63  1  0  0  0
 35 64  1  0  0  0
 35 65  1  0  0  0
 36 66  1  0  0  0
 36 67  1  0  0  0
 36 68  1  0  0  0
M  END
> <i_i_glide_confnum>
560

> <i_i_glide_lignum>
452

> <i_i_glide_posenum>
394

> <i_i_glide_rotatable_bonds>
10

> <i_m_Source_File_Index>
5149

> <b_m_subgroup_collapsed>
0

> <r_i_docking_score>
-5.99709

> <r_i_glide_ecoul>
-1.43311

> <r_i_glide_eff_state_penalty>
0

> <r_i_glide_einternal>
6.31983

> <r_i_glide_emodel>
-69.0871

> <r_i_glide_energy>
-53.1005

> <r_i_glide_erotb>
0.941431

> <r_i_glide_esite>
0

> <r_i_glide_evdw>
-51.6673

> <r_i_glide_gscore>
-5.99709

> <r_i_glide_hbond>
0

> <r_i_glide_ligand_efficiency>
-0.176385

> <r_i_glide_ligand_efficiency_ln>
-1.32492

> <r_i_glide_ligand_efficiency_sa>
-0.571419

> <r_i_glide_lipo>
-2.97327

> <r_i_glide_metal>
0

> <r_i_glide_rewards>
-1.16691

> <s_i_glide_gridfile>
wee1_glide-grid

> <s_m_Source_File>
wee1_decoys_glide_SP.sdf

> <s_m_Source_Path>
/Users/zhangxujun/Desktop

> <s_m_entry_id>
5424

> <s_m_entry_name>
wee1_decoys_glide_SP.5149

> <s_m_subgroup_title>
wee1_decoys_glide_SP

> <s_m_subgroupid>
wee1_decoys_glide_SP


$$$$
