ZINC12498311_2951
                    3D
 Schrodinger Suite 2024-2.
 53 55  0  0  1  0            999 V2000
    0.7829   51.7532   28.3840 C   0  0  0  0  0  0
    0.4193   52.2243   26.9721 C   0  0  0  0  0  0
    1.5500   52.8594   26.3866 O   0  0  0  0  0  0
    1.5255   53.2771   25.1016 C   0  0  0  0  0  0
    0.5095   53.2965   24.4023 O   0  0  0  0  0  0
    2.8706   53.6358   24.6014 C   0  0  0  0  0  0
    4.0389   53.9160   25.3854 C   0  0  0  0  0  0
    5.1830   54.1705   24.6049 C   0  0  0  0  0  0
    4.8590   54.0967   22.9164 S   0  0  0  0  0  0
    3.2096   53.6956   23.2297 C   0  0  0  0  0  0
    2.4389   53.5283   22.0872 N   0  0  0  0  0  0
    1.9692   52.3493   21.5725 C   0  0  0  0  0  0
    1.9069   50.8579   22.3535 S   0  0  0  0  0  0
    1.6368   52.4807   20.2546 N   0  0  0  0  0  0
    0.4572   52.2046   19.6512 C   0  0  0  0  0  0
   -0.6185   52.0909   20.2493 O   0  0  0  0  0  0
    0.5110   52.0562   18.1204 C   0  0  0  0  0  0
   -0.7623   52.3467   17.5344 O   0  0  0  0  0  0
   -1.1262   53.6450   17.2223 C   0  0  0  0  0  0
   -0.2592   54.7502   17.2819 C   0  0  0  0  0  0
   -0.7091   56.0287   16.9533 C   0  0  0  0  0  0
   -2.0286   56.2230   16.5453 C   0  0  0  0  0  0
   -2.8956   55.1320   16.4801 C   0  0  0  0  0  0
   -2.4516   53.8557   16.8228 C   0  0  0  0  0  0
   -3.6880   52.4064   16.7553 Br  0  0  0  0  0  0
   -2.5295   57.6114   16.2008 C   0  0  0  0  0  0
    6.5656   54.5268   25.1368 C   0  0  0  0  0  0
    6.6618   54.1002   26.6139 C   0  0  0  0  0  0
    5.4470   54.5906   27.4099 C   0  0  0  0  0  0
    4.1200   53.9653   26.9204 C   0  0  0  0  0  0
   -0.0616   51.2456   28.8517 H   0  0  0  0  0  0
    1.6175   51.0516   28.3592 H   0  0  0  0  0  0
    1.0645   52.5914   29.0216 H   0  0  0  0  0  0
   -0.4328   52.9020   27.0081 H   0  0  0  0  0  0
    0.1229   51.3658   26.3665 H   0  0  0  0  0  0
    2.2189   54.3650   21.5611 H   0  0  0  0  0  0
    2.4007   52.7233   19.6418 H   0  0  0  0  0  0
    0.7183   51.0073   17.9082 H   0  0  0  0  0  0
    1.3377   52.6025   17.6657 H   0  0  0  0  0  0
    0.7668   54.6483   17.5974 H   0  0  0  0  0  0
   -0.0274   56.8657   17.0163 H   0  0  0  0  0  0
   -3.9219   55.2729   16.1716 H   0  0  0  0  0  0
   -1.9762   58.3789   16.7447 H   0  0  0  0  0  0
   -3.5790   57.7116   16.4792 H   0  0  0  0  0  0
   -2.4359   57.7983   15.1304 H   0  0  0  0  0  0
    7.3536   54.0502   24.5520 H   0  0  0  0  0  0
    6.7254   55.6026   25.0539 H   0  0  0  0  0  0
    6.7355   53.0141   26.6895 H   0  0  0  0  0  0
    7.5738   54.4956   27.0599 H   0  0  0  0  0  0
    5.5839   54.3793   28.4716 H   0  0  0  0  0  0
    5.3979   55.6749   27.3270 H   0  0  0  0  0  0
    3.2867   54.5283   27.3430 H   0  0  0  0  0  0
    4.0416   52.9509   27.3139 H   0  0  0  0  0  0
  1  2  1  0  0  0
  1 31  1  0  0  0
  1 32  1  0  0  0
  1 33  1  0  0  0
  2  3  1  0  0  0
  2 34  1  0  0  0
  2 35  1  0  0  0
  3  4  1  0  0  0
  4  5  2  0  0  0
  4  6  1  0  0  0
  6 10  2  0  0  0
  6  7  1  0  0  0
  7 30  1  0  0  0
  7  8  2  0  0  0
  8  9  1  0  0  0
  8 27  1  0  0  0
  9 10  1  0  0  0
 10 11  1  0  0  0
 11 12  1  0  0  0
 11 36  1  0  0  0
 12 13  2  0  0  0
 12 14  1  0  0  0
 14 15  1  0  0  0
 14 37  1  0  0  0
 15 16  2  0  0  0
 15 17  1  0  0  0
 17 18  1  0  0  0
 17 38  1  0  0  0
 17 39  1  0  0  0
 18 19  1  0  0  0
 19 24  2  0  0  0
 19 20  1  0  0  0
 20 21  2  0  0  0
 20 40  1  0  0  0
 21 22  1  0  0  0
 21 41  1  0  0  0
 22 23  2  0  0  0
 22 26  1  0  0  0
 23 24  1  0  0  0
 23 42  1  0  0  0
 24 25  1  0  0  0
 26 43  1  0  0  0
 26 44  1  0  0  0
 26 45  1  0  0  0
 27 28  1  0  0  0
 27 46  1  0  0  0
 27 47  1  0  0  0
 28 29  1  0  0  0
 28 48  1  0  0  0
 28 49  1  0  0  0
 29 30  1  0  0  0
 29 50  1  0  0  0
 29 51  1  0  0  0
 30 52  1  0  0  0
 30 53  1  0  0  0
M  END
> <i_i_glide_confnum>
173

> <i_i_glide_lignum>
2952

> <i_i_glide_posenum>
253

> <i_i_glide_rotatable_bonds>
10

> <i_m_Source_File_Index>
2306

> <b_m_subgroup_collapsed>
0

> <r_i_docking_score>
-5.45774

> <r_i_glide_ecoul>
-5.56025

> <r_i_glide_eff_state_penalty>
0

> <r_i_glide_einternal>
7.40907

> <r_i_glide_emodel>
-54.7902

> <r_i_glide_energy>
-43.3263

> <r_i_glide_erotb>
0.705079

> <r_i_glide_esite>
-0.0844968

> <r_i_glide_evdw>
-37.7661

> <r_i_glide_gscore>
-5.45774

> <r_i_glide_hbond>
-0.32

> <r_i_glide_ligand_efficiency>
-0.181925

> <r_i_glide_ligand_efficiency_ln>
-1.24006

> <r_i_glide_ligand_efficiency_sa>
-0.565283

> <r_i_glide_lipo>
-2.57848

> <r_i_glide_metal>
0

> <r_i_glide_rewards>
-0.457508

> <s_i_glide_gridfile>
wee1_glide-grid

> <s_m_Source_File>
wee1_decoys_glide_SP.sdf

> <s_m_Source_Path>
/Users/zhangxujun/Desktop

> <s_m_entry_id>
2581

> <s_m_entry_name>
wee1_decoys_glide_SP.2306

> <s_m_subgroup_title>
wee1_decoys_glide_SP

> <s_m_subgroupid>
wee1_decoys_glide_SP


$$$$
