ZINC13131537_2910
                    3D
 Schrodinger Suite 2024-2.
 75 78  0  0  1  0            999 V2000
   -2.6050   51.7718   23.4015 C   0  0  0  0  0  0
   -1.5630   51.5227   22.3074 C   0  0  0  0  0  0
   -0.3146   52.0548   22.7305 O   0  0  0  0  0  0
    0.7432   52.0967   21.8968 C   0  0  0  0  0  0
    0.7080   51.7049   20.7262 O   0  0  0  0  0  0
    1.9435   52.7069   22.5196 C   0  0  0  0  0  0
    2.1359   53.0249   23.9034 C   0  0  0  0  0  0
    3.3312   53.6966   24.1572 C   0  0  0  0  0  0
    4.3236   53.8294   22.7618 S   0  0  0  0  0  0
    3.1026   53.0536   21.7845 C   0  0  0  0  0  0
    3.2481   52.8971   20.4022 N   0  0  0  0  0  0
    4.3029   53.2070   19.6183 C   0  0  0  0  0  0
    5.4279   53.4881   20.0308 O   0  0  0  0  0  0
    3.9785   53.2301   18.0978 C   0  0  1  0  0  0
    3.3167   52.3896   17.8715 H   0  0  0  0  0  0
    3.3059   54.5428   17.6491 C   0  0  0  0  0  0
    5.2211   52.8967   17.2920 N   0  3  0  0  0  0
    6.4584   53.8245   17.1856 C   0  0  0  0  0  0
    7.6902   52.9012   17.0254 C   0  0  0  0  0  0
    9.0828   53.5337   17.2688 C   0  0  0  0  0  0
    9.1764   54.6231   18.3655 C   0  0  0  0  0  0
    9.1380   56.0804   17.8487 C   0  0  0  0  0  0
    7.8158   56.5926   17.2297 C   0  0  0  0  0  0
    7.3852   55.9104   15.9078 C   0  0  0  0  0  0
    6.2688   54.8496   16.0431 C   0  0  0  0  0  0
    3.7024   54.3065   25.4975 C   0  0  0  0  0  0
    3.0398   53.6026   26.6061 N   0  0  0  0  0  0
    1.5950   53.4985   26.3684 C   0  0  0  0  0  0
    1.1883   52.7504   25.0762 C   0  0  0  0  0  0
    3.3103   54.3495   27.8471 C   0  0  0  0  0  0
    2.9407   53.5939   29.1198 C   0  0  0  0  0  0
    1.6358   53.6368   29.6256 C   0  0  0  0  0  0
    1.2962   52.8837   30.7469 C   0  0  0  0  0  0
    2.2707   52.1103   31.3742 C   0  0  0  0  0  0
    3.5789   52.0966   30.8955 C   0  0  0  0  0  0
    3.9044   52.8032   29.7444 C   0  0  0  0  0  0
   -3.5737   51.3631   23.1131 H   0  0  0  0  0  0
   -2.3110   51.2981   24.3398 H   0  0  0  0  0  0
   -2.7328   52.8384   23.5892 H   0  0  0  0  0  0
   -1.8820   51.9964   21.3768 H   0  0  0  0  0  0
   -1.4644   50.4526   22.1167 H   0  0  0  0  0  0
    2.4050   52.5826   19.9399 H   0  0  0  0  0  0
    2.3098   54.6413   18.0816 H   0  0  0  0  0  0
    3.8764   55.4237   17.9482 H   0  0  0  0  0  0
    3.1679   54.5712   16.5678 H   0  0  0  0  0  0
    4.9162   52.6850   16.3534 H   0  0  0  0  0  0
    6.4926   54.3391   18.1387 H   0  0  0  0  0  0
    7.6791   52.4449   16.0342 H   0  0  0  0  0  0
    7.5895   52.0545   17.7044 H   0  0  0  0  0  0
    9.4930   53.9116   16.3325 H   0  0  0  0  0  0
    9.7621   52.7226   17.5398 H   0  0  0  0  0  0
   10.1324   54.4968   18.8765 H   0  0  0  0  0  0
    8.4371   54.4690   19.1519 H   0  0  0  0  0  0
    9.9462   56.2254   17.1300 H   0  0  0  0  0  0
    9.3892   56.7345   18.6856 H   0  0  0  0  0  0
    7.9506   57.6561   17.0255 H   0  0  0  0  0  0
    7.0121   56.5619   17.9666 H   0  0  0  0  0  0
    8.2503   55.4939   15.3929 H   0  0  0  0  0  0
    7.0206   56.6817   15.2272 H   0  0  0  0  0  0
    5.3366   55.3910   16.1825 H   0  0  0  0  0  0
    6.1591   54.3276   15.0912 H   0  0  0  0  0  0
    4.7824   54.2526   25.6478 H   0  0  0  0  0  0
    3.4185   55.3585   25.4775 H   0  0  0  0  0  0
    1.1004   52.9914   27.1957 H   0  0  0  0  0  0
    1.1733   54.4966   26.3700 H   0  0  0  0  0  0
    0.1405   52.9725   24.8856 H   0  0  0  0  0  0
    1.1923   51.6804   25.2865 H   0  0  0  0  0  0
    4.3776   54.5737   27.8993 H   0  0  0  0  0  0
    2.7881   55.3074   27.8342 H   0  0  0  0  0  0
    0.8804   54.2403   29.1434 H   0  0  0  0  0  0
    0.2869   52.8992   31.1361 H   0  0  0  0  0  0
    2.0132   51.5486   32.2604 H   0  0  0  0  0  0
    4.3345   51.5135   31.4010 H   0  0  0  0  0  0
    4.9092   52.7501   29.3483 H   0  0  0  0  0  0
    5.5042   51.9890   17.6817 H   0  0  0  0  0  0
  1  2  1  0  0  0
  1 37  1  0  0  0
  1 38  1  0  0  0
  1 39  1  0  0  0
  2  3  1  0  0  0
  2 40  1  0  0  0
  2 41  1  0  0  0
  3  4  1  0  0  0
  4  5  2  0  0  0
  4  6  1  0  0  0
  6 10  2  0  0  0
  6  7  1  0  0  0
  7 29  1  0  0  0
  7  8  2  0  0  0
  8  9  1  0  0  0
  8 26  1  0  0  0
  9 10  1  0  0  0
 10 11  1  0  0  0
 11 12  1  0  0  0
 11 42  1  0  0  0
 12 13  2  0  0  0
 12 14  1  0  0  0
 14 15  1  0  0  0
 14 16  1  0  0  0
 14 17  1  0  0  0
 16 43  1  0  0  0
 16 44  1  0  0  0
 16 45  1  0  0  0
 17 18  1  0  0  0
 17 46  1  0  0  0
 17 75  1  0  0  0
 18 25  1  0  0  0
 18 19  1  0  0  0
 18 47  1  0  0  0
 19 20  1  0  0  0
 19 48  1  0  0  0
 19 49  1  0  0  0
 20 21  1  0  0  0
 20 50  1  0  0  0
 20 51  1  0  0  0
 21 22  1  0  0  0
 21 52  1  0  0  0
 21 53  1  0  0  0
 22 23  1  0  0  0
 22 54  1  0  0  0
 22 55  1  0  0  0
 23 24  1  0  0  0
 23 56  1  0  0  0
 23 57  1  0  0  0
 24 25  1  0  0  0
 24 58  1  0  0  0
 24 59  1  0  0  0
 25 60  1  0  0  0
 25 61  1  0  0  0
 26 27  1  0  0  0
 26 62  1  0  0  0
 26 63  1  0  0  0
 27 28  1  0  0  0
 27 30  1  0  0  0
 28 29  1  0  0  0
 28 64  1  0  0  0
 28 65  1  0  0  0
 29 66  1  0  0  0
 29 67  1  0  0  0
 30 31  1  0  0  0
 30 68  1  0  0  0
 30 69  1  0  0  0
 31 36  2  0  0  0
 31 32  1  0  0  0
 32 33  2  0  0  0
 32 70  1  0  0  0
 33 34  1  0  0  0
 33 71  1  0  0  0
 34 35  2  0  0  0
 34 72  1  0  0  0
 35 36  1  0  0  0
 35 73  1  0  0  0
 36 74  1  0  0  0
M  CHG  1  17   1
M  END
> <i_i_glide_confnum>
1467

> <i_i_glide_lignum>
2911

> <i_i_glide_posenum>
327

> <i_i_glide_rotatable_bonds>
10

> <i_m_Source_File_Index>
2733

> <b_m_subgroup_collapsed>
0

> <r_i_docking_score>
-5.11906

> <r_i_glide_ecoul>
-6.82917

> <r_i_glide_eff_state_penalty>
0

> <r_i_glide_einternal>
7.95976

> <r_i_glide_emodel>
-58.1666

> <r_i_glide_energy>
-45.3867

> <r_i_glide_erotb>
0.656455

> <r_i_glide_esite>
-0.1335

> <r_i_glide_evdw>
-38.5576

> <r_i_glide_gscore>
-5.11906

> <r_i_glide_hbond>
-0.2

> <r_i_glide_ligand_efficiency>
-0.146259

> <r_i_glide_ligand_efficiency_ln>
-1.12375

> <r_i_glide_ligand_efficiency_sa>
-0.478423

> <r_i_glide_lipo>
-2.41416

> <r_i_glide_metal>
0

> <r_i_glide_rewards>
-0.0756096

> <s_i_glide_gridfile>
wee1_glide-grid

> <s_m_Source_File>
wee1_decoys_glide_SP.sdf

> <s_m_Source_Path>
/Users/zhangxujun/Desktop

> <s_m_entry_id>
3008

> <s_m_entry_name>
wee1_decoys_glide_SP.2733

> <s_m_subgroup_title>
wee1_decoys_glide_SP

> <s_m_subgroupid>
wee1_decoys_glide_SP


$$$$
