ZINC40302529_3585
                    3D
 Schrodinger Suite 2024-2.
 36 37  0  0  1  0            999 V2000
    7.1571   56.7889   17.8529 C   0  0  0  0  0  0
    7.7815   55.7151   18.6212 N   0  0  0  0  0  0
    9.2298   55.8287   18.7623 C   0  0  0  0  0  0
    7.0254   55.2963   19.7448 C   0  0  0  0  0  0
    7.4472   55.6093   21.0458 C   0  0  0  0  0  0
    6.7044   55.2207   22.1571 C   0  0  0  0  0  0
    5.5077   54.4967   22.0089 C   0  0  0  0  0  0
    5.0999   54.1596   20.7104 C   0  0  0  0  0  0
    5.8435   54.5383   19.5911 C   0  0  0  0  0  0
    5.3923   54.1023   18.3402 N   0  0  0  0  0  0
    4.6505   54.0967   23.1956 C   0  0  0  0  0  0
    3.5789   53.5161   23.0173 O   0  0  0  0  0  0
    5.1404   54.4298   24.4107 N   0  0  0  0  0  0
    4.5946   54.2401   25.6960 C   0  0  0  0  0  0
    3.2553   53.8838   25.9330 C   0  0  0  0  0  0
    2.7954   53.6913   27.2346 C   0  0  0  0  0  0
    3.6621   53.8530   28.3120 C   0  0  0  0  0  0
    4.9867   54.2218   28.0933 C   0  0  0  0  0  0
    5.4533   54.4203   26.7943 C   0  0  0  0  0  0
    7.1044   54.8925   26.5860 Cl  0  0  0  0  0  0
    3.0353   53.5676   30.0817 Br  0  0  0  0  0  0
    6.1036   56.5914   17.6532 H   0  0  0  0  0  0
    7.6537   56.9158   16.8899 H   0  0  0  0  0  0
    7.2099   57.7325   18.3976 H   0  0  0  0  0  0
    9.6330   54.9495   19.2666 H   0  0  0  0  0  0
    9.7101   55.8894   17.7855 H   0  0  0  0  0  0
    9.5080   56.7095   19.3410 H   0  0  0  0  0  0
    8.3636   56.1540   21.2138 H   0  0  0  0  0  0
    7.0870   55.5035   23.1269 H   0  0  0  0  0  0
    4.1912   53.5909   20.5611 H   0  0  0  0  0  0
    4.6035   53.4732   18.2802 H   0  0  0  0  0  0
    5.9560   54.3046   17.5267 H   0  0  0  0  0  0
    6.0615   54.8372   24.4140 H   0  0  0  0  0  0
    2.5487   53.7526   25.1293 H   0  0  0  0  0  0
    1.7666   53.4098   27.4058 H   0  0  0  0  0  0
    5.6551   54.3580   28.9314 H   0  0  0  0  0  0
  1  2  1  0  0  0
  1 22  1  0  0  0
  1 23  1  0  0  0
  1 24  1  0  0  0
  2  3  1  0  0  0
  2  4  1  0  0  0
  3 25  1  0  0  0
  3 26  1  0  0  0
  3 27  1  0  0  0
  4  9  2  0  0  0
  4  5  1  0  0  0
  5  6  2  0  0  0
  5 28  1  0  0  0
  6  7  1  0  0  0
  6 29  1  0  0  0
  7  8  2  0  0  0
  7 11  1  0  0  0
  8  9  1  0  0  0
  8 30  1  0  0  0
  9 10  1  0  0  0
 10 31  1  0  0  0
 10 32  1  0  0  0
 11 12  2  0  0  0
 11 13  1  0  0  0
 13 14  1  0  0  0
 13 33  1  0  0  0
 14 19  2  0  0  0
 14 15  1  0  0  0
 15 16  2  0  0  0
 15 34  1  0  0  0
 16 17  1  0  0  0
 16 35  1  0  0  0
 17 18  2  0  0  0
 17 21  1  0  0  0
 18 19  1  0  0  0
 18 36  1  0  0  0
 19 20  1  0  0  0
M  END
> <i_i_glide_confnum>
2

> <i_i_glide_lignum>
3586

> <i_i_glide_posenum>
314

> <i_i_glide_rotatable_bonds>
4

> <i_m_Source_File_Index>
4114

> <b_m_subgroup_collapsed>
0

> <r_i_docking_score>
-5.34797

> <r_i_glide_ecoul>
-2.97745

> <r_i_glide_eff_state_penalty>
0

> <r_i_glide_einternal>
0.536929

> <r_i_glide_emodel>
-49.0544

> <r_i_glide_energy>
-37.2979

> <r_i_glide_erotb>
0.425414

> <r_i_glide_esite>
-0.0206951

> <r_i_glide_evdw>
-34.3205

> <r_i_glide_gscore>
-5.34797

> <r_i_glide_hbond>
0

> <r_i_glide_ligand_efficiency>
-0.254665

> <r_i_glide_ligand_efficiency_ln>
-1.32228

> <r_i_glide_ligand_efficiency_sa>
-0.702603

> <r_i_glide_lipo>
-2.30417

> <r_i_glide_metal>
0

> <r_i_glide_rewards>
-1.28588

> <s_i_glide_gridfile>
wee1_glide-grid

> <s_m_Source_File>
wee1_decoys_glide_SP.sdf

> <s_m_Source_Path>
/Users/zhangxujun/Desktop

> <s_m_entry_id>
4389

> <s_m_entry_name>
wee1_decoys_glide_SP.4114

> <s_m_subgroup_title>
wee1_decoys_glide_SP

> <s_m_subgroupid>
wee1_decoys_glide_SP


$$$$
