ZINC25258314_2469
                    3D
 Schrodinger Suite 2024-2.
 58 61  0  0  1  0            999 V2000
    4.2580   51.9623   21.4596 C   0  0  0  0  0  0
    4.9129   53.2109   20.8796 C   0  0  0  0  0  0
    4.9630   53.3449   19.4895 C   0  0  0  0  0  0
    5.5653   54.4521   18.8822 C   0  0  0  0  0  0
    6.1427   55.4267   19.7032 C   0  0  0  0  0  0
    6.1021   55.3075   21.0900 C   0  0  0  0  0  0
    5.4796   54.2055   21.6979 C   0  0  0  0  0  0
    5.3719   54.0483   23.0949 N   0  0  0  0  0  0
    5.9280   54.7584   24.0990 C   0  0  0  0  0  0
    6.7126   55.6962   23.9703 O   0  0  0  0  0  0
    5.5359   54.2975   25.4714 C   0  0  0  0  0  0
    4.2165   53.9391   25.7667 C   0  0  0  0  0  0
    3.8997   53.4391   27.0250 C   0  0  0  0  0  0
    4.8824   53.2999   28.0168 C   0  0  0  0  0  0
    6.1813   53.7136   27.7207 C   0  0  0  0  0  0
    6.5076   54.2115   26.4673 C   0  0  0  0  0  0
    4.6743   52.8231   29.2817 N   0  5  0  0  0  0
    3.3400   52.2246   29.8228 S   0  0  0  0  0  0
    2.6034   51.3805   28.8810 O   0  0  0  0  0  0
    3.4979   51.6969   31.1817 O   0  0  0  0  0  0
    2.2207   53.6183   30.0569 C   0  0  0  0  0  0
    1.0203   53.5279   30.7421 C   0  0  0  0  0  0
    0.4053   54.7687   30.8819 C   0  0  0  0  0  0
    1.1044   55.8000   30.2679 C   0  0  0  0  0  0
    2.5120   55.2280   29.4530 S   0  0  0  0  0  0
    5.5921   54.5474   17.4958 N   0  0  0  0  0  0
    6.2217   53.4567   16.7286 C   0  0  0  0  0  0
    5.7885   53.3836   15.2514 C   0  0  0  0  0  0
    6.0368   54.7504   14.5865 N   0  3  0  0  0  0
    5.2439   55.8371   15.3391 C   0  0  0  0  0  0
    5.6804   55.8545   16.8192 C   0  0  0  0  0  0
    5.6273   54.7114   13.0983 C   0  0  0  0  0  0
    4.9756   51.4259   22.0812 H   0  0  0  0  0  0
    3.4035   52.2315   22.0807 H   0  0  0  0  0  0
    3.9117   51.2764   20.6843 H   0  0  0  0  0  0
    4.5235   52.5744   18.8706 H   0  0  0  0  0  0
    6.6315   56.2880   19.2723 H   0  0  0  0  0  0
    6.5515   56.0967   21.6678 H   0  0  0  0  0  0
    4.7855   53.2852   23.3905 H   0  0  0  0  0  0
    3.4340   54.0199   25.0244 H   0  0  0  0  0  0
    2.8770   53.1536   27.2140 H   0  0  0  0  0  0
    6.9560   53.6411   28.4713 H   0  0  0  0  0  0
    7.5254   54.4981   26.2670 H   0  0  0  0  0  0
    0.6395   52.6131   31.1752 H   0  0  0  0  0  0
   -0.4981   54.8970   31.4482 H   0  0  0  0  0  0
    0.8511   56.8498   30.2434 H   0  0  0  0  0  0
    6.0758   52.4906   17.2108 H   0  0  0  0  0  0
    7.2919   53.6693   16.7533 H   0  0  0  0  0  0
    6.4103   52.6644   14.7143 H   0  0  0  0  0  0
    4.7326   53.1248   15.1371 H   0  0  0  0  0  0
    5.5002   56.7849   14.8624 H   0  0  0  0  0  0
    4.1780   55.6302   15.2182 H   0  0  0  0  0  0
    6.7384   56.1250   16.8477 H   0  0  0  0  0  0
    5.1202   56.6167   17.3655 H   0  0  0  0  0  0
    4.5610   54.4841   13.0408 H   0  0  0  0  0  0
    5.8481   55.6909   12.6720 H   0  0  0  0  0  0
    6.2242   53.9369   12.6128 H   0  0  0  0  0  0
    7.0230   54.9662   14.6571 H   0  0  0  0  0  0
  1  2  1  0  0  0
  1 33  1  0  0  0
  1 34  1  0  0  0
  1 35  1  0  0  0
  2  7  2  0  0  0
  2  3  1  0  0  0
  3  4  2  0  0  0
  3 36  1  0  0  0
  4  5  1  0  0  0
  4 26  1  0  0  0
  5  6  2  0  0  0
  5 37  1  0  0  0
  6  7  1  0  0  0
  6 38  1  0  0  0
  7  8  1  0  0  0
  8  9  1  0  0  0
  8 39  1  0  0  0
  9 10  2  0  0  0
  9 11  1  0  0  0
 11 16  2  0  0  0
 11 12  1  0  0  0
 12 13  2  0  0  0
 12 40  1  0  0  0
 13 14  1  0  0  0
 13 41  1  0  0  0
 14 15  2  0  0  0
 14 17  1  0  0  0
 15 16  1  0  0  0
 15 42  1  0  0  0
 16 43  1  0  0  0
 17 18  1  0  0  0
 18 19  2  0  0  0
 18 20  2  0  0  0
 18 21  1  0  0  0
 21 25  1  0  0  0
 21 22  2  0  0  0
 22 23  1  0  0  0
 22 44  1  0  0  0
 23 24  2  0  0  0
 23 45  1  0  0  0
 24 25  1  0  0  0
 24 46  1  0  0  0
 26 31  1  0  0  0
 26 27  1  0  0  0
 27 28  1  0  0  0
 27 47  1  0  0  0
 27 48  1  0  0  0
 28 29  1  0  0  0
 28 49  1  0  0  0
 28 50  1  0  0  0
 29 30  1  0  0  0
 29 32  1  0  0  0
 29 58  1  0  0  0
 30 31  1  0  0  0
 30 51  1  0  0  0
 30 52  1  0  0  0
 31 53  1  0  0  0
 31 54  1  0  0  0
 32 55  1  0  0  0
 32 56  1  0  0  0
 32 57  1  0  0  0
M  CHG  2  17  -1  29   1
M  END
> <i_i_glide_confnum>
27

> <i_i_glide_lignum>
2470

> <i_i_glide_posenum>
142

> <i_i_glide_rotatable_bonds>
7

> <i_m_Source_File_Index>
3509

> <b_m_subgroup_collapsed>
0

> <r_i_docking_score>
-4.53324

> <r_i_glide_ecoul>
-5.81871

> <r_i_glide_eff_state_penalty>
0

> <r_i_glide_einternal>
1.67538

> <r_i_glide_emodel>
-62.2062

> <r_i_glide_energy>
-51.0456

> <r_i_glide_erotb>
0.638652

> <r_i_glide_esite>
-0.00805472

> <r_i_glide_evdw>
-45.2269

> <r_i_glide_gscore>
-4.53324

> <r_i_glide_hbond>
0

> <r_i_glide_ligand_efficiency>
-0.141664

> <r_i_glide_ligand_efficiency_ln>
-1.01512

> <r_i_glide_ligand_efficiency_sa>
-0.449755

> <r_i_glide_lipo>
-2.83266

> <r_i_glide_metal>
0

> <r_i_glide_rewards>
0.802971

> <s_i_glide_gridfile>
wee1_glide-grid

> <s_m_Source_File>
wee1_decoys_glide_SP.sdf

> <s_m_Source_Path>
/Users/zhangxujun/Desktop

> <s_m_entry_id>
3784

> <s_m_entry_name>
wee1_decoys_glide_SP.3509

> <s_m_subgroup_title>
wee1_decoys_glide_SP

> <s_m_subgroupid>
wee1_decoys_glide_SP


$$$$
