ZINC26641855_4054
                    3D
 Schrodinger Suite 2024-2.
 56 60  0  0  1  0            999 V2000
    5.1122   53.6970   27.4823 C   0  0  0  0  0  0
    3.7992   53.6150   26.7231 C   0  0  0  0  0  0
    2.5722   53.1877   27.1976 C   0  0  0  0  0  0
    1.6512   53.1162   26.1577 C   0  0  0  0  0  0
    2.2903   53.6965   25.0612 C   0  0  0  0  0  0
    3.6405   53.8783   25.3649 N   0  0  0  0  0  0
    4.6643   54.2352   24.4378 C   0  0  0  0  0  0
    4.6346   53.6971   23.1416 C   0  0  0  0  0  0
    5.5988   54.0480   22.2079 C   0  0  0  0  0  0
    6.6372   54.8987   22.5734 C   0  0  0  0  0  0
    6.7042   55.4105   23.8671 C   0  0  0  0  0  0
    5.7149   55.0943   24.7954 C   0  0  0  0  0  0
    7.9438   55.3904   21.2819 Br  0  0  0  0  0  0
    1.6750   54.0873   23.7205 C   0  0  0  0  0  0
    0.2799   52.6327   26.2573 C   0  0  0  0  0  0
   -0.4407   51.7451   25.5027 C   0  0  0  0  0  0
    0.1517   50.9756   24.3828 C   0  0  0  0  0  0
    1.3753   50.8852   24.0817 N   0  0  0  0  0  0
   -0.8130   50.2670   23.5941 N   0  0  0  0  0  0
   -2.1744   50.2760   23.9361 C   0  0  0  0  0  0
   -2.6881   50.8762   24.9351 N   0  0  0  0  0  0
   -1.8873   51.5871   25.8457 C   0  0  0  0  0  0
   -2.3179   52.0947   26.8822 O   0  0  0  0  0  0
   -3.0497   49.3169   22.7314 S   0  0  0  0  0  0
   -1.4734   48.9942   21.9022 C   0  0  0  0  0  0
   -0.4590   49.5244   22.4589 N   0  0  0  0  0  0
   -1.3776   48.1172   20.6318 C   0  0  0  0  0  0
   -2.5122   48.3677   19.6042 C   0  0  0  0  0  0
   -2.4319   49.7883   18.9981 C   0  0  0  0  0  0
   -1.0599   50.0155   18.3160 C   0  0  0  0  0  0
    0.1428   49.6441   19.2186 C   0  0  0  0  0  0
   -0.0444   48.2375   19.8390 C   0  0  0  0  0  0
    5.0783   53.1120   28.4011 H   0  0  0  0  0  0
    5.9481   53.2959   26.9089 H   0  0  0  0  0  0
    5.3597   54.7167   27.7758 H   0  0  0  0  0  0
    2.3808   52.8764   28.2141 H   0  0  0  0  0  0
    3.8703   52.9970   22.8379 H   0  0  0  0  0  0
    5.5477   53.6500   21.2046 H   0  0  0  0  0  0
    7.5047   56.0872   24.1290 H   0  0  0  0  0  0
    5.7617   55.5501   25.7714 H   0  0  0  0  0  0
    0.6485   54.4271   23.8440 H   0  0  0  0  0  0
    2.2075   54.8971   23.2307 H   0  0  0  0  0  0
    1.6432   53.2655   23.0073 H   0  0  0  0  0  0
   -0.1935   53.1114   27.1046 H   0  0  0  0  0  0
    1.4735   50.2821   23.2763 H   0  0  0  0  0  0
   -1.4578   47.0866   20.9803 H   0  0  0  0  0  0
   -2.5593   47.5692   18.8628 H   0  0  0  0  0  0
   -3.4764   48.2983   20.1084 H   0  0  0  0  0  0
   -3.2338   49.9287   18.2727 H   0  0  0  0  0  0
   -2.5894   50.5415   19.7711 H   0  0  0  0  0  0
   -1.0170   49.4151   17.4052 H   0  0  0  0  0  0
   -0.9724   51.0526   17.9921 H   0  0  0  0  0  0
    1.0646   49.6738   18.6350 H   0  0  0  0  0  0
    0.2645   50.3982   19.9973 H   0  0  0  0  0  0
    0.7928   48.0877   20.5236 H   0  0  0  0  0  0
    0.0678   47.4203   19.1255 H   0  0  0  0  0  0
  1  2  1  0  0  0
  1 33  1  0  0  0
  1 34  1  0  0  0
  1 35  1  0  0  0
  2  6  1  0  0  0
  2  3  2  0  0  0
  3  4  1  0  0  0
  3 36  1  0  0  0
  4  5  2  0  0  0
  4 15  1  0  0  0
  5  6  1  0  0  0
  5 14  1  0  0  0
  6  7  1  0  0  0
  7 12  2  0  0  0
  7  8  1  0  0  0
  8  9  2  0  0  0
  8 37  1  0  0  0
  9 10  1  0  0  0
  9 38  1  0  0  0
 10 11  2  0  0  0
 10 13  1  0  0  0
 11 12  1  0  0  0
 11 39  1  0  0  0
 12 40  1  0  0  0
 14 41  1  0  0  0
 14 42  1  0  0  0
 14 43  1  0  0  0
 15 16  2  0  0  0
 15 44  1  0  0  0
 16 22  1  0  0  0
 16 17  1  0  0  0
 17 18  2  0  0  0
 17 19  1  0  0  0
 18 45  1  0  0  0
 19 26  1  0  0  0
 19 20  1  0  0  0
 20 21  2  0  0  0
 20 24  1  0  0  0
 21 22  1  0  0  0
 22 23  2  0  0  0
 24 25  1  0  0  0
 25 26  2  0  0  0
 25 27  1  0  0  0
 27 32  1  0  0  0
 27 28  1  0  0  0
 27 46  1  0  0  0
 28 29  1  0  0  0
 28 47  1  0  0  0
 28 48  1  0  0  0
 29 30  1  0  0  0
 29 49  1  0  0  0
 29 50  1  0  0  0
 30 31  1  0  0  0
 30 51  1  0  0  0
 30 52  1  0  0  0
 31 32  1  0  0  0
 31 53  1  0  0  0
 31 54  1  0  0  0
 32 55  1  0  0  0
 32 56  1  0  0  0
M  END
> <i_i_glide_confnum>
54

> <i_i_glide_lignum>
4055

> <i_i_glide_posenum>
382

> <i_i_glide_rotatable_bonds>
3

> <i_m_Source_File_Index>
1764

> <b_m_subgroup_collapsed>
0

> <r_i_docking_score>
-4.74155

> <r_i_glide_ecoul>
0.385701

> <r_i_glide_eff_state_penalty>
0

> <r_i_glide_einternal>
2.89924

> <r_i_glide_emodel>
-47.9598

> <r_i_glide_energy>
-36.1601

> <r_i_glide_erotb>
0.235876

> <r_i_glide_esite>
-0.0282264

> <r_i_glide_evdw>
-36.5458

> <r_i_glide_gscore>
-4.74155

> <r_i_glide_hbond>
0

> <r_i_glide_ligand_efficiency>
-0.148173

> <r_i_glide_ligand_efficiency_ln>
-1.06176

> <r_i_glide_ligand_efficiency_sa>
-0.470421

> <r_i_glide_lipo>
-2.75136

> <r_i_glide_metal>
0

> <r_i_glide_rewards>
-0.4284

> <s_i_glide_gridfile>
wee1_glide-grid

> <s_m_Source_File>
wee1_decoys_glide_SP.sdf

> <s_m_Source_Path>
/Users/zhangxujun/Desktop

> <s_m_entry_id>
2039

> <s_m_entry_name>
wee1_decoys_glide_SP.1764

> <s_m_subgroup_title>
wee1_decoys_glide_SP

> <s_m_subgroupid>
wee1_decoys_glide_SP


$$$$
