ZINC02884095_2680
                    3D
 Schrodinger Suite 2024-2.
 41 44  0  0  1  0            999 V2000
    3.4714   52.1765   30.6996 C   0  0  0  0  0  0
    3.3481   52.3356   29.3188 C   0  0  0  0  0  0
    1.9884   52.3578   29.0241 C   0  0  0  0  0  0
    1.2845   52.2240   30.1805 O   0  0  0  0  0  0
    2.1786   52.1177   31.1965 C   0  0  0  0  0  0
    1.1684   52.4363   27.7470 C   0  0  2  0  0  0
    0.3803   53.1730   27.9061 H   0  0  0  0  0  0
    0.5188   51.0708   27.4082 C   0  0  0  0  0  0
   -0.3666   51.0983   26.1375 C   0  0  2  0  0  0
   -0.4989   50.0740   25.7824 H   0  0  0  0  0  0
    0.3958   51.8300   25.1157 N   0  0  0  0  0  0
    1.4729   52.6774   25.3299 C   0  0  0  0  0  0
    1.9314   53.0285   24.0630 C   0  0  0  0  0  0
    0.9713   52.4851   23.1928 C   0  0  0  0  0  0
    0.0754   51.7586   23.8146 N   0  0  0  0  0  0
    3.0981   53.8114   23.7478 C   0  0  0  0  0  0
    3.6502   54.4961   24.6116 O   0  0  0  0  0  0
    3.5352   53.6556   22.4779 N   0  0  0  0  0  0
    4.7007   54.1876   21.9074 C   0  0  0  0  0  0
    4.7047   54.3698   20.5202 C   0  0  0  0  0  0
    5.8201   54.9566   19.9178 C   0  0  0  0  0  0
    6.9024   55.3429   20.7102 C   0  0  0  0  0  0
    6.8432   55.1007   22.0821 C   0  0  0  0  0  0
    5.7796   54.5079   22.6786 N   0  0  0  0  0  0
    8.2889   56.0938   20.0111 Cl  0  0  0  0  0  0
    1.9694   52.8959   26.6064 N   0  0  0  0  0  0
   -1.7854   51.6600   26.3837 C   0  0  0  0  0  0
   -2.4579   50.9268   27.2702 F   0  0  0  0  0  0
   -1.7322   52.8967   26.8685 F   0  0  0  0  0  0
   -2.5170   51.6981   25.2697 F   0  0  0  0  0  0
    4.3878   52.1119   31.2692 H   0  0  0  0  0  0
    4.1540   52.4081   28.6022 H   0  0  0  0  0  0
    1.7574   52.0051   32.1869 H   0  0  0  0  0  0
   -0.0780   50.7223   28.2546 H   0  0  0  0  0  0
    1.2842   50.3023   27.2833 H   0  0  0  0  0  0
    0.9476   52.5829   22.1167 H   0  0  0  0  0  0
    2.9355   53.1547   21.8425 H   0  0  0  0  0  0
    3.8520   54.0970   19.9138 H   0  0  0  0  0  0
    5.8359   55.1223   18.8501 H   0  0  0  0  0  0
    7.6613   55.3783   22.7278 H   0  0  0  0  0  0
    2.5036   53.7341   26.7935 H   0  0  0  0  0  0
  1  5  2  0  0  0
  1  2  1  0  0  0
  1 31  1  0  0  0
  2  3  2  0  0  0
  2 32  1  0  0  0
  3  4  1  0  0  0
  3  6  1  0  0  0
  4  5  1  0  0  0
  5 33  1  0  0  0
  6  7  1  0  0  0
  6 26  1  0  0  0
  6  8  1  0  0  0
  8  9  1  0  0  0
  8 34  1  0  0  0
  8 35  1  0  0  0
  9 10  1  0  0  0
  9 11  1  0  0  0
  9 27  1  0  0  0
 11 15  1  0  0  0
 11 12  1  0  0  0
 12 13  2  0  0  0
 12 26  1  0  0  0
 13 14  1  0  0  0
 13 16  1  0  0  0
 14 15  2  0  0  0
 14 36  1  0  0  0
 16 17  2  0  0  0
 16 18  1  0  0  0
 18 19  1  0  0  0
 18 37  1  0  0  0
 19 24  2  0  0  0
 19 20  1  0  0  0
 20 21  2  0  0  0
 20 38  1  0  0  0
 21 22  1  0  0  0
 21 39  1  0  0  0
 22 23  2  0  0  0
 22 25  1  0  0  0
 23 24  1  0  0  0
 23 40  1  0  0  0
 26 41  1  0  0  0
 27 28  1  0  0  0
 27 29  1  0  0  0
 27 30  1  0  0  0
M  END
> <i_i_glide_confnum>
1

> <i_i_glide_lignum>
2681

> <i_i_glide_posenum>
245

> <i_i_glide_rotatable_bonds>
5

> <i_m_Source_File_Index>
5524

> <b_m_subgroup_collapsed>
0

> <r_i_docking_score>
-5.19215

> <r_i_glide_ecoul>
-4.65287

> <r_i_glide_eff_state_penalty>
0

> <r_i_glide_einternal>
3.90033

> <r_i_glide_emodel>
-53.3501

> <r_i_glide_energy>
-42.2893

> <r_i_glide_erotb>
0.465056

> <r_i_glide_esite>
-0.107884

> <r_i_glide_evdw>
-37.6365

> <r_i_glide_gscore>
-5.19215

> <r_i_glide_hbond>
0

> <r_i_glide_ligand_efficiency>
-0.185434

> <r_i_glide_ligand_efficiency_ln>
-1.1985

> <r_i_glide_ligand_efficiency_sa>
-0.563086

> <r_i_glide_lipo>
-1.95208

> <r_i_glide_metal>
0

> <r_i_glide_rewards>
-1.01749

> <s_i_glide_gridfile>
wee1_glide-grid

> <s_m_Source_File>
wee1_decoys_glide_SP.sdf

> <s_m_Source_Path>
/Users/zhangxujun/Desktop

> <s_m_entry_id>
5799

> <s_m_entry_name>
wee1_decoys_glide_SP.5524

> <s_m_subgroup_title>
wee1_decoys_glide_SP

> <s_m_subgroupid>
wee1_decoys_glide_SP


$$$$
