ZINC55748786_6208
                    3D
 Schrodinger Suite 2024-2.
 56 57  0  0  1  0            999 V2000
    0.4568   49.5364   24.2231 C   0  0  0  0  0  0
   -0.4707   49.8900   25.3948 C   0  0  2  0  0  0
   -0.8529   48.9579   25.8183 H   0  0  0  0  0  0
   -1.6610   50.7580   24.9372 C   0  0  0  0  0  0
   -2.6593   51.0375   26.0811 C   0  0  2  0  0  0
   -3.3560   51.7876   25.7023 H   0  0  0  0  0  0
   -1.9322   51.6971   27.2804 C   0  0  0  0  0  0
   -0.6616   50.9000   27.6834 N   0  3  1  0  0  0
    0.3033   50.6297   26.5057 C   0  0  0  0  0  0
    0.0703   51.4778   28.9376 C   0  0  0  0  0  0
    0.3701   53.0122   28.9553 C   0  0  1  0  0  0
   -0.5066   53.5559   28.6247 H   0  0  0  0  0  0
    0.6155   53.5126   30.3945 C   0  0  0  0  0  0
    1.4270   53.4432   28.0317 N   0  0  0  0  0  0
    2.7375   53.1291   28.0598 C   0  0  0  0  0  0
    3.2360   52.4499   28.9569 O   0  0  0  0  0  0
    3.5491   53.6048   26.8684 C   0  0  0  0  0  0
    2.9307   53.6817   25.6083 C   0  0  0  0  0  0
    3.6581   53.9804   24.4604 C   0  0  0  0  0  0
    5.0150   54.2671   24.5554 C   0  0  0  0  0  0
    5.6426   54.2171   25.7938 C   0  0  0  0  0  0
    4.9356   53.8676   26.9612 C   0  0  0  0  0  0
    5.5618   53.7772   28.1935 O   0  0  0  0  0  0
    6.9872   53.7676   28.2504 C   0  0  0  0  0  0
    2.8449   53.9474   22.8754 S   0  0  0  0  0  0
    1.5045   54.4966   23.0919 O   0  0  0  0  0  0
    3.7755   54.4967   21.8870 O   0  0  0  0  0  0
    2.6362   52.2675   22.4816 N   0  0  0  0  0  0
   -3.4998   49.8089   26.4857 C   0  0  0  0  0  0
    0.8952   50.4233   23.7681 H   0  0  0  0  0  0
    1.2741   48.9007   24.5603 H   0  0  0  0  0  0
   -0.0767   48.9917   23.4431 H   0  0  0  0  0  0
   -2.1761   50.2657   24.1106 H   0  0  0  0  0  0
   -1.2919   51.6921   24.5088 H   0  0  0  0  0  0
   -1.6285   52.7124   27.0287 H   0  0  0  0  0  0
   -2.5708   51.6964   28.1663 H   0  0  0  0  0  0
    1.1004   49.9866   26.8833 H   0  0  0  0  0  0
    0.7233   51.5796   26.1806 H   0  0  0  0  0  0
   -0.6029   51.2008   29.7508 H   0  0  0  0  0  0
    0.9806   50.8967   29.0720 H   0  0  0  0  0  0
   -0.1851   53.1924   31.0632 H   0  0  0  0  0  0
    1.5336   53.1083   30.8192 H   0  0  0  0  0  0
    0.6526   54.6011   30.4429 H   0  0  0  0  0  0
    1.1343   54.0778   27.3015 H   0  0  0  0  0  0
    1.8812   53.4530   25.4886 H   0  0  0  0  0  0
    5.5951   54.5029   23.6738 H   0  0  0  0  0  0
    6.6987   54.4304   25.8156 H   0  0  0  0  0  0
    7.3212   53.6967   29.2817 H   0  0  0  0  0  0
    7.3977   52.9123   27.7119 H   0  0  0  0  0  0
    7.4193   54.6841   27.8492 H   0  0  0  0  0  0
    1.6744   52.0361   22.2237 H   0  0  0  0  0  0
    3.3076   51.9488   21.7778 H   0  0  0  0  0  0
   -2.8955   48.9962   26.8818 H   0  0  0  0  0  0
   -4.0509   49.4151   25.6317 H   0  0  0  0  0  0
   -4.2331   50.0663   27.2513 H   0  0  0  0  0  0
   -0.9947   49.9673   27.9578 H   0  0  0  0  0  0
  1  2  1  0  0  0
  1 30  1  0  0  0
  1 31  1  0  0  0
  1 32  1  0  0  0
  2  3  1  0  0  0
  2  9  1  0  0  0
  2  4  1  0  0  0
  4  5  1  0  0  0
  4 33  1  0  0  0
  4 34  1  0  0  0
  5  6  1  0  0  0
  5  7  1  0  0  0
  5 29  1  0  0  0
  7  8  1  0  0  0
  7 35  1  0  0  0
  7 36  1  0  0  0
  8  9  1  0  0  0
  8 10  1  0  0  0
  8 56  1  0  0  0
  9 37  1  0  0  0
  9 38  1  0  0  0
 10 11  1  0  0  0
 10 39  1  0  0  0
 10 40  1  0  0  0
 11 12  1  0  0  0
 11 13  1  0  0  0
 11 14  1  0  0  0
 13 41  1  0  0  0
 13 42  1  0  0  0
 13 43  1  0  0  0
 14 15  1  0  0  0
 14 44  1  0  0  0
 15 16  2  0  0  0
 15 17  1  0  0  0
 17 22  2  0  0  0
 17 18  1  0  0  0
 18 19  2  0  0  0
 18 45  1  0  0  0
 19 20  1  0  0  0
 19 25  1  0  0  0
 20 21  2  0  0  0
 20 46  1  0  0  0
 21 22  1  0  0  0
 21 47  1  0  0  0
 22 23  1  0  0  0
 23 24  1  0  0  0
 24 48  1  0  0  0
 24 49  1  0  0  0
 24 50  1  0  0  0
 25 26  2  0  0  0
 25 27  2  0  0  0
 25 28  1  0  0  0
 28 51  1  0  0  0
 28 52  1  0  0  0
 29 53  1  0  0  0
 29 54  1  0  0  0
 29 55  1  0  0  0
M  CHG  1   8   1
M  END
> <i_i_glide_confnum>
10

> <i_i_glide_lignum>
6209

> <i_i_glide_posenum>
239

> <i_i_glide_rotatable_bonds>
7

> <i_m_Source_File_Index>
1035

> <b_m_subgroup_collapsed>
0

> <r_i_docking_score>
-5.00702

> <r_i_glide_ecoul>
-2.2299

> <r_i_glide_eff_state_penalty>
0

> <r_i_glide_einternal>
14.0726

> <r_i_glide_emodel>
-46.6583

> <r_i_glide_energy>
-40.1886

> <r_i_glide_erotb>
0.657532

> <r_i_glide_esite>
-0.1

> <r_i_glide_evdw>
-37.9587

> <r_i_glide_gscore>
-5.00702

> <r_i_glide_hbond>
-0.2

> <r_i_glide_ligand_efficiency>
-0.192578

> <r_i_glide_ligand_efficiency_ln>
-1.17588

> <r_i_glide_ligand_efficiency_sa>
-0.570511

> <r_i_glide_lipo>
-1.90707

> <r_i_glide_metal>
0

> <r_i_glide_rewards>
-1.22506

> <s_i_glide_gridfile>
wee1_glide-grid

> <s_m_Source_File>
wee1_decoys_glide_SP.sdf

> <s_m_Source_Path>
/Users/zhangxujun/Desktop

> <s_m_entry_id>
1310

> <s_m_entry_name>
wee1_decoys_glide_SP.1035

> <s_m_subgroup_title>
wee1_decoys_glide_SP

> <s_m_subgroupid>
wee1_decoys_glide_SP


$$$$
