ZINC16572283_4480
                    3D
 Schrodinger Suite 2024-2.
 66 70  0  0  1  0            999 V2000
    6.4956   53.6492   15.3500 C   0  0  0  0  0  0
    6.0346   53.5541   16.8134 C   0  0  0  0  0  0
    4.7139   54.3220   17.0982 C   0  0  2  0  0  0
    4.0354   54.0571   16.2847 H   0  0  0  0  0  0
    4.8954   55.8501   16.9788 C   0  0  0  0  0  0
    3.9625   53.8943   18.4034 C   0  0  2  0  0  0
    3.0599   54.5096   18.4601 H   0  0  0  0  0  0
    4.7507   54.1784   19.7187 C   0  0  0  0  0  0
    5.8925   54.6432   19.6891 O   0  0  0  0  0  0
    4.0791   53.8873   20.8526 N   0  0  0  0  0  0
    4.5320   54.0465   22.1486 C   0  0  0  0  0  0
    5.7525   54.3119   22.5642 N   0  0  0  0  0  0
    5.8309   54.3725   23.9517 N   0  0  0  0  0  0
    4.6755   54.1537   24.5452 C   0  0  0  0  0  0
    3.3689   53.8696   23.4178 S   0  0  0  0  0  0
    4.4789   54.0978   26.0279 C   0  0  0  0  0  0
    3.1970   53.9551   26.5733 C   0  0  0  0  0  0
    3.0235   53.8510   27.9475 C   0  0  0  0  0  0
    4.1329   53.8842   28.7865 C   0  0  0  0  0  0
    5.4134   54.0504   28.2640 C   0  0  0  0  0  0
    5.5849   54.1556   26.8868 C   0  0  0  0  0  0
    3.9045   53.6967   30.4816 Cl  0  0  0  0  0  0
    3.5193   52.4968   18.2930 N   0  0  0  0  0  0
    2.4867   51.9246   18.9220 C   0  0  0  0  0  0
    1.7860   52.4925   19.7621 O   0  0  0  0  0  0
    2.3040   50.6677   18.4907 N   0  0  0  0  0  0
    1.1609   49.7875   18.7577 C   0  0  0  0  0  0
   -0.2020   50.4233   18.3215 C   0  0  0  0  0  0
   -1.3828   49.4478   18.5634 C   0  0  2  0  0  0
   -1.4490   49.0891   20.0699 C   0  0  0  0  0  0
   -0.1258   48.4114   20.5067 C   0  0  2  0  0  0
    1.0547   49.3888   20.2668 C   0  0  0  0  0  0
    0.1026   47.1263   19.6704 C   0  0  0  0  0  0
    0.1695   47.4901   18.1664 C   0  0  1  0  0  0
   -1.1572   48.1605   17.7319 C   0  0  0  0  0  0
    1.3439   48.4751   17.9359 C   0  0  0  0  0  0
    7.2697   52.9102   15.1411 H   0  0  0  0  0  0
    5.6732   53.4747   14.6528 H   0  0  0  0  0  0
    6.9174   54.6331   15.1324 H   0  0  0  0  0  0
    6.8356   53.9273   17.4524 H   0  0  0  0  0  0
    5.9214   52.4971   17.0637 H   0  0  0  0  0  0
    5.6296   56.2318   17.6889 H   0  0  0  0  0  0
    5.2302   56.1318   15.9800 H   0  0  0  0  0  0
    3.9533   56.3709   17.1610 H   0  0  0  0  0  0
    3.1317   53.5437   20.7381 H   0  0  0  0  0  0
    2.3220   53.9080   25.9446 H   0  0  0  0  0  0
    2.0323   53.7245   28.3584 H   0  0  0  0  0  0
    6.2715   54.0897   28.9186 H   0  0  0  0  0  0
    6.5857   54.2558   26.4965 H   0  0  0  0  0  0
    4.1829   51.8716   17.8509 H   0  0  0  0  0  0
    3.0336   50.2584   17.9186 H   0  0  0  0  0  0
   -0.1617   50.7045   17.2679 H   0  0  0  0  0  0
   -0.3867   51.3495   18.8672 H   0  0  0  0  0  0
   -2.3150   49.9232   18.2576 H   0  0  0  0  0  0
   -2.2943   48.4256   20.2639 H   0  0  0  0  0  0
   -1.6277   49.9878   20.6652 H   0  0  0  0  0  0
   -0.1780   48.1589   21.5662 H   0  0  0  0  0  0
    0.9194   50.2756   20.8884 H   0  0  0  0  0  0
    1.9905   48.9346   20.6024 H   0  0  0  0  0  0
   -0.6967   46.4061   19.8560 H   0  0  0  0  0  0
    1.0291   46.6424   19.9724 H   0  0  0  0  0  0
    0.3330   46.5860   17.5785 H   0  0  0  0  0  0
   -1.1297   48.3992   16.6687 H   0  0  0  0  0  0
   -1.9940   47.4717   17.8667 H   0  0  0  0  0  0
    2.2890   47.9948   18.1994 H   0  0  0  0  0  0
    1.4246   48.7090   16.8725 H   0  0  0  0  0  0
  1  2  1  0  0  0
  1 37  1  0  0  0
  1 38  1  0  0  0
  1 39  1  0  0  0
  2  3  1  0  0  0
  2 40  1  0  0  0
  2 41  1  0  0  0
  3  4  1  0  0  0
  3  5  1  0  0  0
  3  6  1  0  0  0
  5 42  1  0  0  0
  5 43  1  0  0  0
  5 44  1  0  0  0
  6  7  1  0  0  0
  6  8  1  0  0  0
  6 23  1  0  0  0
  8  9  2  0  0  0
  8 10  1  0  0  0
 10 11  1  0  0  0
 10 45  1  0  0  0
 11 15  1  0  0  0
 11 12  2  0  0  0
 12 13  1  0  0  0
 13 14  2  0  0  0
 14 15  1  0  0  0
 14 16  1  0  0  0
 16 21  2  0  0  0
 16 17  1  0  0  0
 17 18  2  0  0  0
 17 46  1  0  0  0
 18 19  1  0  0  0
 18 47  1  0  0  0
 19 20  2  0  0  0
 19 22  1  0  0  0
 20 21  1  0  0  0
 20 48  1  0  0  0
 21 49  1  0  0  0
 23 24  1  0  0  0
 23 50  1  0  0  0
 24 25  2  0  0  0
 24 26  1  0  0  0
 26 27  1  0  0  0
 26 51  1  0  0  0
 27 32  1  0  0  0
 27 36  1  0  0  0
 27 28  1  0  0  0
 28 29  1  0  0  0
 28 52  1  0  0  0
 28 53  1  0  0  0
 29 35  1  0  0  0
 29 30  1  0  0  0
 29 54  1  0  0  0
 30 31  1  0  0  0
 30 55  1  0  0  0
 30 56  1  0  0  0
 31 32  1  0  0  0
 31 33  1  0  0  0
 31 57  1  0  0  0
 32 58  1  0  0  0
 32 59  1  0  0  0
 33 34  1  0  0  0
 33 60  1  0  0  0
 33 61  1  0  0  0
 34 35  1  0  0  0
 34 36  1  0  0  0
 34 62  1  0  0  0
 35 63  1  0  0  0
 35 64  1  0  0  0
 36 65  1  0  0  0
 36 66  1  0  0  0
M  END
> <i_i_glide_confnum>
169

> <i_i_glide_lignum>
4481

> <i_i_glide_posenum>
112

> <i_i_glide_rotatable_bonds>
10

> <i_m_Source_File_Index>
4877

> <b_m_subgroup_collapsed>
0

> <r_i_docking_score>
-4.97622

> <r_i_glide_ecoul>
-6.03853

> <r_i_glide_eff_state_penalty>
0

> <r_i_glide_einternal>
7.00657

> <r_i_glide_emodel>
-55.2138

> <r_i_glide_energy>
-43.8422

> <r_i_glide_erotb>
0.648397

> <r_i_glide_esite>
-0.227694

> <r_i_glide_evdw>
-37.8037

> <r_i_glide_gscore>
-4.97622

> <r_i_glide_hbond>
-0.312313

> <r_i_glide_ligand_efficiency>
-0.14636

> <r_i_glide_ligand_efficiency_ln>
-1.09939

> <r_i_glide_ligand_efficiency_sa>
-0.474148

> <r_i_glide_lipo>
-2.21026

> <r_i_glide_metal>
0

> <r_i_glide_rewards>
-0.0783936

> <s_i_glide_gridfile>
wee1_glide-grid

> <s_m_Source_File>
wee1_decoys_glide_SP.sdf

> <s_m_Source_Path>
/Users/zhangxujun/Desktop

> <s_m_entry_id>
5152

> <s_m_entry_name>
wee1_decoys_glide_SP.4877

> <s_m_subgroup_title>
wee1_decoys_glide_SP

> <s_m_subgroupid>
wee1_decoys_glide_SP


$$$$
