ZINC35166881_5316
                    3D
 Schrodinger Suite 2024-2.
 57 60  0  0  1  0            999 V2000
   -0.4860   52.1088   29.5823 C   0  0  0  0  0  0
    0.1614   52.7616   28.3523 C   0  0  1  0  0  0
   -0.4960   53.5795   28.0497 H   0  0  0  0  0  0
    1.5260   53.3618   28.7090 C   0  0  0  0  0  0
    2.6777   52.5668   28.7130 C   0  0  0  0  0  0
    3.9162   53.1313   29.0004 C   0  0  0  0  0  0
    4.0034   54.4915   29.2811 C   0  0  0  0  0  0
    2.8620   55.2929   29.2815 C   0  0  0  0  0  0
    1.6238   54.7264   28.9960 C   0  0  0  0  0  0
    0.1666   51.8187   27.2269 N   0  0  0  0  0  0
    0.5846   52.0762   25.9703 C   0  0  0  0  0  0
    1.1048   53.1525   25.6673 O   0  0  0  0  0  0
    0.3904   50.9681   24.9354 C   0  0  0  0  0  0
   -0.3631   49.8244   25.2735 C   0  0  0  0  0  0
   -0.5932   48.8029   24.3587 C   0  0  0  0  0  0
   -0.0808   48.8971   23.0729 C   0  0  0  0  0  0
    0.6967   49.9930   22.7125 C   0  0  0  0  0  0
    0.9532   51.0292   23.6272 C   0  0  0  0  0  0
    1.7141   52.1547   23.2374 N   0  0  0  0  0  0
    2.6912   52.2679   22.3124 C   0  0  0  0  0  0
    3.1573   51.3213   21.6786 O   0  0  0  0  0  0
    3.2489   53.6981   22.1455 C   0  0  1  0  0  0
    2.3703   54.3468   22.1004 H   0  0  0  0  0  0
    4.1953   54.0699   23.2679 C   0  0  0  0  0  0
    5.5083   54.4965   22.6270 C   0  0  0  0  0  0
    6.4899   54.8208   23.2939 O   0  0  0  0  0  0
    5.3519   54.4767   21.2674 N   0  0  0  0  0  0
    4.0514   53.9047   20.8681 C   0  0  0  0  0  0
    6.3215   54.8972   20.3082 C   0  0  0  0  0  0
    7.4385   55.6918   20.6414 C   0  0  0  0  0  0
    8.4007   56.0016   19.6860 C   0  0  0  0  0  0
    8.2478   55.5583   18.3779 C   0  0  0  0  0  0
    7.1336   54.8104   18.0147 C   0  0  0  0  0  0
    6.1766   54.4858   18.9720 C   0  0  0  0  0  0
    9.5769   55.9713   17.0821 Br  0  0  0  0  0  0
   -0.6143   52.8277   30.3924 H   0  0  0  0  0  0
   -1.4669   51.6928   29.3509 H   0  0  0  0  0  0
    0.1281   51.2967   29.9649 H   0  0  0  0  0  0
    2.6115   51.5138   28.4801 H   0  0  0  0  0  0
    4.8073   52.5199   28.9918 H   0  0  0  0  0  0
    4.9690   54.9313   29.4924 H   0  0  0  0  0  0
    2.9363   56.3503   29.4928 H   0  0  0  0  0  0
    0.7448   55.3536   28.9930 H   0  0  0  0  0  0
   -0.3440   50.9622   27.3825 H   0  0  0  0  0  0
   -0.7997   49.6921   26.2534 H   0  0  0  0  0  0
   -1.1784   47.9439   24.6521 H   0  0  0  0  0  0
   -0.2784   48.1144   22.3573 H   0  0  0  0  0  0
    1.0745   50.0347   21.7034 H   0  0  0  0  0  0
    1.5852   52.9456   23.8595 H   0  0  0  0  0  0
    4.3842   53.2962   24.0066 H   0  0  0  0  0  0
    3.7912   54.9034   23.8370 H   0  0  0  0  0  0
    3.5219   54.6052   20.2173 H   0  0  0  0  0  0
    4.2110   52.9763   20.3183 H   0  0  0  0  0  0
    7.6063   56.0603   21.6398 H   0  0  0  0  0  0
    9.2744   56.5754   19.9614 H   0  0  0  0  0  0
    7.0205   54.4662   16.9982 H   0  0  0  0  0  0
    5.3433   53.8772   18.6549 H   0  0  0  0  0  0
  1  2  1  0  0  0
  1 36  1  0  0  0
  1 37  1  0  0  0
  1 38  1  0  0  0
  2  3  1  0  0  0
  2  4  1  0  0  0
  2 10  1  0  0  0
  4  9  2  0  0  0
  4  5  1  0  0  0
  5  6  2  0  0  0
  5 39  1  0  0  0
  6  7  1  0  0  0
  6 40  1  0  0  0
  7  8  2  0  0  0
  7 41  1  0  0  0
  8  9  1  0  0  0
  8 42  1  0  0  0
  9 43  1  0  0  0
 10 11  1  0  0  0
 10 44  1  0  0  0
 11 12  2  0  0  0
 11 13  1  0  0  0
 13 18  2  0  0  0
 13 14  1  0  0  0
 14 15  2  0  0  0
 14 45  1  0  0  0
 15 16  1  0  0  0
 15 46  1  0  0  0
 16 17  2  0  0  0
 16 47  1  0  0  0
 17 18  1  0  0  0
 17 48  1  0  0  0
 18 19  1  0  0  0
 19 20  1  0  0  0
 19 49  1  0  0  0
 20 21  2  0  0  0
 20 22  1  0  0  0
 22 23  1  0  0  0
 22 28  1  0  0  0
 22 24  1  0  0  0
 24 25  1  0  0  0
 24 50  1  0  0  0
 24 51  1  0  0  0
 25 26  2  0  0  0
 25 27  1  0  0  0
 27 28  1  0  0  0
 27 29  1  0  0  0
 28 52  1  0  0  0
 28 53  1  0  0  0
 29 34  2  0  0  0
 29 30  1  0  0  0
 30 31  2  0  0  0
 30 54  1  0  0  0
 31 32  1  0  0  0
 31 55  1  0  0  0
 32 33  2  0  0  0
 32 35  1  0  0  0
 33 34  1  0  0  0
 33 56  1  0  0  0
 34 57  1  0  0  0
M  END
> <i_i_glide_confnum>
18

> <i_i_glide_lignum>
5317

> <i_i_glide_posenum>
198

> <i_i_glide_rotatable_bonds>
8

> <i_m_Source_File_Index>
3504

> <b_m_subgroup_collapsed>
0

> <r_i_docking_score>
-5.45502

> <r_i_glide_ecoul>
-3.15348

> <r_i_glide_eff_state_penalty>
0

> <r_i_glide_einternal>
4.57177

> <r_i_glide_emodel>
-66.8683

> <r_i_glide_energy>
-51.6342

> <r_i_glide_erotb>
0.558503

> <r_i_glide_esite>
-0.00186411

> <r_i_glide_evdw>
-48.4807

> <r_i_glide_gscore>
-5.45502

> <r_i_glide_hbond>
0

> <r_i_glide_ligand_efficiency>
-0.165304

> <r_i_glide_ligand_efficiency_ln>
-1.21317

> <r_i_glide_ligand_efficiency_sa>
-0.530217

> <r_i_glide_lipo>
-2.52291

> <r_i_glide_metal>
0

> <r_i_glide_rewards>
-0.591691

> <s_i_glide_gridfile>
wee1_glide-grid

> <s_m_Source_File>
wee1_decoys_glide_SP.sdf

> <s_m_Source_Path>
/Users/zhangxujun/Desktop

> <s_m_entry_id>
3779

> <s_m_entry_name>
wee1_decoys_glide_SP.3504

> <s_m_subgroup_title>
wee1_decoys_glide_SP

> <s_m_subgroupid>
wee1_decoys_glide_SP


$$$$
