ZINC08984482_4418
                    3D
 Schrodinger Suite 2024-2.
 44 46  0  0  1  0            999 V2000
    6.7060   55.1974   21.8778 C   0  0  0  0  0  0
    5.6280   54.9018   21.0462 C   0  0  0  0  0  0
    4.4662   54.3526   21.5817 C   0  0  0  0  0  0
    4.3823   54.0684   22.9466 C   0  0  0  0  0  0
    5.4820   54.3197   23.7859 C   0  0  0  0  0  0
    6.6384   54.8945   23.2365 C   0  0  0  0  0  0
    5.4207   53.9122   25.1310 N   0  0  0  0  0  0
    6.0444   54.4425   26.2024 C   0  0  0  0  0  0
    6.7043   55.4813   26.1717 O   0  0  0  0  0  0
    5.9524   53.6348   27.5035 C   0  0  0  0  0  0
    5.1143   54.4966   28.8775 S   0  0  0  0  0  0
    3.7487   53.4206   29.1057 C   0  0  0  0  0  0
    3.4916   52.7874   30.2231 N   0  0  0  0  0  0
    2.2973   52.0966   30.0441 N   0  0  0  0  0  0
    1.8580   52.3813   28.8437 C   0  0  0  0  0  0
    2.7057   53.2742   28.2255 N   0  0  0  0  0  0
    2.5498   53.9006   27.0060 N   0  0  0  0  0  0
    0.6028   51.7947   28.2119 C   0  0  0  0  0  0
   -0.4931   52.8431   27.9246 C   0  0  0  0  0  0
   -1.7057   52.2946   27.1426 C   0  0  0  0  0  0
   -1.2909   51.5428   25.8726 C   0  0  0  0  0  0
   -0.3264   50.4084   26.2292 C   0  0  0  0  0  0
    0.9170   50.9147   26.9792 C   0  0  0  0  0  0
    2.5785   53.2642   23.6464 I   0  0  0  0  0  0
    7.6074   55.6300   21.4685 H   0  0  0  0  0  0
    5.6856   55.1149   19.9882 H   0  0  0  0  0  0
    3.6253   54.1478   20.9350 H   0  0  0  0  0  0
    7.5034   55.0947   23.8486 H   0  0  0  0  0  0
    4.9330   53.0403   25.2734 H   0  0  0  0  0  0
    5.5051   52.6551   27.3333 H   0  0  0  0  0  0
    6.9749   53.4358   27.8276 H   0  0  0  0  0  0
    2.4862   54.9032   27.1028 H   0  0  0  0  0  0
    3.2239   53.6042   26.3192 H   0  0  0  0  0  0
    0.1079   51.1014   28.8976 H   0  0  0  0  0  0
   -0.8378   53.2902   28.8570 H   0  0  0  0  0  0
   -0.0578   53.6044   27.2838 H   0  0  0  0  0  0
   -2.2789   51.6256   27.7891 H   0  0  0  0  0  0
   -2.3792   53.1078   26.8727 H   0  0  0  0  0  0
   -2.1727   51.1393   25.3742 H   0  0  0  0  0  0
   -0.8189   52.2283   25.1672 H   0  0  0  0  0  0
   -0.8514   49.6967   26.8605 H   0  0  0  0  0  0
   -0.0296   49.8632   25.3317 H   0  0  0  0  0  0
    1.4679   51.5123   26.2546 H   0  0  0  0  0  0
    1.5045   50.0496   27.2813 H   0  0  0  0  0  0
  1  6  2  0  0  0
  1  2  1  0  0  0
  1 25  1  0  0  0
  2  3  2  0  0  0
  2 26  1  0  0  0
  3  4  1  0  0  0
  3 27  1  0  0  0
  4  5  2  0  0  0
  4 24  1  0  0  0
  5  6  1  0  0  0
  5  7  1  0  0  0
  6 28  1  0  0  0
  7  8  1  0  0  0
  7 29  1  0  0  0
  8  9  2  0  0  0
  8 10  1  0  0  0
 10 11  1  0  0  0
 10 30  1  0  0  0
 10 31  1  0  0  0
 11 12  1  0  0  0
 12 16  1  0  0  0
 12 13  2  0  0  0
 13 14  1  0  0  0
 14 15  2  0  0  0
 15 16  1  0  0  0
 15 18  1  0  0  0
 16 17  1  0  0  0
 17 32  1  0  0  0
 17 33  1  0  0  0
 18 23  1  0  0  0
 18 19  1  0  0  0
 18 34  1  0  0  0
 19 20  1  0  0  0
 19 35  1  0  0  0
 19 36  1  0  0  0
 20 21  1  0  0  0
 20 37  1  0  0  0
 20 38  1  0  0  0
 21 22  1  0  0  0
 21 39  1  0  0  0
 21 40  1  0  0  0
 22 23  1  0  0  0
 22 41  1  0  0  0
 22 42  1  0  0  0
 23 43  1  0  0  0
 23 44  1  0  0  0
M  END
> <i_i_glide_confnum>
13

> <i_i_glide_lignum>
4419

> <i_i_glide_posenum>
142

> <i_i_glide_rotatable_bonds>
6

> <i_m_Source_File_Index>
3706

> <b_m_subgroup_collapsed>
0

> <r_i_docking_score>
-6.45644

> <r_i_glide_ecoul>
-7.4481

> <r_i_glide_eff_state_penalty>
0

> <r_i_glide_einternal>
5.13292

> <r_i_glide_emodel>
-62.1519

> <r_i_glide_energy>
-45.9356

> <r_i_glide_erotb>
0.480605

> <r_i_glide_esite>
-0.0257033

> <r_i_glide_evdw>
-38.4875

> <r_i_glide_gscore>
-6.45644

> <r_i_glide_hbond>
-0.32

> <r_i_glide_ligand_efficiency>
-0.269018

> <r_i_glide_ligand_efficiency_ln>
-1.54532

> <r_i_glide_ligand_efficiency_sa>
-0.775984

> <r_i_glide_lipo>
-1.98509

> <r_i_glide_metal>
0

> <r_i_glide_rewards>
-1.56467

> <s_i_glide_gridfile>
wee1_glide-grid

> <s_m_Source_File>
wee1_decoys_glide_SP.sdf

> <s_m_Source_Path>
/Users/zhangxujun/Desktop

> <s_m_entry_id>
3981

> <s_m_entry_name>
wee1_decoys_glide_SP.3706

> <s_m_subgroup_title>
wee1_decoys_glide_SP

> <s_m_subgroupid>
wee1_decoys_glide_SP


$$$$
