ZINC08623718_5425
                    3D
 Schrodinger Suite 2024-2.
 73 77  0  0  1  0            999 V2000
   -6.2262   52.2725   27.3586 C   0  0  0  0  0  0
   -5.0869   51.4559   27.6112 O   0  0  0  0  0  0
   -3.9962   51.5465   26.7708 C   0  0  0  0  0  0
   -3.0159   50.5616   26.9056 C   0  0  0  0  0  0
   -1.8938   50.5534   26.0832 C   0  0  0  0  0  0
   -1.7331   51.5493   25.1174 C   0  0  0  0  0  0
   -2.7001   52.5504   24.9894 C   0  0  0  0  0  0
   -3.8225   52.5517   25.8103 C   0  0  0  0  0  0
   -0.5720   51.5541   24.1915 C   0  0  0  0  0  0
    0.0438   52.5373   23.4513 C   0  0  0  0  0  0
    0.9880   51.8864   22.6632 C   0  0  0  0  0  0
    1.0200   50.5971   22.9416 N   0  0  0  0  0  0
    0.0432   50.3751   23.9135 O   0  0  0  0  0  0
    1.8626   52.4944   21.5778 C   0  0  0  0  0  0
    3.3484   52.0051   21.5666 C   0  0  1  0  0  0
    3.4661   51.1771   22.2652 H   0  0  0  0  0  0
    3.7344   51.3979   20.2016 C   0  0  0  0  0  0
    4.9339   53.5699   19.5410 C   0  0  0  0  0  0
    4.5263   54.1706   20.8976 C   0  0  0  0  0  0
    4.3806   53.0921   21.9981 C   0  0  1  0  0  0
    5.3387   52.5710   22.0816 H   0  0  0  0  0  0
    4.0163   53.7175   23.3781 C   0  0  0  0  0  0
    5.1909   54.1112   24.3001 C   0  0  0  0  0  0
    6.3380   54.0952   23.8489 O   0  0  0  0  0  0
    4.9262   54.3313   25.6144 N   0  0  0  0  0  0
    5.9997   54.5380   26.6009 C   0  0  0  0  0  0
    5.7961   53.4687   27.6980 C   0  0  0  0  0  0
    4.3632   53.4053   28.2261 C   0  0  0  0  0  0
    4.0771   52.7871   29.4485 C   0  0  0  0  0  0
    2.7692   52.6987   29.9488 C   0  0  0  0  0  0
    1.7293   53.2478   29.1872 C   0  0  0  0  0  0
    2.0057   53.8669   27.9689 C   0  0  0  0  0  0
    3.3072   53.9463   27.4689 C   0  0  0  0  0  0
    3.5751   54.6240   26.1233 C   0  0  0  0  0  0
    0.4288   53.2244   29.6282 O   0  0  0  0  0  0
   -0.2862   52.0458   29.2789 C   0  0  0  0  0  0
    2.4463   52.0976   31.1549 O   0  0  0  0  0  0
    3.4812   51.6964   32.0495 C   0  0  0  0  0  0
   -7.0240   51.9951   28.0470 H   0  0  0  0  0  0
   -6.0138   53.3310   27.5114 H   0  0  0  0  0  0
   -6.6029   52.1267   26.3447 H   0  0  0  0  0  0
   -3.1333   49.7856   27.6505 H   0  0  0  0  0  0
   -1.1563   49.7704   26.2074 H   0  0  0  0  0  0
   -2.5902   53.3276   24.2465 H   0  0  0  0  0  0
   -4.5535   53.3366   25.6835 H   0  0  0  0  0  0
   -0.1937   53.5881   23.4496 H   0  0  0  0  0  0
    1.8329   53.5779   21.6835 H   0  0  0  0  0  0
    1.3846   52.3302   20.6126 H   0  0  0  0  0  0
    4.6995   50.8952   20.2464 H   0  0  0  0  0  0
    2.9957   50.7014   19.8049 H   0  0  0  0  0  0
    5.9031   53.0653   19.5764 H   0  0  0  0  0  0
    4.9488   54.3094   18.7402 H   0  0  0  0  0  0
    3.6010   54.7387   20.7899 H   0  0  0  0  0  0
    5.2633   54.9140   21.2111 H   0  0  0  0  0  0
    3.4389   52.9792   23.9355 H   0  0  0  0  0  0
    3.3789   54.5915   23.2427 H   0  0  0  0  0  0
    7.0006   54.4641   26.1731 H   0  0  0  0  0  0
    5.9550   55.5378   27.0349 H   0  0  0  0  0  0
    6.5002   53.6460   28.5124 H   0  0  0  0  0  0
    6.0631   52.4978   27.2900 H   0  0  0  0  0  0
    4.9015   52.3539   29.9851 H   0  0  0  0  0  0
    1.1886   54.2912   27.4055 H   0  0  0  0  0  0
    2.7744   54.3534   25.4363 H   0  0  0  0  0  0
    3.5047   55.6966   26.2609 H   0  0  0  0  0  0
   -1.2956   52.0900   29.6879 H   0  0  0  0  0  0
   -0.3716   51.9371   28.1983 H   0  0  0  0  0  0
    0.1905   51.1544   29.6806 H   0  0  0  0  0  0
    3.0460   51.1325   32.8779 H   0  0  0  0  0  0
    4.0134   52.5487   32.4722 H   0  0  0  0  0  0
    4.2080   51.0424   31.5771 H   0  0  0  0  0  0
    3.9060   52.4969   19.1357 N   0  3  0  0  0  0
    4.2333   52.0193   18.2992 H   0  0  0  0  0  0
    3.0168   52.9248   18.9201 H   0  0  0  0  0  0
  1  2  1  0  0  0
  1 39  1  0  0  0
  1 40  1  0  0  0
  1 41  1  0  0  0
  2  3  1  0  0  0
  3  8  2  0  0  0
  3  4  1  0  0  0
  4  5  2  0  0  0
  4 42  1  0  0  0
  5  6  1  0  0  0
  5 43  1  0  0  0
  6  7  2  0  0  0
  6  9  1  0  0  0
  7  8  1  0  0  0
  7 44  1  0  0  0
  8 45  1  0  0  0
  9 13  1  0  0  0
  9 10  2  0  0  0
 10 11  1  0  0  0
 10 46  1  0  0  0
 11 12  2  0  0  0
 11 14  1  0  0  0
 12 13  1  0  0  0
 14 15  1  0  0  0
 14 47  1  0  0  0
 14 48  1  0  0  0
 15 16  1  0  0  0
 15 20  1  0  0  0
 15 17  1  0  0  0
 17 49  1  0  0  0
 17 50  1  0  0  0
 17 71  1  0  0  0
 18 19  1  0  0  0
 18 51  1  0  0  0
 18 52  1  0  0  0
 18 71  1  0  0  0
 19 20  1  0  0  0
 19 53  1  0  0  0
 19 54  1  0  0  0
 20 21  1  0  0  0
 20 22  1  0  0  0
 22 23  1  0  0  0
 22 55  1  0  0  0
 22 56  1  0  0  0
 23 24  2  0  0  0
 23 25  1  0  0  0
 25 34  1  0  0  0
 25 26  1  0  0  0
 26 27  1  0  0  0
 26 57  1  0  0  0
 26 58  1  0  0  0
 27 28  1  0  0  0
 27 59  1  0  0  0
 27 60  1  0  0  0
 28 33  2  0  0  0
 28 29  1  0  0  0
 29 30  2  0  0  0
 29 61  1  0  0  0
 30 31  1  0  0  0
 30 37  1  0  0  0
 31 32  2  0  0  0
 31 35  1  0  0  0
 32 33  1  0  0  0
 32 62  1  0  0  0
 33 34  1  0  0  0
 34 63  1  0  0  0
 34 64  1  0  0  0
 35 36  1  0  0  0
 36 65  1  0  0  0
 36 66  1  0  0  0
 36 67  1  0  0  0
 37 38  1  0  0  0
 38 68  1  0  0  0
 38 69  1  0  0  0
 38 70  1  0  0  0
 71 72  1  0  0  0
 71 73  1  0  0  0
M  CHG  1  71   1
M  END
> <i_i_glide_confnum>
220

> <i_i_glide_lignum>
5426

> <i_i_glide_posenum>
231

> <i_i_glide_rotatable_bonds>
9

> <i_m_Source_File_Index>
4000

> <b_m_subgroup_collapsed>
0

> <r_i_docking_score>
-6.34658

> <r_i_glide_ecoul>
-2.22703

> <r_i_glide_eff_state_penalty>
0

> <r_i_glide_einternal>
13.3161

> <r_i_glide_emodel>
-66.1334

> <r_i_glide_energy>
-48.6906

> <r_i_glide_erotb>
0.478331

> <r_i_glide_esite>
-0.071904

> <r_i_glide_evdw>
-46.4635

> <r_i_glide_gscore>
-6.34658

> <r_i_glide_hbond>
-0.438071

> <r_i_glide_ligand_efficiency>
-0.171529

> <r_i_glide_ligand_efficiency_ln>
-1.37643

> <r_i_glide_ligand_efficiency_sa>
-0.571574

> <r_i_glide_lipo>
-2.86851

> <r_i_glide_metal>
0

> <r_i_glide_rewards>
-0.789195

> <s_i_glide_gridfile>
wee1_glide-grid

> <s_m_Source_File>
wee1_decoys_glide_SP.sdf

> <s_m_Source_Path>
/Users/zhangxujun/Desktop

> <s_m_entry_id>
4275

> <s_m_entry_name>
wee1_decoys_glide_SP.4000

> <s_m_subgroup_title>
wee1_decoys_glide_SP

> <s_m_subgroupid>
wee1_decoys_glide_SP


$$$$
