ZINC35667285_84
                    3D
 Schrodinger Suite 2024-2.
 66 69  0  0  1  0            999 V2000
    6.8961   54.6928   17.7522 C   0  0  0  0  0  0
    6.2982   54.6153   19.1451 C   0  0  0  0  0  0
    6.8771   55.3347   20.1927 C   0  0  0  0  0  0
    6.3529   55.2327   21.4788 C   0  0  0  0  0  0
    5.2414   54.4207   21.7179 C   0  0  0  0  0  0
    4.6628   53.6975   20.6646 C   0  0  0  0  0  0
    5.1949   53.7942   19.3820 C   0  0  0  0  0  0
    4.7976   54.3331   23.0479 N   0  0  0  0  0  0
    3.5455   54.0966   23.5097 C   0  0  0  0  0  0
    2.5862   53.9487   22.7526 O   0  0  0  0  0  0
    3.4334   53.9842   24.8705 N   0  0  0  0  0  0
    4.3600   54.7361   25.7551 C   0  0  0  0  0  0
    4.7862   53.7631   26.8634 C   0  0  0  0  0  0
    3.5781   53.3308   27.6700 C   0  0  0  0  0  0
    3.6974   53.0068   29.0228 C   0  0  0  0  0  0
    2.5975   52.5547   29.7647 C   0  0  0  0  0  0
    1.3384   52.5203   29.1596 C   0  0  0  0  0  0
    1.2182   52.8991   27.8192 C   0  0  0  0  0  0
    2.3278   53.2341   27.0349 C   0  0  0  0  0  0
    2.1626   53.5140   25.5222 C   0  0  2  0  0  0
    1.5007   54.3767   25.4600 H   0  0  0  0  0  0
    1.4119   52.3160   24.8389 C   0  0  0  0  0  0
    0.2882   52.7549   24.0055 N   0  0  0  0  0  0
   -1.0110   52.4105   24.0829 C   0  0  0  0  0  0
   -1.8077   52.8946   23.2811 O   0  0  0  0  0  0
   -1.5117   51.4703   25.2106 C   0  0  0  0  0  0
   -3.0164   51.5906   25.5175 C   0  0  0  0  0  0
   -3.3357   50.2600   26.2000 C   0  0  0  0  0  0
   -2.5050   49.2261   25.4332 C   0  0  0  0  0  0
   -1.2711   49.9755   24.8990 C   0  0  0  0  0  0
    0.2634   52.0962   29.9162 O   0  0  0  0  0  0
   -0.8051   51.4198   29.2550 C   0  0  0  0  0  0
    2.6817   52.0967   31.0648 O   0  0  0  0  0  0
    3.9530   51.9366   31.6732 C   0  0  0  0  0  0
    7.9759   54.8425   17.7982 H   0  0  0  0  0  0
    6.7351   53.7626   17.2051 H   0  0  0  0  0  0
    6.4535   55.5149   17.1891 H   0  0  0  0  0  0
    7.7407   55.9578   20.0124 H   0  0  0  0  0  0
    6.8213   55.7789   22.2853 H   0  0  0  0  0  0
    3.8208   53.0416   20.8265 H   0  0  0  0  0  0
    4.7569   53.2177   18.5780 H   0  0  0  0  0  0
    5.5082   54.5030   23.7414 H   0  0  0  0  0  0
    5.2785   55.0480   25.2600 H   0  0  0  0  0  0
    3.9014   55.6314   26.1729 H   0  0  0  0  0  0
    5.3022   52.8973   26.4477 H   0  0  0  0  0  0
    5.5088   54.2554   27.5147 H   0  0  0  0  0  0
    4.6767   53.0750   29.4711 H   0  0  0  0  0  0
    0.2442   52.9087   27.3636 H   0  0  0  0  0  0
    1.1056   51.5607   25.5610 H   0  0  0  0  0  0
    2.0989   51.7607   24.1984 H   0  0  0  0  0  0
    0.5533   53.3551   23.2345 H   0  0  0  0  0  0
   -0.9883   51.7667   26.1136 H   0  0  0  0  0  0
   -3.6177   51.6841   24.6104 H   0  0  0  0  0  0
   -3.2448   52.4432   26.1591 H   0  0  0  0  0  0
   -4.4020   50.0300   26.1850 H   0  0  0  0  0  0
   -3.0204   50.2855   27.2456 H   0  0  0  0  0  0
   -3.0868   48.8213   24.6034 H   0  0  0  0  0  0
   -2.2247   48.3873   26.0742 H   0  0  0  0  0  0
   -0.3649   49.6193   25.3929 H   0  0  0  0  0  0
   -1.1650   49.7767   23.8308 H   0  0  0  0  0  0
   -1.4186   50.9057   29.9948 H   0  0  0  0  0  0
   -1.4534   52.1013   28.7093 H   0  0  0  0  0  0
   -0.4328   50.6698   28.5541 H   0  0  0  0  0  0
    3.8467   51.2220   32.4830 H   0  0  0  0  0  0
    4.7066   51.5209   31.0055 H   0  0  0  0  0  0
    4.3057   52.8833   32.0813 H   0  0  0  0  0  0
  1  2  1  0  0  0
  1 35  1  0  0  0
  1 36  1  0  0  0
  1 37  1  0  0  0
  2  7  2  0  0  0
  2  3  1  0  0  0
  3  4  2  0  0  0
  3 38  1  0  0  0
  4  5  1  0  0  0
  4 39  1  0  0  0
  5  6  2  0  0  0
  5  8  1  0  0  0
  6  7  1  0  0  0
  6 40  1  0  0  0
  7 41  1  0  0  0
  8  9  1  0  0  0
  8 42  1  0  0  0
  9 10  2  0  0  0
  9 11  1  0  0  0
 11 20  1  0  0  0
 11 12  1  0  0  0
 12 13  1  0  0  0
 12 43  1  0  0  0
 12 44  1  0  0  0
 13 14  1  0  0  0
 13 45  1  0  0  0
 13 46  1  0  0  0
 14 19  2  0  0  0
 14 15  1  0  0  0
 15 16  2  0  0  0
 15 47  1  0  0  0
 16 17  1  0  0  0
 16 33  1  0  0  0
 17 18  2  0  0  0
 17 31  1  0  0  0
 18 19  1  0  0  0
 18 48  1  0  0  0
 19 20  1  0  0  0
 20 21  1  0  0  0
 20 22  1  0  0  0
 22 23  1  0  0  0
 22 49  1  0  0  0
 22 50  1  0  0  0
 23 24  1  0  0  0
 23 51  1  0  0  0
 24 25  2  0  0  0
 24 26  1  0  0  0
 26 30  1  0  0  0
 26 27  1  0  0  0
 26 52  1  0  0  0
 27 28  1  0  0  0
 27 53  1  0  0  0
 27 54  1  0  0  0
 28 29  1  0  0  0
 28 55  1  0  0  0
 28 56  1  0  0  0
 29 30  1  0  0  0
 29 57  1  0  0  0
 29 58  1  0  0  0
 30 59  1  0  0  0
 30 60  1  0  0  0
 31 32  1  0  0  0
 32 61  1  0  0  0
 32 62  1  0  0  0
 32 63  1  0  0  0
 33 34  1  0  0  0
 34 64  1  0  0  0
 34 65  1  0  0  0
 34 66  1  0  0  0
M  END
> <i_i_glide_confnum>
709

> <i_i_glide_lignum>
85

> <i_i_glide_posenum>
357

> <i_i_glide_rotatable_bonds>
9

> <i_m_Source_File_Index>
3383

> <b_m_subgroup_collapsed>
0

> <r_i_docking_score>
-4.68583

> <r_i_glide_ecoul>
-3.4247

> <r_i_glide_eff_state_penalty>
0

> <r_i_glide_einternal>
12.7371

> <r_i_glide_emodel>
-52.2518

> <r_i_glide_energy>
-49.2665

> <r_i_glide_erotb>
0.590218

> <r_i_glide_esite>
0

> <r_i_glide_evdw>
-45.8418

> <r_i_glide_gscore>
-4.68583

> <r_i_glide_hbond>
-0.32

> <r_i_glide_ligand_efficiency>
-0.141995

> <r_i_glide_ligand_efficiency_ln>
-1.04211

> <r_i_glide_ligand_efficiency_sa>
-0.455454

> <r_i_glide_lipo>
-2.51587

> <r_i_glide_metal>
0

> <r_i_glide_rewards>
0.365613

> <s_i_glide_gridfile>
wee1_glide-grid

> <s_m_Source_File>
wee1_decoys_glide_SP.sdf

> <s_m_Source_Path>
/Users/zhangxujun/Desktop

> <s_m_entry_id>
3658

> <s_m_entry_name>
wee1_decoys_glide_SP.3383

> <s_m_subgroup_title>
wee1_decoys_glide_SP

> <s_m_subgroupid>
wee1_decoys_glide_SP


$$$$
