ZINC21020606_1884
                    3D
 Schrodinger Suite 2024-2.
 38 39  0  0  1  0            999 V2000
    1.4102   54.3806   29.4414 C   0  0  0  0  0  0
    2.0420   53.0755   28.9097 C   0  0  2  0  0  0
    2.9128   53.3241   27.6511 C   0  0  0  0  0  0
    2.0714   53.5744   26.3796 C   0  0  0  0  0  0
    1.0558   52.4468   26.1083 C   0  0  1  0  0  0
    0.1392   52.3117   27.3477 C   0  0  0  0  0  0
    0.9690   51.9953   28.6128 C   0  0  0  0  0  0
    0.2291   52.8880   24.9554 N   0  0  0  0  0  0
   -0.8468   51.8053   24.0837 S   0  0  0  0  0  0
   -1.1540   52.4734   22.8149 O   0  0  0  0  0  0
   -0.2449   50.4670   24.0945 O   0  0  0  0  0  0
   -2.3842   51.7946   25.0266 C   0  0  0  0  0  0
   -3.2365   52.8945   24.8775 C   0  0  0  0  0  0
   -4.4005   52.9969   25.6355 C   0  0  0  0  0  0
   -4.7283   51.9953   26.5471 C   0  0  0  0  0  0
   -3.9008   50.8821   26.6849 C   0  0  0  0  0  0
   -2.7405   50.7678   25.9188 C   0  0  0  0  0  0
   -1.9581   49.6293   26.0814 N   0  0  0  0  0  0
   -6.1522   52.1395   27.5112 Cl  0  0  0  0  0  0
    0.7410   54.8447   28.7167 H   0  0  0  0  0  0
    2.1761   55.1143   29.6897 H   0  0  0  0  0  0
    0.8311   54.1993   30.3483 H   0  0  0  0  0  0
    2.6989   52.6685   29.6809 H   0  0  0  0  0  0
    3.5855   54.1663   27.8203 H   0  0  0  0  0  0
    3.5657   52.4691   27.4855 H   0  0  0  0  0  0
    2.7186   53.7276   25.5149 H   0  0  0  0  0  0
    1.5217   54.4967   26.5252 H   0  0  0  0  0  0
    1.5033   51.4729   25.9222 H   0  0  0  0  0  0
   -0.5826   51.5141   27.2084 H   0  0  0  0  0  0
   -0.4449   53.2201   27.5072 H   0  0  0  0  0  0
    1.4535   51.0258   28.4814 H   0  0  0  0  0  0
    0.3021   51.8827   29.4698 H   0  0  0  0  0  0
    0.5859   53.6785   24.4142 H   0  0  0  0  0  0
   -2.9900   53.6826   24.1805 H   0  0  0  0  0  0
   -5.0427   53.8576   25.5193 H   0  0  0  0  0  0
   -4.1614   50.1033   27.3875 H   0  0  0  0  0  0
   -1.9743   49.1330   26.9824 H   0  0  0  0  0  0
   -1.1170   49.5758   25.5179 H   0  0  0  0  0  0
  1  2  1  0  0  0
  1 20  1  0  0  0
  1 21  1  0  0  0
  1 22  1  0  0  0
  2  7  1  0  0  0
  2  3  1  0  0  0
  2 23  1  0  0  0
  3  4  1  0  0  0
  3 24  1  0  0  0
  3 25  1  0  0  0
  4  5  1  0  0  0
  4 26  1  0  0  0
  4 27  1  0  0  0
  5  6  1  0  0  0
  5  8  1  0  0  0
  5 28  1  0  0  0
  6  7  1  0  0  0
  6 29  1  0  0  0
  6 30  1  0  0  0
  7 31  1  0  0  0
  7 32  1  0  0  0
  8  9  1  0  0  0
  8 33  1  0  0  0
  9 10  2  0  0  0
  9 11  2  0  0  0
  9 12  1  0  0  0
 12 17  2  0  0  0
 12 13  1  0  0  0
 13 14  2  0  0  0
 13 34  1  0  0  0
 14 15  1  0  0  0
 14 35  1  0  0  0
 15 16  2  0  0  0
 15 19  1  0  0  0
 16 17  1  0  0  0
 16 36  1  0  0  0
 17 18  1  0  0  0
 18 37  1  0  0  0
 18 38  1  0  0  0
M  END
> <i_i_glide_confnum>
48

> <i_i_glide_lignum>
1885

> <i_i_glide_posenum>
39

> <i_i_glide_rotatable_bonds>
3

> <i_m_Source_File_Index>
1542

> <b_m_subgroup_collapsed>
0

> <r_i_docking_score>
-3.77329

> <r_i_glide_ecoul>
-3.84792

> <r_i_glide_eff_state_penalty>
0

> <r_i_glide_einternal>
7.02107

> <r_i_glide_emodel>
-28.7732

> <r_i_glide_energy>
-24.8409

> <r_i_glide_erotb>
0.602545

> <r_i_glide_esite>
-0.102898

> <r_i_glide_evdw>
-20.993

> <r_i_glide_gscore>
-3.77329

> <r_i_glide_hbond>
-0.16

> <r_i_glide_ligand_efficiency>
-0.198594

> <r_i_glide_ligand_efficiency_ln>
-0.95661

> <r_i_glide_ligand_efficiency_sa>
-0.529929

> <r_i_glide_lipo>
-1.19462

> <r_i_glide_metal>
0

> <r_i_glide_rewards>
-1.29148

> <s_i_glide_gridfile>
wee1_glide-grid

> <s_m_Source_File>
wee1_decoys_glide_SP.sdf

> <s_m_Source_Path>
/Users/zhangxujun/Desktop

> <s_m_entry_id>
1817

> <s_m_entry_name>
wee1_decoys_glide_SP.1542

> <s_m_subgroup_title>
wee1_decoys_glide_SP

> <s_m_subgroupid>
wee1_decoys_glide_SP


$$$$
