ZINC12881564_5330
                    3D
 Schrodinger Suite 2024-2.
 54 57  0  0  1  0            999 V2000
    0.6244   49.5090   25.7008 C   0  0  0  0  0  0
   -0.5479   49.0994   24.8235 C   0  0  0  0  0  0
   -1.3452   48.0419   25.2729 C   0  0  0  0  0  0
   -2.4766   47.6490   24.5628 C   0  0  0  0  0  0
   -2.8236   48.3095   23.3867 C   0  0  0  0  0  0
   -2.0462   49.3724   22.9302 C   0  0  0  0  0  0
   -0.9048   49.7739   23.6336 C   0  0  0  0  0  0
   -0.2412   50.9043   23.1314 N   0  0  0  0  0  0
    1.0593   51.0090   22.7942 C   0  0  0  0  0  0
    1.8809   50.0955   22.8812 O   0  0  0  0  0  0
    1.4660   52.3958   22.2697 C   0  0  0  0  0  0
    3.1781   51.8436   20.4022 C   0  0  0  0  0  0
    4.4307   52.5530   19.9114 C   0  0  0  0  0  0
    4.2273   53.9817   20.3964 C   0  0  0  0  0  0
    3.5442   53.8718   21.7769 C   0  0  2  0  0  0
    2.7078   54.5727   21.8088 H   0  0  0  0  0  0
    4.4025   54.0607   23.0327 C   0  0  0  0  0  0
    5.7962   53.9550   22.9944 C   0  0  0  0  0  0
    6.5594   54.1831   24.1366 C   0  0  0  0  0  0
    5.9508   54.5109   25.3474 C   0  0  0  0  0  0
    4.5460   54.5846   25.4086 C   0  0  0  0  0  0
    3.7921   54.3716   24.2525 C   0  0  0  0  0  0
    3.8790   54.8962   26.5676 O   0  0  0  0  0  0
    4.0539   54.0046   27.6586 C   0  0  0  0  0  0
    5.3734   54.2257   28.4056 C   0  0  0  0  0  0
    6.6209   53.9420   27.5618 C   0  0  0  0  0  0
    6.7490   54.7949   26.4318 O   0  0  0  0  0  0
   -3.6735   46.0966   25.2874 I   0  0  0  0  0  0
    0.8448   50.5724   25.6146 H   0  0  0  0  0  0
    0.3951   49.3336   26.7540 H   0  0  0  0  0  0
    1.5037   48.9170   25.4444 H   0  0  0  0  0  0
   -1.1012   47.5384   26.1986 H   0  0  0  0  0  0
   -3.7053   48.0110   22.8383 H   0  0  0  0  0  0
   -2.3422   49.8841   22.0254 H   0  0  0  0  0  0
   -0.8452   51.6737   22.8862 H   0  0  0  0  0  0
    0.8527   52.7445   21.4367 H   0  0  0  0  0  0
    1.3824   53.1132   23.0850 H   0  0  0  0  0  0
    3.2558   50.7576   20.4778 H   0  0  0  0  0  0
    2.3144   52.1026   19.7862 H   0  0  0  0  0  0
    5.3237   52.1012   20.3457 H   0  0  0  0  0  0
    4.5332   52.4977   18.8257 H   0  0  0  0  0  0
    5.1382   54.5791   20.3961 H   0  0  0  0  0  0
    3.5530   54.4962   19.7094 H   0  0  0  0  0  0
    6.3037   53.7021   22.0805 H   0  0  0  0  0  0
    7.6351   54.1036   24.0821 H   0  0  0  0  0  0
    2.7197   54.4718   24.3168 H   0  0  0  0  0  0
    3.9426   52.9662   27.3376 H   0  0  0  0  0  0
    3.2243   54.1798   28.3440 H   0  0  0  0  0  0
    5.3888   53.5792   29.2810 H   0  0  0  0  0  0
    5.4185   55.2507   28.7793 H   0  0  0  0  0  0
    6.6647   52.8950   27.2594 H   0  0  0  0  0  0
    7.5033   54.0966   28.1824 H   0  0  0  0  0  0
    2.9486   52.4400   21.8102 N   0  3  1  0  0  0
    3.5082   51.8935   22.4506 H   0  0  0  0  0  0
  1  2  1  0  0  0
  1 29  1  0  0  0
  1 30  1  0  0  0
  1 31  1  0  0  0
  2  7  2  0  0  0
  2  3  1  0  0  0
  3  4  2  0  0  0
  3 32  1  0  0  0
  4  5  1  0  0  0
  4 28  1  0  0  0
  5  6  2  0  0  0
  5 33  1  0  0  0
  6  7  1  0  0  0
  6 34  1  0  0  0
  7  8  1  0  0  0
  8  9  1  0  0  0
  8 35  1  0  0  0
  9 10  2  0  0  0
  9 11  1  0  0  0
 11 36  1  0  0  0
 11 37  1  0  0  0
 11 53  1  0  0  0
 12 13  1  0  0  0
 12 38  1  0  0  0
 12 39  1  0  0  0
 12 53  1  0  0  0
 13 14  1  0  0  0
 13 40  1  0  0  0
 13 41  1  0  0  0
 14 15  1  0  0  0
 14 42  1  0  0  0
 14 43  1  0  0  0
 15 16  1  0  0  0
 15 17  1  0  0  0
 15 53  1  0  0  0
 17 22  2  0  0  0
 17 18  1  0  0  0
 18 19  2  0  0  0
 18 44  1  0  0  0
 19 20  1  0  0  0
 19 45  1  0  0  0
 20 27  1  0  0  0
 20 21  2  0  0  0
 21 22  1  0  0  0
 21 23  1  0  0  0
 22 46  1  0  0  0
 23 24  1  0  0  0
 24 25  1  0  0  0
 24 47  1  0  0  0
 24 48  1  0  0  0
 25 26  1  0  0  0
 25 49  1  0  0  0
 25 50  1  0  0  0
 26 27  1  0  0  0
 26 51  1  0  0  0
 26 52  1  0  0  0
 53 54  1  0  0  0
M  CHG  1  53   1
M  END
> <i_i_glide_confnum>
197

> <i_i_glide_lignum>
5331

> <i_i_glide_posenum>
236

> <i_i_glide_rotatable_bonds>
5

> <i_m_Source_File_Index>
2294

> <b_m_subgroup_collapsed>
0

> <r_i_docking_score>
-5.62755

> <r_i_glide_ecoul>
-3.67405

> <r_i_glide_eff_state_penalty>
0

> <r_i_glide_einternal>
6.98012

> <r_i_glide_emodel>
-54.4857

> <r_i_glide_energy>
-41.6301

> <r_i_glide_erotb>
0.418463

> <r_i_glide_esite>
0

> <r_i_glide_evdw>
-37.9561

> <r_i_glide_gscore>
-5.62755

> <r_i_glide_hbond>
-0.23991

> <r_i_glide_ligand_efficiency>
-0.200984

> <r_i_glide_ligand_efficiency_ln>
-1.299

> <r_i_glide_ligand_efficiency_sa>
-0.610305

> <r_i_glide_lipo>
-2.62351

> <r_i_glide_metal>
0

> <r_i_glide_rewards>
-0.73368

> <s_i_glide_gridfile>
wee1_glide-grid

> <s_m_Source_File>
wee1_decoys_glide_SP.sdf

> <s_m_Source_Path>
/Users/zhangxujun/Desktop

> <s_m_entry_id>
2569

> <s_m_entry_name>
wee1_decoys_glide_SP.2294

> <s_m_subgroup_title>
wee1_decoys_glide_SP

> <s_m_subgroupid>
wee1_decoys_glide_SP


$$$$
