ZINC12105025_823
                    3D
 Schrodinger Suite 2024-2.
 60 63  0  0  1  0            999 V2000
    1.5191   50.1744   17.4071 C   0  0  0  0  0  0
    1.6659   50.7810   18.7872 C   0  0  0  0  0  0
    1.1542   50.2469   19.9706 C   0  0  0  0  0  0
    1.4955   51.0764   21.0314 N   0  0  0  0  0  0
    2.2794   52.0936   20.5110 C   0  0  0  0  0  0
    2.3910   51.9366   19.1321 C   0  0  0  0  0  0
    3.1020   52.8254   18.2196 C   0  0  0  0  0  0
    3.6623   53.5365   17.4978 N   0  0  0  0  0  0
    2.8118   53.1146   21.2816 N   0  0  0  0  0  0
    4.0694   53.0824   21.7619 C   0  0  0  0  0  0
    4.8080   52.0991   21.6816 O   0  0  0  0  0  0
    4.5463   54.3895   22.4117 C   0  0  0  0  0  0
    6.3044   54.4080   22.9075 S   0  0  0  0  0  0
    6.1217   54.5901   24.6438 C   0  0  0  0  0  0
    5.4282   53.7518   25.4773 N   0  0  0  0  0  0
    4.9040   52.9279   25.2189 H   0  0  0  0  0  0
    5.6133   54.2472   26.7391 C   0  0  0  0  0  0
    6.3955   55.2951   26.6904 N   0  0  0  0  0  0
    6.7037   55.5229   25.3517 N   0  0  0  0  0  0
    4.9935   53.6789   27.9978 C   0  0  0  0  0  0
    3.4589   53.4855   27.8962 C   0  0  0  0  0  0
    2.6949   53.9283   29.1624 C   0  0  0  0  0  0
    2.5733   55.4544   29.3119 C   0  0  0  0  0  0
    1.3238   55.7269   30.1644 C   0  0  0  0  0  0
    0.5750   54.3887   30.2558 C   0  0  0  0  0  0
    1.2324   53.4715   29.2172 C   0  0  0  0  0  0
    1.0631   50.9399   22.3765 C   0  0  0  0  0  0
    1.2177   49.7322   23.0690 C   0  0  0  0  0  0
    0.7046   49.5922   24.3609 C   0  0  0  0  0  0
    0.0507   50.6597   24.9762 C   0  0  0  0  0  0
   -0.0920   51.8679   24.2972 C   0  0  0  0  0  0
    0.4177   52.0099   23.0081 C   0  0  0  0  0  0
   -0.7399   52.8966   24.8847 F   0  0  0  0  0  0
    0.2956   49.0041   20.1524 C   0  0  0  0  0  0
    2.3041   50.5045   16.7239 H   0  0  0  0  0  0
    1.6026   49.0876   17.4446 H   0  0  0  0  0  0
    0.5512   50.4037   16.9603 H   0  0  0  0  0  0
    2.3188   53.9990   21.2548 H   0  0  0  0  0  0
    4.4245   55.1865   21.6775 H   0  0  0  0  0  0
    3.9007   54.6315   23.2551 H   0  0  0  0  0  0
    5.4607   52.7233   28.2412 H   0  0  0  0  0  0
    5.2368   54.3276   28.8397 H   0  0  0  0  0  0
    3.0538   54.0223   27.0381 H   0  0  0  0  0  0
    3.2495   52.4334   27.6928 H   0  0  0  0  0  0
    3.1737   53.5329   30.0613 H   0  0  0  0  0  0
    3.4877   55.9155   29.6812 H   0  0  0  0  0  0
    2.3809   55.8965   28.3324 H   0  0  0  0  0  0
    1.5867   56.0965   31.1563 H   0  0  0  0  0  0
    0.7059   56.4962   29.7024 H   0  0  0  0  0  0
    0.6940   53.9637   31.2539 H   0  0  0  0  0  0
   -0.4954   54.4966   30.0822 H   0  0  0  0  0  0
    0.7572   53.6484   28.2499 H   0  0  0  0  0  0
    1.1243   52.4066   29.4235 H   0  0  0  0  0  0
    1.7320   48.8969   22.6182 H   0  0  0  0  0  0
    0.8239   48.6572   24.8922 H   0  0  0  0  0  0
   -0.3477   50.5461   25.9738 H   0  0  0  0  0  0
    0.2884   52.9480   22.4935 H   0  0  0  0  0  0
   -0.1590   48.6850   19.2140 H   0  0  0  0  0  0
    0.8814   48.1589   20.5160 H   0  0  0  0  0  0
   -0.5277   49.1590   20.8496 H   0  0  0  0  0  0
  1  2  1  0  0  0
  1 35  1  0  0  0
  1 36  1  0  0  0
  1 37  1  0  0  0
  2  6  1  0  0  0
  2  3  2  0  0  0
  3  4  1  0  0  0
  3 34  1  0  0  0
  4  5  1  0  0  0
  4 27  1  0  0  0
  5  6  2  0  0  0
  5  9  1  0  0  0
  6  7  1  0  0  0
  7  8  3  0  0  0
  9 10  1  0  0  0
  9 38  1  0  0  0
 10 11  2  0  0  0
 10 12  1  0  0  0
 12 13  1  0  0  0
 12 39  1  0  0  0
 12 40  1  0  0  0
 13 14  1  0  0  0
 14 19  2  0  0  0
 14 15  1  0  0  0
 15 16  1  0  0  0
 15 17  1  0  0  0
 17 18  2  0  0  0
 17 20  1  0  0  0
 18 19  1  0  0  0
 20 21  1  0  0  0
 20 41  1  0  0  0
 20 42  1  0  0  0
 21 22  1  0  0  0
 21 43  1  0  0  0
 21 44  1  0  0  0
 22 26  1  0  0  0
 22 23  1  0  0  0
 22 45  1  0  0  0
 23 24  1  0  0  0
 23 46  1  0  0  0
 23 47  1  0  0  0
 24 25  1  0  0  0
 24 48  1  0  0  0
 24 49  1  0  0  0
 25 26  1  0  0  0
 25 50  1  0  0  0
 25 51  1  0  0  0
 26 52  1  0  0  0
 26 53  1  0  0  0
 27 32  2  0  0  0
 27 28  1  0  0  0
 28 29  2  0  0  0
 28 54  1  0  0  0
 29 30  1  0  0  0
 29 55  1  0  0  0
 30 31  2  0  0  0
 30 56  1  0  0  0
 31 32  1  0  0  0
 31 33  1  0  0  0
 32 57  1  0  0  0
 34 58  1  0  0  0
 34 59  1  0  0  0
 34 60  1  0  0  0
M  END
> <i_i_glide_confnum>
518

> <i_i_glide_lignum>
824

> <i_i_glide_posenum>
332

> <i_i_glide_rotatable_bonds>
10

> <i_m_Source_File_Index>
5097

> <b_m_subgroup_collapsed>
0

> <r_i_docking_score>
-6.46929

> <r_i_glide_ecoul>
-6.71519

> <r_i_glide_eff_state_penalty>
0

> <r_i_glide_einternal>
8.02814

> <r_i_glide_emodel>
-68.8736

> <r_i_glide_energy>
-52.0247

> <r_i_glide_erotb>
0.834122

> <r_i_glide_esite>
-0.0501503

> <r_i_glide_evdw>
-45.3095

> <r_i_glide_gscore>
-6.46929

> <r_i_glide_hbond>
-0.289196

> <r_i_glide_ligand_efficiency>
-0.196039

> <r_i_glide_ligand_efficiency_ln>
-1.43874

> <r_i_glide_ligand_efficiency_sa>
-0.628802

> <r_i_glide_lipo>
-2.36069

> <r_i_glide_metal>
0

> <r_i_glide_rewards>
-1.33062

> <s_i_glide_gridfile>
wee1_glide-grid

> <s_m_Source_File>
wee1_decoys_glide_SP.sdf

> <s_m_Source_Path>
/Users/zhangxujun/Desktop

> <s_m_entry_id>
5372

> <s_m_entry_name>
wee1_decoys_glide_SP.5097

> <s_m_subgroup_title>
wee1_decoys_glide_SP

> <s_m_subgroupid>
wee1_decoys_glide_SP


$$$$
