ZINC59437832_961
                    3D
 Schrodinger Suite 2024-2.
 50 53  0  0  1  0            999 V2000
    7.1043   54.7210   23.1611 C   0  0  0  0  0  0
    5.7022   54.4963   23.1671 O   0  0  0  0  0  0
    5.0369   54.3710   24.3740 C   0  0  0  0  0  0
    5.6612   54.4966   25.6255 C   0  0  0  0  0  0
    4.9349   54.3340   26.8026 C   0  0  0  0  0  0
    3.5676   54.0358   26.7655 C   0  0  0  0  0  0
    2.9435   53.9303   25.5104 C   0  0  0  0  0  0
    3.6633   54.0968   24.3159 C   0  0  0  0  0  0
    3.0926   53.9951   23.0584 O   0  0  0  0  0  0
    1.7074   53.6972   22.9309 C   0  0  0  0  0  0
    2.8025   53.8318   28.0579 C   0  0  0  0  0  0
    3.2486   54.2856   29.1163 O   0  0  0  0  0  0
    1.6565   53.1134   27.9311 N   0  0  0  0  0  0
    0.7086   52.6836   28.8292 C   0  0  0  0  0  0
    0.7021   52.8969   30.4850 S   0  0  0  0  0  0
   -0.3576   52.0176   28.2954 N   0  0  0  0  0  0
   -0.6016   51.7128   26.9475 C   0  0  0  0  0  0
   -1.7285   52.2590   26.3269 C   0  0  0  0  0  0
   -2.0082   52.0167   24.9818 C   0  0  0  0  0  0
   -1.1256   51.2010   24.2624 C   0  0  0  0  0  0
    0.0096   50.6316   24.8898 C   0  0  0  0  0  0
    0.2664   50.8667   26.2476 C   0  0  0  0  0  0
    0.7035   49.8923   23.9830 N   0  0  0  0  0  0
   -0.0602   50.0366   22.8736 N   0  0  0  0  0  0
   -1.1677   50.8114   22.9616 N   0  0  0  0  0  0
    0.2708   49.3827   21.6639 C   0  0  0  0  0  0
   -0.7411   48.8103   20.8804 C   0  0  0  0  0  0
   -0.4165   48.1373   19.7056 C   0  0  0  0  0  0
    0.9140   48.0466   19.3065 C   0  0  0  0  0  0
    1.9215   48.6339   20.0661 C   0  0  0  0  0  0
    1.6065   49.2972   21.2499 C   0  0  0  0  0  0
    1.3619   47.0995   17.7173 Br  0  0  0  0  0  0
    7.4555   54.8069   22.1330 H   0  0  0  0  0  0
    7.6314   53.8853   23.6243 H   0  0  0  0  0  0
    7.3640   55.6489   23.6728 H   0  0  0  0  0  0
    6.7155   54.7077   25.7063 H   0  0  0  0  0  0
    5.4527   54.4275   27.7482 H   0  0  0  0  0  0
    1.8861   53.7230   25.4571 H   0  0  0  0  0  0
    1.4502   53.6244   21.8752 H   0  0  0  0  0  0
    1.4586   52.7408   23.3918 H   0  0  0  0  0  0
    1.0908   54.4832   23.3691 H   0  0  0  0  0  0
    1.4762   52.8170   26.9850 H   0  0  0  0  0  0
   -1.0773   51.7301   28.9435 H   0  0  0  0  0  0
   -2.3996   52.8959   26.8816 H   0  0  0  0  0  0
   -2.8801   52.4473   24.5118 H   0  0  0  0  0  0
    1.1044   50.4038   26.7441 H   0  0  0  0  0  0
   -1.7769   48.8675   21.1847 H   0  0  0  0  0  0
   -1.1931   47.6819   19.1080 H   0  0  0  0  0  0
    2.9482   48.5675   19.7344 H   0  0  0  0  0  0
    2.4015   49.7364   21.8365 H   0  0  0  0  0  0
  1  2  1  0  0  0
  1 33  1  0  0  0
  1 34  1  0  0  0
  1 35  1  0  0  0
  2  3  1  0  0  0
  3  8  2  0  0  0
  3  4  1  0  0  0
  4  5  2  0  0  0
  4 36  1  0  0  0
  5  6  1  0  0  0
  5 37  1  0  0  0
  6  7  2  0  0  0
  6 11  1  0  0  0
  7  8  1  0  0  0
  7 38  1  0  0  0
  8  9  1  0  0  0
  9 10  1  0  0  0
 10 39  1  0  0  0
 10 40  1  0  0  0
 10 41  1  0  0  0
 11 12  2  0  0  0
 11 13  1  0  0  0
 13 14  1  0  0  0
 13 42  1  0  0  0
 14 15  2  0  0  0
 14 16  1  0  0  0
 16 17  1  0  0  0
 16 43  1  0  0  0
 17 22  2  0  0  0
 17 18  1  0  0  0
 18 19  2  0  0  0
 18 44  1  0  0  0
 19 20  1  0  0  0
 19 45  1  0  0  0
 20 25  2  0  0  0
 20 21  1  0  0  0
 21 22  1  0  0  0
 21 23  2  0  0  0
 22 46  1  0  0  0
 23 24  1  0  0  0
 24 25  1  0  0  0
 24 26  1  0  0  0
 26 31  2  0  0  0
 26 27  1  0  0  0
 27 28  2  0  0  0
 27 47  1  0  0  0
 28 29  1  0  0  0
 28 48  1  0  0  0
 29 30  2  0  0  0
 29 32  1  0  0  0
 30 31  1  0  0  0
 30 49  1  0  0  0
 31 50  1  0  0  0
M  END
> <i_i_glide_confnum>
28

> <i_i_glide_lignum>
962

> <i_i_glide_posenum>
303

> <i_i_glide_rotatable_bonds>
8

> <i_m_Source_File_Index>
4437

> <b_m_subgroup_collapsed>
0

> <r_i_docking_score>
-3.43375

> <r_i_glide_ecoul>
-1.63855

> <r_i_glide_eff_state_penalty>
0

> <r_i_glide_einternal>
7.4897

> <r_i_glide_emodel>
-53.1721

> <r_i_glide_energy>
-49.2564

> <r_i_glide_erotb>
0.468494

> <r_i_glide_esite>
-0.026162

> <r_i_glide_evdw>
-47.6179

> <r_i_glide_gscore>
-3.43375

> <r_i_glide_hbond>
0

> <r_i_glide_ligand_efficiency>
-0.107305

> <r_i_glide_ligand_efficiency_ln>
-0.76891

> <r_i_glide_ligand_efficiency_sa>
-0.340671

> <r_i_glide_lipo>
-1.75627

> <r_i_glide_metal>
0

> <r_i_glide_rewards>
0.506863

> <s_i_glide_gridfile>
wee1_glide-grid

> <s_m_Source_File>
wee1_decoys_glide_SP.sdf

> <s_m_Source_Path>
/Users/zhangxujun/Desktop

> <s_m_entry_id>
4712

> <s_m_entry_name>
wee1_decoys_glide_SP.4437

> <s_m_subgroup_title>
wee1_decoys_glide_SP

> <s_m_subgroupid>
wee1_decoys_glide_SP


$$$$
