ZINC63503289_1207
                    3D
 Schrodinger Suite 2024-2.
 59 64  0  0  1  0            999 V2000
    5.0648   54.1116   25.0639 C   0  0  0  0  0  0
    6.2842   54.1133   24.3893 C   0  0  0  0  0  0
    6.3045   54.0972   22.9983 C   0  0  0  0  0  0
    5.1003   54.0894   22.2800 C   0  0  0  0  0  0
    3.8800   54.0974   22.9659 C   0  0  0  0  0  0
    3.8624   54.0975   24.3587 C   0  0  0  0  0  0
    5.1009   54.0978   20.8595 N   0  0  0  0  0  0
    4.9383   52.7794   20.1605 C   0  0  2  0  0  0
    5.9044   52.2892   20.2089 H   0  0  0  0  0  0
    4.6176   52.8969   18.7430 N   0  0  0  0  0  0
    5.4204   53.8552   18.0070 C   0  0  1  0  0  0
    4.9789   53.9768   17.0163 H   0  0  0  0  0  0
    5.5195   55.2279   18.6707 C   0  0  1  0  0  0
    4.6407   55.8222   18.4174 H   0  0  0  0  0  0
    5.5642   55.2257   20.2247 C   0  0  0  0  0  0
    5.9076   56.2437   20.8373 O   0  0  0  0  0  0
    6.7903   55.8664   18.1148 C   0  0  0  0  0  0
    7.6678   54.9791   17.5897 C   0  0  0  0  0  0
    7.1039   53.2975   17.6816 S   0  0  0  0  0  0
    9.0397   55.3486   17.0370 C   0  0  0  0  0  0
    9.1575   56.8673   16.7750 C   0  0  0  0  0  0
    8.5188   57.7079   17.8960 C   0  0  0  0  0  0
    7.0209   57.3774   18.0661 C   0  0  0  0  0  0
    3.9036   51.5593   21.0406 S   0  0  0  0  0  0
    2.2190   51.9572   20.5003 C   0  0  0  0  0  0
    1.6357   50.8399   19.6640 C   0  0  0  0  0  0
    0.7688   49.8635   19.9855 C   0  0  0  0  0  0
    0.0660   49.5836   21.2433 C   0  0  0  0  0  0
   -0.7198   48.4960   21.3645 C   0  0  0  0  0  0
   -0.8379   47.5790   20.2245 C   0  0  0  0  0  0
   -0.1840   47.8437   19.0506 C   0  0  0  0  0  0
    0.6229   48.9809   18.9130 C   0  0  0  0  0  0
    1.3419   49.3796   17.8894 N   0  3  0  0  0  0
    2.0362   50.6331   18.2212 C   0  0  0  0  0  0
   -1.6336   46.3317   20.3763 N   0  3  0  0  0  0
   -1.7709   45.6128   19.3886 O   0  0  0  0  0  0
   -2.0952   46.0845   21.4867 O   0  5  0  0  0  0
    5.0521   54.1160   26.1436 H   0  0  0  0  0  0
    7.2110   54.1222   24.9421 H   0  0  0  0  0  0
    7.2540   54.1091   22.4829 H   0  0  0  0  0  0
    2.9489   54.1096   22.4181 H   0  0  0  0  0  0
    2.9223   54.0976   24.8904 H   0  0  0  0  0  0
    4.8353   51.9688   18.3474 H   0  0  0  0  0  0
    9.8079   55.0438   17.7497 H   0  0  0  0  0  0
    9.2657   54.8002   16.1215 H   0  0  0  0  0  0
   10.2063   57.1403   16.6530 H   0  0  0  0  0  0
    8.6711   57.1092   15.8283 H   0  0  0  0  0  0
    9.0438   57.5196   18.8346 H   0  0  0  0  0  0
    8.6402   58.7712   17.6843 H   0  0  0  0  0  0
    6.4635   57.8059   17.2320 H   0  0  0  0  0  0
    6.6152   57.8867   18.9401 H   0  0  0  0  0  0
    1.6110   52.1068   21.3910 H   0  0  0  0  0  0
    2.1923   52.8970   19.9484 H   0  0  0  0  0  0
    0.1540   50.2402   22.0982 H   0  0  0  0  0  0
   -1.2348   48.3037   22.2965 H   0  0  0  0  0  0
   -0.2724   47.1514   18.2249 H   0  0  0  0  0  0
    1.6909   51.4137   17.5426 H   0  0  0  0  0  0
    3.1044   50.4751   18.0819 H   0  0  0  0  0  0
    1.4402   48.9008   16.9970 H   0  0  0  0  0  0
  1  6  2  0  0  0
  1  2  1  0  0  0
  1 38  1  0  0  0
  2  3  2  0  0  0
  2 39  1  0  0  0
  3  4  1  0  0  0
  3 40  1  0  0  0
  4  5  2  0  0  0
  4  7  1  0  0  0
  5  6  1  0  0  0
  5 41  1  0  0  0
  6 42  1  0  0  0
  7 15  1  0  0  0
  7  8  1  0  0  0
  8  9  1  0  0  0
  8 10  1  0  0  0
  8 24  1  0  0  0
 10 11  1  0  0  0
 10 43  1  0  0  0
 11 12  1  0  0  0
 11 19  1  0  0  0
 11 13  1  0  0  0
 13 14  1  0  0  0
 13 15  1  0  0  0
 13 17  1  0  0  0
 15 16  2  0  0  0
 17 23  1  0  0  0
 17 18  2  0  0  0
 18 19  1  0  0  0
 18 20  1  0  0  0
 20 21  1  0  0  0
 20 44  1  0  0  0
 20 45  1  0  0  0
 21 22  1  0  0  0
 21 46  1  0  0  0
 21 47  1  0  0  0
 22 23  1  0  0  0
 22 48  1  0  0  0
 22 49  1  0  0  0
 23 50  1  0  0  0
 23 51  1  0  0  0
 24 25  1  0  0  0
 25 26  1  0  0  0
 25 52  1  0  0  0
 25 53  1  0  0  0
 26 34  1  0  0  0
 26 27  2  0  0  0
 27 32  1  0  0  0
 27 28  1  0  0  0
 28 29  2  0  0  0
 28 54  1  0  0  0
 29 30  1  0  0  0
 29 55  1  0  0  0
 30 31  2  0  0  0
 30 35  1  0  0  0
 31 32  1  0  0  0
 31 56  1  0  0  0
 32 33  2  0  0  0
 33 34  1  0  0  0
 33 59  1  0  0  0
 34 57  1  0  0  0
 34 58  1  0  0  0
 35 36  2  0  0  0
 35 37  1  0  0  0
M  CHG  3  33   1  35   1  37  -1
M  END
> <i_i_glide_confnum>
3

> <i_i_glide_lignum>
1208

> <i_i_glide_posenum>
177

> <i_i_glide_rotatable_bonds>
5

> <i_m_Source_File_Index>
5722

> <b_m_subgroup_collapsed>
0

> <r_i_docking_score>
-4.88371

> <r_i_glide_ecoul>
-8.44147

> <r_i_glide_eff_state_penalty>
0

> <r_i_glide_einternal>
7.71915

> <r_i_glide_emodel>
-52.7724

> <r_i_glide_energy>
-42.0772

> <r_i_glide_erotb>
0.334441

> <r_i_glide_esite>
-0.128876

> <r_i_glide_evdw>
-33.6357

> <r_i_glide_gscore>
-4.88371

> <r_i_glide_hbond>
-0.16

> <r_i_glide_ligand_efficiency>
-0.143639

> <r_i_glide_ligand_efficiency_ln>
-1.07895

> <r_i_glide_ligand_efficiency_sa>
-0.465333

> <r_i_glide_lipo>
-1.6639

> <r_i_glide_metal>
0

> <r_i_glide_rewards>
-0.317369

> <s_i_glide_gridfile>
wee1_glide-grid

> <s_m_Source_File>
wee1_decoys_glide_SP.sdf

> <s_m_Source_Path>
/Users/zhangxujun/Desktop

> <s_m_entry_id>
5997

> <s_m_entry_name>
wee1_decoys_glide_SP.5722

> <s_m_subgroup_title>
wee1_decoys_glide_SP

> <s_m_subgroupid>
wee1_decoys_glide_SP


$$$$
