ZINC12038105_4821
                    3D
 Schrodinger Suite 2024-2.
 72 76  0  0  1  0            999 V2000
    1.8378   50.7607   15.4999 C   0  0  0  0  0  0
    0.8816   50.9922   16.6835 C   0  0  0  0  0  0
    1.5256   50.8250   18.0953 C   0  0  1  0  0  0
    0.4380   50.9964   19.1479 C   0  0  0  0  0  0
   -0.3046   51.9727   19.2866 O   0  0  0  0  0  0
    0.5499   49.9131   19.9472 N   0  0  0  0  0  0
    1.3556   48.9345   19.4555 C   0  0  0  0  0  0
    1.3717   47.7451   19.7760 O   0  0  0  0  0  0
    1.9023   49.4600   18.3532 N   0  0  0  0  0  0
   -0.1470   49.8063   21.2429 C   0  0  0  0  0  0
    0.5513   50.5123   22.4325 C   0  0  1  0  0  0
    1.6039   50.2238   22.4510 H   0  0  0  0  0  0
    0.4527   52.0693   22.4198 C   0  0  0  0  0  0
    1.1807   52.6121   23.5258 O   0  0  0  0  0  0
    0.8381   52.0202   24.7218 C   0  0  0  0  0  0
    1.0962   52.7291   25.8914 C   0  0  0  0  0  0
    0.7687   52.1720   27.1259 C   0  0  0  0  0  0
    0.1878   50.9043   27.1864 C   0  0  0  0  0  0
   -0.0465   50.1747   26.0189 C   0  0  0  0  0  0
    0.2837   50.7276   24.7831 C   0  0  0  0  0  0
   -0.0329   50.0086   23.6444 O   0  0  0  0  0  0
    2.7436   51.7902   18.3744 C   0  0  1  0  0  0
    2.4982   53.2955   18.0948 C   0  0  0  0  0  0
    3.7388   54.1853   18.3472 C   0  0  0  0  0  0
    4.6660   52.4852   19.9805 C   0  0  0  0  0  0
    3.4320   51.6078   19.7650 C   0  0  0  0  0  0
    5.4091   54.8997   20.1423 C   0  0  0  0  0  0
    5.7928   55.0101   21.6268 C   0  0  0  0  0  0
    5.0378   54.4944   22.6321 C   0  0  0  0  0  0
    5.2561   54.4661   24.0977 C   0  0  0  0  0  0
    4.1186   54.5109   24.9114 C   0  0  0  0  0  0
    4.2362   54.4959   26.2967 C   0  0  0  0  0  0
    5.4942   54.4247   26.8805 C   0  0  0  0  0  0
    6.6327   54.3554   26.0867 C   0  0  0  0  0  0
    6.5191   54.3725   24.6970 C   0  0  0  0  0  0
    7.0838   55.7924   21.8308 C   0  0  0  0  0  0
    1.3143   50.8622   14.5505 H   0  0  0  0  0  0
    2.6603   51.4729   15.4945 H   0  0  0  0  0  0
    2.2692   49.7593   15.5265 H   0  0  0  0  0  0
    0.0511   50.2914   16.5729 H   0  0  0  0  0  0
    0.4367   51.9847   16.5832 H   0  0  0  0  0  0
    2.7547   49.1072   17.9223 H   0  0  0  0  0  0
   -1.1675   50.1795   21.1423 H   0  0  0  0  0  0
   -0.2579   48.7488   21.4991 H   0  0  0  0  0  0
    0.8701   52.5098   21.5178 H   0  0  0  0  0  0
   -0.5966   52.3727   22.4831 H   0  0  0  0  0  0
    1.5156   53.7195   25.8391 H   0  0  0  0  0  0
    0.9476   52.7237   28.0355 H   0  0  0  0  0  0
   -0.0952   50.4966   28.1451 H   0  0  0  0  0  0
   -0.4984   49.1935   26.0813 H   0  0  0  0  0  0
    3.5046   51.5075   17.6513 H   0  0  0  0  0  0
    1.6657   53.6501   18.6942 H   0  0  0  0  0  0
    2.1727   53.4416   17.0644 H   0  0  0  0  0  0
    3.4639   55.2389   18.2701 H   0  0  0  0  0  0
    4.5673   53.9633   17.6696 H   0  0  0  0  0  0
    5.4780   52.2735   19.2818 H   0  0  0  0  0  0
    5.0320   52.3572   20.9983 H   0  0  0  0  0  0
    3.7389   50.5689   19.8939 H   0  0  0  0  0  0
    2.7272   51.7894   20.5702 H   0  0  0  0  0  0
    5.1080   55.8793   19.7716 H   0  0  0  0  0  0
    6.2525   54.5494   19.5412 H   0  0  0  0  0  0
    4.1237   53.9939   22.3513 H   0  0  0  0  0  0
    3.1356   54.5763   24.4694 H   0  0  0  0  0  0
    3.3612   54.5443   26.9244 H   0  0  0  0  0  0
    5.5931   54.4100   27.9554 H   0  0  0  0  0  0
    7.5925   54.2721   26.5649 H   0  0  0  0  0  0
    7.4171   54.2799   24.1008 H   0  0  0  0  0  0
    7.9460   55.2052   21.5080 H   0  0  0  0  0  0
    7.0558   56.7118   21.2452 H   0  0  0  0  0  0
    7.2505   56.0939   22.8642 H   0  0  0  0  0  0
    4.2299   53.9530   19.7949 N   0  3  1  0  0  0
    3.4636   54.1705   20.4199 H   0  0  0  0  0  0
  1  2  1  0  0  0
  1 37  1  0  0  0
  1 38  1  0  0  0
  1 39  1  0  0  0
  2  3  1  0  0  0
  2 40  1  0  0  0
  2 41  1  0  0  0
  3  9  1  0  0  0
  3  4  1  0  0  0
  3 22  1  0  0  0
  4  5  2  0  0  0
  4  6  1  0  0  0
  6  7  1  0  0  0
  6 10  1  0  0  0
  7  8  2  0  0  0
  7  9  1  0  0  0
  9 42  1  0  0  0
 10 11  1  0  0  0
 10 43  1  0  0  0
 10 44  1  0  0  0
 11 12  1  0  0  0
 11 21  1  0  0  0
 11 13  1  0  0  0
 13 14  1  0  0  0
 13 45  1  0  0  0
 13 46  1  0  0  0
 14 15  1  0  0  0
 15 20  2  0  0  0
 15 16  1  0  0  0
 16 17  2  0  0  0
 16 47  1  0  0  0
 17 18  1  0  0  0
 17 48  1  0  0  0
 18 19  2  0  0  0
 18 49  1  0  0  0
 19 20  1  0  0  0
 19 50  1  0  0  0
 20 21  1  0  0  0
 22 26  1  0  0  0
 22 23  1  0  0  0
 22 51  1  0  0  0
 23 24  1  0  0  0
 23 52  1  0  0  0
 23 53  1  0  0  0
 24 54  1  0  0  0
 24 55  1  0  0  0
 24 71  1  0  0  0
 25 26  1  0  0  0
 25 56  1  0  0  0
 25 57  1  0  0  0
 25 71  1  0  0  0
 26 58  1  0  0  0
 26 59  1  0  0  0
 27 28  1  0  0  0
 27 60  1  0  0  0
 27 61  1  0  0  0
 27 71  1  0  0  0
 28 29  2  0  0  0
 28 36  1  0  0  0
 29 30  1  0  0  0
 29 62  1  0  0  0
 30 35  2  0  0  0
 30 31  1  0  0  0
 31 32  2  0  0  0
 31 63  1  0  0  0
 32 33  1  0  0  0
 32 64  1  0  0  0
 33 34  2  0  0  0
 33 65  1  0  0  0
 34 35  1  0  0  0
 34 66  1  0  0  0
 35 67  1  0  0  0
 36 68  1  0  0  0
 36 69  1  0  0  0
 36 70  1  0  0  0
 71 72  1  0  0  0
M  CHG  1  71   1
M  END
> <i_i_glide_confnum>
97

> <i_i_glide_lignum>
4822

> <i_i_glide_posenum>
196

> <i_i_glide_rotatable_bonds>
7

> <i_m_Source_File_Index>
2728

> <b_m_subgroup_collapsed>
0

> <r_i_docking_score>
-5.44285

> <r_i_glide_ecoul>
-5.376

> <r_i_glide_eff_state_penalty>
0

> <r_i_glide_einternal>
7.18314

> <r_i_glide_emodel>
-59.4547

> <r_i_glide_energy>
-44.3306

> <r_i_glide_erotb>
0.422759

> <r_i_glide_esite>
-0.149475

> <r_i_glide_evdw>
-38.9546

> <r_i_glide_gscore>
-5.44285

> <r_i_glide_hbond>
-0.16

> <r_i_glide_ligand_efficiency>
-0.15119

> <r_i_glide_ligand_efficiency_ln>
-1.18748

> <r_i_glide_ligand_efficiency_sa>
-0.499219

> <r_i_glide_lipo>
-2.62821

> <r_i_glide_metal>
0

> <r_i_glide_rewards>
-0.173793

> <s_i_glide_gridfile>
wee1_glide-grid

> <s_m_Source_File>
wee1_decoys_glide_SP.sdf

> <s_m_Source_Path>
/Users/zhangxujun/Desktop

> <s_m_entry_id>
3003

> <s_m_entry_name>
wee1_decoys_glide_SP.2728

> <s_m_subgroup_title>
wee1_decoys_glide_SP

> <s_m_subgroupid>
wee1_decoys_glide_SP


$$$$
