ZINC43461221_4733
                    3D
 Schrodinger Suite 2024-2.
 32 34  0  0  1  0            999 V2000
    6.5956   55.0350   25.3301 C   0  0  0  0  0  0
    6.4787   54.8964   26.7088 C   0  0  0  0  0  0
    5.2889   54.4394   27.2718 C   0  0  0  0  0  0
    4.2139   54.1170   26.4299 C   0  0  0  0  0  0
    4.2996   54.2498   25.0283 C   0  0  0  0  0  0
    5.5235   54.7133   24.5058 C   0  0  0  0  0  0
    3.1447   53.9007   24.1330 C   0  0  0  0  0  0
    3.2515   53.6949   22.4830 S   0  0  0  0  0  0
    1.9577   53.6965   24.7515 N   0  0  0  0  0  0
    5.2147   54.3266   28.7946 C   0  0  0  0  0  0
    4.0500   53.5987   29.3221 N   0  0  0  0  0  0
    3.9754   52.2694   29.5050 C   0  0  0  0  0  0
    2.8093   51.8792   29.9497 N   0  0  0  0  0  0
    2.0883   53.0098   30.0509 C   0  0  0  0  0  0
    2.8346   54.1126   29.6789 C   0  0  0  0  0  0
    2.4036   55.3969   29.6640 N   0  0  0  0  0  0
    1.1348   55.4950   30.0881 C   0  0  0  0  0  0
    0.3044   54.5261   30.4951 N   0  0  0  0  0  0
    0.7582   53.2481   30.4678 C   0  0  0  0  0  0
   -0.0955   52.2368   30.8816 N   0  0  0  0  0  0
    7.5076   55.3963   24.8820 H   0  0  0  0  0  0
    7.3106   55.1502   27.3503 H   0  0  0  0  0  0
    3.3029   53.7588   26.8823 H   0  0  0  0  0  0
    5.6662   54.8449   23.4431 H   0  0  0  0  0  0
    1.8809   53.7971   25.7516 H   0  0  0  0  0  0
    1.1555   53.4302   24.2001 H   0  0  0  0  0  0
    6.0965   53.8051   29.1675 H   0  0  0  0  0  0
    5.1980   55.3062   29.2668 H   0  0  0  0  0  0
    4.8184   51.6334   29.2769 H   0  0  0  0  0  0
    0.7323   56.4974   30.1192 H   0  0  0  0  0  0
    0.2642   51.2974   30.8961 H   0  0  0  0  0  0
   -0.8939   52.4509   31.4739 H   0  0  0  0  0  0
  1  6  2  0  0  0
  1  2  1  0  0  0
  1 21  1  0  0  0
  2  3  2  0  0  0
  2 22  1  0  0  0
  3  4  1  0  0  0
  3 10  1  0  0  0
  4  5  2  0  0  0
  4 23  1  0  0  0
  5  6  1  0  0  0
  5  7  1  0  0  0
  6 24  1  0  0  0
  7  8  2  0  0  0
  7  9  1  0  0  0
  9 25  1  0  0  0
  9 26  1  0  0  0
 10 11  1  0  0  0
 10 27  1  0  0  0
 10 28  1  0  0  0
 11 15  1  0  0  0
 11 12  1  0  0  0
 12 13  2  0  0  0
 12 29  1  0  0  0
 13 14  1  0  0  0
 14 19  2  0  0  0
 14 15  1  0  0  0
 15 16  2  0  0  0
 16 17  1  0  0  0
 17 18  2  0  0  0
 17 30  1  0  0  0
 18 19  1  0  0  0
 19 20  1  0  0  0
 20 31  1  0  0  0
 20 32  1  0  0  0
M  END
> <i_i_glide_confnum>
3

> <i_i_glide_lignum>
4734

> <i_i_glide_posenum>
287

> <i_i_glide_rotatable_bonds>
3

> <i_m_Source_File_Index>
764

> <b_m_subgroup_collapsed>
0

> <r_i_docking_score>
-7.66948

> <r_i_glide_ecoul>
-2.97814

> <r_i_glide_eff_state_penalty>
0

> <r_i_glide_einternal>
2.52845

> <r_i_glide_emodel>
-61.4408

> <r_i_glide_energy>
-42.9636

> <r_i_glide_erotb>
0.448375

> <r_i_glide_esite>
-0.113202

> <r_i_glide_evdw>
-39.9854

> <r_i_glide_gscore>
-7.66948

> <r_i_glide_hbond>
-0.436049

> <r_i_glide_ligand_efficiency>
-0.383474

> <r_i_glide_ligand_efficiency_ln>
-1.91942

> <r_i_glide_ligand_efficiency_sa>
-1.04091

> <r_i_glide_lipo>
-2.05348

> <r_i_glide_metal>
0

> <r_i_glide_rewards>
-3.06913

> <s_i_glide_gridfile>
wee1_glide-grid

> <s_m_Source_File>
wee1_decoys_glide_SP.sdf

> <s_m_Source_Path>
/Users/zhangxujun/Desktop

> <s_m_entry_id>
1039

> <s_m_entry_name>
wee1_decoys_glide_SP.764

> <s_m_subgroup_title>
wee1_decoys_glide_SP

> <s_m_subgroupid>
wee1_decoys_glide_SP


$$$$
