ZINC12455938_108
                    3D
 Schrodinger Suite 2024-2.
 58 61  0  0  1  0            999 V2000
   -1.1283   51.6449   29.1036 C   0  0  0  0  0  0
   -0.6103   51.7212   27.6527 C   0  0  1  0  0  0
   -1.0793   52.5828   27.1757 H   0  0  0  0  0  0
    0.9410   51.8008   27.5634 C   0  0  0  0  0  0
    1.5911   53.0277   28.1970 C   0  0  0  0  0  0
    2.9682   53.1325   28.4588 C   0  0  0  0  0  0
    3.3516   54.3422   29.0254 C   0  0  0  0  0  0
    2.0082   55.4060   29.2571 S   0  0  0  0  0  0
    0.9546   54.2110   28.5767 C   0  0  0  0  0  0
   -0.9701   50.3231   25.3584 C   0  0  0  0  0  0
   -0.9921   51.6780   24.6105 C   0  0  0  0  0  0
   -0.4042   51.5927   23.1935 C   0  0  0  0  0  0
    0.9487   51.0205   23.2473 N   0  0  0  0  0  0
    0.8700   49.6184   23.6738 C   0  0  0  0  0  0
    0.3041   49.4853   25.1085 C   0  0  0  0  0  0
    1.9097   51.4685   22.3538 C   0  0  0  0  0  0
    2.3153   52.8016   22.4353 C   0  0  0  0  0  0
    3.2836   53.2973   21.5719 C   0  0  0  0  0  0
    3.8444   52.4722   20.5868 C   0  0  0  0  0  0
    3.4162   51.1475   20.4832 C   0  0  0  0  0  0
    2.4609   50.6443   21.3649 C   0  0  0  0  0  0
    4.8374   52.8765   19.6735 N   0  0  0  0  0  0
    5.5102   54.0469   19.5955 C   0  0  0  0  0  0
    5.3118   55.0228   20.3187 O   0  0  0  0  0  0
    6.6342   54.0836   18.5877 C   0  0  0  0  0  0
    6.6377   53.2971   17.4231 C   0  0  0  0  0  0
    7.6895   53.3006   16.5616 N   0  0  0  0  0  0
    8.7425   54.1032   16.8657 C   0  0  0  0  0  0
    8.7449   54.8982   18.0135 C   0  0  0  0  0  0
    7.6923   54.8969   18.8745 N   0  0  0  0  0  0
   -0.9778   52.5805   29.6393 H   0  0  0  0  0  0
   -2.1921   51.4129   29.1559 H   0  0  0  0  0  0
   -0.5952   50.8956   29.6802 H   0  0  0  0  0  0
    1.2554   51.7888   26.5214 H   0  0  0  0  0  0
    1.3578   50.8937   28.0015 H   0  0  0  0  0  0
    3.6710   52.3436   28.2287 H   0  0  0  0  0  0
    4.3479   54.6531   29.3006 H   0  0  0  0  0  0
   -0.0926   54.4439   28.4821 H   0  0  0  0  0  0
   -1.7713   49.6968   24.9581 H   0  0  0  0  0  0
   -1.9971   52.1007   24.6184 H   0  0  0  0  0  0
   -0.3886   52.4333   25.1104 H   0  0  0  0  0  0
   -1.0342   50.9901   22.5362 H   0  0  0  0  0  0
   -0.3753   52.5985   22.7707 H   0  0  0  0  0  0
    0.3043   49.0203   22.9557 H   0  0  0  0  0  0
    1.8926   49.2398   23.6800 H   0  0  0  0  0  0
    1.1043   49.7607   25.7876 H   0  0  0  0  0  0
    0.1252   48.4408   25.3681 H   0  0  0  0  0  0
    1.8951   53.4552   23.1855 H   0  0  0  0  0  0
    3.5576   54.3336   21.6856 H   0  0  0  0  0  0
    3.8193   50.4992   19.7166 H   0  0  0  0  0  0
    2.1487   49.6152   21.2678 H   0  0  0  0  0  0
    5.1046   52.1585   19.0071 H   0  0  0  0  0  0
    5.8238   52.6318   17.1674 H   0  0  0  0  0  0
    9.5782   54.0952   16.1800 H   0  0  0  0  0  0
    9.5841   55.5337   18.2613 H   0  0  0  0  0  0
   -1.1857   50.4970   26.8819 N   0  3  0  0  0  0
   -0.9024   49.6370   27.3572 H   0  0  0  0  0  0
   -2.1841   50.5129   27.0243 H   0  0  0  0  0  0
  1  2  1  0  0  0
  1 31  1  0  0  0
  1 32  1  0  0  0
  1 33  1  0  0  0
  2  3  1  0  0  0
  2  4  1  0  0  0
  2 56  1  0  0  0
  4  5  1  0  0  0
  4 34  1  0  0  0
  4 35  1  0  0  0
  5  9  2  0  0  0
  5  6  1  0  0  0
  6  7  2  0  0  0
  6 36  1  0  0  0
  7  8  1  0  0  0
  7 37  1  0  0  0
  8  9  1  0  0  0
  9 38  1  0  0  0
 10 15  1  0  0  0
 10 11  1  0  0  0
 10 39  1  0  0  0
 10 56  1  0  0  0
 11 12  1  0  0  0
 11 40  1  0  0  0
 11 41  1  0  0  0
 12 13  1  0  0  0
 12 42  1  0  0  0
 12 43  1  0  0  0
 13 14  1  0  0  0
 13 16  1  0  0  0
 14 15  1  0  0  0
 14 44  1  0  0  0
 14 45  1  0  0  0
 15 46  1  0  0  0
 15 47  1  0  0  0
 16 21  2  0  0  0
 16 17  1  0  0  0
 17 18  2  0  0  0
 17 48  1  0  0  0
 18 19  1  0  0  0
 18 49  1  0  0  0
 19 20  2  0  0  0
 19 22  1  0  0  0
 20 21  1  0  0  0
 20 50  1  0  0  0
 21 51  1  0  0  0
 22 23  1  0  0  0
 22 52  1  0  0  0
 23 24  2  0  0  0
 23 25  1  0  0  0
 25 30  2  0  0  0
 25 26  1  0  0  0
 26 27  2  0  0  0
 26 53  1  0  0  0
 27 28  1  0  0  0
 28 29  2  0  0  0
 28 54  1  0  0  0
 29 30  1  0  0  0
 29 55  1  0  0  0
 56 57  1  0  0  0
 56 58  1  0  0  0
M  CHG  1  56   1
M  END
> <i_i_glide_confnum>
168

> <i_i_glide_lignum>
109

> <i_i_glide_posenum>
358

> <i_i_glide_rotatable_bonds>
8

> <i_m_Source_File_Index>
3913

> <b_m_subgroup_collapsed>
0

> <r_i_docking_score>
-5.06708

> <r_i_glide_ecoul>
-6.628

> <r_i_glide_eff_state_penalty>
0

> <r_i_glide_einternal>
15.7794

> <r_i_glide_emodel>
-56.018

> <r_i_glide_energy>
-46.3863

> <r_i_glide_erotb>
0.776651

> <r_i_glide_esite>
-0.175939

> <r_i_glide_evdw>
-39.7583

> <r_i_glide_gscore>
-5.06708

> <r_i_glide_hbond>
-0.337222

> <r_i_glide_ligand_efficiency>
-0.168903

> <r_i_glide_ligand_efficiency_ln>
-1.1513

> <r_i_glide_ligand_efficiency_sa>
-0.52482

> <r_i_glide_lipo>
-1.71796

> <r_i_glide_metal>
0

> <r_i_glide_rewards>
-0.630498

> <s_i_glide_gridfile>
wee1_glide-grid

> <s_m_Source_File>
wee1_decoys_glide_SP.sdf

> <s_m_Source_Path>
/Users/zhangxujun/Desktop

> <s_m_entry_id>
4188

> <s_m_entry_name>
wee1_decoys_glide_SP.3913

> <s_m_subgroup_title>
wee1_decoys_glide_SP

> <s_m_subgroupid>
wee1_decoys_glide_SP


$$$$
