ZINC08979937_57
                    3D
 Schrodinger Suite 2024-2.
 50 53  0  0  1  0            999 V2000
    2.6242   52.0967   31.4931 C   0  0  0  0  0  0
    1.2760   52.3923   31.6783 C   0  0  0  0  0  0
    0.6537   53.3139   30.8462 C   0  0  0  0  0  0
    1.3786   53.9528   29.8407 C   0  0  0  0  0  0
    2.7413   53.6492   29.6237 C   0  0  0  0  0  0
    3.3471   52.7066   30.4698 C   0  0  0  0  0  0
    3.4879   54.3365   28.6667 N   0  0  0  0  0  0
    4.9508   54.4962   28.6950 C   0  0  0  0  0  0
    5.7296   53.6947   27.6375 C   0  0  0  0  0  0
    5.1582   53.9359   26.2953 N   0  0  0  0  0  0
    3.7014   53.6969   26.2113 C   0  0  0  0  0  0
    2.9854   54.5040   27.3018 C   0  0  0  0  0  0
    5.9725   54.4116   25.2948 C   0  0  0  0  0  0
    7.1044   54.8364   25.5442 O   0  0  0  0  0  0
    5.5728   54.3676   23.8805 C   0  0  0  0  0  0
    6.3183   54.8969   22.8165 C   0  0  0  0  0  0
    5.5106   54.6042   21.2959 S   0  0  0  0  0  0
    4.3170   53.7282   22.1758 C   0  0  0  0  0  0
    4.5117   53.6968   23.4708 N   0  0  0  0  0  0
    3.2856   53.1249   21.4711 N   0  0  0  0  0  0
    2.1592   52.6044   22.0032 C   0  0  0  0  0  0
    1.9246   52.5256   23.2111 O   0  0  0  0  0  0
    1.3261   52.2056   21.0221 N   0  0  0  0  0  0
    0.0120   51.7080   21.1047 C   0  0  0  0  0  0
   -0.5329   51.2342   19.9088 C   0  0  0  0  0  0
   -1.8327   50.7375   19.8775 C   0  0  0  0  0  0
   -2.5930   50.7177   21.0436 C   0  0  0  0  0  0
   -2.0651   51.1954   22.2405 C   0  0  0  0  0  0
   -0.7649   51.6918   22.2753 C   0  0  0  0  0  0
   -4.2025   50.0968   21.0045 Cl  0  0  0  0  0  0
    0.7410   54.8954   29.1094 F   0  0  0  0  0  0
    3.1105   51.3955   32.1560 H   0  0  0  0  0  0
    0.7154   51.9207   32.4736 H   0  0  0  0  0  0
   -0.3892   53.5500   31.0016 H   0  0  0  0  0  0
    4.3867   52.4447   30.3477 H   0  0  0  0  0  0
    5.1610   55.5452   28.5239 H   0  0  0  0  0  0
    5.3474   54.2856   29.6815 H   0  0  0  0  0  0
    6.7902   53.9419   27.7106 H   0  0  0  0  0  0
    5.6416   52.6312   27.8623 H   0  0  0  0  0  0
    3.4834   52.6372   26.3393 H   0  0  0  0  0  0
    3.2244   54.0399   25.2997 H   0  0  0  0  0  0
    1.9231   54.2737   27.2300 H   0  0  0  0  0  0
    3.1039   55.5634   27.0792 H   0  0  0  0  0  0
    7.2567   55.4340   22.8628 H   0  0  0  0  0  0
    3.3525   53.1702   20.4656 H   0  0  0  0  0  0
    1.6857   52.2722   20.0825 H   0  0  0  0  0  0
    0.0482   51.2415   18.9973 H   0  0  0  0  0  0
   -2.2461   50.3653   18.9514 H   0  0  0  0  0  0
   -2.6596   51.1788   23.1422 H   0  0  0  0  0  0
   -0.3915   52.0602   23.2171 H   0  0  0  0  0  0
  1  6  2  0  0  0
  1  2  1  0  0  0
  1 32  1  0  0  0
  2  3  2  0  0  0
  2 33  1  0  0  0
  3  4  1  0  0  0
  3 34  1  0  0  0
  4  5  2  0  0  0
  4 31  1  0  0  0
  5  6  1  0  0  0
  5  7  1  0  0  0
  6 35  1  0  0  0
  7 12  1  0  0  0
  7  8  1  0  0  0
  8  9  1  0  0  0
  8 36  1  0  0  0
  8 37  1  0  0  0
  9 10  1  0  0  0
  9 38  1  0  0  0
  9 39  1  0  0  0
 10 11  1  0  0  0
 10 13  1  0  0  0
 11 12  1  0  0  0
 11 40  1  0  0  0
 11 41  1  0  0  0
 12 42  1  0  0  0
 12 43  1  0  0  0
 13 14  2  0  0  0
 13 15  1  0  0  0
 15 19  1  0  0  0
 15 16  2  0  0  0
 16 17  1  0  0  0
 16 44  1  0  0  0
 17 18  1  0  0  0
 18 19  2  0  0  0
 18 20  1  0  0  0
 20 21  1  0  0  0
 20 45  1  0  0  0
 21 22  2  0  0  0
 21 23  1  0  0  0
 23 24  1  0  0  0
 23 46  1  0  0  0
 24 29  2  0  0  0
 24 25  1  0  0  0
 25 26  2  0  0  0
 25 47  1  0  0  0
 26 27  1  0  0  0
 26 48  1  0  0  0
 27 28  2  0  0  0
 27 30  1  0  0  0
 28 29  1  0  0  0
 28 49  1  0  0  0
 29 50  1  0  0  0
M  END
> <i_i_glide_confnum>
173

> <i_i_glide_lignum>
58

> <i_i_glide_posenum>
334

> <i_i_glide_rotatable_bonds>
7

> <i_m_Source_File_Index>
6006

> <b_m_subgroup_collapsed>
0

> <r_i_docking_score>
-6.47361

> <r_i_glide_ecoul>
-5.82197

> <r_i_glide_eff_state_penalty>
0

> <r_i_glide_einternal>
10.9916

> <r_i_glide_emodel>
-64.8301

> <r_i_glide_energy>
-49.7243

> <r_i_glide_erotb>
0.570822

> <r_i_glide_esite>
-0.020433

> <r_i_glide_evdw>
-43.9024

> <r_i_glide_gscore>
-6.47361

> <r_i_glide_hbond>
-0.32

> <r_i_glide_ligand_efficiency>
-0.208826

> <r_i_glide_ligand_efficiency_ln>
-1.46

> <r_i_glide_ligand_efficiency_sa>
-0.656003

> <r_i_glide_lipo>
-2.05733

> <r_i_glide_metal>
0

> <r_i_glide_rewards>
-1.57826

> <s_i_glide_gridfile>
wee1_glide-grid

> <s_m_Source_File>
wee1_decoys_glide_SP.sdf

> <s_m_Source_Path>
/Users/zhangxujun/Desktop

> <s_m_entry_id>
6281

> <s_m_entry_name>
wee1_decoys_glide_SP.6006

> <s_m_subgroup_title>
wee1_decoys_glide_SP

> <s_m_subgroupid>
wee1_decoys_glide_SP


$$$$
