ZINC13211458_3300
                    3D
 Schrodinger Suite 2024-2.
 55 58  0  0  1  0            999 V2000
    5.4987   54.0955   23.1098 C   0  0  0  0  0  0
    6.6852   54.7637   22.7937 C   0  0  0  0  0  0
    6.8578   55.2967   21.5182 C   0  0  0  0  0  0
    5.8477   55.1585   20.5565 C   0  0  0  0  0  0
    4.6635   54.4964   20.8771 C   0  0  0  0  0  0
    4.4666   53.9865   22.1658 C   0  0  0  0  0  0
    3.1410   53.3093   22.5102 C   0  0  0  0  0  0
    2.3646   54.1113   23.4549 N   0  0  0  0  0  0
    2.3860   53.7109   24.8000 C   0  0  0  0  0  0
    3.2670   54.3791   25.6540 C   0  0  0  0  0  0
    3.2954   54.0983   27.0167 C   0  0  0  0  0  0
    2.4226   53.1527   27.5656 C   0  0  0  0  0  0
    1.5227   52.4967   26.7127 C   0  0  0  0  0  0
    1.5048   52.7511   25.3329 C   0  0  0  0  0  0
    0.2887   51.8967   24.3102 S   0  0  0  0  0  0
    1.0031   51.3373   23.1581 O   0  0  0  0  0  0
   -0.8066   52.8555   24.1139 O   0  0  0  0  0  0
   -0.3034   50.5242   25.2798 N   0  0  0  0  0  0
    0.5020   49.2723   25.3257 C   0  0  0  0  0  0
   -0.1657   48.1662   24.4852 C   0  0  0  0  0  0
   -1.6162   47.9662   24.9928 C   0  0  0  0  0  0
   -2.4136   49.2785   24.7847 C   0  0  0  0  0  0
   -1.7495   50.3982   25.6217 C   0  0  0  0  0  0
   -2.3010   46.7955   24.2551 C   0  0  0  0  0  0
   -3.1034   46.0934   24.9098 O   0  0  0  0  0  0
    2.4527   52.8515   29.0171 N   0  3  0  0  0  0
    1.8324   51.8743   29.4236 O   0  0  0  0  0  0
    3.1034   53.5841   29.7584 O   0  5  0  0  0  0
    6.0039   55.5896   19.2550 O   0  0  0  0  0  0
    7.0986   56.4900   19.0545 C   0  0  0  0  0  0
    8.3467   56.0323   19.8498 C   0  0  0  0  0  0
    8.0361   55.9593   21.2458 O   0  0  0  0  0  0
    5.3856   53.6700   24.0949 H   0  0  0  0  0  0
    7.4738   54.8562   23.5262 H   0  0  0  0  0  0
    3.8922   54.3995   20.1259 H   0  0  0  0  0  0
    3.3184   52.3012   22.8806 H   0  0  0  0  0  0
    2.5449   53.1831   21.6036 H   0  0  0  0  0  0
    2.6142   55.0787   23.3250 H   0  0  0  0  0  0
    3.9295   55.1384   25.2659 H   0  0  0  0  0  0
    3.9959   54.6300   27.6460 H   0  0  0  0  0  0
    0.8350   51.7806   27.1388 H   0  0  0  0  0  0
    0.6283   48.9706   26.3676 H   0  0  0  0  0  0
    1.4943   49.4736   24.9251 H   0  0  0  0  0  0
    0.4152   47.2496   24.5767 H   0  0  0  0  0  0
   -0.1440   48.4727   23.4359 H   0  0  0  0  0  0
   -1.5694   47.7004   26.0525 H   0  0  0  0  0  0
   -2.4118   49.5783   23.7337 H   0  0  0  0  0  0
   -3.4507   49.1624   25.1034 H   0  0  0  0  0  0
   -1.8309   50.1974   26.6914 H   0  0  0  0  0  0
   -2.2458   51.3514   25.4434 H   0  0  0  0  0  0
    6.8015   57.4871   19.3842 H   0  0  0  0  0  0
    7.3213   56.5486   17.9896 H   0  0  0  0  0  0
    9.1801   56.7201   19.6949 H   0  0  0  0  0  0
    8.6619   55.0477   19.4976 H   0  0  0  0  0  0
   -2.0936   46.6497   23.0288 O   0  5  0  0  0  0
  1  6  2  0  0  0
  1  2  1  0  0  0
  1 33  1  0  0  0
  2  3  2  0  0  0
  2 34  1  0  0  0
  3 32  1  0  0  0
  3  4  1  0  0  0
  4  5  2  0  0  0
  4 29  1  0  0  0
  5  6  1  0  0  0
  5 35  1  0  0  0
  6  7  1  0  0  0
  7  8  1  0  0  0
  7 36  1  0  0  0
  7 37  1  0  0  0
  8  9  1  0  0  0
  8 38  1  0  0  0
  9 14  2  0  0  0
  9 10  1  0  0  0
 10 11  2  0  0  0
 10 39  1  0  0  0
 11 12  1  0  0  0
 11 40  1  0  0  0
 12 13  2  0  0  0
 12 26  1  0  0  0
 13 14  1  0  0  0
 13 41  1  0  0  0
 14 15  1  0  0  0
 15 16  2  0  0  0
 15 17  2  0  0  0
 15 18  1  0  0  0
 18 23  1  0  0  0
 18 19  1  0  0  0
 19 20  1  0  0  0
 19 42  1  0  0  0
 19 43  1  0  0  0
 20 21  1  0  0  0
 20 44  1  0  0  0
 20 45  1  0  0  0
 21 22  1  0  0  0
 21 24  1  0  0  0
 21 46  1  0  0  0
 22 23  1  0  0  0
 22 47  1  0  0  0
 22 48  1  0  0  0
 23 49  1  0  0  0
 23 50  1  0  0  0
 24 25  2  0  0  0
 24 55  1  0  0  0
 26 27  2  0  0  0
 26 28  1  0  0  0
 29 30  1  0  0  0
 30 31  1  0  0  0
 30 51  1  0  0  0
 30 52  1  0  0  0
 31 32  1  0  0  0
 31 53  1  0  0  0
 31 54  1  0  0  0
M  CHG  3  26   1  28  -1  55  -1
M  END
> <i_i_glide_confnum>
400

> <i_i_glide_lignum>
3301

> <i_i_glide_posenum>
370

> <i_i_glide_rotatable_bonds>
7

> <i_m_Source_File_Index>
1007

> <b_m_subgroup_collapsed>
0

> <r_i_docking_score>
-4.53587

> <r_i_glide_ecoul>
-7.18216

> <r_i_glide_eff_state_penalty>
0

> <r_i_glide_einternal>
17.0368

> <r_i_glide_emodel>
-52.1256

> <r_i_glide_energy>
-48.6672

> <r_i_glide_erotb>
0.44597

> <r_i_glide_esite>
-0.0741388

> <r_i_glide_evdw>
-41.485

> <r_i_glide_gscore>
-4.53587

> <r_i_glide_hbond>
-0.150694

> <r_i_glide_ligand_efficiency>
-0.137451

> <r_i_glide_ligand_efficiency_ln>
-1.00875

> <r_i_glide_ligand_efficiency_sa>
-0.440877

> <r_i_glide_lipo>
-2.43832

> <r_i_glide_metal>
0

> <r_i_glide_rewards>
0.832885

> <s_i_glide_gridfile>
wee1_glide-grid

> <s_m_Source_File>
wee1_decoys_glide_SP.sdf

> <s_m_Source_Path>
/Users/zhangxujun/Desktop

> <s_m_entry_id>
1282

> <s_m_entry_name>
wee1_decoys_glide_SP.1007

> <s_m_subgroup_title>
wee1_decoys_glide_SP

> <s_m_subgroupid>
wee1_decoys_glide_SP


$$$$
