ZINC39884037_4045
                    3D
 Schrodinger Suite 2024-2.
 57 62  0  0  1  0            999 V2000
   -7.5908   45.6382   28.5965 C   0  0  0  0  0  0
   -6.7909   45.2048   27.3574 C   0  0  0  0  0  0
   -7.6703   45.2229   26.0929 C   0  0  0  0  0  0
   -5.6822   46.0957   27.2506 O   0  0  0  0  0  0
   -4.6351   45.8672   26.4268 C   0  0  0  0  0  0
   -4.4955   44.8959   25.6811 O   0  0  0  0  0  0
   -3.5593   46.9609   26.5191 C   0  0  0  0  0  0
   -3.9778   48.2003   25.8342 N   0  0  0  0  0  0
   -3.4805   48.5519   24.6172 C   0  0  0  0  0  0
   -2.6858   47.9212   23.9202 O   0  0  0  0  0  0
   -4.1115   49.8848   24.2224 C   0  0  2  0  0  0
   -4.6559   49.7576   23.2814 H   0  0  0  0  0  0
   -3.1810   51.1459   24.2023 C   0  0  1  0  0  0
   -2.6128   51.2459   23.2748 H   0  0  0  0  0  0
   -4.2536   52.2194   24.4260 C   0  0  0  0  0  0
   -4.6817   51.6513   25.7851 C   0  0  1  0  0  0
   -5.4911   52.1976   26.2687 H   0  0  0  0  0  0
   -5.0747   50.1996   25.3484 C   0  0  2  0  0  0
   -6.1065   50.1601   24.9918 H   0  0  0  0  0  0
   -4.8559   49.0943   26.3697 C   0  0  0  0  0  0
   -5.4339   49.0297   27.4534 O   0  0  0  0  0  0
   -3.3193   51.8364   26.4982 C   0  0  2  0  0  0
   -3.1854   52.9172   26.6006 H   0  0  0  0  0  0
   -2.3121   51.2665   25.4975 C   0  0  2  0  0  0
   -2.0154   50.2701   25.8171 H   0  0  0  0  0  0
   -1.0061   52.0968   25.5410 C   0  0  1  0  0  0
   -1.2640   53.1293   25.2969 H   0  0  0  0  0  0
   -0.4589   52.0498   26.9836 C   0  0  0  0  0  0
   -1.1642   51.6980   28.0877 C   0  0  0  0  0  0
   -0.4572   51.7086   29.2403 N   0  0  0  0  0  0
   -0.8610   51.4138   30.1202 H   0  0  0  0  0  0
    0.8677   52.0961   29.1700 C   0  0  0  0  0  0
    1.6865   52.1699   30.0838 O   0  0  0  0  0  0
    1.2037   52.4618   27.4254 S   0  0  0  0  0  0
   -2.9168   51.2929   28.1779 S   0  0  0  0  0  0
    0.0184   51.6722   24.4844 C   0  0  0  0  0  0
    0.6011   52.6333   23.6499 C   0  0  0  0  0  0
    1.5137   52.2487   22.6695 C   0  0  0  0  0  0
    1.8445   50.9052   22.5214 C   0  0  0  0  0  0
    1.2708   49.9418   23.3470 C   0  0  0  0  0  0
    0.3650   50.3235   24.3324 C   0  0  0  0  0  0
    2.7352   50.5323   21.5766 F   0  0  0  0  0  0
   -8.4148   44.9505   28.7953 H   0  0  0  0  0  0
   -8.0155   46.6343   28.4670 H   0  0  0  0  0  0
   -6.9636   45.6685   29.4892 H   0  0  0  0  0  0
   -6.4142   44.1936   27.5255 H   0  0  0  0  0  0
   -8.5450   44.5863   26.2184 H   0  0  0  0  0  0
   -8.0225   46.2306   25.8649 H   0  0  0  0  0  0
   -7.1308   44.8530   25.2199 H   0  0  0  0  0  0
   -3.3343   47.1819   27.5640 H   0  0  0  0  0  0
   -2.6234   46.5915   26.1036 H   0  0  0  0  0  0
   -5.0535   52.2099   23.6822 H   0  0  0  0  0  0
   -3.8569   53.2395   24.4588 H   0  0  0  0  0  0
    0.3503   53.6793   23.7582 H   0  0  0  0  0  0
    1.9607   52.9886   22.0216 H   0  0  0  0  0  0
    1.5259   48.8979   23.2337 H   0  0  0  0  0  0
   -0.0597   49.5659   24.9768 H   0  0  0  0  0  0
  1  2  1  0  0  0
  1 43  1  0  0  0
  1 44  1  0  0  0
  1 45  1  0  0  0
  2  3  1  0  0  0
  2  4  1  0  0  0
  2 46  1  0  0  0
  3 47  1  0  0  0
  3 48  1  0  0  0
  3 49  1  0  0  0
  4  5  1  0  0  0
  5  6  2  0  0  0
  5  7  1  0  0  0
  7  8  1  0  0  0
  7 50  1  0  0  0
  7 51  1  0  0  0
  8 20  1  0  0  0
  8  9  1  0  0  0
  9 10  2  0  0  0
  9 11  1  0  0  0
 11 12  1  0  0  0
 11 18  1  0  0  0
 11 13  1  0  0  0
 13 14  1  0  0  0
 13 24  1  0  0  0
 13 15  1  0  0  0
 15 16  1  0  0  0
 15 52  1  0  0  0
 15 53  1  0  0  0
 16 17  1  0  0  0
 16 18  1  0  0  0
 16 22  1  0  0  0
 18 19  1  0  0  0
 18 20  1  0  0  0
 20 21  2  0  0  0
 22 23  1  0  0  0
 22 35  1  0  0  0
 22 24  1  0  0  0
 24 25  1  0  0  0
 24 26  1  0  0  0
 26 27  1  0  0  0
 26 28  1  0  0  0
 26 36  1  0  0  0
 28 34  1  0  0  0
 28 29  2  0  0  0
 29 30  1  0  0  0
 29 35  1  0  0  0
 30 31  1  0  0  0
 30 32  1  0  0  0
 32 33  2  0  0  0
 32 34  1  0  0  0
 36 41  2  0  0  0
 36 37  1  0  0  0
 37 38  2  0  0  0
 37 54  1  0  0  0
 38 39  1  0  0  0
 38 55  1  0  0  0
 39 40  2  0  0  0
 39 42  1  0  0  0
 40 41  1  0  0  0
 40 56  1  0  0  0
 41 57  1  0  0  0
M  END
> <i_i_glide_confnum>
15

> <i_i_glide_lignum>
4046

> <i_i_glide_posenum>
270

> <i_i_glide_rotatable_bonds>
5

> <i_m_Source_File_Index>
4728

> <b_m_subgroup_collapsed>
0

> <r_i_docking_score>
-3.52835

> <r_i_glide_ecoul>
-5.63257

> <r_i_glide_eff_state_penalty>
0

> <r_i_glide_einternal>
2.57596

> <r_i_glide_emodel>
-48.6148

> <r_i_glide_energy>
-39.8914

> <r_i_glide_erotb>
0.323598

> <r_i_glide_esite>
-0.168048

> <r_i_glide_evdw>
-34.2588

> <r_i_glide_gscore>
-3.52835

> <r_i_glide_hbond>
-0.182567

> <r_i_glide_ligand_efficiency>
-0.103775

> <r_i_glide_ligand_efficiency_ln>
-0.779511

> <r_i_glide_ligand_efficiency_sa>
-0.33619

> <r_i_glide_lipo>
-0.774223

> <r_i_glide_metal>
0

> <r_i_glide_rewards>
-0.169283

> <s_i_glide_gridfile>
wee1_glide-grid

> <s_m_Source_File>
wee1_decoys_glide_SP.sdf

> <s_m_Source_Path>
/Users/zhangxujun/Desktop

> <s_m_entry_id>
5003

> <s_m_entry_name>
wee1_decoys_glide_SP.4728

> <s_m_subgroup_title>
wee1_decoys_glide_SP

> <s_m_subgroupid>
wee1_decoys_glide_SP


$$$$
