ZINC16941194_86
                    3D
 Schrodinger Suite 2024-2.
 64 67  0  0  1  0            999 V2000
    4.6483   54.2340   26.2756 C   0  0  0  0  0  0
    5.9959   54.4974   26.0419 C   0  0  0  0  0  0
    6.4530   54.6313   24.7325 C   0  0  0  0  0  0
    5.5709   54.4966   23.6541 C   0  0  0  0  0  0
    4.2208   54.2087   23.9046 C   0  0  0  0  0  0
    3.7588   54.0946   25.2133 C   0  0  0  0  0  0
    6.0990   54.7094   22.2874 C   0  0  0  0  0  0
    5.4140   54.6189   21.1236 C   0  0  0  0  0  0
    6.0346   54.8969   19.8373 C   0  0  0  0  0  0
    7.1837   55.3455   19.7775 O   0  0  0  0  0  0
    5.3083   54.6533   18.7092 N   0  0  0  0  0  0
    3.9284   54.1305   18.6184 C   0  0  1  0  0  0
    3.2892   54.7083   19.2823 H   0  0  0  0  0  0
    3.5509   54.4471   17.1645 C   0  0  0  0  0  0
    4.8635   54.3099   16.4158 C   0  0  0  0  0  0
    5.8943   54.8934   17.3796 C   0  0  0  0  0  0
    3.8352   52.6980   18.9018 N   0  0  0  0  0  0
    2.7048   52.0050   19.1065 C   0  0  0  0  0  0
    1.5787   52.4967   19.1508 O   0  0  0  0  0  0
    2.9840   50.7072   19.2818 N   0  0  0  0  0  0
    2.0883   49.5951   19.6398 C   0  0  1  0  0  0
    2.7048   48.7653   19.9943 H   0  0  0  0  0  0
    1.0603   49.8810   20.6619 N   0  0  0  0  0  0
   -0.3000   49.8953   20.0944 C   0  0  0  0  0  0
   -0.0854   49.7749   18.5868 C   0  0  0  0  0  0
    1.2643   49.0980   18.4442 C   0  0  0  0  0  0
    1.3825   50.1297   21.9626 C   0  0  0  0  0  0
    2.5518   50.0989   22.3567 O   0  0  0  0  0  0
    0.2921   50.4346   22.8674 C   0  0  0  0  0  0
    0.4914   50.8577   24.1348 C   0  0  0  0  0  0
   -0.5841   51.1976   25.0863 C   0  0  0  0  0  0
   -0.3481   51.0417   26.4560 C   0  0  0  0  0  0
   -1.3625   51.2972   27.3749 C   0  0  0  0  0  0
   -2.6170   51.6975   26.9261 C   0  0  0  0  0  0
   -2.8595   51.8790   25.5677 C   0  0  0  0  0  0
   -1.8452   51.6277   24.6480 C   0  0  0  0  0  0
    4.2922   54.1317   27.2898 H   0  0  0  0  0  0
    6.6781   54.6004   26.8718 H   0  0  0  0  0  0
    7.4972   54.8500   24.5576 H   0  0  0  0  0  0
    3.5123   54.0983   23.0978 H   0  0  0  0  0  0
    2.7179   53.8830   25.4030 H   0  0  0  0  0  0
    7.1490   54.9769   22.2494 H   0  0  0  0  0  0
    4.3739   54.3395   21.1267 H   0  0  0  0  0  0
    3.1884   55.4738   17.0875 H   0  0  0  0  0  0
    2.7678   53.7995   16.7649 H   0  0  0  0  0  0
    4.8689   54.8066   15.4449 H   0  0  0  0  0  0
    5.0769   53.2537   16.2366 H   0  0  0  0  0  0
    5.9928   55.9676   17.2064 H   0  0  0  0  0  0
    6.8547   54.3907   17.2532 H   0  0  0  0  0  0
    4.7044   52.1798   18.8890 H   0  0  0  0  0  0
    3.8882   50.4233   18.9127 H   0  0  0  0  0  0
   -0.8668   49.0348   20.4498 H   0  0  0  0  0  0
   -0.8259   50.8277   20.3080 H   0  0  0  0  0  0
   -0.8948   49.2391   18.0892 H   0  0  0  0  0  0
   -0.0414   50.7678   18.1368 H   0  0  0  0  0  0
    1.7414   49.2997   17.4832 H   0  0  0  0  0  0
    1.1369   48.0153   18.5079 H   0  0  0  0  0  0
   -0.7147   50.3095   22.5010 H   0  0  0  0  0  0
    1.5038   50.9794   24.5035 H   0  0  0  0  0  0
    0.6103   50.6913   26.8139 H   0  0  0  0  0  0
   -1.1887   51.1395   28.4303 H   0  0  0  0  0  0
   -3.4073   51.8702   27.6406 H   0  0  0  0  0  0
   -3.8339   52.1980   25.2301 H   0  0  0  0  0  0
   -2.0522   51.7629   23.5969 H   0  0  0  0  0  0
  1  6  2  0  0  0
  1  2  1  0  0  0
  1 37  1  0  0  0
  2  3  2  0  0  0
  2 38  1  0  0  0
  3  4  1  0  0  0
  3 39  1  0  0  0
  4  5  2  0  0  0
  4  7  1  0  0  0
  5  6  1  0  0  0
  5 40  1  0  0  0
  6 41  1  0  0  0
  7  8  2  0  0  0
  7 42  1  0  0  0
  8  9  1  0  0  0
  8 43  1  0  0  0
  9 10  2  0  0  0
  9 11  1  0  0  0
 11 16  1  0  0  0
 11 12  1  0  0  0
 12 13  1  0  0  0
 12 14  1  0  0  0
 12 17  1  0  0  0
 14 15  1  0  0  0
 14 44  1  0  0  0
 14 45  1  0  0  0
 15 16  1  0  0  0
 15 46  1  0  0  0
 15 47  1  0  0  0
 16 48  1  0  0  0
 16 49  1  0  0  0
 17 18  1  0  0  0
 17 50  1  0  0  0
 18 19  2  0  0  0
 18 20  1  0  0  0
 20 21  1  0  0  0
 20 51  1  0  0  0
 21 22  1  0  0  0
 21 26  1  0  0  0
 21 23  1  0  0  0
 23 24  1  0  0  0
 23 27  1  0  0  0
 24 25  1  0  0  0
 24 52  1  0  0  0
 24 53  1  0  0  0
 25 26  1  0  0  0
 25 54  1  0  0  0
 25 55  1  0  0  0
 26 56  1  0  0  0
 26 57  1  0  0  0
 27 28  2  0  0  0
 27 29  1  0  0  0
 29 30  2  0  0  0
 29 58  1  0  0  0
 30 31  1  0  0  0
 30 59  1  0  0  0
 31 36  2  0  0  0
 31 32  1  0  0  0
 32 33  2  0  0  0
 32 60  1  0  0  0
 33 34  1  0  0  0
 33 61  1  0  0  0
 34 35  2  0  0  0
 34 62  1  0  0  0
 35 36  1  0  0  0
 35 63  1  0  0  0
 36 64  1  0  0  0
M  END
> <i_i_glide_confnum>
34

> <i_i_glide_lignum>
87

> <i_i_glide_posenum>
328

> <i_i_glide_rotatable_bonds>
10

> <i_m_Source_File_Index>
914

> <b_m_subgroup_collapsed>
0

> <r_i_docking_score>
-4.81221

> <r_i_glide_ecoul>
-3.37025

> <r_i_glide_eff_state_penalty>
0

> <r_i_glide_einternal>
4.25833

> <r_i_glide_emodel>
-52.5618

> <r_i_glide_energy>
-40.2504

> <r_i_glide_erotb>
0.765251

> <r_i_glide_esite>
-0.275867

> <r_i_glide_evdw>
-36.8801

> <r_i_glide_gscore>
-4.81221

> <r_i_glide_hbond>
-0.257935

> <r_i_glide_ligand_efficiency>
-0.141536

> <r_i_glide_ligand_efficiency_ln>
-1.06315

> <r_i_glide_ligand_efficiency_sa>
-0.458521

> <r_i_glide_lipo>
-2.02353

> <r_i_glide_metal>
0

> <r_i_glide_rewards>
-0.670583

> <s_i_glide_gridfile>
wee1_glide-grid

> <s_m_Source_File>
wee1_decoys_glide_SP.sdf

> <s_m_Source_Path>
/Users/zhangxujun/Desktop

> <s_m_entry_id>
1189

> <s_m_entry_name>
wee1_decoys_glide_SP.914

> <s_m_subgroup_title>
wee1_decoys_glide_SP

> <s_m_subgroupid>
wee1_decoys_glide_SP


$$$$
