ZINC31557491_1252
                    3D
 Schrodinger Suite 2024-2.
 61 65  0  0  1  0            999 V2000
    0.3049   53.5300   31.8776 C   0  0  0  0  0  0
    0.6268   53.2973   30.4152 C   0  0  0  0  0  0
   -0.0973   52.3475   29.6868 C   0  0  0  0  0  0
    0.1482   52.1268   28.3309 C   0  0  0  0  0  0
    1.1662   52.8672   27.7087 C   0  0  0  0  0  0
    1.9198   53.8029   28.4641 C   0  0  0  0  0  0
    1.6357   54.0491   29.8093 C   0  0  0  0  0  0
    3.1620   54.4968   27.4433 S   0  0  0  0  0  0
    2.5180   53.5655   26.1059 C   0  0  0  0  0  0
    1.5071   52.7860   26.3973 N   0  0  0  0  0  0
    3.0971   53.6969   24.7304 C   0  0  0  0  0  0
    2.3071   53.3883   23.6189 C   0  0  0  0  0  0
    2.8212   53.5094   22.3339 C   0  0  0  0  0  0
    4.1313   53.9483   22.1396 C   0  0  0  0  0  0
    4.9477   54.2097   23.2485 C   0  0  0  0  0  0
    4.4246   54.1007   24.5359 C   0  0  0  0  0  0
    4.5347   54.1033   20.8010 N   0  0  0  0  0  0
    5.5045   54.8946   20.2953 C   0  0  0  0  0  0
    6.2584   55.5896   20.9733 O   0  0  0  0  0  0
    5.6283   54.9962   18.7644 C   0  0  0  0  0  0
    5.2352   53.6972   17.9909 N   0  3  1  0  0  0
    3.7203   53.4760   17.7729 C   0  0  0  0  0  0
    3.6199   52.5251   16.5792 C   0  0  0  0  0  0
    4.9075   52.6795   15.7735 C   0  0  0  0  0  0
    5.7862   53.6861   16.5421 C   0  0  2  0  0  0
    5.6494   54.7012   16.1593 H   0  0  0  0  0  0
    7.2899   53.3415   16.5881 C   0  0  0  0  0  0
    8.1052   54.2286   16.3429 O   0  0  0  0  0  0
    7.6499   52.0940   16.9380 N   0  0  0  0  0  0
    9.0368   51.6259   17.0274 C   0  0  0  0  0  0
    9.5041   50.9640   15.7478 C   0  0  0  0  0  0
   10.0011   49.7017   15.4475 C   0  0  0  0  0  0
   10.2985   49.6931   14.0851 C   0  0  0  0  0  0
    9.9636   50.9468   13.6078 C   0  0  0  0  0  0
    9.4834   51.7184   14.6169 O   0  0  0  0  0  0
    0.4586   54.5718   32.1568 H   0  0  0  0  0  0
   -0.7369   53.3073   32.0816 H   0  0  0  0  0  0
    0.9185   52.8938   32.5136 H   0  0  0  0  0  0
   -0.8728   51.7763   30.1823 H   0  0  0  0  0  0
   -0.4293   51.3983   27.7789 H   0  0  0  0  0  0
    2.1883   54.7956   30.3591 H   0  0  0  0  0  0
    1.2841   53.0643   23.7477 H   0  0  0  0  0  0
    2.1797   53.2944   21.4912 H   0  0  0  0  0  0
    5.9762   54.5185   23.1359 H   0  0  0  0  0  0
    5.0628   54.3184   25.3798 H   0  0  0  0  0  0
    3.9193   53.6670   20.1326 H   0  0  0  0  0  0
    5.0291   55.8157   18.3630 H   0  0  0  0  0  0
    6.6727   55.1907   18.5138 H   0  0  0  0  0  0
    3.2613   53.0870   18.6828 H   0  0  0  0  0  0
    3.2905   54.4563   17.5516 H   0  0  0  0  0  0
    3.5006   51.4967   16.9282 H   0  0  0  0  0  0
    2.7422   52.7502   15.9738 H   0  0  0  0  0  0
    5.3703   51.6964   15.6717 H   0  0  0  0  0  0
    4.7125   53.0327   14.7594 H   0  0  0  0  0  0
    6.9274   51.4262   17.1858 H   0  0  0  0  0  0
    9.7184   52.4263   17.3240 H   0  0  0  0  0  0
    9.0984   50.8987   17.8394 H   0  0  0  0  0  0
   10.1404   48.8968   16.1495 H   0  0  0  0  0  0
   10.7195   48.8802   13.5067 H   0  0  0  0  0  0
   10.0228   51.4082   12.6334 H   0  0  0  0  0  0
    5.5914   52.8710   18.4640 H   0  0  0  0  0  0
  1  2  1  0  0  0
  1 36  1  0  0  0
  1 37  1  0  0  0
  1 38  1  0  0  0
  2  7  2  0  0  0
  2  3  1  0  0  0
  3  4  2  0  0  0
  3 39  1  0  0  0
  4  5  1  0  0  0
  4 40  1  0  0  0
  5 10  1  0  0  0
  5  6  2  0  0  0
  6  7  1  0  0  0
  6  8  1  0  0  0
  7 41  1  0  0  0
  8  9  1  0  0  0
  9 10  2  0  0  0
  9 11  1  0  0  0
 11 16  2  0  0  0
 11 12  1  0  0  0
 12 13  2  0  0  0
 12 42  1  0  0  0
 13 14  1  0  0  0
 13 43  1  0  0  0
 14 15  2  0  0  0
 14 17  1  0  0  0
 15 16  1  0  0  0
 15 44  1  0  0  0
 16 45  1  0  0  0
 17 18  1  0  0  0
 17 46  1  0  0  0
 18 19  2  0  0  0
 18 20  1  0  0  0
 20 21  1  0  0  0
 20 47  1  0  0  0
 20 48  1  0  0  0
 21 25  1  0  0  0
 21 22  1  0  0  0
 21 61  1  0  0  0
 22 23  1  0  0  0
 22 49  1  0  0  0
 22 50  1  0  0  0
 23 24  1  0  0  0
 23 51  1  0  0  0
 23 52  1  0  0  0
 24 25  1  0  0  0
 24 53  1  0  0  0
 24 54  1  0  0  0
 25 26  1  0  0  0
 25 27  1  0  0  0
 27 28  2  0  0  0
 27 29  1  0  0  0
 29 30  1  0  0  0
 29 55  1  0  0  0
 30 31  1  0  0  0
 30 56  1  0  0  0
 30 57  1  0  0  0
 31 35  1  0  0  0
 31 32  2  0  0  0
 32 33  1  0  0  0
 32 58  1  0  0  0
 33 34  2  0  0  0
 33 59  1  0  0  0
 34 35  1  0  0  0
 34 60  1  0  0  0
M  CHG  1  21   1
M  END
> <i_i_glide_confnum>
106

> <i_i_glide_lignum>
1253

> <i_i_glide_posenum>
326

> <i_i_glide_rotatable_bonds>
9

> <i_m_Source_File_Index>
5100

> <b_m_subgroup_collapsed>
0

> <r_i_docking_score>
-5.64543

> <r_i_glide_ecoul>
-6.94908

> <r_i_glide_eff_state_penalty>
0

> <r_i_glide_einternal>
14.3041

> <r_i_glide_emodel>
-66.0093

> <r_i_glide_energy>
-52.1803

> <r_i_glide_erotb>
0.716013

> <r_i_glide_esite>
-0.0981109

> <r_i_glide_evdw>
-45.2312

> <r_i_glide_gscore>
-5.64543

> <r_i_glide_hbond>
-0.16

> <r_i_glide_ligand_efficiency>
-0.166042

> <r_i_glide_ligand_efficiency_ln>
-1.24723

> <r_i_glide_ligand_efficiency_sa>
-0.537912

> <r_i_glide_lipo>
-2.46533

> <r_i_glide_metal>
0

> <r_i_glide_rewards>
-0.334082

> <s_i_glide_gridfile>
wee1_glide-grid

> <s_m_Source_File>
wee1_decoys_glide_SP.sdf

> <s_m_Source_Path>
/Users/zhangxujun/Desktop

> <s_m_entry_id>
5375

> <s_m_entry_name>
wee1_decoys_glide_SP.5100

> <s_m_subgroup_title>
wee1_decoys_glide_SP

> <s_m_subgroupid>
wee1_decoys_glide_SP


$$$$
