ZINC64055351_299
                    3D
 Schrodinger Suite 2024-2.
 52 56  0  0  1  0            999 V2000
    1.5670   53.3674   27.4583 C   0  0  0  0  0  0
    2.6570   54.1720   27.7644 C   0  0  0  0  0  0
    3.5782   54.4964   26.7724 C   0  0  0  0  0  0
    3.4353   54.0252   25.4540 C   0  0  0  0  0  0
    2.3103   53.2283   25.1737 C   0  0  0  0  0  0
    1.3902   52.8968   26.1636 C   0  0  0  0  0  0
    4.4551   54.3453   24.3859 C   0  0  0  0  0  0
    5.7037   54.8976   24.7126 C   0  0  0  0  0  0
    6.6350   55.2190   23.7307 C   0  0  0  0  0  0
    6.3665   54.9691   22.3854 C   0  0  0  0  0  0
    5.1400   54.3855   22.0405 C   0  0  0  0  0  0
    4.1986   54.0965   23.0253 C   0  0  0  0  0  0
    7.3808   55.2967   21.4576 N   0  0  0  0  0  0
    7.2764   55.4196   20.1130 C   0  0  0  0  0  0
    6.2052   55.4829   19.5101 O   0  0  0  0  0  0
    8.6050   55.4789   19.3343 C   0  0  0  0  0  0
    8.4777   55.3461   17.5086 S   0  0  0  0  0  0
    7.8132   53.6555   17.2886 C   0  0  1  0  0  0
    7.3249   53.3776   18.2232 H   0  0  0  0  0  0
    6.8533   53.5851   16.2391 N   0  0  0  0  0  0
    7.4242   52.8567   15.1990 N   0  0  0  0  0  0
    8.4934   52.3676   15.6818 C   0  0  0  0  0  0
    8.7920   52.7363   16.9695 O   0  0  0  0  0  0
    9.3748   51.4907   14.9396 C   0  0  0  0  0  0
   10.5612   50.9872   15.3453 C   0  0  0  0  0  0
   11.3443   51.1476   16.5778 C   0  0  0  0  0  0
   12.5242   50.5174   16.7477 C   0  0  0  0  0  0
   13.0110   49.6794   15.6613 C   0  0  0  0  0  0
   12.3170   49.5347   14.5028 C   0  0  0  0  0  0
   11.0901   50.1850   14.3275 C   0  0  0  0  0  0
   10.3044   50.1723   13.2818 N   0  3  0  0  0  0
    9.0989   50.9849   13.5347 C   0  0  0  0  0  0
    0.8505   53.1101   28.2258 H   0  0  0  0  0  0
    2.7895   54.5443   28.7690 H   0  0  0  0  0  0
    4.4012   55.1301   27.0613 H   0  0  0  0  0  0
    2.1410   52.8148   24.1929 H   0  0  0  0  0  0
    0.5424   52.2700   25.9253 H   0  0  0  0  0  0
    5.9809   55.1059   25.7337 H   0  0  0  0  0  0
    7.5517   55.6896   24.0333 H   0  0  0  0  0  0
    4.8901   54.1486   21.0175 H   0  0  0  0  0  0
    3.2631   53.6767   22.6935 H   0  0  0  0  0  0
    8.2972   55.4119   21.8657 H   0  0  0  0  0  0
    9.0984   56.4235   19.5640 H   0  0  0  0  0  0
    9.2720   54.6890   19.6782 H   0  0  0  0  0  0
    6.4413   54.4281   15.8604 H   0  0  0  0  0  0
   11.0004   51.7914   17.3698 H   0  0  0  0  0  0
   13.0987   50.6498   17.6528 H   0  0  0  0  0  0
   13.9543   49.1630   15.7743 H   0  0  0  0  0  0
   12.7254   48.9082   13.7183 H   0  0  0  0  0  0
    8.2244   50.3347   13.4613 H   0  0  0  0  0  0
    9.0513   51.7743   12.7820 H   0  0  0  0  0  0
   10.5355   49.6964   12.3991 H   0  0  0  0  0  0
  1  6  2  0  0  0
  1  2  1  0  0  0
  1 33  1  0  0  0
  2  3  2  0  0  0
  2 34  1  0  0  0
  3  4  1  0  0  0
  3 35  1  0  0  0
  4  5  2  0  0  0
  4  7  1  0  0  0
  5  6  1  0  0  0
  5 36  1  0  0  0
  6 37  1  0  0  0
  7 12  2  0  0  0
  7  8  1  0  0  0
  8  9  2  0  0  0
  8 38  1  0  0  0
  9 10  1  0  0  0
  9 39  1  0  0  0
 10 11  2  0  0  0
 10 13  1  0  0  0
 11 12  1  0  0  0
 11 40  1  0  0  0
 12 41  1  0  0  0
 13 14  1  0  0  0
 13 42  1  0  0  0
 14 15  2  0  0  0
 14 16  1  0  0  0
 16 17  1  0  0  0
 16 43  1  0  0  0
 16 44  1  0  0  0
 17 18  1  0  0  0
 18 19  1  0  0  0
 18 23  1  0  0  0
 18 20  1  0  0  0
 20 21  1  0  0  0
 20 45  1  0  0  0
 21 22  2  0  0  0
 22 23  1  0  0  0
 22 24  1  0  0  0
 24 32  1  0  0  0
 24 25  2  0  0  0
 25 30  1  0  0  0
 25 26  1  0  0  0
 26 27  2  0  0  0
 26 46  1  0  0  0
 27 28  1  0  0  0
 27 47  1  0  0  0
 28 29  2  0  0  0
 28 48  1  0  0  0
 29 30  1  0  0  0
 29 49  1  0  0  0
 30 31  2  0  0  0
 31 32  1  0  0  0
 31 52  1  0  0  0
 32 50  1  0  0  0
 32 51  1  0  0  0
M  CHG  1  31   1
M  END
> <i_i_glide_confnum>
4

> <i_i_glide_lignum>
300

> <i_i_glide_posenum>
306

> <i_i_glide_rotatable_bonds>
7

> <i_m_Source_File_Index>
991

> <b_m_subgroup_collapsed>
0

> <r_i_docking_score>
-6.02207

> <r_i_glide_ecoul>
-5.92192

> <r_i_glide_eff_state_penalty>
0

> <r_i_glide_einternal>
1.57855

> <r_i_glide_emodel>
-62.3958

> <r_i_glide_energy>
-42.5686

> <r_i_glide_erotb>
0.754062

> <r_i_glide_esite>
-0.0971517

> <r_i_glide_evdw>
-36.6466

> <r_i_glide_gscore>
-6.02207

> <r_i_glide_hbond>
-0.314041

> <r_i_glide_ligand_efficiency>
-0.19426

> <r_i_glide_ligand_efficiency_ln>
-1.35816

> <r_i_glide_ligand_efficiency_sa>
-0.610246

> <r_i_glide_lipo>
-2.83697

> <r_i_glide_metal>
0

> <r_i_glide_rewards>
-0.807355

> <s_i_glide_gridfile>
wee1_glide-grid

> <s_m_Source_File>
wee1_decoys_glide_SP.sdf

> <s_m_Source_Path>
/Users/zhangxujun/Desktop

> <s_m_entry_id>
1266

> <s_m_entry_name>
wee1_decoys_glide_SP.991

> <s_m_subgroup_title>
wee1_decoys_glide_SP

> <s_m_subgroupid>
wee1_decoys_glide_SP


$$$$
