ZINC20676672_769
                    3D
 Schrodinger Suite 2024-2.
 62 65  0  0  1  0            999 V2000
   -1.9108   50.5817   26.0011 C   0  0  0  0  0  0
   -3.0098   50.2912   25.1983 C   0  0  0  0  0  0
   -3.2424   51.0414   24.0493 C   0  0  0  0  0  0
   -2.3819   52.0764   23.6961 C   0  0  0  0  0  0
   -1.2827   52.3707   24.4992 C   0  0  0  0  0  0
   -1.0406   51.6202   25.6620 C   0  0  0  0  0  0
    0.0179   51.8802   26.5575 N   0  0  0  0  0  0
    1.1863   52.5103   26.3122 C   0  0  0  0  0  0
    1.5419   52.8622   25.1906 O   0  0  0  0  0  0
    2.1141   52.7413   27.5257 C   0  0  0  0  0  0
    3.1040   53.9585   27.4158 C   0  0  1  0  0  0
    2.5319   54.7980   27.0142 H   0  0  0  0  0  0
    3.4172   54.4881   28.8547 C   0  0  0  0  0  0
    2.5581   54.8798   29.6420 O   0  0  0  0  0  0
    4.7143   54.5351   29.2201 N   0  0  0  0  0  0
    5.8671   54.2214   28.3631 C   0  0  0  0  0  0
    5.4776   53.1858   27.2935 C   0  0  0  0  0  0
    4.3180   53.7373   26.5758 N   0  0  0  0  0  0
    4.4164   54.2288   25.3109 C   0  0  0  0  0  0
    3.5150   54.8948   24.7974 O   0  0  0  0  0  0
    5.6942   53.9557   24.4858 C   0  0  0  0  0  0
    5.5657   54.5174   23.0456 N   0  3  0  0  0  0
    6.8774   55.1774   22.5715 C   0  0  0  0  0  0
    6.6203   55.8497   21.2110 C   0  0  0  0  0  0
    6.1839   54.8959   20.1798 N   0  0  0  0  0  0
    4.9911   54.1327   20.6087 C   0  0  0  0  0  0
    5.0883   53.4772   22.0113 C   0  0  0  0  0  0
    6.8883   54.6392   19.0001 C   0  0  0  0  0  0
    8.2660   54.8961   18.9036 C   0  0  0  0  0  0
    8.9714   54.6006   17.7427 C   0  0  0  0  0  0
    8.3051   54.0506   16.6524 C   0  0  0  0  0  0
    6.9375   53.8043   16.7162 C   0  0  0  0  0  0
    6.2370   54.0983   17.8819 C   0  0  0  0  0  0
    9.1803   53.6662   15.2175 Cl  0  0  0  0  0  0
   -4.3081   50.7578   23.2688 F   0  0  0  0  0  0
   -1.7434   49.9807   26.8830 H   0  0  0  0  0  0
   -3.6766   49.4859   25.4683 H   0  0  0  0  0  0
   -2.5718   52.6498   22.8021 H   0  0  0  0  0  0
   -0.6421   53.1897   24.2138 H   0  0  0  0  0  0
   -0.0961   51.4743   27.4731 H   0  0  0  0  0  0
    1.4643   52.8414   28.3988 H   0  0  0  0  0  0
    2.6844   51.8253   27.6842 H   0  0  0  0  0  0
    4.9019   54.8884   30.1453 H   0  0  0  0  0  0
    6.2395   55.1507   27.9264 H   0  0  0  0  0  0
    6.6703   53.8229   28.9846 H   0  0  0  0  0  0
    6.3176   52.8970   26.6647 H   0  0  0  0  0  0
    5.1525   52.2751   27.7970 H   0  0  0  0  0  0
    6.5406   54.4572   24.9536 H   0  0  0  0  0  0
    5.9053   52.9056   24.3660 H   0  0  0  0  0  0
    7.1313   55.9384   23.3123 H   0  0  0  0  0  0
    7.6584   54.4152   22.5363 H   0  0  0  0  0  0
    5.8352   56.6027   21.2821 H   0  0  0  0  0  0
    7.5088   56.3977   20.9068 H   0  0  0  0  0  0
    4.7134   53.3594   19.8921 H   0  0  0  0  0  0
    4.1827   54.8666   20.6003 H   0  0  0  0  0  0
    5.7837   52.6368   22.0397 H   0  0  0  0  0  0
    4.0974   53.1658   22.3522 H   0  0  0  0  0  0
    8.8278   55.2912   19.7352 H   0  0  0  0  0  0
   10.0349   54.7854   17.6958 H   0  0  0  0  0  0
    6.4217   53.3780   15.8677 H   0  0  0  0  0  0
    5.1768   53.9034   17.8948 H   0  0  0  0  0  0
    4.8665   55.2513   23.0918 H   0  0  0  0  0  0
  1  6  2  0  0  0
  1  2  1  0  0  0
  1 36  1  0  0  0
  2  3  2  0  0  0
  2 37  1  0  0  0
  3  4  1  0  0  0
  3 35  1  0  0  0
  4  5  2  0  0  0
  4 38  1  0  0  0
  5  6  1  0  0  0
  5 39  1  0  0  0
  6  7  1  0  0  0
  7  8  1  0  0  0
  7 40  1  0  0  0
  8  9  2  0  0  0
  8 10  1  0  0  0
 10 11  1  0  0  0
 10 41  1  0  0  0
 10 42  1  0  0  0
 11 12  1  0  0  0
 11 18  1  0  0  0
 11 13  1  0  0  0
 13 14  2  0  0  0
 13 15  1  0  0  0
 15 16  1  0  0  0
 15 43  1  0  0  0
 16 17  1  0  0  0
 16 44  1  0  0  0
 16 45  1  0  0  0
 17 18  1  0  0  0
 17 46  1  0  0  0
 17 47  1  0  0  0
 18 19  1  0  0  0
 19 20  2  0  0  0
 19 21  1  0  0  0
 21 22  1  0  0  0
 21 48  1  0  0  0
 21 49  1  0  0  0
 22 27  1  0  0  0
 22 23  1  0  0  0
 22 62  1  0  0  0
 23 24  1  0  0  0
 23 50  1  0  0  0
 23 51  1  0  0  0
 24 25  1  0  0  0
 24 52  1  0  0  0
 24 53  1  0  0  0
 25 26  1  0  0  0
 25 28  1  0  0  0
 26 27  1  0  0  0
 26 54  1  0  0  0
 26 55  1  0  0  0
 27 56  1  0  0  0
 27 57  1  0  0  0
 28 33  2  0  0  0
 28 29  1  0  0  0
 29 30  2  0  0  0
 29 58  1  0  0  0
 30 31  1  0  0  0
 30 59  1  0  0  0
 31 32  2  0  0  0
 31 34  1  0  0  0
 32 33  1  0  0  0
 32 60  1  0  0  0
 33 61  1  0  0  0
M  CHG  1  22   1
M  END
> <i_i_glide_confnum>
230

> <i_i_glide_lignum>
770

> <i_i_glide_posenum>
326

> <i_i_glide_rotatable_bonds>
8

> <i_m_Source_File_Index>
2085

> <b_m_subgroup_collapsed>
0

> <r_i_docking_score>
-5.36205

> <r_i_glide_ecoul>
-3.17755

> <r_i_glide_eff_state_penalty>
0

> <r_i_glide_einternal>
6.78364

> <r_i_glide_emodel>
-57.6936

> <r_i_glide_energy>
-43.2298

> <r_i_glide_erotb>
0.595528

> <r_i_glide_esite>
-0.000732566

> <r_i_glide_evdw>
-40.0523

> <r_i_glide_gscore>
-5.36205

> <r_i_glide_hbond>
-0.147012

> <r_i_glide_ligand_efficiency>
-0.157707

> <r_i_glide_ligand_efficiency_ln>
-1.18463

> <r_i_glide_ligand_efficiency_sa>
-0.510911

> <r_i_glide_lipo>
-2.0377

> <r_i_glide_metal>
0

> <r_i_glide_rewards>
-1.29289

> <s_i_glide_gridfile>
wee1_glide-grid

> <s_m_Source_File>
wee1_decoys_glide_SP.sdf

> <s_m_Source_Path>
/Users/zhangxujun/Desktop

> <s_m_entry_id>
2360

> <s_m_entry_name>
wee1_decoys_glide_SP.2085

> <s_m_subgroup_title>
wee1_decoys_glide_SP

> <s_m_subgroupid>
wee1_decoys_glide_SP


$$$$
