ZINC39121642_4791
                    3D
 Schrodinger Suite 2024-2.
 25 26  0  0  1  0            999 V2000
    3.3980   54.0997   23.5429 C   0  0  0  0  0  0
    3.9465   54.2641   22.2711 C   0  0  0  0  0  0
    5.3145   54.4967   22.1049 C   0  0  0  0  0  0
    6.1486   54.5404   23.2215 C   0  0  0  0  0  0
    5.6196   54.4097   24.5279 C   0  0  0  0  0  0
    4.2185   54.1937   24.6955 C   0  0  0  0  0  0
    3.6930   54.0892   26.0098 C   0  0  0  0  0  0
    4.5350   54.1891   27.1168 C   0  0  0  0  0  0
    5.9012   54.3888   26.9492 C   0  0  0  0  0  0
    6.4460   54.4967   25.6729 C   0  0  0  0  0  0
    3.8164   54.0603   28.8753 Br  0  0  0  0  0  0
    5.9044   54.7287   20.8550 N   0  0  0  0  0  0
    5.2666   54.1273   19.3236 S   0  0  0  0  0  0
    4.0521   54.8865   19.0213 O   0  0  0  0  0  0
    6.4007   54.0878   18.3975 O   0  0  0  0  0  0
    4.7911   52.4967   19.6817 N   0  0  0  0  0  0
    2.3361   53.9347   23.6557 H   0  0  0  0  0  0
    3.2886   54.2360   21.4149 H   0  0  0  0  0  0
    7.2094   54.7156   23.1043 H   0  0  0  0  0  0
    2.6337   53.9302   26.1497 H   0  0  0  0  0  0
    6.5414   54.4634   27.8172 H   0  0  0  0  0  0
    7.5044   54.6484   25.5418 H   0  0  0  0  0  0
    6.8986   54.8926   20.8535 H   0  0  0  0  0  0
    3.7815   52.4118   19.8091 H   0  0  0  0  0  0
    5.1044   51.8044   18.9768 H   0  0  0  0  0  0
  1  6  2  0  0  0
  1  2  1  0  0  0
  1 17  1  0  0  0
  2  3  2  0  0  0
  2 18  1  0  0  0
  3  4  1  0  0  0
  3 12  1  0  0  0
  4  5  2  0  0  0
  4 19  1  0  0  0
  5 10  1  0  0  0
  5  6  1  0  0  0
  6  7  1  0  0  0
  7  8  2  0  0  0
  7 20  1  0  0  0
  8  9  1  0  0  0
  8 11  1  0  0  0
  9 10  2  0  0  0
  9 21  1  0  0  0
 10 22  1  0  0  0
 12 13  1  0  0  0
 12 23  1  0  0  0
 13 14  2  0  0  0
 13 15  2  0  0  0
 13 16  1  0  0  0
 16 24  1  0  0  0
 16 25  1  0  0  0
M  END
> <i_i_glide_confnum>
1

> <i_i_glide_lignum>
4792

> <i_i_glide_posenum>
163

> <i_i_glide_rotatable_bonds>
2

> <i_m_Source_File_Index>
1200

> <b_m_subgroup_collapsed>
0

> <r_i_docking_score>
-6.45024

> <r_i_glide_ecoul>
-4.20378

> <r_i_glide_eff_state_penalty>
0

> <r_i_glide_einternal>
2.75504

> <r_i_glide_emodel>
-45.5103

> <r_i_glide_energy>
-32.6445

> <r_i_glide_erotb>
0

> <r_i_glide_esite>
-0.110307

> <r_i_glide_evdw>
-28.4407

> <r_i_glide_gscore>
-6.45024

> <r_i_glide_hbond>
-0.16

> <r_i_glide_ligand_efficiency>
-0.40314

> <r_i_glide_ligand_efficiency_ln>
-1.70977

> <r_i_glide_ligand_efficiency_sa>
-1.01585

> <r_i_glide_lipo>
-2.64661

> <r_i_glide_metal>
0

> <r_i_glide_rewards>
-1.48072

> <s_i_glide_gridfile>
wee1_glide-grid

> <s_m_Source_File>
wee1_decoys_glide_SP.sdf

> <s_m_Source_Path>
/Users/zhangxujun/Desktop

> <s_m_entry_id>
1475

> <s_m_entry_name>
wee1_decoys_glide_SP.1200

> <s_m_subgroup_title>
wee1_decoys_glide_SP

> <s_m_subgroupid>
wee1_decoys_glide_SP


$$$$
