ZINC35596818_2506
                    3D
 Schrodinger Suite 2024-2.
 48 50  0  0  1  0            999 V2000
    0.5246   49.4334   23.7711 C   0  0  0  0  0  0
    1.3955   50.4297   23.0276 C   0  0  0  0  0  0
    2.1793   50.0090   21.9532 C   0  0  0  0  0  0
    2.9907   50.9198   21.2804 C   0  0  0  0  0  0
    3.0443   52.2571   21.6816 C   0  0  0  0  0  0
    2.2153   52.7010   22.7366 C   0  0  0  0  0  0
    1.4023   51.7759   23.4003 C   0  0  0  0  0  0
    2.1358   54.1639   23.1737 C   0  0  0  0  0  0
    3.9539   53.0903   21.0105 N   0  0  0  0  0  0
    4.9506   53.7962   21.6416 C   0  0  0  0  0  0
    5.2758   53.7106   22.9103 N   0  0  0  0  0  0
    6.2423   54.5486   23.2557 C   0  0  0  0  0  0
    6.7599   55.2966   22.1937 C   0  0  0  0  0  0
    5.9052   54.9123   20.7272 S   0  0  0  0  0  0
    6.5871   54.7321   24.6527 C   0  0  0  0  0  0
    7.1043   55.7705   25.0513 O   0  0  0  0  0  0
    6.2712   53.7282   25.4842 N   0  0  0  0  0  0
    6.3518   53.7731   26.9432 C   0  0  0  0  0  0
    4.9847   53.8173   27.6188 C   0  0  0  0  0  0
    3.8349   53.3276   26.9838 C   0  0  0  0  0  0
    2.6018   53.3696   27.6215 C   0  0  0  0  0  0
    2.5095   53.9236   28.8966 C   0  0  0  0  0  0
    3.6428   54.4456   29.5143 C   0  0  0  0  0  0
    4.8777   54.3961   28.8818 C   0  0  0  0  0  0
    0.9275   54.0050   29.7212 S   0  0  0  0  0  0
    0.9026   55.2578   30.4818 O   0  0  0  0  0  0
   -0.0958   53.6959   28.7215 O   0  0  0  0  0  0
    0.9341   52.6982   30.8754 N   0  0  0  0  0  0
   -0.3286   49.9223   24.2435 H   0  0  0  0  0  0
    0.1197   48.6872   23.0865 H   0  0  0  0  0  0
    1.1040   48.9165   24.5368 H   0  0  0  0  0  0
    2.1746   48.9733   21.6450 H   0  0  0  0  0  0
    3.6028   50.5708   20.4603 H   0  0  0  0  0  0
    0.7748   52.1039   24.2172 H   0  0  0  0  0  0
    1.1094   54.4306   23.4252 H   0  0  0  0  0  0
    2.7501   54.3359   24.0558 H   0  0  0  0  0  0
    2.4427   54.8579   22.3900 H   0  0  0  0  0  0
    4.0942   52.8057   20.0509 H   0  0  0  0  0  0
    7.5467   56.0374   22.2216 H   0  0  0  0  0  0
    5.9201   52.8705   25.0804 H   0  0  0  0  0  0
    6.9332   54.6340   27.2820 H   0  0  0  0  0  0
    6.8911   52.8953   27.2965 H   0  0  0  0  0  0
    3.8867   52.8966   25.9959 H   0  0  0  0  0  0
    1.7296   52.9739   27.1209 H   0  0  0  0  0  0
    3.5685   54.8966   30.4818 H   0  0  0  0  0  0
    5.7475   54.8125   29.3715 H   0  0  0  0  0  0
    0.6659   52.9967   31.8178 H   0  0  0  0  0  0
    0.3646   51.9021   30.5749 H   0  0  0  0  0  0
  1  2  1  0  0  0
  1 29  1  0  0  0
  1 30  1  0  0  0
  1 31  1  0  0  0
  2  7  2  0  0  0
  2  3  1  0  0  0
  3  4  2  0  0  0
  3 32  1  0  0  0
  4  5  1  0  0  0
  4 33  1  0  0  0
  5  6  2  0  0  0
  5  9  1  0  0  0
  6  7  1  0  0  0
  6  8  1  0  0  0
  7 34  1  0  0  0
  8 35  1  0  0  0
  8 36  1  0  0  0
  8 37  1  0  0  0
  9 10  1  0  0  0
  9 38  1  0  0  0
 10 14  1  0  0  0
 10 11  2  0  0  0
 11 12  1  0  0  0
 12 13  2  0  0  0
 12 15  1  0  0  0
 13 14  1  0  0  0
 13 39  1  0  0  0
 15 16  2  0  0  0
 15 17  1  0  0  0
 17 18  1  0  0  0
 17 40  1  0  0  0
 18 19  1  0  0  0
 18 41  1  0  0  0
 18 42  1  0  0  0
 19 24  2  0  0  0
 19 20  1  0  0  0
 20 21  2  0  0  0
 20 43  1  0  0  0
 21 22  1  0  0  0
 21 44  1  0  0  0
 22 23  2  0  0  0
 22 25  1  0  0  0
 23 24  1  0  0  0
 23 45  1  0  0  0
 24 46  1  0  0  0
 25 26  2  0  0  0
 25 27  2  0  0  0
 25 28  1  0  0  0
 28 47  1  0  0  0
 28 48  1  0  0  0
M  END
> <i_i_glide_confnum>
86

> <i_i_glide_lignum>
2507

> <i_i_glide_posenum>
239

> <i_i_glide_rotatable_bonds>
7

> <i_m_Source_File_Index>
5886

> <b_m_subgroup_collapsed>
0

> <r_i_docking_score>
-7.08321

> <r_i_glide_ecoul>
-4.31961

> <r_i_glide_eff_state_penalty>
0

> <r_i_glide_einternal>
9.1864

> <r_i_glide_emodel>
-74.7476

> <r_i_glide_energy>
-53.991

> <r_i_glide_erotb>
0.683276

> <r_i_glide_esite>
-0.0476143

> <r_i_glide_evdw>
-49.6714

> <r_i_glide_gscore>
-7.08321

> <r_i_glide_hbond>
-0.32

> <r_i_glide_ligand_efficiency>
-0.252972

> <r_i_glide_ligand_efficiency_ln>
-1.63501

> <r_i_glide_ligand_efficiency_sa>
-0.768171

> <r_i_glide_lipo>
-3.00975

> <r_i_glide_metal>
0

> <r_i_glide_rewards>
-1.25761

> <s_i_glide_gridfile>
wee1_glide-grid

> <s_m_Source_File>
wee1_decoys_glide_SP.sdf

> <s_m_Source_Path>
/Users/zhangxujun/Desktop

> <s_m_entry_id>
6161

> <s_m_entry_name>
wee1_decoys_glide_SP.5886

> <s_m_subgroup_title>
wee1_decoys_glide_SP

> <s_m_subgroupid>
wee1_decoys_glide_SP


$$$$
