ZINC21664304_316
                    3D
 Schrodinger Suite 2024-2.
 74 77  0  0  1  0            999 V2000
    6.7313   54.0970   25.0425 C   0  0  0  0  0  0
    6.9350   53.9320   26.5574 C   0  0  0  0  0  0
    5.7147   54.3706   27.3804 C   0  0  0  0  0  0
    4.6146   53.2927   27.4319 C   0  0  0  0  0  0
    3.3426   53.7653   28.0078 N   0  0  0  0  0  0
    3.4214   53.9960   29.4639 C   0  0  0  0  0  0
    3.2779   52.6956   30.2772 C   0  0  0  0  0  0
    2.1236   53.7671   27.3860 C   0  0  0  0  0  0
    1.1042   54.1103   27.9918 O   0  0  0  0  0  0
    1.9854   53.3199   25.9327 C   0  0  0  0  0  0
    2.8297   53.9083   24.9695 C   0  0  0  0  0  0
    2.7004   53.6412   23.6080 C   0  0  0  0  0  0
    1.6737   52.8107   23.1794 C   0  0  0  0  0  0
    0.8021   52.2483   24.0989 C   0  0  0  0  0  0
    0.9075   52.4967   25.4792 C   0  0  0  0  0  0
   -0.0599   51.9166   26.3163 N   0  0  0  0  0  0
   -1.4095   51.5396   25.8350 C   0  0  0  0  0  0
   -2.5516   51.5349   26.8786 C   0  0  0  0  0  0
   -2.1036   50.8968   28.2000 N   0  3  0  0  0  0
   -0.7470   51.4349   28.6652 C   0  0  0  0  0  0
    0.2789   51.1806   27.5460 C   0  0  0  0  0  0
    3.5695   54.2447   22.6955 N   0  0  0  0  0  0
    4.4585   53.2812   21.5039 S   0  0  0  0  0  0
    5.5043   52.5670   22.2415 O   0  0  0  0  0  0
    3.4784   52.5650   20.6813 O   0  0  0  0  0  0
    5.2646   54.5057   20.4872 C   0  0  0  0  0  0
    6.4289   55.1202   20.9355 C   0  0  0  0  0  0
    7.0436   56.0924   20.1548 C   0  0  0  0  0  0
    6.4800   56.5155   18.9456 C   0  0  0  0  0  0
    5.2726   55.9209   18.5064 C   0  0  0  0  0  0
    4.7035   54.8969   19.2736 C   0  0  0  0  0  0
    4.5392   56.4281   17.2634 C   0  0  0  0  0  0
    5.4297   57.2648   16.3292 C   0  0  0  0  0  0
    6.2407   58.2920   17.1310 C   0  0  0  0  0  0
    7.1916   57.5737   18.1020 C   0  0  0  0  0  0
    7.5850   53.7226   24.4807 H   0  0  0  0  0  0
    6.5948   55.1431   24.7718 H   0  0  0  0  0  0
    5.8586   53.5461   24.6950 H   0  0  0  0  0  0
    7.1780   52.8967   26.7892 H   0  0  0  0  0  0
    7.8104   54.4973   26.8741 H   0  0  0  0  0  0
    6.0521   54.5975   28.3917 H   0  0  0  0  0  0
    5.3150   55.2987   26.9750 H   0  0  0  0  0  0
    4.4785   52.8966   26.4302 H   0  0  0  0  0  0
    4.9812   52.4337   27.9932 H   0  0  0  0  0  0
    4.3651   54.4782   29.7205 H   0  0  0  0  0  0
    2.6449   54.6982   29.7759 H   0  0  0  0  0  0
    3.3712   52.8966   31.3434 H   0  0  0  0  0  0
    2.3022   52.2342   30.1161 H   0  0  0  0  0  0
    4.0497   51.9702   30.0179 H   0  0  0  0  0  0
    3.5951   54.6064   25.2777 H   0  0  0  0  0  0
    1.5307   52.6112   22.1287 H   0  0  0  0  0  0
    0.0291   51.6056   23.7061 H   0  0  0  0  0  0
   -1.7100   52.1256   24.9658 H   0  0  0  0  0  0
   -1.2778   50.5071   25.5032 H   0  0  0  0  0  0
   -3.4109   50.9465   26.5547 H   0  0  0  0  0  0
   -2.8741   52.5410   27.1323 H   0  0  0  0  0  0
   -1.9857   49.8825   28.0841 H   0  0  0  0  0  0
   -0.5084   50.8967   29.5825 H   0  0  0  0  0  0
   -0.8644   52.4926   28.9068 H   0  0  0  0  0  0
    0.2959   50.1196   27.2847 H   0  0  0  0  0  0
    1.2899   51.3857   27.8915 H   0  0  0  0  0  0
    4.1727   54.9177   23.1372 H   0  0  0  0  0  0
    6.8817   54.8261   21.8725 H   0  0  0  0  0  0
    7.9862   56.4968   20.4908 H   0  0  0  0  0  0
    3.7756   54.4471   18.9450 H   0  0  0  0  0  0
    4.0950   55.5980   16.7147 H   0  0  0  0  0  0
    3.7091   57.0501   17.6002 H   0  0  0  0  0  0
    4.8146   57.7718   15.5843 H   0  0  0  0  0  0
    6.1053   56.6116   15.7750 H   0  0  0  0  0  0
    5.5642   58.9467   17.6826 H   0  0  0  0  0  0
    6.8054   58.9379   16.4579 H   0  0  0  0  0  0
    7.6931   58.3049   18.7379 H   0  0  0  0  0  0
    7.9758   57.0799   17.5264 H   0  0  0  0  0  0
   -2.7995   51.0048   28.9234 H   0  0  0  0  0  0
  1  2  1  0  0  0
  1 36  1  0  0  0
  1 37  1  0  0  0
  1 38  1  0  0  0
  2  3  1  0  0  0
  2 39  1  0  0  0
  2 40  1  0  0  0
  3  4  1  0  0  0
  3 41  1  0  0  0
  3 42  1  0  0  0
  4  5  1  0  0  0
  4 43  1  0  0  0
  4 44  1  0  0  0
  5  6  1  0  0  0
  5  8  1  0  0  0
  6  7  1  0  0  0
  6 45  1  0  0  0
  6 46  1  0  0  0
  7 47  1  0  0  0
  7 48  1  0  0  0
  7 49  1  0  0  0
  8  9  2  0  0  0
  8 10  1  0  0  0
 10 15  2  0  0  0
 10 11  1  0  0  0
 11 12  2  0  0  0
 11 50  1  0  0  0
 12 13  1  0  0  0
 12 22  1  0  0  0
 13 14  2  0  0  0
 13 51  1  0  0  0
 14 15  1  0  0  0
 14 52  1  0  0  0
 15 16  1  0  0  0
 16 21  1  0  0  0
 16 17  1  0  0  0
 17 18  1  0  0  0
 17 53  1  0  0  0
 17 54  1  0  0  0
 18 19  1  0  0  0
 18 55  1  0  0  0
 18 56  1  0  0  0
 19 20  1  0  0  0
 19 57  1  0  0  0
 19 74  1  0  0  0
 20 21  1  0  0  0
 20 58  1  0  0  0
 20 59  1  0  0  0
 21 60  1  0  0  0
 21 61  1  0  0  0
 22 23  1  0  0  0
 22 62  1  0  0  0
 23 24  2  0  0  0
 23 25  2  0  0  0
 23 26  1  0  0  0
 26 31  2  0  0  0
 26 27  1  0  0  0
 27 28  2  0  0  0
 27 63  1  0  0  0
 28 29  1  0  0  0
 28 64  1  0  0  0
 29 35  1  0  0  0
 29 30  2  0  0  0
 30 31  1  0  0  0
 30 32  1  0  0  0
 31 65  1  0  0  0
 32 33  1  0  0  0
 32 66  1  0  0  0
 32 67  1  0  0  0
 33 34  1  0  0  0
 33 68  1  0  0  0
 33 69  1  0  0  0
 34 35  1  0  0  0
 34 70  1  0  0  0
 34 71  1  0  0  0
 35 72  1  0  0  0
 35 73  1  0  0  0
M  CHG  1  19   1
M  END
> <i_i_glide_confnum>
335

> <i_i_glide_lignum>
317

> <i_i_glide_posenum>
383

> <i_i_glide_rotatable_bonds>
10

> <i_m_Source_File_Index>
4882

> <b_m_subgroup_collapsed>
0

> <r_i_docking_score>
-2.88508

> <r_i_glide_ecoul>
-3.6432

> <r_i_glide_eff_state_penalty>
0

> <r_i_glide_einternal>
10.2381

> <r_i_glide_emodel>
-46.8361

> <r_i_glide_energy>
-50.1216

> <r_i_glide_erotb>
0.654078

> <r_i_glide_esite>
-0.100931

> <r_i_glide_evdw>
-46.4784

> <r_i_glide_gscore>
-2.88508

> <r_i_glide_hbond>
-0.2

> <r_i_glide_ligand_efficiency>
-0.0824309

> <r_i_glide_ligand_efficiency_ln>
-0.63334

> <r_i_glide_ligand_efficiency_sa>
-0.269637

> <r_i_glide_lipo>
-2.69097

> <r_i_glide_metal>
0

> <r_i_glide_rewards>
2.32314

> <s_i_glide_gridfile>
wee1_glide-grid

> <s_m_Source_File>
wee1_decoys_glide_SP.sdf

> <s_m_Source_Path>
/Users/zhangxujun/Desktop

> <s_m_entry_id>
5157

> <s_m_entry_name>
wee1_decoys_glide_SP.4882

> <s_m_subgroup_title>
wee1_decoys_glide_SP

> <s_m_subgroupid>
wee1_decoys_glide_SP


$$$$
