ZINC15859346_1122
                    3D
 Schrodinger Suite 2024-2.
 58 62  0  0  1  0            999 V2000
    9.1392   52.3627   14.8014 C   0  0  0  0  0  0
    8.0106   53.0660   15.5768 C   0  0  2  0  0  0
    8.3556   53.1834   17.0700 C   0  0  0  0  0  0
    7.2781   53.9830   17.8234 C   0  0  0  0  0  0
    5.5345   53.0297   16.1574 C   0  0  0  0  0  0
    6.6918   52.2823   15.4804 C   0  0  0  0  0  0
    4.7061   54.0269   18.3581 C   0  0  2  0  0  0
    3.9187   53.2858   18.2105 H   0  0  0  0  0  0
    4.2345   55.3342   17.6995 C   0  0  0  0  0  0
    3.0428   55.3267   16.9640 C   0  0  0  0  0  0
    2.5881   56.4896   16.3478 C   0  0  0  0  0  0
    3.3280   57.6646   16.4584 C   0  0  0  0  0  0
    4.5133   57.6873   17.1919 C   0  0  0  0  0  0
    4.9596   56.5280   17.8231 C   0  0  0  0  0  0
    2.7054   59.2471   15.6034 Br  0  0  0  0  0  0
    4.9283   54.1121   19.8650 C   0  0  0  0  0  0
    4.2985   53.4932   20.9427 C   0  0  0  0  0  0
    4.9157   54.0147   22.1339 C   0  0  0  0  0  0
    4.7774   53.8551   23.5254 C   0  0  0  0  0  0
    5.6803   54.4992   24.3750 C   0  0  0  0  0  0
    6.7045   55.2959   23.8657 C   0  0  0  0  0  0
    6.8568   55.4948   22.4932 C   0  0  0  0  0  0
    5.9338   54.8658   21.6561 C   0  0  0  0  0  0
    5.9050   54.9627   20.2993 O   0  0  0  0  0  0
    3.3038   52.5340   20.8620 N   0  0  0  0  0  0
    2.2103   52.4752   21.6500 C   0  0  0  0  0  0
    1.9116   53.3004   22.5154 O   0  0  0  0  0  0
    1.3846   51.3213   21.3965 C   0  0  0  0  0  0
    1.4773   50.2736   20.4718 C   0  0  0  0  0  0
    0.3944   49.4268   20.7114 C   0  0  0  0  0  0
   -0.3198   49.9910   21.7567 C   0  0  0  0  0  0
    0.2774   51.1400   22.1673 O   0  0  0  0  0  0
    9.3437   51.3661   15.1973 H   0  0  0  0  0  0
    8.8852   52.2529   13.7462 H   0  0  0  0  0  0
   10.0672   52.9329   14.8514 H   0  0  0  0  0  0
    7.8646   54.0650   15.1597 H   0  0  0  0  0  0
    9.3247   53.6738   17.1870 H   0  0  0  0  0  0
    8.5005   52.1965   17.5126 H   0  0  0  0  0  0
    7.2002   55.0075   17.4590 H   0  0  0  0  0  0
    7.5250   53.9724   18.8832 H   0  0  0  0  0  0
    4.6417   52.4003   16.1541 H   0  0  0  0  0  0
    5.3260   53.9874   15.6748 H   0  0  0  0  0  0
    6.8160   51.2966   15.9151 H   0  0  0  0  0  0
    6.4426   52.0941   14.4351 H   0  0  0  0  0  0
    2.4589   54.4222   16.8642 H   0  0  0  0  0  0
    1.6694   56.4812   15.7813 H   0  0  0  0  0  0
    5.0727   58.6108   17.2778 H   0  0  0  0  0  0
    5.8703   56.5716   18.4012 H   0  0  0  0  0  0
    3.9906   53.2424   23.9383 H   0  0  0  0  0  0
    5.5856   54.3683   25.4434 H   0  0  0  0  0  0
    7.3988   55.7702   24.5433 H   0  0  0  0  0  0
    7.6570   56.0982   22.0962 H   0  0  0  0  0  0
    3.3413   51.8979   20.0794 H   0  0  0  0  0  0
    2.2431   50.1267   19.7199 H   0  0  0  0  0  0
    0.1579   48.5137   20.1834 H   0  0  0  0  0  0
   -1.2166   49.7069   22.2893 H   0  0  0  0  0  0
    5.8882   53.2964   17.6484 N   0  3  2  0  0  0
    5.9557   52.3679   18.0633 H   0  0  0  0  0  0
  1  2  1  0  0  0
  1 33  1  0  0  0
  1 34  1  0  0  0
  1 35  1  0  0  0
  2  6  1  0  0  0
  2  3  1  0  0  0
  2 36  1  0  0  0
  3  4  1  0  0  0
  3 37  1  0  0  0
  3 38  1  0  0  0
  4 39  1  0  0  0
  4 40  1  0  0  0
  4 57  1  0  0  0
  5  6  1  0  0  0
  5 41  1  0  0  0
  5 42  1  0  0  0
  5 57  1  0  0  0
  6 43  1  0  0  0
  6 44  1  0  0  0
  7  8  1  0  0  0
  7  9  1  0  0  0
  7 16  1  0  0  0
  7 57  1  0  0  0
  9 14  2  0  0  0
  9 10  1  0  0  0
 10 11  2  0  0  0
 10 45  1  0  0  0
 11 12  1  0  0  0
 11 46  1  0  0  0
 12 13  2  0  0  0
 12 15  1  0  0  0
 13 14  1  0  0  0
 13 47  1  0  0  0
 14 48  1  0  0  0
 16 24  1  0  0  0
 16 17  2  0  0  0
 17 18  1  0  0  0
 17 25  1  0  0  0
 18 23  2  0  0  0
 18 19  1  0  0  0
 19 20  2  0  0  0
 19 49  1  0  0  0
 20 21  1  0  0  0
 20 50  1  0  0  0
 21 22  2  0  0  0
 21 51  1  0  0  0
 22 23  1  0  0  0
 22 52  1  0  0  0
 23 24  1  0  0  0
 25 26  1  0  0  0
 25 53  1  0  0  0
 26 27  2  0  0  0
 26 28  1  0  0  0
 28 32  1  0  0  0
 28 29  2  0  0  0
 29 30  1  0  0  0
 29 54  1  0  0  0
 30 31  2  0  0  0
 30 55  1  0  0  0
 31 32  1  0  0  0
 31 56  1  0  0  0
 57 58  1  0  0  0
M  CHG  1  57   1
M  END
> <i_i_glide_confnum>
12

> <i_i_glide_lignum>
1123

> <i_i_glide_posenum>
362

> <i_i_glide_rotatable_bonds>
6

> <i_m_Source_File_Index>
6012

> <b_m_subgroup_collapsed>
0

> <r_i_docking_score>
-3.55822

> <r_i_glide_ecoul>
-2.19441

> <r_i_glide_eff_state_penalty>
0

> <r_i_glide_einternal>
12.741

> <r_i_glide_emodel>
-37.8695

> <r_i_glide_energy>
-35.094

> <r_i_glide_erotb>
0.500218

> <r_i_glide_esite>
-0.0749634

> <r_i_glide_evdw>
-32.8996

> <r_i_glide_gscore>
-3.55822

> <r_i_glide_hbond>
-0.187204

> <r_i_glide_ligand_efficiency>
-0.111194

> <r_i_glide_ligand_efficiency_ln>
-0.796782

> <r_i_glide_ligand_efficiency_sa>
-0.35302

> <r_i_glide_lipo>
-1.69836

> <r_i_glide_metal>
0

> <r_i_glide_rewards>
-0.123763

> <s_i_glide_gridfile>
wee1_glide-grid

> <s_m_Source_File>
wee1_decoys_glide_SP.sdf

> <s_m_Source_Path>
/Users/zhangxujun/Desktop

> <s_m_entry_id>
6287

> <s_m_entry_name>
wee1_decoys_glide_SP.6012

> <s_m_subgroup_title>
wee1_decoys_glide_SP

> <s_m_subgroupid>
wee1_decoys_glide_SP


$$$$
