ZINC36148154_3543
                    3D
 Schrodinger Suite 2024-2.
 65 68  0  0  1  0            999 V2000
   -1.2873   51.0473   30.3230 C   0  0  0  0  0  0
   -0.1988   51.6989   29.5096 C   0  0  0  0  0  0
   -0.2439   51.6009   28.1237 C   0  0  0  0  0  0
    0.8060   52.1034   27.3731 C   0  0  0  0  0  0
    1.8965   52.6904   28.0141 C   0  0  0  0  0  0
    1.9346   52.8164   29.4066 C   0  0  0  0  0  0
    0.8707   52.3243   30.1553 C   0  0  0  0  0  0
    2.8805   53.1609   27.1585 N   0  0  0  0  0  0
    4.1475   53.5641   27.3754 C   0  0  0  0  0  0
    4.7632   53.4087   28.4321 O   0  0  0  0  0  0
    4.6749   54.1172   26.2546 N   0  0  0  0  0  0
    3.8476   55.0225   25.4305 C   0  0  0  0  0  0
    4.0945   54.6723   23.9614 C   0  0  0  0  0  0
    5.5847   54.7264   23.5587 C   0  0  0  0  0  0
    6.4343   53.9515   24.5935 C   0  0  0  0  0  0
    6.1286   54.2728   26.0818 C   0  0  0  0  0  0
    5.8706   54.2984   22.0794 C   0  0  1  0  0  0
    6.9378   54.0968   22.0790 H   0  0  0  0  0  0
    5.1047   53.0175   21.6396 C   0  0  0  0  0  0
    5.5044   51.9526   22.0815 O   0  0  0  0  0  0
    4.0417   53.1233   20.8062 N   0  0  0  0  0  0
    3.2122   52.0871   20.3397 C   0  0  0  0  0  0
    2.9734   50.9009   21.0531 C   0  0  0  0  0  0
    2.1490   49.9187   20.5131 C   0  0  0  0  0  0
    1.5505   50.1241   19.2735 C   0  0  0  0  0  0
    1.7605   51.3101   18.5726 C   0  0  0  0  0  0
    2.5856   52.2939   19.1102 C   0  0  0  0  0  0
    5.6913   55.3452   21.0731 N   0  0  0  0  0  0
    6.6674   55.9233   20.3489 C   0  0  0  0  0  0
    7.8661   55.8153   20.6057 O   0  0  0  0  0  0
    6.2055   56.7024   19.1429 C   0  0  0  0  0  0
    5.0761   56.2928   18.4160 C   0  0  0  0  0  0
    4.6835   56.9838   17.2736 C   0  0  0  0  0  0
    5.4204   58.0808   16.8432 C   0  0  0  0  0  0
    6.5432   58.4968   17.5523 C   0  0  0  0  0  0
    6.9400   57.8077   18.6960 C   0  0  0  0  0  0
    5.0523   58.7328   15.7180 F   0  0  0  0  0  0
   -2.0690   50.5269   29.7644 H   0  0  0  0  0  0
   -0.8959   50.4555   31.1180 H   0  0  0  0  0  0
   -1.6957   51.6999   31.0143 H   0  0  0  0  0  0
   -1.0681   51.0987   27.6352 H   0  0  0  0  0  0
    0.7715   52.0079   26.2968 H   0  0  0  0  0  0
    2.7677   53.2870   29.9070 H   0  0  0  0  0  0
    0.8883   52.3945   31.2335 H   0  0  0  0  0  0
    2.5794   53.2279   26.1991 H   0  0  0  0  0  0
    4.1648   56.0295   25.6839 H   0  0  0  0  0  0
    2.7766   54.9003   25.5926 H   0  0  0  0  0  0
    3.4972   55.2968   23.2955 H   0  0  0  0  0  0
    3.6840   53.6781   23.7822 H   0  0  0  0  0  0
    5.9224   55.7517   23.6790 H   0  0  0  0  0  0
    6.2590   52.8972   24.4077 H   0  0  0  0  0  0
    7.4986   54.0592   24.3744 H   0  0  0  0  0  0
    6.4086   55.2998   26.3204 H   0  0  0  0  0  0
    6.6835   53.5764   26.7149 H   0  0  0  0  0  0
    3.8208   54.0313   20.4348 H   0  0  0  0  0  0
    3.4166   50.7253   22.0217 H   0  0  0  0  0  0
    1.9808   48.9989   21.0533 H   0  0  0  0  0  0
    0.9246   49.3555   18.8470 H   0  0  0  0  0  0
    1.2997   51.4597   17.6079 H   0  0  0  0  0  0
    2.7503   53.2051   18.5533 H   0  0  0  0  0  0
    4.7394   55.6093   20.8766 H   0  0  0  0  0  0
    4.4995   55.4268   18.7069 H   0  0  0  0  0  0
    3.8193   56.6639   16.7118 H   0  0  0  0  0  0
    7.0972   59.3593   17.2120 H   0  0  0  0  0  0
    7.8235   58.1362   19.2244 H   0  0  0  0  0  0
  1  2  1  0  0  0
  1 38  1  0  0  0
  1 39  1  0  0  0
  1 40  1  0  0  0
  2  7  2  0  0  0
  2  3  1  0  0  0
  3  4  2  0  0  0
  3 41  1  0  0  0
  4  5  1  0  0  0
  4 42  1  0  0  0
  5  6  2  0  0  0
  5  8  1  0  0  0
  6  7  1  0  0  0
  6 43  1  0  0  0
  7 44  1  0  0  0
  8  9  1  0  0  0
  8 45  1  0  0  0
  9 10  2  0  0  0
  9 11  1  0  0  0
 11 16  1  0  0  0
 11 12  1  0  0  0
 12 13  1  0  0  0
 12 46  1  0  0  0
 12 47  1  0  0  0
 13 14  1  0  0  0
 13 48  1  0  0  0
 13 49  1  0  0  0
 14 15  1  0  0  0
 14 17  1  0  0  0
 14 50  1  0  0  0
 15 16  1  0  0  0
 15 51  1  0  0  0
 15 52  1  0  0  0
 16 53  1  0  0  0
 16 54  1  0  0  0
 17 18  1  0  0  0
 17 19  1  0  0  0
 17 28  1  0  0  0
 19 20  2  0  0  0
 19 21  1  0  0  0
 21 22  1  0  0  0
 21 55  1  0  0  0
 22 27  2  0  0  0
 22 23  1  0  0  0
 23 24  2  0  0  0
 23 56  1  0  0  0
 24 25  1  0  0  0
 24 57  1  0  0  0
 25 26  2  0  0  0
 25 58  1  0  0  0
 26 27  1  0  0  0
 26 59  1  0  0  0
 27 60  1  0  0  0
 28 29  1  0  0  0
 28 61  1  0  0  0
 29 30  2  0  0  0
 29 31  1  0  0  0
 31 36  2  0  0  0
 31 32  1  0  0  0
 32 33  2  0  0  0
 32 62  1  0  0  0
 33 34  1  0  0  0
 33 63  1  0  0  0
 34 35  2  0  0  0
 34 37  1  0  0  0
 35 36  1  0  0  0
 35 64  1  0  0  0
 36 65  1  0  0  0
M  END
> <i_i_glide_confnum>
22

> <i_i_glide_lignum>
3544

> <i_i_glide_posenum>
183

> <i_i_glide_rotatable_bonds>
10

> <i_m_Source_File_Index>
999

> <b_m_subgroup_collapsed>
0

> <r_i_docking_score>
-4.24759

> <r_i_glide_ecoul>
-1.98418

> <r_i_glide_eff_state_penalty>
0

> <r_i_glide_einternal>
23.9221

> <r_i_glide_emodel>
-23.9559

> <r_i_glide_energy>
-31.9885

> <r_i_glide_erotb>
0.681645

> <r_i_glide_esite>
-0.0754379

> <r_i_glide_evdw>
-30.0044

> <r_i_glide_gscore>
-4.24759

> <r_i_glide_hbond>
0

> <r_i_glide_ligand_efficiency>
-0.117989

> <r_i_glide_ligand_efficiency_ln>
-0.92671

> <r_i_glide_ligand_efficiency_sa>
-0.38959

> <r_i_glide_lipo>
-1.99982

> <r_i_glide_metal>
0

> <r_i_glide_rewards>
-1.05614

> <s_i_glide_gridfile>
wee1_glide-grid

> <s_m_Source_File>
wee1_decoys_glide_SP.sdf

> <s_m_Source_Path>
/Users/zhangxujun/Desktop

> <s_m_entry_id>
1274

> <s_m_entry_name>
wee1_decoys_glide_SP.999

> <s_m_subgroup_title>
wee1_decoys_glide_SP

> <s_m_subgroupid>
wee1_decoys_glide_SP


$$$$
