ZINC21938228_5638
                    3D
 Schrodinger Suite 2024-2.
 50 52  0  0  1  0            999 V2000
   -3.3602   48.3757   25.0836 C   0  0  0  0  0  0
   -2.8170   49.8159   25.0253 C   0  0  1  0  0  0
   -2.3238   49.9023   24.0528 H   0  0  0  0  0  0
   -3.8922   50.9180   25.0833 C   0  0  0  0  0  0
   -5.1924   50.6766   25.5505 C   0  0  0  0  0  0
   -6.1246   51.7115   25.6269 C   0  0  0  0  0  0
   -5.7807   53.0175   25.2384 C   0  0  0  0  0  0
   -4.4895   53.2539   24.7573 C   0  0  0  0  0  0
   -3.5663   52.2155   24.6665 C   0  0  0  0  0  0
   -4.1239   54.4970   24.3630 F   0  0  0  0  0  0
   -6.6412   54.0967   25.2925 O   0  0  0  0  0  0
   -7.9910   53.8943   25.6938 C   0  0  0  0  0  0
   -1.8234   50.0059   26.0817 N   0  0  0  0  0  0
   -0.8189   50.8980   26.0629 C   0  0  0  0  0  0
   -0.3782   51.4069   25.0304 O   0  0  0  0  0  0
   -0.2938   51.3007   27.4136 C   0  0  0  0  0  0
   -1.1305   51.2976   28.5366 C   0  0  0  0  0  0
   -0.6489   51.6968   29.7748 C   0  0  0  0  0  0
    0.6743   52.1035   29.9135 C   0  0  0  0  0  0
    1.5307   52.1523   28.7975 C   0  0  0  0  0  0
    1.0263   51.7420   27.5604 C   0  0  0  0  0  0
    2.8315   52.5620   28.8817 N   0  5  0  0  0  0
    3.1025   54.0995   28.9236 S   0  0  0  0  0  0
    1.9492   54.9437   28.5863 O   0  0  0  0  0  0
    3.9044   54.4949   30.0816 O   0  0  0  0  0  0
    4.2007   54.2543   27.5151 C   0  0  0  0  0  0
    3.6658   54.3293   26.2269 C   0  0  0  0  0  0
    4.5141   54.4899   25.1343 C   0  0  0  0  0  0
    5.8912   54.5553   25.3337 C   0  0  0  0  0  0
    6.4308   54.4590   26.6145 C   0  0  0  0  0  0
    5.5850   54.3079   27.7093 C   0  0  0  0  0  0
    6.7113   54.7146   24.2718 F   0  0  0  0  0  0
    1.2213   52.4967   31.5071 Cl  0  0  0  0  0  0
   -4.1021   48.1983   24.3037 H   0  0  0  0  0  0
   -2.5533   47.6534   24.9379 H   0  0  0  0  0  0
   -3.8171   48.1507   26.0487 H   0  0  0  0  0  0
   -5.4921   49.6931   25.8790 H   0  0  0  0  0  0
   -7.1105   51.4832   26.0041 H   0  0  0  0  0  0
   -2.5781   52.4356   24.2901 H   0  0  0  0  0  0
   -8.5224   54.8443   25.6524 H   0  0  0  0  0  0
   -8.0546   53.5243   26.7198 H   0  0  0  0  0  0
   -8.5060   53.1973   25.0307 H   0  0  0  0  0  0
   -1.9403   49.4664   26.9401 H   0  0  0  0  0  0
   -2.1584   50.9699   28.4717 H   0  0  0  0  0  0
   -1.2952   51.6505   30.6409 H   0  0  0  0  0  0
    1.6755   51.7792   26.6982 H   0  0  0  0  0  0
    2.5966   54.2753   26.0791 H   0  0  0  0  0  0
    4.1091   54.5599   24.1351 H   0  0  0  0  0  0
    7.4991   54.4974   26.7622 H   0  0  0  0  0  0
    6.0053   54.2441   28.7037 H   0  0  0  0  0  0
  1  2  1  0  0  0
  1 34  1  0  0  0
  1 35  1  0  0  0
  1 36  1  0  0  0
  2  3  1  0  0  0
  2  4  1  0  0  0
  2 13  1  0  0  0
  4  9  2  0  0  0
  4  5  1  0  0  0
  5  6  2  0  0  0
  5 37  1  0  0  0
  6  7  1  0  0  0
  6 38  1  0  0  0
  7  8  2  0  0  0
  7 11  1  0  0  0
  8  9  1  0  0  0
  8 10  1  0  0  0
  9 39  1  0  0  0
 11 12  1  0  0  0
 12 40  1  0  0  0
 12 41  1  0  0  0
 12 42  1  0  0  0
 13 14  1  0  0  0
 13 43  1  0  0  0
 14 15  2  0  0  0
 14 16  1  0  0  0
 16 21  2  0  0  0
 16 17  1  0  0  0
 17 18  2  0  0  0
 17 44  1  0  0  0
 18 19  1  0  0  0
 18 45  1  0  0  0
 19 20  2  0  0  0
 19 33  1  0  0  0
 20 21  1  0  0  0
 20 22  1  0  0  0
 21 46  1  0  0  0
 22 23  1  0  0  0
 23 24  2  0  0  0
 23 25  2  0  0  0
 23 26  1  0  0  0
 26 31  2  0  0  0
 26 27  1  0  0  0
 27 28  2  0  0  0
 27 47  1  0  0  0
 28 29  1  0  0  0
 28 48  1  0  0  0
 29 30  2  0  0  0
 29 32  1  0  0  0
 30 31  1  0  0  0
 30 49  1  0  0  0
 31 50  1  0  0  0
M  CHG  1  22  -1
M  END
> <i_i_glide_confnum>
192

> <i_i_glide_lignum>
5639

> <i_i_glide_posenum>
53

> <i_i_glide_rotatable_bonds>
8

> <i_m_Source_File_Index>
3274

> <b_m_subgroup_collapsed>
0

> <r_i_docking_score>
-6.02956

> <r_i_glide_ecoul>
-8.44886

> <r_i_glide_eff_state_penalty>
0

> <r_i_glide_einternal>
17.856

> <r_i_glide_emodel>
-61.0797

> <r_i_glide_energy>
-49.452

> <r_i_glide_erotb>
0.616243

> <r_i_glide_esite>
-0.185462

> <r_i_glide_evdw>
-41.0031

> <r_i_glide_gscore>
-6.02956

> <r_i_glide_hbond>
-0.311101

> <r_i_glide_ligand_efficiency>
-0.188424

> <r_i_glide_ligand_efficiency_ln>
-1.35018

> <r_i_glide_ligand_efficiency_sa>
-0.598208

> <r_i_glide_lipo>
-2.17602

> <r_i_glide_metal>
0

> <r_i_glide_rewards>
-0.65573

> <s_i_glide_gridfile>
wee1_glide-grid

> <s_m_Source_File>
wee1_decoys_glide_SP.sdf

> <s_m_Source_Path>
/Users/zhangxujun/Desktop

> <s_m_entry_id>
3549

> <s_m_entry_name>
wee1_decoys_glide_SP.3274

> <s_m_subgroup_title>
wee1_decoys_glide_SP

> <s_m_subgroupid>
wee1_decoys_glide_SP


$$$$
