ZINC11881817_1067
                    3D
 Schrodinger Suite 2024-2.
 68 72  0  0  1  0            999 V2000
   13.7391   59.9136   19.7772 C   0  0  0  0  0  0
   12.4411   59.6714   19.0490 C   0  0  0  0  0  0
   11.9763   58.4961   18.4660 C   0  0  0  0  0  0
   10.7792   58.8252   17.8701 C   0  0  0  0  0  0
   10.5347   60.1355   18.1304 O   0  0  0  0  0  0
   11.5814   60.6526   18.8926 N   0  0  0  0  0  0
    9.8124   58.0776   16.9639 C   0  0  0  0  0  0
    8.3850   58.2900   17.2716 N   0  0  0  0  0  0
    7.9036   59.6527   17.0051 C   0  0  0  0  0  0
    7.5731   57.3705   17.8584 C   0  0  0  0  0  0
    6.4632   57.6700   18.3054 O   0  0  0  0  0  0
    8.0336   55.8937   17.9341 C   0  0  0  0  0  0
    6.9738   55.0064   18.3376 O   0  0  0  0  0  0
    6.5832   54.8975   19.6637 C   0  0  0  0  0  0
    7.2368   55.5643   20.7052 C   0  0  0  0  0  0
    6.8540   55.3614   22.0221 C   0  0  0  0  0  0
    5.8005   54.5011   22.3518 C   0  0  0  0  0  0
    5.1066   53.8685   21.3077 C   0  0  0  0  0  0
    5.5044   54.0482   19.9722 C   0  0  0  0  0  0
    4.8528   53.2033   18.8766 C   0  0  0  0  0  0
    3.1791   52.7653   17.0651 C   0  0  0  0  0  0
    4.0260   55.1987   17.4208 C   0  0  0  0  0  0
    2.8277   55.9818   16.8795 C   0  0  0  0  0  0
    2.8224   57.2803   16.3574 C   0  0  0  0  0  0
    1.6051   57.6438   16.0378 N   0  0  0  0  0  0
    0.8217   56.5411   16.3588 O   0  0  0  0  0  0
    1.6006   55.5154   16.8817 N   0  0  0  0  0  0
    3.9688   58.2433   16.1458 C   0  0  0  0  0  0
    5.4484   54.3136   23.7890 C   0  0  0  0  0  0
    4.1049   54.1798   24.2058 C   0  0  0  0  0  0
    3.7659   54.0963   25.5648 C   0  0  0  0  0  0
    4.8020   54.1271   26.4908 C   0  0  0  0  0  0
    6.1051   54.2398   26.1041 C   0  0  0  0  0  0
    6.4642   54.3297   24.7677 C   0  0  0  0  0  0
    6.9050   54.2928   27.2000 O   0  0  0  0  0  0
    6.0720   53.9415   28.2700 C   0  0  0  0  0  0
    4.7432   54.1033   27.8484 O   0  0  0  0  0  0
   14.2704   60.7767   19.3744 H   0  0  0  0  0  0
   14.4103   59.0601   19.6815 H   0  0  0  0  0  0
   13.5776   60.0957   20.8402 H   0  0  0  0  0  0
   12.4736   57.5375   18.4439 H   0  0  0  0  0  0
    9.9779   58.3839   15.9319 H   0  0  0  0  0  0
   10.0693   57.0203   16.9719 H   0  0  0  0  0  0
    6.8194   59.6947   16.8827 H   0  0  0  0  0  0
    8.1644   60.3290   17.8198 H   0  0  0  0  0  0
    8.3336   60.0477   16.0827 H   0  0  0  0  0  0
    8.3315   55.5794   16.9357 H   0  0  0  0  0  0
    8.9225   55.7821   18.5563 H   0  0  0  0  0  0
    8.0706   56.2205   20.5174 H   0  0  0  0  0  0
    7.3984   55.8860   22.7937 H   0  0  0  0  0  0
    4.2933   53.1944   21.5387 H   0  0  0  0  0  0
    5.5907   52.8967   18.1299 H   0  0  0  0  0  0
    4.4406   52.2855   19.3029 H   0  0  0  0  0  0
    3.9960   52.5555   16.3688 H   0  0  0  0  0  0
    2.9181   51.8630   17.6239 H   0  0  0  0  0  0
    2.3061   53.1322   16.5300 H   0  0  0  0  0  0
    4.4919   55.7827   18.2144 H   0  0  0  0  0  0
    4.7874   54.9832   16.6692 H   0  0  0  0  0  0
    3.9183   58.7383   15.1763 H   0  0  0  0  0  0
    3.9740   59.0327   16.8994 H   0  0  0  0  0  0
    4.9390   57.7498   16.1916 H   0  0  0  0  0  0
    3.3118   54.1806   23.4728 H   0  0  0  0  0  0
    2.7345   54.0174   25.8744 H   0  0  0  0  0  0
    7.5040   54.4230   24.4881 H   0  0  0  0  0  0
    6.2901   54.5408   29.1544 H   0  0  0  0  0  0
    6.2442   52.8951   28.5148 H   0  0  0  0  0  0
    3.6751   53.8313   18.0803 N   0  3  2  0  0  0
    2.9346   54.0180   18.7486 H   0  0  0  0  0  0
  1  2  1  0  0  0
  1 38  1  0  0  0
  1 39  1  0  0  0
  1 40  1  0  0  0
  2  6  2  0  0  0
  2  3  1  0  0  0
  3  4  2  0  0  0
  3 41  1  0  0  0
  4  5  1  0  0  0
  4  7  1  0  0  0
  5  6  1  0  0  0
  7  8  1  0  0  0
  7 42  1  0  0  0
  7 43  1  0  0  0
  8  9  1  0  0  0
  8 10  1  0  0  0
  9 44  1  0  0  0
  9 45  1  0  0  0
  9 46  1  0  0  0
 10 11  2  0  0  0
 10 12  1  0  0  0
 12 13  1  0  0  0
 12 47  1  0  0  0
 12 48  1  0  0  0
 13 14  1  0  0  0
 14 19  2  0  0  0
 14 15  1  0  0  0
 15 16  2  0  0  0
 15 49  1  0  0  0
 16 17  1  0  0  0
 16 50  1  0  0  0
 17 18  2  0  0  0
 17 29  1  0  0  0
 18 19  1  0  0  0
 18 51  1  0  0  0
 19 20  1  0  0  0
 20 52  1  0  0  0
 20 53  1  0  0  0
 20 67  1  0  0  0
 21 54  1  0  0  0
 21 55  1  0  0  0
 21 56  1  0  0  0
 21 67  1  0  0  0
 22 23  1  0  0  0
 22 57  1  0  0  0
 22 58  1  0  0  0
 22 67  1  0  0  0
 23 27  2  0  0  0
 23 24  1  0  0  0
 24 25  2  0  0  0
 24 28  1  0  0  0
 25 26  1  0  0  0
 26 27  1  0  0  0
 28 59  1  0  0  0
 28 60  1  0  0  0
 28 61  1  0  0  0
 29 34  2  0  0  0
 29 30  1  0  0  0
 30 31  2  0  0  0
 30 62  1  0  0  0
 31 32  1  0  0  0
 31 63  1  0  0  0
 32 37  1  0  0  0
 32 33  2  0  0  0
 33 34  1  0  0  0
 33 35  1  0  0  0
 34 64  1  0  0  0
 35 36  1  0  0  0
 36 37  1  0  0  0
 36 65  1  0  0  0
 36 66  1  0  0  0
 67 68  1  0  0  0
M  CHG  1  67   1
M  END
> <i_i_glide_confnum>
54

> <i_i_glide_lignum>
1068

> <i_i_glide_posenum>
287

> <i_i_glide_rotatable_bonds>
11

> <i_m_Source_File_Index>
2758

> <b_m_subgroup_collapsed>
0

> <r_i_docking_score>
-5.54889

> <r_i_glide_ecoul>
-6.7162

> <r_i_glide_eff_state_penalty>
0

> <r_i_glide_einternal>
4.29842

> <r_i_glide_emodel>
-68.1954

> <r_i_glide_energy>
-50.5256

> <r_i_glide_erotb>
0.834274

> <r_i_glide_esite>
-0.144087

> <r_i_glide_evdw>
-43.8094

> <r_i_glide_gscore>
-5.54889

> <r_i_glide_hbond>
0

> <r_i_glide_ligand_efficiency>
-0.146023

> <r_i_glide_ligand_efficiency_ln>
-1.1965

> <r_i_glide_ligand_efficiency_sa>
-0.490927

> <r_i_glide_lipo>
-2.51666

> <r_i_glide_metal>
0

> <r_i_glide_rewards>
-0.524516

> <s_i_glide_gridfile>
wee1_glide-grid

> <s_m_Source_File>
wee1_decoys_glide_SP.sdf

> <s_m_Source_Path>
/Users/zhangxujun/Desktop

> <s_m_entry_id>
3033

> <s_m_entry_name>
wee1_decoys_glide_SP.2758

> <s_m_subgroup_title>
wee1_decoys_glide_SP

> <s_m_subgroupid>
wee1_decoys_glide_SP


$$$$
