ZINC02095752_65
                    3D
 Schrodinger Suite 2024-2.
 68 72  0  0  1  0            999 V2000
   -6.6339   51.3967   28.1443 C   0  0  0  0  0  0
   -5.7250   52.0222   27.0919 C   0  0  0  0  0  0
   -6.2817   52.9416   26.2000 C   0  0  0  0  0  0
   -5.4931   53.5576   25.2367 C   0  0  0  0  0  0
   -4.1384   53.2623   25.1541 C   0  0  0  0  0  0
   -3.5529   52.3357   26.0319 C   0  0  0  0  0  0
   -4.3516   51.7140   27.0175 C   0  0  0  0  0  0
   -3.7322   50.7086   27.9983 C   0  0  0  0  0  0
   -2.1820   52.0021   25.9896 N   0  0  0  0  0  0
   -1.2420   52.2552   25.0544 C   0  0  0  0  0  0
   -1.4218   52.8970   24.0165 O   0  0  0  0  0  0
    0.1547   51.6613   25.3781 C   0  0  2  0  0  0
    0.0035   50.7157   25.8974 H   0  0  0  0  0  0
    1.0240   52.5776   26.2946 C   0  0  0  0  0  0
    0.5899   52.7994   27.7454 C   0  0  0  0  0  0
   -0.0670   51.7951   28.4935 C   0  0  0  0  0  0
   -0.3664   52.0063   29.8321 C   0  0  0  0  0  0
    0.0369   53.1700   30.4700 C   0  0  0  0  0  0
    0.7273   54.1461   29.7690 C   0  0  0  0  0  0
    1.0155   53.9637   28.4227 C   0  0  0  0  0  0
    0.9125   51.2528   24.1839 N   0  0  0  0  0  0
    1.5044   52.0180   23.2431 C   0  0  0  0  0  0
    1.5234   53.2472   23.3240 O   0  0  0  0  0  0
    2.0766   51.3372   22.2062 N   0  0  0  0  0  0
    2.7482   52.0700   21.1111 C   0  0  0  0  0  0
    2.0639   51.6936   19.7664 C   0  0  1  0  0  0
    2.5816   52.1809   18.9379 H   0  0  0  0  0  0
    2.2105   50.1874   19.5288 C   0  0  0  0  0  0
    1.4925   49.4774   20.6828 C   0  0  1  0  0  0
    1.6282   48.4030   20.5513 H   0  0  0  0  0  0
    2.0815   49.8567   22.0674 C   0  0  0  0  0  0
   -0.0128   49.7780   20.6320 C   0  0  0  0  0  0
   -0.9217   48.8430   20.9979 C   0  0  0  0  0  0
   -2.3265   49.1860   20.9744 C   0  0  0  0  0  0
   -2.6894   50.4202   20.5732 C   0  0  0  0  0  0
   -1.7324   51.4189   20.1206 C   0  0  0  0  0  0
   -2.1499   52.4936   19.6809 O   0  0  0  0  0  0
   -0.3990   51.0611   20.1939 N   0  0  0  0  0  0
    0.5664   52.0971   19.7225 C   0  0  0  0  0  0
   -7.6107   51.8793   28.1900 H   0  0  0  0  0  0
   -6.7851   50.3369   27.9393 H   0  0  0  0  0  0
   -6.1908   51.4833   29.1368 H   0  0  0  0  0  0
   -7.3333   53.1816   26.2508 H   0  0  0  0  0  0
   -5.9338   54.2639   24.5477 H   0  0  0  0  0  0
   -3.5633   53.7745   24.3980 H   0  0  0  0  0  0
   -2.9830   50.0862   27.5106 H   0  0  0  0  0  0
   -4.4529   50.0036   28.4061 H   0  0  0  0  0  0
   -3.2508   51.2281   28.8264 H   0  0  0  0  0  0
   -1.8778   51.4399   26.7706 H   0  0  0  0  0  0
    2.0445   52.1959   26.3297 H   0  0  0  0  0  0
    1.1176   53.5594   25.8282 H   0  0  0  0  0  0
   -0.3586   50.8563   28.0475 H   0  0  0  0  0  0
   -0.9009   51.2494   30.3923 H   0  0  0  0  0  0
   -0.1858   53.3029   31.5224 H   0  0  0  0  0  0
    1.0438   55.0482   30.2724 H   0  0  0  0  0  0
    1.5662   54.7259   27.8944 H   0  0  0  0  0  0
    0.9445   50.2563   24.0416 H   0  0  0  0  0  0
    2.7209   53.1556   21.2475 H   0  0  0  0  0  0
    3.8005   51.7817   21.0846 H   0  0  0  0  0  0
    1.7915   49.8983   18.5629 H   0  0  0  0  0  0
    3.2650   49.9060   19.4982 H   0  0  0  0  0  0
    3.1052   49.4939   22.1399 H   0  0  0  0  0  0
    1.5020   49.3440   22.8337 H   0  0  0  0  0  0
   -0.6065   47.8642   21.3355 H   0  0  0  0  0  0
   -3.0695   48.4741   21.2959 H   0  0  0  0  0  0
   -3.7356   50.6902   20.5673 H   0  0  0  0  0  0
    0.4141   53.0168   20.2962 H   0  0  0  0  0  0
    0.3038   52.3948   18.7029 H   0  0  0  0  0  0
  1  2  1  0  0  0
  1 40  1  0  0  0
  1 41  1  0  0  0
  1 42  1  0  0  0
  2  7  2  0  0  0
  2  3  1  0  0  0
  3  4  2  0  0  0
  3 43  1  0  0  0
  4  5  1  0  0  0
  4 44  1  0  0  0
  5  6  2  0  0  0
  5 45  1  0  0  0
  6  7  1  0  0  0
  6  9  1  0  0  0
  7  8  1  0  0  0
  8 46  1  0  0  0
  8 47  1  0  0  0
  8 48  1  0  0  0
  9 10  1  0  0  0
  9 49  1  0  0  0
 10 11  2  0  0  0
 10 12  1  0  0  0
 12 13  1  0  0  0
 12 14  1  0  0  0
 12 21  1  0  0  0
 14 15  1  0  0  0
 14 50  1  0  0  0
 14 51  1  0  0  0
 15 20  2  0  0  0
 15 16  1  0  0  0
 16 17  2  0  0  0
 16 52  1  0  0  0
 17 18  1  0  0  0
 17 53  1  0  0  0
 18 19  2  0  0  0
 18 54  1  0  0  0
 19 20  1  0  0  0
 19 55  1  0  0  0
 20 56  1  0  0  0
 21 22  1  0  0  0
 21 57  1  0  0  0
 22 23  2  0  0  0
 22 24  1  0  0  0
 24 31  1  0  0  0
 24 25  1  0  0  0
 25 26  1  0  0  0
 25 58  1  0  0  0
 25 59  1  0  0  0
 26 27  1  0  0  0
 26 39  1  0  0  0
 26 28  1  0  0  0
 28 29  1  0  0  0
 28 60  1  0  0  0
 28 61  1  0  0  0
 29 30  1  0  0  0
 29 31  1  0  0  0
 29 32  1  0  0  0
 31 62  1  0  0  0
 31 63  1  0  0  0
 32 38  1  0  0  0
 32 33  2  0  0  0
 33 34  1  0  0  0
 33 64  1  0  0  0
 34 35  2  0  0  0
 34 65  1  0  0  0
 35 36  1  0  0  0
 35 66  1  0  0  0
 36 37  2  0  0  0
 36 38  1  0  0  0
 38 39  1  0  0  0
 39 67  1  0  0  0
 39 68  1  0  0  0
M  END
> <i_i_glide_confnum>
42

> <i_i_glide_lignum>
66

> <i_i_glide_posenum>
35

> <i_i_glide_rotatable_bonds>
8

> <i_m_Source_File_Index>
5084

> <b_m_subgroup_collapsed>
0

> <r_i_docking_score>
-4.88874

> <r_i_glide_ecoul>
-10.5322

> <r_i_glide_eff_state_penalty>
0

> <r_i_glide_einternal>
7.53838

> <r_i_glide_emodel>
-60.3592

> <r_i_glide_energy>
-48.4706

> <r_i_glide_erotb>
0.518911

> <r_i_glide_esite>
-0.0179893

> <r_i_glide_evdw>
-37.9384

> <r_i_glide_gscore>
-4.88874

> <r_i_glide_hbond>
-0.32

> <r_i_glide_ligand_efficiency>
-0.135798

> <r_i_glide_ligand_efficiency_ln>
-1.06659

> <r_i_glide_ligand_efficiency_sa>
-0.448396

> <r_i_glide_lipo>
-1.16702

> <r_i_glide_metal>
0

> <r_i_glide_rewards>
-0.425904

> <s_i_glide_gridfile>
wee1_glide-grid

> <s_m_Source_File>
wee1_decoys_glide_SP.sdf

> <s_m_Source_Path>
/Users/zhangxujun/Desktop

> <s_m_entry_id>
5359

> <s_m_entry_name>
wee1_decoys_glide_SP.5084

> <s_m_subgroup_title>
wee1_decoys_glide_SP

> <s_m_subgroupid>
wee1_decoys_glide_SP


$$$$
