ZINC63221858_4866
                    3D
 Schrodinger Suite 2024-2.
 65 69  0  0  1  0            999 V2000
   -0.3226   48.5331   16.6708 C   0  0  0  0  0  0
    0.5412   48.1296   17.7808 N   0  0  0  0  0  0
    1.4116   46.9795   17.5180 C   0  0  0  0  0  0
    0.9701   49.0969   18.7334 C   0  0  0  0  0  0
    1.8614   48.7455   19.7591 C   0  0  0  0  0  0
    2.3044   49.6891   20.6795 C   0  0  0  0  0  0
    1.8807   51.0137   20.5911 C   0  0  0  0  0  0
    0.9643   51.3738   19.6018 C   0  0  0  0  0  0
    0.5136   50.4255   18.6876 C   0  0  0  0  0  0
    2.4416   52.0575   21.5655 C   0  0  2  0  0  0
    2.9819   51.5092   22.3366 H   0  0  0  0  0  0
    1.3726   52.8848   22.3238 C   0  0  0  0  0  0
    0.1683   52.1295   22.7588 N   0  0  0  0  0  0
    0.2294   50.8182   23.9381 S   0  0  0  0  0  0
   -1.0371   50.0888   23.8085 O   0  0  0  0  0  0
    1.5051   50.1168   23.7802 O   0  0  0  0  0  0
    0.2527   51.5669   25.5687 C   0  0  0  0  0  0
   -0.6708   51.1670   26.5369 C   0  0  0  0  0  0
   -0.6056   51.6966   27.8249 C   0  0  0  0  0  0
    0.3877   52.6144   28.1690 C   0  0  0  0  0  0
    1.3262   53.0149   27.1982 C   0  0  0  0  0  0
    1.2401   52.4959   25.9057 C   0  0  0  0  0  0
    2.3264   53.9142   27.4827 O   0  0  0  0  0  0
    3.2873   53.4961   28.4427 C   0  0  0  0  0  0
    2.7969   53.6302   29.8918 C   0  0  0  0  0  0
    1.5626   52.7733   30.2207 C   0  0  0  0  0  0
    0.4189   53.1142   29.4483 O   0  0  0  0  0  0
    3.5108   52.9484   20.9345 C   0  0  0  0  0  0
    4.5095   53.6513   21.5036 C   0  0  0  0  0  0
    4.9193   53.7738   22.9107 C   0  0  0  0  0  0
    5.9908   54.5121   23.2590 C   0  0  0  0  0  0
    6.7055   55.2190   22.2054 C   0  0  0  0  0  0
    6.3187   55.1513   20.9032 C   0  0  0  0  0  0
    5.2266   54.3551   20.5296 C   0  0  0  0  0  0
    4.7283   54.1305   19.3393 N   0  3  0  0  0  0
    3.5948   53.1997   19.4390 C   0  0  0  0  0  0
   -1.2068   49.0609   17.0311 H   0  0  0  0  0  0
    0.2131   49.2039   15.9965 H   0  0  0  0  0  0
   -0.6694   47.6751   16.0931 H   0  0  0  0  0  0
    1.5376   46.3605   18.4064 H   0  0  0  0  0  0
    1.0218   46.3415   16.7220 H   0  0  0  0  0  0
    2.4019   47.3219   17.2079 H   0  0  0  0  0  0
    2.2365   47.7403   19.8602 H   0  0  0  0  0  0
    2.9973   49.3837   21.4487 H   0  0  0  0  0  0
    0.6201   52.3938   19.5234 H   0  0  0  0  0  0
   -0.1757   50.7567   17.9284 H   0  0  0  0  0  0
    1.8083   53.3884   23.1826 H   0  0  0  0  0  0
    1.0289   53.6939   21.6828 H   0  0  0  0  0  0
   -0.5581   52.0118   22.0484 H   0  0  0  0  0  0
   -1.4265   50.4266   26.3105 H   0  0  0  0  0  0
   -1.3143   51.3659   28.5707 H   0  0  0  0  0  0
    1.9869   52.7835   25.1853 H   0  0  0  0  0  0
    4.1642   54.1295   28.3071 H   0  0  0  0  0  0
    3.6352   52.4839   28.2272 H   0  0  0  0  0  0
    2.5645   54.6781   30.0821 H   0  0  0  0  0  0
    3.6135   53.3580   30.5622 H   0  0  0  0  0  0
    1.2937   52.9213   31.2677 H   0  0  0  0  0  0
    1.7820   51.7047   30.1368 H   0  0  0  0  0  0
    4.3722   53.2912   23.7047 H   0  0  0  0  0  0
    6.2941   54.6093   24.2912 H   0  0  0  0  0  0
    7.5683   55.8138   22.4735 H   0  0  0  0  0  0
    6.8892   55.6936   20.1622 H   0  0  0  0  0  0
    2.7101   53.6850   19.0217 H   0  0  0  0  0  0
    3.8388   52.3038   18.8608 H   0  0  0  0  0  0
    5.0759   54.5151   18.4644 H   0  0  0  0  0  0
  1  2  1  0  0  0
  1 37  1  0  0  0
  1 38  1  0  0  0
  1 39  1  0  0  0
  2  3  1  0  0  0
  2  4  1  0  0  0
  3 40  1  0  0  0
  3 41  1  0  0  0
  3 42  1  0  0  0
  4  9  2  0  0  0
  4  5  1  0  0  0
  5  6  2  0  0  0
  5 43  1  0  0  0
  6  7  1  0  0  0
  6 44  1  0  0  0
  7  8  2  0  0  0
  7 10  1  0  0  0
  8  9  1  0  0  0
  8 45  1  0  0  0
  9 46  1  0  0  0
 10 11  1  0  0  0
 10 12  1  0  0  0
 10 28  1  0  0  0
 12 13  1  0  0  0
 12 47  1  0  0  0
 12 48  1  0  0  0
 13 14  1  0  0  0
 13 49  1  0  0  0
 14 15  2  0  0  0
 14 16  2  0  0  0
 14 17  1  0  0  0
 17 22  2  0  0  0
 17 18  1  0  0  0
 18 19  2  0  0  0
 18 50  1  0  0  0
 19 20  1  0  0  0
 19 51  1  0  0  0
 20 27  1  0  0  0
 20 21  2  0  0  0
 21 22  1  0  0  0
 21 23  1  0  0  0
 22 52  1  0  0  0
 23 24  1  0  0  0
 24 25  1  0  0  0
 24 53  1  0  0  0
 24 54  1  0  0  0
 25 26  1  0  0  0
 25 55  1  0  0  0
 25 56  1  0  0  0
 26 27  1  0  0  0
 26 57  1  0  0  0
 26 58  1  0  0  0
 28 36  1  0  0  0
 28 29  2  0  0  0
 29 34  1  0  0  0
 29 30  1  0  0  0
 30 31  2  0  0  0
 30 59  1  0  0  0
 31 32  1  0  0  0
 31 60  1  0  0  0
 32 33  2  0  0  0
 32 61  1  0  0  0
 33 34  1  0  0  0
 33 62  1  0  0  0
 34 35  2  0  0  0
 35 36  1  0  0  0
 35 65  1  0  0  0
 36 63  1  0  0  0
 36 64  1  0  0  0
M  CHG  1  35   1
M  END
> <i_i_glide_confnum>
322

> <i_i_glide_lignum>
4867

> <i_i_glide_posenum>
65

> <i_i_glide_rotatable_bonds>
7

> <i_m_Source_File_Index>
330

> <b_m_subgroup_collapsed>
0

> <r_i_docking_score>
-2.98342

> <r_i_glide_ecoul>
-0.158843

> <r_i_glide_eff_state_penalty>
0

> <r_i_glide_einternal>
5.25138

> <r_i_glide_emodel>
-46.8095

> <r_i_glide_energy>
-41.7068

> <r_i_glide_erotb>
0.419626

> <r_i_glide_esite>
-0.0362066

> <r_i_glide_evdw>
-41.548

> <r_i_glide_gscore>
-2.98342

> <r_i_glide_hbond>
0

> <r_i_glide_ligand_efficiency>
-0.0852405

> <r_i_glide_ligand_efficiency_ln>
-0.654926

> <r_i_glide_ligand_efficiency_sa>
-0.278827

> <r_i_glide_lipo>
-1.92947

> <r_i_glide_metal>
0

> <r_i_glide_rewards>
0.663861

> <s_i_glide_gridfile>
wee1_glide-grid

> <s_m_Source_File>
wee1_decoys_glide_SP.sdf

> <s_m_Source_Path>
/Users/zhangxujun/Desktop

> <s_m_entry_id>
605

> <s_m_entry_name>
wee1_decoys_glide_SP.330

> <s_m_subgroup_title>
wee1_decoys_glide_SP

> <s_m_subgroupid>
wee1_decoys_glide_SP


$$$$
