ZINC22691453_2105
                    3D
 Schrodinger Suite 2024-2.
 54 58  0  0  1  0            999 V2000
   10.1152   49.6781   13.6815 C   0  0  0  0  0  0
    9.5771   50.5269   14.7922 C   0  0  0  0  0  0
    9.8245   50.4287   16.1549 C   0  0  0  0  0  0
    9.0964   51.3335   16.9222 C   0  0  0  0  0  0
    8.3033   52.1676   16.1596 C   0  0  0  0  0  0
    8.4539   51.8204   14.4738 S   0  0  0  0  0  0
    7.1832   53.4222   16.8050 S   0  0  0  0  0  0
    6.2685   53.7951   15.7205 O   0  0  0  0  0  0
    6.7040   52.9026   18.0861 O   0  0  0  0  0  0
    8.3062   54.7542   17.1181 N   0  0  0  0  0  0
    8.3618   55.9468   16.2493 C   0  0  0  0  0  0
    7.8877   57.1839   17.0348 C   0  0  0  0  0  0
    8.6078   57.3137   18.4043 C   0  0  0  0  0  0
    8.6962   56.0078   19.2634 C   0  0  2  0  0  0
    9.4213   56.1688   20.0634 H   0  0  0  0  0  0
    9.1183   54.8132   18.3578 C   0  0  0  0  0  0
    7.3496   55.6967   19.9755 C   0  0  0  0  0  0
    6.2890   55.8250   19.3651 O   0  0  0  0  0  0
    7.4287   55.3375   21.2806 N   0  0  0  0  0  0
    6.3906   54.8966   22.0993 C   0  0  0  0  0  0
    6.5232   54.8575   23.4037 N   0  0  0  0  0  0
    5.4344   54.4301   24.0340 C   0  0  0  0  0  0
    4.3958   54.0632   23.1741 C   0  0  0  0  0  0
    4.8604   54.2964   21.5185 S   0  0  0  0  0  0
    5.3976   54.3724   25.5085 C   0  0  0  0  0  0
    6.4937   54.5895   26.3188 C   0  0  0  0  0  0
    6.1590   54.4963   27.6428 N   0  0  0  0  0  0
    6.8187   54.6560   28.3955 H   0  0  0  0  0  0
    4.8234   54.1880   27.7535 C   0  0  0  0  0  0
    4.3027   54.0974   26.4185 C   0  0  0  0  0  0
    2.9370   53.7924   26.2699 C   0  0  0  0  0  0
    2.1500   53.5898   27.4026 C   0  0  0  0  0  0
    2.6883   53.6878   28.6813 C   0  0  0  0  0  0
    4.0336   53.9888   28.8905 C   0  0  0  0  0  0
   11.0504   49.1843   13.9473 H   0  0  0  0  0  0
   10.3059   50.2586   12.7778 H   0  0  0  0  0  0
    9.4052   48.8963   13.4114 H   0  0  0  0  0  0
   10.4892   49.6941   16.5856 H   0  0  0  0  0  0
    9.1257   51.3604   17.9995 H   0  0  0  0  0  0
    9.3817   56.0599   15.8802 H   0  0  0  0  0  0
    7.7271   55.7870   15.3766 H   0  0  0  0  0  0
    8.0422   58.0857   16.4421 H   0  0  0  0  0  0
    6.8094   57.1173   17.1882 H   0  0  0  0  0  0
    9.6280   57.6728   18.2602 H   0  0  0  0  0  0
    8.2090   58.1403   18.9919 H   0  0  0  0  0  0
    9.0562   53.8593   18.8816 H   0  0  0  0  0  0
   10.1530   54.9338   18.0293 H   0  0  0  0  0  0
    8.3179   55.4576   21.7434 H   0  0  0  0  0  0
    3.4206   53.6678   23.4018 H   0  0  0  0  0  0
    7.5043   54.8130   26.0332 H   0  0  0  0  0  0
    2.4815   53.7161   25.2977 H   0  0  0  0  0  0
    1.1016   53.3530   27.2868 H   0  0  0  0  0  0
    2.0417   53.5238   29.5309 H   0  0  0  0  0  0
    4.4423   54.0626   29.8872 H   0  0  0  0  0  0
  1  2  1  0  0  0
  1 35  1  0  0  0
  1 36  1  0  0  0
  1 37  1  0  0  0
  2  6  1  0  0  0
  2  3  2  0  0  0
  3  4  1  0  0  0
  3 38  1  0  0  0
  4  5  2  0  0  0
  4 39  1  0  0  0
  5  6  1  0  0  0
  5  7  1  0  0  0
  7  8  2  0  0  0
  7  9  2  0  0  0
  7 10  1  0  0  0
 10 16  1  0  0  0
 10 11  1  0  0  0
 11 12  1  0  0  0
 11 40  1  0  0  0
 11 41  1  0  0  0
 12 13  1  0  0  0
 12 42  1  0  0  0
 12 43  1  0  0  0
 13 14  1  0  0  0
 13 44  1  0  0  0
 13 45  1  0  0  0
 14 15  1  0  0  0
 14 16  1  0  0  0
 14 17  1  0  0  0
 16 46  1  0  0  0
 16 47  1  0  0  0
 17 18  2  0  0  0
 17 19  1  0  0  0
 19 20  1  0  0  0
 19 48  1  0  0  0
 20 24  1  0  0  0
 20 21  2  0  0  0
 21 22  1  0  0  0
 22 23  2  0  0  0
 22 25  1  0  0  0
 23 24  1  0  0  0
 23 49  1  0  0  0
 25 30  1  0  0  0
 25 26  2  0  0  0
 26 27  1  0  0  0
 26 50  1  0  0  0
 27 28  1  0  0  0
 27 29  1  0  0  0
 29 34  2  0  0  0
 29 30  1  0  0  0
 30 31  2  0  0  0
 31 32  1  0  0  0
 31 51  1  0  0  0
 32 33  2  0  0  0
 32 52  1  0  0  0
 33 34  1  0  0  0
 33 53  1  0  0  0
 34 54  1  0  0  0
M  END
> <i_i_glide_confnum>
153

> <i_i_glide_lignum>
2106

> <i_i_glide_posenum>
215

> <i_i_glide_rotatable_bonds>
6

> <i_m_Source_File_Index>
544

> <b_m_subgroup_collapsed>
0

> <r_i_docking_score>
-7.00611

> <r_i_glide_ecoul>
-1.86144

> <r_i_glide_eff_state_penalty>
0

> <r_i_glide_einternal>
2.38333

> <r_i_glide_emodel>
-72.6892

> <r_i_glide_energy>
-50.6744

> <r_i_glide_erotb>
0.514931

> <r_i_glide_esite>
-0.0963045

> <r_i_glide_evdw>
-48.8129

> <r_i_glide_gscore>
-7.00611

> <r_i_glide_hbond>
-0.205644

> <r_i_glide_ligand_efficiency>
-0.218941

> <r_i_glide_ligand_efficiency_ln>
-1.56886

> <r_i_glide_ligand_efficiency_sa>
-0.695094

> <r_i_glide_lipo>
-3.42933

> <r_i_glide_metal>
0

> <r_i_glide_rewards>
-1.0699

> <s_i_glide_gridfile>
wee1_glide-grid

> <s_m_Source_File>
wee1_decoys_glide_SP.sdf

> <s_m_Source_Path>
/Users/zhangxujun/Desktop

> <s_m_entry_id>
819

> <s_m_entry_name>
wee1_decoys_glide_SP.544

> <s_m_subgroup_title>
wee1_decoys_glide_SP

> <s_m_subgroupid>
wee1_decoys_glide_SP


$$$$
