ZINC57853786_139
                    3D
 Schrodinger Suite 2024-2.
 59 61  0  0  1  0            999 V2000
    1.8933   56.2145   28.8668 C   0  0  0  0  0  0
    2.2778   55.1677   29.9205 C   0  0  2  0  0  0
    2.3035   55.6976   30.8687 H   0  0  0  0  0  0
    3.6326   54.4603   29.6638 C   0  0  0  0  0  0
    3.5552   53.6590   28.4402 N   0  0  0  0  0  0
    2.5291   52.6162   28.6121 C   0  0  0  0  0  0
    1.1551   53.2443   28.9869 C   0  0  2  0  0  0
    0.7790   53.8116   28.1358 H   0  0  0  0  0  0
    1.2928   54.1489   30.0894 O   0  0  0  0  0  0
    0.0978   52.1907   29.3349 C   0  0  0  0  0  0
    4.2908   53.8981   27.2847 C   0  0  0  0  0  0
    5.6550   54.2081   27.3747 C   0  0  0  0  0  0
    6.4023   54.4972   26.2318 C   0  0  0  0  0  0
    5.7974   54.5139   24.9753 C   0  0  0  0  0  0
    4.4242   54.2417   24.8805 C   0  0  0  0  0  0
    3.6798   53.9329   26.0181 C   0  0  0  0  0  0
    2.3535   53.6961   25.8723 F   0  0  0  0  0  0
    6.5971   54.8670   23.8697 N   0  0  0  0  0  0
    6.3466   54.6491   22.5633 C   0  0  0  0  0  0
    5.5043   53.8663   22.1192 O   0  0  0  0  0  0
    7.1266   55.4254   21.7910 N   0  0  0  0  0  0
    7.2680   55.3651   20.3284 C   0  0  0  0  0  0
    5.9413   55.3923   19.4925 C   0  0  1  0  0  0
    5.1044   55.4832   20.1837 H   0  0  0  0  0  0
    5.7953   56.4926   18.4300 C   0  0  0  0  0  0
    4.6347   56.8965   17.7568 C   0  0  0  0  0  0
    4.7841   58.0021   16.9155 C   0  0  0  0  0  0
    6.0733   58.4955   16.9214 C   0  0  0  0  0  0
    7.1086   57.5408   17.9239 S   0  0  0  0  0  0
    5.7226   53.9770   18.8832 N   0  3  0  0  0  0
    4.2451   53.5869   18.6544 C   0  0  0  0  0  0
    6.5779   53.6631   17.6325 C   0  0  0  0  0  0
    2.6282   57.0156   28.8812 H   0  0  0  0  0  0
    1.8746   55.7968   27.8630 H   0  0  0  0  0  0
    0.9195   56.6560   29.0770 H   0  0  0  0  0  0
    3.8324   53.7705   30.4845 H   0  0  0  0  0  0
    4.4692   55.1554   29.7087 H   0  0  0  0  0  0
    2.4419   52.0720   27.6715 H   0  0  0  0  0  0
    2.8684   51.9239   29.3842 H   0  0  0  0  0  0
    0.0157   51.4286   28.5615 H   0  0  0  0  0  0
    0.3360   51.6967   30.2742 H   0  0  0  0  0  0
   -0.8838   52.6468   29.4546 H   0  0  0  0  0  0
    6.1503   54.2066   28.3343 H   0  0  0  0  0  0
    7.4563   54.7027   26.3350 H   0  0  0  0  0  0
    3.9119   54.2775   23.9315 H   0  0  0  0  0  0
    7.4843   55.2964   24.0866 H   0  0  0  0  0  0
    7.7785   56.0298   22.2652 H   0  0  0  0  0  0
    7.8770   54.4970   20.0802 H   0  0  0  0  0  0
    7.9263   56.1865   20.0568 H   0  0  0  0  0  0
    3.6773   56.4213   17.9061 H   0  0  0  0  0  0
    3.9752   58.4550   16.3578 H   0  0  0  0  0  0
    6.4453   59.3727   16.4129 H   0  0  0  0  0  0
    3.8618   54.1495   17.8052 H   0  0  0  0  0  0
    4.2329   52.5153   18.4470 H   0  0  0  0  0  0
    3.6870   53.7989   19.5670 H   0  0  0  0  0  0
    6.2194   54.2909   16.8136 H   0  0  0  0  0  0
    7.6201   53.8820   17.8670 H   0  0  0  0  0  0
    6.4438   52.6028   17.4060 H   0  0  0  0  0  0
    6.0311   53.3464   19.6126 H   0  0  0  0  0  0
  1  2  1  0  0  0
  1 33  1  0  0  0
  1 34  1  0  0  0
  1 35  1  0  0  0
  2  3  1  0  0  0
  2  9  1  0  0  0
  2  4  1  0  0  0
  4  5  1  0  0  0
  4 36  1  0  0  0
  4 37  1  0  0  0
  5  6  1  0  0  0
  5 11  1  0  0  0
  6  7  1  0  0  0
  6 38  1  0  0  0
  6 39  1  0  0  0
  7  8  1  0  0  0
  7  9  1  0  0  0
  7 10  1  0  0  0
 10 40  1  0  0  0
 10 41  1  0  0  0
 10 42  1  0  0  0
 11 16  2  0  0  0
 11 12  1  0  0  0
 12 13  2  0  0  0
 12 43  1  0  0  0
 13 14  1  0  0  0
 13 44  1  0  0  0
 14 15  2  0  0  0
 14 18  1  0  0  0
 15 16  1  0  0  0
 15 45  1  0  0  0
 16 17  1  0  0  0
 18 19  1  0  0  0
 18 46  1  0  0  0
 19 20  2  0  0  0
 19 21  1  0  0  0
 21 22  1  0  0  0
 21 47  1  0  0  0
 22 23  1  0  0  0
 22 48  1  0  0  0
 22 49  1  0  0  0
 23 24  1  0  0  0
 23 25  1  0  0  0
 23 30  1  0  0  0
 25 29  1  0  0  0
 25 26  2  0  0  0
 26 27  1  0  0  0
 26 50  1  0  0  0
 27 28  2  0  0  0
 27 51  1  0  0  0
 28 29  1  0  0  0
 28 52  1  0  0  0
 30 31  1  0  0  0
 30 32  1  0  0  0
 30 59  1  0  0  0
 31 53  1  0  0  0
 31 54  1  0  0  0
 31 55  1  0  0  0
 32 56  1  0  0  0
 32 57  1  0  0  0
 32 58  1  0  0  0
M  CHG  1  30   1
M  END
> <i_i_glide_confnum>
67

> <i_i_glide_lignum>
140

> <i_i_glide_posenum>
245

> <i_i_glide_rotatable_bonds>
8

> <i_m_Source_File_Index>
753

> <b_m_subgroup_collapsed>
0

> <r_i_docking_score>
-6.40127

> <r_i_glide_ecoul>
-3.55659

> <r_i_glide_eff_state_penalty>
0

> <r_i_glide_einternal>
5.43462

> <r_i_glide_emodel>
-67.0737

> <r_i_glide_energy>
-47.4335

> <r_i_glide_erotb>
0.668601

> <r_i_glide_esite>
-0.0211801

> <r_i_glide_evdw>
-43.8769

> <r_i_glide_gscore>
-6.40127

> <r_i_glide_hbond>
-0.153928

> <r_i_glide_ligand_efficiency>
-0.220733

> <r_i_glide_ligand_efficiency_ln>
-1.46573

> <r_i_glide_ligand_efficiency_sa>
-0.678163

> <r_i_glide_lipo>
-2.74827

> <r_i_glide_metal>
0

> <r_i_glide_rewards>
-1.41915

> <s_i_glide_gridfile>
wee1_glide-grid

> <s_m_Source_File>
wee1_decoys_glide_SP.sdf

> <s_m_Source_Path>
/Users/zhangxujun/Desktop

> <s_m_entry_id>
1028

> <s_m_entry_name>
wee1_decoys_glide_SP.753

> <s_m_subgroup_title>
wee1_decoys_glide_SP

> <s_m_subgroupid>
wee1_decoys_glide_SP


$$$$
