ZINC08680756_724
                    3D
 Schrodinger Suite 2024-2.
 64 69  0  0  1  0            999 V2000
   -6.8840   45.8244   24.4688 C   0  0  0  0  0  0
   -6.1533   46.3504   23.4057 C   0  0  0  0  0  0
   -4.8224   46.7097   23.5961 C   0  0  0  0  0  0
   -4.2209   46.5599   24.8566 C   0  0  0  0  0  0
   -4.9649   46.0104   25.9102 C   0  0  0  0  0  0
   -6.2945   45.6476   25.7177 C   0  0  0  0  0  0
   -2.7608   46.8956   25.0784 C   0  0  0  0  0  0
   -2.0955   46.0975   25.7384 O   0  0  0  0  0  0
   -2.2118   48.0039   24.5039 N   0  0  0  0  0  0
   -3.0127   49.1748   24.0687 C   0  0  0  0  0  0
   -2.6211   50.4190   24.9011 C   0  0  0  0  0  0
   -0.4076   49.3671   25.4498 C   0  0  0  0  0  0
   -0.7400   48.1776   24.5341 C   0  0  0  0  0  0
   -0.6055   51.9664   25.4536 C   0  0  1  0  0  0
   -1.3810   52.6773   25.1600 H   0  0  0  0  0  0
   -0.4497   51.9538   26.9710 C   0  0  0  0  0  0
   -1.2661   51.5362   28.0268 C   0  0  0  0  0  0
   -0.8523   51.6969   29.3542 C   0  0  0  0  0  0
    0.3744   52.2940   29.6660 C   0  0  0  0  0  0
    1.2285   52.7286   28.6219 C   0  0  0  0  0  0
    0.7788   52.5324   27.2981 C   0  0  0  0  0  0
    1.5164   52.8969   26.1689 C   0  0  0  0  0  0
    2.7586   53.5047   26.3715 C   0  0  0  0  0  0
    3.2406   53.7215   27.6686 C   0  0  0  0  0  0
    2.4971   53.3383   28.7927 C   0  0  0  0  0  0
    0.7567   52.5058   24.9172 C   0  0  1  0  0  0
    0.5899   53.3674   24.2678 H   0  0  0  0  0  0
    1.5042   51.5367   24.0814 N   0  0  0  0  0  0
    1.2263   51.4412   22.3480 S   0  0  0  0  0  0
    1.4477   50.0426   21.9675 O   0  0  0  0  0  0
   -0.0545   52.0963   22.0600 O   0  0  0  0  0  0
    2.5363   52.3981   21.5889 C   0  0  0  0  0  0
    3.1473   53.4437   22.2862 C   0  0  0  0  0  0
    4.2277   54.1130   21.7203 C   0  0  0  0  0  0
    4.6666   53.7700   20.4437 C   0  0  0  0  0  0
    4.0393   52.7514   19.7309 C   0  0  0  0  0  0
    2.9801   52.0548   20.3080 C   0  0  0  0  0  0
   -7.9166   45.5426   24.3240 H   0  0  0  0  0  0
   -6.6157   46.4708   22.4366 H   0  0  0  0  0  0
   -4.2644   47.0959   22.7530 H   0  0  0  0  0  0
   -4.5169   45.8648   26.8853 H   0  0  0  0  0  0
   -6.8657   45.2320   26.5366 H   0  0  0  0  0  0
   -2.8567   49.3668   23.0059 H   0  0  0  0  0  0
   -4.0805   49.0237   24.2271 H   0  0  0  0  0  0
   -2.9536   50.3568   25.9375 H   0  0  0  0  0  0
   -3.0549   51.3048   24.4355 H   0  0  0  0  0  0
   -0.7329   49.2250   26.4819 H   0  0  0  0  0  0
    0.6693   49.5361   25.4470 H   0  0  0  0  0  0
   -0.2098   47.2924   24.8901 H   0  0  0  0  0  0
   -0.3694   48.3704   23.5259 H   0  0  0  0  0  0
   -2.2206   51.0653   27.8504 H   0  0  0  0  0  0
   -1.4835   51.3348   30.1563 H   0  0  0  0  0  0
    0.6759   52.4117   30.6960 H   0  0  0  0  0  0
    3.3727   53.7976   25.5336 H   0  0  0  0  0  0
    4.2088   54.1816   27.8030 H   0  0  0  0  0  0
    2.8855   53.4985   29.7875 H   0  0  0  0  0  0
    2.4864   51.4293   24.3455 H   0  0  0  0  0  0
    2.8098   53.7267   23.2706 H   0  0  0  0  0  0
    4.7214   54.8967   22.2696 H   0  0  0  0  0  0
    5.4993   54.2952   19.9995 H   0  0  0  0  0  0
    4.3885   52.4783   18.7434 H   0  0  0  0  0  0
    2.5192   51.2453   19.7601 H   0  0  0  0  0  0
   -1.0916   50.6164   24.8518 N   0  3  0  0  0  0
   -0.8085   50.6752   23.8828 H   0  0  0  0  0  0
  1  6  2  0  0  0
  1  2  1  0  0  0
  1 38  1  0  0  0
  2  3  2  0  0  0
  2 39  1  0  0  0
  3  4  1  0  0  0
  3 40  1  0  0  0
  4  5  2  0  0  0
  4  7  1  0  0  0
  5  6  1  0  0  0
  5 41  1  0  0  0
  6 42  1  0  0  0
  7  8  2  0  0  0
  7  9  1  0  0  0
  9 13  1  0  0  0
  9 10  1  0  0  0
 10 11  1  0  0  0
 10 43  1  0  0  0
 10 44  1  0  0  0
 11 45  1  0  0  0
 11 46  1  0  0  0
 11 63  1  0  0  0
 12 13  1  0  0  0
 12 47  1  0  0  0
 12 48  1  0  0  0
 12 63  1  0  0  0
 13 49  1  0  0  0
 13 50  1  0  0  0
 14 15  1  0  0  0
 14 26  1  0  0  0
 14 16  1  0  0  0
 14 63  1  0  0  0
 16 21  2  0  0  0
 16 17  1  0  0  0
 17 18  2  0  0  0
 17 51  1  0  0  0
 18 19  1  0  0  0
 18 52  1  0  0  0
 19 20  2  0  0  0
 19 53  1  0  0  0
 20 25  1  0  0  0
 20 21  1  0  0  0
 21 22  1  0  0  0
 22 23  2  0  0  0
 22 26  1  0  0  0
 23 24  1  0  0  0
 23 54  1  0  0  0
 24 25  2  0  0  0
 24 55  1  0  0  0
 25 56  1  0  0  0
 26 27  1  0  0  0
 26 28  1  0  0  0
 28 29  1  0  0  0
 28 57  1  0  0  0
 29 30  2  0  0  0
 29 31  2  0  0  0
 29 32  1  0  0  0
 32 37  2  0  0  0
 32 33  1  0  0  0
 33 34  2  0  0  0
 33 58  1  0  0  0
 34 35  1  0  0  0
 34 59  1  0  0  0
 35 36  2  0  0  0
 35 60  1  0  0  0
 36 37  1  0  0  0
 36 61  1  0  0  0
 37 62  1  0  0  0
 63 64  1  0  0  0
M  CHG  1  63   1
M  END
> <i_i_glide_confnum>
71

> <i_i_glide_lignum>
725

> <i_i_glide_posenum>
322

> <i_i_glide_rotatable_bonds>
6

> <i_m_Source_File_Index>
5386

> <b_m_subgroup_collapsed>
0

> <r_i_docking_score>
-2.84737

> <r_i_glide_ecoul>
-1.76037

> <r_i_glide_eff_state_penalty>
0

> <r_i_glide_einternal>
3.74197

> <r_i_glide_emodel>
-47.3596

> <r_i_glide_energy>
-42.4451

> <r_i_glide_erotb>
0.492494

> <r_i_glide_esite>
-0.119719

> <r_i_glide_evdw>
-40.6847

> <r_i_glide_gscore>
-2.84737

> <r_i_glide_hbond>
-0.00796248

> <r_i_glide_ligand_efficiency>
-0.0790935

> <r_i_glide_ligand_efficiency_ln>
-0.621218

> <r_i_glide_ligand_efficiency_sa>
-0.261161

> <r_i_glide_lipo>
-1.39005

> <r_i_glide_metal>
0

> <r_i_glide_rewards>
0.476164

> <s_i_glide_gridfile>
wee1_glide-grid

> <s_m_Source_File>
wee1_decoys_glide_SP.sdf

> <s_m_Source_Path>
/Users/zhangxujun/Desktop

> <s_m_entry_id>
5661

> <s_m_entry_name>
wee1_decoys_glide_SP.5386

> <s_m_subgroup_title>
wee1_decoys_glide_SP

> <s_m_subgroupid>
wee1_decoys_glide_SP


$$$$
