ZINC34900218_4133
                    3D
 Schrodinger Suite 2024-2.
 73 77  0  0  1  0            999 V2000
    4.2532   54.1571   29.2379 C   0  0  0  0  0  0
    5.3840   54.4919   28.5034 C   0  0  0  0  0  0
    5.3303   54.4974   27.1144 C   0  0  0  0  0  0
    4.1453   54.1753   26.4364 C   0  0  0  0  0  0
    3.0175   53.8335   27.2027 C   0  0  0  0  0  0
    3.0684   53.8282   28.5937 C   0  0  0  0  0  0
    4.0946   54.1394   24.9388 C   0  0  0  0  0  0
    2.8825   54.2694   24.2510 C   0  0  0  0  0  0
    2.8131   54.0803   22.8758 C   0  0  0  0  0  0
    3.9490   53.6868   22.1523 C   0  0  0  0  0  0
    5.1827   53.6972   22.8111 C   0  0  0  0  0  0
    5.2555   53.9289   24.1805 C   0  0  0  0  0  0
    3.9002   53.3057   20.6802 C   0  0  0  0  0  0
    4.8425   53.6855   19.9783 O   0  0  0  0  0  0
    2.8564   52.5723   20.1684 N   0  0  0  0  0  0
    2.7955   52.3932   18.6910 C   0  0  0  0  0  0
    2.3048   50.9731   18.3394 C   0  0  0  0  0  0
    0.9991   50.6008   19.0322 C   0  0  0  0  0  0
    1.2591   50.6825   20.5473 C   0  0  1  0  0  0
    1.9996   49.9269   20.8233 H   0  0  0  0  0  0
    1.7118   52.0965   20.9869 C   0  0  0  0  0  0
   -0.0321   50.3689   21.3286 C   0  0  0  0  0  0
   -1.1376   50.6834   20.8821 O   0  0  0  0  0  0
    0.1286   49.7791   22.5245 N   0  0  0  0  0  0
   -0.9518   49.4758   23.4721 C   0  0  2  0  0  0
   -1.7277   48.9843   22.8787 H   0  0  0  0  0  0
   -1.5851   50.7289   24.1386 C   0  0  0  0  0  0
   -0.6076   51.4424   25.0943 C   0  0  0  0  0  0
   -0.0698   50.4730   26.1636 C   0  0  0  0  0  0
    0.5129   49.1917   25.5297 C   0  0  0  0  0  0
   -0.4755   48.4808   24.5732 C   0  0  1  0  0  0
    0.0801   47.6773   24.0822 H   0  0  0  0  0  0
   -1.5753   47.8138   25.2817 N   0  0  0  0  0  0
   -2.4026   46.8964   24.7468 C   0  0  0  0  0  0
   -2.3058   46.4915   23.5866 O   0  0  0  0  0  0
   -3.4955   46.3662   25.6399 C   0  0  0  0  0  0
   -4.7248   45.9769   25.0886 C   0  0  0  0  0  0
   -5.7357   45.4774   25.9097 C   0  0  0  0  0  0
   -5.5221   45.3698   27.2809 C   0  0  0  0  0  0
   -4.3067   45.7535   27.8362 C   0  0  0  0  0  0
   -3.2948   46.2360   27.0196 C   0  0  0  0  0  0
   -6.4965   44.8842   28.0826 F   0  0  0  0  0  0
    4.3042   54.1497   30.3164 H   0  0  0  0  0  0
    6.3042   54.7388   29.0087 H   0  0  0  0  0  0
    6.2266   54.7660   26.5786 H   0  0  0  0  0  0
    2.0921   53.5428   26.7290 H   0  0  0  0  0  0
    2.1910   53.5590   29.1656 H   0  0  0  0  0  0
    1.9677   54.4964   24.7772 H   0  0  0  0  0  0
    1.8543   54.2006   22.3951 H   0  0  0  0  0  0
    6.0917   53.4663   22.2775 H   0  0  0  0  0  0
    6.2234   53.8415   24.6477 H   0  0  0  0  0  0
    3.7824   52.4676   18.2275 H   0  0  0  0  0  0
    2.1122   53.1366   18.2760 H   0  0  0  0  0  0
    3.0890   50.2521   18.5888 H   0  0  0  0  0  0
    2.1874   50.8951   17.2581 H   0  0  0  0  0  0
    0.7456   49.5857   18.7152 H   0  0  0  0  0  0
    0.2557   51.3295   18.6946 H   0  0  0  0  0  0
    0.8955   52.8143   20.8723 H   0  0  0  0  0  0
    2.0169   51.9519   22.0216 H   0  0  0  0  0  0
    1.0678   49.6223   22.8565 H   0  0  0  0  0  0
   -1.9353   51.4250   23.3774 H   0  0  0  0  0  0
   -2.4787   50.4334   24.6934 H   0  0  0  0  0  0
    0.2237   51.8622   24.5259 H   0  0  0  0  0  0
   -1.1036   52.2864   25.5764 H   0  0  0  0  0  0
    0.6929   50.9674   26.7662 H   0  0  0  0  0  0
   -0.8704   50.2028   26.8553 H   0  0  0  0  0  0
    0.8293   48.5030   26.3149 H   0  0  0  0  0  0
    1.4203   49.4334   24.9766 H   0  0  0  0  0  0
   -1.6959   48.0756   26.2559 H   0  0  0  0  0  0
   -4.9069   46.0643   24.0268 H   0  0  0  0  0  0
   -6.6838   45.1802   25.4881 H   0  0  0  0  0  0
   -4.1246   45.6631   28.8944 H   0  0  0  0  0  0
   -2.3509   46.4966   27.4791 H   0  0  0  0  0  0
  1  6  2  0  0  0
  1  2  1  0  0  0
  1 43  1  0  0  0
  2  3  2  0  0  0
  2 44  1  0  0  0
  3  4  1  0  0  0
  3 45  1  0  0  0
  4  5  2  0  0  0
  4  7  1  0  0  0
  5  6  1  0  0  0
  5 46  1  0  0  0
  6 47  1  0  0  0
  7 12  2  0  0  0
  7  8  1  0  0  0
  8  9  2  0  0  0
  8 48  1  0  0  0
  9 10  1  0  0  0
  9 49  1  0  0  0
 10 11  2  0  0  0
 10 13  1  0  0  0
 11 12  1  0  0  0
 11 50  1  0  0  0
 12 51  1  0  0  0
 13 14  2  0  0  0
 13 15  1  0  0  0
 15 21  1  0  0  0
 15 16  1  0  0  0
 16 17  1  0  0  0
 16 52  1  0  0  0
 16 53  1  0  0  0
 17 18  1  0  0  0
 17 54  1  0  0  0
 17 55  1  0  0  0
 18 19  1  0  0  0
 18 56  1  0  0  0
 18 57  1  0  0  0
 19 20  1  0  0  0
 19 21  1  0  0  0
 19 22  1  0  0  0
 21 58  1  0  0  0
 21 59  1  0  0  0
 22 23  2  0  0  0
 22 24  1  0  0  0
 24 25  1  0  0  0
 24 60  1  0  0  0
 25 26  1  0  0  0
 25 31  1  0  0  0
 25 27  1  0  0  0
 27 28  1  0  0  0
 27 61  1  0  0  0
 27 62  1  0  0  0
 28 29  1  0  0  0
 28 63  1  0  0  0
 28 64  1  0  0  0
 29 30  1  0  0  0
 29 65  1  0  0  0
 29 66  1  0  0  0
 30 31  1  0  0  0
 30 67  1  0  0  0
 30 68  1  0  0  0
 31 32  1  0  0  0
 31 33  1  0  0  0
 33 34  1  0  0  0
 33 69  1  0  0  0
 34 35  2  0  0  0
 34 36  1  0  0  0
 36 41  2  0  0  0
 36 37  1  0  0  0
 37 38  2  0  0  0
 37 70  1  0  0  0
 38 39  1  0  0  0
 38 71  1  0  0  0
 39 40  2  0  0  0
 39 42  1  0  0  0
 40 41  1  0  0  0
 40 72  1  0  0  0
 41 73  1  0  0  0
M  END
> <i_i_glide_confnum>
365

> <i_i_glide_lignum>
4134

> <i_i_glide_posenum>
330

> <i_i_glide_rotatable_bonds>
9

> <i_m_Source_File_Index>
1106

> <b_m_subgroup_collapsed>
0

> <r_i_docking_score>
-5.726

> <r_i_glide_ecoul>
-6.15928

> <r_i_glide_eff_state_penalty>
0

> <r_i_glide_einternal>
7.25388

> <r_i_glide_emodel>
-69.3194

> <r_i_glide_energy>
-54.2729

> <r_i_glide_erotb>
0.665851

> <r_i_glide_esite>
-0.219045

> <r_i_glide_evdw>
-48.1136

> <r_i_glide_gscore>
-5.726

> <r_i_glide_hbond>
-0.116472

> <r_i_glide_ligand_efficiency>
-0.14682

> <r_i_glide_ligand_efficiency_ln>
-1.22782

> <r_i_glide_ligand_efficiency_sa>
-0.497899

> <r_i_glide_lipo>
-2.63138

> <r_i_glide_metal>
0

> <r_i_glide_rewards>
-0.095383

> <s_i_glide_gridfile>
wee1_glide-grid

> <s_m_Source_File>
wee1_decoys_glide_SP.sdf

> <s_m_Source_Path>
/Users/zhangxujun/Desktop

> <s_m_entry_id>
1381

> <s_m_entry_name>
wee1_decoys_glide_SP.1106

> <s_m_subgroup_title>
wee1_decoys_glide_SP

> <s_m_subgroupid>
wee1_decoys_glide_SP


$$$$
