ZINC02188801_5375
                    3D
 Schrodinger Suite 2024-2.
 70 74  0  0  1  0            999 V2000
   -4.5800   52.7533   26.4484 C   0  0  0  0  0  0
   -3.9272   52.2552   25.1433 C   0  0  0  0  0  0
   -2.5340   51.6668   25.4890 C   0  0  0  0  0  0
   -1.8855   50.9185   24.2958 C   0  0  0  0  0  0
   -2.6596   50.3875   23.2977 C   0  0  0  0  0  0
   -2.0416   49.7640   22.0164 C   0  0  2  0  0  0
   -2.4513   48.7589   21.9023 H   0  0  0  0  0  0
   -0.5246   49.6054   22.1750 C   0  0  0  0  0  0
    0.1670   50.1642   23.1919 C   0  0  0  0  0  0
   -0.4772   50.8705   24.2235 N   0  0  0  0  0  0
    0.2686   51.3984   25.2817 C   0  0  0  0  0  0
    1.0706   52.5375   25.3303 C   0  0  0  0  0  0
    1.6148   52.7833   26.6174 C   0  0  0  0  0  0
    1.2288   51.8131   27.5498 C   0  0  0  0  0  0
    0.2611   50.5873   26.8035 S   0  0  0  0  0  0
    1.5907   51.7733   29.0172 C   0  0  0  0  0  0
    1.1300   53.0201   29.7954 C   0  0  0  0  0  0
    1.9698   54.2887   29.5471 C   0  0  0  0  0  0
    1.9376   54.8573   28.1129 C   0  0  0  0  0  0
    2.5219   53.9410   27.0150 C   0  0  0  0  0  0
    1.3125   53.4076   24.1848 C   0  0  0  0  0  0
    1.5062   54.1008   23.2814 N   0  0  0  0  0  0
    1.5376   50.0422   23.2794 N   0  0  0  0  0  0
    0.1522   48.9016   21.1321 C   0  0  0  0  0  0
    0.6887   48.3567   20.2616 N   0  0  0  0  0  0
   -2.4506   50.4605   20.6976 C   0  0  0  0  0  0
   -3.6411   50.1222   20.0460 C   0  0  0  0  0  0
   -4.0206   50.7557   18.8666 C   0  0  0  0  0  0
   -3.1874   51.7150   18.2710 C   0  0  0  0  0  0
   -1.9561   52.0149   18.8719 C   0  0  0  0  0  0
   -1.6177   51.4137   20.0959 C   0  0  0  0  0  0
   -1.1277   52.8968   18.2066 O   0  0  0  0  0  0
    0.2626   52.9072   18.5205 C   0  0  0  0  0  0
   -3.4956   52.3727   17.0945 O   0  0  0  0  0  0
   -4.7177   52.0797   16.4275 C   0  0  0  0  0  0
   -4.1421   50.3322   23.4343 C   0  0  0  0  0  0
   -4.8350   49.5541   22.7814 O   0  0  0  0  0  0
   -4.7799   51.0845   24.6092 C   0  0  0  0  0  0
   -3.8223   53.3767   24.0818 C   0  0  0  0  0  0
   -5.6010   53.0955   26.2764 H   0  0  0  0  0  0
   -4.6190   51.9763   27.2126 H   0  0  0  0  0  0
   -4.0229   53.5933   26.8619 H   0  0  0  0  0  0
   -2.5606   50.9813   26.3372 H   0  0  0  0  0  0
   -1.9459   52.5441   25.7709 H   0  0  0  0  0  0
    2.6691   51.6678   29.1350 H   0  0  0  0  0  0
    1.1412   50.8976   29.4743 H   0  0  0  0  0  0
    1.1706   52.7898   30.8615 H   0  0  0  0  0  0
    0.0782   53.2203   29.5845 H   0  0  0  0  0  0
    3.0056   54.0948   29.8318 H   0  0  0  0  0  0
    1.6221   55.0663   30.2281 H   0  0  0  0  0  0
    2.5064   55.7861   28.1158 H   0  0  0  0  0  0
    0.9169   55.1447   27.8531 H   0  0  0  0  0  0
    2.7842   54.5469   26.1500 H   0  0  0  0  0  0
    3.4816   53.5505   27.3552 H   0  0  0  0  0  0
    2.0542   49.4804   22.6167 H   0  0  0  0  0  0
    2.0400   50.3772   24.0887 H   0  0  0  0  0  0
   -4.2899   49.3572   20.4418 H   0  0  0  0  0  0
   -4.9622   50.4724   18.4202 H   0  0  0  0  0  0
   -0.6870   51.6737   20.5788 H   0  0  0  0  0  0
    0.7844   53.5637   17.8231 H   0  0  0  0  0  0
    0.4437   53.2948   19.5232 H   0  0  0  0  0  0
    0.7071   51.9153   18.4346 H   0  0  0  0  0  0
   -4.7823   52.6820   15.5223 H   0  0  0  0  0  0
   -4.7708   51.0316   16.1308 H   0  0  0  0  0  0
   -5.5802   52.3218   17.0494 H   0  0  0  0  0  0
   -4.8793   50.3392   25.3992 H   0  0  0  0  0  0
   -5.7886   51.3899   24.3265 H   0  0  0  0  0  0
   -4.8146   53.7272   23.7961 H   0  0  0  0  0  0
   -3.2958   54.2378   24.4787 H   0  0  0  0  0  0
   -3.2953   53.0758   23.1739 H   0  0  0  0  0  0
  1  2  1  0  0  0
  1 40  1  0  0  0
  1 41  1  0  0  0
  1 42  1  0  0  0
  2 38  1  0  0  0
  2  3  1  0  0  0
  2 39  1  0  0  0
  3  4  1  0  0  0
  3 43  1  0  0  0
  3 44  1  0  0  0
  4 10  1  0  0  0
  4  5  2  0  0  0
  5  6  1  0  0  0
  5 36  1  0  0  0
  6  7  1  0  0  0
  6  8  1  0  0  0
  6 26  1  0  0  0
  8  9  2  0  0  0
  8 24  1  0  0  0
  9 10  1  0  0  0
  9 23  1  0  0  0
 10 11  1  0  0  0
 11 15  1  0  0  0
 11 12  2  0  0  0
 12 13  1  0  0  0
 12 21  1  0  0  0
 13 20  1  0  0  0
 13 14  2  0  0  0
 14 15  1  0  0  0
 14 16  1  0  0  0
 16 17  1  0  0  0
 16 45  1  0  0  0
 16 46  1  0  0  0
 17 18  1  0  0  0
 17 47  1  0  0  0
 17 48  1  0  0  0
 18 19  1  0  0  0
 18 49  1  0  0  0
 18 50  1  0  0  0
 19 20  1  0  0  0
 19 51  1  0  0  0
 19 52  1  0  0  0
 20 53  1  0  0  0
 20 54  1  0  0  0
 21 22  3  0  0  0
 23 55  1  0  0  0
 23 56  1  0  0  0
 24 25  3  0  0  0
 26 31  2  0  0  0
 26 27  1  0  0  0
 27 28  2  0  0  0
 27 57  1  0  0  0
 28 29  1  0  0  0
 28 58  1  0  0  0
 29 30  2  0  0  0
 29 34  1  0  0  0
 30 31  1  0  0  0
 30 32  1  0  0  0
 31 59  1  0  0  0
 32 33  1  0  0  0
 33 60  1  0  0  0
 33 61  1  0  0  0
 33 62  1  0  0  0
 34 35  1  0  0  0
 35 63  1  0  0  0
 35 64  1  0  0  0
 35 65  1  0  0  0
 36 37  2  0  0  0
 36 38  1  0  0  0
 38 66  1  0  0  0
 38 67  1  0  0  0
 39 68  1  0  0  0
 39 69  1  0  0  0
 39 70  1  0  0  0
M  END
> <i_i_glide_confnum>
16

> <i_i_glide_lignum>
5376

> <i_i_glide_posenum>
11

> <i_i_glide_rotatable_bonds>
6

> <i_m_Source_File_Index>
2685

> <b_m_subgroup_collapsed>
0

> <r_i_docking_score>
-3.86636

> <r_i_glide_ecoul>
-1.51781

> <r_i_glide_eff_state_penalty>
0

> <r_i_glide_einternal>
8.751

> <r_i_glide_emodel>
-40.7513

> <r_i_glide_energy>
-36.5209

> <r_i_glide_erotb>
0.147433

> <r_i_glide_esite>
-0.00164543

> <r_i_glide_evdw>
-35.0031

> <r_i_glide_gscore>
-3.86636

> <r_i_glide_hbond>
0

> <r_i_glide_ligand_efficiency>
-0.101746

> <r_i_glide_ligand_efficiency_ln>
-0.833701

> <r_i_glide_ligand_efficiency_sa>
-0.342069

> <r_i_glide_lipo>
-1.69141

> <r_i_glide_metal>
0

> <r_i_glide_rewards>
-0.342908

> <s_i_glide_gridfile>
wee1_glide-grid

> <s_m_Source_File>
wee1_decoys_glide_SP.sdf

> <s_m_Source_Path>
/Users/zhangxujun/Desktop

> <s_m_entry_id>
2960

> <s_m_entry_name>
wee1_decoys_glide_SP.2685

> <s_m_subgroup_title>
wee1_decoys_glide_SP

> <s_m_subgroupid>
wee1_decoys_glide_SP


$$$$
