ZINC35077695_5467
                    3D
 Schrodinger Suite 2024-2.
 68 72  0  0  1  0            999 V2000
    6.1954   57.8695   17.7653 C   0  0  0  0  0  0
    5.5662   57.4365   16.6068 C   0  0  0  0  0  0
    4.9546   56.1874   16.5782 C   0  0  0  0  0  0
    4.9369   55.3515   17.7061 C   0  0  0  0  0  0
    5.5829   55.7920   18.8914 C   0  0  0  0  0  0
    6.2103   57.0536   18.8932 C   0  0  0  0  0  0
    5.5596   54.9491   20.0312 N   0  0  0  0  0  0
    6.0370   55.1335   21.2815 C   0  0  0  0  0  0
    6.7066   56.0971   21.6394 O   0  0  0  0  0  0
    5.6710   54.0519   22.3080 C   0  0  0  0  0  0
    6.9621   53.7839   23.5752 S   0  0  0  0  0  0
    6.1486   54.3320   25.0422 C   0  0  0  0  0  0
    6.7033   54.8436   26.1117 N   0  0  0  0  0  0
    5.6998   54.8967   27.0749 N   0  0  0  0  0  0
    4.6194   54.4043   26.5164 C   0  0  0  0  0  0
    4.8371   54.0286   25.2265 O   0  0  0  0  0  0
    3.2769   54.1678   27.1387 C   0  0  0  0  0  0
    2.4220   53.2029   26.5978 C   0  0  0  0  0  0
    1.2054   52.9052   27.2078 C   0  0  0  0  0  0
    0.8074   53.6024   28.3459 C   0  0  0  0  0  0
    1.6175   54.6135   28.8808 C   0  0  0  0  0  0
    2.8602   54.8742   28.2772 C   0  0  0  0  0  0
    1.1634   55.3899   30.0562 N   0  3  0  0  0  0
    0.3076   54.8968   30.7853 O   0  0  0  0  0  0
    1.6563   56.4967   30.2462 O   0  5  0  0  0  0
    4.2845   54.1233   17.5689 N   0  0  0  0  0  0
    3.4571   53.4938   18.6108 C   0  0  0  0  0  0
    2.2297   52.7428   18.0732 C   0  0  0  0  0  0
    2.7045   51.6965   17.0457 N   0  3  0  0  0  0
    3.4772   52.3797   15.9021 C   0  0  0  0  0  0
    4.6503   53.1937   16.4854 C   0  0  0  0  0  0
    1.6148   50.7297   16.5049 C   0  0  0  0  0  0
    1.2070   49.7308   17.6122 C   0  0  0  0  0  0
    0.1325   48.7420   17.1188 C   0  0  0  0  0  0
   -1.0871   49.4686   16.5127 C   0  0  0  0  0  0
   -0.6834   50.4732   15.4115 C   0  0  0  0  0  0
    0.3931   51.4661   15.8984 C   0  0  0  0  0  0
    6.6593   58.8464   17.7910 H   0  0  0  0  0  0
    5.5442   58.0735   15.7336 H   0  0  0  0  0  0
    4.4637   55.8794   15.6668 H   0  0  0  0  0  0
    6.7085   57.4476   19.7602 H   0  0  0  0  0  0
    5.0692   54.0848   19.8617 H   0  0  0  0  0  0
    5.5048   53.0997   21.8037 H   0  0  0  0  0  0
    4.7231   54.3319   22.7653 H   0  0  0  0  0  0
    2.7141   52.6456   25.7195 H   0  0  0  0  0  0
    0.5681   52.1361   26.7966 H   0  0  0  0  0  0
   -0.1466   53.3654   28.7973 H   0  0  0  0  0  0
    3.5066   55.6317   28.6977 H   0  0  0  0  0  0
    4.1074   52.7735   19.1106 H   0  0  0  0  0  0
    3.1414   54.2224   19.3543 H   0  0  0  0  0  0
    1.5124   53.4095   17.5942 H   0  0  0  0  0  0
    1.7588   52.2003   18.8910 H   0  0  0  0  0  0
    2.7837   52.9939   15.3260 H   0  0  0  0  0  0
    3.8717   51.5645   15.2908 H   0  0  0  0  0  0
    5.2172   53.6810   15.6904 H   0  0  0  0  0  0
    5.3440   52.4970   16.9607 H   0  0  0  0  0  0
    2.0753   50.1240   15.7191 H   0  0  0  0  0  0
    2.0852   49.2181   18.0094 H   0  0  0  0  0  0
    0.7977   50.2682   18.4667 H   0  0  0  0  0  0
    0.5705   48.0783   16.3712 H   0  0  0  0  0  0
   -0.1871   48.0993   17.9406 H   0  0  0  0  0  0
   -1.7900   48.7379   16.1081 H   0  0  0  0  0  0
   -1.6241   49.9960   17.3027 H   0  0  0  0  0  0
   -0.3063   49.9262   14.5454 H   0  0  0  0  0  0
   -1.5629   51.0174   15.0635 H   0  0  0  0  0  0
   -0.0584   52.1081   16.6549 H   0  0  0  0  0  0
    0.6930   52.1506   15.1053 H   0  0  0  0  0  0
    3.3890   51.0946   17.4996 H   0  0  0  0  0  0
  1  6  2  0  0  0
  1  2  1  0  0  0
  1 38  1  0  0  0
  2  3  2  0  0  0
  2 39  1  0  0  0
  3  4  1  0  0  0
  3 40  1  0  0  0
  4  5  2  0  0  0
  4 26  1  0  0  0
  5  6  1  0  0  0
  5  7  1  0  0  0
  6 41  1  0  0  0
  7  8  1  0  0  0
  7 42  1  0  0  0
  8  9  2  0  0  0
  8 10  1  0  0  0
 10 11  1  0  0  0
 10 43  1  0  0  0
 10 44  1  0  0  0
 11 12  1  0  0  0
 12 16  1  0  0  0
 12 13  2  0  0  0
 13 14  1  0  0  0
 14 15  2  0  0  0
 15 16  1  0  0  0
 15 17  1  0  0  0
 17 22  2  0  0  0
 17 18  1  0  0  0
 18 19  2  0  0  0
 18 45  1  0  0  0
 19 20  1  0  0  0
 19 46  1  0  0  0
 20 21  2  0  0  0
 20 47  1  0  0  0
 21 22  1  0  0  0
 21 23  1  0  0  0
 22 48  1  0  0  0
 23 24  2  0  0  0
 23 25  1  0  0  0
 26 31  1  0  0  0
 26 27  1  0  0  0
 27 28  1  0  0  0
 27 49  1  0  0  0
 27 50  1  0  0  0
 28 29  1  0  0  0
 28 51  1  0  0  0
 28 52  1  0  0  0
 29 30  1  0  0  0
 29 32  1  0  0  0
 29 68  1  0  0  0
 30 31  1  0  0  0
 30 53  1  0  0  0
 30 54  1  0  0  0
 31 55  1  0  0  0
 31 56  1  0  0  0
 32 37  1  0  0  0
 32 33  1  0  0  0
 32 57  1  0  0  0
 33 34  1  0  0  0
 33 58  1  0  0  0
 33 59  1  0  0  0
 34 35  1  0  0  0
 34 60  1  0  0  0
 34 61  1  0  0  0
 35 36  1  0  0  0
 35 62  1  0  0  0
 35 63  1  0  0  0
 36 37  1  0  0  0
 36 64  1  0  0  0
 36 65  1  0  0  0
 37 66  1  0  0  0
 37 67  1  0  0  0
M  CHG  3  23   1  25  -1  29   1
M  END
> <i_i_glide_confnum>
218

> <i_i_glide_lignum>
5468

> <i_i_glide_posenum>
392

> <i_i_glide_rotatable_bonds>
9

> <i_m_Source_File_Index>
5838

> <b_m_subgroup_collapsed>
0

> <r_i_docking_score>
-5.78185

> <r_i_glide_ecoul>
-3.96007

> <r_i_glide_eff_state_penalty>
0

> <r_i_glide_einternal>
5.41744

> <r_i_glide_emodel>
-68.57

> <r_i_glide_energy>
-50.6787

> <r_i_glide_erotb>
0.600216

> <r_i_glide_esite>
-0.102444

> <r_i_glide_evdw>
-46.7187

> <r_i_glide_gscore>
-5.78185

> <r_i_glide_hbond>
-0.170317

> <r_i_glide_ligand_efficiency>
-0.156266

> <r_i_glide_ligand_efficiency_ln>
-1.25395

> <r_i_glide_ligand_efficiency_sa>
-0.520713

> <r_i_glide_lipo>
-2.40402

> <r_i_glide_metal>
0

> <r_i_glide_rewards>
-0.775331

> <s_i_glide_gridfile>
wee1_glide-grid

> <s_m_Source_File>
wee1_decoys_glide_SP.sdf

> <s_m_Source_Path>
/Users/zhangxujun/Desktop

> <s_m_entry_id>
6113

> <s_m_entry_name>
wee1_decoys_glide_SP.5838

> <s_m_subgroup_title>
wee1_decoys_glide_SP

> <s_m_subgroupid>
wee1_decoys_glide_SP


$$$$
