ZINC64435660_2789
                    3D
 Schrodinger Suite 2024-2.
 54 57  0  0  1  0            999 V2000
    1.8865   52.3803   18.4401 C   0  0  0  0  0  0
    2.3851   51.3460   19.4795 C   0  0  1  0  0  0
    2.9654   50.6104   18.9187 H   0  0  0  0  0  0
    3.3352   51.8849   20.5718 C   0  0  0  0  0  0
    3.9043   51.0497   21.2801 O   0  0  0  0  0  0
    3.5062   53.2214   20.7046 N   0  0  0  0  0  0
    4.2604   53.7823   21.6936 C   0  0  0  0  0  0
    3.9005   53.6450   22.9934 C   0  0  0  0  0  0
    4.7882   54.1470   24.0280 C   0  0  0  0  0  0
    4.5609   54.5520   25.2802 C   0  0  0  0  0  0
    5.7773   55.2003   25.6817 C   0  0  0  0  0  0
    6.7055   55.2128   24.8094 N   0  0  0  0  0  0
    6.2405   54.4025   23.7308 C   0  0  2  0  0  0
    6.8121   53.4719   23.7841 H   0  0  0  0  0  0
    6.3673   54.8967   22.2810 C   0  0  0  0  0  0
    5.4651   54.5332   21.3369 C   0  0  0  0  0  0
    1.2885   50.5996   20.1208 N   0  0  0  0  0  0
    0.2343   51.1190   20.7847 C   0  0  0  0  0  0
   -0.3758   52.0976   20.3553 O   0  0  0  0  0  0
   -0.1620   50.4470   21.9021 N   0  0  0  0  0  0
   -1.3477   50.9179   22.6325 C   0  0  0  0  0  0
   -0.8967   51.6663   23.9156 C   0  0  0  0  0  0
    0.3324   51.1724   24.5629 N   0  0  0  0  0  0
    0.6134   49.7749   24.2044 C   0  0  0  0  0  0
    0.7222   49.5375   22.6699 C   0  0  0  0  0  0
    0.6179   51.6488   25.8328 C   0  0  0  0  0  0
    0.2824   50.9177   26.9785 C   0  0  0  0  0  0
    0.5347   51.4438   28.2442 C   0  0  0  0  0  0
    1.1518   52.6836   28.3712 C   0  0  0  0  0  0
    1.5048   53.4104   27.2390 C   0  0  0  0  0  0
    1.2287   52.8971   25.9724 C   0  0  0  0  0  0
    1.4706   53.3285   29.9405 Cl  0  0  0  0  0  0
    2.7239   52.7830   17.8691 H   0  0  0  0  0  0
    1.2070   51.9141   17.7264 H   0  0  0  0  0  0
    1.3635   53.2246   18.8891 H   0  0  0  0  0  0
    2.9838   53.8452   20.1028 H   0  0  0  0  0  0
    2.9841   53.1255   23.2371 H   0  0  0  0  0  0
    3.6424   54.5169   25.8392 H   0  0  0  0  0  0
    5.9047   55.6807   26.6473 H   0  0  0  0  0  0
    7.2314   55.4804   21.9975 H   0  0  0  0  0  0
    5.6075   54.8565   20.3158 H   0  0  0  0  0  0
    1.5158   49.6339   20.3028 H   0  0  0  0  0  0
   -2.0816   51.4562   22.0303 H   0  0  0  0  0  0
   -1.8599   50.0102   22.9549 H   0  0  0  0  0  0
   -1.7196   51.6743   24.6320 H   0  0  0  0  0  0
   -0.6571   52.6858   23.6099 H   0  0  0  0  0  0
   -0.2393   49.2045   24.5766 H   0  0  0  0  0  0
    1.5044   49.4078   24.7151 H   0  0  0  0  0  0
    0.5783   48.4968   22.3938 H   0  0  0  0  0  0
    1.7548   49.7972   22.4289 H   0  0  0  0  0  0
   -0.2037   49.9546   26.8961 H   0  0  0  0  0  0
    0.2424   50.8934   29.1257 H   0  0  0  0  0  0
    1.9681   54.3795   27.3460 H   0  0  0  0  0  0
    1.4846   53.4728   25.0954 H   0  0  0  0  0  0
  1  2  1  0  0  0
  1 33  1  0  0  0
  1 34  1  0  0  0
  1 35  1  0  0  0
  2  3  1  0  0  0
  2  4  1  0  0  0
  2 17  1  0  0  0
  4  5  2  0  0  0
  4  6  1  0  0  0
  6  7  1  0  0  0
  6 36  1  0  0  0
  7 16  1  0  0  0
  7  8  2  0  0  0
  8  9  1  0  0  0
  8 37  1  0  0  0
  9 13  1  0  0  0
  9 10  2  0  0  0
 10 11  1  0  0  0
 10 38  1  0  0  0
 11 12  2  0  0  0
 11 39  1  0  0  0
 12 13  1  0  0  0
 13 14  1  0  0  0
 13 15  1  0  0  0
 15 16  2  0  0  0
 15 40  1  0  0  0
 16 41  1  0  0  0
 17 18  1  0  0  0
 17 42  1  0  0  0
 18 19  2  0  0  0
 18 20  1  0  0  0
 20 25  1  0  0  0
 20 21  1  0  0  0
 21 22  1  0  0  0
 21 43  1  0  0  0
 21 44  1  0  0  0
 22 23  1  0  0  0
 22 45  1  0  0  0
 22 46  1  0  0  0
 23 24  1  0  0  0
 23 26  1  0  0  0
 24 25  1  0  0  0
 24 47  1  0  0  0
 24 48  1  0  0  0
 25 49  1  0  0  0
 25 50  1  0  0  0
 26 31  2  0  0  0
 26 27  1  0  0  0
 27 28  2  0  0  0
 27 51  1  0  0  0
 28 29  1  0  0  0
 28 52  1  0  0  0
 29 30  2  0  0  0
 29 32  1  0  0  0
 30 31  1  0  0  0
 30 53  1  0  0  0
 31 54  1  0  0  0
M  END
> <i_i_glide_confnum>
397

> <i_i_glide_lignum>
2790

> <i_i_glide_posenum>
50

> <i_i_glide_rotatable_bonds>
7

> <i_m_Source_File_Index>
5298

> <b_m_subgroup_collapsed>
0

> <r_i_docking_score>
-6.05653

> <r_i_glide_ecoul>
-6.97985

> <r_i_glide_eff_state_penalty>
0

> <r_i_glide_einternal>
19.0148

> <r_i_glide_emodel>
-54.0988

> <r_i_glide_energy>
-48.0426

> <r_i_glide_erotb>
0.656276

> <r_i_glide_esite>
-0.0446322

> <r_i_glide_evdw>
-41.0627

> <r_i_glide_gscore>
-6.05653

> <r_i_glide_hbond>
-0.235755

> <r_i_glide_ligand_efficiency>
-0.201884

> <r_i_glide_ligand_efficiency_ln>
-1.37611

> <r_i_glide_ligand_efficiency_sa>
-0.627302

> <r_i_glide_lipo>
-2.31045

> <r_i_glide_metal>
0

> <r_i_glide_rewards>
-1.02185

> <s_i_glide_gridfile>
wee1_glide-grid

> <s_m_Source_File>
wee1_decoys_glide_SP.sdf

> <s_m_Source_Path>
/Users/zhangxujun/Desktop

> <s_m_entry_id>
5573

> <s_m_entry_name>
wee1_decoys_glide_SP.5298

> <s_m_subgroup_title>
wee1_decoys_glide_SP

> <s_m_subgroupid>
wee1_decoys_glide_SP


$$$$
