ZINC14458931_3760
                    3D
 Schrodinger Suite 2024-2.
 42 45  0  0  1  0            999 V2000
    6.5885   55.1293   20.6855 C   0  0  0  0  0  0
    6.7718   54.9095   22.0810 O   0  0  0  0  0  0
    5.6986   54.4967   22.8522 C   0  0  0  0  0  0
    4.4266   54.1979   22.3350 C   0  0  0  0  0  0
    3.3749   53.7860   23.1623 C   0  0  0  0  0  0
    3.5969   53.7507   24.5477 C   0  0  0  0  0  0
    4.8376   54.0967   25.0814 C   0  0  0  0  0  0
    5.8879   54.4458   24.2377 C   0  0  0  0  0  0
    7.1043   54.7637   24.7823 O   0  0  0  0  0  0
    1.9912   53.4773   22.5555 C   0  0  1  0  0  0
    1.7062   54.4141   22.0817 H   0  0  0  0  0  0
    1.9424   52.3437   21.4799 C   0  0  1  0  0  0
    0.9148   52.3899   21.1010 H   0  0  0  0  0  0
    2.7806   52.3001   20.1971 C   0  0  0  0  0  0
    2.6653   50.8294   19.8292 C   0  0  0  0  0  0
    2.2483   50.0976   20.8819 C   0  0  0  0  0  0
    2.1522   50.9815   22.1106 C   0  0  2  0  0  0
    3.1042   50.9388   22.6322 H   0  0  0  0  0  0
    1.0649   50.7565   23.1539 C   0  0  0  0  0  0
    0.5968   49.4790   23.4770 C   0  0  0  0  0  0
   -0.3826   49.2929   24.4537 C   0  0  0  0  0  0
   -0.8726   50.3919   25.1611 C   0  0  0  0  0  0
   -0.4151   51.6742   24.8573 C   0  0  0  0  0  0
    0.5291   51.8670   23.8467 C   0  0  0  0  0  0
    0.9215   53.1934   23.5386 N   0  0  0  0  0  0
   -0.9067   47.9577   24.7004 C   0  0  0  0  0  0
   -1.3267   46.8941   24.8817 N   0  0  0  0  0  0
    7.5348   55.4439   20.2454 H   0  0  0  0  0  0
    6.2723   54.2222   20.1677 H   0  0  0  0  0  0
    5.8588   55.9186   20.5000 H   0  0  0  0  0  0
    4.2348   54.3312   21.2843 H   0  0  0  0  0  0
    2.8115   53.4600   25.2293 H   0  0  0  0  0  0
    4.9911   54.0636   26.1502 H   0  0  0  0  0  0
    7.7676   54.9001   24.0933 H   0  0  0  0  0  0
    2.3632   52.9553   19.4317 H   0  0  0  0  0  0
    3.8284   52.5582   20.3201 H   0  0  0  0  0  0
    2.9102   50.4599   18.8409 H   0  0  0  0  0  0
    2.1255   49.0248   20.9065 H   0  0  0  0  0  0
    1.0025   48.6249   22.9546 H   0  0  0  0  0  0
   -1.6174   50.2614   25.9357 H   0  0  0  0  0  0
   -0.8153   52.5186   25.3988 H   0  0  0  0  0  0
    0.6279   53.9750   24.1048 H   0  0  0  0  0  0
  1  2  1  0  0  0
  1 28  1  0  0  0
  1 29  1  0  0  0
  1 30  1  0  0  0
  2  3  1  0  0  0
  3  8  2  0  0  0
  3  4  1  0  0  0
  4  5  2  0  0  0
  4 31  1  0  0  0
  5  6  1  0  0  0
  5 10  1  0  0  0
  6  7  2  0  0  0
  6 32  1  0  0  0
  7  8  1  0  0  0
  7 33  1  0  0  0
  8  9  1  0  0  0
  9 34  1  0  0  0
 10 11  1  0  0  0
 10 25  1  0  0  0
 10 12  1  0  0  0
 12 13  1  0  0  0
 12 17  1  0  0  0
 12 14  1  0  0  0
 14 15  1  0  0  0
 14 35  1  0  0  0
 14 36  1  0  0  0
 15 16  2  0  0  0
 15 37  1  0  0  0
 16 17  1  0  0  0
 16 38  1  0  0  0
 17 18  1  0  0  0
 17 19  1  0  0  0
 19 24  2  0  0  0
 19 20  1  0  0  0
 20 21  2  0  0  0
 20 39  1  0  0  0
 21 22  1  0  0  0
 21 26  1  0  0  0
 22 23  2  0  0  0
 22 40  1  0  0  0
 23 24  1  0  0  0
 23 41  1  0  0  0
 24 25  1  0  0  0
 25 42  1  0  0  0
 26 27  3  0  0  0
M  END
> <i_i_glide_confnum>
3

> <i_i_glide_lignum>
3761

> <i_i_glide_posenum>
25

> <i_i_glide_rotatable_bonds>
4

> <i_m_Source_File_Index>
1585

> <b_m_subgroup_collapsed>
0

> <r_i_docking_score>
-5.34737

> <r_i_glide_ecoul>
-5.15681

> <r_i_glide_eff_state_penalty>
0

> <r_i_glide_einternal>
4.44447

> <r_i_glide_emodel>
-45.4945

> <r_i_glide_energy>
-36.0382

> <r_i_glide_erotb>
0.18394

> <r_i_glide_esite>
-0.0629269

> <r_i_glide_evdw>
-30.8814

> <r_i_glide_gscore>
-5.34737

> <r_i_glide_hbond>
0

> <r_i_glide_ligand_efficiency>
-0.222807

> <r_i_glide_ligand_efficiency_ln>
-1.27987

> <r_i_glide_ligand_efficiency_sa>
-0.642687

> <r_i_glide_lipo>
-1.9124

> <r_i_glide_metal>
0

> <r_i_glide_rewards>
-1.23839

> <s_i_glide_gridfile>
wee1_glide-grid

> <s_m_Source_File>
wee1_decoys_glide_SP.sdf

> <s_m_Source_Path>
/Users/zhangxujun/Desktop

> <s_m_entry_id>
1860

> <s_m_entry_name>
wee1_decoys_glide_SP.1585

> <s_m_subgroup_title>
wee1_decoys_glide_SP

> <s_m_subgroupid>
wee1_decoys_glide_SP


$$$$
