ZINC11592558_1775
                    3D
 Schrodinger Suite 2024-2.
 56 59  0  0  1  0            999 V2000
   -1.4749   51.6889   23.9350 C   0  0  0  0  0  0
   -0.0322   51.4528   24.4612 C   0  0  1  0  0  0
    0.1916   49.9193   24.6517 C   0  0  0  0  0  0
    0.2911   49.1108   23.3442 C   0  0  0  0  0  0
    1.3254   49.6967   22.3795 C   0  0  0  0  0  0
    1.9044   49.0040   21.5465 O   0  0  0  0  0  0
    1.5127   51.1357   22.4352 C   0  0  0  0  0  0
    0.9443   51.9473   23.3558 C   0  0  0  0  0  0
    1.2393   53.4370   23.3942 C   0  0  0  0  0  0
    2.0637   53.7354   24.6562 C   0  0  0  0  0  0
    1.6210   52.9324   25.9079 C   0  0  2  0  0  0
    2.3044   52.0967   25.8886 H   0  0  0  0  0  0
    0.1930   52.2759   25.8040 C   0  0  2  0  0  0
   -0.4690   53.1322   25.7465 H   0  0  0  0  0  0
   -0.2222   51.5364   27.1352 C   0  0  1  0  0  0
    0.3184   50.5962   27.1824 H   0  0  0  0  0  0
    0.1279   52.3658   28.4007 C   0  0  0  0  0  0
    1.6471   52.7445   28.4791 C   0  0  1  0  0  0
    1.8924   53.6597   27.2526 C   0  0  1  0  0  0
    1.1765   54.4822   27.3231 H   0  0  0  0  0  0
    3.2676   54.2880   27.4886 C   0  0  0  0  0  0
    3.3660   54.4610   29.0153 C   0  0  0  0  0  0
    2.2085   53.6278   29.6721 C   0  0  1  0  0  0
    1.1044   54.5413   30.2971 C   0  0  0  0  0  0
    1.0889   55.7544   30.0817 O   0  0  0  0  0  0
   -0.0119   53.9387   31.1846 C   0  0  0  0  0  0
    0.3044   52.6424   31.6817 O   0  0  0  0  0  0
    2.7545   52.8967   30.7707 O   0  0  0  0  0  0
    2.5014   51.4534   28.4817 C   0  0  0  0  0  0
   -1.5837   51.1522   27.1683 O   0  0  0  0  0  0
   -2.2223   51.2847   24.6175 H   0  0  0  0  0  0
   -1.6991   52.7491   23.8137 H   0  0  0  0  0  0
   -1.6409   51.2156   22.9668 H   0  0  0  0  0  0
    1.1044   49.7479   25.2202 H   0  0  0  0  0  0
   -0.6068   49.4897   25.2583 H   0  0  0  0  0  0
   -0.6677   49.1374   22.8280 H   0  0  0  0  0  0
    0.5278   48.0709   23.5439 H   0  0  0  0  0  0
    2.1808   51.5816   21.7126 H   0  0  0  0  0  0
    1.7592   53.7948   22.5033 H   0  0  0  0  0  0
    0.3037   53.9901   23.4260 H   0  0  0  0  0  0
    1.8539   54.7876   24.8186 H   0  0  0  0  0  0
    3.1399   53.6605   24.4904 H   0  0  0  0  0  0
   -0.1619   51.7868   29.2776 H   0  0  0  0  0  0
   -0.4880   53.2657   28.4064 H   0  0  0  0  0  0
    3.4188   55.2079   26.9227 H   0  0  0  0  0  0
    4.0457   53.5931   27.1669 H   0  0  0  0  0  0
    3.3629   55.5194   29.2786 H   0  0  0  0  0  0
    4.3443   54.1022   29.3422 H   0  0  0  0  0  0
   -0.8954   53.8530   30.5549 H   0  0  0  0  0  0
   -0.2286   54.6123   32.0129 H   0  0  0  0  0  0
   -0.4291   52.3085   32.2421 H   0  0  0  0  0  0
    1.9940   52.5157   31.2401 H   0  0  0  0  0  0
    2.3044   50.7595   27.6817 H   0  0  0  0  0  0
    3.5646   51.6967   28.4817 H   0  0  0  0  0  0
    2.2943   50.8967   29.3851 H   0  0  0  0  0  0
   -1.6626   50.3330   27.6811 H   0  0  0  0  0  0
  1  2  1  0  0  0
  1 31  1  0  0  0
  1 32  1  0  0  0
  1 33  1  0  0  0
  2  8  1  0  0  0
  2 13  1  0  0  0
  2  3  1  0  0  0
  3  4  1  0  0  0
  3 34  1  0  0  0
  3 35  1  0  0  0
  4  5  1  0  0  0
  4 36  1  0  0  0
  4 37  1  0  0  0
  5  6  2  0  0  0
  5  7  1  0  0  0
  7  8  2  0  0  0
  7 38  1  0  0  0
  8  9  1  0  0  0
  9 10  1  0  0  0
  9 39  1  0  0  0
  9 40  1  0  0  0
 10 11  1  0  0  0
 10 41  1  0  0  0
 10 42  1  0  0  0
 11 12  1  0  0  0
 11 19  1  0  0  0
 11 13  1  0  0  0
 13 14  1  0  0  0
 13 15  1  0  0  0
 15 16  1  0  0  0
 15 17  1  0  0  0
 15 30  1  0  0  0
 17 18  1  0  0  0
 17 43  1  0  0  0
 17 44  1  0  0  0
 18 23  1  0  0  0
 18 19  1  0  0  0
 18 29  1  0  0  0
 19 20  1  0  0  0
 19 21  1  0  0  0
 21 22  1  0  0  0
 21 45  1  0  0  0
 21 46  1  0  0  0
 22 23  1  0  0  0
 22 47  1  0  0  0
 22 48  1  0  0  0
 23 24  1  0  0  0
 23 28  1  0  0  0
 24 25  2  0  0  0
 24 26  1  0  0  0
 26 27  1  0  0  0
 26 49  1  0  0  0
 26 50  1  0  0  0
 27 51  1  0  0  0
 28 52  1  0  0  0
 29 53  1  0  0  0
 29 54  1  0  0  0
 29 55  1  0  0  0
 30 56  1  0  0  0
M  END
> <i_i_glide_confnum>
2

> <i_i_glide_lignum>
1776

> <i_i_glide_posenum>
333

> <i_i_glide_rotatable_bonds>
5

> <i_m_Source_File_Index>
5471

> <b_m_subgroup_collapsed>
0

> <r_i_docking_score>
-5.81864

> <r_i_glide_ecoul>
-9.5133

> <r_i_glide_eff_state_penalty>
0

> <r_i_glide_einternal>
5.09229

> <r_i_glide_emodel>
-46.5106

> <r_i_glide_energy>
-34.5509

> <r_i_glide_erotb>
0.292322

> <r_i_glide_esite>
0

> <r_i_glide_evdw>
-25.0376

> <r_i_glide_gscore>
-5.81864

> <r_i_glide_hbond>
-0.123404

> <r_i_glide_ligand_efficiency>
-0.223794

> <r_i_glide_ligand_efficiency_ln>
-1.36649

> <r_i_glide_ligand_efficiency_sa>
-0.662988

> <r_i_glide_lipo>
-1.92532

> <r_i_glide_metal>
0

> <r_i_glide_rewards>
-1.38336

> <s_i_glide_gridfile>
wee1_glide-grid

> <s_m_Source_File>
wee1_decoys_glide_SP.sdf

> <s_m_Source_Path>
/Users/zhangxujun/Desktop

> <s_m_entry_id>
5746

> <s_m_entry_name>
wee1_decoys_glide_SP.5471

> <s_m_subgroup_title>
wee1_decoys_glide_SP

> <s_m_subgroupid>
wee1_decoys_glide_SP


$$$$
