ZINC25152205_5337
                    3D
 Schrodinger Suite 2024-2.
 59 62  0  0  1  0            999 V2000
    5.4129   53.2825   20.1565 C   0  0  0  0  0  0
    6.1106   54.5113   20.7808 C   0  0  1  0  0  0
    7.1937   54.4967   20.6585 H   0  0  0  0  0  0
    5.9118   55.8411   20.0089 C   0  0  0  0  0  0
    6.3044   56.8966   20.5147 O   0  0  0  0  0  0
    5.3872   55.7249   18.7678 N   0  0  0  0  0  0
    5.2188   56.6579   17.7263 C   0  0  0  0  0  0
    5.9058   57.8819   17.6817 C   0  0  0  0  0  0
    5.7563   58.7347   16.5891 C   0  0  0  0  0  0
    4.9067   58.3942   15.5432 C   0  0  0  0  0  0
    4.2151   57.1878   15.5786 C   0  0  0  0  0  0
    4.3672   56.3013   16.6546 C   0  0  0  0  0  0
    3.6162   54.9602   16.6276 C   0  0  0  0  0  0
    4.4909   53.9553   16.6853 F   0  0  0  0  0  0
    2.8073   54.8755   17.6817 F   0  0  0  0  0  0
    2.8763   54.7997   15.5286 F   0  0  0  0  0  0
    4.7168   59.4597   14.1988 Cl  0  0  0  0  0  0
    6.0098   54.6899   22.3267 N   0  3  1  0  0  0
    4.5660   54.5030   22.8583 C   0  0  0  0  0  0
    4.6072   54.8967   24.3522 C   0  0  0  0  0  0
    5.4510   53.8977   25.1434 C   0  0  1  0  0  0
    6.8953   53.9799   24.5842 C   0  0  0  0  0  0
    6.9422   53.6967   23.0770 C   0  0  0  0  0  0
    5.4334   54.2561   26.6513 C   0  0  0  0  0  0
    6.3752   54.8967   27.1272 O   0  0  0  0  0  0
    4.3495   53.6787   27.5084 C   0  0  0  0  0  0
    4.5918   53.5459   28.8817 C   0  0  0  0  0  0
    3.6259   53.0201   29.7406 C   0  0  0  0  0  0
    2.3836   52.6508   29.2340 C   0  0  0  0  0  0
    2.1175   52.7841   27.8630 C   0  0  0  0  0  0
    3.0929   53.2967   27.0061 C   0  0  0  0  0  0
    0.8827   52.4819   27.3233 O   0  0  0  0  0  0
    0.0731   51.6339   28.1487 C   0  0  0  0  0  0
    0.1231   52.0967   29.6259 C   0  0  0  0  0  0
    1.4728   52.0967   30.1104 O   0  0  0  0  0  0
    5.8437   53.0363   19.1836 H   0  0  0  0  0  0
    5.5044   52.4035   20.7931 H   0  0  0  0  0  0
    4.3448   53.4709   20.0314 H   0  0  0  0  0  0
    5.0401   54.8070   18.5304 H   0  0  0  0  0  0
    6.5766   58.1854   18.4699 H   0  0  0  0  0  0
    6.2850   59.6781   16.5570 H   0  0  0  0  0  0
    3.5666   56.9442   14.7496 H   0  0  0  0  0  0
    3.9218   55.1757   22.2870 H   0  0  0  0  0  0
    4.2487   53.4723   22.6890 H   0  0  0  0  0  0
    5.1044   55.8592   24.4817 H   0  0  0  0  0  0
    3.5833   54.9798   24.7169 H   0  0  0  0  0  0
    5.0414   52.8971   25.0429 H   0  0  0  0  0  0
    7.5044   53.2326   25.0852 H   0  0  0  0  0  0
    7.3554   54.9550   24.7603 H   0  0  0  0  0  0
    6.6211   52.6804   22.8527 H   0  0  0  0  0  0
    7.9538   53.8764   22.7202 H   0  0  0  0  0  0
    5.5514   53.8385   29.2817 H   0  0  0  0  0  0
    3.8430   52.8967   30.7911 H   0  0  0  0  0  0
    2.8485   53.3779   25.9591 H   0  0  0  0  0  0
    0.4372   50.6085   28.0774 H   0  0  0  0  0  0
   -0.9529   51.6381   27.7800 H   0  0  0  0  0  0
   -0.4956   51.4516   30.2520 H   0  0  0  0  0  0
   -0.2826   53.1073   29.6969 H   0  0  0  0  0  0
    6.3178   55.6358   22.5182 H   0  0  0  0  0  0
  1  2  1  0  0  0
  1 36  1  0  0  0
  1 37  1  0  0  0
  1 38  1  0  0  0
  2  3  1  0  0  0
  2  4  1  0  0  0
  2 18  1  0  0  0
  4  5  2  0  0  0
  4  6  1  0  0  0
  6  7  1  0  0  0
  6 39  1  0  0  0
  7 12  2  0  0  0
  7  8  1  0  0  0
  8  9  2  0  0  0
  8 40  1  0  0  0
  9 10  1  0  0  0
  9 41  1  0  0  0
 10 11  2  0  0  0
 10 17  1  0  0  0
 11 12  1  0  0  0
 11 42  1  0  0  0
 12 13  1  0  0  0
 13 14  1  0  0  0
 13 15  1  0  0  0
 13 16  1  0  0  0
 18 23  1  0  0  0
 18 19  1  0  0  0
 18 59  1  0  0  0
 19 20  1  0  0  0
 19 43  1  0  0  0
 19 44  1  0  0  0
 20 21  1  0  0  0
 20 45  1  0  0  0
 20 46  1  0  0  0
 21 22  1  0  0  0
 21 24  1  0  0  0
 21 47  1  0  0  0
 22 23  1  0  0  0
 22 48  1  0  0  0
 22 49  1  0  0  0
 23 50  1  0  0  0
 23 51  1  0  0  0
 24 25  2  0  0  0
 24 26  1  0  0  0
 26 31  2  0  0  0
 26 27  1  0  0  0
 27 28  2  0  0  0
 27 52  1  0  0  0
 28 29  1  0  0  0
 28 53  1  0  0  0
 29 35  1  0  0  0
 29 30  2  0  0  0
 30 31  1  0  0  0
 30 32  1  0  0  0
 31 54  1  0  0  0
 32 33  1  0  0  0
 33 34  1  0  0  0
 33 55  1  0  0  0
 33 56  1  0  0  0
 34 35  1  0  0  0
 34 57  1  0  0  0
 34 58  1  0  0  0
M  CHG  1  18   1
M  END
> <i_i_glide_confnum>
111

> <i_i_glide_lignum>
5338

> <i_i_glide_posenum>
386

> <i_i_glide_rotatable_bonds>
7

> <i_m_Source_File_Index>
5029

> <b_m_subgroup_collapsed>
0

> <r_i_docking_score>
-4.71934

> <r_i_glide_ecoul>
-3.99585

> <r_i_glide_eff_state_penalty>
0

> <r_i_glide_einternal>
5.80283

> <r_i_glide_emodel>
-48.2521

> <r_i_glide_energy>
-38.0745

> <r_i_glide_erotb>
0.493769

> <r_i_glide_esite>
-0.0309841

> <r_i_glide_evdw>
-34.0786

> <r_i_glide_gscore>
-4.71934

> <r_i_glide_hbond>
-0.189788

> <r_i_glide_ligand_efficiency>
-0.138804

> <r_i_glide_ligand_efficiency_ln>
-1.04264

> <r_i_glide_ligand_efficiency_sa>
-0.449672

> <r_i_glide_lipo>
-2.12623

> <r_i_glide_metal>
0

> <r_i_glide_rewards>
-0.562802

> <s_i_glide_gridfile>
wee1_glide-grid

> <s_m_Source_File>
wee1_decoys_glide_SP.sdf

> <s_m_Source_Path>
/Users/zhangxujun/Desktop

> <s_m_entry_id>
5304

> <s_m_entry_name>
wee1_decoys_glide_SP.5029

> <s_m_subgroup_title>
wee1_decoys_glide_SP

> <s_m_subgroupid>
wee1_decoys_glide_SP


$$$$
