ZINC20905309_3532
                    3D
 Schrodinger Suite 2024-2.
 50 53  0  0  1  0            999 V2000
    2.1319   53.2751   27.9442 C   0  0  0  0  0  0
    1.9040   53.3465   26.5772 C   0  0  0  0  0  0
    2.9281   53.6967   25.7035 C   0  0  0  0  0  0
    4.2518   53.9685   26.1766 C   0  0  0  0  0  0
    4.4661   53.8834   27.5938 C   0  0  0  0  0  0
    3.3955   53.5421   28.4572 C   0  0  0  0  0  0
    5.7501   54.1309   28.1231 C   0  0  0  0  0  0
    6.8041   54.4448   27.2806 C   0  0  0  0  0  0
    6.6136   54.5204   25.9102 C   0  0  0  0  0  0
    5.3641   54.2986   25.3135 C   0  0  0  0  0  0
    5.2540   54.4061   23.8408 C   0  0  0  0  0  0
    6.2009   54.7852   23.0805 N   0  0  0  0  0  0
    5.9064   54.8965   21.7157 N   0  0  0  0  0  0
    6.7389   55.5059   20.8070 C   0  0  0  0  0  0
    6.3946   56.0308   19.6613 N   0  0  0  0  0  0
    7.5665   56.3839   19.1379 C   0  0  0  0  0  0
    8.6338   56.0968   19.8580 N   0  0  0  0  0  0
    8.0896   55.5789   20.9581 N   0  0  0  0  0  0
    7.7258   57.1442   17.5534 S   0  0  0  0  0  0
    6.2613   58.2409   17.5385 C   0  0  0  0  0  0
    4.9822   57.6180   16.9588 C   0  0  0  0  0  0
    4.8514   56.3958   16.9164 O   0  0  0  0  0  0
    4.0519   58.4979   16.5295 N   0  0  0  0  0  0
    2.7503   58.2484   16.0609 C   0  0  0  0  0  0
    2.0364   57.0643   16.3055 C   0  0  0  0  0  0
    0.7215   56.9431   15.8630 C   0  0  0  0  0  0
    0.1072   57.9927   15.1735 C   0  0  0  0  0  0
    0.8280   59.1643   14.9115 C   0  0  0  0  0  0
    2.1411   59.2919   15.3593 C   0  0  0  0  0  0
   -1.3484   57.8466   14.7315 C   0  0  0  0  0  0
   -1.7527   58.8561   13.9586 F   0  0  0  0  0  0
   -2.1297   57.8105   15.8113 F   0  0  0  0  0  0
   -1.5115   56.7117   14.0516 F   0  0  0  0  0  0
    1.3230   53.0047   28.6100 H   0  0  0  0  0  0
    0.9183   53.1306   26.1906 H   0  0  0  0  0  0
    2.6919   53.7408   24.6524 H   0  0  0  0  0  0
    3.5704   53.4762   29.5221 H   0  0  0  0  0  0
    5.9155   54.0820   29.1897 H   0  0  0  0  0  0
    7.7865   54.6254   27.6880 H   0  0  0  0  0  0
    7.4763   54.7548   25.2994 H   0  0  0  0  0  0
    4.2879   54.1441   23.4262 H   0  0  0  0  0  0
    4.9326   54.7502   21.4858 H   0  0  0  0  0  0
    6.5250   59.1145   16.9386 H   0  0  0  0  0  0
    6.0632   58.6141   18.5420 H   0  0  0  0  0  0
    4.3158   59.4774   16.5113 H   0  0  0  0  0  0
    2.4646   56.2481   16.8671 H   0  0  0  0  0  0
    0.1731   56.0358   16.0751 H   0  0  0  0  0  0
    0.3730   59.9928   14.3887 H   0  0  0  0  0  0
    2.6766   60.2159   15.1830 H   0  0  0  0  0  0
    8.6173   55.2706   21.7652 H   0  0  0  0  0  0
  1  6  2  0  0  0
  1  2  1  0  0  0
  1 34  1  0  0  0
  2  3  2  0  0  0
  2 35  1  0  0  0
  3  4  1  0  0  0
  3 36  1  0  0  0
  4 10  2  0  0  0
  4  5  1  0  0  0
  5  6  1  0  0  0
  5  7  2  0  0  0
  6 37  1  0  0  0
  7  8  1  0  0  0
  7 38  1  0  0  0
  8  9  2  0  0  0
  8 39  1  0  0  0
  9 10  1  0  0  0
  9 40  1  0  0  0
 10 11  1  0  0  0
 11 12  2  0  0  0
 11 41  1  0  0  0
 12 13  1  0  0  0
 13 14  1  0  0  0
 13 42  1  0  0  0
 14 18  1  0  0  0
 14 15  2  0  0  0
 15 16  1  0  0  0
 16 17  2  0  0  0
 16 19  1  0  0  0
 17 18  1  0  0  0
 18 50  1  0  0  0
 19 20  1  0  0  0
 20 21  1  0  0  0
 20 43  1  0  0  0
 20 44  1  0  0  0
 21 22  2  0  0  0
 21 23  1  0  0  0
 23 24  1  0  0  0
 23 45  1  0  0  0
 24 29  2  0  0  0
 24 25  1  0  0  0
 25 26  2  0  0  0
 25 46  1  0  0  0
 26 27  1  0  0  0
 26 47  1  0  0  0
 27 28  2  0  0  0
 27 30  1  0  0  0
 28 29  1  0  0  0
 28 48  1  0  0  0
 29 49  1  0  0  0
 30 31  1  0  0  0
 30 32  1  0  0  0
 30 33  1  0  0  0
M  END
> <i_i_glide_confnum>
8

> <i_i_glide_lignum>
3533

> <i_i_glide_posenum>
258

> <i_i_glide_rotatable_bonds>
9

> <i_m_Source_File_Index>
129

> <b_m_subgroup_collapsed>
0

> <r_i_docking_score>
-5.55546

> <r_i_glide_ecoul>
-2.62033

> <r_i_glide_eff_state_penalty>
0

> <r_i_glide_einternal>
1.14856

> <r_i_glide_emodel>
-65.8002

> <r_i_glide_energy>
-46.0509

> <r_i_glide_erotb>
0.638995

> <r_i_glide_esite>
-0.0979798

> <r_i_glide_evdw>
-43.4306

> <r_i_glide_gscore>
-5.55546

> <r_i_glide_hbond>
-0.32586

> <r_i_glide_ligand_efficiency>
-0.168347

> <r_i_glide_ligand_efficiency_ln>
-1.2355

> <r_i_glide_ligand_efficiency_sa>
-0.539979

> <r_i_glide_lipo>
-2.33161

> <r_i_glide_metal>
0

> <r_i_glide_rewards>
-0.874421

> <s_i_glide_gridfile>
wee1_glide-grid

> <s_m_Source_File>
wee1_decoys_glide_SP.sdf

> <s_m_Source_Path>
/Users/zhangxujun/Desktop

> <s_m_entry_id>
404

> <s_m_entry_name>
wee1_decoys_glide_SP.129

> <s_m_subgroup_title>
wee1_decoys_glide_SP

> <s_m_subgroupid>
wee1_decoys_glide_SP


$$$$
