ZINC36027282_5264
                    3D
 Schrodinger Suite 2024-2.
 63 66  0  0  1  0            999 V2000
    5.0239   53.8493   24.4209 C   0  0  0  0  0  0
    4.9682   53.4253   22.9412 C   0  0  0  0  0  0
    3.5387   53.2388   22.3447 C   0  0  1  0  0  0
    3.1043   52.4025   22.8896 H   0  0  0  0  0  0
    2.6230   54.4398   22.6331 C   0  0  0  0  0  0
    3.5057   52.8631   20.9053 N   0  0  0  0  0  0
    4.1953   53.5235   19.9400 C   0  0  0  0  0  0
    4.9793   54.4611   20.0768 O   0  0  0  0  0  0
    3.8623   52.9167   18.5690 C   0  0  1  0  0  0
    4.7731   52.4988   18.1311 H   0  0  0  0  0  0
    3.1047   51.6878   18.9324 N   0  3  0  0  0  0
    2.5887   51.8499   20.3628 C   0  0  0  0  0  0
    2.6582   50.4580   21.0554 C   0  0  0  0  0  0
    1.7218   49.4014   20.4188 C   0  0  0  0  0  0
    0.3384   49.9278   20.2981 N   0  0  0  0  0  0
    0.1890   51.2359   19.6144 C   0  0  0  0  0  0
    1.1053   52.3050   20.2394 C   0  0  0  0  0  0
   -0.9482   49.3257   21.3670 S   0  0  0  0  0  0
   -2.1883   50.0416   21.0454 O   0  0  0  0  0  0
   -0.8964   47.8600   21.3419 O   0  0  0  0  0  0
   -0.4839   49.8387   23.0237 C   0  0  0  0  0  0
   -0.0404   48.8964   23.9558 C   0  0  0  0  0  0
    0.3046   49.3004   25.2427 C   0  0  0  0  0  0
    0.2185   50.6475   25.5905 C   0  0  0  0  0  0
   -0.2249   51.5906   24.6646 C   0  0  0  0  0  0
   -0.5856   51.1850   23.3821 C   0  0  0  0  0  0
    0.6714   51.1514   27.1776 Cl  0  0  0  0  0  0
    3.1687   53.8721   17.5700 C   0  0  0  0  0  0
    4.0612   54.9703   17.0064 C   0  0  0  0  0  0
    4.9531   54.6849   15.9500 C   0  0  0  0  0  0
    5.8309   55.6606   15.4974 C   0  0  0  0  0  0
    5.8575   56.9128   16.0989 C   0  0  0  0  0  0
    5.0154   57.1967   17.1663 C   0  0  0  0  0  0
    4.1312   56.2340   17.6310 C   0  0  0  0  0  0
    6.0222   53.6973   24.8292 H   0  0  0  0  0  0
    4.7889   54.9082   24.5361 H   0  0  0  0  0  0
    4.3216   53.2969   25.0439 H   0  0  0  0  0  0
    5.5207   52.4969   22.8140 H   0  0  0  0  0  0
    5.5372   54.1733   22.3928 H   0  0  0  0  0  0
    2.6261   54.7182   23.6866 H   0  0  0  0  0  0
    2.9826   55.2967   22.0800 H   0  0  0  0  0  0
    1.5846   54.2473   22.3743 H   0  0  0  0  0  0
    2.3547   51.4834   18.2892 H   0  0  0  0  0  0
    3.6834   50.0967   21.0788 H   0  0  0  0  0  0
    2.3710   50.5532   22.1033 H   0  0  0  0  0  0
    2.0621   49.0814   19.4324 H   0  0  0  0  0  0
    1.7024   48.5036   21.0385 H   0  0  0  0  0  0
    0.3789   51.0895   18.5492 H   0  0  0  0  0  0
   -0.8495   51.5581   19.6854 H   0  0  0  0  0  0
    0.7223   52.5468   21.2275 H   0  0  0  0  0  0
    1.0158   53.2234   19.6626 H   0  0  0  0  0  0
    0.0283   47.8492   23.6981 H   0  0  0  0  0  0
    0.6332   48.5675   25.9693 H   0  0  0  0  0  0
   -0.2970   52.6314   24.9439 H   0  0  0  0  0  0
   -0.9509   51.9133   22.6723 H   0  0  0  0  0  0
    2.2906   54.3358   18.0236 H   0  0  0  0  0  0
    2.7949   53.2950   16.7206 H   0  0  0  0  0  0
    4.9539   53.7062   15.4893 H   0  0  0  0  0  0
    6.5046   55.4416   14.6820 H   0  0  0  0  0  0
    6.5450   57.6677   15.7451 H   0  0  0  0  0  0
    5.0559   58.1693   17.6362 H   0  0  0  0  0  0
    3.5078   56.4550   18.4826 H   0  0  0  0  0  0
    3.7438   50.8970   18.8666 H   0  0  0  0  0  0
  1  2  1  0  0  0
  1 35  1  0  0  0
  1 36  1  0  0  0
  1 37  1  0  0  0
  2  3  1  0  0  0
  2 38  1  0  0  0
  2 39  1  0  0  0
  3  4  1  0  0  0
  3  5  1  0  0  0
  3  6  1  0  0  0
  5 40  1  0  0  0
  5 41  1  0  0  0
  5 42  1  0  0  0
  6 12  1  0  0  0
  6  7  1  0  0  0
  7  8  2  0  0  0
  7  9  1  0  0  0
  9 10  1  0  0  0
  9 11  1  0  0  0
  9 28  1  0  0  0
 11 12  1  0  0  0
 11 43  1  0  0  0
 11 63  1  0  0  0
 12 17  1  0  0  0
 12 13  1  0  0  0
 13 14  1  0  0  0
 13 44  1  0  0  0
 13 45  1  0  0  0
 14 15  1  0  0  0
 14 46  1  0  0  0
 14 47  1  0  0  0
 15 16  1  0  0  0
 15 18  1  0  0  0
 16 17  1  0  0  0
 16 48  1  0  0  0
 16 49  1  0  0  0
 17 50  1  0  0  0
 17 51  1  0  0  0
 18 19  2  0  0  0
 18 20  2  0  0  0
 18 21  1  0  0  0
 21 26  2  0  0  0
 21 22  1  0  0  0
 22 23  2  0  0  0
 22 52  1  0  0  0
 23 24  1  0  0  0
 23 53  1  0  0  0
 24 25  2  0  0  0
 24 27  1  0  0  0
 25 26  1  0  0  0
 25 54  1  0  0  0
 26 55  1  0  0  0
 28 29  1  0  0  0
 28 56  1  0  0  0
 28 57  1  0  0  0
 29 34  2  0  0  0
 29 30  1  0  0  0
 30 31  2  0  0  0
 30 58  1  0  0  0
 31 32  1  0  0  0
 31 59  1  0  0  0
 32 33  2  0  0  0
 32 60  1  0  0  0
 33 34  1  0  0  0
 33 61  1  0  0  0
 34 62  1  0  0  0
M  CHG  1  11   1
M  END
> <i_i_glide_confnum>
38

> <i_i_glide_lignum>
5265

> <i_i_glide_posenum>
92

> <i_i_glide_rotatable_bonds>
6

> <i_m_Source_File_Index>
5389

> <b_m_subgroup_collapsed>
0

> <r_i_docking_score>
-2.77304

> <r_i_glide_ecoul>
-5.08443

> <r_i_glide_eff_state_penalty>
0

> <r_i_glide_einternal>
4.33311

> <r_i_glide_emodel>
-40.0765

> <r_i_glide_energy>
-34.4831

> <r_i_glide_erotb>
0.445016

> <r_i_glide_esite>
-0.120994

> <r_i_glide_evdw>
-29.3987

> <r_i_glide_gscore>
-2.77304

> <r_i_glide_hbond>
-0.175343

> <r_i_glide_ligand_efficiency>
-0.0866575

> <r_i_glide_ligand_efficiency_ln>
-0.620959

> <r_i_glide_ligand_efficiency_sa>
-0.27512

> <r_i_glide_lipo>
-0.75392

> <r_i_glide_metal>
0

> <r_i_glide_rewards>
0.0648002

> <s_i_glide_gridfile>
wee1_glide-grid

> <s_m_Source_File>
wee1_decoys_glide_SP.sdf

> <s_m_Source_Path>
/Users/zhangxujun/Desktop

> <s_m_entry_id>
5664

> <s_m_entry_name>
wee1_decoys_glide_SP.5389

> <s_m_subgroup_title>
wee1_decoys_glide_SP

> <s_m_subgroupid>
wee1_decoys_glide_SP


$$$$
