ZINC40157753_5164
                    3D
 Schrodinger Suite 2024-2.
 52 55  0  0  1  0            999 V2000
    4.9282   54.7258   29.1360 C   0  0  0  0  0  0
    3.6344   54.4912   29.6826 O   0  0  0  0  0  0
    2.8267   53.6287   28.9738 C   0  0  0  0  0  0
    2.6176   53.7943   27.6007 C   0  0  0  0  0  0
    1.7974   52.9142   26.9028 C   0  0  0  0  0  0
    1.1566   51.8558   27.5538 C   0  0  0  0  0  0
    1.3488   51.7052   28.9277 C   0  0  0  0  0  0
    2.1798   52.5768   29.6424 C   0  0  0  0  0  0
    2.3182   52.3844   30.9981 O   0  0  0  0  0  0
    3.6285   52.0640   31.4614 C   0  0  0  0  0  0
    0.3931   50.9054   26.8577 N   0  0  0  0  0  0
   -0.6888   51.2763   25.4963 S   0  0  0  0  0  0
   -1.4268   52.4967   25.8444 O   0  0  0  0  0  0
   -1.3903   50.0320   25.1650 O   0  0  0  0  0  0
    0.3829   51.6465   24.1054 C   0  0  0  0  0  0
    0.5043   52.9693   23.6827 C   0  0  0  0  0  0
    1.4746   53.3070   22.7531 C   0  0  0  0  0  0
    2.3058   52.3216   22.2047 C   0  0  0  0  0  0
    2.0930   50.9791   22.5321 C   0  0  0  0  0  0
    1.1438   50.6409   23.4995 C   0  0  0  0  0  0
    3.3648   52.6637   21.3442 N   0  0  0  0  0  0
    4.1675   53.7442   21.4963 C   0  0  0  0  0  0
    4.1218   54.4966   22.4723 O   0  0  0  0  0  0
    5.1156   53.9757   20.4297 C   0  0  0  0  0  0
    5.2737   53.2971   19.2296 C   0  0  0  0  0  0
    6.3612   53.7699   18.4504 C   0  0  0  0  0  0
    6.8504   53.2956   17.2258 C   0  0  0  0  0  0
    7.9555   53.9083   16.6429 C   0  0  0  0  0  0
    8.5860   54.9836   17.2573 C   0  0  0  0  0  0
    8.1358   55.4851   18.4753 C   0  0  0  0  0  0
    7.0208   54.8741   19.0645 C   0  0  0  0  0  0
    6.2672   55.2957   20.5925 S   0  0  0  0  0  0
    8.4265   53.4456   15.4629 F   0  0  0  0  0  0
    5.5165   55.2968   29.8516 H   0  0  0  0  0  0
    5.4623   53.7955   28.9345 H   0  0  0  0  0  0
    4.8859   55.2965   28.2115 H   0  0  0  0  0  0
    3.0915   54.6012   27.0652 H   0  0  0  0  0  0
    1.7039   53.0648   25.8447 H   0  0  0  0  0  0
    0.8538   50.8967   29.4395 H   0  0  0  0  0  0
    3.5534   51.6650   32.4754 H   0  0  0  0  0  0
    4.0988   51.3028   30.8402 H   0  0  0  0  0  0
    4.2975   52.9240   31.4979 H   0  0  0  0  0  0
    0.4324   49.9392   27.1519 H   0  0  0  0  0  0
   -0.0972   53.7534   24.1210 H   0  0  0  0  0  0
    1.5915   54.3448   22.4768 H   0  0  0  0  0  0
    2.7116   50.2050   22.1015 H   0  0  0  0  0  0
    1.0370   49.6128   23.8176 H   0  0  0  0  0  0
    3.5637   52.0290   20.5888 H   0  0  0  0  0  0
    4.6699   52.4629   18.9025 H   0  0  0  0  0  0
    6.3813   52.4501   16.7441 H   0  0  0  0  0  0
    9.4440   55.4314   16.7774 H   0  0  0  0  0  0
    8.6358   56.3183   18.9517 H   0  0  0  0  0  0
  1  2  1  0  0  0
  1 34  1  0  0  0
  1 35  1  0  0  0
  1 36  1  0  0  0
  2  3  1  0  0  0
  3  8  2  0  0  0
  3  4  1  0  0  0
  4  5  2  0  0  0
  4 37  1  0  0  0
  5  6  1  0  0  0
  5 38  1  0  0  0
  6  7  2  0  0  0
  6 11  1  0  0  0
  7  8  1  0  0  0
  7 39  1  0  0  0
  8  9  1  0  0  0
  9 10  1  0  0  0
 10 40  1  0  0  0
 10 41  1  0  0  0
 10 42  1  0  0  0
 11 12  1  0  0  0
 11 43  1  0  0  0
 12 13  2  0  0  0
 12 14  2  0  0  0
 12 15  1  0  0  0
 15 20  2  0  0  0
 15 16  1  0  0  0
 16 17  2  0  0  0
 16 44  1  0  0  0
 17 18  1  0  0  0
 17 45  1  0  0  0
 18 19  2  0  0  0
 18 21  1  0  0  0
 19 20  1  0  0  0
 19 46  1  0  0  0
 20 47  1  0  0  0
 21 22  1  0  0  0
 21 48  1  0  0  0
 22 23  2  0  0  0
 22 24  1  0  0  0
 24 32  1  0  0  0
 24 25  2  0  0  0
 25 26  1  0  0  0
 25 49  1  0  0  0
 26 31  2  0  0  0
 26 27  1  0  0  0
 27 28  2  0  0  0
 27 50  1  0  0  0
 28 29  1  0  0  0
 28 33  1  0  0  0
 29 30  2  0  0  0
 29 51  1  0  0  0
 30 31  1  0  0  0
 30 52  1  0  0  0
 31 32  1  0  0  0
M  END
> <i_i_glide_confnum>
103

> <i_i_glide_lignum>
5165

> <i_i_glide_posenum>
100

> <i_i_glide_rotatable_bonds>
8

> <i_m_Source_File_Index>
1961

> <b_m_subgroup_collapsed>
0

> <r_i_docking_score>
-4.88807

> <r_i_glide_ecoul>
-4.02457

> <r_i_glide_eff_state_penalty>
0

> <r_i_glide_einternal>
16.5255

> <r_i_glide_emodel>
-56.4471

> <r_i_glide_energy>
-50.8777

> <r_i_glide_erotb>
0.515116

> <r_i_glide_esite>
-0.106603

> <r_i_glide_evdw>
-46.8531

> <r_i_glide_gscore>
-4.88807

> <r_i_glide_hbond>
-0.351955

> <r_i_glide_ligand_efficiency>
-0.148123

> <r_i_glide_ligand_efficiency_ln>
-1.08708

> <r_i_glide_ligand_efficiency_sa>
-0.475111

> <r_i_glide_lipo>
-2.22551

> <r_i_glide_metal>
0

> <r_i_glide_rewards>
0.227227

> <s_i_glide_gridfile>
wee1_glide-grid

> <s_m_Source_File>
wee1_decoys_glide_SP.sdf

> <s_m_Source_Path>
/Users/zhangxujun/Desktop

> <s_m_entry_id>
2236

> <s_m_entry_name>
wee1_decoys_glide_SP.1961

> <s_m_subgroup_title>
wee1_decoys_glide_SP

> <s_m_subgroupid>
wee1_decoys_glide_SP


$$$$
