ZINC60369342_4913
                    3D
 Schrodinger Suite 2024-2.
 67 70  0  0  1  0            999 V2000
    6.1837   54.0837   18.4509 C   0  0  0  0  0  0
    5.0750   53.6708   19.1903 C   0  0  0  0  0  0
    4.9293   54.0581   20.5298 C   0  0  0  0  0  0
    5.9027   54.8844   21.1040 C   0  0  0  0  0  0
    7.0056   55.2986   20.3607 C   0  0  0  0  0  0
    7.1498   54.8978   19.0362 C   0  0  0  0  0  0
    7.9323   56.0961   20.9285 F   0  0  0  0  0  0
    3.7412   53.6232   21.3869 C   0  0  0  0  0  0
    2.7633   52.6003   20.7496 N   0  3  1  0  0  0
    3.3543   51.1667   20.7844 C   0  0  0  0  0  0
    2.3822   50.2055   20.0741 C   0  0  0  0  0  0
    0.9759   50.2062   20.7088 C   0  0  0  0  0  0
    0.4309   51.6539   20.7512 C   0  0  2  0  0  0
    0.3180   51.9950   19.7179 H   0  0  0  0  0  0
    1.3812   52.6753   21.4435 C   0  0  0  0  0  0
   -1.0326   51.6971   21.2838 C   0  0  0  0  0  0
   -1.9214   51.9159   20.4555 O   0  0  0  0  0  0
   -1.3099   51.6999   22.6161 N   0  0  0  0  0  0
   -2.6855   51.8932   23.1126 C   0  0  0  0  0  0
   -3.2713   50.4999   23.4180 C   0  0  0  0  0  0
   -2.4082   49.7405   24.4483 C   0  0  0  0  0  0
   -0.9056   49.7420   24.0705 C   0  0  1  0  0  0
   -0.8074   49.1146   23.1815 H   0  0  0  0  0  0
   -0.4206   51.1441   23.6410 C   0  0  0  0  0  0
    0.0229   49.1554   25.1647 C   0  0  0  0  0  0
   -0.0953   49.7845   26.4818 N   0  0  0  0  0  0
    0.3882   50.9798   26.8662 C   0  0  0  0  0  0
    1.1043   51.6897   26.1562 O   0  0  0  0  0  0
   -0.0136   51.2990   28.1104 N   0  0  0  0  0  0
    0.2835   52.4600   28.8550 C   0  0  0  0  0  0
   -0.0491   52.4372   30.2130 C   0  0  0  0  0  0
    0.2203   53.5352   31.0296 C   0  0  0  0  0  0
    0.8003   54.6814   30.4880 C   0  0  0  0  0  0
    1.1342   54.7225   29.1408 C   0  0  0  0  0  0
    0.8770   53.6233   28.3271 C   0  0  0  0  0  0
    1.7089   55.8311   28.6245 F   0  0  0  0  0  0
    6.2915   53.7665   17.4245 H   0  0  0  0  0  0
    4.3449   53.0427   18.7003 H   0  0  0  0  0  0
    5.8124   55.2022   22.1323 H   0  0  0  0  0  0
    8.0105   55.2176   18.4675 H   0  0  0  0  0  0
    4.0792   53.1778   22.3259 H   0  0  0  0  0  0
    3.1489   54.5032   21.6476 H   0  0  0  0  0  0
    4.3080   51.1957   20.2548 H   0  0  0  0  0  0
    3.5196   50.8925   21.8262 H   0  0  0  0  0  0
    2.3232   50.4672   19.0158 H   0  0  0  0  0  0
    2.7935   49.1951   20.0958 H   0  0  0  0  0  0
    0.3543   49.5662   20.0798 H   0  0  0  0  0  0
    1.0862   49.7801   21.7059 H   0  0  0  0  0  0
    1.6134   52.5154   22.4920 H   0  0  0  0  0  0
    1.0203   53.6949   21.3022 H   0  0  0  0  0  0
   -2.6083   52.4704   24.0355 H   0  0  0  0  0  0
   -3.2954   52.5326   22.4792 H   0  0  0  0  0  0
   -4.2862   50.6103   23.8017 H   0  0  0  0  0  0
   -3.3626   49.9227   22.4971 H   0  0  0  0  0  0
   -2.5295   50.2511   25.4045 H   0  0  0  0  0  0
   -2.7682   48.7249   24.6230 H   0  0  0  0  0  0
    0.6355   51.1279   23.4074 H   0  0  0  0  0  0
   -0.4956   51.8409   24.4733 H   0  0  0  0  0  0
   -0.2160   48.0995   25.3056 H   0  0  0  0  0  0
    1.0678   49.1767   24.8428 H   0  0  0  0  0  0
   -0.6007   49.2309   27.1724 H   0  0  0  0  0  0
   -0.5807   50.6096   28.5849 H   0  0  0  0  0  0
   -0.5164   51.5688   30.6563 H   0  0  0  0  0  0
   -0.0428   53.4940   32.0795 H   0  0  0  0  0  0
    0.9969   55.5355   31.1183 H   0  0  0  0  0  0
    1.1400   53.7157   27.2856 H   0  0  0  0  0  0
    2.6314   52.8646   19.7818 H   0  0  0  0  0  0
  1  6  2  0  0  0
  1  2  1  0  0  0
  1 37  1  0  0  0
  2  3  2  0  0  0
  2 38  1  0  0  0
  3  4  1  0  0  0
  3  8  1  0  0  0
  4  5  2  0  0  0
  4 39  1  0  0  0
  5  6  1  0  0  0
  5  7  1  0  0  0
  6 40  1  0  0  0
  8  9  1  0  0  0
  8 41  1  0  0  0
  8 42  1  0  0  0
  9 15  1  0  0  0
  9 10  1  0  0  0
  9 67  1  0  0  0
 10 11  1  0  0  0
 10 43  1  0  0  0
 10 44  1  0  0  0
 11 12  1  0  0  0
 11 45  1  0  0  0
 11 46  1  0  0  0
 12 13  1  0  0  0
 12 47  1  0  0  0
 12 48  1  0  0  0
 13 14  1  0  0  0
 13 15  1  0  0  0
 13 16  1  0  0  0
 15 49  1  0  0  0
 15 50  1  0  0  0
 16 17  2  0  0  0
 16 18  1  0  0  0
 18 24  1  0  0  0
 18 19  1  0  0  0
 19 20  1  0  0  0
 19 51  1  0  0  0
 19 52  1  0  0  0
 20 21  1  0  0  0
 20 53  1  0  0  0
 20 54  1  0  0  0
 21 22  1  0  0  0
 21 55  1  0  0  0
 21 56  1  0  0  0
 22 23  1  0  0  0
 22 24  1  0  0  0
 22 25  1  0  0  0
 24 57  1  0  0  0
 24 58  1  0  0  0
 25 26  1  0  0  0
 25 59  1  0  0  0
 25 60  1  0  0  0
 26 27  1  0  0  0
 26 61  1  0  0  0
 27 28  2  0  0  0
 27 29  1  0  0  0
 29 30  1  0  0  0
 29 62  1  0  0  0
 30 35  2  0  0  0
 30 31  1  0  0  0
 31 32  2  0  0  0
 31 63  1  0  0  0
 32 33  1  0  0  0
 32 64  1  0  0  0
 33 34  2  0  0  0
 33 65  1  0  0  0
 34 35  1  0  0  0
 34 36  1  0  0  0
 35 66  1  0  0  0
M  CHG  1   9   1
M  END
> <i_i_glide_confnum>
141

> <i_i_glide_lignum>
4914

> <i_i_glide_posenum>
378

> <i_i_glide_rotatable_bonds>
9

> <i_m_Source_File_Index>
3956

> <b_m_subgroup_collapsed>
0

> <r_i_docking_score>
-5.22057

> <r_i_glide_ecoul>
-9.83313

> <r_i_glide_eff_state_penalty>
0

> <r_i_glide_einternal>
18.6832

> <r_i_glide_emodel>
-53.8589

> <r_i_glide_energy>
-45.3566

> <r_i_glide_erotb>
0.727198

> <r_i_glide_esite>
-0.213807

> <r_i_glide_evdw>
-35.5235

> <r_i_glide_gscore>
-5.22057

> <r_i_glide_hbond>
-0.318801

> <r_i_glide_ligand_efficiency>
-0.153546

> <r_i_glide_ligand_efficiency_ln>
-1.15337

> <r_i_glide_ligand_efficiency_sa>
-0.49743

> <r_i_glide_lipo>
-1.32506

> <r_i_glide_metal>
0

> <r_i_glide_rewards>
-0.838957

> <s_i_glide_gridfile>
wee1_glide-grid

> <s_m_Source_File>
wee1_decoys_glide_SP.sdf

> <s_m_Source_Path>
/Users/zhangxujun/Desktop

> <s_m_entry_id>
4231

> <s_m_entry_name>
wee1_decoys_glide_SP.3956

> <s_m_subgroup_title>
wee1_decoys_glide_SP

> <s_m_subgroupid>
wee1_decoys_glide_SP


$$$$
