ZINC11553740_3207
                    3D
 Schrodinger Suite 2024-2.
 58 61  0  0  1  0            999 V2000
    3.7884   54.4966   22.6949 C   0  0  0  0  0  0
    2.7712   53.9374   23.6688 C   0  0  0  0  0  0
    1.4564   53.7430   23.2561 C   0  0  0  0  0  0
    0.5501   53.1071   24.0974 C   0  0  0  0  0  0
    0.9641   52.6225   25.3485 C   0  0  0  0  0  0
    2.2685   52.8967   25.7834 C   0  0  0  0  0  0
    3.1588   53.5762   24.9569 C   0  0  0  0  0  0
    0.0807   51.7866   26.1044 N   0  0  0  0  0  0
   -0.4632   50.6759   25.4325 C   0  0  0  0  0  0
   -1.6294   50.1090   25.8571 C   0  0  0  0  0  0
   -2.4286   50.7716   27.0056 C   0  0  1  0  0  0
   -2.8360   49.9822   27.6242 H   0  0  0  0  0  0
   -1.4330   51.4515   27.8495 N   0  0  0  0  0  0
   -0.3143   52.0958   27.4084 C   0  0  0  0  0  0
    0.3104   53.2197   28.4813 S   0  0  0  0  0  0
   -3.6105   51.6715   26.5839 C   0  0  0  0  0  0
   -3.4562   52.5011   25.4619 C   0  0  0  0  0  0
   -4.4763   53.3511   25.0434 C   0  0  0  0  0  0
   -5.6771   53.3872   25.7429 C   0  0  0  0  0  0
   -5.8569   52.5718   26.8576 C   0  0  0  0  0  0
   -4.8454   51.6964   27.2825 C   0  0  0  0  0  0
   -5.1182   50.8963   28.5164 C   0  0  0  0  0  0
   -5.5562   51.3962   29.5570 O   0  0  0  0  0  0
   -4.9963   49.5681   28.3006 O   0  0  0  0  0  0
   -5.1583   48.6410   29.3642 C   0  0  0  0  0  0
   -2.2677   48.9727   25.2187 C   0  0  0  0  0  0
   -2.5735   48.9736   24.0253 O   0  0  0  0  0  0
   -2.4967   47.9641   26.0816 N   0  0  0  0  0  0
   -3.2662   46.8343   25.8877 C   0  0  0  0  0  0
   -3.5812   45.9546   26.9181 C   0  0  0  0  0  0
   -4.4215   45.0180   26.3670 C   0  0  0  0  0  0
   -4.5522   45.2966   25.0460 O   0  0  0  0  0  0
   -3.8180   46.4486   24.7519 N   0  0  0  0  0  0
   -5.1431   43.8011   26.8873 C   0  0  0  0  0  0
    0.4041   50.0350   24.3258 C   0  0  0  0  0  0
    3.3524   55.2965   22.0985 H   0  0  0  0  0  0
    4.6611   54.8964   23.2109 H   0  0  0  0  0  0
    4.1155   53.7169   22.0063 H   0  0  0  0  0  0
    1.1461   54.0409   22.2646 H   0  0  0  0  0  0
   -0.4539   52.9250   23.7426 H   0  0  0  0  0  0
    2.6207   52.5341   26.7382 H   0  0  0  0  0  0
    4.1746   53.7343   25.2891 H   0  0  0  0  0  0
   -1.6746   51.6587   28.8075 H   0  0  0  0  0  0
   -2.5307   52.4979   24.9077 H   0  0  0  0  0  0
   -4.3340   53.9811   24.1775 H   0  0  0  0  0  0
   -6.4717   54.0439   25.4198 H   0  0  0  0  0  0
   -6.7996   52.6230   27.3857 H   0  0  0  0  0  0
   -5.0348   47.6248   28.9893 H   0  0  0  0  0  0
   -4.4085   48.8062   30.1403 H   0  0  0  0  0  0
   -6.1495   48.7210   29.8126 H   0  0  0  0  0  0
   -2.1240   48.0965   27.0345 H   0  0  0  0  0  0
   -3.2508   46.0095   27.9461 H   0  0  0  0  0  0
   -4.8956   43.6019   27.9296 H   0  0  0  0  0  0
   -4.8804   42.9042   26.3275 H   0  0  0  0  0  0
   -6.2246   43.9195   26.8250 H   0  0  0  0  0  0
    0.1958   50.4951   23.3603 H   0  0  0  0  0  0
    1.4716   50.1300   24.5241 H   0  0  0  0  0  0
    0.2199   48.9656   24.2205 H   0  0  0  0  0  0
  1  2  1  0  0  0
  1 36  1  0  0  0
  1 37  1  0  0  0
  1 38  1  0  0  0
  2  7  2  0  0  0
  2  3  1  0  0  0
  3  4  2  0  0  0
  3 39  1  0  0  0
  4  5  1  0  0  0
  4 40  1  0  0  0
  5  6  2  0  0  0
  5  8  1  0  0  0
  6  7  1  0  0  0
  6 41  1  0  0  0
  7 42  1  0  0  0
  8 14  1  0  0  0
  8  9  1  0  0  0
  9 10  2  0  0  0
  9 35  1  0  0  0
 10 11  1  0  0  0
 10 26  1  0  0  0
 11 12  1  0  0  0
 11 13  1  0  0  0
 11 16  1  0  0  0
 13 14  1  0  0  0
 13 43  1  0  0  0
 14 15  2  0  0  0
 16 21  2  0  0  0
 16 17  1  0  0  0
 17 18  2  0  0  0
 17 44  1  0  0  0
 18 19  1  0  0  0
 18 45  1  0  0  0
 19 20  2  0  0  0
 19 46  1  0  0  0
 20 21  1  0  0  0
 20 47  1  0  0  0
 21 22  1  0  0  0
 22 23  2  0  0  0
 22 24  1  0  0  0
 24 25  1  0  0  0
 25 48  1  0  0  0
 25 49  1  0  0  0
 25 50  1  0  0  0
 26 27  2  0  0  0
 26 28  1  0  0  0
 28 29  1  0  0  0
 28 51  1  0  0  0
 29 33  2  0  0  0
 29 30  1  0  0  0
 30 31  2  0  0  0
 30 52  1  0  0  0
 31 32  1  0  0  0
 31 34  1  0  0  0
 32 33  1  0  0  0
 34 53  1  0  0  0
 34 54  1  0  0  0
 34 55  1  0  0  0
 35 56  1  0  0  0
 35 57  1  0  0  0
 35 58  1  0  0  0
M  END
> <i_i_glide_confnum>
95

> <i_i_glide_lignum>
3208

> <i_i_glide_posenum>
291

> <i_i_glide_rotatable_bonds>
7

> <i_m_Source_File_Index>
661

> <b_m_subgroup_collapsed>
0

> <r_i_docking_score>
-5.0658

> <r_i_glide_ecoul>
-9.564

> <r_i_glide_eff_state_penalty>
0

> <r_i_glide_einternal>
7.22235

> <r_i_glide_emodel>
-54.0891

> <r_i_glide_energy>
-44.1599

> <r_i_glide_erotb>
0.535025

> <r_i_glide_esite>
-0.438569

> <r_i_glide_evdw>
-34.5959

> <r_i_glide_gscore>
-5.0658

> <r_i_glide_hbond>
-0.147442

> <r_i_glide_ligand_efficiency>
-0.148994

> <r_i_glide_ligand_efficiency_ln>
-1.11918

> <r_i_glide_ligand_efficiency_sa>
-0.482683

> <r_i_glide_lipo>
-1.4999

> <r_i_glide_metal>
0

> <r_i_glide_rewards>
-0.350515

> <s_i_glide_gridfile>
wee1_glide-grid

> <s_m_Source_File>
wee1_decoys_glide_SP.sdf

> <s_m_Source_Path>
/Users/zhangxujun/Desktop

> <s_m_entry_id>
936

> <s_m_entry_name>
wee1_decoys_glide_SP.661

> <s_m_subgroup_title>
wee1_decoys_glide_SP

> <s_m_subgroupid>
wee1_decoys_glide_SP


$$$$
