ZINC40325221_952
                    3D
 Schrodinger Suite 2024-2.
 61 64  0  0  1  0            999 V2000
    1.3571   56.9236   16.1893 C   0  0  0  0  0  0
    1.2307   55.5014   16.7547 C   0  0  0  0  0  0
    1.6442   54.3717   15.7837 C   0  0  0  0  0  0
    3.4912   54.3824   15.3492 S   0  0  0  0  0  0
    3.8293   53.0747   14.7783 O   0  0  0  0  0  0
    3.8027   55.6103   14.6090 O   0  0  0  0  0  0
    4.2985   54.4827   16.9420 C   0  0  0  0  0  0
    4.3426   53.3548   17.7647 C   0  0  0  0  0  0
    4.8769   53.4618   19.0455 C   0  0  0  0  0  0
    5.3793   54.6857   19.4969 C   0  0  0  0  0  0
    5.3813   55.7955   18.6483 C   0  0  0  0  0  0
    4.8341   55.6977   17.3738 C   0  0  0  0  0  0
    5.8566   54.8230   20.8960 C   0  0  0  0  0  0
    5.4922   54.2299   22.0842 C   0  0  0  0  0  0
    6.2267   54.8919   23.0824 C   0  0  0  0  0  0
    7.1045   55.6964   22.5265 N   0  0  0  0  0  0
    6.8459   55.7122   21.1556 O   0  0  0  0  0  0
    6.0869   54.7028   24.5098 C   0  0  0  0  0  0
    7.0374   54.8377   25.2827 O   0  0  0  0  0  0
    4.8121   54.4096   24.8523 N   0  0  0  0  0  0
    4.2734   54.0254   26.0803 C   0  0  0  0  0  0
    2.9800   53.4753   26.2941 C   0  0  0  0  0  0
    2.7184   53.3023   27.6837 C   0  0  0  0  0  0
    3.8748   53.4624   28.4570 C   0  0  0  0  0  0
    5.2007   54.0950   27.5535 S   0  0  0  0  0  0
    4.0025   53.1330   29.9317 C   0  0  0  0  0  0
    2.7629   52.3488   30.4039 C   0  0  0  0  0  0
    1.4616   52.9586   29.8699 C   0  0  0  0  0  0
    1.3875   52.8807   28.3293 C   0  0  0  0  0  0
    2.0118   53.1075   25.2548 C   0  0  0  0  0  0
    0.8273   52.8963   25.5062 O   0  0  0  0  0  0
    2.5472   52.8967   24.0360 N   0  0  0  0  0  0
    1.9229   52.2924   22.8533 C   0  0  0  0  0  0
    0.4574   52.6572   22.6130 C   0  0  0  0  0  0
    0.9333   57.6543   16.8793 H   0  0  0  0  0  0
    0.8333   57.0250   15.2387 H   0  0  0  0  0  0
    2.3965   57.2062   16.0295 H   0  0  0  0  0  0
    1.8031   55.4269   17.6797 H   0  0  0  0  0  0
    0.1921   55.3399   17.0467 H   0  0  0  0  0  0
    1.4479   53.3983   16.2333 H   0  0  0  0  0  0
    1.0967   54.4197   14.8433 H   0  0  0  0  0  0
    3.9473   52.4054   17.4272 H   0  0  0  0  0  0
    4.8857   52.5890   19.6828 H   0  0  0  0  0  0
    5.7675   56.7456   18.9865 H   0  0  0  0  0  0
    4.8059   56.5721   16.7376 H   0  0  0  0  0  0
    4.7343   53.4731   22.2055 H   0  0  0  0  0  0
    4.1493   54.4400   24.0935 H   0  0  0  0  0  0
    4.8725   52.4962   30.0797 H   0  0  0  0  0  0
    4.1322   54.0445   30.5124 H   0  0  0  0  0  0
    2.8392   51.3194   30.0474 H   0  0  0  0  0  0
    2.7449   52.2969   31.4939 H   0  0  0  0  0  0
    0.6017   52.4458   30.3046 H   0  0  0  0  0  0
    1.3845   53.9986   30.1919 H   0  0  0  0  0  0
    0.5692   53.5199   27.9948 H   0  0  0  0  0  0
    1.1337   51.8632   28.0263 H   0  0  0  0  0  0
    3.5545   52.8937   24.0186 H   0  0  0  0  0  0
    2.5100   52.5664   21.9749 H   0  0  0  0  0  0
    2.0114   51.2085   22.9434 H   0  0  0  0  0  0
    0.1681   52.5014   21.5737 H   0  0  0  0  0  0
   -0.2070   52.0549   23.2330 H   0  0  0  0  0  0
    0.3045   53.6962   22.8820 H   0  0  0  0  0  0
  1  2  1  0  0  0
  1 35  1  0  0  0
  1 36  1  0  0  0
  1 37  1  0  0  0
  2  3  1  0  0  0
  2 38  1  0  0  0
  2 39  1  0  0  0
  3  4  1  0  0  0
  3 40  1  0  0  0
  3 41  1  0  0  0
  4  5  2  0  0  0
  4  6  2  0  0  0
  4  7  1  0  0  0
  7 12  2  0  0  0
  7  8  1  0  0  0
  8  9  2  0  0  0
  8 42  1  0  0  0
  9 10  1  0  0  0
  9 43  1  0  0  0
 10 11  2  0  0  0
 10 13  1  0  0  0
 11 12  1  0  0  0
 11 44  1  0  0  0
 12 45  1  0  0  0
 13 17  1  0  0  0
 13 14  2  0  0  0
 14 15  1  0  0  0
 14 46  1  0  0  0
 15 16  2  0  0  0
 15 18  1  0  0  0
 16 17  1  0  0  0
 18 19  2  0  0  0
 18 20  1  0  0  0
 20 21  1  0  0  0
 20 47  1  0  0  0
 21 25  1  0  0  0
 21 22  2  0  0  0
 22 23  1  0  0  0
 22 30  1  0  0  0
 23 29  1  0  0  0
 23 24  2  0  0  0
 24 25  1  0  0  0
 24 26  1  0  0  0
 26 27  1  0  0  0
 26 48  1  0  0  0
 26 49  1  0  0  0
 27 28  1  0  0  0
 27 50  1  0  0  0
 27 51  1  0  0  0
 28 29  1  0  0  0
 28 52  1  0  0  0
 28 53  1  0  0  0
 29 54  1  0  0  0
 29 55  1  0  0  0
 30 31  2  0  0  0
 30 32  1  0  0  0
 32 33  1  0  0  0
 32 56  1  0  0  0
 33 34  1  0  0  0
 33 57  1  0  0  0
 33 58  1  0  0  0
 34 59  1  0  0  0
 34 60  1  0  0  0
 34 61  1  0  0  0
M  END
> <i_i_glide_confnum>
290

> <i_i_glide_lignum>
953

> <i_i_glide_posenum>
349

> <i_i_glide_rotatable_bonds>
10

> <i_m_Source_File_Index>
3707

> <b_m_subgroup_collapsed>
0

> <r_i_docking_score>
-5.3018

> <r_i_glide_ecoul>
-1.90095

> <r_i_glide_eff_state_penalty>
0

> <r_i_glide_einternal>
8.31216

> <r_i_glide_emodel>
-55.9051

> <r_i_glide_energy>
-45.0036

> <r_i_glide_erotb>
0.649469

> <r_i_glide_esite>
-0.00886247

> <r_i_glide_evdw>
-43.1026

> <r_i_glide_gscore>
-5.3018

> <r_i_glide_hbond>
-0.312893

> <r_i_glide_ligand_efficiency>
-0.155935

> <r_i_glide_ligand_efficiency_ln>
-1.17132

> <r_i_glide_ligand_efficiency_sa>
-0.505169

> <r_i_glide_lipo>
-2.487

> <r_i_glide_metal>
0

> <r_i_glide_rewards>
-0.702239

> <s_i_glide_gridfile>
wee1_glide-grid

> <s_m_Source_File>
wee1_decoys_glide_SP.sdf

> <s_m_Source_Path>
/Users/zhangxujun/Desktop

> <s_m_entry_id>
3982

> <s_m_entry_name>
wee1_decoys_glide_SP.3707

> <s_m_subgroup_title>
wee1_decoys_glide_SP

> <s_m_subgroupid>
wee1_decoys_glide_SP


$$$$
