ZINC13027651_1983
                    3D
 Schrodinger Suite 2024-2.
 44 46  0  0  1  0            999 V2000
    6.5780   54.0973   27.4018 C   0  0  0  0  0  0
    6.4343   54.1061   26.0225 C   0  0  0  0  0  0
    5.1645   54.0968   25.4588 C   0  0  0  0  0  0
    4.0106   54.0635   26.2565 C   0  0  0  0  0  0
    4.1493   54.1011   27.6761 C   0  0  0  0  0  0
    5.4498   54.0962   28.2133 C   0  0  0  0  0  0
    2.9793   54.1902   28.6366 C   0  0  0  0  0  0
    3.2116   54.0967   29.8686 O   0  0  0  0  0  0
    2.7314   54.0967   25.6665 N   0  0  0  0  0  0
    2.2035   53.5888   24.0382 S   0  0  0  0  0  0
    1.1045   54.4885   23.6819 O   0  0  0  0  0  0
    3.3550   53.4334   23.1443 O   0  0  0  0  0  0
    1.4526   51.9833   24.2483 C   0  0  0  0  0  0
    1.7125   50.9465   23.3485 C   0  0  0  0  0  0
    1.1044   49.7043   23.5290 C   0  0  0  0  0  0
    0.2212   49.5008   24.5911 C   0  0  0  0  0  0
   -0.0814   50.5457   25.4679 C   0  0  0  0  0  0
    0.5507   51.7847   25.2975 C   0  0  0  0  0  0
   -1.0245   50.3253   26.4817 N   0  0  0  0  0  0
   -1.9072   51.6279   27.2820 S   0  0  0  0  0  0
   -1.0831   52.0366   28.4247 O   0  0  0  0  0  0
   -2.2893   52.5874   26.2387 O   0  0  0  0  0  0
   -3.4272   50.8967   27.8949 C   0  0  0  0  0  0
   -3.5627   50.4968   29.2299 C   0  0  0  0  0  0
   -4.7584   49.9341   29.6771 C   0  0  0  0  0  0
   -5.8214   49.7602   28.7922 C   0  0  0  0  0  0
   -5.6894   50.1475   27.4596 C   0  0  0  0  0  0
   -4.4966   50.7143   27.0117 C   0  0  0  0  0  0
   -6.7195   49.9756   26.6013 F   0  0  0  0  0  0
   -4.8945   49.5606   30.9689 F   0  0  0  0  0  0
    7.5594   54.1106   27.8504 H   0  0  0  0  0  0
    7.3031   54.1280   25.3820 H   0  0  0  0  0  0
    5.1177   54.1427   24.3864 H   0  0  0  0  0  0
    5.6037   54.1265   29.2814 H   0  0  0  0  0  0
    1.9931   54.3331   26.3250 H   0  0  0  0  0  0
    2.3933   51.0965   22.5227 H   0  0  0  0  0  0
    1.3268   48.8970   22.8484 H   0  0  0  0  0  0
   -0.2400   48.5322   24.7205 H   0  0  0  0  0  0
    0.3426   52.6008   25.9749 H   0  0  0  0  0  0
   -1.2955   49.3802   26.7324 H   0  0  0  0  0  0
   -2.7376   50.5972   29.9223 H   0  0  0  0  0  0
   -6.7445   49.3215   29.1393 H   0  0  0  0  0  0
   -4.4053   51.0112   25.9768 H   0  0  0  0  0  0
    1.8336   54.3840   28.1666 O   0  5  0  0  0  0
  1  6  2  0  0  0
  1  2  1  0  0  0
  1 31  1  0  0  0
  2  3  2  0  0  0
  2 32  1  0  0  0
  3  4  1  0  0  0
  3 33  1  0  0  0
  4  5  2  0  0  0
  4  9  1  0  0  0
  5  6  1  0  0  0
  5  7  1  0  0  0
  6 34  1  0  0  0
  7  8  2  0  0  0
  7 44  1  0  0  0
  9 10  1  0  0  0
  9 35  1  0  0  0
 10 11  2  0  0  0
 10 12  2  0  0  0
 10 13  1  0  0  0
 13 18  2  0  0  0
 13 14  1  0  0  0
 14 15  2  0  0  0
 14 36  1  0  0  0
 15 16  1  0  0  0
 15 37  1  0  0  0
 16 17  2  0  0  0
 16 38  1  0  0  0
 17 18  1  0  0  0
 17 19  1  0  0  0
 18 39  1  0  0  0
 19 20  1  0  0  0
 19 40  1  0  0  0
 20 21  2  0  0  0
 20 22  2  0  0  0
 20 23  1  0  0  0
 23 28  2  0  0  0
 23 24  1  0  0  0
 24 25  2  0  0  0
 24 41  1  0  0  0
 25 26  1  0  0  0
 25 30  1  0  0  0
 26 27  2  0  0  0
 26 42  1  0  0  0
 27 28  1  0  0  0
 27 29  1  0  0  0
 28 43  1  0  0  0
M  CHG  1  44  -1
M  END
> <i_i_glide_confnum>
102

> <i_i_glide_lignum>
1984

> <i_i_glide_posenum>
101

> <i_i_glide_rotatable_bonds>
7

> <i_m_Source_File_Index>
1296

> <b_m_subgroup_collapsed>
0

> <r_i_docking_score>
-3.52492

> <r_i_glide_ecoul>
-8.38598

> <r_i_glide_eff_state_penalty>
0

> <r_i_glide_einternal>
11.2947

> <r_i_glide_emodel>
-45.2193

> <r_i_glide_energy>
-45.942

> <r_i_glide_erotb>
0.554195

> <r_i_glide_esite>
-0.270072

> <r_i_glide_evdw>
-37.556

> <r_i_glide_gscore>
-3.52492

> <r_i_glide_hbond>
-0.275931

> <r_i_glide_ligand_efficiency>
-0.113707

> <r_i_glide_ligand_efficiency_ln>
-0.794978

> <r_i_glide_ligand_efficiency_sa>
-0.357198

> <r_i_glide_lipo>
-1.9978

> <r_i_glide_metal>
0

> <r_i_glide_rewards>
1.60039

> <s_i_glide_gridfile>
wee1_glide-grid

> <s_m_Source_File>
wee1_decoys_glide_SP.sdf

> <s_m_Source_Path>
/Users/zhangxujun/Desktop

> <s_m_entry_id>
1571

> <s_m_entry_name>
wee1_decoys_glide_SP.1296

> <s_m_subgroup_title>
wee1_decoys_glide_SP

> <s_m_subgroupid>
wee1_decoys_glide_SP


$$$$
