ZINC02782875_2989
                    3D
 Schrodinger Suite 2024-2.
 51 54  0  0  1  0            999 V2000
    0.8874   52.4095   27.8501 C   0  0  0  0  0  0
    2.2219   52.7448   28.4833 C   0  0  0  0  0  0
    2.5179   52.4971   29.8355 C   0  0  0  0  0  0
    3.8164   52.8186   30.1976 C   0  0  0  0  0  0
    4.7005   53.4949   28.8812 S   0  0  0  0  0  0
    3.3312   53.2957   27.8191 C   0  0  0  0  0  0
    3.4517   53.6221   26.3983 C   0  0  0  0  0  0
    4.5319   54.0942   25.9233 N   0  0  0  0  0  0
    4.5508   54.1301   24.5805 N   0  0  0  0  0  0
    5.6496   54.5033   23.8910 C   0  0  0  0  0  0
    6.7048   54.8747   24.4127 O   0  0  0  0  0  0
    5.4808   54.4967   22.4549 C   0  0  0  0  0  0
    4.4581   53.8567   21.7323 C   0  0  0  0  0  0
    4.6428   54.2082   20.4158 C   0  0  0  0  0  0
    5.8289   54.9178   20.3733 N   0  0  0  0  0  0
    6.3020   55.1050   21.6209 N   0  0  0  0  0  0
    6.3773   55.6230   19.1976 C   0  0  2  0  0  0
    6.0015   56.6450   19.2746 H   0  0  0  0  0  0
    5.7223   54.9797   17.9447 C   0  0  0  0  0  0
    4.2057   54.7307   18.0844 C   0  0  2  0  0  0
    3.6979   55.6872   18.2202 H   0  0  0  0  0  0
    3.9084   53.9377   19.2807 N   0  0  0  0  0  0
    3.6297   54.1433   16.7978 C   0  0  0  0  0  0
    3.6878   52.7664   16.5581 C   0  0  0  0  0  0
    3.1697   52.2362   15.3799 C   0  0  0  0  0  0
    2.5997   53.0847   14.4352 C   0  0  0  0  0  0
    2.5470   54.4594   14.6593 C   0  0  0  0  0  0
    3.0630   54.9902   15.8397 C   0  0  0  0  0  0
    2.0949   52.5723   13.2902 F   0  0  0  0  0  0
    7.9410   55.7064   19.1235 C   0  0  0  0  0  0
    8.4578   56.7003   18.0480 C   0  0  0  0  0  0
    8.1735   56.3059   16.8068 F   0  0  0  0  0  0
    7.9149   57.9087   18.2011 F   0  0  0  0  0  0
    9.7827   56.8487   18.1079 F   0  0  0  0  0  0
    8.4522   56.0955   20.2925 F   0  0  0  0  0  0
    8.4447   54.4978   18.8766 F   0  0  0  0  0  0
    0.3980   53.2970   27.4509 H   0  0  0  0  0  0
    1.0134   51.7376   26.9995 H   0  0  0  0  0  0
    0.1950   51.9266   28.5420 H   0  0  0  0  0  0
    1.7993   52.0755   30.5220 H   0  0  0  0  0  0
    4.2954   52.6992   31.1595 H   0  0  0  0  0  0
    2.5606   53.3905   25.8168 H   0  0  0  0  0  0
    3.7118   53.8224   24.1126 H   0  0  0  0  0  0
    3.6400   53.2633   22.1131 H   0  0  0  0  0  0
    5.8932   55.6076   17.0708 H   0  0  0  0  0  0
    6.2219   54.0375   17.7075 H   0  0  0  0  0  0
    2.9072   53.8605   19.3928 H   0  0  0  0  0  0
    4.1383   52.1022   17.2828 H   0  0  0  0  0  0
    3.2167   51.1703   15.2078 H   0  0  0  0  0  0
    2.1105   55.1098   13.9159 H   0  0  0  0  0  0
    3.0262   56.0572   16.0072 H   0  0  0  0  0  0
  1  2  1  0  0  0
  1 37  1  0  0  0
  1 38  1  0  0  0
  1 39  1  0  0  0
  2  6  2  0  0  0
  2  3  1  0  0  0
  3  4  2  0  0  0
  3 40  1  0  0  0
  4  5  1  0  0  0
  4 41  1  0  0  0
  5  6  1  0  0  0
  6  7  1  0  0  0
  7  8  2  0  0  0
  7 42  1  0  0  0
  8  9  1  0  0  0
  9 10  1  0  0  0
  9 43  1  0  0  0
 10 11  2  0  0  0
 10 12  1  0  0  0
 12 16  2  0  0  0
 12 13  1  0  0  0
 13 14  2  0  0  0
 13 44  1  0  0  0
 14 22  1  0  0  0
 14 15  1  0  0  0
 15 16  1  0  0  0
 15 17  1  0  0  0
 17 18  1  0  0  0
 17 19  1  0  0  0
 17 30  1  0  0  0
 19 20  1  0  0  0
 19 45  1  0  0  0
 19 46  1  0  0  0
 20 21  1  0  0  0
 20 22  1  0  0  0
 20 23  1  0  0  0
 22 47  1  0  0  0
 23 28  2  0  0  0
 23 24  1  0  0  0
 24 25  2  0  0  0
 24 48  1  0  0  0
 25 26  1  0  0  0
 25 49  1  0  0  0
 26 27  2  0  0  0
 26 29  1  0  0  0
 27 28  1  0  0  0
 27 50  1  0  0  0
 28 51  1  0  0  0
 30 31  1  0  0  0
 30 35  1  0  0  0
 30 36  1  0  0  0
 31 32  1  0  0  0
 31 33  1  0  0  0
 31 34  1  0  0  0
M  END
> <i_i_glide_confnum>
49

> <i_i_glide_lignum>
2990

> <i_i_glide_posenum>
298

> <i_i_glide_rotatable_bonds>
7

> <i_m_Source_File_Index>
867

> <b_m_subgroup_collapsed>
0

> <r_i_docking_score>
-4.93593

> <r_i_glide_ecoul>
-2.85948

> <r_i_glide_eff_state_penalty>
0

> <r_i_glide_einternal>
1.18187

> <r_i_glide_emodel>
-57.3864

> <r_i_glide_energy>
-44.3123

> <r_i_glide_erotb>
0.487407

> <r_i_glide_esite>
-0.0396285

> <r_i_glide_evdw>
-41.4528

> <r_i_glide_gscore>
-4.93593

> <r_i_glide_hbond>
-0.14199

> <r_i_glide_ligand_efficiency>
-0.145174

> <r_i_glide_ligand_efficiency_ln>
-1.09048

> <r_i_glide_ligand_efficiency_sa>
-0.470308

> <r_i_glide_lipo>
-1.52743

> <r_i_glide_metal>
0

> <r_i_glide_rewards>
-1.21272

> <s_i_glide_gridfile>
wee1_glide-grid

> <s_m_Source_File>
wee1_decoys_glide_SP.sdf

> <s_m_Source_Path>
/Users/zhangxujun/Desktop

> <s_m_entry_id>
1142

> <s_m_entry_name>
wee1_decoys_glide_SP.867

> <s_m_subgroup_title>
wee1_decoys_glide_SP

> <s_m_subgroupid>
wee1_decoys_glide_SP


$$$$
