ZINC39678322_344
                    3D
 Schrodinger Suite 2024-2.
 80 84  0  0  1  0            999 V2000
   -3.2487   53.0476   25.2104 C   0  0  0  0  0  0
   -2.9743   52.4087   23.8390 C   0  0  0  0  0  0
   -2.3824   50.9748   23.9204 C   0  0  1  0  0  0
   -1.5507   51.0287   24.6181 H   0  0  0  0  0  0
   -3.3487   49.9496   24.5416 C   0  0  0  0  0  0
   -4.6495   49.7933   24.0460 C   0  0  0  0  0  0
   -5.5089   48.8540   24.6125 C   0  0  0  0  0  0
   -5.0679   48.0708   25.6770 C   0  0  0  0  0  0
   -3.7744   48.2123   26.1732 C   0  0  0  0  0  0
   -2.9162   49.1481   25.6052 C   0  0  0  0  0  0
   -1.7913   50.4894   22.5629 C   0  0  0  0  0  0
   -2.4614   49.7413   21.8452 O   0  0  0  0  0  0
   -0.5531   50.8969   22.1771 N   0  0  0  0  0  0
    0.3185   51.7890   22.9329 C   0  0  0  0  0  0
    1.7327   51.4313   22.4221 C   0  0  1  0  0  0
    2.1025   50.6058   23.0327 H   0  0  0  0  0  0
    1.5297   50.9775   20.9451 C   0  0  0  0  0  0
    0.1225   50.3247   21.0079 C   0  0  0  0  0  0
    2.6427   50.0043   20.4869 C   0  0  0  0  0  0
    2.3297   49.4064   19.1035 C   0  0  0  0  0  0
    2.3043   50.5721   18.0970 N   0  3  0  0  0  0
    1.2902   51.6843   18.4575 C   0  0  0  0  0  0
    1.5482   52.1511   19.9101 C   0  0  0  0  0  0
    2.7044   52.6197   22.6792 C   0  0  0  0  0  0
    3.7754   52.6825   22.0786 O   0  0  0  0  0  0
    2.3658   53.5135   23.6208 N   0  0  0  0  0  0
    3.1435   54.6705   24.0262 C   0  0  0  0  0  0
    4.2928   54.4138   25.0086 C   0  0  0  0  0  0
    5.5958   54.4967   24.4967 C   0  0  0  0  0  0
    6.7030   54.4161   25.3342 C   0  0  0  0  0  0
    6.5192   54.2360   26.7029 C   0  0  0  0  0  0
    5.2289   54.1429   27.2267 C   0  0  0  0  0  0
    4.0976   54.2436   26.4034 C   0  0  0  0  0  0
    2.8285   54.1581   26.9754 N   0  0  0  0  0  0
    2.4562   54.8730   28.2104 C   0  0  0  0  0  0
    2.3823   53.9678   29.4580 C   0  0  0  0  0  0
    1.4172   52.7959   29.2378 C   0  0  0  0  0  0
    1.7962   52.0611   27.9470 C   0  0  0  0  0  0
    1.9262   53.0173   26.7390 C   0  0  0  0  0  0
   -3.6993   54.0337   25.0951 H   0  0  0  0  0  0
   -3.9352   52.4413   25.8022 H   0  0  0  0  0  0
   -2.3309   53.1734   25.7852 H   0  0  0  0  0  0
   -2.3088   53.0669   23.2800 H   0  0  0  0  0  0
   -3.9078   52.3956   23.2806 H   0  0  0  0  0  0
   -4.9966   50.3877   23.2147 H   0  0  0  0  0  0
   -6.5127   48.7366   24.2310 H   0  0  0  0  0  0
   -5.7342   47.3464   26.1226 H   0  0  0  0  0  0
   -3.4314   47.6078   27.0002 H   0  0  0  0  0  0
   -1.9191   49.2459   26.0117 H   0  0  0  0  0  0
    0.0587   52.8012   22.6152 H   0  0  0  0  0  0
    0.2894   51.6658   24.0144 H   0  0  0  0  0  0
    0.2703   49.2724   21.2581 H   0  0  0  0  0  0
   -0.4428   50.3402   20.0765 H   0  0  0  0  0  0
    3.6247   50.4838   20.5081 H   0  0  0  0  0  0
    2.7064   49.1692   21.1874 H   0  0  0  0  0  0
    3.1122   48.7294   18.7578 H   0  0  0  0  0  0
    1.3655   48.8996   19.0386 H   0  0  0  0  0  0
    3.2504   50.9434   18.0658 H   0  0  0  0  0  0
    1.4485   52.4877   17.7364 H   0  0  0  0  0  0
    0.2970   51.2641   18.2956 H   0  0  0  0  0  0
    0.7879   52.8877   20.1759 H   0  0  0  0  0  0
    2.4878   52.7009   19.9319 H   0  0  0  0  0  0
    1.5369   53.3377   24.1693 H   0  0  0  0  0  0
    3.5051   55.1874   23.1344 H   0  0  0  0  0  0
    2.4424   55.3624   24.4812 H   0  0  0  0  0  0
    5.7559   54.6444   23.4375 H   0  0  0  0  0  0
    7.6927   54.4970   24.9098 H   0  0  0  0  0  0
    7.3713   54.1617   27.3634 H   0  0  0  0  0  0
    5.1141   54.0013   28.2900 H   0  0  0  0  0  0
    3.1460   55.6966   28.3877 H   0  0  0  0  0  0
    1.4797   55.3335   28.0505 H   0  0  0  0  0  0
    3.3761   53.6115   29.7291 H   0  0  0  0  0  0
    2.0395   54.5617   30.3060 H   0  0  0  0  0  0
    0.3935   53.1703   29.1609 H   0  0  0  0  0  0
    1.4362   52.1143   30.0896 H   0  0  0  0  0  0
    1.0378   51.3078   27.7273 H   0  0  0  0  0  0
    2.7150   51.4958   28.0834 H   0  0  0  0  0  0
    0.9459   53.4060   26.4734 H   0  0  0  0  0  0
    2.2770   52.4535   25.8802 H   0  0  0  0  0  0
    2.1503   50.2072   17.1655 H   0  0  0  0  0  0
  1  2  1  0  0  0
  1 40  1  0  0  0
  1 41  1  0  0  0
  1 42  1  0  0  0
  2  3  1  0  0  0
  2 43  1  0  0  0
  2 44  1  0  0  0
  3  4  1  0  0  0
  3  5  1  0  0  0
  3 11  1  0  0  0
  5 10  2  0  0  0
  5  6  1  0  0  0
  6  7  2  0  0  0
  6 45  1  0  0  0
  7  8  1  0  0  0
  7 46  1  0  0  0
  8  9  2  0  0  0
  8 47  1  0  0  0
  9 10  1  0  0  0
  9 48  1  0  0  0
 10 49  1  0  0  0
 11 12  2  0  0  0
 11 13  1  0  0  0
 13 18  1  0  0  0
 13 14  1  0  0  0
 14 15  1  0  0  0
 14 50  1  0  0  0
 14 51  1  0  0  0
 15 16  1  0  0  0
 15 17  1  0  0  0
 15 24  1  0  0  0
 17 23  1  0  0  0
 17 18  1  0  0  0
 17 19  1  0  0  0
 18 52  1  0  0  0
 18 53  1  0  0  0
 19 20  1  0  0  0
 19 54  1  0  0  0
 19 55  1  0  0  0
 20 21  1  0  0  0
 20 56  1  0  0  0
 20 57  1  0  0  0
 21 22  1  0  0  0
 21 58  1  0  0  0
 21 80  1  0  0  0
 22 23  1  0  0  0
 22 59  1  0  0  0
 22 60  1  0  0  0
 23 61  1  0  0  0
 23 62  1  0  0  0
 24 25  2  0  0  0
 24 26  1  0  0  0
 26 27  1  0  0  0
 26 63  1  0  0  0
 27 28  1  0  0  0
 27 64  1  0  0  0
 27 65  1  0  0  0
 28 33  2  0  0  0
 28 29  1  0  0  0
 29 30  2  0  0  0
 29 66  1  0  0  0
 30 31  1  0  0  0
 30 67  1  0  0  0
 31 32  2  0  0  0
 31 68  1  0  0  0
 32 33  1  0  0  0
 32 69  1  0  0  0
 33 34  1  0  0  0
 34 39  1  0  0  0
 34 35  1  0  0  0
 35 36  1  0  0  0
 35 70  1  0  0  0
 35 71  1  0  0  0
 36 37  1  0  0  0
 36 72  1  0  0  0
 36 73  1  0  0  0
 37 38  1  0  0  0
 37 74  1  0  0  0
 37 75  1  0  0  0
 38 39  1  0  0  0
 38 76  1  0  0  0
 38 77  1  0  0  0
 39 78  1  0  0  0
 39 79  1  0  0  0
M  CHG  1  21   1
M  END
> <i_i_glide_confnum>
577

> <i_i_glide_lignum>
345

> <i_i_glide_posenum>
74

> <i_i_glide_rotatable_bonds>
9

> <i_m_Source_File_Index>
2506

> <b_m_subgroup_collapsed>
0

> <r_i_docking_score>
-5.37906

> <r_i_glide_ecoul>
-3.24927

> <r_i_glide_eff_state_penalty>
0

> <r_i_glide_einternal>
8.46502

> <r_i_glide_emodel>
-54.5742

> <r_i_glide_energy>
-41.9179

> <r_i_glide_erotb>
0.644562

> <r_i_glide_esite>
-0.1

> <r_i_glide_evdw>
-38.6686

> <r_i_glide_gscore>
-5.37906

> <r_i_glide_hbond>
-0.101438

> <r_i_glide_ligand_efficiency>
-0.14538

> <r_i_glide_ligand_efficiency_ln>
-1.16659

> <r_i_glide_ligand_efficiency_sa>
-0.484438

> <r_i_glide_lipo>
-2.99287

> <r_i_glide_metal>
0

> <r_i_glide_rewards>
-0.408493

> <s_i_glide_gridfile>
wee1_glide-grid

> <s_m_Source_File>
wee1_decoys_glide_SP.sdf

> <s_m_Source_Path>
/Users/zhangxujun/Desktop

> <s_m_entry_id>
2781

> <s_m_entry_name>
wee1_decoys_glide_SP.2506

> <s_m_subgroup_title>
wee1_decoys_glide_SP

> <s_m_subgroupid>
wee1_decoys_glide_SP


$$$$
