ZINC36557273_6002
                    3D
 Schrodinger Suite 2024-2.
 72 76  0  0  1  0            999 V2000
    0.1358   52.2618   30.2939 C   0  0  0  0  0  0
    0.6680   53.4840   31.0510 C   0  0  0  0  0  0
    0.3018   53.6997   32.2015 O   0  0  0  0  0  0
    1.5346   54.3260   30.4057 O   0  0  0  0  0  0
    2.0182   54.0632   29.1435 C   0  0  0  0  0  0
    1.2479   54.4052   28.0504 C   0  0  0  0  0  0
    1.6921   54.0965   26.7739 C   0  0  0  0  0  0
    2.9234   53.5363   26.5164 C   0  0  0  0  0  0
    3.7487   53.2668   27.6198 C   0  0  0  0  0  0
    3.2824   53.5020   28.9323 C   0  0  0  0  0  0
    4.0136   53.1864   30.0442 O   0  0  0  0  0  0
    4.3510   51.8172   30.1454 C   0  0  0  0  0  0
    3.2463   53.1313   25.0628 C   0  0  2  0  0  0
    3.5033   52.1029   25.2403 H   0  0  0  0  0  0
    4.3184   53.9914   24.3296 C   0  0  1  0  0  0
    3.7903   54.9364   24.1697 H   0  0  0  0  0  0
    5.6519   54.3925   24.9499 C   0  0  0  0  0  0
    6.3848   54.8951   23.7054 C   0  0  0  0  0  0
    5.7870   54.4603   22.5720 C   0  0  0  0  0  0
    4.7291   53.4476   22.9515 C   0  0  2  0  0  0
    5.2599   52.4967   22.8924 H   0  0  0  0  0  0
    3.5075   53.1315   22.1053 C   0  0  0  0  0  0
    3.6152   52.8939   20.7292 C   0  0  0  0  0  0
    2.5366   52.3970   19.9893 C   0  0  0  0  0  0
    1.3298   52.1174   20.6463 C   0  0  0  0  0  0
    1.2022   52.3644   22.0098 C   0  0  0  0  0  0
    2.2720   52.8786   22.7410 C   0  0  0  0  0  0
    2.0981   53.0004   24.1394 N   0  0  0  0  0  0
    2.7592   52.1980   18.6135 N   0  0  0  0  0  0
    1.8640   52.0213   17.6176 C   0  0  0  0  0  0
    0.6540   51.8354   17.7775 O   0  0  0  0  0  0
    2.4425   52.0635   16.2239 C   0  0  0  0  0  0
    3.5140   52.9098   15.9052 C   0  0  0  0  0  0
    4.0089   52.9569   14.6055 C   0  0  0  0  0  0
    3.4516   52.1669   13.5897 C   0  0  0  0  0  0
    2.3883   51.3112   13.9204 C   0  0  0  0  0  0
    1.8873   51.2654   15.2188 C   0  0  0  0  0  0
    4.0102   52.2770   12.1473 C   0  0  0  0  0  0
    3.8238   53.7276   11.6334 C   0  0  0  0  0  0
    3.2982   51.3362   11.1380 C   0  0  0  0  0  0
    5.5167   51.9167   12.1326 C   0  0  0  0  0  0
   -0.4810   52.5743   29.4543 H   0  0  0  0  0  0
    0.9553   51.6506   29.9213 H   0  0  0  0  0  0
   -0.4822   51.6502   30.9556 H   0  0  0  0  0  0
    0.3004   54.8870   28.1886 H   0  0  0  0  0  0
    1.1054   54.3397   25.9143 H   0  0  0  0  0  0
    4.7188   52.8172   27.4643 H   0  0  0  0  0  0
    4.7298   51.6120   31.1463 H   0  0  0  0  0  0
    3.4756   51.1934   29.9844 H   0  0  0  0  0  0
    5.1041   51.5337   29.4128 H   0  0  0  0  0  0
    5.5098   55.1781   25.6931 H   0  0  0  0  0  0
    6.1537   53.5613   25.4478 H   0  0  0  0  0  0
    7.2459   55.5452   23.7650 H   0  0  0  0  0  0
    6.0962   54.6507   21.5543 H   0  0  0  0  0  0
    4.5625   53.0653   20.2392 H   0  0  0  0  0  0
    0.4783   51.7051   20.1293 H   0  0  0  0  0  0
    0.2667   52.1335   22.4974 H   0  0  0  0  0  0
    1.2719   52.6150   24.5707 H   0  0  0  0  0  0
    3.7252   52.2371   18.3272 H   0  0  0  0  0  0
    3.9628   53.5483   16.6525 H   0  0  0  0  0  0
    4.8268   53.6297   14.3893 H   0  0  0  0  0  0
    1.9249   50.6716   13.1864 H   0  0  0  0  0  0
    1.0676   50.5951   15.4388 H   0  0  0  0  0  0
    4.1581   53.8388   10.5981 H   0  0  0  0  0  0
    4.3880   54.4521   12.2222 H   0  0  0  0  0  0
    2.7731   54.0262   11.6679 H   0  0  0  0  0  0
    3.4261   50.2853   11.4070 H   0  0  0  0  0  0
    2.2273   51.5385   11.0785 H   0  0  0  0  0  0
    3.6979   51.4553   10.1282 H   0  0  0  0  0  0
    5.6887   50.9020   12.4978 H   0  0  0  0  0  0
    5.9324   51.9751   11.1248 H   0  0  0  0  0  0
    6.1082   52.5882   12.7551 H   0  0  0  0  0  0
  1  2  1  0  0  0
  1 42  1  0  0  0
  1 43  1  0  0  0
  1 44  1  0  0  0
  2  3  2  0  0  0
  2  4  1  0  0  0
  4  5  1  0  0  0
  5 10  2  0  0  0
  5  6  1  0  0  0
  6  7  2  0  0  0
  6 45  1  0  0  0
  7  8  1  0  0  0
  7 46  1  0  0  0
  8  9  2  0  0  0
  8 13  1  0  0  0
  9 10  1  0  0  0
  9 47  1  0  0  0
 10 11  1  0  0  0
 11 12  1  0  0  0
 12 48  1  0  0  0
 12 49  1  0  0  0
 12 50  1  0  0  0
 13 14  1  0  0  0
 13 28  1  0  0  0
 13 15  1  0  0  0
 15 16  1  0  0  0
 15 20  1  0  0  0
 15 17  1  0  0  0
 17 18  1  0  0  0
 17 51  1  0  0  0
 17 52  1  0  0  0
 18 19  2  0  0  0
 18 53  1  0  0  0
 19 20  1  0  0  0
 19 54  1  0  0  0
 20 21  1  0  0  0
 20 22  1  0  0  0
 22 27  2  0  0  0
 22 23  1  0  0  0
 23 24  2  0  0  0
 23 55  1  0  0  0
 24 25  1  0  0  0
 24 29  1  0  0  0
 25 26  2  0  0  0
 25 56  1  0  0  0
 26 27  1  0  0  0
 26 57  1  0  0  0
 27 28  1  0  0  0
 28 58  1  0  0  0
 29 30  1  0  0  0
 29 59  1  0  0  0
 30 31  2  0  0  0
 30 32  1  0  0  0
 32 37  2  0  0  0
 32 33  1  0  0  0
 33 34  2  0  0  0
 33 60  1  0  0  0
 34 35  1  0  0  0
 34 61  1  0  0  0
 35 36  2  0  0  0
 35 38  1  0  0  0
 36 37  1  0  0  0
 36 62  1  0  0  0
 37 63  1  0  0  0
 38 39  1  0  0  0
 38 40  1  0  0  0
 38 41  1  0  0  0
 39 64  1  0  0  0
 39 65  1  0  0  0
 39 66  1  0  0  0
 40 67  1  0  0  0
 40 68  1  0  0  0
 40 69  1  0  0  0
 41 70  1  0  0  0
 41 71  1  0  0  0
 41 72  1  0  0  0
M  END
> <i_i_glide_confnum>
34

> <i_i_glide_lignum>
6003

> <i_i_glide_posenum>
269

> <i_i_glide_rotatable_bonds>
8

> <i_m_Source_File_Index>
82

> <b_m_subgroup_collapsed>
0

> <r_i_docking_score>
-1.26131

> <r_i_glide_ecoul>
-0.45253

> <r_i_glide_eff_state_penalty>
0

> <r_i_glide_einternal>
5.84265

> <r_i_glide_emodel>
-14.6013

> <r_i_glide_energy>
-21.4706

> <r_i_glide_erotb>
0.392882

> <r_i_glide_esite>
-0.0922708

> <r_i_glide_evdw>
-21.0181

> <r_i_glide_gscore>
-1.26131

> <r_i_glide_hbond>
-0.231043

> <r_i_glide_ligand_efficiency>
-0.0331925

> <r_i_glide_ligand_efficiency_ln>
-0.271976

> <r_i_glide_ligand_efficiency_sa>
-0.111592

> <r_i_glide_lipo>
-2.96338

> <r_i_glide_metal>
0

> <r_i_glide_rewards>
2.75129

> <s_i_glide_gridfile>
wee1_glide-grid

> <s_m_Source_File>
wee1_decoys_glide_SP.sdf

> <s_m_Source_Path>
/Users/zhangxujun/Desktop

> <s_m_entry_id>
357

> <s_m_entry_name>
wee1_decoys_glide_SP.82

> <s_m_subgroup_title>
wee1_decoys_glide_SP

> <s_m_subgroupid>
wee1_decoys_glide_SP


$$$$
