ZINC04236997_408
                    3D
 Schrodinger Suite 2024-2.
 78 81  0  0  1  0            999 V2000
    1.6774   51.2890   27.4819 C   0  0  0  0  0  0
    0.8197   52.5114   27.1836 C   0  0  1  0  0  0
   -0.6072   52.2928   27.7640 C   0  0  0  0  0  0
   -0.6440   52.1620   29.3069 C   0  0  0  0  0  0
   -0.0084   53.3897   29.9992 C   0  0  2  0  0  0
   -0.6527   54.2276   29.7232 H   0  0  0  0  0  0
    1.4414   53.7732   29.5129 C   0  0  1  0  0  0
    1.4402   53.7905   27.9106 C   0  0  1  0  0  0
    0.7550   54.6064   27.6817 H   0  0  0  0  0  0
    2.8404   54.2284   27.3747 C   0  0  0  0  0  0
    2.9466   54.0156   25.8845 C   0  0  0  0  0  0
    2.0284   53.3605   25.0565 C   0  0  0  0  0  0
    2.3500   53.3943   23.7651 N   0  0  0  0  0  0
    3.5214   53.9392   23.5242 C   0  0  0  0  0  0
    4.3345   54.4960   24.9598 S   0  0  0  0  0  0
    4.0394   54.0343   22.2252 N   0  0  0  0  0  0
    5.2593   54.4930   21.8412 C   0  0  0  0  0  0
    6.1244   54.8962   22.6148 O   0  0  0  0  0  0
    5.5492   54.4528   20.3212 C   0  0  0  0  0  0
    6.5484   55.4876   19.6768 C   0  0  0  0  0  0
    7.9858   55.4502   20.2531 C   0  0  0  0  0  0
    6.0325   56.9334   19.8066 C   0  0  0  0  0  0
    6.6503   55.1488   18.1687 C   0  0  0  0  0  0
    0.7497   52.6646   25.5894 C   0  0  1  0  0  0
   -0.1001   53.2968   25.3867 H   0  0  0  0  0  0
    0.4087   51.3512   24.7921 C   0  0  0  0  0  0
   -0.2221   51.5632   23.3957 C   0  0  0  0  0  0
   -1.0136   52.4981   23.2532 O   0  0  0  0  0  0
    0.0181   50.6740   22.3909 N   0  0  0  0  0  0
    1.0575   49.6313   22.4355 C   0  0  0  0  0  0
    2.3352   50.2330   21.8058 C   0  0  0  0  0  0
    2.0801   50.7903   20.3843 C   0  0  0  0  0  0
    0.8119   51.6718   20.3307 C   0  0  0  0  0  0
   -0.4044   50.9961   21.0144 C   0  0  0  0  0  0
    1.6668   55.2475   29.9906 C   0  0  0  0  0  0
    2.4932   52.7641   30.1553 C   0  0  0  0  0  0
    3.7501   53.2983   30.4817 O   0  0  0  0  0  0
   -0.0953   53.2965   31.4139 O   0  0  0  0  0  0
    1.4537   50.4138   26.8818 H   0  0  0  0  0  0
    2.6943   51.6397   27.2916 H   0  0  0  0  0  0
    1.5701   50.8963   28.4796 H   0  0  0  0  0  0
   -1.2617   53.0995   27.4355 H   0  0  0  0  0  0
   -1.0505   51.3922   27.3359 H   0  0  0  0  0  0
   -0.1412   51.2532   29.6275 H   0  0  0  0  0  0
   -1.6768   52.0353   29.6302 H   0  0  0  0  0  0
    3.6346   53.6682   27.8657 H   0  0  0  0  0  0
    3.0119   55.2855   27.5918 H   0  0  0  0  0  0
    3.4272   53.7032   21.4926 H   0  0  0  0  0  0
    4.5947   54.5349   19.7996 H   0  0  0  0  0  0
    5.9040   53.4448   20.1039 H   0  0  0  0  0  0
    8.6202   56.1977   19.7732 H   0  0  0  0  0  0
    8.4666   54.4970   20.0676 H   0  0  0  0  0  0
    8.0380   55.6524   21.3214 H   0  0  0  0  0  0
    5.0894   57.0540   19.2813 H   0  0  0  0  0  0
    5.9036   57.2391   20.8450 H   0  0  0  0  0  0
    6.7250   57.6474   19.3558 H   0  0  0  0  0  0
    5.6827   55.2115   17.6682 H   0  0  0  0  0  0
    7.3237   55.8276   17.6448 H   0  0  0  0  0  0
    7.0255   54.1360   18.0148 H   0  0  0  0  0  0
    1.3195   50.7678   24.7057 H   0  0  0  0  0  0
   -0.3036   50.7366   25.3401 H   0  0  0  0  0  0
    1.1671   49.1576   23.4083 H   0  0  0  0  0  0
    0.6984   48.8094   21.8162 H   0  0  0  0  0  0
    2.7376   51.0141   22.4538 H   0  0  0  0  0  0
    3.1036   49.4631   21.7600 H   0  0  0  0  0  0
    1.9644   49.9574   19.6889 H   0  0  0  0  0  0
    2.9465   51.3530   20.0327 H   0  0  0  0  0  0
    0.5695   51.8913   19.2906 H   0  0  0  0  0  0
    1.0080   52.6378   20.8005 H   0  0  0  0  0  0
   -0.6497   50.0539   20.5203 H   0  0  0  0  0  0
   -1.3345   51.5624   20.9802 H   0  0  0  0  0  0
    1.5032   55.3538   31.0611 H   0  0  0  0  0  0
    2.6843   55.5901   29.7998 H   0  0  0  0  0  0
    0.9998   55.9590   29.4999 H   0  0  0  0  0  0
    2.1112   52.2627   31.0471 H   0  0  0  0  0  0
    2.8271   51.9726   29.5096 H   0  0  0  0  0  0
    4.3322   52.5783   30.7490 H   0  0  0  0  0  0
   -0.7065   52.5923   31.6827 H   0  0  0  0  0  0
  1  2  1  0  0  0
  1 39  1  0  0  0
  1 40  1  0  0  0
  1 41  1  0  0  0
  2  8  1  0  0  0
  2 24  1  0  0  0
  2  3  1  0  0  0
  3  4  1  0  0  0
  3 42  1  0  0  0
  3 43  1  0  0  0
  4  5  1  0  0  0
  4 44  1  0  0  0
  4 45  1  0  0  0
  5  6  1  0  0  0
  5  7  1  0  0  0
  5 38  1  0  0  0
  7  8  1  0  0  0
  7 35  1  0  0  0
  7 36  1  0  0  0
  8  9  1  0  0  0
  8 10  1  0  0  0
 10 11  1  0  0  0
 10 46  1  0  0  0
 10 47  1  0  0  0
 11 15  1  0  0  0
 11 12  2  0  0  0
 12 13  1  0  0  0
 12 24  1  0  0  0
 13 14  2  0  0  0
 14 15  1  0  0  0
 14 16  1  0  0  0
 16 17  1  0  0  0
 16 48  1  0  0  0
 17 18  2  0  0  0
 17 19  1  0  0  0
 19 20  1  0  0  0
 19 49  1  0  0  0
 19 50  1  0  0  0
 20 21  1  0  0  0
 20 22  1  0  0  0
 20 23  1  0  0  0
 21 51  1  0  0  0
 21 52  1  0  0  0
 21 53  1  0  0  0
 22 54  1  0  0  0
 22 55  1  0  0  0
 22 56  1  0  0  0
 23 57  1  0  0  0
 23 58  1  0  0  0
 23 59  1  0  0  0
 24 25  1  0  0  0
 24 26  1  0  0  0
 26 27  1  0  0  0
 26 60  1  0  0  0
 26 61  1  0  0  0
 27 28  2  0  0  0
 27 29  1  0  0  0
 29 34  1  0  0  0
 29 30  1  0  0  0
 30 31  1  0  0  0
 30 62  1  0  0  0
 30 63  1  0  0  0
 31 32  1  0  0  0
 31 64  1  0  0  0
 31 65  1  0  0  0
 32 33  1  0  0  0
 32 66  1  0  0  0
 32 67  1  0  0  0
 33 34  1  0  0  0
 33 68  1  0  0  0
 33 69  1  0  0  0
 34 70  1  0  0  0
 34 71  1  0  0  0
 35 72  1  0  0  0
 35 73  1  0  0  0
 35 74  1  0  0  0
 36 37  1  0  0  0
 36 75  1  0  0  0
 36 76  1  0  0  0
 37 77  1  0  0  0
 38 78  1  0  0  0
M  END
> <i_i_glide_confnum>
37

> <i_i_glide_lignum>
409

> <i_i_glide_posenum>
92

> <i_i_glide_rotatable_bonds>
10

> <i_m_Source_File_Index>
903

> <b_m_subgroup_collapsed>
0

> <r_i_docking_score>
-6.01709

> <r_i_glide_ecoul>
-7.32891

> <r_i_glide_eff_state_penalty>
0

> <r_i_glide_einternal>
5.39739

> <r_i_glide_emodel>
-56.4985

> <r_i_glide_energy>
-46.8123

> <r_i_glide_erotb>
0.559876

> <r_i_glide_esite>
0

> <r_i_glide_evdw>
-39.4834

> <r_i_glide_gscore>
-6.01709

> <r_i_glide_hbond>
-0.449683

> <r_i_glide_ligand_efficiency>
-0.171917

> <r_i_glide_ligand_efficiency_ln>
-1.32088

> <r_i_glide_ligand_efficiency_sa>
-0.562351

> <r_i_glide_lipo>
-2.73893

> <r_i_glide_metal>
0

> <r_i_glide_rewards>
-0.314839

> <s_i_glide_gridfile>
wee1_glide-grid

> <s_m_Source_File>
wee1_decoys_glide_SP.sdf

> <s_m_Source_Path>
/Users/zhangxujun/Desktop

> <s_m_entry_id>
1178

> <s_m_entry_name>
wee1_decoys_glide_SP.903

> <s_m_subgroup_title>
wee1_decoys_glide_SP

> <s_m_subgroupid>
wee1_decoys_glide_SP


$$$$
