ZINC20641381_2045
                    3D
 Schrodinger Suite 2024-2.
 59 63  0  0  1  0            999 V2000
    0.0898   48.8923   21.5946 C   0  0  0  0  0  0
    0.6323   50.0410   20.7078 C   0  0  1  0  0  0
    1.6244   49.4810   19.6134 C   0  0  2  0  0  0
    2.4133   48.9117   20.1121 H   0  0  0  0  0  0
    2.1916   50.7361   18.9009 C   0  0  1  0  0  0
    2.8822   50.4941   18.0898 H   0  0  0  0  0  0
    1.0358   51.5948   18.3857 C   0  0  0  0  0  0
    1.1995   52.5147   17.3467 C   0  0  0  0  0  0
    0.1451   53.3338   16.9460 C   0  0  0  0  0  0
   -1.0910   53.2439   17.5833 C   0  0  0  0  0  0
   -1.2837   52.3291   18.6198 C   0  0  0  0  0  0
   -0.2237   51.5012   19.0179 C   0  0  0  0  0  0
   -0.4909   50.6028   20.0499 O   0  0  0  0  0  0
   -2.5055   52.2908   19.2480 O   0  0  0  0  0  0
   -3.3175   51.1830   18.8783 C   0  0  0  0  0  0
    2.9596   51.4032   19.9567 N   0  0  0  0  0  0
    2.4761   51.7070   21.1939 C   0  0  0  0  0  0
    3.2942   52.8967   22.0380 S   0  0  0  0  0  0
    1.3276   51.0257   21.5899 N   0  0  0  0  0  0
    0.6266   51.3764   22.7764 C   0  0  0  0  0  0
    1.0555   50.8840   24.0142 C   0  0  0  0  0  0
    0.3254   51.1738   25.1650 C   0  0  0  0  0  0
   -0.8279   51.9519   25.0750 C   0  0  0  0  0  0
   -1.2675   52.4340   23.8433 C   0  0  0  0  0  0
   -0.5451   52.1367   22.6915 C   0  0  0  0  0  0
    1.0428   48.4617   18.5858 C   0  0  0  0  0  0
   -0.1485   48.1448   18.6159 O   0  0  0  0  0  0
    1.9045   47.9528   17.6776 N   0  0  0  0  0  0
    1.6190   46.9391   16.7485 C   0  0  0  0  0  0
    2.1376   47.0716   15.4610 C   0  0  0  0  0  0
    1.8883   46.0903   14.5040 C   0  0  0  0  0  0
    1.1355   44.9529   14.8384 C   0  0  0  0  0  0
    0.6444   44.8165   16.1358 C   0  0  0  0  0  0
    0.8793   45.8011   17.0909 C   0  0  0  0  0  0
    0.8314   43.9310   13.9612 O   0  0  0  0  0  0
    1.2202   44.0437   12.5970 C   0  0  0  0  0  0
    0.8879   48.4969   22.2207 H   0  0  0  0  0  0
   -0.7185   49.2409   22.2366 H   0  0  0  0  0  0
   -0.3258   48.0757   21.0121 H   0  0  0  0  0  0
    2.1583   52.6069   16.8573 H   0  0  0  0  0  0
    0.2911   54.0466   16.1476 H   0  0  0  0  0  0
   -1.9016   53.8874   17.2749 H   0  0  0  0  0  0
   -4.2777   51.2534   19.3896 H   0  0  0  0  0  0
   -3.5133   51.1719   17.8048 H   0  0  0  0  0  0
   -2.8667   50.2295   19.1579 H   0  0  0  0  0  0
    3.8032   51.8986   19.7044 H   0  0  0  0  0  0
    1.9393   50.2641   24.0780 H   0  0  0  0  0  0
    0.6454   50.7888   26.1236 H   0  0  0  0  0  0
   -1.3920   52.1732   25.9682 H   0  0  0  0  0  0
   -2.1693   53.0272   23.7823 H   0  0  0  0  0  0
   -0.8946   52.4938   21.7350 H   0  0  0  0  0  0
    2.7940   48.4304   17.5303 H   0  0  0  0  0  0
    2.7177   47.9441   15.1963 H   0  0  0  0  0  0
    2.2777   46.2335   13.5102 H   0  0  0  0  0  0
    0.0684   43.9420   16.3996 H   0  0  0  0  0  0
    0.4885   45.6756   18.0902 H   0  0  0  0  0  0
    0.8683   43.1705   12.0482 H   0  0  0  0  0  0
    2.3045   44.0810   12.4895 H   0  0  0  0  0  0
    0.7844   44.9267   12.1259 H   0  0  0  0  0  0
  1  2  1  0  0  0
  1 37  1  0  0  0
  1 38  1  0  0  0
  1 39  1  0  0  0
  2 13  1  0  0  0
  2 19  1  0  0  0
  2  3  1  0  0  0
  3  4  1  0  0  0
  3  5  1  0  0  0
  3 26  1  0  0  0
  5  6  1  0  0  0
  5  7  1  0  0  0
  5 16  1  0  0  0
  7 12  2  0  0  0
  7  8  1  0  0  0
  8  9  2  0  0  0
  8 40  1  0  0  0
  9 10  1  0  0  0
  9 41  1  0  0  0
 10 11  2  0  0  0
 10 42  1  0  0  0
 11 12  1  0  0  0
 11 14  1  0  0  0
 12 13  1  0  0  0
 14 15  1  0  0  0
 15 43  1  0  0  0
 15 44  1  0  0  0
 15 45  1  0  0  0
 16 17  1  0  0  0
 16 46  1  0  0  0
 17 18  2  0  0  0
 17 19  1  0  0  0
 19 20  1  0  0  0
 20 25  2  0  0  0
 20 21  1  0  0  0
 21 22  2  0  0  0
 21 47  1  0  0  0
 22 23  1  0  0  0
 22 48  1  0  0  0
 23 24  2  0  0  0
 23 49  1  0  0  0
 24 25  1  0  0  0
 24 50  1  0  0  0
 25 51  1  0  0  0
 26 27  2  0  0  0
 26 28  1  0  0  0
 28 29  1  0  0  0
 28 52  1  0  0  0
 29 34  2  0  0  0
 29 30  1  0  0  0
 30 31  2  0  0  0
 30 53  1  0  0  0
 31 32  1  0  0  0
 31 54  1  0  0  0
 32 33  2  0  0  0
 32 35  1  0  0  0
 33 34  1  0  0  0
 33 55  1  0  0  0
 34 56  1  0  0  0
 35 36  1  0  0  0
 36 57  1  0  0  0
 36 58  1  0  0  0
 36 59  1  0  0  0
M  END
> <i_i_glide_confnum>
2

> <i_i_glide_lignum>
2046

> <i_i_glide_posenum>
234

> <i_i_glide_rotatable_bonds>
6

> <i_m_Source_File_Index>
2526

> <b_m_subgroup_collapsed>
0

> <r_i_docking_score>
-3.32788

> <r_i_glide_ecoul>
-7.32202

> <r_i_glide_eff_state_penalty>
0

> <r_i_glide_einternal>
7.87647

> <r_i_glide_emodel>
-40.4012

> <r_i_glide_energy>
-36.2898

> <r_i_glide_erotb>
0.358038

> <r_i_glide_esite>
-0.190937

> <r_i_glide_evdw>
-28.9677

> <r_i_glide_gscore>
-3.32788

> <r_i_glide_hbond>
-0.456

> <r_i_glide_ligand_efficiency>
-0.0978787

> <r_i_glide_ligand_efficiency_ln>
-0.735221

> <r_i_glide_ligand_efficiency_sa>
-0.317089

> <r_i_glide_lipo>
-0.259112

> <r_i_glide_metal>
0

> <r_i_glide_rewards>
-0.233175

> <s_i_glide_gridfile>
wee1_glide-grid

> <s_m_Source_File>
wee1_decoys_glide_SP.sdf

> <s_m_Source_Path>
/Users/zhangxujun/Desktop

> <s_m_entry_id>
2801

> <s_m_entry_name>
wee1_decoys_glide_SP.2526

> <s_m_subgroup_title>
wee1_decoys_glide_SP

> <s_m_subgroupid>
wee1_decoys_glide_SP


$$$$
