ZINC56069976_4598
                    3D
 Schrodinger Suite 2024-2.
 52 54  0  0  1  0            999 V2000
   -1.9582   50.9179   27.5432 C   0  0  0  0  0  0
   -0.7463   51.7475   27.9213 C   0  0  0  0  0  0
    0.1140   52.1993   26.9247 C   0  0  0  0  0  0
    1.1836   53.0270   27.2511 C   0  0  0  0  0  0
    1.4180   53.4148   28.5733 C   0  0  0  0  0  0
    0.5724   52.9274   29.5901 C   0  0  0  0  0  0
   -0.4966   52.0897   29.2526 C   0  0  0  0  0  0
    0.7544   53.3103   31.0519 C   0  0  0  0  0  0
    2.7494   54.5792   28.9238 S   0  0  0  0  0  0
    3.5935   53.9674   29.9557 O   0  0  0  0  0  0
    2.0861   55.8603   29.1858 O   0  0  0  0  0  0
    3.7026   54.7942   27.4419 N   0  0  0  0  0  0
    4.6308   53.7736   26.8965 C   0  0  2  0  0  0
    4.0967   52.8232   26.8900 H   0  0  0  0  0  0
    5.8727   53.6009   27.7988 C   0  0  0  0  0  0
    4.9466   54.0964   25.4210 C   0  0  0  0  0  0
    3.9413   53.9177   24.4624 C   0  0  0  0  0  0
    4.2029   54.0966   23.1085 C   0  0  0  0  0  0
    5.4697   54.4967   22.6882 C   0  0  0  0  0  0
    6.4874   54.6922   23.6340 C   0  0  0  0  0  0
    6.2218   54.4973   24.9908 C   0  0  0  0  0  0
    5.6340   54.6942   21.3057 N   0  0  0  0  0  0
    6.4070   55.6146   20.6976 C   0  0  0  0  0  0
    7.1039   56.4426   21.2818 O   0  0  0  0  0  0
    6.2739   55.5537   19.3608 N   0  0  0  0  0  0
    6.6571   56.5478   18.3440 C   0  0  0  0  0  0
    6.6999   58.0321   18.6623 C   0  0  0  0  0  0
    7.9860   57.2725   18.4262 C   0  0  0  0  0  0
   -2.4515   50.4969   28.4195 H   0  0  0  0  0  0
   -2.6787   51.5311   27.0023 H   0  0  0  0  0  0
   -1.6687   50.0966   26.8838 H   0  0  0  0  0  0
   -0.0647   51.9354   25.8921 H   0  0  0  0  0  0
    1.7985   53.3975   26.4534 H   0  0  0  0  0  0
   -1.1562   51.7194   30.0258 H   0  0  0  0  0  0
   -0.0667   52.9539   31.6776 H   0  0  0  0  0  0
    1.6826   52.8926   31.4412 H   0  0  0  0  0  0
    0.7978   54.3943   31.1601 H   0  0  0  0  0  0
    3.3083   55.4411   26.7557 H   0  0  0  0  0  0
    6.5837   52.9007   27.3589 H   0  0  0  0  0  0
    6.3886   54.5474   27.9655 H   0  0  0  0  0  0
    5.6134   53.1947   28.7745 H   0  0  0  0  0  0
    2.9547   53.5946   24.7465 H   0  0  0  0  0  0
    3.4084   53.9419   22.3915 H   0  0  0  0  0  0
    7.4857   54.9842   23.3294 H   0  0  0  0  0  0
    7.0265   54.6392   25.6949 H   0  0  0  0  0  0
    4.9906   54.1833   20.7209 H   0  0  0  0  0  0
    5.8382   54.7238   18.9874 H   0  0  0  0  0  0
    6.3071   56.2707   17.3483 H   0  0  0  0  0  0
    6.4538   58.3727   19.6669 H   0  0  0  0  0  0
    6.3517   58.7356   17.9037 H   0  0  0  0  0  0
    8.5373   57.4403   17.5006 H   0  0  0  0  0  0
    8.6537   57.0637   19.2628 H   0  0  0  0  0  0
  1  2  1  0  0  0
  1 29  1  0  0  0
  1 30  1  0  0  0
  1 31  1  0  0  0
  2  7  2  0  0  0
  2  3  1  0  0  0
  3  4  2  0  0  0
  3 32  1  0  0  0
  4  5  1  0  0  0
  4 33  1  0  0  0
  5  6  2  0  0  0
  5  9  1  0  0  0
  6  7  1  0  0  0
  6  8  1  0  0  0
  7 34  1  0  0  0
  8 35  1  0  0  0
  8 36  1  0  0  0
  8 37  1  0  0  0
  9 10  2  0  0  0
  9 11  2  0  0  0
  9 12  1  0  0  0
 12 13  1  0  0  0
 12 38  1  0  0  0
 13 14  1  0  0  0
 13 15  1  0  0  0
 13 16  1  0  0  0
 15 39  1  0  0  0
 15 40  1  0  0  0
 15 41  1  0  0  0
 16 21  2  0  0  0
 16 17  1  0  0  0
 17 18  2  0  0  0
 17 42  1  0  0  0
 18 19  1  0  0  0
 18 43  1  0  0  0
 19 20  2  0  0  0
 19 22  1  0  0  0
 20 21  1  0  0  0
 20 44  1  0  0  0
 21 45  1  0  0  0
 22 23  1  0  0  0
 22 46  1  0  0  0
 23 24  2  0  0  0
 23 25  1  0  0  0
 25 26  1  0  0  0
 25 47  1  0  0  0
 26 28  1  0  0  0
 26 27  1  0  0  0
 26 48  1  0  0  0
 27 28  1  0  0  0
 27 49  1  0  0  0
 27 50  1  0  0  0
 28 51  1  0  0  0
 28 52  1  0  0  0
M  END
> <i_i_glide_confnum>
67

> <i_i_glide_lignum>
4599

> <i_i_glide_posenum>
389

> <i_i_glide_rotatable_bonds>
8

> <i_m_Source_File_Index>
942

> <b_m_subgroup_collapsed>
0

> <r_i_docking_score>
-4.58519

> <r_i_glide_ecoul>
-7.92796

> <r_i_glide_eff_state_penalty>
0

> <r_i_glide_einternal>
11.6805

> <r_i_glide_emodel>
-53.5308

> <r_i_glide_energy>
-50.6505

> <r_i_glide_erotb>
0.907871

> <r_i_glide_esite>
-0.0467357

> <r_i_glide_evdw>
-42.7226

> <r_i_glide_gscore>
-4.58519

> <r_i_glide_hbond>
-0.233367

> <r_i_glide_ligand_efficiency>
-0.169822

> <r_i_glide_ligand_efficiency_ln>
-1.06736

> <r_i_glide_ligand_efficiency_sa>
-0.509466

> <r_i_glide_lipo>
-2.5469

> <r_i_glide_metal>
0

> <r_i_glide_rewards>
0.659268

> <s_i_glide_gridfile>
wee1_glide-grid

> <s_m_Source_File>
wee1_decoys_glide_SP.sdf

> <s_m_Source_Path>
/Users/zhangxujun/Desktop

> <s_m_entry_id>
1217

> <s_m_entry_name>
wee1_decoys_glide_SP.942

> <s_m_subgroup_title>
wee1_decoys_glide_SP

> <s_m_subgroupid>
wee1_decoys_glide_SP


$$$$
