ZINC15776462_5581
                    3D
 Schrodinger Suite 2024-2.
 59 63  0  0  1  0            999 V2000
    2.5280   50.7104   20.4967 C   0  0  0  0  0  0
    1.9729   51.1579   21.8369 C   0  0  0  0  0  0
    1.4123   50.2164   22.7015 C   0  0  0  0  0  0
    0.9004   50.6200   23.9304 C   0  0  0  0  0  0
    0.9648   51.9646   24.3160 C   0  0  0  0  0  0
    1.5134   52.9068   23.4370 C   0  0  0  0  0  0
    2.0147   52.5054   22.2014 C   0  0  0  0  0  0
    0.4563   52.3695   25.6422 C   0  0  0  0  0  0
   -0.7767   52.4943   25.9666 N   0  0  0  0  0  0
   -1.7298   52.4933   25.0033 N   0  0  0  0  0  0
   -3.4228   52.2138   25.4037 S   0  0  0  0  0  0
   -3.6342   52.4988   26.8274 O   0  0  0  0  0  0
   -4.2198   52.9048   24.3833 O   0  0  0  0  0  0
   -3.6803   50.4581   25.1941 C   0  0  0  0  0  0
   -3.2957   49.5844   26.2126 C   0  0  0  0  0  0
   -3.5325   48.2197   26.0814 C   0  0  0  0  0  0
   -4.1469   47.7354   24.9282 C   0  0  0  0  0  0
   -4.5273   48.6049   23.9058 C   0  0  0  0  0  0
   -4.2933   49.9711   24.0374 C   0  0  0  0  0  0
    1.5298   52.6534   26.7433 C   0  0  2  0  0  0
    2.0894   51.7323   26.8820 H   0  0  0  0  0  0
    1.0403   52.9971   28.0762 N   0  0  0  0  0  0
    1.1688   54.1679   28.8188 C   0  0  0  0  0  0
    1.7793   55.4115   28.5964 C   0  0  0  0  0  0
    1.7387   56.3395   29.6336 C   0  0  0  0  0  0
    1.1043   56.0676   30.8390 C   0  0  0  0  0  0
    0.4735   54.8409   31.0581 C   0  0  0  0  0  0
    0.5240   53.8807   30.0434 C   0  0  0  0  0  0
    0.0365   52.6133   30.0218 N   0  0  0  0  0  0
    0.3772   52.0729   28.8061 N   0  0  0  0  0  0
    2.3367   53.6567   26.1746 O   0  0  0  0  0  0
    3.6766   53.7823   26.4991 C   0  0  0  0  0  0
    4.2550   53.2964   27.6817 C   0  0  0  0  0  0
    5.5936   53.5590   27.9646 C   0  0  0  0  0  0
    6.3625   54.2867   27.0601 C   0  0  0  0  0  0
    5.8036   54.7606   25.8752 C   0  0  0  0  0  0
    4.4602   54.5122   25.6038 C   0  0  0  0  0  0
    3.5039   50.2409   20.6216 H   0  0  0  0  0  0
    1.8640   49.9817   20.0347 H   0  0  0  0  0  0
    2.6202   51.5418   19.7981 H   0  0  0  0  0  0
    1.3801   49.1727   22.4246 H   0  0  0  0  0  0
    0.4757   49.8756   24.5919 H   0  0  0  0  0  0
    1.5599   53.9536   23.7064 H   0  0  0  0  0  0
    2.4338   53.2413   21.5296 H   0  0  0  0  0  0
   -1.4406   52.2200   24.0617 H   0  0  0  0  0  0
   -2.8198   49.9515   27.1110 H   0  0  0  0  0  0
   -3.2365   47.5502   26.8783 H   0  0  0  0  0  0
   -4.3392   46.6765   24.8307 H   0  0  0  0  0  0
   -5.0102   48.2208   23.0203 H   0  0  0  0  0  0
   -4.6010   50.6458   23.2506 H   0  0  0  0  0  0
    2.2891   55.6543   27.6818 H   0  0  0  0  0  0
    2.2182   57.2961   29.4978 H   0  0  0  0  0  0
    1.1040   56.8203   31.6163 H   0  0  0  0  0  0
   -0.0110   54.6191   31.9993 H   0  0  0  0  0  0
    3.6751   52.7387   28.3991 H   0  0  0  0  0  0
    6.0394   53.2026   28.8817 H   0  0  0  0  0  0
    7.3981   54.4906   27.2891 H   0  0  0  0  0  0
    6.4006   55.3267   25.1755 H   0  0  0  0  0  0
    4.0186   54.8959   24.6947 H   0  0  0  0  0  0
  1  2  1  0  0  0
  1 38  1  0  0  0
  1 39  1  0  0  0
  1 40  1  0  0  0
  2  7  2  0  0  0
  2  3  1  0  0  0
  3  4  2  0  0  0
  3 41  1  0  0  0
  4  5  1  0  0  0
  4 42  1  0  0  0
  5  6  2  0  0  0
  5  8  1  0  0  0
  6  7  1  0  0  0
  6 43  1  0  0  0
  7 44  1  0  0  0
  8  9  2  0  0  0
  8 20  1  0  0  0
  9 10  1  0  0  0
 10 11  1  0  0  0
 10 45  1  0  0  0
 11 12  2  0  0  0
 11 13  2  0  0  0
 11 14  1  0  0  0
 14 19  2  0  0  0
 14 15  1  0  0  0
 15 16  2  0  0  0
 15 46  1  0  0  0
 16 17  1  0  0  0
 16 47  1  0  0  0
 17 18  2  0  0  0
 17 48  1  0  0  0
 18 19  1  0  0  0
 18 49  1  0  0  0
 19 50  1  0  0  0
 20 21  1  0  0  0
 20 22  1  0  0  0
 20 31  1  0  0  0
 22 30  1  0  0  0
 22 23  1  0  0  0
 23 28  2  0  0  0
 23 24  1  0  0  0
 24 25  2  0  0  0
 24 51  1  0  0  0
 25 26  1  0  0  0
 25 52  1  0  0  0
 26 27  2  0  0  0
 26 53  1  0  0  0
 27 28  1  0  0  0
 27 54  1  0  0  0
 28 29  1  0  0  0
 29 30  2  0  0  0
 31 32  1  0  0  0
 32 37  2  0  0  0
 32 33  1  0  0  0
 33 34  2  0  0  0
 33 55  1  0  0  0
 34 35  1  0  0  0
 34 56  1  0  0  0
 35 36  2  0  0  0
 35 57  1  0  0  0
 36 37  1  0  0  0
 36 58  1  0  0  0
 37 59  1  0  0  0
M  END
> <i_i_glide_confnum>
234

> <i_i_glide_lignum>
5582

> <i_i_glide_posenum>
173

> <i_i_glide_rotatable_bonds>
8

> <i_m_Source_File_Index>
2251

> <b_m_subgroup_collapsed>
0

> <r_i_docking_score>
-6.49034

> <r_i_glide_ecoul>
-3.04842

> <r_i_glide_eff_state_penalty>
0

> <r_i_glide_einternal>
10.7252

> <r_i_glide_emodel>
-66.3305

> <r_i_glide_energy>
-50.7229

> <r_i_glide_erotb>
0.576796

> <r_i_glide_esite>
-0.0134676

> <r_i_glide_evdw>
-47.6745

> <r_i_glide_gscore>
-6.49034

> <r_i_glide_hbond>
0

> <r_i_glide_ligand_efficiency>
-0.180287

> <r_i_glide_ligand_efficiency_ln>
-1.41602

> <r_i_glide_ligand_efficiency_sa>
-0.595295

> <r_i_glide_lipo>
-3.72853

> <r_i_glide_metal>
0

> <r_i_glide_rewards>
-0.484149

> <s_i_glide_gridfile>
wee1_glide-grid

> <s_m_Source_File>
wee1_decoys_glide_SP.sdf

> <s_m_Source_Path>
/Users/zhangxujun/Desktop

> <s_m_entry_id>
2526

> <s_m_entry_name>
wee1_decoys_glide_SP.2251

> <s_m_subgroup_title>
wee1_decoys_glide_SP

> <s_m_subgroupid>
wee1_decoys_glide_SP


$$$$
