ZINC39689848_5913
                    3D
 Schrodinger Suite 2024-2.
 59 62  0  0  1  0            999 V2000
    3.5092   52.2963   30.8826 C   0  0  0  0  0  0
    3.4007   53.6049   30.0821 C   0  0  0  0  0  0
    3.2226   53.4006   28.5584 C   0  0  2  0  0  0
    3.9893   52.6872   28.2454 H   0  0  0  0  0  0
    3.4114   54.7313   27.7943 C   0  0  0  0  0  0
    3.4972   54.5037   26.2701 C   0  0  0  0  0  0
    2.3195   53.6330   25.8558 C   0  0  0  0  0  0
    1.5697   52.8383   26.7347 C   0  0  0  0  0  0
    0.6442   52.0394   26.0527 C   0  0  0  0  0  0
    0.6710   52.2059   24.6642 C   0  0  0  0  0  0
    1.8021   53.4478   24.2086 S   0  0  0  0  0  0
   -0.1395   51.5589   23.6627 C   0  0  0  0  0  0
   -0.3755   52.0975   22.5801 O   0  0  0  0  0  0
   -0.5461   50.3275   24.0368 N   0  0  0  0  0  0
   -1.2334   49.3410   23.3085 C   0  0  0  0  0  0
   -1.3615   48.1087   23.9527 C   0  0  0  0  0  0
   -1.9835   47.0455   23.3070 C   0  0  0  0  0  0
   -2.4894   47.2096   22.0153 C   0  0  0  0  0  0
   -2.3926   48.4458   21.3755 C   0  0  0  0  0  0
   -1.7646   49.5115   22.0185 C   0  0  0  0  0  0
   -3.2235   45.8119   21.1617 S   0  0  0  0  0  0
   -3.1600   44.6699   22.0822 O   0  0  0  0  0  0
   -4.5136   46.2539   20.6197 O   0  0  0  0  0  0
   -2.1330   45.4467   19.8124 N   0  0  0  0  0  0
   -2.5427   45.7247   18.4177 C   0  0  0  0  0  0
   -1.8549   44.7128   17.4702 C   0  0  0  0  0  0
   -0.3198   44.6556   17.6826 C   0  0  0  0  0  0
    0.0923   44.5033   19.1780 C   0  0  1  0  0  0
    1.1578   44.6896   19.2820 H   0  0  0  0  0  0
   -0.6758   45.5263   20.0629 C   0  0  0  0  0  0
   -0.0801   43.0531   19.7026 C   0  0  0  0  0  0
    0.2518   42.0967   18.9634 O   0  0  0  0  0  0
   -0.4951   42.8967   20.8734 O   0  5  0  0  0  0
    1.8261   52.7978   28.2404 C   0  0  0  0  0  0
    3.6732   52.4943   31.9426 H   0  0  0  0  0  0
    4.3494   51.6969   30.5303 H   0  0  0  0  0  0
    2.6013   51.6975   30.8012 H   0  0  0  0  0  0
    2.5744   54.1995   30.4746 H   0  0  0  0  0  0
    4.3033   54.1887   30.2646 H   0  0  0  0  0  0
    2.6314   55.4453   28.0673 H   0  0  0  0  0  0
    4.3378   55.2067   28.1164 H   0  0  0  0  0  0
    3.5042   55.4538   25.7379 H   0  0  0  0  0  0
    4.4332   53.9997   26.0245 H   0  0  0  0  0  0
   -0.0085   51.3465   26.5665 H   0  0  0  0  0  0
   -0.2565   50.0313   24.9560 H   0  0  0  0  0  0
   -0.9634   47.9590   24.9486 H   0  0  0  0  0  0
   -2.0537   46.0972   23.8142 H   0  0  0  0  0  0
   -2.7851   48.5745   20.3757 H   0  0  0  0  0  0
   -1.6907   50.4485   21.4898 H   0  0  0  0  0  0
   -3.6281   45.6817   18.3288 H   0  0  0  0  0  0
   -2.1957   46.7235   18.1496 H   0  0  0  0  0  0
   -2.2830   43.7219   17.6297 H   0  0  0  0  0  0
   -2.0752   44.9697   16.4339 H   0  0  0  0  0  0
    0.1499   43.9045   17.0453 H   0  0  0  0  0  0
    0.0576   45.6175   17.3352 H   0  0  0  0  0  0
   -0.3486   46.5251   19.7721 H   0  0  0  0  0  0
   -0.4957   45.3945   21.1287 H   0  0  0  0  0  0
    1.7590   51.7717   28.6054 H   0  0  0  0  0  0
    1.0394   53.3579   28.7483 H   0  0  0  0  0  0
  1  2  1  0  0  0
  1 35  1  0  0  0
  1 36  1  0  0  0
  1 37  1  0  0  0
  2  3  1  0  0  0
  2 38  1  0  0  0
  2 39  1  0  0  0
  3  4  1  0  0  0
  3 34  1  0  0  0
  3  5  1  0  0  0
  5  6  1  0  0  0
  5 40  1  0  0  0
  5 41  1  0  0  0
  6  7  1  0  0  0
  6 42  1  0  0  0
  6 43  1  0  0  0
  7 11  1  0  0  0
  7  8  2  0  0  0
  8  9  1  0  0  0
  8 34  1  0  0  0
  9 10  2  0  0  0
  9 44  1  0  0  0
 10 11  1  0  0  0
 10 12  1  0  0  0
 12 13  2  0  0  0
 12 14  1  0  0  0
 14 15  1  0  0  0
 14 45  1  0  0  0
 15 20  2  0  0  0
 15 16  1  0  0  0
 16 17  2  0  0  0
 16 46  1  0  0  0
 17 18  1  0  0  0
 17 47  1  0  0  0
 18 19  2  0  0  0
 18 21  1  0  0  0
 19 20  1  0  0  0
 19 48  1  0  0  0
 20 49  1  0  0  0
 21 22  2  0  0  0
 21 23  2  0  0  0
 21 24  1  0  0  0
 24 30  1  0  0  0
 24 25  1  0  0  0
 25 26  1  0  0  0
 25 50  1  0  0  0
 25 51  1  0  0  0
 26 27  1  0  0  0
 26 52  1  0  0  0
 26 53  1  0  0  0
 27 28  1  0  0  0
 27 54  1  0  0  0
 27 55  1  0  0  0
 28 29  1  0  0  0
 28 30  1  0  0  0
 28 31  1  0  0  0
 30 56  1  0  0  0
 30 57  1  0  0  0
 31 32  2  0  0  0
 31 33  1  0  0  0
 34 58  1  0  0  0
 34 59  1  0  0  0
M  CHG  1  33  -1
M  END
> <i_i_glide_confnum>
164

> <i_i_glide_lignum>
5914

> <i_i_glide_posenum>
252

> <i_i_glide_rotatable_bonds>
7

> <i_m_Source_File_Index>
4111

> <b_m_subgroup_collapsed>
0

> <r_i_docking_score>
-3.93562

> <r_i_glide_ecoul>
-9.45178

> <r_i_glide_eff_state_penalty>
0

> <r_i_glide_einternal>
13.0759

> <r_i_glide_emodel>
-43.5086

> <r_i_glide_energy>
-38.9376

> <r_i_glide_erotb>
0.447475

> <r_i_glide_esite>
-0.150979

> <r_i_glide_evdw>
-29.4858

> <r_i_glide_gscore>
-3.93562

> <r_i_glide_hbond>
-0.4

> <r_i_glide_ligand_efficiency>
-0.122988

> <r_i_glide_ligand_efficiency_ln>
-0.881292

> <r_i_glide_ligand_efficiency_sa>
-0.390463

> <r_i_glide_lipo>
-1.69297

> <r_i_glide_metal>
0

> <r_i_glide_rewards>
0.752914

> <s_i_glide_gridfile>
wee1_glide-grid

> <s_m_Source_File>
wee1_decoys_glide_SP.sdf

> <s_m_Source_Path>
/Users/zhangxujun/Desktop

> <s_m_entry_id>
4386

> <s_m_entry_name>
wee1_decoys_glide_SP.4111

> <s_m_subgroup_title>
wee1_decoys_glide_SP

> <s_m_subgroupid>
wee1_decoys_glide_SP


$$$$
