ZINC20799769_1430
                    3D
 Schrodinger Suite 2024-2.
 49 51  0  0  1  0            999 V2000
    3.5722   52.2806   21.7398 C   0  0  0  0  0  0
    4.4603   53.1873   20.8987 C   0  0  0  0  0  0
    4.3431   53.1024   19.5103 C   0  0  0  0  0  0
    5.1114   53.9124   18.6804 C   0  0  0  0  0  0
    6.0112   54.8309   19.2177 C   0  0  0  0  0  0
    6.1379   54.9100   20.6119 C   0  0  0  0  0  0
    5.3742   54.0952   21.4702 C   0  0  0  0  0  0
    5.4913   54.1152   22.8812 N   0  0  0  0  0  0
    6.2748   54.8816   23.6868 C   0  0  0  0  0  0
    7.1038   55.6963   23.2893 O   0  0  0  0  0  0
    6.0782   54.6817   25.1535 C   0  0  0  0  0  0
    7.0018   54.8953   25.9452 O   0  0  0  0  0  0
    4.8222   54.3197   25.5247 N   0  0  0  0  0  0
    4.3758   53.9276   26.7994 C   0  0  0  0  0  0
    5.2241   53.3699   27.7612 C   0  0  0  0  0  0
    4.7041   52.9331   28.9727 C   0  0  0  0  0  0
    3.3393   53.0531   29.2561 C   0  0  0  0  0  0
    2.4984   53.6087   28.2926 C   0  0  0  0  0  0
    3.0097   54.0359   27.0677 C   0  0  0  0  0  0
    2.7598   52.6417   30.4434 O   0  0  0  0  0  0
    3.5886   52.1211   31.4816 C   0  0  0  0  0  0
    6.7778   55.6077   18.3224 N   0  0  0  0  0  0
    7.3794   56.8669   18.7522 C   0  0  0  0  0  0
    8.8284   56.5877   19.2205 C   0  0  0  0  0  0
    9.3335   55.2842   18.5735 C   0  0  0  0  0  0
    8.0210   54.8309   17.3213 S   0  0  0  0  0  0
    7.8606   53.3743   17.2577 O   0  0  0  0  0  0
    8.3121   55.6201   16.1209 O   0  0  0  0  0  0
    3.1680   52.8068   22.6045 H   0  0  0  0  0  0
    2.7103   51.9277   21.1723 H   0  0  0  0  0  0
    4.1382   51.4136   22.0805 H   0  0  0  0  0  0
    3.6649   52.3925   19.0581 H   0  0  0  0  0  0
    5.0107   53.8069   17.6102 H   0  0  0  0  0  0
    6.8586   55.5994   21.0114 H   0  0  0  0  0  0
    4.8955   53.4423   23.3362 H   0  0  0  0  0  0
    4.1052   54.3383   24.8175 H   0  0  0  0  0  0
    6.2784   53.2300   27.5762 H   0  0  0  0  0  0
    5.3841   52.4944   29.6800 H   0  0  0  0  0  0
    1.4403   53.6958   28.4943 H   0  0  0  0  0  0
    2.3322   54.4424   26.3328 H   0  0  0  0  0  0
    2.9621   51.7582   32.2971 H   0  0  0  0  0  0
    4.2078   51.2960   31.1411 H   0  0  0  0  0  0
    4.2479   52.8959   31.8823 H   0  0  0  0  0  0
    6.8228   57.2759   19.5951 H   0  0  0  0  0  0
    7.2964   57.6582   18.0044 H   0  0  0  0  0  0
    9.4714   57.4364   18.9746 H   0  0  0  0  0  0
    8.8788   56.4958   20.3074 H   0  0  0  0  0  0
   10.2868   55.4082   18.0644 H   0  0  0  0  0  0
    9.4251   54.4667   19.2823 H   0  0  0  0  0  0
  1  2  1  0  0  0
  1 29  1  0  0  0
  1 30  1  0  0  0
  1 31  1  0  0  0
  2  7  2  0  0  0
  2  3  1  0  0  0
  3  4  2  0  0  0
  3 32  1  0  0  0
  4  5  1  0  0  0
  4 33  1  0  0  0
  5  6  2  0  0  0
  5 22  1  0  0  0
  6  7  1  0  0  0
  6 34  1  0  0  0
  7  8  1  0  0  0
  8  9  1  0  0  0
  8 35  1  0  0  0
  9 10  2  0  0  0
  9 11  1  0  0  0
 11 12  2  0  0  0
 11 13  1  0  0  0
 13 14  1  0  0  0
 13 36  1  0  0  0
 14 19  2  0  0  0
 14 15  1  0  0  0
 15 16  2  0  0  0
 15 37  1  0  0  0
 16 17  1  0  0  0
 16 38  1  0  0  0
 17 18  2  0  0  0
 17 20  1  0  0  0
 18 19  1  0  0  0
 18 39  1  0  0  0
 19 40  1  0  0  0
 20 21  1  0  0  0
 21 41  1  0  0  0
 21 42  1  0  0  0
 21 43  1  0  0  0
 22 26  1  0  0  0
 22 23  1  0  0  0
 23 24  1  0  0  0
 23 44  1  0  0  0
 23 45  1  0  0  0
 24 25  1  0  0  0
 24 46  1  0  0  0
 24 47  1  0  0  0
 25 26  1  0  0  0
 25 48  1  0  0  0
 25 49  1  0  0  0
 26 27  2  0  0  0
 26 28  2  0  0  0
M  END
> <i_i_glide_confnum>
267

> <i_i_glide_lignum>
1431

> <i_i_glide_posenum>
341

> <i_i_glide_rotatable_bonds>
7

> <i_m_Source_File_Index>
3858

> <b_m_subgroup_collapsed>
0

> <r_i_docking_score>
-5.66786

> <r_i_glide_ecoul>
-2.33171

> <r_i_glide_eff_state_penalty>
0

> <r_i_glide_einternal>
3.67011

> <r_i_glide_emodel>
-59.6651

> <r_i_glide_energy>
-43.9461

> <r_i_glide_erotb>
0.723711

> <r_i_glide_esite>
0

> <r_i_glide_evdw>
-41.6144

> <r_i_glide_gscore>
-5.66786

> <r_i_glide_hbond>
-0.420229

> <r_i_glide_ligand_efficiency>
-0.202424

> <r_i_glide_ligand_efficiency_ln>
-1.30831

> <r_i_glide_ligand_efficiency_sa>
-0.614677

> <r_i_glide_lipo>
-1.93434

> <r_i_glide_metal>
0

> <r_i_glide_rewards>
-1.60653

> <s_i_glide_gridfile>
wee1_glide-grid

> <s_m_Source_File>
wee1_decoys_glide_SP.sdf

> <s_m_Source_Path>
/Users/zhangxujun/Desktop

> <s_m_entry_id>
4133

> <s_m_entry_name>
wee1_decoys_glide_SP.3858

> <s_m_subgroup_title>
wee1_decoys_glide_SP

> <s_m_subgroupid>
wee1_decoys_glide_SP


$$$$
