ZINC38547548_2199
                    3D
 Schrodinger Suite 2024-2.
 58 61  0  0  1  0            999 V2000
    5.5820   54.5249   18.6809 C   0  0  0  0  0  0
    4.7965   53.8426   19.7816 C   0  0  0  0  0  0
    4.8626   54.2418   21.1182 C   0  0  0  0  0  0
    4.1140   53.5523   22.0752 C   0  0  0  0  0  0
    3.3189   52.4718   21.6821 C   0  0  0  0  0  0
    3.2735   52.0991   20.3326 C   0  0  0  0  0  0
    4.0109   52.7987   19.4473 N   0  3  0  0  0  0
    2.5042   51.0138   19.8322 N   0  0  0  0  0  0
    1.7809   50.0170   20.6509 C   0  0  2  0  0  0
    2.5512   49.6815   21.3454 H   0  0  0  0  0  0
    1.3949   48.7806   19.8059 C   0  0  0  0  0  0
    2.2065   48.3807   18.7395 C   0  0  0  0  0  0
    1.8684   47.2965   17.9411 C   0  0  0  0  0  0
    0.7141   46.5524   18.2144 C   0  0  0  0  0  0
   -0.0856   46.9226   19.2938 C   0  0  0  0  0  0
    0.2464   48.0230   20.0819 C   0  0  0  0  0  0
    0.3004   45.4573   17.4807 O   0  0  0  0  0  0
    1.0337   45.0895   16.3163 C   0  0  0  0  0  0
    0.5904   50.5973   21.4317 C   0  0  0  0  0  0
    0.4167   50.4763   22.8346 C   0  0  0  0  0  0
   -0.7807   51.0313   23.3018 C   0  0  0  0  0  0
   -1.6955   51.7044   21.9997 S   0  0  0  0  0  0
   -0.4753   51.2759   20.8413 C   0  0  0  0  0  0
   -0.5744   51.5391   19.4790 N   0  0  0  0  0  0
   -1.5938   52.0962   18.7967 C   0  0  0  0  0  0
   -2.6535   52.4966   19.2809 O   0  0  0  0  0  0
   -1.3218   52.2293   17.3916 C   0  0  0  0  0  0
   -0.4606   51.5421   16.5357 C   0  0  0  0  0  0
   -0.6698   52.0533   15.2553 C   0  0  0  0  0  0
   -1.6721   53.0002   15.3728 C   0  0  0  0  0  0
   -2.0820   53.0910   16.6645 O   0  0  0  0  0  0
   -1.3310   51.0866   24.7109 C   0  0  0  0  0  0
    1.3761   49.7337   23.7389 C   0  0  0  0  0  0
    6.1996   55.3344   19.0722 H   0  0  0  0  0  0
    6.2409   53.8102   18.1845 H   0  0  0  0  0  0
    4.9054   54.9466   17.9355 H   0  0  0  0  0  0
    5.4848   55.0724   21.4181 H   0  0  0  0  0  0
    4.1505   53.8516   23.1111 H   0  0  0  0  0  0
    2.7410   51.9454   22.4236 H   0  0  0  0  0  0
    2.4869   50.8678   18.8323 H   0  0  0  0  0  0
    3.1044   48.9218   18.4899 H   0  0  0  0  0  0
    2.5238   47.0556   17.1179 H   0  0  0  0  0  0
   -0.9780   46.3568   19.5143 H   0  0  0  0  0  0
   -0.4067   48.2759   20.9040 H   0  0  0  0  0  0
    0.5555   44.2308   15.8458 H   0  0  0  0  0  0
    1.0540   45.8966   15.5813 H   0  0  0  0  0  0
    2.0579   44.8035   16.5575 H   0  0  0  0  0  0
    0.2206   51.2474   18.9306 H   0  0  0  0  0  0
    0.2383   50.7641   16.8040 H   0  0  0  0  0  0
   -0.1620   51.7580   14.3490 H   0  0  0  0  0  0
   -2.1720   53.6449   14.6661 H   0  0  0  0  0  0
   -0.5489   50.9990   25.4672 H   0  0  0  0  0  0
   -1.8533   52.0253   24.9103 H   0  0  0  0  0  0
   -2.0412   50.2790   24.8971 H   0  0  0  0  0  0
    1.8323   48.8965   23.2210 H   0  0  0  0  0  0
    2.1871   50.3716   24.0808 H   0  0  0  0  0  0
    0.8915   49.2982   24.6134 H   0  0  0  0  0  0
    4.0228   52.4840   18.4870 H   0  0  0  0  0  0
  1  2  1  0  0  0
  1 34  1  0  0  0
  1 35  1  0  0  0
  1 36  1  0  0  0
  2  7  2  0  0  0
  2  3  1  0  0  0
  3  4  2  0  0  0
  3 37  1  0  0  0
  4  5  1  0  0  0
  4 38  1  0  0  0
  5  6  2  0  0  0
  5 39  1  0  0  0
  6  7  1  0  0  0
  6  8  1  0  0  0
  7 58  1  0  0  0
  8  9  1  0  0  0
  8 40  1  0  0  0
  9 10  1  0  0  0
  9 11  1  0  0  0
  9 19  1  0  0  0
 11 16  2  0  0  0
 11 12  1  0  0  0
 12 13  2  0  0  0
 12 41  1  0  0  0
 13 14  1  0  0  0
 13 42  1  0  0  0
 14 15  2  0  0  0
 14 17  1  0  0  0
 15 16  1  0  0  0
 15 43  1  0  0  0
 16 44  1  0  0  0
 17 18  1  0  0  0
 18 45  1  0  0  0
 18 46  1  0  0  0
 18 47  1  0  0  0
 19 23  2  0  0  0
 19 20  1  0  0  0
 20 21  2  0  0  0
 20 33  1  0  0  0
 21 22  1  0  0  0
 21 32  1  0  0  0
 22 23  1  0  0  0
 23 24  1  0  0  0
 24 25  1  0  0  0
 24 48  1  0  0  0
 25 26  2  0  0  0
 25 27  1  0  0  0
 27 31  1  0  0  0
 27 28  2  0  0  0
 28 29  1  0  0  0
 28 49  1  0  0  0
 29 30  2  0  0  0
 29 50  1  0  0  0
 30 31  1  0  0  0
 30 51  1  0  0  0
 32 52  1  0  0  0
 32 53  1  0  0  0
 32 54  1  0  0  0
 33 55  1  0  0  0
 33 56  1  0  0  0
 33 57  1  0  0  0
M  CHG  1   7   1
M  END
> <i_i_glide_confnum>
197

> <i_i_glide_lignum>
2200

> <i_i_glide_posenum>
195

> <i_i_glide_rotatable_bonds>
8

> <i_m_Source_File_Index>
4796

> <b_m_subgroup_collapsed>
0

> <r_i_docking_score>
-2.73122

> <r_i_glide_ecoul>
-6.71463

> <r_i_glide_eff_state_penalty>
0

> <r_i_glide_einternal>
6.10979

> <r_i_glide_emodel>
-36.6486

> <r_i_glide_energy>
-32.5052

> <r_i_glide_erotb>
0.696984

> <r_i_glide_esite>
-0.125271

> <r_i_glide_evdw>
-25.7905

> <r_i_glide_gscore>
-2.73122

> <r_i_glide_hbond>
-0.32

> <r_i_glide_ligand_efficiency>
-0.0853506

> <r_i_glide_ligand_efficiency_ln>
-0.611594

> <r_i_glide_ligand_efficiency_sa>
-0.270971

> <r_i_glide_lipo>
-0.335545

> <r_i_glide_metal>
0

> <r_i_glide_rewards>
-0.350665

> <s_i_glide_gridfile>
wee1_glide-grid

> <s_m_Source_File>
wee1_decoys_glide_SP.sdf

> <s_m_Source_Path>
/Users/zhangxujun/Desktop

> <s_m_entry_id>
5071

> <s_m_entry_name>
wee1_decoys_glide_SP.4796

> <s_m_subgroup_title>
wee1_decoys_glide_SP

> <s_m_subgroupid>
wee1_decoys_glide_SP


$$$$
