ZINC39733515_4646
                    3D
 Schrodinger Suite 2024-2.
 65 69  0  0  1  0            999 V2000
    6.6193   55.1344   23.0459 C   0  0  0  0  0  0
    6.0278   55.1274   21.6198 C   0  0  0  0  0  0
    4.7566   54.4854   21.5018 O   0  0  0  0  0  0
    4.6124   53.1557   21.6887 C   0  0  0  0  0  0
    5.5028   52.3981   22.0802 O   0  0  0  0  0  0
    3.2070   52.6316   21.3118 C   0  0  1  0  0  0
    2.7360   53.4136   20.7123 H   0  0  0  0  0  0
    3.2972   51.3277   20.4728 C   0  0  1  0  0  0
    4.2945   50.8866   20.5327 H   0  0  0  0  0  0
    2.3045   50.0524   21.2645 S   0  0  0  0  0  0
    1.7965   51.1242   22.5836 C   0  0  0  0  0  0
    2.2764   52.3894   22.5040 C   0  0  0  0  0  0
    1.9581   53.5411   23.4631 C   0  0  0  0  0  0
    1.6558   53.1488   24.9203 C   0  0  0  0  0  0
    0.2804   52.5070   25.1917 C   0  0  0  0  0  0
   -0.2277   51.4983   24.1495 C   0  0  0  0  0  0
    0.8226   50.5272   23.5910 C   0  0  0  0  0  0
    3.0455   51.5697   19.0517 N   0  0  0  0  0  0
    1.8948   51.9985   18.4937 C   0  0  0  0  0  0
    0.8698   52.1614   19.1549 O   0  0  0  0  0  0
    1.9190   52.4033   16.9984 C   0  0  1  0  0  0
    1.9536   53.4904   17.0585 H   0  0  0  0  0  0
    3.1659   51.9632   16.2019 C   0  0  0  0  0  0
    0.4213   51.9644   16.0342 S   0  0  0  0  0  0
   -0.7144   53.1361   16.6850 C   0  0  0  0  0  0
   -1.6964   52.7748   17.4786 N   0  0  0  0  0  0
   -2.3912   53.9140   17.8628 N   0  0  0  0  0  0
   -1.7896   54.9178   17.2818 C   0  0  0  0  0  0
   -0.7498   54.5041   16.4629 N   0  0  0  0  0  0
   -0.0148   55.4490   15.6852 C   0  0  0  0  0  0
   -0.3661   56.7660   15.8484 C   0  0  0  0  0  0
   -1.4412   57.1722   16.7737 C   0  0  0  0  0  0
   -1.6901   58.3705   16.8772 O   0  0  0  0  0  0
   -2.0955   56.2289   17.4299 N   0  5  0  0  0  0
    0.3370   57.8893   15.0592 C   0  0  0  0  0  0
    1.0362   57.3643   13.7927 C   0  0  0  0  0  0
    1.8880   56.1344   14.1131 C   0  0  0  0  0  0
    1.0405   54.9806   14.6749 C   0  0  0  0  0  0
    7.5030   55.7704   23.0908 H   0  0  0  0  0  0
    5.9059   55.5041   23.7807 H   0  0  0  0  0  0
    6.9259   54.1371   23.3614 H   0  0  0  0  0  0
    6.7363   54.6754   20.9256 H   0  0  0  0  0  0
    5.9009   56.1563   21.2822 H   0  0  0  0  0  0
    1.1629   54.1584   23.0469 H   0  0  0  0  0  0
    2.8337   54.1872   23.4945 H   0  0  0  0  0  0
    2.4442   52.4839   25.2703 H   0  0  0  0  0  0
    1.7448   54.0370   25.5484 H   0  0  0  0  0  0
    0.3053   52.0293   26.1713 H   0  0  0  0  0  0
   -0.4680   53.2906   25.2702 H   0  0  0  0  0  0
   -1.0428   50.9246   24.5907 H   0  0  0  0  0  0
   -0.6817   52.0406   23.3179 H   0  0  0  0  0  0
    1.3633   50.0002   24.3763 H   0  0  0  0  0  0
    0.2662   49.7607   23.0524 H   0  0  0  0  0  0
    3.7854   51.2501   18.4312 H   0  0  0  0  0  0
    4.1065   52.1513   16.7233 H   0  0  0  0  0  0
    3.1044   50.8975   15.9709 H   0  0  0  0  0  0
    3.2306   52.4852   15.2476 H   0  0  0  0  0  0
   -0.3490   58.6902   14.7827 H   0  0  0  0  0  0
    1.0738   58.3589   15.7122 H   0  0  0  0  0  0
    0.2939   57.1130   13.0359 H   0  0  0  0  0  0
    1.6568   58.1502   13.3615 H   0  0  0  0  0  0
    2.4223   55.8051   13.2224 H   0  0  0  0  0  0
    2.6555   56.4112   14.8358 H   0  0  0  0  0  0
    1.7236   54.2553   15.0980 H   0  0  0  0  0  0
    0.5324   54.4628   13.8620 H   0  0  0  0  0  0
  1  2  1  0  0  0
  1 39  1  0  0  0
  1 40  1  0  0  0
  1 41  1  0  0  0
  2  3  1  0  0  0
  2 42  1  0  0  0
  2 43  1  0  0  0
  3  4  1  0  0  0
  4  5  2  0  0  0
  4  6  1  0  0  0
  6  7  1  0  0  0
  6 12  1  0  0  0
  6  8  1  0  0  0
  8  9  1  0  0  0
  8 10  1  0  0  0
  8 18  1  0  0  0
 10 11  1  0  0  0
 11 17  1  0  0  0
 11 12  2  0  0  0
 12 13  1  0  0  0
 13 14  1  0  0  0
 13 44  1  0  0  0
 13 45  1  0  0  0
 14 15  1  0  0  0
 14 46  1  0  0  0
 14 47  1  0  0  0
 15 16  1  0  0  0
 15 48  1  0  0  0
 15 49  1  0  0  0
 16 17  1  0  0  0
 16 50  1  0  0  0
 16 51  1  0  0  0
 17 52  1  0  0  0
 17 53  1  0  0  0
 18 19  1  0  0  0
 18 54  1  0  0  0
 19 20  2  0  0  0
 19 21  1  0  0  0
 21 22  1  0  0  0
 21 23  1  0  0  0
 21 24  1  0  0  0
 23 55  1  0  0  0
 23 56  1  0  0  0
 23 57  1  0  0  0
 24 25  1  0  0  0
 25 29  1  0  0  0
 25 26  2  0  0  0
 26 27  1  0  0  0
 27 28  2  0  0  0
 28 34  1  0  0  0
 28 29  1  0  0  0
 29 30  1  0  0  0
 30 38  1  0  0  0
 30 31  2  0  0  0
 31 32  1  0  0  0
 31 35  1  0  0  0
 32 33  2  0  0  0
 32 34  1  0  0  0
 35 36  1  0  0  0
 35 58  1  0  0  0
 35 59  1  0  0  0
 36 37  1  0  0  0
 36 60  1  0  0  0
 36 61  1  0  0  0
 37 38  1  0  0  0
 37 62  1  0  0  0
 37 63  1  0  0  0
 38 64  1  0  0  0
 38 65  1  0  0  0
M  CHG  1  34  -1
M  END
> <i_i_glide_confnum>
196

> <i_i_glide_lignum>
4647

> <i_i_glide_posenum>
230

> <i_i_glide_rotatable_bonds>
8

> <i_m_Source_File_Index>
3655

> <b_m_subgroup_collapsed>
0

> <r_i_docking_score>
-4.21211

> <r_i_glide_ecoul>
-6.52694

> <r_i_glide_eff_state_penalty>
0

> <r_i_glide_einternal>
6.05641

> <r_i_glide_emodel>
-49.4851

> <r_i_glide_energy>
-38.1955

> <r_i_glide_erotb>
0.461392

> <r_i_glide_esite>
-0.217592

> <r_i_glide_evdw>
-31.6685

> <r_i_glide_gscore>
-4.21211

> <r_i_glide_hbond>
-0.280482

> <r_i_glide_ligand_efficiency>
-0.120346

> <r_i_glide_ligand_efficiency_ln>
-0.924651

> <r_i_glide_ligand_efficiency_sa>
-0.393659

> <r_i_glide_lipo>
-1.41484

> <r_i_glide_metal>
0

> <r_i_glide_rewards>
-0.198117

> <s_i_glide_gridfile>
wee1_glide-grid

> <s_m_Source_File>
wee1_decoys_glide_SP.sdf

> <s_m_Source_Path>
/Users/zhangxujun/Desktop

> <s_m_entry_id>
3930

> <s_m_entry_name>
wee1_decoys_glide_SP.3655

> <s_m_subgroup_title>
wee1_decoys_glide_SP

> <s_m_subgroupid>
wee1_decoys_glide_SP


$$$$
