ZINC00670445_2232
                    3D
 Schrodinger Suite 2024-2.
 53 55  0  0  1  0            999 V2000
    2.3037   50.9964   17.9751 C   0  0  0  0  0  0
    1.3528   51.3310   19.1144 C   0  0  0  0  0  0
    0.4153   52.0993   18.9002 O   0  0  0  0  0  0
    1.6021   50.7100   20.2884 N   0  0  0  0  0  0
    0.9303   50.8513   21.5188 C   0  0  0  0  0  0
    0.0812   51.9274   21.8166 C   0  0  0  0  0  0
   -0.5366   52.0099   23.0575 C   0  0  0  0  0  0
   -0.2980   51.0275   24.0179 C   0  0  0  0  0  0
    0.5493   49.9532   23.7368 C   0  0  0  0  0  0
    1.1681   49.8715   22.4898 C   0  0  0  0  0  0
   -1.0360   51.1955   25.6391 S   0  0  0  0  0  0
   -1.7100   52.4962   25.6965 O   0  0  0  0  0  0
   -1.7717   49.9565   25.8954 O   0  0  0  0  0  0
    0.3036   51.2603   26.8010 N   0  0  0  0  0  0
    1.2289   52.2815   26.8901 C   0  0  0  0  0  0
    1.8473   52.8122   28.0377 C   0  0  0  0  0  0
    2.8263   53.7893   27.6829 C   0  0  0  0  0  0
    2.9824   53.9345   26.2993 C   0  0  0  0  0  0
    1.8618   52.9579   25.4329 S   0  0  0  0  0  0
    3.9399   54.8222   25.5373 C   0  0  0  0  0  0
    5.3155   54.1750   25.3055 C   0  0  0  0  0  0
    6.0001   53.5916   26.5591 C   0  0  0  0  0  0
    6.0969   54.5394   27.7701 C   0  0  0  0  0  0
    5.0811   54.2728   28.9061 C   0  0  0  0  0  0
    3.6040   54.6602   28.6719 C   0  0  0  0  0  0
    1.5275   52.4458   29.4202 C   0  0  0  0  0  0
    2.3727   52.3357   30.3131 O   0  0  0  0  0  0
    0.1970   52.2984   29.5839 O   0  0  0  0  0  0
   -0.3629   52.1717   30.8817 C   0  0  0  0  0  0
    3.1360   51.6993   17.9486 H   0  0  0  0  0  0
    1.7862   51.0437   17.0165 H   0  0  0  0  0  0
    2.7008   49.9891   18.0846 H   0  0  0  0  0  0
    2.3389   50.0222   20.2758 H   0  0  0  0  0  0
   -0.0941   52.7247   21.1136 H   0  0  0  0  0  0
   -1.1782   52.8510   23.2756 H   0  0  0  0  0  0
    0.7441   49.1996   24.4868 H   0  0  0  0  0  0
    1.8326   49.0432   22.2899 H   0  0  0  0  0  0
    0.1612   50.6065   27.5591 H   0  0  0  0  0  0
    3.5177   55.1147   24.5756 H   0  0  0  0  0  0
    4.0872   55.7488   26.0801 H   0  0  0  0  0  0
    5.2165   53.3858   24.5589 H   0  0  0  0  0  0
    5.9760   54.9179   24.8547 H   0  0  0  0  0  0
    5.5070   52.6663   26.8612 H   0  0  0  0  0  0
    7.0099   53.2954   26.2712 H   0  0  0  0  0  0
    7.0933   54.4126   28.1962 H   0  0  0  0  0  0
    6.0617   55.5817   27.4556 H   0  0  0  0  0  0
    5.1387   53.2305   29.2267 H   0  0  0  0  0  0
    5.4220   54.8601   29.7580 H   0  0  0  0  0  0
    3.5478   55.6967   28.3577 H   0  0  0  0  0  0
    3.1028   54.6884   29.6394 H   0  0  0  0  0  0
   -1.2853   51.5890   30.8405 H   0  0  0  0  0  0
    0.3076   51.6966   31.5972 H   0  0  0  0  0  0
   -0.5976   53.1596   31.2769 H   0  0  0  0  0  0
  1  2  1  0  0  0
  1 30  1  0  0  0
  1 31  1  0  0  0
  1 32  1  0  0  0
  2  3  2  0  0  0
  2  4  1  0  0  0
  4  5  1  0  0  0
  4 33  1  0  0  0
  5 10  2  0  0  0
  5  6  1  0  0  0
  6  7  2  0  0  0
  6 34  1  0  0  0
  7  8  1  0  0  0
  7 35  1  0  0  0
  8  9  2  0  0  0
  8 11  1  0  0  0
  9 10  1  0  0  0
  9 36  1  0  0  0
 10 37  1  0  0  0
 11 12  2  0  0  0
 11 13  2  0  0  0
 11 14  1  0  0  0
 14 15  1  0  0  0
 14 38  1  0  0  0
 15 19  1  0  0  0
 15 16  2  0  0  0
 16 17  1  0  0  0
 16 26  1  0  0  0
 17 25  1  0  0  0
 17 18  2  0  0  0
 18 19  1  0  0  0
 18 20  1  0  0  0
 20 21  1  0  0  0
 20 39  1  0  0  0
 20 40  1  0  0  0
 21 22  1  0  0  0
 21 41  1  0  0  0
 21 42  1  0  0  0
 22 23  1  0  0  0
 22 43  1  0  0  0
 22 44  1  0  0  0
 23 24  1  0  0  0
 23 45  1  0  0  0
 23 46  1  0  0  0
 24 25  1  0  0  0
 24 47  1  0  0  0
 24 48  1  0  0  0
 25 49  1  0  0  0
 25 50  1  0  0  0
 26 27  2  0  0  0
 26 28  1  0  0  0
 28 29  1  0  0  0
 29 51  1  0  0  0
 29 52  1  0  0  0
 29 53  1  0  0  0
M  END
> <i_i_glide_confnum>
197

> <i_i_glide_lignum>
2233

> <i_i_glide_posenum>
351

> <i_i_glide_rotatable_bonds>
7

> <i_m_Source_File_Index>
3289

> <b_m_subgroup_collapsed>
0

> <r_i_docking_score>
-4.61633

> <r_i_glide_ecoul>
-3.32242

> <r_i_glide_eff_state_penalty>
0

> <r_i_glide_einternal>
6.63072

> <r_i_glide_emodel>
-49.6148

> <r_i_glide_energy>
-43.5304

> <r_i_glide_erotb>
0.522995

> <r_i_glide_esite>
-0.174748

> <r_i_glide_evdw>
-40.208

> <r_i_glide_gscore>
-4.61633

> <r_i_glide_hbond>
-0.133491

> <r_i_glide_ligand_efficiency>
-0.159184

> <r_i_glide_ligand_efficiency_ln>
-1.05702

> <r_i_glide_ligand_efficiency_sa>
-0.489063

> <r_i_glide_lipo>
-2.4989

> <r_i_glide_metal>
0

> <r_i_glide_rewards>
0.176576

> <s_i_glide_gridfile>
wee1_glide-grid

> <s_m_Source_File>
wee1_decoys_glide_SP.sdf

> <s_m_Source_Path>
/Users/zhangxujun/Desktop

> <s_m_entry_id>
3564

> <s_m_entry_name>
wee1_decoys_glide_SP.3289

> <s_m_subgroup_title>
wee1_decoys_glide_SP

> <s_m_subgroupid>
wee1_decoys_glide_SP


$$$$
