ZINC04002382_103
                    3D
 Schrodinger Suite 2024-2.
 52 56  0  0  1  0            999 V2000
    2.8462   56.6800   15.5399 C   0  0  0  0  0  0
    2.1480   56.0923   16.5872 C   0  0  0  0  0  0
    2.7046   55.0119   17.2659 C   0  0  0  0  0  0
    3.9653   54.5019   16.9299 C   0  0  0  0  0  0
    4.6664   55.0964   15.8546 C   0  0  0  0  0  0
    4.0915   56.1779   15.1755 C   0  0  0  0  0  0
    6.0389   54.5812   15.4422 C   0  0  0  0  0  0
    6.1923   53.0852   15.7450 C   0  0  0  0  0  0
    4.5200   53.2953   17.7177 C   0  0  2  0  0  0
    3.9338   52.4279   17.4059 H   0  0  0  0  0  0
    4.5805   53.4516   19.2514 C   0  0  0  0  0  0
    4.0464   51.0125   18.9525 H   0  0  0  0  0  0
    5.3452   54.6114   19.7531 C   0  0  0  0  0  0
    5.9788   55.3563   19.0069 O   0  0  0  0  0  0
    5.5105   54.7670   21.2629 C   0  0  0  0  0  0
    4.4433   54.0724   22.1453 C   0  0  1  0  0  0
    3.5836   54.7419   22.0868 H   0  0  0  0  0  0
    3.9694   52.6611   21.6359 C   0  0  2  0  0  0
    4.6850   51.9250   22.0053 H   0  0  0  0  0  0
    4.0280   52.5529   20.0999 C   0  0  0  0  0  0
    3.5044   51.3644   19.6816 O   0  0  0  0  0  0
    2.6350   52.2916   22.1587 N   0  0  0  0  0  0
    1.5044   53.0460   22.3286 C   0  0  0  0  0  0
    0.5247   52.3157   22.7930 N   0  0  0  0  0  0
    1.0909   51.1226   22.8655 C   0  0  0  0  0  0
    2.3445   51.0247   22.4817 N   0  0  0  0  0  0
    4.8084   54.0968   23.6476 C   0  0  0  0  0  0
    3.7948   54.2036   24.6096 C   0  0  0  0  0  0
    4.1060   54.2977   25.9644 C   0  0  0  0  0  0
    5.4379   54.2962   26.3712 C   0  0  0  0  0  0
    6.4597   54.1996   25.4319 C   0  0  0  0  0  0
    6.1465   54.0973   24.0791 C   0  0  0  0  0  0
    5.8255   54.4169   28.0488 Cl  0  0  0  0  0  0
    2.4253   57.5237   15.0129 H   0  0  0  0  0  0
    1.1796   56.4733   16.8756 H   0  0  0  0  0  0
    2.1504   54.5611   18.0766 H   0  0  0  0  0  0
    4.6235   56.6472   14.3605 H   0  0  0  0  0  0
    6.8043   55.1488   15.9749 H   0  0  0  0  0  0
    6.2120   54.7613   14.3801 H   0  0  0  0  0  0
    7.2030   52.7183   15.5574 H   0  0  0  0  0  0
    5.4775   52.4558   15.2096 H   0  0  0  0  0  0
    5.5967   55.8299   21.4828 H   0  0  0  0  0  0
    6.4839   54.3342   21.4631 H   0  0  0  0  0  0
    1.4852   54.0962   22.0829 H   0  0  0  0  0  0
    0.5446   50.2598   23.2184 H   0  0  0  0  0  0
    2.7570   54.2325   24.3177 H   0  0  0  0  0  0
    3.3148   54.3768   26.6957 H   0  0  0  0  0  0
    7.4944   54.1963   25.7476 H   0  0  0  0  0  0
    6.9709   54.0167   23.3895 H   0  0  0  0  0  0
    5.9313   52.8967   17.2447 N   0  3  0  0  0  0
    6.5965   53.4413   17.7751 H   0  0  0  0  0  0
    6.0484   51.9174   17.5062 H   0  0  0  0  0  0
  1  6  2  0  0  0
  1  2  1  0  0  0
  1 34  1  0  0  0
  2  3  2  0  0  0
  2 35  1  0  0  0
  3  4  1  0  0  0
  3 36  1  0  0  0
  4  9  1  0  0  0
  4  5  2  0  0  0
  5  6  1  0  0  0
  5  7  1  0  0  0
  6 37  1  0  0  0
  7  8  1  0  0  0
  7 38  1  0  0  0
  7 39  1  0  0  0
  8 40  1  0  0  0
  8 41  1  0  0  0
  8 50  1  0  0  0
  9 10  1  0  0  0
  9 50  1  0  0  0
  9 11  1  0  0  0
 11 20  2  0  0  0
 11 13  1  0  0  0
 12 21  1  0  0  0
 13 15  1  0  0  0
 13 14  2  0  0  0
 15 16  1  0  0  0
 15 42  1  0  0  0
 15 43  1  0  0  0
 16 17  1  0  0  0
 16 18  1  0  0  0
 16 27  1  0  0  0
 18 19  1  0  0  0
 18 20  1  0  0  0
 18 22  1  0  0  0
 20 21  1  0  0  0
 22 26  1  0  0  0
 22 23  1  0  0  0
 23 24  2  0  0  0
 23 44  1  0  0  0
 24 25  1  0  0  0
 25 26  2  0  0  0
 25 45  1  0  0  0
 27 32  2  0  0  0
 27 28  1  0  0  0
 28 29  2  0  0  0
 28 46  1  0  0  0
 29 30  1  0  0  0
 29 47  1  0  0  0
 30 31  2  0  0  0
 30 33  1  0  0  0
 31 32  1  0  0  0
 31 48  1  0  0  0
 32 49  1  0  0  0
 50 51  1  0  0  0
 50 52  1  0  0  0
M  CHG  1  50   1
M  END
> <i_i_glide_confnum>
7

> <i_i_glide_lignum>
104

> <i_i_glide_posenum>
210

> <i_i_glide_rotatable_bonds>
4

> <i_m_Source_File_Index>
76

> <b_m_subgroup_collapsed>
0

> <r_i_docking_score>
-6.27585

> <r_i_glide_ecoul>
-7.00166

> <r_i_glide_eff_state_penalty>
0

> <r_i_glide_einternal>
8.17683

> <r_i_glide_emodel>
-57.561

> <r_i_glide_energy>
-41.2015

> <r_i_glide_erotb>
0.333805

> <r_i_glide_esite>
-0.0891145

> <r_i_glide_evdw>
-34.1998

> <r_i_glide_gscore>
-6.27585

> <r_i_glide_hbond>
-0.36

> <r_i_glide_ligand_efficiency>
-0.209195

> <r_i_glide_ligand_efficiency_ln>
-1.42594

> <r_i_glide_ligand_efficiency_sa>
-0.650018

> <r_i_glide_lipo>
-2.40924

> <r_i_glide_metal>
0

> <r_i_glide_rewards>
-0.991064

> <s_i_glide_gridfile>
wee1_glide-grid

> <s_m_Source_File>
wee1_decoys_glide_SP.sdf

> <s_m_Source_Path>
/Users/zhangxujun/Desktop

> <s_m_entry_id>
351

> <s_m_entry_name>
wee1_decoys_glide_SP.76

> <s_m_subgroup_title>
wee1_decoys_glide_SP

> <s_m_subgroupid>
wee1_decoys_glide_SP


$$$$
