ZINC34969899_2976
                    3D
 Schrodinger Suite 2024-2.
 66 68  0  0  1  0            999 V2000
    2.1812   47.9675   19.1317 C   0  0  0  0  0  0
    1.3163   48.9902   18.3835 C   0  0  0  0  0  0
    1.7395   50.4626   18.6080 C   0  0  1  0  0  0
    2.8085   50.4830   18.3831 H   0  0  0  0  0  0
    1.0998   51.3796   17.5367 C   0  0  0  0  0  0
    1.6075   50.9871   20.0877 C   0  0  2  0  0  0
    2.1238   50.2576   20.7113 H   0  0  0  0  0  0
    0.1370   51.0436   20.6324 C   0  0  0  0  0  0
   -0.7902   50.7566   19.8688 O   0  0  0  0  0  0
   -0.1017   51.4205   21.9252 N   0  0  0  0  0  0
   -1.5003   51.6623   22.3595 C   0  0  0  0  0  0
   -1.7110   51.1982   23.8225 C   0  0  0  0  0  0
   -0.6897   51.7480   24.7138 N   0  0  0  0  0  0
    0.6442   51.3165   24.2883 C   0  0  0  0  0  0
    0.9861   51.7793   22.8594 C   0  0  0  0  0  0
   -0.9288   51.3944   26.1144 C   0  0  0  0  0  0
   -0.1053   52.2556   27.0524 C   0  0  0  0  0  0
    0.9356   51.8088   27.7721 C   0  0  0  0  0  0
    1.8843   52.6324   28.5480 C   0  0  0  0  0  0
    2.8852   51.9731   29.2611 C   0  0  0  0  0  0
    3.8980   52.6862   29.8870 C   0  0  0  0  0  0
    3.9029   54.0755   29.8053 C   0  0  0  0  0  0
    2.8823   54.7555   29.1460 C   0  0  0  0  0  0
    1.8720   54.0331   28.5164 C   0  0  0  0  0  0
    2.2760   52.2898   20.2047 N   0  0  0  0  0  0
    3.5124   52.4981   20.6756 C   0  0  0  0  0  0
    4.1777   51.6564   21.2810 O   0  0  0  0  0  0
    3.9045   53.7542   20.4097 N   0  0  0  0  0  0
    5.0710   54.3885   20.8553 C   0  0  0  0  0  0
    5.5520   54.2155   22.1616 C   0  0  0  0  0  0
    6.7042   54.8823   22.5741 C   0  0  0  0  0  0
    7.3981   55.6962   21.6814 C   0  0  0  0  0  0
    6.9225   55.8767   20.3844 C   0  0  0  0  0  0
    5.7553   55.2357   19.9698 C   0  0  0  0  0  0
    5.1233   55.5471   18.1963 Br  0  0  0  0  0  0
    1.9030   46.9528   18.8470 H   0  0  0  0  0  0
    3.2362   48.0972   18.8822 H   0  0  0  0  0  0
    2.0710   48.0517   20.2130 H   0  0  0  0  0  0
    0.2656   48.8363   18.6278 H   0  0  0  0  0  0
    1.4027   48.7636   17.3193 H   0  0  0  0  0  0
    0.0108   51.3560   17.5620 H   0  0  0  0  0  0
    1.4158   52.4167   17.6531 H   0  0  0  0  0  0
    1.4035   51.0679   16.5359 H   0  0  0  0  0  0
   -2.2316   51.1361   21.7437 H   0  0  0  0  0  0
   -1.7005   52.7333   22.3239 H   0  0  0  0  0  0
   -1.6500   50.1088   23.8669 H   0  0  0  0  0  0
   -2.7032   51.5086   24.1517 H   0  0  0  0  0  0
    1.4107   51.7050   24.9602 H   0  0  0  0  0  0
    0.6727   50.2241   24.3246 H   0  0  0  0  0  0
    1.1096   52.8636   22.8789 H   0  0  0  0  0  0
    1.9313   51.2979   22.6247 H   0  0  0  0  0  0
   -0.7887   50.3303   26.3091 H   0  0  0  0  0  0
   -1.9697   51.6275   26.3431 H   0  0  0  0  0  0
   -0.3650   53.2963   27.0639 H   0  0  0  0  0  0
    1.1429   50.7483   27.7400 H   0  0  0  0  0  0
    2.9146   50.8965   29.2810 H   0  0  0  0  0  0
    4.6855   52.1586   30.4047 H   0  0  0  0  0  0
    4.7047   54.6280   30.2690 H   0  0  0  0  0  0
    2.8873   55.8353   29.1001 H   0  0  0  0  0  0
    1.1161   54.5752   27.9722 H   0  0  0  0  0  0
    1.7379   53.0864   19.8964 H   0  0  0  0  0  0
    3.3354   54.2913   19.7699 H   0  0  0  0  0  0
    5.0337   53.5744   22.8596 H   0  0  0  0  0  0
    7.0762   54.7468   23.5793 H   0  0  0  0  0  0
    8.3073   56.1829   22.0023 H   0  0  0  0  0  0
    7.4614   56.5059   19.6915 H   0  0  0  0  0  0
  1  2  1  0  0  0
  1 36  1  0  0  0
  1 37  1  0  0  0
  1 38  1  0  0  0
  2  3  1  0  0  0
  2 39  1  0  0  0
  2 40  1  0  0  0
  3  4  1  0  0  0
  3  5  1  0  0  0
  3  6  1  0  0  0
  5 41  1  0  0  0
  5 42  1  0  0  0
  5 43  1  0  0  0
  6  7  1  0  0  0
  6  8  1  0  0  0
  6 25  1  0  0  0
  8  9  2  0  0  0
  8 10  1  0  0  0
 10 15  1  0  0  0
 10 11  1  0  0  0
 11 12  1  0  0  0
 11 44  1  0  0  0
 11 45  1  0  0  0
 12 13  1  0  0  0
 12 46  1  0  0  0
 12 47  1  0  0  0
 13 14  1  0  0  0
 13 16  1  0  0  0
 14 15  1  0  0  0
 14 48  1  0  0  0
 14 49  1  0  0  0
 15 50  1  0  0  0
 15 51  1  0  0  0
 16 17  1  0  0  0
 16 52  1  0  0  0
 16 53  1  0  0  0
 17 18  2  0  0  0
 17 54  1  0  0  0
 18 19  1  0  0  0
 18 55  1  0  0  0
 19 24  2  0  0  0
 19 20  1  0  0  0
 20 21  2  0  0  0
 20 56  1  0  0  0
 21 22  1  0  0  0
 21 57  1  0  0  0
 22 23  2  0  0  0
 22 58  1  0  0  0
 23 24  1  0  0  0
 23 59  1  0  0  0
 24 60  1  0  0  0
 25 26  1  0  0  0
 25 61  1  0  0  0
 26 27  2  0  0  0
 26 28  1  0  0  0
 28 29  1  0  0  0
 28 62  1  0  0  0
 29 34  2  0  0  0
 29 30  1  0  0  0
 30 31  2  0  0  0
 30 63  1  0  0  0
 31 32  1  0  0  0
 31 64  1  0  0  0
 32 33  2  0  0  0
 32 65  1  0  0  0
 33 34  1  0  0  0
 33 66  1  0  0  0
 34 35  1  0  0  0
M  END
> <i_i_glide_confnum>
109

> <i_i_glide_lignum>
2977

> <i_i_glide_posenum>
283

> <i_i_glide_rotatable_bonds>
11

> <i_m_Source_File_Index>
4061

> <b_m_subgroup_collapsed>
0

> <r_i_docking_score>
-4.63914

> <r_i_glide_ecoul>
-4.18384

> <r_i_glide_eff_state_penalty>
0

> <r_i_glide_einternal>
7.70233

> <r_i_glide_emodel>
-53.0834

> <r_i_glide_energy>
-44.8622

> <r_i_glide_erotb>
0.622226

> <r_i_glide_esite>
-0.0414203

> <r_i_glide_evdw>
-40.6784

> <r_i_glide_gscore>
-4.63914

> <r_i_glide_hbond>
-0.310535

> <r_i_glide_ligand_efficiency>
-0.14058

> <r_i_glide_ligand_efficiency_ln>
-1.03172

> <r_i_glide_ligand_efficiency_sa>
-0.450915

> <r_i_glide_lipo>
-2.23345

> <r_i_glide_metal>
0

> <r_i_glide_rewards>
-0.0144617

> <s_i_glide_gridfile>
wee1_glide-grid

> <s_m_Source_File>
wee1_decoys_glide_SP.sdf

> <s_m_Source_Path>
/Users/zhangxujun/Desktop

> <s_m_entry_id>
4336

> <s_m_entry_name>
wee1_decoys_glide_SP.4061

> <s_m_subgroup_title>
wee1_decoys_glide_SP

> <s_m_subgroupid>
wee1_decoys_glide_SP


$$$$
