ZINC36599008_3020
                    3D
 Schrodinger Suite 2024-2.
 73 76  0  0  1  0            999 V2000
    6.6661   54.2872   24.6625 C   0  0  0  0  0  0
    5.5465   54.0968   23.6713 C   0  0  0  0  0  0
    4.2216   54.4941   23.6166 C   0  0  0  0  0  0
    3.7109   54.0414   22.3989 C   0  0  0  0  0  0
    4.7178   53.3076   21.7935 C   0  0  0  0  0  0
    5.8359   53.3701   22.5624 O   0  0  0  0  0  0
    4.8315   52.4759   20.5329 C   0  0  0  0  0  0
    3.9650   52.9240   19.4015 N   0  0  0  0  0  0
    4.3690   54.2734   18.8377 C   0  0  1  0  0  0
    3.8584   54.9453   19.5289 H   0  0  0  0  0  0
    5.8704   54.5363   18.9196 C   0  0  0  0  0  0
    6.3431   55.4830   19.8358 C   0  0  0  0  0  0
    7.6995   55.7989   19.8938 C   0  0  0  0  0  0
    8.5962   55.2144   19.0029 C   0  0  0  0  0  0
    8.1426   54.2649   18.0894 C   0  0  0  0  0  0
    6.7980   53.8973   18.0669 C   0  0  0  0  0  0
    6.4343   52.8978   17.2027 O   0  0  0  0  0  0
    3.8737   54.7575   17.4401 C   0  0  0  0  0  0
    3.5979   53.9537   16.5498 O   0  0  0  0  0  0
    3.8281   56.0988   17.2935 N   0  0  0  0  0  0
    3.4150   56.8684   16.1137 C   0  0  0  0  0  0
    3.6353   58.3632   16.4319 C   0  0  0  0  0  0
    1.9144   56.6441   15.8170 C   0  0  0  0  0  0
    4.2654   56.5126   14.8705 C   0  0  0  0  0  0
    2.7409   52.3252   19.1513 C   0  0  0  0  0  0
    1.8818   52.8993   18.4814 O   0  0  0  0  0  0
    2.3250   50.9020   19.7020 C   0  0  0  0  0  0
    1.7819   51.0203   21.1603 C   0  0  0  0  0  0
    0.9675   52.0966   21.5603 C   0  0  0  0  0  0
    0.4554   52.1719   22.8531 C   0  0  0  0  0  0
    0.7369   51.1623   23.7644 C   0  0  0  0  0  0
    1.5240   50.0808   23.3890 C   0  0  0  0  0  0
    2.0441   50.0092   22.0999 C   0  0  0  0  0  0
    1.2242   50.2212   18.8166 C   0  0  0  0  0  0
   -0.0730   50.7615   18.7344 C   0  0  0  0  0  0
   -1.0611   50.1574   17.9603 C   0  0  0  0  0  0
   -0.7687   48.9977   17.2522 C   0  0  0  0  0  0
    0.5052   48.4427   17.3088 C   0  0  0  0  0  0
    1.4909   49.0488   18.0824 C   0  0  0  0  0  0
    3.4952   50.0968   19.6819 O   0  0  0  0  0  0
    7.4800   54.8732   24.2363 H   0  0  0  0  0  0
    6.3277   54.8045   25.5614 H   0  0  0  0  0  0
    7.0911   53.3353   24.9792 H   0  0  0  0  0  0
    3.6926   55.0689   24.3628 H   0  0  0  0  0  0
    2.7110   54.1940   22.0194 H   0  0  0  0  0  0
    4.6216   51.4893   20.9147 H   0  0  0  0  0  0
    5.8536   52.3702   20.1745 H   0  0  0  0  0  0
    5.6597   55.9674   20.5179 H   0  0  0  0  0  0
    8.0658   56.4957   20.6295 H   0  0  0  0  0  0
    9.6456   55.4695   19.0384 H   0  0  0  0  0  0
    8.8462   53.7859   17.4238 H   0  0  0  0  0  0
    5.7424   52.3078   17.5337 H   0  0  0  0  0  0
    4.1061   56.6574   18.0843 H   0  0  0  0  0  0
    4.6786   58.5797   16.6674 H   0  0  0  0  0  0
    3.3615   59.0016   15.5898 H   0  0  0  0  0  0
    3.0388   58.6929   17.2822 H   0  0  0  0  0  0
    1.6991   55.6014   15.5804 H   0  0  0  0  0  0
    1.2945   56.9161   16.6717 H   0  0  0  0  0  0
    1.5791   57.2420   14.9693 H   0  0  0  0  0  0
    4.1096   55.4833   14.5460 H   0  0  0  0  0  0
    4.0188   57.1500   14.0204 H   0  0  0  0  0  0
    5.3317   56.6320   15.0714 H   0  0  0  0  0  0
    0.7244   52.8929   20.8734 H   0  0  0  0  0  0
   -0.1591   53.0065   23.1498 H   0  0  0  0  0  0
    0.3395   51.2138   24.7683 H   0  0  0  0  0  0
    1.7313   49.2973   24.1000 H   0  0  0  0  0  0
    2.6452   49.1509   21.8335 H   0  0  0  0  0  0
   -0.3246   51.6680   19.2627 H   0  0  0  0  0  0
   -2.0501   50.5890   17.9082 H   0  0  0  0  0  0
   -1.5320   48.5263   16.6494 H   0  0  0  0  0  0
    0.7368   47.5475   16.7495 H   0  0  0  0  0  0
    2.4700   48.5921   18.0899 H   0  0  0  0  0  0
    4.0524   50.2799   18.8936 H   0  0  0  0  0  0
  1  2  1  0  0  0
  1 41  1  0  0  0
  1 42  1  0  0  0
  1 43  1  0  0  0
  2  6  1  0  0  0
  2  3  2  0  0  0
  3  4  1  0  0  0
  3 44  1  0  0  0
  4  5  2  0  0  0
  4 45  1  0  0  0
  5  6  1  0  0  0
  5  7  1  0  0  0
  7  8  1  0  0  0
  7 46  1  0  0  0
  7 47  1  0  0  0
  8  9  1  0  0  0
  8 25  1  0  0  0
  9 10  1  0  0  0
  9 11  1  0  0  0
  9 18  1  0  0  0
 11 16  2  0  0  0
 11 12  1  0  0  0
 12 13  2  0  0  0
 12 48  1  0  0  0
 13 14  1  0  0  0
 13 49  1  0  0  0
 14 15  2  0  0  0
 14 50  1  0  0  0
 15 16  1  0  0  0
 15 51  1  0  0  0
 16 17  1  0  0  0
 17 52  1  0  0  0
 18 19  2  0  0  0
 18 20  1  0  0  0
 20 21  1  0  0  0
 20 53  1  0  0  0
 21 22  1  0  0  0
 21 23  1  0  0  0
 21 24  1  0  0  0
 22 54  1  0  0  0
 22 55  1  0  0  0
 22 56  1  0  0  0
 23 57  1  0  0  0
 23 58  1  0  0  0
 23 59  1  0  0  0
 24 60  1  0  0  0
 24 61  1  0  0  0
 24 62  1  0  0  0
 25 26  2  0  0  0
 25 27  1  0  0  0
 27 28  1  0  0  0
 27 34  1  0  0  0
 27 40  1  0  0  0
 28 33  2  0  0  0
 28 29  1  0  0  0
 29 30  2  0  0  0
 29 63  1  0  0  0
 30 31  1  0  0  0
 30 64  1  0  0  0
 31 32  2  0  0  0
 31 65  1  0  0  0
 32 33  1  0  0  0
 32 66  1  0  0  0
 33 67  1  0  0  0
 34 39  2  0  0  0
 34 35  1  0  0  0
 35 36  2  0  0  0
 35 68  1  0  0  0
 36 37  1  0  0  0
 36 69  1  0  0  0
 37 38  2  0  0  0
 37 70  1  0  0  0
 38 39  1  0  0  0
 38 71  1  0  0  0
 39 72  1  0  0  0
 40 73  1  0  0  0
M  END
> <i_i_glide_confnum>
268

> <i_i_glide_lignum>
3021

> <i_i_glide_posenum>
64

> <i_i_glide_rotatable_bonds>
13

> <i_m_Source_File_Index>
4382

> <b_m_subgroup_collapsed>
0

> <r_i_docking_score>
-4.1503

> <r_i_glide_ecoul>
-8.26616

> <r_i_glide_eff_state_penalty>
0

> <r_i_glide_einternal>
12.5488

> <r_i_glide_emodel>
-47.6255

> <r_i_glide_energy>
-41.3096

> <r_i_glide_erotb>
0.742438

> <r_i_glide_esite>
-0.0763293

> <r_i_glide_evdw>
-33.0434

> <r_i_glide_gscore>
-4.1503

> <r_i_glide_hbond>
0

> <r_i_glide_ligand_efficiency>
-0.106418

> <r_i_glide_ligand_efficiency_ln>
-0.889943

> <r_i_glide_ligand_efficiency_sa>
-0.360886

> <r_i_glide_lipo>
-1.966

> <r_i_glide_metal>
0

> <r_i_glide_rewards>
0.0416819

> <s_i_glide_gridfile>
wee1_glide-grid

> <s_m_Source_File>
wee1_decoys_glide_SP.sdf

> <s_m_Source_Path>
/Users/zhangxujun/Desktop

> <s_m_entry_id>
4657

> <s_m_entry_name>
wee1_decoys_glide_SP.4382

> <s_m_subgroup_title>
wee1_decoys_glide_SP

> <s_m_subgroupid>
wee1_decoys_glide_SP


$$$$
