ZINC13479807_1709
                    3D
 Schrodinger Suite 2024-2.
 35 36  0  0  1  0            999 V2000
    6.4872   53.9623   27.1662 C   0  0  0  0  0  0
    5.7328   54.0967   25.8556 C   0  0  0  0  0  0
    6.2514   54.2331   24.5819 C   0  0  0  0  0  0
    5.2210   54.2420   23.6359 C   0  0  0  0  0  0
    4.0405   54.1231   24.3804 C   0  0  0  0  0  0
    4.3468   54.0300   25.7424 N   0  0  0  0  0  0
    3.4264   53.8545   26.8229 C   0  0  0  0  0  0
    2.3750   52.9322   26.7311 C   0  0  0  0  0  0
    1.4986   52.7474   27.7968 C   0  0  0  0  0  0
    1.6529   53.4991   28.9637 C   0  0  0  0  0  0
    2.6940   54.4208   29.0675 C   0  0  0  0  0  0
    3.5777   54.5877   28.0056 C   0  0  0  0  0  0
    0.4606   53.3441   30.2912 S   0  0  0  0  0  0
    0.3040   54.6774   30.8814 O   0  0  0  0  0  0
   -0.6772   52.6009   29.7485 O   0  0  0  0  0  0
    1.1793   52.3367   31.5145 N   0  0  0  0  0  0
    2.6107   54.0970   23.8522 C   0  0  0  0  0  0
    5.3173   54.2862   22.1644 C   0  0  0  0  0  0
    6.1724   54.8972   21.4385 N   0  0  0  0  0  0
    7.1035   55.6951   22.1281 O   0  0  0  0  0  0
    7.5057   53.6169   27.0013 H   0  0  0  0  0  0
    6.5604   54.9115   27.7007 H   0  0  0  0  0  0
    6.0328   53.2333   27.8406 H   0  0  0  0  0  0
    7.3110   54.2655   24.3623 H   0  0  0  0  0  0
    2.2342   52.3376   25.8423 H   0  0  0  0  0  0
    0.6948   52.0307   27.7039 H   0  0  0  0  0  0
    2.8076   55.0233   29.9561 H   0  0  0  0  0  0
    4.3801   55.2962   28.1102 H   0  0  0  0  0  0
    1.6089   52.8901   32.2613 H   0  0  0  0  0  0
    0.4687   51.7201   31.9324 H   0  0  0  0  0  0
    2.5293   54.5798   22.8794 H   0  0  0  0  0  0
    2.2445   53.0797   23.7185 H   0  0  0  0  0  0
    1.9045   54.6243   24.4903 H   0  0  0  0  0  0
    4.5237   53.7096   21.7002 H   0  0  0  0  0  0
    6.8460   55.5785   23.0469 H   0  0  0  0  0  0
  1  2  1  0  0  0
  1 21  1  0  0  0
  1 22  1  0  0  0
  1 23  1  0  0  0
  2  6  1  0  0  0
  2  3  2  0  0  0
  3  4  1  0  0  0
  3 24  1  0  0  0
  4  5  2  0  0  0
  4 18  1  0  0  0
  5  6  1  0  0  0
  5 17  1  0  0  0
  6  7  1  0  0  0
  7 12  2  0  0  0
  7  8  1  0  0  0
  8  9  2  0  0  0
  8 25  1  0  0  0
  9 10  1  0  0  0
  9 26  1  0  0  0
 10 11  2  0  0  0
 10 13  1  0  0  0
 11 12  1  0  0  0
 11 27  1  0  0  0
 12 28  1  0  0  0
 13 14  2  0  0  0
 13 15  2  0  0  0
 13 16  1  0  0  0
 16 29  1  0  0  0
 16 30  1  0  0  0
 17 31  1  0  0  0
 17 32  1  0  0  0
 17 33  1  0  0  0
 18 19  2  0  0  0
 18 34  1  0  0  0
 19 20  1  0  0  0
 20 35  1  0  0  0
M  END
> <i_i_glide_confnum>
8

> <i_i_glide_lignum>
1710

> <i_i_glide_posenum>
231

> <i_i_glide_rotatable_bonds>
4

> <i_m_Source_File_Index>
1533

> <b_m_subgroup_collapsed>
0

> <r_i_docking_score>
-6.56443

> <r_i_glide_ecoul>
-1.66121

> <r_i_glide_eff_state_penalty>
0

> <r_i_glide_einternal>
0.765275

> <r_i_glide_emodel>
-54.6047

> <r_i_glide_energy>
-39.3418

> <r_i_glide_erotb>
0.637003

> <r_i_glide_esite>
-0.115835

> <r_i_glide_evdw>
-37.6806

> <r_i_glide_gscore>
-6.56443

> <r_i_glide_hbond>
-0.00999787

> <r_i_glide_ligand_efficiency>
-0.328222

> <r_i_glide_ligand_efficiency_ln>
-1.64286

> <r_i_glide_ligand_efficiency_sa>
-0.890931

> <r_i_glide_lipo>
-2.82967

> <r_i_glide_metal>
0

> <r_i_glide_rewards>
-2.11273

> <s_i_glide_gridfile>
wee1_glide-grid

> <s_m_Source_File>
wee1_decoys_glide_SP.sdf

> <s_m_Source_Path>
/Users/zhangxujun/Desktop

> <s_m_entry_id>
1808

> <s_m_entry_name>
wee1_decoys_glide_SP.1533

> <s_m_subgroup_title>
wee1_decoys_glide_SP

> <s_m_subgroupid>
wee1_decoys_glide_SP


$$$$
