ZINC20876958_5085
                    3D
 Schrodinger Suite 2024-2.
 59 62  0  0  1  0            999 V2000
    7.0972   55.4300   23.0910 C   0  0  0  0  0  0
    6.0945   54.9607   23.9862 O   0  0  0  0  0  0
    5.0098   54.2776   23.4700 C   0  0  0  0  0  0
    4.9687   53.7821   22.1558 C   0  0  0  0  0  0
    3.8270   53.1510   21.6649 C   0  0  0  0  0  0
    2.7074   53.0154   22.4882 C   0  0  0  0  0  0
    2.7366   53.4898   23.8002 C   0  0  0  0  0  0
    3.8931   54.0960   24.3070 C   0  0  0  0  0  0
    3.9157   54.5141   25.6201 O   0  0  0  0  0  0
    4.7364   53.7234   26.4855 C   0  0  0  0  0  0
    4.8873   54.4112   27.8563 C   0  0  1  0  0  0
    5.0789   55.4660   27.6740 H   0  0  0  0  0  0
    3.6374   54.2497   28.7316 C   0  0  0  0  0  0
    2.6185   55.2257   28.6979 C   0  0  0  0  0  0
    1.4657   55.1081   29.4774 C   0  0  0  0  0  0
    1.3483   53.9825   30.2776 C   0  0  0  0  0  0
    2.3227   53.0269   30.3225 C   0  0  0  0  0  0
    3.4859   53.1256   29.5650 C   0  0  0  0  0  0
    1.9914   52.0965   31.2524 O   0  0  0  0  0  0
    0.7041   52.4330   31.7070 C   0  0  0  0  0  0
    0.3679   53.6835   31.1661 O   0  0  0  0  0  0
    6.0761   53.9509   28.4817 O   0  0  0  0  0  0
    1.1961   53.2887   24.9013 Br  0  0  0  0  0  0
    3.8276   52.6009   20.2512 C   0  0  0  0  0  0
    3.5045   53.6866   19.2139 N   0  3  0  0  0  0
    3.6152   53.2536   17.7414 C   0  0  0  0  0  0
    2.8410   54.2925   16.8988 C   0  0  0  0  0  0
    3.0040   54.0509   15.3840 C   0  0  0  0  0  0
    4.4871   53.9950   14.9674 C   0  0  0  0  0  0
    5.2958   52.9986   15.8241 C   0  0  0  0  0  0
    5.1114   53.2594   17.3313 C   0  0  0  0  0  0
    7.7610   56.0964   23.6330 H   0  0  0  0  0  0
    7.6847   54.6054   22.6824 H   0  0  0  0  0  0
    6.6771   56.0067   22.2651 H   0  0  0  0  0  0
    5.8202   53.8880   21.5042 H   0  0  0  0  0  0
    1.8126   52.5348   22.1178 H   0  0  0  0  0  0
    5.7249   53.5906   26.0415 H   0  0  0  0  0  0
    4.3261   52.7248   26.6157 H   0  0  0  0  0  0
    2.7043   56.0967   28.0759 H   0  0  0  0  0  0
    0.7053   55.8722   29.4644 H   0  0  0  0  0  0
    4.2578   52.3716   29.6218 H   0  0  0  0  0  0
   -0.0246   51.6973   31.3562 H   0  0  0  0  0  0
    0.6929   52.4841   32.7990 H   0  0  0  0  0  0
    6.4710   54.6775   28.9776 H   0  0  0  0  0  0
    4.8017   52.1935   19.9736 H   0  0  0  0  0  0
    3.0766   51.8236   20.0968 H   0  0  0  0  0  0
    2.5705   54.0460   19.3925 H   0  0  0  0  0  0
    3.1881   52.2579   17.5867 H   0  0  0  0  0  0
    1.7908   54.3279   17.1940 H   0  0  0  0  0  0
    3.2163   55.2931   17.1237 H   0  0  0  0  0  0
    2.5159   53.1128   15.1123 H   0  0  0  0  0  0
    2.4882   54.8319   14.8232 H   0  0  0  0  0  0
    4.5694   53.7306   13.9118 H   0  0  0  0  0  0
    4.9263   54.9894   15.0628 H   0  0  0  0  0  0
    4.9792   51.9777   15.5949 H   0  0  0  0  0  0
    6.3530   53.0508   15.5621 H   0  0  0  0  0  0
    5.5464   54.2322   17.5659 H   0  0  0  0  0  0
    5.6927   52.5540   17.9248 H   0  0  0  0  0  0
    4.1137   54.4811   19.3517 H   0  0  0  0  0  0
  1  2  1  0  0  0
  1 32  1  0  0  0
  1 33  1  0  0  0
  1 34  1  0  0  0
  2  3  1  0  0  0
  3  8  2  0  0  0
  3  4  1  0  0  0
  4  5  2  0  0  0
  4 35  1  0  0  0
  5  6  1  0  0  0
  5 24  1  0  0  0
  6  7  2  0  0  0
  6 36  1  0  0  0
  7  8  1  0  0  0
  7 23  1  0  0  0
  8  9  1  0  0  0
  9 10  1  0  0  0
 10 11  1  0  0  0
 10 37  1  0  0  0
 10 38  1  0  0  0
 11 12  1  0  0  0
 11 13  1  0  0  0
 11 22  1  0  0  0
 13 18  2  0  0  0
 13 14  1  0  0  0
 14 15  2  0  0  0
 14 39  1  0  0  0
 15 16  1  0  0  0
 15 40  1  0  0  0
 16 21  1  0  0  0
 16 17  2  0  0  0
 17 18  1  0  0  0
 17 19  1  0  0  0
 18 41  1  0  0  0
 19 20  1  0  0  0
 20 21  1  0  0  0
 20 42  1  0  0  0
 20 43  1  0  0  0
 22 44  1  0  0  0
 24 25  1  0  0  0
 24 45  1  0  0  0
 24 46  1  0  0  0
 25 26  1  0  0  0
 25 47  1  0  0  0
 25 59  1  0  0  0
 26 31  1  0  0  0
 26 27  1  0  0  0
 26 48  1  0  0  0
 27 28  1  0  0  0
 27 49  1  0  0  0
 27 50  1  0  0  0
 28 29  1  0  0  0
 28 51  1  0  0  0
 28 52  1  0  0  0
 29 30  1  0  0  0
 29 53  1  0  0  0
 29 54  1  0  0  0
 30 31  1  0  0  0
 30 55  1  0  0  0
 30 56  1  0  0  0
 31 57  1  0  0  0
 31 58  1  0  0  0
M  CHG  1  25   1
M  END
> <i_i_glide_confnum>
6

> <i_i_glide_lignum>
5086

> <i_i_glide_posenum>
310

> <i_i_glide_rotatable_bonds>
9

> <i_m_Source_File_Index>
4641

> <b_m_subgroup_collapsed>
0

> <r_i_docking_score>
-6.38389

> <r_i_glide_ecoul>
-9.02815

> <r_i_glide_eff_state_penalty>
0

> <r_i_glide_einternal>
5.36068

> <r_i_glide_emodel>
-65.8121

> <r_i_glide_energy>
-47.1003

> <r_i_glide_erotb>
0.529258

> <r_i_glide_esite>
-0.120633

> <r_i_glide_evdw>
-38.0722

> <r_i_glide_gscore>
-6.38389

> <r_i_glide_hbond>
-0.444006

> <r_i_glide_ligand_efficiency>
-0.212796

> <r_i_glide_ligand_efficiency_ln>
-1.45049

> <r_i_glide_ligand_efficiency_sa>
-0.661208

> <r_i_glide_lipo>
-2.89507

> <r_i_glide_metal>
0

> <r_i_glide_rewards>
-0.195604

> <s_i_glide_gridfile>
wee1_glide-grid

> <s_m_Source_File>
wee1_decoys_glide_SP.sdf

> <s_m_Source_Path>
/Users/zhangxujun/Desktop

> <s_m_entry_id>
4916

> <s_m_entry_name>
wee1_decoys_glide_SP.4641

> <s_m_subgroup_title>
wee1_decoys_glide_SP

> <s_m_subgroupid>
wee1_decoys_glide_SP


$$$$
