ZINC14991263_1193
                    3D
 Schrodinger Suite 2024-2.
 75 79  0  0  1  0            999 V2000
    0.3045   53.9126   31.8460 C   0  0  0  0  0  0
    0.5903   53.8155   30.3429 C   0  0  2  0  0  0
   -0.0078   54.5693   29.8283 H   0  0  0  0  0  0
    0.2356   52.4122   29.8140 C   0  0  0  0  0  0
    0.7388   52.3021   28.4315 N   0  0  0  0  0  0
    2.1861   52.5589   28.2791 C   0  0  0  0  0  0
    2.4462   53.9874   28.8108 C   0  0  1  0  0  0
    1.9487   54.7326   28.1841 H   0  0  0  0  0  0
    1.9818   54.0822   30.1542 O   0  0  0  0  0  0
    3.9456   54.3098   28.8218 C   0  0  0  0  0  0
   -0.1135   51.9485   27.4266 C   0  0  0  0  0  0
   -1.3043   51.6966   27.6103 O   0  0  0  0  0  0
    0.4104   51.8563   26.0811 C   0  0  0  0  0  0
    1.1047   52.7730   25.2855 C   0  0  0  0  0  0
    1.3350   52.1263   24.0319 C   0  0  0  0  0  0
    1.9899   52.4438   22.8326 C   0  0  0  0  0  0
    2.0335   51.4921   21.7920 C   0  0  0  0  0  0
    1.3770   50.2586   21.9625 C   0  0  0  0  0  0
    0.7018   49.9194   23.1321 C   0  0  0  0  0  0
    0.7029   50.8698   24.1496 C   0  0  0  0  0  0
    0.1148   50.7272   25.3735 O   0  0  0  0  0  0
    2.7827   51.7454   20.4590 C   0  0  1  0  0  0
    1.7649   52.0336   19.3265 C   0  0  0  0  0  0
    2.3900   52.3872   17.9643 C   0  0  0  0  0  0
    3.3158   53.6111   18.1546 N   0  3  1  0  0  0
    4.4504   53.2838   19.1544 C   0  0  0  0  0  0
    3.8161   52.9088   20.5046 C   0  0  0  0  0  0
    3.8888   54.0431   16.7813 C   0  0  0  0  0  0
    4.7598   55.2925   16.8266 C   0  0  0  0  0  0
    6.1497   55.1670   16.8098 C   0  0  0  0  0  0
    6.9523   56.3020   16.8470 C   0  0  0  0  0  0
    6.3724   57.5737   16.8876 C   0  0  0  0  0  0
    4.9782   57.6993   16.8827 C   0  0  0  0  0  0
    4.1733   56.5609   16.8535 C   0  0  0  0  0  0
    7.2384   58.8335   16.9572 C   0  0  0  0  0  0
    7.5620   59.1915   18.4206 C   0  0  0  0  0  0
    8.5150   58.7666   16.0964 C   0  0  0  0  0  0
    3.5044   50.5844   20.0819 O   0  0  0  0  0  0
   -0.7353   53.6972   32.0809 H   0  0  0  0  0  0
    0.9049   53.1943   32.4076 H   0  0  0  0  0  0
    0.5324   54.9053   32.2288 H   0  0  0  0  0  0
   -0.8292   52.2027   29.9260 H   0  0  0  0  0  0
    0.7600   51.6902   30.4326 H   0  0  0  0  0  0
    2.7354   51.8439   28.8919 H   0  0  0  0  0  0
    2.5778   52.4240   27.2737 H   0  0  0  0  0  0
    4.3612   54.2962   27.8139 H   0  0  0  0  0  0
    4.1333   55.2975   29.2436 H   0  0  0  0  0  0
    4.5038   53.5888   29.4205 H   0  0  0  0  0  0
    1.4159   53.7600   25.5889 H   0  0  0  0  0  0
    2.4674   53.4051   22.7499 H   0  0  0  0  0  0
    1.4094   49.5286   21.1649 H   0  0  0  0  0  0
    0.2150   48.9635   23.2564 H   0  0  0  0  0  0
    1.0770   52.8191   19.6491 H   0  0  0  0  0  0
    1.1122   51.1681   19.2050 H   0  0  0  0  0  0
    1.6080   52.6795   17.2621 H   0  0  0  0  0  0
    2.9810   51.5685   17.5394 H   0  0  0  0  0  0
    5.0717   52.4967   18.7227 H   0  0  0  0  0  0
    5.0419   54.1929   19.2732 H   0  0  0  0  0  0
    4.6011   52.6627   21.2246 H   0  0  0  0  0  0
    3.3595   53.8089   20.9126 H   0  0  0  0  0  0
    3.0251   54.2038   16.1351 H   0  0  0  0  0  0
    4.4428   53.1791   16.4048 H   0  0  0  0  0  0
    6.6143   54.1914   16.7783 H   0  0  0  0  0  0
    8.0273   56.1816   16.8544 H   0  0  0  0  0  0
    4.5196   58.6784   16.9071 H   0  0  0  0  0  0
    3.0990   56.6722   16.8558 H   0  0  0  0  0  0
    6.6479   59.6517   16.5358 H   0  0  0  0  0  0
    6.6510   59.2863   19.0153 H   0  0  0  0  0  0
    8.0884   60.1406   18.4836 H   0  0  0  0  0  0
    8.1887   58.4270   18.8818 H   0  0  0  0  0  0
    8.2890   58.4553   15.0747 H   0  0  0  0  0  0
    8.9959   59.7448   16.0390 H   0  0  0  0  0  0
    9.2514   58.0700   16.4992 H   0  0  0  0  0  0
    4.0386   50.7493   19.2887 H   0  0  0  0  0  0
    2.7661   54.3766   18.5292 H   0  0  0  0  0  0
  1  2  1  0  0  0
  1 39  1  0  0  0
  1 40  1  0  0  0
  1 41  1  0  0  0
  2  3  1  0  0  0
  2  9  1  0  0  0
  2  4  1  0  0  0
  4  5  1  0  0  0
  4 42  1  0  0  0
  4 43  1  0  0  0
  5  6  1  0  0  0
  5 11  1  0  0  0
  6  7  1  0  0  0
  6 44  1  0  0  0
  6 45  1  0  0  0
  7  8  1  0  0  0
  7  9  1  0  0  0
  7 10  1  0  0  0
 10 46  1  0  0  0
 10 47  1  0  0  0
 10 48  1  0  0  0
 11 12  2  0  0  0
 11 13  1  0  0  0
 13 21  1  0  0  0
 13 14  2  0  0  0
 14 15  1  0  0  0
 14 49  1  0  0  0
 15 20  2  0  0  0
 15 16  1  0  0  0
 16 17  2  0  0  0
 16 50  1  0  0  0
 17 18  1  0  0  0
 17 22  1  0  0  0
 18 19  2  0  0  0
 18 51  1  0  0  0
 19 20  1  0  0  0
 19 52  1  0  0  0
 20 21  1  0  0  0
 22 27  1  0  0  0
 22 23  1  0  0  0
 22 38  1  0  0  0
 23 24  1  0  0  0
 23 53  1  0  0  0
 23 54  1  0  0  0
 24 25  1  0  0  0
 24 55  1  0  0  0
 24 56  1  0  0  0
 25 26  1  0  0  0
 25 28  1  0  0  0
 25 75  1  0  0  0
 26 27  1  0  0  0
 26 57  1  0  0  0
 26 58  1  0  0  0
 27 59  1  0  0  0
 27 60  1  0  0  0
 28 29  1  0  0  0
 28 61  1  0  0  0
 28 62  1  0  0  0
 29 34  2  0  0  0
 29 30  1  0  0  0
 30 31  2  0  0  0
 30 63  1  0  0  0
 31 32  1  0  0  0
 31 64  1  0  0  0
 32 33  2  0  0  0
 32 35  1  0  0  0
 33 34  1  0  0  0
 33 65  1  0  0  0
 34 66  1  0  0  0
 35 36  1  0  0  0
 35 37  1  0  0  0
 35 67  1  0  0  0
 36 68  1  0  0  0
 36 69  1  0  0  0
 36 70  1  0  0  0
 37 71  1  0  0  0
 37 72  1  0  0  0
 37 73  1  0  0  0
 38 74  1  0  0  0
M  CHG  1  25   1
M  END
> <i_i_glide_confnum>
53

> <i_i_glide_lignum>
1194

> <i_i_glide_posenum>
382

> <i_i_glide_rotatable_bonds>
7

> <i_m_Source_File_Index>
12

> <b_m_subgroup_collapsed>
0

> <r_i_docking_score>
-5.00173

> <r_i_glide_ecoul>
-7.5791

> <r_i_glide_eff_state_penalty>
0

> <r_i_glide_einternal>
3.62121

> <r_i_glide_emodel>
-58.957

> <r_i_glide_energy>
-44.3787

> <r_i_glide_erotb>
0.421142

> <r_i_glide_esite>
-0.0284408

> <r_i_glide_evdw>
-36.7996

> <r_i_glide_gscore>
-5.00173

> <r_i_glide_hbond>
-0.496118

> <r_i_glide_ligand_efficiency>
-0.138937

> <r_i_glide_ligand_efficiency_ln>
-1.09124

> <r_i_glide_ligand_efficiency_sa>
-0.45876

> <r_i_glide_lipo>
-1.67915

> <r_i_glide_metal>
0

> <r_i_glide_rewards>
-0.242319

> <s_i_glide_gridfile>
wee1_glide-grid

> <s_m_Source_File>
wee1_decoys_glide_SP.sdf

> <s_m_Source_Path>
/Users/zhangxujun/Desktop

> <s_m_entry_id>
287

> <s_m_entry_name>
wee1_decoys_glide_SP.12

> <s_m_subgroup_title>
wee1_decoys_glide_SP

> <s_m_subgroupid>
wee1_decoys_glide_SP


$$$$
