ZINC39749575_3025
                    3D
 Schrodinger Suite 2024-2.
 63 66  0  0  1  0            999 V2000
    6.3207   55.2906   19.1117 C   0  0  0  0  0  0
    6.0245   54.9960   20.5706 C   0  0  0  0  0  0
    6.9688   55.3077   21.5501 C   0  0  0  0  0  0
    6.7046   55.0263   22.8872 C   0  0  0  0  0  0
    5.4912   54.4278   23.2499 C   0  0  0  0  0  0
    4.5588   54.0969   22.2631 C   0  0  0  0  0  0
    4.8234   54.3819   20.9265 C   0  0  0  0  0  0
    5.1314   54.0965   24.5644 N   0  0  0  0  0  0
    5.7351   54.3719   25.7385 C   0  0  0  0  0  0
    6.7038   55.1246   25.8785 O   0  0  0  0  0  0
    5.0977   53.6718   26.9581 C   0  0  1  0  0  0
    4.8444   52.6562   26.6595 H   0  0  0  0  0  0
    6.0719   53.5288   28.1441 C   0  0  0  0  0  0
    3.5541   54.4968   27.4613 S   0  0  0  0  0  0
    2.3025   53.4850   26.7214 C   0  0  0  0  0  0
    2.2398   53.1824   25.4490 N   0  0  0  0  0  0
    1.1303   52.3633   25.2715 N   0  0  0  0  0  0
    0.5703   52.1881   26.4463 C   0  0  0  0  0  0
    1.2460   52.9163   27.4112 N   0  0  0  0  0  0
    0.8909   53.1736   28.7524 C   0  0  0  0  0  0
    0.7517   52.1435   29.6823 C   0  0  0  0  0  0
    0.4454   52.4620   31.0060 C   0  0  0  0  0  0
    0.3044   53.7845   31.4026 C   0  0  0  0  0  0
    0.4544   54.8108   30.4814 C   0  0  0  0  0  0
    0.7197   54.5007   29.1515 C   0  0  0  0  0  0
   -0.6625   51.3116   26.6940 C   0  0  2  0  0  0
   -0.6277   50.9281   27.7130 H   0  0  0  0  0  0
   -0.6656   50.0326   25.8071 C   0  0  0  0  0  0
   -1.7868   49.2107   26.0817 O   0  0  0  0  0  0
   -1.9287   52.0594   26.6416 N   0  0  0  0  0  0
   -2.5795   52.4964   25.5460 C   0  0  0  0  0  0
   -2.0499   52.6101   24.4401 O   0  0  0  0  0  0
   -4.0590   52.7451   25.7363 C   0  0  0  0  0  0
   -4.7974   51.9688   26.6491 C   0  0  0  0  0  0
   -6.1693   52.1582   26.8062 C   0  0  0  0  0  0
   -6.8321   53.1142   26.0423 C   0  0  0  0  0  0
   -6.1192   53.8825   25.1258 C   0  0  0  0  0  0
   -4.7418   53.7118   24.9758 C   0  0  0  0  0  0
   -4.0955   54.4960   24.0816 F   0  0  0  0  0  0
    5.9581   56.2819   18.8389 H   0  0  0  0  0  0
    5.8477   54.5531   18.4613 H   0  0  0  0  0  0
    7.3914   55.2389   18.9101 H   0  0  0  0  0  0
    7.9129   55.7594   21.2814 H   0  0  0  0  0  0
    7.4620   55.2720   23.6150 H   0  0  0  0  0  0
    3.6193   53.6283   22.5213 H   0  0  0  0  0  0
    4.0916   54.1299   20.1714 H   0  0  0  0  0  0
    4.2785   53.5611   24.6354 H   0  0  0  0  0  0
    6.9969   53.0283   27.8517 H   0  0  0  0  0  0
    6.3362   54.4983   28.5712 H   0  0  0  0  0  0
    5.6195   52.9311   28.9353 H   0  0  0  0  0  0
    0.8871   51.1128   29.3893 H   0  0  0  0  0  0
    0.3051   51.6967   31.7511 H   0  0  0  0  0  0
    0.0698   54.0067   32.4340 H   0  0  0  0  0  0
    0.3465   55.8403   30.7902 H   0  0  0  0  0  0
    0.8256   55.3050   28.4364 H   0  0  0  0  0  0
   -0.6963   50.2901   24.7475 H   0  0  0  0  0  0
    0.2413   49.4478   25.9712 H   0  0  0  0  0  0
   -1.6956   48.8604   27.0015 H   0  0  0  0  0  0
   -2.4278   52.1153   27.5151 H   0  0  0  0  0  0
   -4.3217   51.1918   27.2324 H   0  0  0  0  0  0
   -6.7215   51.5485   27.5068 H   0  0  0  0  0  0
   -7.8983   53.2495   26.1500 H   0  0  0  0  0  0
   -6.6408   54.6043   24.5143 H   0  0  0  0  0  0
  1  2  1  0  0  0
  1 40  1  0  0  0
  1 41  1  0  0  0
  1 42  1  0  0  0
  2  7  2  0  0  0
  2  3  1  0  0  0
  3  4  2  0  0  0
  3 43  1  0  0  0
  4  5  1  0  0  0
  4 44  1  0  0  0
  5  6  2  0  0  0
  5  8  1  0  0  0
  6  7  1  0  0  0
  6 45  1  0  0  0
  7 46  1  0  0  0
  8  9  1  0  0  0
  8 47  1  0  0  0
  9 10  2  0  0  0
  9 11  1  0  0  0
 11 12  1  0  0  0
 11 13  1  0  0  0
 11 14  1  0  0  0
 13 48  1  0  0  0
 13 49  1  0  0  0
 13 50  1  0  0  0
 14 15  1  0  0  0
 15 19  1  0  0  0
 15 16  2  0  0  0
 16 17  1  0  0  0
 17 18  2  0  0  0
 18 19  1  0  0  0
 18 26  1  0  0  0
 19 20  1  0  0  0
 20 25  2  0  0  0
 20 21  1  0  0  0
 21 22  2  0  0  0
 21 51  1  0  0  0
 22 23  1  0  0  0
 22 52  1  0  0  0
 23 24  2  0  0  0
 23 53  1  0  0  0
 24 25  1  0  0  0
 24 54  1  0  0  0
 25 55  1  0  0  0
 26 27  1  0  0  0
 26 28  1  0  0  0
 26 30  1  0  0  0
 28 29  1  0  0  0
 28 56  1  0  0  0
 28 57  1  0  0  0
 29 58  1  0  0  0
 30 31  1  0  0  0
 30 59  1  0  0  0
 31 32  2  0  0  0
 31 33  1  0  0  0
 33 38  2  0  0  0
 33 34  1  0  0  0
 34 35  2  0  0  0
 34 60  1  0  0  0
 35 36  1  0  0  0
 35 61  1  0  0  0
 36 37  2  0  0  0
 36 62  1  0  0  0
 37 38  1  0  0  0
 37 63  1  0  0  0
 38 39  1  0  0  0
M  END
> <i_i_glide_confnum>
195

> <i_i_glide_lignum>
3026

> <i_i_glide_posenum>
317

> <i_i_glide_rotatable_bonds>
12

> <i_m_Source_File_Index>
887

> <b_m_subgroup_collapsed>
0

> <r_i_docking_score>
-8.21429

> <r_i_glide_ecoul>
-14.5524

> <r_i_glide_eff_state_penalty>
0

> <r_i_glide_einternal>
11.4487

> <r_i_glide_emodel>
-94.5827

> <r_i_glide_energy>
-65.7543

> <r_i_glide_erotb>
0.761025

> <r_i_glide_esite>
-0.0247153

> <r_i_glide_evdw>
-51.2019

> <r_i_glide_gscore>
-8.21429

> <r_i_glide_hbond>
-0.428175

> <r_i_glide_ligand_efficiency>
-0.222008

> <r_i_glide_ligand_efficiency_ln>
-1.78149

> <r_i_glide_ligand_efficiency_sa>
-0.73978

> <r_i_glide_lipo>
-2.64199

> <r_i_glide_metal>
0

> <r_i_glide_rewards>
-1.13748

> <s_i_glide_gridfile>
wee1_glide-grid

> <s_m_Source_File>
wee1_decoys_glide_SP.sdf

> <s_m_Source_Path>
/Users/zhangxujun/Desktop

> <s_m_entry_id>
1162

> <s_m_entry_name>
wee1_decoys_glide_SP.887

> <s_m_subgroup_title>
wee1_decoys_glide_SP

> <s_m_subgroupid>
wee1_decoys_glide_SP


$$$$
