ZINC14991264_4428
                    3D
 Schrodinger Suite 2024-2.
 64 69  0  0  1  0            999 V2000
    6.9692   55.1413   25.0171 C   0  0  0  0  0  0
    5.5463   54.6438   24.8998 C   0  0  0  0  0  0
    4.9867   54.4141   23.6407 C   0  0  0  0  0  0
    3.6807   53.9472   23.5499 C   0  0  0  0  0  0
    2.9679   53.6727   24.6998 C   0  0  0  0  0  0
    3.5018   53.8494   25.9903 C   0  0  0  0  0  0
    4.8039   54.3780   26.0553 C   0  0  0  0  0  0
    2.7512   53.4829   27.2379 C   0  0  0  0  0  0
    3.3792   53.3130   28.4820 C   0  0  0  0  0  0
    2.6083   52.9827   29.5957 C   0  0  0  0  0  0
    1.2239   52.8181   29.4638 C   0  0  0  0  0  0
    0.6683   52.9711   28.1926 C   0  0  0  0  0  0
    1.4084   53.2975   27.1106 N   0  0  0  0  0  0
    0.3720   52.5362   30.6664 C   0  0  0  0  0  0
    0.7085   52.9247   31.7794 O   0  0  0  0  0  0
   -0.7619   51.8628   30.4818 N   0  0  0  0  0  0
    1.7329   53.1429   24.4205 O   0  0  0  0  0  0
    1.5010   53.2044   23.0174 C   0  0  1  0  0  0
    0.7954   54.0244   22.8817 H   0  0  0  0  0  0
    2.8451   53.5691   22.3720 C   0  0  0  0  0  0
    0.8801   51.8647   22.5573 C   0  0  0  0  0  0
   -0.2789   51.4613   23.3629 N   0  0  0  0  0  0
   -1.5592   51.7801   23.0953 C   0  0  0  0  0  0
   -1.8700   52.4104   22.0831 O   0  0  0  0  0  0
   -2.6741   51.3564   24.1009 C   0  0  0  0  0  0
   -3.6923   50.4231   23.3662 C   0  0  0  0  0  0
   -4.8604   50.0587   24.3223 C   0  0  1  0  0  0
   -4.2968   49.3127   25.5614 C   0  0  0  0  0  0
   -3.2894   50.2268   26.3095 C   0  0  1  0  0  0
   -2.1212   50.5996   25.3595 C   0  0  0  0  0  0
   -4.0146   51.5170   26.7706 C   0  0  0  0  0  0
   -4.5783   52.2713   25.5369 C   0  0  2  0  0  0
   -5.5787   51.3561   24.7825 C   0  0  0  0  0  0
   -3.4114   52.6466   24.5885 C   0  0  0  0  0  0
    7.5044   55.0292   24.0734 H   0  0  0  0  0  0
    6.9910   56.1874   25.3222 H   0  0  0  0  0  0
    7.5023   54.5597   25.7694 H   0  0  0  0  0  0
    5.5629   54.5974   22.7465 H   0  0  0  0  0  0
    5.2700   54.5711   27.0090 H   0  0  0  0  0  0
    4.4454   53.4262   28.6025 H   0  0  0  0  0  0
    3.0889   52.8608   30.5560 H   0  0  0  0  0  0
   -0.3917   52.8657   28.0117 H   0  0  0  0  0  0
   -1.2947   51.6950   31.3441 H   0  0  0  0  0  0
   -0.9544   51.3318   29.6454 H   0  0  0  0  0  0
    2.7109   54.3985   21.6819 H   0  0  0  0  0  0
    3.2874   52.7143   21.8592 H   0  0  0  0  0  0
    0.6097   51.9346   21.5002 H   0  0  0  0  0  0
    1.6319   51.0769   22.6065 H   0  0  0  0  0  0
   -0.0819   50.9365   24.2045 H   0  0  0  0  0  0
   -4.0961   50.8987   22.4709 H   0  0  0  0  0  0
   -3.1989   49.5104   23.0260 H   0  0  0  0  0  0
   -5.5726   49.4151   23.8025 H   0  0  0  0  0  0
   -3.8095   48.3859   25.2562 H   0  0  0  0  0  0
   -5.1075   49.0211   26.2294 H   0  0  0  0  0  0
   -2.8964   49.7004   27.1807 H   0  0  0  0  0  0
   -1.5901   49.6917   25.0667 H   0  0  0  0  0  0
   -1.3986   51.2135   25.9000 H   0  0  0  0  0  0
   -4.8207   51.2699   27.4641 H   0  0  0  0  0  0
   -3.3259   52.1571   27.3227 H   0  0  0  0  0  0
   -5.0891   53.1785   25.8652 H   0  0  0  0  0  0
   -5.9975   51.8821   23.9207 H   0  0  0  0  0  0
   -6.4251   51.1128   25.4246 H   0  0  0  0  0  0
   -2.7127   53.3020   25.1116 H   0  0  0  0  0  0
   -3.7992   53.2261   23.7480 H   0  0  0  0  0  0
  1  2  1  0  0  0
  1 35  1  0  0  0
  1 36  1  0  0  0
  1 37  1  0  0  0
  2  7  2  0  0  0
  2  3  1  0  0  0
  3  4  2  0  0  0
  3 38  1  0  0  0
  4 20  1  0  0  0
  4  5  1  0  0  0
  5  6  2  0  0  0
  5 17  1  0  0  0
  6  7  1  0  0  0
  6  8  1  0  0  0
  7 39  1  0  0  0
  8 13  2  0  0  0
  8  9  1  0  0  0
  9 10  2  0  0  0
  9 40  1  0  0  0
 10 11  1  0  0  0
 10 41  1  0  0  0
 11 12  2  0  0  0
 11 14  1  0  0  0
 12 13  1  0  0  0
 12 42  1  0  0  0
 14 15  2  0  0  0
 14 16  1  0  0  0
 16 43  1  0  0  0
 16 44  1  0  0  0
 17 18  1  0  0  0
 18 19  1  0  0  0
 18 20  1  0  0  0
 18 21  1  0  0  0
 20 45  1  0  0  0
 20 46  1  0  0  0
 21 22  1  0  0  0
 21 47  1  0  0  0
 21 48  1  0  0  0
 22 23  1  0  0  0
 22 49  1  0  0  0
 23 24  2  0  0  0
 23 25  1  0  0  0
 25 30  1  0  0  0
 25 34  1  0  0  0
 25 26  1  0  0  0
 26 27  1  0  0  0
 26 50  1  0  0  0
 26 51  1  0  0  0
 27 33  1  0  0  0
 27 28  1  0  0  0
 27 52  1  0  0  0
 28 29  1  0  0  0
 28 53  1  0  0  0
 28 54  1  0  0  0
 29 30  1  0  0  0
 29 31  1  0  0  0
 29 55  1  0  0  0
 30 56  1  0  0  0
 30 57  1  0  0  0
 31 32  1  0  0  0
 31 58  1  0  0  0
 31 59  1  0  0  0
 32 33  1  0  0  0
 32 34  1  0  0  0
 32 60  1  0  0  0
 33 61  1  0  0  0
 33 62  1  0  0  0
 34 63  1  0  0  0
 34 64  1  0  0  0
M  END
> <i_i_glide_confnum>
1

> <i_i_glide_lignum>
4429

> <i_i_glide_posenum>
346

> <i_i_glide_rotatable_bonds>
6

> <i_m_Source_File_Index>
2604

> <b_m_subgroup_collapsed>
0

> <r_i_docking_score>
-6.01225

> <r_i_glide_ecoul>
-6.38789

> <r_i_glide_eff_state_penalty>
0

> <r_i_glide_einternal>
2.10048

> <r_i_glide_emodel>
-60.1861

> <r_i_glide_energy>
-43.7355

> <r_i_glide_erotb>
0.403171

> <r_i_glide_esite>
-0.148352

> <r_i_glide_evdw>
-37.3476

> <r_i_glide_gscore>
-6.01225

> <r_i_glide_hbond>
-0.16

> <r_i_glide_ligand_efficiency>
-0.182189

> <r_i_glide_ligand_efficiency_ln>
-1.33709

> <r_i_glide_ligand_efficiency_sa>
-0.584379

> <r_i_glide_lipo>
-2.77756

> <r_i_glide_metal>
0

> <r_i_glide_rewards>
-0.503947

> <s_i_glide_gridfile>
wee1_glide-grid

> <s_m_Source_File>
wee1_decoys_glide_SP.sdf

> <s_m_Source_Path>
/Users/zhangxujun/Desktop

> <s_m_entry_id>
2879

> <s_m_entry_name>
wee1_decoys_glide_SP.2604

> <s_m_subgroup_title>
wee1_decoys_glide_SP

> <s_m_subgroupid>
wee1_decoys_glide_SP


$$$$
