ZINC62824802_2634
                    3D
 Schrodinger Suite 2024-2.
 32 33  0  0  1  0            999 V2000
    1.5032   56.0609   29.9667 C   0  0  0  0  0  0
    1.6352   54.7140   29.2850 C   0  0  0  0  0  0
    2.8158   54.0132   29.0107 C   0  0  0  0  0  0
    2.3664   52.5354   28.2066 S   0  0  0  0  0  0
    0.6956   53.0206   28.2654 C   0  0  0  0  0  0
    0.5051   54.1478   28.8914 N   0  0  0  0  0  0
   -0.3619   52.3463   27.6559 N   0  0  0  0  0  0
   -0.2852   51.2172   26.9225 C   0  0  0  0  0  0
    0.7045   50.4962   26.8771 O   0  0  0  0  0  0
   -1.4128   51.0046   26.2154 N   0  0  0  0  0  0
   -1.7547   49.9497   25.3304 C   0  0  0  0  0  0
   -1.0197   48.7479   25.2970 C   0  0  0  0  0  0
   -1.3642   47.7099   24.4432 C   0  0  0  0  0  0
   -2.4555   47.8419   23.6001 C   0  0  0  0  0  0
   -3.2026   49.0168   23.6159 C   0  0  0  0  0  0
   -2.8823   50.0916   24.4715 C   0  0  0  0  0  0
   -3.7553   51.3290   24.4265 C   0  0  0  0  0  0
   -4.7613   51.3019   23.6817 O   0  0  0  0  0  0
   -3.4453   52.3287   25.1180 O   0  5  0  0  0  0
   -2.9717   46.2613   22.3315 I   0  0  0  0  0  0
    4.2588   54.3613   29.2859 C   0  0  0  0  0  0
    2.4238   56.6412   29.9081 H   0  0  0  0  0  0
    0.7221   56.6801   29.5212 H   0  0  0  0  0  0
    1.2571   55.9555   31.0241 H   0  0  0  0  0  0
   -1.2522   52.8181   27.6773 H   0  0  0  0  0  0
   -2.1053   51.7471   26.2018 H   0  0  0  0  0  0
   -0.1903   48.5614   25.9606 H   0  0  0  0  0  0
   -0.7875   46.7985   24.4536 H   0  0  0  0  0  0
   -4.0501   49.0815   22.9477 H   0  0  0  0  0  0
    4.4405   54.4966   30.3513 H   0  0  0  0  0  0
    4.9460   53.5881   28.9408 H   0  0  0  0  0  0
    4.5478   55.2862   28.7888 H   0  0  0  0  0  0
  1  2  1  0  0  0
  1 22  1  0  0  0
  1 23  1  0  0  0
  1 24  1  0  0  0
  2  6  1  0  0  0
  2  3  2  0  0  0
  3  4  1  0  0  0
  3 21  1  0  0  0
  4  5  1  0  0  0
  5  6  2  0  0  0
  5  7  1  0  0  0
  7  8  1  0  0  0
  7 25  1  0  0  0
  8  9  2  0  0  0
  8 10  1  0  0  0
 10 11  1  0  0  0
 10 26  1  0  0  0
 11 16  2  0  0  0
 11 12  1  0  0  0
 12 13  2  0  0  0
 12 27  1  0  0  0
 13 14  1  0  0  0
 13 28  1  0  0  0
 14 15  2  0  0  0
 14 20  1  0  0  0
 15 16  1  0  0  0
 15 29  1  0  0  0
 16 17  1  0  0  0
 17 18  2  0  0  0
 17 19  1  0  0  0
 21 30  1  0  0  0
 21 31  1  0  0  0
 21 32  1  0  0  0
M  CHG  1  19  -1
M  END
> <i_i_glide_confnum>
3

> <i_i_glide_lignum>
2635

> <i_i_glide_posenum>
247

> <i_i_glide_rotatable_bonds>
5

> <i_m_Source_File_Index>
1270

> <b_m_subgroup_collapsed>
0

> <r_i_docking_score>
-3.17801

> <r_i_glide_ecoul>
-0.582368

> <r_i_glide_eff_state_penalty>
0

> <r_i_glide_einternal>
0.773242

> <r_i_glide_emodel>
-40.8245

> <r_i_glide_energy>
-31.2406

> <r_i_glide_erotb>
0.456118

> <r_i_glide_esite>
-0.110872

> <r_i_glide_evdw>
-30.6582

> <r_i_glide_gscore>
-3.17801

> <r_i_glide_hbond>
0

> <r_i_glide_ligand_efficiency>
-0.151334

> <r_i_glide_ligand_efficiency_ln>
-0.785756

> <r_i_glide_ligand_efficiency_sa>
-0.417518

> <r_i_glide_lipo>
-1.33696

> <r_i_glide_metal>
0

> <r_i_glide_rewards>
-0.566023

> <s_i_glide_gridfile>
wee1_glide-grid

> <s_m_Source_File>
wee1_decoys_glide_SP.sdf

> <s_m_Source_Path>
/Users/zhangxujun/Desktop

> <s_m_entry_id>
1545

> <s_m_entry_name>
wee1_decoys_glide_SP.1270

> <s_m_subgroup_title>
wee1_decoys_glide_SP

> <s_m_subgroupid>
wee1_decoys_glide_SP


$$$$
