ZINC63822305_2636
                    3D
 Schrodinger Suite 2024-2.
 40 43  0  0  1  0            999 V2000
   -0.0282   48.5472   25.0599 C   0  0  0  0  0  0
   -0.5839   49.8841   24.6186 C   0  0  0  0  0  0
   -0.3524   50.6514   23.5405 C   0  0  0  0  0  0
    0.4910   50.4703   22.2827 C   0  0  1  0  0  0
    1.0021   49.5069   22.3215 H   0  0  0  0  0  0
   -0.5412   50.4266   21.1122 C   0  0  0  0  0  0
   -1.5750   51.5797   21.1233 C   0  0  0  0  0  0
   -2.0524   52.0966   20.1157 O   0  0  0  0  0  0
   -2.0427   51.8785   22.3538 N   0  0  0  0  0  0
   -1.2112   51.8935   23.5710 C   0  0  1  0  0  0
   -0.6282   52.8127   23.6325 H   0  0  0  0  0  0
   -1.9642   51.7764   24.8029 N   0  0  0  0  0  0
   -1.5562   50.5065   25.4021 N   0  0  0  0  0  0
   -3.1817   52.3697   25.1907 C   0  0  0  0  0  0
   -3.6958   53.4633   24.4817 C   0  0  0  0  0  0
   -4.8704   54.0627   24.9257 C   0  0  0  0  0  0
   -5.4601   53.5573   26.0790 C   0  0  0  0  0  0
   -6.4939   54.0983   26.5743 O   0  5  0  0  0  0
   -4.9484   52.4959   26.7539 N   0  0  0  0  0  0
   -3.8163   51.9137   26.3144 N   0  0  0  0  0  0
    1.6276   51.4959   22.0824 C   0  0  0  0  0  0
    2.3564   51.4909   20.8836 C   0  0  0  0  0  0
    3.4107   52.3816   20.6800 C   0  0  0  0  0  0
    3.7591   53.2917   21.6762 C   0  0  0  0  0  0
    3.0585   53.2974   22.8834 C   0  0  0  0  0  0
    2.0101   52.3997   23.0863 C   0  0  0  0  0  0
    3.5394   54.4967   24.2821 Br  0  0  0  0  0  0
    4.7855   54.1497   21.4733 F   0  0  0  0  0  0
   -0.8279   47.8126   25.1572 H   0  0  0  0  0  0
    0.6999   48.1699   24.3418 H   0  0  0  0  0  0
    0.4676   48.6397   26.0269 H   0  0  0  0  0  0
   -0.0821   50.3256   20.1296 H   0  0  0  0  0  0
   -1.1758   49.5496   21.2504 H   0  0  0  0  0  0
   -2.7585   52.5851   22.3398 H   0  0  0  0  0  0
   -1.3903   50.7102   26.3789 H   0  0  0  0  0  0
   -3.1946   53.8682   23.6172 H   0  0  0  0  0  0
   -5.2988   54.8966   24.3947 H   0  0  0  0  0  0
    2.1215   50.7879   20.0982 H   0  0  0  0  0  0
    3.9602   52.3601   19.7490 H   0  0  0  0  0  0
    1.5172   52.4041   24.0464 H   0  0  0  0  0  0
  1  2  1  0  0  0
  1 29  1  0  0  0
  1 30  1  0  0  0
  1 31  1  0  0  0
  2 13  1  0  0  0
  2  3  2  0  0  0
  3 10  1  0  0  0
  3  4  1  0  0  0
  4  5  1  0  0  0
  4  6  1  0  0  0
  4 21  1  0  0  0
  6  7  1  0  0  0
  6 32  1  0  0  0
  6 33  1  0  0  0
  7  8  2  0  0  0
  7  9  1  0  0  0
  9 10  1  0  0  0
  9 34  1  0  0  0
 10 11  1  0  0  0
 10 12  1  0  0  0
 12 13  1  0  0  0
 12 14  1  0  0  0
 13 35  1  0  0  0
 14 15  2  0  0  0
 14 20  1  0  0  0
 15 16  1  0  0  0
 15 36  1  0  0  0
 16 17  2  0  0  0
 16 37  1  0  0  0
 17 18  1  0  0  0
 17 19  1  0  0  0
 19 20  2  0  0  0
 21 26  2  0  0  0
 21 22  1  0  0  0
 22 23  2  0  0  0
 22 38  1  0  0  0
 23 24  1  0  0  0
 23 39  1  0  0  0
 24 25  2  0  0  0
 24 28  1  0  0  0
 25 26  1  0  0  0
 25 27  1  0  0  0
 26 40  1  0  0  0
M  CHG  1  18  -1
M  END
> <i_i_glide_confnum>
10

> <i_i_glide_lignum>
2637

> <i_i_glide_posenum>
374

> <i_i_glide_rotatable_bonds>
2

> <i_m_Source_File_Index>
4297

> <b_m_subgroup_collapsed>
0

> <r_i_docking_score>
-4.02958

> <r_i_glide_ecoul>
-4.41265

> <r_i_glide_eff_state_penalty>
0

> <r_i_glide_einternal>
3.53979

> <r_i_glide_emodel>
-42.2426

> <r_i_glide_energy>
-33.4086

> <r_i_glide_erotb>
0.225107

> <r_i_glide_esite>
-0.0823784

> <r_i_glide_evdw>
-28.996

> <r_i_glide_gscore>
-4.02958

> <r_i_glide_hbond>
-0.32

> <r_i_glide_ligand_efficiency>
-0.154984

> <r_i_glide_ligand_efficiency_ln>
-0.946334

> <r_i_glide_ligand_efficiency_sa>
-0.459139

> <r_i_glide_lipo>
-1.00945

> <r_i_glide_metal>
0

> <r_i_glide_rewards>
-0.731165

> <s_i_glide_gridfile>
wee1_glide-grid

> <s_m_Source_File>
wee1_decoys_glide_SP.sdf

> <s_m_Source_Path>
/Users/zhangxujun/Desktop

> <s_m_entry_id>
4572

> <s_m_entry_name>
wee1_decoys_glide_SP.4297

> <s_m_subgroup_title>
wee1_decoys_glide_SP

> <s_m_subgroupid>
wee1_decoys_glide_SP


$$$$
