ZINC39666228_1286
                    3D
 Schrodinger Suite 2024-2.
 70 73  0  0  1  0            999 V2000
    6.3333   55.0541   22.1319 C   0  0  0  0  0  0
    5.3846   54.1252   21.3975 C   0  0  0  0  0  0
    5.1006   52.8768   21.9455 C   0  0  0  0  0  0
    4.2445   52.0044   21.2798 C   0  0  0  0  0  0
    3.6407   52.3843   20.0838 C   0  0  0  0  0  0
    3.9432   53.6308   19.5223 C   0  0  0  0  0  0
    4.8179   54.4969   20.1766 C   0  0  0  0  0  0
    2.7821   51.4717   19.5082 O   0  0  0  0  0  0
    1.6088   51.9387   18.8335 C   0  0  1  0  0  0
    1.5299   53.0272   18.8173 H   0  0  0  0  0  0
    1.6659   51.4200   17.3906 C   0  0  0  0  0  0
    0.3968   51.4010   19.6216 C   0  0  0  0  0  0
    0.4912   51.7970   21.0242 N   0  0  0  0  0  0
   -0.5095   52.0965   21.8662 C   0  0  0  0  0  0
   -1.6925   52.0406   21.5319 O   0  0  0  0  0  0
   -0.1587   52.5518   23.3102 C   0  0  2  0  0  0
   -0.8277   53.3803   23.5457 H   0  0  0  0  0  0
    1.2673   53.1446   23.3738 C   0  0  0  0  0  0
    1.6346   52.9908   24.7802 N   0  0  0  0  0  0
    0.7001   52.1140   25.5015 C   0  0  0  0  0  0
   -0.1915   51.4584   24.4101 C   0  0  0  0  0  0
    0.3961   50.0849   23.9448 C   0  0  0  0  0  0
    0.4405   49.0338   25.0799 C   0  0  0  0  0  0
   -0.9726   48.8754   25.6818 N   0  3  0  0  0  0
   -1.6529   50.2020   26.0822 C   0  0  0  0  0  0
   -1.6367   51.1450   24.8665 C   0  0  0  0  0  0
    2.6661   53.6966   25.3148 C   0  0  0  0  0  0
    3.3251   54.4818   24.6267 O   0  0  0  0  0  0
    3.0488   53.5078   26.8090 C   0  0  2  0  0  0
    2.7687   52.4877   27.0595 H   0  0  0  0  0  0
    2.2600   54.5217   27.6720 C   0  0  0  0  0  0
    2.4848   54.2248   29.1716 C   0  0  0  0  0  0
    3.9717   54.0562   29.4582 C   0  0  0  0  0  0
    4.9040   53.8490   28.5059 C   0  0  0  0  0  0
    4.5847   53.6917   27.0237 C   0  0  0  0  0  0
    6.5141   55.9804   21.5840 H   0  0  0  0  0  0
    7.2922   54.5597   22.2980 H   0  0  0  0  0  0
    5.9270   55.2954   23.1155 H   0  0  0  0  0  0
    5.5492   52.5803   22.8815 H   0  0  0  0  0  0
    4.0269   51.0335   21.6971 H   0  0  0  0  0  0
    3.5194   53.9289   18.5757 H   0  0  0  0  0  0
    5.0516   55.4527   19.7311 H   0  0  0  0  0  0
    0.7915   51.7280   16.8172 H   0  0  0  0  0  0
    2.5506   51.8016   16.8790 H   0  0  0  0  0  0
    1.7265   50.3309   17.3607 H   0  0  0  0  0  0
   -0.5285   51.7576   19.1651 H   0  0  0  0  0  0
    0.3714   50.3112   19.5754 H   0  0  0  0  0  0
    1.4390   51.8443   21.3685 H   0  0  0  0  0  0
    1.9858   52.5308   22.8311 H   0  0  0  0  0  0
    1.2799   54.1800   23.0257 H   0  0  0  0  0  0
    0.0643   52.7754   26.0924 H   0  0  0  0  0  0
    1.1263   51.4038   26.2059 H   0  0  0  0  0  0
   -0.1548   49.6795   23.0947 H   0  0  0  0  0  0
    1.4156   50.2263   23.5813 H   0  0  0  0  0  0
    0.7044   48.0396   24.7194 H   0  0  0  0  0  0
    1.1037   49.2908   25.9057 H   0  0  0  0  0  0
   -1.5683   48.3745   25.0385 H   0  0  0  0  0  0
   -2.6613   49.9354   26.4033 H   0  0  0  0  0  0
   -1.1054   50.5837   26.9464 H   0  0  0  0  0  0
   -2.1264   52.0722   25.1685 H   0  0  0  0  0  0
   -2.2415   50.7570   24.0442 H   0  0  0  0  0  0
    2.6459   55.5307   27.5095 H   0  0  0  0  0  0
    1.1823   54.4623   27.5107 H   0  0  0  0  0  0
    1.9430   53.3298   29.4811 H   0  0  0  0  0  0
    2.0791   55.0436   29.7677 H   0  0  0  0  0  0
    4.3054   54.1262   30.4821 H   0  0  0  0  0  0
    5.9365   53.7740   28.8201 H   0  0  0  0  0  0
    5.1539   52.8888   26.5584 H   0  0  0  0  0  0
    4.9406   54.6140   26.5599 H   0  0  0  0  0  0
   -0.9245   48.3156   26.5366 H   0  0  0  0  0  0
  1  2  1  0  0  0
  1 36  1  0  0  0
  1 37  1  0  0  0
  1 38  1  0  0  0
  2  7  2  0  0  0
  2  3  1  0  0  0
  3  4  2  0  0  0
  3 39  1  0  0  0
  4  5  1  0  0  0
  4 40  1  0  0  0
  5  6  2  0  0  0
  5  8  1  0  0  0
  6  7  1  0  0  0
  6 41  1  0  0  0
  7 42  1  0  0  0
  8  9  1  0  0  0
  9 10  1  0  0  0
  9 11  1  0  0  0
  9 12  1  0  0  0
 11 43  1  0  0  0
 11 44  1  0  0  0
 11 45  1  0  0  0
 12 13  1  0  0  0
 12 46  1  0  0  0
 12 47  1  0  0  0
 13 14  1  0  0  0
 13 48  1  0  0  0
 14 15  2  0  0  0
 14 16  1  0  0  0
 16 17  1  0  0  0
 16 21  1  0  0  0
 16 18  1  0  0  0
 18 19  1  0  0  0
 18 49  1  0  0  0
 18 50  1  0  0  0
 19 20  1  0  0  0
 19 27  1  0  0  0
 20 21  1  0  0  0
 20 51  1  0  0  0
 20 52  1  0  0  0
 21 26  1  0  0  0
 21 22  1  0  0  0
 22 23  1  0  0  0
 22 53  1  0  0  0
 22 54  1  0  0  0
 23 24  1  0  0  0
 23 55  1  0  0  0
 23 56  1  0  0  0
 24 25  1  0  0  0
 24 57  1  0  0  0
 24 70  1  0  0  0
 25 26  1  0  0  0
 25 58  1  0  0  0
 25 59  1  0  0  0
 26 60  1  0  0  0
 26 61  1  0  0  0
 27 28  2  0  0  0
 27 29  1  0  0  0
 29 30  1  0  0  0
 29 35  1  0  0  0
 29 31  1  0  0  0
 31 32  1  0  0  0
 31 62  1  0  0  0
 31 63  1  0  0  0
 32 33  1  0  0  0
 32 64  1  0  0  0
 32 65  1  0  0  0
 33 34  2  0  0  0
 33 66  1  0  0  0
 34 35  1  0  0  0
 34 67  1  0  0  0
 35 68  1  0  0  0
 35 69  1  0  0  0
M  CHG  1  24   1
M  END
> <i_i_glide_confnum>
333

> <i_i_glide_lignum>
1287

> <i_i_glide_posenum>
380

> <i_i_glide_rotatable_bonds>
8

> <i_m_Source_File_Index>
1362

> <b_m_subgroup_collapsed>
0

> <r_i_docking_score>
-4.88859

> <r_i_glide_ecoul>
-4.53859

> <r_i_glide_eff_state_penalty>
0

> <r_i_glide_einternal>
14.0944

> <r_i_glide_emodel>
-49.485

> <r_i_glide_energy>
-42.1963

> <r_i_glide_erotb>
0.822884

> <r_i_glide_esite>
-0.106845

> <r_i_glide_evdw>
-37.6577

> <r_i_glide_gscore>
-4.88859

> <r_i_glide_hbond>
-0.169259

> <r_i_glide_ligand_efficiency>
-0.152768

> <r_i_glide_ligand_efficiency_ln>
-1.09469

> <r_i_glide_ligand_efficiency_sa>
-0.485009

> <r_i_glide_lipo>
-2.13322

> <r_i_glide_metal>
0

> <r_i_glide_rewards>
-0.738476

> <s_i_glide_gridfile>
wee1_glide-grid

> <s_m_Source_File>
wee1_decoys_glide_SP.sdf

> <s_m_Source_Path>
/Users/zhangxujun/Desktop

> <s_m_entry_id>
1637

> <s_m_entry_name>
wee1_decoys_glide_SP.1362

> <s_m_subgroup_title>
wee1_decoys_glide_SP

> <s_m_subgroupid>
wee1_decoys_glide_SP


$$$$
