ZINC38743417_3231
                    3D
 Schrodinger Suite 2024-2.
 49 53  0  0  1  0            999 V2000
    5.1398   54.1355   18.3158 C   0  0  0  0  0  0
    6.0151   54.8273   19.2023 O   0  0  0  0  0  0
    5.8355   54.6924   20.5633 C   0  0  0  0  0  0
    6.7897   55.2972   21.3786 C   0  0  0  0  0  0
    6.7051   55.1957   22.7645 C   0  0  0  0  0  0
    5.6515   54.4971   23.3696 C   0  0  0  0  0  0
    4.6977   53.8858   22.5435 C   0  0  0  0  0  0
    4.7844   53.9803   21.1583 C   0  0  0  0  0  0
    5.5314   54.4320   24.8506 C   0  0  0  0  0  0
    4.6564   53.6970   25.5314 C   0  0  0  0  0  0
    5.0601   53.8576   26.9550 C   0  0  1  0  0  0
    5.5674   52.9556   27.3098 H   0  0  0  0  0  0
    6.0534   54.8966   26.8907 N   0  0  0  0  0  0
    6.3107   55.1753   25.6710 N   0  0  0  0  0  0
    3.8471   54.1389   27.8727 C   0  0  2  0  0  0
    3.2315   54.9170   27.4150 H   0  0  0  0  0  0
    4.1565   54.6095   29.2160 N   0  0  0  0  0  0
    3.1177   54.0539   30.0510 N   0  0  0  0  0  0
    2.8562   52.7584   29.4637 C   0  0  2  0  0  0
    3.5725   52.0192   29.8285 H   0  0  0  0  0  0
    3.0500   52.9296   28.0499 N   0  0  0  0  0  0
    1.8880   52.8166   27.2754 N   0  0  0  0  0  0
    0.8900   52.3984   27.9392 C   0  0  0  0  0  0
    1.1830   52.1347   29.6851 S   0  0  0  0  0  0
   -0.4936   52.1396   27.3385 C   0  0  0  0  0  0
   -0.6056   52.4966   25.9557 O   0  0  0  0  0  0
   -0.0217   51.7243   24.9739 C   0  0  0  0  0  0
    0.2337   52.3554   23.7555 C   0  0  0  0  0  0
    0.8135   51.6515   22.7023 C   0  0  0  0  0  0
    1.1216   50.3026   22.8667 C   0  0  0  0  0  0
    0.8577   49.6619   24.0748 C   0  0  0  0  0  0
    0.2944   50.3685   25.1313 C   0  0  0  0  0  0
    1.9002   49.3166   21.4371 Br  0  0  0  0  0  0
    5.4490   54.3232   17.2877 H   0  0  0  0  0  0
    5.1749   53.0568   18.4767 H   0  0  0  0  0  0
    4.1092   54.4778   18.4185 H   0  0  0  0  0  0
    7.6149   55.8312   20.9322 H   0  0  0  0  0  0
    7.4667   55.6730   23.3631 H   0  0  0  0  0  0
    3.8682   53.3385   22.9662 H   0  0  0  0  0  0
    4.0265   53.4993   20.5604 H   0  0  0  0  0  0
    3.8847   53.0271   25.1860 H   0  0  0  0  0  0
    5.0229   54.2236   29.5687 H   0  0  0  0  0  0
    2.3314   54.6742   29.8975 H   0  0  0  0  0  0
   -0.8165   51.1148   27.5266 H   0  0  0  0  0  0
   -1.2203   52.7532   27.8638 H   0  0  0  0  0  0
   -0.0062   53.4020   23.6401 H   0  0  0  0  0  0
    1.0188   52.1440   21.7636 H   0  0  0  0  0  0
    1.0971   48.6165   24.1989 H   0  0  0  0  0  0
    0.1013   49.8411   26.0541 H   0  0  0  0  0  0
  1  2  1  0  0  0
  1 34  1  0  0  0
  1 35  1  0  0  0
  1 36  1  0  0  0
  2  3  1  0  0  0
  3  8  2  0  0  0
  3  4  1  0  0  0
  4  5  2  0  0  0
  4 37  1  0  0  0
  5  6  1  0  0  0
  5 38  1  0  0  0
  6  7  2  0  0  0
  6  9  1  0  0  0
  7  8  1  0  0  0
  7 39  1  0  0  0
  8 40  1  0  0  0
  9 14  1  0  0  0
  9 10  2  0  0  0
 10 11  1  0  0  0
 10 41  1  0  0  0
 11 12  1  0  0  0
 11 13  1  0  0  0
 11 15  1  0  0  0
 13 14  2  0  0  0
 15 16  1  0  0  0
 15 21  1  0  0  0
 15 17  1  0  0  0
 17 18  1  0  0  0
 17 42  1  0  0  0
 18 19  1  0  0  0
 18 43  1  0  0  0
 19 20  1  0  0  0
 19 24  1  0  0  0
 19 21  1  0  0  0
 21 22  1  0  0  0
 22 23  2  0  0  0
 23 24  1  0  0  0
 23 25  1  0  0  0
 25 26  1  0  0  0
 25 44  1  0  0  0
 25 45  1  0  0  0
 26 27  1  0  0  0
 27 32  2  0  0  0
 27 28  1  0  0  0
 28 29  2  0  0  0
 28 46  1  0  0  0
 29 30  1  0  0  0
 29 47  1  0  0  0
 30 31  2  0  0  0
 30 33  1  0  0  0
 31 32  1  0  0  0
 31 48  1  0  0  0
 32 49  1  0  0  0
M  END
> <i_i_glide_confnum>
23

> <i_i_glide_lignum>
3232

> <i_i_glide_posenum>
239

> <i_i_glide_rotatable_bonds>
6

> <i_m_Source_File_Index>
4804

> <b_m_subgroup_collapsed>
0

> <r_i_docking_score>
-5.95346

> <r_i_glide_ecoul>
-5.66436

> <r_i_glide_eff_state_penalty>
0

> <r_i_glide_einternal>
2.15238

> <r_i_glide_emodel>
-67.2617

> <r_i_glide_energy>
-50.2642

> <r_i_glide_erotb>
0.427917

> <r_i_glide_esite>
-0.0600132

> <r_i_glide_evdw>
-44.5998

> <r_i_glide_gscore>
-5.95346

> <r_i_glide_hbond>
0

> <r_i_glide_ligand_efficiency>
-0.198449

> <r_i_glide_ligand_efficiency_ln>
-1.35269

> <r_i_glide_ligand_efficiency_sa>
-0.616626

> <r_i_glide_lipo>
-2.14613

> <r_i_glide_metal>
0

> <r_i_glide_rewards>
-1.09559

> <s_i_glide_gridfile>
wee1_glide-grid

> <s_m_Source_File>
wee1_decoys_glide_SP.sdf

> <s_m_Source_Path>
/Users/zhangxujun/Desktop

> <s_m_entry_id>
5079

> <s_m_entry_name>
wee1_decoys_glide_SP.4804

> <s_m_subgroup_title>
wee1_decoys_glide_SP

> <s_m_subgroupid>
wee1_decoys_glide_SP


$$$$
