ZINC27107188_2718
                    3D
 Schrodinger Suite 2024-2.
 51 54  0  0  1  0            999 V2000
    0.8389   52.8078   24.8139 C   0  0  0  0  0  0
    1.8806   53.2142   25.8508 C   0  0  0  0  0  0
    3.1335   53.7694   25.5093 C   0  0  0  0  0  0
    4.0284   54.0829   26.5486 C   0  0  0  0  0  0
    3.6352   53.8256   27.8651 C   0  0  0  0  0  0
    4.1929   53.9806   29.1634 C   0  0  0  0  0  0
    3.3558   53.5765   30.0816 N   0  0  0  0  0  0
    2.2298   53.1492   29.4654 N   0  0  0  0  0  0
    2.3550   53.2767   28.0872 C   0  0  0  0  0  0
    1.4772   52.9740   27.1291 N   0  0  0  0  0  0
    1.0910   52.7445   30.3085 C   0  0  0  0  0  0
    0.1698   51.7205   29.6178 C   0  0  0  0  0  0
    0.3174   53.9903   30.7801 C   0  0  0  0  0  0
    3.5150   54.1030   24.0852 C   0  0  0  0  0  0
    2.6634   54.4967   23.2860 O   0  0  0  0  0  0
    4.8330   53.9799   23.7988 N   0  0  0  0  0  0
    5.3640   54.4924   22.6124 N   0  0  0  0  0  0
    5.1042   53.9541   21.4027 C   0  0  0  0  0  0
    4.5122   52.8896   21.2090 O   0  0  0  0  0  0
    5.5938   54.7597   20.3143 C   0  0  0  0  0  0
    5.0631   54.8628   19.0329 C   0  0  0  0  0  0
    5.7620   55.7692   18.2257 C   0  0  0  0  0  0
    6.8854   56.3114   18.8447 C   0  0  0  0  0  0
    7.0611   55.6973   20.4609 S   0  0  0  0  0  0
    7.8644   57.3159   18.3463 C   0  0  0  0  0  0
    7.3986   58.4893   17.7497 C   0  0  0  0  0  0
    8.3046   59.4582   17.3265 C   0  0  0  0  0  0
    9.6717   59.2516   17.4915 C   0  0  0  0  0  0
   10.1426   58.0716   18.0609 C   0  0  0  0  0  0
    9.2395   57.0982   18.4830 C   0  0  0  0  0  0
   10.5459   60.2071   17.1027 F   0  0  0  0  0  0
    1.3041   52.2520   23.9986 H   0  0  0  0  0  0
    0.0574   52.1693   25.2312 H   0  0  0  0  0  0
    0.3621   53.6937   24.3942 H   0  0  0  0  0  0
    4.9926   54.5307   26.3550 H   0  0  0  0  0  0
    5.1627   54.3794   29.4264 H   0  0  0  0  0  0
    1.5079   52.2569   31.1952 H   0  0  0  0  0  0
   -0.5457   51.3011   30.3276 H   0  0  0  0  0  0
    0.7406   50.8966   29.1917 H   0  0  0  0  0  0
   -0.4116   52.1750   28.8144 H   0  0  0  0  0  0
   -0.4540   53.7112   31.4998 H   0  0  0  0  0  0
    0.9683   54.7137   31.2720 H   0  0  0  0  0  0
   -0.1673   54.4952   29.9445 H   0  0  0  0  0  0
    5.4373   53.3077   24.2436 H   0  0  0  0  0  0
    5.7647   55.4142   22.7285 H   0  0  0  0  0  0
    4.1747   54.3398   18.7074 H   0  0  0  0  0  0
    5.4706   56.0137   17.2143 H   0  0  0  0  0  0
    6.3395   58.6753   17.6403 H   0  0  0  0  0  0
    7.9376   60.3741   16.8845 H   0  0  0  0  0  0
   11.2036   57.9130   18.1811 H   0  0  0  0  0  0
    9.6139   56.1881   18.9294 H   0  0  0  0  0  0
  1  2  1  0  0  0
  1 32  1  0  0  0
  1 33  1  0  0  0
  1 34  1  0  0  0
  2 10  2  0  0  0
  2  3  1  0  0  0
  3  4  2  0  0  0
  3 14  1  0  0  0
  4  5  1  0  0  0
  4 35  1  0  0  0
  5  9  2  0  0  0
  5  6  1  0  0  0
  6  7  2  0  0  0
  6 36  1  0  0  0
  7  8  1  0  0  0
  8  9  1  0  0  0
  8 11  1  0  0  0
  9 10  1  0  0  0
 11 12  1  0  0  0
 11 13  1  0  0  0
 11 37  1  0  0  0
 12 38  1  0  0  0
 12 39  1  0  0  0
 12 40  1  0  0  0
 13 41  1  0  0  0
 13 42  1  0  0  0
 13 43  1  0  0  0
 14 15  2  0  0  0
 14 16  1  0  0  0
 16 17  1  0  0  0
 16 44  1  0  0  0
 17 18  1  0  0  0
 17 45  1  0  0  0
 18 19  2  0  0  0
 18 20  1  0  0  0
 20 24  1  0  0  0
 20 21  2  0  0  0
 21 22  1  0  0  0
 21 46  1  0  0  0
 22 23  2  0  0  0
 22 47  1  0  0  0
 23 24  1  0  0  0
 23 25  1  0  0  0
 25 30  2  0  0  0
 25 26  1  0  0  0
 26 27  2  0  0  0
 26 48  1  0  0  0
 27 28  1  0  0  0
 27 49  1  0  0  0
 28 29  2  0  0  0
 28 31  1  0  0  0
 29 30  1  0  0  0
 29 50  1  0  0  0
 30 51  1  0  0  0
M  END
> <i_i_glide_confnum>
44

> <i_i_glide_lignum>
2719

> <i_i_glide_posenum>
304

> <i_i_glide_rotatable_bonds>
7

> <i_m_Source_File_Index>
4902

> <b_m_subgroup_collapsed>
0

> <r_i_docking_score>
-5.59837

> <r_i_glide_ecoul>
-2.8984

> <r_i_glide_eff_state_penalty>
0

> <r_i_glide_einternal>
10.7149

> <r_i_glide_emodel>
-59.9671

> <r_i_glide_energy>
-48.4012

> <r_i_glide_erotb>
0.62514

> <r_i_glide_esite>
-0.0116292

> <r_i_glide_evdw>
-45.5028

> <r_i_glide_gscore>
-5.59837

> <r_i_glide_hbond>
-0.32

> <r_i_glide_ligand_efficiency>
-0.180592

> <r_i_glide_ligand_efficiency_ln>
-1.2626

> <r_i_glide_ligand_efficiency_sa>
-0.56731

> <r_i_glide_lipo>
-1.8071

> <r_i_glide_metal>
0

> <r_i_glide_rewards>
-1.37487

> <s_i_glide_gridfile>
wee1_glide-grid

> <s_m_Source_File>
wee1_decoys_glide_SP.sdf

> <s_m_Source_Path>
/Users/zhangxujun/Desktop

> <s_m_entry_id>
5177

> <s_m_entry_name>
wee1_decoys_glide_SP.4902

> <s_m_subgroup_title>
wee1_decoys_glide_SP

> <s_m_subgroupid>
wee1_decoys_glide_SP


$$$$
