ZINC32127331_5496
                    3D
 Schrodinger Suite 2024-2.
 62 66  0  0  1  0            999 V2000
   -5.8253   46.9372   23.3247 C   0  0  0  0  0  0
   -4.7804   46.8383   24.4332 C   0  0  0  0  0  0
   -4.8031   45.6966   25.2439 C   0  0  0  0  0  0
   -3.8746   45.5306   26.2683 C   0  0  0  0  0  0
   -2.8978   46.4966   26.4771 C   0  0  0  0  0  0
   -2.8660   47.6405   25.6822 C   0  0  0  0  0  0
   -3.7998   47.8375   24.6515 C   0  0  0  0  0  0
   -3.8109   49.1578   23.8976 C   0  0  0  0  0  0
   -4.8963   49.7261   23.7437 O   0  0  0  0  0  0
   -2.6404   49.7076   23.4587 N   0  0  0  0  0  0
   -1.4440   48.8984   23.1601 C   0  0  0  0  0  0
   -0.1602   49.7192   23.4354 C   0  0  0  0  0  0
   -0.1470   51.0878   22.8959 N   0  0  0  0  0  0
   -1.3937   51.8131   23.1699 C   0  0  0  0  0  0
   -2.6855   51.0415   22.8367 C   0  0  0  0  0  0
    1.0509   51.7526   22.6484 C   0  0  0  0  0  0
    1.2926   53.0319   23.1684 C   0  0  0  0  0  0
    2.4758   53.7037   22.8781 C   0  0  0  0  0  0
    3.4429   53.0924   22.0741 C   0  0  0  0  0  0
    3.2165   51.8207   21.5493 C   0  0  0  0  0  0
    2.0317   51.1511   21.8490 C   0  0  0  0  0  0
    4.6340   53.7549   21.7374 N   0  0  0  0  0  0
    5.5217   54.3948   22.5531 C   0  0  0  0  0  0
    6.7044   55.2969   21.7901 S   0  0  0  0  0  0
    5.3370   54.1998   23.9020 N   0  0  0  0  0  0
    5.9776   54.6663   25.0041 C   0  0  0  0  0  0
    7.0826   55.2171   25.0060 O   0  0  0  0  0  0
    5.2480   54.4476   26.3158 C   0  0  0  0  0  0
    5.9417   54.6218   27.5344 C   0  0  0  0  0  0
    5.2955   54.4968   28.7695 C   0  0  0  0  0  0
    3.9493   54.1625   28.7676 C   0  0  0  0  0  0
    3.2635   53.9772   27.6039 C   0  0  0  0  0  0
    3.8734   54.1146   26.3622 C   0  0  0  0  0  0
    1.9594   53.7213   27.8864 O   0  0  0  0  0  0
    1.9048   53.5320   29.2757 C   0  0  0  0  0  0
    3.1011   54.0259   29.8210 O   0  0  0  0  0  0
   -6.2863   45.9734   23.1059 H   0  0  0  0  0  0
   -6.6070   47.6463   23.5990 H   0  0  0  0  0  0
   -5.3684   47.2812   22.3965 H   0  0  0  0  0  0
   -5.5590   44.9388   25.0939 H   0  0  0  0  0  0
   -3.9102   44.6579   26.9058 H   0  0  0  0  0  0
   -2.1821   46.3868   27.2816 H   0  0  0  0  0  0
   -2.1254   48.3945   25.9172 H   0  0  0  0  0  0
   -1.4437   48.6748   22.0928 H   0  0  0  0  0  0
   -1.3874   47.9566   23.7021 H   0  0  0  0  0  0
    0.7184   49.1580   23.1163 H   0  0  0  0  0  0
   -0.0851   49.8414   24.5177 H   0  0  0  0  0  0
   -1.3928   52.0103   24.2437 H   0  0  0  0  0  0
   -1.3987   52.7752   22.6567 H   0  0  0  0  0  0
   -3.5360   51.6382   23.1719 H   0  0  0  0  0  0
   -2.7360   50.9312   21.7528 H   0  0  0  0  0  0
    0.5585   53.5210   23.7912 H   0  0  0  0  0  0
    2.6263   54.7043   23.2573 H   0  0  0  0  0  0
    3.9491   51.3485   20.9091 H   0  0  0  0  0  0
    1.8651   50.1711   21.4261 H   0  0  0  0  0  0
    4.8285   53.8015   20.7470 H   0  0  0  0  0  0
    4.4980   53.6857   24.1188 H   0  0  0  0  0  0
    6.9891   54.8908   27.5418 H   0  0  0  0  0  0
    5.8377   54.6903   29.6807 H   0  0  0  0  0  0
    3.2784   53.9855   25.4730 H   0  0  0  0  0  0
    1.0434   54.0501   29.6989 H   0  0  0  0  0  0
    1.8227   52.4636   29.4865 H   0  0  0  0  0  0
  1  2  1  0  0  0
  1 37  1  0  0  0
  1 38  1  0  0  0
  1 39  1  0  0  0
  2  7  2  0  0  0
  2  3  1  0  0  0
  3  4  2  0  0  0
  3 40  1  0  0  0
  4  5  1  0  0  0
  4 41  1  0  0  0
  5  6  2  0  0  0
  5 42  1  0  0  0
  6  7  1  0  0  0
  6 43  1  0  0  0
  7  8  1  0  0  0
  8  9  2  0  0  0
  8 10  1  0  0  0
 10 15  1  0  0  0
 10 11  1  0  0  0
 11 12  1  0  0  0
 11 44  1  0  0  0
 11 45  1  0  0  0
 12 13  1  0  0  0
 12 46  1  0  0  0
 12 47  1  0  0  0
 13 14  1  0  0  0
 13 16  1  0  0  0
 14 15  1  0  0  0
 14 48  1  0  0  0
 14 49  1  0  0  0
 15 50  1  0  0  0
 15 51  1  0  0  0
 16 21  2  0  0  0
 16 17  1  0  0  0
 17 18  2  0  0  0
 17 52  1  0  0  0
 18 19  1  0  0  0
 18 53  1  0  0  0
 19 20  2  0  0  0
 19 22  1  0  0  0
 20 21  1  0  0  0
 20 54  1  0  0  0
 21 55  1  0  0  0
 22 23  1  0  0  0
 22 56  1  0  0  0
 23 24  2  0  0  0
 23 25  1  0  0  0
 25 26  1  0  0  0
 25 57  1  0  0  0
 26 27  2  0  0  0
 26 28  1  0  0  0
 28 33  2  0  0  0
 28 29  1  0  0  0
 29 30  2  0  0  0
 29 58  1  0  0  0
 30 31  1  0  0  0
 30 59  1  0  0  0
 31 36  1  0  0  0
 31 32  2  0  0  0
 32 33  1  0  0  0
 32 34  1  0  0  0
 33 60  1  0  0  0
 34 35  1  0  0  0
 35 36  1  0  0  0
 35 61  1  0  0  0
 35 62  1  0  0  0
M  END
> <i_i_glide_confnum>
436

> <i_i_glide_lignum>
5497

> <i_i_glide_posenum>
387

> <i_i_glide_rotatable_bonds>
8

> <i_m_Source_File_Index>
4403

> <b_m_subgroup_collapsed>
0

> <r_i_docking_score>
-5.71205

> <r_i_glide_ecoul>
-4.15178

> <r_i_glide_eff_state_penalty>
0

> <r_i_glide_einternal>
7.25115

> <r_i_glide_emodel>
-61.7926

> <r_i_glide_energy>
-49.5723

> <r_i_glide_erotb>
0.566285

> <r_i_glide_esite>
-0.0020087

> <r_i_glide_evdw>
-45.4205

> <r_i_glide_gscore>
-5.71205

> <r_i_glide_hbond>
-0.604914

> <r_i_glide_ligand_efficiency>
-0.158668

> <r_i_glide_ligand_efficiency_ln>
-1.24622

> <r_i_glide_ligand_efficiency_sa>
-0.523911

> <r_i_glide_lipo>
-1.98938

> <r_i_glide_metal>
0

> <r_i_glide_rewards>
-0.788241

> <s_i_glide_gridfile>
wee1_glide-grid

> <s_m_Source_File>
wee1_decoys_glide_SP.sdf

> <s_m_Source_Path>
/Users/zhangxujun/Desktop

> <s_m_entry_id>
4678

> <s_m_entry_name>
wee1_decoys_glide_SP.4403

> <s_m_subgroup_title>
wee1_decoys_glide_SP

> <s_m_subgroupid>
wee1_decoys_glide_SP


$$$$
