ZINC15636939_2353
                    3D
 Schrodinger Suite 2024-2.
 45 46  0  0  1  0            999 V2000
    3.0349   51.3948   20.9002 C   0  0  0  0  0  0
    2.4119   50.0366   20.5311 C   0  0  0  0  0  0
    2.1132   49.0998   21.7257 C   0  0  0  0  0  0
    0.9029   49.5145   22.5795 C   0  0  0  0  0  0
   -0.1565   48.8972   22.4967 O   0  0  0  0  0  0
    1.0714   50.5860   23.3704 N   0  0  0  0  0  0
    0.0477   51.2809   24.1678 C   0  0  2  0  0  0
   -0.7596   50.5805   24.4020 H   0  0  0  0  0  0
   -0.5280   52.5019   23.3546 C   0  0  0  0  0  0
    0.7050   53.7892   23.2816 Cl  0  0  0  0  0  0
   -0.9880   52.0648   21.6811 Cl  0  0  0  0  0  0
   -1.9999   53.1861   24.0843 Cl  0  0  0  0  0  0
    0.7274   51.6977   25.4079 N   0  0  0  0  0  0
    0.2267   51.9989   26.6434 C   0  0  0  0  0  0
   -1.3195   51.6965   27.1644 S   0  0  0  0  0  0
    1.0899   52.5484   27.5558 N   0  0  0  0  0  0
    2.3766   53.0563   27.3178 C   0  0  0  0  0  0
    3.4618   53.0874   28.2067 C   0  0  0  0  0  0
    4.6086   53.7003   27.6390 C   0  0  0  0  0  0
    4.4058   54.0947   26.3144 C   0  0  0  0  0  0
    2.7971   53.8175   25.8060 S   0  0  0  0  0  0
    5.4633   54.6179   25.3589 C   0  0  0  0  0  0
    6.6877   55.0917   26.1554 C   0  0  0  0  0  0
    7.0841   54.1102   27.2713 C   0  0  0  0  0  0
    5.9685   53.8661   28.3112 C   0  0  0  0  0  0
    3.4330   52.5373   29.5582 C   0  0  0  0  0  0
    3.4136   52.0993   30.6290 N   0  0  0  0  0  0
    3.3413   51.9304   19.9999 H   0  0  0  0  0  0
    2.3309   52.0382   21.4301 H   0  0  0  0  0  0
    3.9218   51.2718   21.5215 H   0  0  0  0  0  0
    3.1044   49.5270   19.8574 H   0  0  0  0  0  0
    1.5084   50.1967   19.9377 H   0  0  0  0  0  0
    2.9917   48.9778   22.3614 H   0  0  0  0  0  0
    1.9121   48.1129   21.3060 H   0  0  0  0  0  0
    1.9472   51.0735   23.2671 H   0  0  0  0  0  0
    1.6728   52.0133   25.2530 H   0  0  0  0  0  0
    0.8356   52.4270   28.5270 H   0  0  0  0  0  0
    5.0846   55.4252   24.7317 H   0  0  0  0  0  0
    5.7661   53.8147   24.6841 H   0  0  0  0  0  0
    6.5025   56.0737   26.5866 H   0  0  0  0  0  0
    7.5046   55.2253   25.4486 H   0  0  0  0  0  0
    7.9519   54.4968   27.7980 H   0  0  0  0  0  0
    7.3825   53.1582   26.8308 H   0  0  0  0  0  0
    6.2185   52.9760   28.8819 H   0  0  0  0  0  0
    5.9236   54.6927   29.0213 H   0  0  0  0  0  0
  1  2  1  0  0  0
  1 28  1  0  0  0
  1 29  1  0  0  0
  1 30  1  0  0  0
  2  3  1  0  0  0
  2 31  1  0  0  0
  2 32  1  0  0  0
  3  4  1  0  0  0
  3 33  1  0  0  0
  3 34  1  0  0  0
  4  5  2  0  0  0
  4  6  1  0  0  0
  6  7  1  0  0  0
  6 35  1  0  0  0
  7  8  1  0  0  0
  7  9  1  0  0  0
  7 13  1  0  0  0
  9 10  1  0  0  0
  9 11  1  0  0  0
  9 12  1  0  0  0
 13 14  1  0  0  0
 13 36  1  0  0  0
 14 15  2  0  0  0
 14 16  1  0  0  0
 16 17  1  0  0  0
 16 37  1  0  0  0
 17 21  1  0  0  0
 17 18  2  0  0  0
 18 19  1  0  0  0
 18 26  1  0  0  0
 19 25  1  0  0  0
 19 20  2  0  0  0
 20 21  1  0  0  0
 20 22  1  0  0  0
 22 23  1  0  0  0
 22 38  1  0  0  0
 22 39  1  0  0  0
 23 24  1  0  0  0
 23 40  1  0  0  0
 23 41  1  0  0  0
 24 25  1  0  0  0
 24 42  1  0  0  0
 24 43  1  0  0  0
 25 44  1  0  0  0
 25 45  1  0  0  0
 26 27  3  0  0  0
M  END
> <i_i_glide_confnum>
241

> <i_i_glide_lignum>
2354

> <i_i_glide_posenum>
29

> <i_i_glide_rotatable_bonds>
10

> <i_m_Source_File_Index>
5839

> <b_m_subgroup_collapsed>
0

> <r_i_docking_score>
-5.27989

> <r_i_glide_ecoul>
-2.33286

> <r_i_glide_eff_state_penalty>
0

> <r_i_glide_einternal>
13.6641

> <r_i_glide_emodel>
-49.7749

> <r_i_glide_energy>
-43.0016

> <r_i_glide_erotb>
0.682307

> <r_i_glide_esite>
-0.052566

> <r_i_glide_evdw>
-40.6687

> <r_i_glide_gscore>
-5.27989

> <r_i_glide_hbond>
-0.315227

> <r_i_glide_ligand_efficiency>
-0.203073

> <r_i_glide_ligand_efficiency_ln>
-1.23997

> <r_i_glide_ligand_efficiency_sa>
-0.601602

> <r_i_glide_lipo>
-2.37976

> <r_i_glide_metal>
0

> <r_i_glide_rewards>
-0.831283

> <s_i_glide_gridfile>
wee1_glide-grid

> <s_m_Source_File>
wee1_decoys_glide_SP.sdf

> <s_m_Source_Path>
/Users/zhangxujun/Desktop

> <s_m_entry_id>
6114

> <s_m_entry_name>
wee1_decoys_glide_SP.5839

> <s_m_subgroup_title>
wee1_decoys_glide_SP

> <s_m_subgroupid>
wee1_decoys_glide_SP


$$$$
