ZINC02677912_4210
                    3D
 Schrodinger Suite 2024-2.
 54 57  0  0  1  0            999 V2000
    3.9976   54.3551   25.7066 C   0  0  0  0  0  0
    3.9736   54.4968   27.0868 C   0  0  0  0  0  0
    5.1679   54.5817   27.7888 C   0  0  0  0  0  0
    6.3905   54.4972   27.1209 C   0  0  0  0  0  0
    6.4118   54.3458   25.7344 C   0  0  0  0  0  0
    5.2104   54.2714   25.0210 C   0  0  0  0  0  0
    5.1926   54.0970   23.5393 C   0  0  0  0  0  0
    6.1164   54.3267   22.5321 C   0  0  0  0  0  0
    5.4936   53.9786   21.3333 C   0  0  0  0  0  0
    4.2225   53.5078   21.6363 C   0  0  0  0  0  0
    4.0497   53.6037   22.9811 O   0  0  0  0  0  0
    3.1450   53.0008   20.7889 C   0  0  0  0  0  0
    1.9262   52.4854   21.1146 C   0  0  0  0  0  0
    0.9725   52.0963   20.0612 C   0  0  0  0  0  0
   -0.2472   52.0957   20.2555 O   0  0  0  0  0  0
    1.4880   51.7834   18.8519 N   0  0  0  0  0  0
    0.7157   51.4546   17.6536 C   0  0  2  0  0  0
    0.1560   50.5219   17.7763 H   0  0  0  0  0  0
    1.6904   51.2624   16.4707 C   0  0  0  0  0  0
    0.8971   51.1838   15.1600 C   0  0  0  0  0  0
   -0.4883   52.4184   15.3851 S   0  0  0  0  0  0
   -0.1555   53.6911   14.7369 O   0  0  0  0  0  0
   -1.7638   51.7498   15.1117 O   0  0  0  0  0  0
   -0.2397   52.5924   17.2318 C   0  0  0  0  0  0
    1.5412   52.3997   22.4330 N   0  0  0  0  0  0
    0.9813   51.3435   23.0743 C   0  0  0  0  0  0
    0.7021   50.2779   22.5191 O   0  0  0  0  0  0
    0.7140   51.5224   24.5562 C   0  0  0  0  0  0
    0.3045   50.4212   25.3237 C   0  0  0  0  0  0
    0.1340   50.5479   26.6989 C   0  0  0  0  0  0
    0.3685   51.7649   27.3269 C   0  0  0  0  0  0
    0.7453   52.8748   26.5816 C   0  0  0  0  0  0
    0.8926   52.7593   25.1991 C   0  0  0  0  0  0
    0.1873   51.8981   29.0374 Cl  0  0  0  0  0  0
    5.1052   54.8951   29.4837 Cl  0  0  0  0  0  0
    3.0683   54.3330   25.1650 H   0  0  0  0  0  0
    3.0310   54.5835   27.6066 H   0  0  0  0  0  0
    7.3146   54.5721   27.6769 H   0  0  0  0  0  0
    7.3582   54.2823   25.2107 H   0  0  0  0  0  0
    7.1165   54.7200   22.6514 H   0  0  0  0  0  0
    5.9192   54.0490   20.3431 H   0  0  0  0  0  0
    3.4245   53.0895   19.7485 H   0  0  0  0  0  0
    2.4891   51.6700   18.7742 H   0  0  0  0  0  0
    2.4040   52.0884   16.4271 H   0  0  0  0  0  0
    2.3043   50.3743   16.6169 H   0  0  0  0  0  0
    1.4323   51.3670   14.2278 H   0  0  0  0  0  0
    0.4423   50.1962   15.1001 H   0  0  0  0  0  0
   -1.1597   52.7584   17.7898 H   0  0  0  0  0  0
    0.3394   53.5143   17.3087 H   0  0  0  0  0  0
    2.0077   53.0554   23.0406 H   0  0  0  0  0  0
    0.1522   49.4491   24.8753 H   0  0  0  0  0  0
   -0.1663   49.6966   27.2816 H   0  0  0  0  0  0
    0.9267   53.8127   27.0828 H   0  0  0  0  0  0
    1.1468   53.6461   24.6397 H   0  0  0  0  0  0
  1  6  2  0  0  0
  1  2  1  0  0  0
  1 36  1  0  0  0
  2  3  2  0  0  0
  2 37  1  0  0  0
  3  4  1  0  0  0
  3 35  1  0  0  0
  4  5  2  0  0  0
  4 38  1  0  0  0
  5  6  1  0  0  0
  5 39  1  0  0  0
  6  7  1  0  0  0
  7 11  1  0  0  0
  7  8  2  0  0  0
  8  9  1  0  0  0
  8 40  1  0  0  0
  9 10  2  0  0  0
  9 41  1  0  0  0
 10 11  1  0  0  0
 10 12  1  0  0  0
 12 13  2  0  0  0
 12 42  1  0  0  0
 13 14  1  0  0  0
 13 25  1  0  0  0
 14 15  2  0  0  0
 14 16  1  0  0  0
 16 17  1  0  0  0
 16 43  1  0  0  0
 17 18  1  0  0  0
 17 24  1  0  0  0
 17 19  1  0  0  0
 19 20  1  0  0  0
 19 44  1  0  0  0
 19 45  1  0  0  0
 20 21  1  0  0  0
 20 46  1  0  0  0
 20 47  1  0  0  0
 21 22  2  0  0  0
 21 23  2  0  0  0
 21 24  1  0  0  0
 24 48  1  0  0  0
 24 49  1  0  0  0
 25 26  1  0  0  0
 25 50  1  0  0  0
 26 27  2  0  0  0
 26 28  1  0  0  0
 28 33  2  0  0  0
 28 29  1  0  0  0
 29 30  2  0  0  0
 29 51  1  0  0  0
 30 31  1  0  0  0
 30 52  1  0  0  0
 31 32  2  0  0  0
 31 34  1  0  0  0
 32 33  1  0  0  0
 32 53  1  0  0  0
 33 54  1  0  0  0
M  END
> <i_i_glide_confnum>
46

> <i_i_glide_lignum>
4211

> <i_i_glide_posenum>
56

> <i_i_glide_rotatable_bonds>
8

> <i_m_Source_File_Index>
337

> <b_m_subgroup_collapsed>
0

> <r_i_docking_score>
-5.10238

> <r_i_glide_ecoul>
-3.80794

> <r_i_glide_eff_state_penalty>
0

> <r_i_glide_einternal>
3.48547

> <r_i_glide_emodel>
-55.9911

> <r_i_glide_energy>
-42.7202

> <r_i_glide_erotb>
0.456928

> <r_i_glide_esite>
-0.0417699

> <r_i_glide_evdw>
-38.9122

> <r_i_glide_gscore>
-5.10238

> <r_i_glide_hbond>
0

> <r_i_glide_ligand_efficiency>
-0.15007

> <r_i_glide_ligand_efficiency_ln>
-1.12726

> <r_i_glide_ligand_efficiency_sa>
-0.486168

> <r_i_glide_lipo>
-2.75939

> <r_i_glide_metal>
0

> <r_i_glide_rewards>
-0.241344

> <s_i_glide_gridfile>
wee1_glide-grid

> <s_m_Source_File>
wee1_decoys_glide_SP.sdf

> <s_m_Source_Path>
/Users/zhangxujun/Desktop

> <s_m_entry_id>
612

> <s_m_entry_name>
wee1_decoys_glide_SP.337

> <s_m_subgroup_title>
wee1_decoys_glide_SP

> <s_m_subgroupid>
wee1_decoys_glide_SP


$$$$
