ZINC21114060_4027
                    3D
 Schrodinger Suite 2024-2.
 71 75  0  0  1  0            999 V2000
    5.5655   60.0890    9.5963 C   0  0  0  0  0  0
    4.9832   60.6205   10.8924 C   0  0  0  0  0  0
    4.3312   61.8559   10.9165 C   0  0  0  0  0  0
    3.8271   62.3629   12.1164 C   0  0  0  0  0  0
    3.9621   61.6200   13.2926 C   0  0  0  0  0  0
    4.5979   60.3745   13.2796 C   0  0  0  0  0  0
    5.1221   59.8861   12.0719 C   0  0  0  0  0  0
    4.6976   59.7085   14.5139 N   0  0  0  0  0  0
    4.8997   58.3933   14.7508 C   0  0  0  0  0  0
    4.9872   57.5348   13.8655 O   0  0  0  0  0  0
    4.9784   57.9621   16.2318 C   0  0  0  0  0  0
    3.7377   57.0584   16.5364 C   0  0  0  0  0  0
    3.8805   56.3567   17.8991 C   0  0  0  0  0  0
    5.1549   55.6278   17.9280 N   0  0  0  0  0  0
    6.3568   56.4791   17.8404 C   0  0  0  0  0  0
    6.3364   57.2149   16.4797 C   0  0  0  0  0  0
    5.2222   53.9632   18.5138 S   0  0  0  0  0  0
    6.5990   53.4793   18.3601 O   0  0  0  0  0  0
    4.0826   53.2547   17.9222 O   0  0  0  0  0  0
    4.9126   54.0545   20.2767 C   0  0  0  0  0  0
    5.9046   54.5020   21.1307 C   0  0  0  0  0  0
    5.7085   54.4966   22.5058 C   0  0  0  0  0  0
    4.4803   54.0968   23.0802 C   0  0  0  0  0  0
    3.4665   53.6507   22.1936 C   0  0  0  0  0  0
    3.7003   53.6357   20.8130 C   0  0  0  0  0  0
    2.1240   53.1638   22.7199 C   0  0  0  0  0  0
    1.8200   53.8263   24.0635 C   0  0  0  0  0  0
    2.9635   53.5648   25.0566 C   0  0  0  0  0  0
    4.2337   54.1003   24.5052 N   0  0  0  0  0  0
    5.1556   54.4965   25.4403 C   0  0  0  0  0  0
    5.9533   55.4185   25.2491 O   0  0  0  0  0  0
    5.2339   53.7234   26.7874 C   0  0  0  0  0  0
    6.4136   54.1256   27.7005 C   0  0  0  0  0  0
    5.4428   53.9495   28.8753 C   0  0  0  0  0  0
    4.2981   54.2376   27.8964 C   0  0  0  0  0  0
    3.1151   63.7016   12.1377 C   0  0  0  0  0  0
    5.7916   60.8962    8.9002 H   0  0  0  0  0  0
    6.5043   59.5672    9.7846 H   0  0  0  0  0  0
    4.8717   59.3931    9.1249 H   0  0  0  0  0  0
    4.2250   62.4254   10.0062 H   0  0  0  0  0  0
    3.5708   62.0118   14.2205 H   0  0  0  0  0  0
    5.6496   58.9470   12.0372 H   0  0  0  0  0  0
    4.5484   60.3033   15.3294 H   0  0  0  0  0  0
    4.9380   58.8513   16.8653 H   0  0  0  0  0  0
    3.6501   56.2390   15.8164 H   0  0  0  0  0  0
    2.8183   57.6458   16.5715 H   0  0  0  0  0  0
    3.0563   55.6688   18.0941 H   0  0  0  0  0  0
    3.9036   57.0877   18.7032 H   0  0  0  0  0  0
    6.3439   57.1948   18.6647 H   0  0  0  0  0  0
    7.2520   55.8671   17.9538 H   0  0  0  0  0  0
    7.1747   57.9141   16.4718 H   0  0  0  0  0  0
    6.4911   56.4197   15.7434 H   0  0  0  0  0  0
    6.8540   54.8313   20.7311 H   0  0  0  0  0  0
    6.5513   54.8136   23.0971 H   0  0  0  0  0  0
    2.9191   53.2895   20.1552 H   0  0  0  0  0  0
    2.1613   52.0797   22.8381 H   0  0  0  0  0  0
    1.3255   53.3762   22.0077 H   0  0  0  0  0  0
    0.8878   53.4248   24.4639 H   0  0  0  0  0  0
    1.6592   54.8971   23.9421 H   0  0  0  0  0  0
    3.0782   52.4934   25.2131 H   0  0  0  0  0  0
    2.6850   54.0229   26.0034 H   0  0  0  0  0  0
    5.1828   52.6464   26.6306 H   0  0  0  0  0  0
    6.7512   55.1603   27.6170 H   0  0  0  0  0  0
    7.2766   53.4578   27.6887 H   0  0  0  0  0  0
    5.5478   54.6779   29.6818 H   0  0  0  0  0  0
    5.4245   52.9319   29.2789 H   0  0  0  0  0  0
    3.3879   53.6581   28.0647 H   0  0  0  0  0  0
    4.0573   55.2969   27.8361 H   0  0  0  0  0  0
    2.6572   63.9208   11.1716 H   0  0  0  0  0  0
    2.3082   63.7006   12.8711 H   0  0  0  0  0  0
    3.8118   64.5015   12.3907 H   0  0  0  0  0  0
  1  2  1  0  0  0
  1 37  1  0  0  0
  1 38  1  0  0  0
  1 39  1  0  0  0
  2  7  2  0  0  0
  2  3  1  0  0  0
  3  4  2  0  0  0
  3 40  1  0  0  0
  4  5  1  0  0  0
  4 36  1  0  0  0
  5  6  2  0  0  0
  5 41  1  0  0  0
  6  7  1  0  0  0
  6  8  1  0  0  0
  7 42  1  0  0  0
  8  9  1  0  0  0
  8 43  1  0  0  0
  9 10  2  0  0  0
  9 11  1  0  0  0
 11 16  1  0  0  0
 11 12  1  0  0  0
 11 44  1  0  0  0
 12 13  1  0  0  0
 12 45  1  0  0  0
 12 46  1  0  0  0
 13 14  1  0  0  0
 13 47  1  0  0  0
 13 48  1  0  0  0
 14 15  1  0  0  0
 14 17  1  0  0  0
 15 16  1  0  0  0
 15 49  1  0  0  0
 15 50  1  0  0  0
 16 51  1  0  0  0
 16 52  1  0  0  0
 17 18  2  0  0  0
 17 19  2  0  0  0
 17 20  1  0  0  0
 20 25  2  0  0  0
 20 21  1  0  0  0
 21 22  2  0  0  0
 21 53  1  0  0  0
 22 23  1  0  0  0
 22 54  1  0  0  0
 23 29  1  0  0  0
 23 24  2  0  0  0
 24 25  1  0  0  0
 24 26  1  0  0  0
 25 55  1  0  0  0
 26 27  1  0  0  0
 26 56  1  0  0  0
 26 57  1  0  0  0
 27 28  1  0  0  0
 27 58  1  0  0  0
 27 59  1  0  0  0
 28 29  1  0  0  0
 28 60  1  0  0  0
 28 61  1  0  0  0
 29 30  1  0  0  0
 30 31  2  0  0  0
 30 32  1  0  0  0
 32 35  1  0  0  0
 32 33  1  0  0  0
 32 62  1  0  0  0
 33 34  1  0  0  0
 33 63  1  0  0  0
 33 64  1  0  0  0
 34 35  1  0  0  0
 34 65  1  0  0  0
 34 66  1  0  0  0
 35 67  1  0  0  0
 35 68  1  0  0  0
 36 69  1  0  0  0
 36 70  1  0  0  0
 36 71  1  0  0  0
M  END
> <i_i_glide_confnum>
277

> <i_i_glide_lignum>
4028

> <i_i_glide_posenum>
308

> <i_i_glide_rotatable_bonds>
7

> <i_m_Source_File_Index>
1068

> <b_m_subgroup_collapsed>
0

> <r_i_docking_score>
-4.5718

> <r_i_glide_ecoul>
-4.37377

> <r_i_glide_eff_state_penalty>
0

> <r_i_glide_einternal>
5.83471

> <r_i_glide_emodel>
-46.423

> <r_i_glide_energy>
-37.8957

> <r_i_glide_erotb>
0.551943

> <r_i_glide_esite>
-0.248832

> <r_i_glide_evdw>
-33.5219

> <r_i_glide_gscore>
-4.5718

> <r_i_glide_hbond>
-0.16

> <r_i_glide_ligand_efficiency>
-0.126995

> <r_i_glide_ligand_efficiency_ln>
-0.997444

> <r_i_glide_ligand_efficiency_sa>
-0.419327

> <r_i_glide_lipo>
-2.4213

> <r_i_glide_metal>
0

> <r_i_glide_rewards>
0.0385464

> <s_i_glide_gridfile>
wee1_glide-grid

> <s_m_Source_File>
wee1_decoys_glide_SP.sdf

> <s_m_Source_Path>
/Users/zhangxujun/Desktop

> <s_m_entry_id>
1343

> <s_m_entry_name>
wee1_decoys_glide_SP.1068

> <s_m_subgroup_title>
wee1_decoys_glide_SP

> <s_m_subgroupid>
wee1_decoys_glide_SP


$$$$
