ZINC39665089_1282
                    3D
 Schrodinger Suite 2024-2.
 69 72  0  0  1  0            999 V2000
    6.7274   53.5438   27.9052 C   0  0  0  0  0  0
    6.2117   54.8511   27.2831 C   0  0  0  0  0  0
    5.6299   54.6425   25.8937 C   0  0  0  0  0  0
    4.2514   54.7135   25.6815 C   0  0  0  0  0  0
    3.7264   54.4719   24.4127 C   0  0  0  0  0  0
    4.5698   54.0964   23.3543 C   0  0  0  0  0  0
    5.9551   54.0971   23.5684 C   0  0  0  0  0  0
    6.4796   54.3691   24.8248 C   0  0  0  0  0  0
    4.0614   53.7333   21.9718 C   0  0  0  0  0  0
    4.6946   54.1530   20.9999 O   0  0  0  0  0  0
    3.0056   52.8861   21.8102 N   0  0  0  0  0  0
    2.1429   52.3024   22.8348 C   0  0  0  0  0  0
    0.9116   51.8274   22.0376 C   0  0  1  0  0  0
    0.2536   52.6888   21.9076 H   0  0  0  0  0  0
    1.4853   51.3676   20.6679 C   0  0  0  0  0  0
    2.6021   52.4353   20.4732 C   0  0  0  0  0  0
    0.4571   51.3577   19.5111 C   0  0  0  0  0  0
    1.1596   51.1472   18.1442 C   0  0  0  0  0  0
    1.9044   49.7917   18.1609 N   0  3  0  0  0  0
    2.7868   49.5463   19.4070 C   0  0  0  0  0  0
    2.0256   49.9040   20.6889 C   0  0  0  0  0  0
    0.2138   50.7720   22.9320 C   0  0  0  0  0  0
    0.8485   49.8269   23.4059 O   0  0  0  0  0  0
   -1.0680   51.0136   23.2559 N   0  0  0  0  0  0
   -1.8076   50.2630   24.2783 C   0  0  0  0  0  0
   -1.8394   50.9744   25.6540 C   0  0  2  0  0  0
   -2.2064   50.2277   26.3606 H   0  0  0  0  0  0
   -2.7673   52.2084   25.6613 C   0  0  0  0  0  0
   -0.5043   51.3723   25.9904 O   0  0  0  0  0  0
   -0.1504   51.6785   27.2897 C   0  0  0  0  0  0
    1.0979   52.2782   27.4633 C   0  0  0  0  0  0
    1.5493   52.6164   28.7363 C   0  0  0  0  0  0
    0.7507   52.3428   29.8437 C   0  0  0  0  0  0
   -0.4890   51.7263   29.6874 C   0  0  0  0  0  0
   -0.9454   51.4113   28.4135 C   0  0  0  0  0  0
    7.1541   53.7206   28.8916 H   0  0  0  0  0  0
    5.9225   52.8167   28.0162 H   0  0  0  0  0  0
    7.5037   53.0878   27.2913 H   0  0  0  0  0  0
    7.0198   55.5802   27.2241 H   0  0  0  0  0  0
    5.4644   55.2946   27.9413 H   0  0  0  0  0  0
    3.5853   54.9624   26.4955 H   0  0  0  0  0  0
    2.6652   54.6034   24.2781 H   0  0  0  0  0  0
    6.6405   53.8553   22.7672 H   0  0  0  0  0  0
    7.5453   54.3372   24.9676 H   0  0  0  0  0  0
    1.8052   52.9571   23.6306 H   0  0  0  0  0  0
    2.6987   51.4589   23.2494 H   0  0  0  0  0  0
    3.4142   52.1327   19.8139 H   0  0  0  0  0  0
    2.1379   53.2966   19.9958 H   0  0  0  0  0  0
   -0.3465   50.6386   19.6843 H   0  0  0  0  0  0
   -0.0322   52.3316   19.4680 H   0  0  0  0  0  0
    0.4545   51.0969   17.3140 H   0  0  0  0  0  0
    1.9119   51.9057   17.9166 H   0  0  0  0  0  0
    1.2318   49.0426   18.0937 H   0  0  0  0  0  0
    3.1007   48.5020   19.3628 H   0  0  0  0  0  0
    3.6550   50.1776   19.2832 H   0  0  0  0  0  0
    2.7358   49.7923   21.5100 H   0  0  0  0  0  0
    1.2423   49.1707   20.8831 H   0  0  0  0  0  0
   -1.5394   51.7994   22.8373 H   0  0  0  0  0  0
   -1.3867   49.2619   24.4125 H   0  0  0  0  0  0
   -2.8258   50.1010   23.9207 H   0  0  0  0  0  0
   -3.7864   51.9424   25.3750 H   0  0  0  0  0  0
   -2.8188   52.6664   26.6472 H   0  0  0  0  0  0
   -2.4115   52.9687   24.9672 H   0  0  0  0  0  0
    1.7196   52.4762   26.6008 H   0  0  0  0  0  0
    2.5170   53.0799   28.8628 H   0  0  0  0  0  0
    1.0951   52.5936   30.8367 H   0  0  0  0  0  0
   -1.0925   51.4914   30.5538 H   0  0  0  0  0  0
   -1.9030   50.9218   28.3347 H   0  0  0  0  0  0
    2.5193   49.6978   17.3506 H   0  0  0  0  0  0
  1  2  1  0  0  0
  1 36  1  0  0  0
  1 37  1  0  0  0
  1 38  1  0  0  0
  2  3  1  0  0  0
  2 39  1  0  0  0
  2 40  1  0  0  0
  3  8  2  0  0  0
  3  4  1  0  0  0
  4  5  2  0  0  0
  4 41  1  0  0  0
  5  6  1  0  0  0
  5 42  1  0  0  0
  6  7  2  0  0  0
  6  9  1  0  0  0
  7  8  1  0  0  0
  7 43  1  0  0  0
  8 44  1  0  0  0
  9 10  2  0  0  0
  9 11  1  0  0  0
 11 16  1  0  0  0
 11 12  1  0  0  0
 12 13  1  0  0  0
 12 45  1  0  0  0
 12 46  1  0  0  0
 13 14  1  0  0  0
 13 15  1  0  0  0
 13 22  1  0  0  0
 15 21  1  0  0  0
 15 16  1  0  0  0
 15 17  1  0  0  0
 16 47  1  0  0  0
 16 48  1  0  0  0
 17 18  1  0  0  0
 17 49  1  0  0  0
 17 50  1  0  0  0
 18 19  1  0  0  0
 18 51  1  0  0  0
 18 52  1  0  0  0
 19 20  1  0  0  0
 19 53  1  0  0  0
 19 69  1  0  0  0
 20 21  1  0  0  0
 20 54  1  0  0  0
 20 55  1  0  0  0
 21 56  1  0  0  0
 21 57  1  0  0  0
 22 23  2  0  0  0
 22 24  1  0  0  0
 24 25  1  0  0  0
 24 58  1  0  0  0
 25 26  1  0  0  0
 25 59  1  0  0  0
 25 60  1  0  0  0
 26 27  1  0  0  0
 26 28  1  0  0  0
 26 29  1  0  0  0
 28 61  1  0  0  0
 28 62  1  0  0  0
 28 63  1  0  0  0
 29 30  1  0  0  0
 30 35  2  0  0  0
 30 31  1  0  0  0
 31 32  2  0  0  0
 31 64  1  0  0  0
 32 33  1  0  0  0
 32 65  1  0  0  0
 33 34  2  0  0  0
 33 66  1  0  0  0
 34 35  1  0  0  0
 34 67  1  0  0  0
 35 68  1  0  0  0
M  CHG  1  19   1
M  END
> <i_i_glide_confnum>
176

> <i_i_glide_lignum>
1283

> <i_i_glide_posenum>
299

> <i_i_glide_rotatable_bonds>
9

> <i_m_Source_File_Index>
1361

> <b_m_subgroup_collapsed>
0

> <r_i_docking_score>
-5.54026

> <r_i_glide_ecoul>
-2.57917

> <r_i_glide_eff_state_penalty>
0

> <r_i_glide_einternal>
10.8387

> <r_i_glide_emodel>
-58.5493

> <r_i_glide_energy>
-43.7504

> <r_i_glide_erotb>
0.691272

> <r_i_glide_esite>
-0.1

> <r_i_glide_evdw>
-41.1712

> <r_i_glide_gscore>
-5.54026

> <r_i_glide_hbond>
-0.196231

> <r_i_glide_ligand_efficiency>
-0.167887

> <r_i_glide_ligand_efficiency_ln>
-1.23213

> <r_i_glide_ligand_efficiency_sa>
-0.538502

> <r_i_glide_lipo>
-2.75225

> <r_i_glide_metal>
0

> <r_i_glide_rewards>
-0.737611

> <s_i_glide_gridfile>
wee1_glide-grid

> <s_m_Source_File>
wee1_decoys_glide_SP.sdf

> <s_m_Source_Path>
/Users/zhangxujun/Desktop

> <s_m_entry_id>
1636

> <s_m_entry_name>
wee1_decoys_glide_SP.1361

> <s_m_subgroup_title>
wee1_decoys_glide_SP

> <s_m_subgroupid>
wee1_decoys_glide_SP


$$$$
