ZINC30974518_1129
                    3D
 Schrodinger Suite 2024-2.
 53 56  0  0  1  0            999 V2000
    3.3095   55.6694   16.6774 C   0  0  0  0  0  0
    4.4690   56.0124   17.5953 C   0  0  0  0  0  0
    5.3560   57.0368   17.2573 C   0  0  0  0  0  0
    6.4240   57.3408   18.0987 C   0  0  0  0  0  0
    6.6038   56.6287   19.2846 C   0  0  0  0  0  0
    5.7152   55.6080   19.6520 C   0  0  0  0  0  0
    4.6607   55.2962   18.7787 C   0  0  0  0  0  0
    5.8530   54.8967   20.9701 C   0  0  0  0  0  0
    6.7044   55.2969   21.8984 N   0  0  0  0  0  0
    6.4559   54.4758   22.8783 C   0  0  0  0  0  0
    5.5168   53.5444   22.5858 O   0  0  0  0  0  0
    5.1037   53.8577   21.2931 N   0  0  0  0  0  0
    7.1042   54.4543   24.2454 C   0  0  0  0  0  0
    6.0633   54.1024   25.3372 N   0  3  2  0  0  0
    4.9568   55.1802   25.4089 C   0  0  0  0  0  0
    3.8902   54.6809   26.3877 C   0  0  0  0  0  0
    4.4889   54.3699   27.7933 C   0  0  2  0  0  0
    5.6932   53.4110   27.7253 C   0  0  0  0  0  0
    6.7412   53.9155   26.7191 C   0  0  0  0  0  0
    3.4004   53.7721   28.7157 C   0  0  0  0  0  0
    3.3440   54.0965   29.9024 O   0  0  0  0  0  0
    2.5487   52.9330   28.0970 N   0  0  0  0  0  0
    1.2966   52.4510   28.4759 C   0  0  0  0  0  0
    0.7849   52.4968   29.7795 C   0  0  0  0  0  0
   -0.5093   52.0405   30.0228 C   0  0  0  0  0  0
   -1.2924   51.5456   28.9757 C   0  0  0  0  0  0
   -0.7807   51.4973   27.6847 C   0  0  0  0  0  0
    0.5074   51.9503   27.4317 C   0  0  0  0  0  0
    0.9752   51.9221   26.1594 F   0  0  0  0  0  0
   -3.0562   50.8967   29.2815 Br  0  0  0  0  0  0
    3.5251   55.9474   15.6452 H   0  0  0  0  0  0
    3.1223   54.5949   16.6788 H   0  0  0  0  0  0
    2.4015   56.1771   17.0019 H   0  0  0  0  0  0
    5.2180   57.6017   16.3468 H   0  0  0  0  0  0
    7.1065   58.1351   17.8316 H   0  0  0  0  0  0
    7.4371   56.8849   19.9204 H   0  0  0  0  0  0
    3.9555   54.5170   19.0319 H   0  0  0  0  0  0
    7.5041   55.4286   24.5261 H   0  0  0  0  0  0
    7.8897   53.6980   24.2983 H   0  0  0  0  0  0
    5.4276   56.1197   25.6826 H   0  0  0  0  0  0
    4.5109   55.2814   24.4183 H   0  0  0  0  0  0
    3.5116   53.7836   25.8940 H   0  0  0  0  0  0
    3.1047   55.4316   26.4604 H   0  0  0  0  0  0
    4.7868   55.2962   28.2815 H   0  0  0  0  0  0
    6.1930   53.3196   28.6919 H   0  0  0  0  0  0
    5.3858   52.4432   27.3408 H   0  0  0  0  0  0
    7.1925   54.8635   27.0176 H   0  0  0  0  0  0
    7.5044   53.1485   26.5986 H   0  0  0  0  0  0
    2.7727   52.7206   27.1370 H   0  0  0  0  0  0
    1.3643   52.8704   30.6095 H   0  0  0  0  0  0
   -0.8956   52.0559   31.0303 H   0  0  0  0  0  0
   -1.3791   51.0938   26.8812 H   0  0  0  0  0  0
    5.6444   53.2203   25.0639 H   0  0  0  0  0  0
  1  2  1  0  0  0
  1 31  1  0  0  0
  1 32  1  0  0  0
  1 33  1  0  0  0
  2  7  2  0  0  0
  2  3  1  0  0  0
  3  4  2  0  0  0
  3 34  1  0  0  0
  4  5  1  0  0  0
  4 35  1  0  0  0
  5  6  2  0  0  0
  5 36  1  0  0  0
  6  7  1  0  0  0
  6  8  1  0  0  0
  7 37  1  0  0  0
  8 12  2  0  0  0
  8  9  1  0  0  0
  9 10  2  0  0  0
 10 11  1  0  0  0
 10 13  1  0  0  0
 11 12  1  0  0  0
 13 14  1  0  0  0
 13 38  1  0  0  0
 13 39  1  0  0  0
 14 19  1  0  0  0
 14 15  1  0  0  0
 14 53  1  0  0  0
 15 16  1  0  0  0
 15 40  1  0  0  0
 15 41  1  0  0  0
 16 17  1  0  0  0
 16 42  1  0  0  0
 16 43  1  0  0  0
 17 18  1  0  0  0
 17 20  1  0  0  0
 17 44  1  0  0  0
 18 19  1  0  0  0
 18 45  1  0  0  0
 18 46  1  0  0  0
 19 47  1  0  0  0
 19 48  1  0  0  0
 20 21  2  0  0  0
 20 22  1  0  0  0
 22 23  1  0  0  0
 22 49  1  0  0  0
 23 28  2  0  0  0
 23 24  1  0  0  0
 24 25  2  0  0  0
 24 50  1  0  0  0
 25 26  1  0  0  0
 25 51  1  0  0  0
 26 27  2  0  0  0
 26 30  1  0  0  0
 27 28  1  0  0  0
 27 52  1  0  0  0
 28 29  1  0  0  0
M  CHG  1  14   1
M  END
> <i_i_glide_confnum>
24

> <i_i_glide_lignum>
1130

> <i_i_glide_posenum>
45

> <i_i_glide_rotatable_bonds>
6

> <i_m_Source_File_Index>
2666

> <b_m_subgroup_collapsed>
0

> <r_i_docking_score>
-5.55034

> <r_i_glide_ecoul>
-4.01808

> <r_i_glide_eff_state_penalty>
0

> <r_i_glide_einternal>
9.24601

> <r_i_glide_emodel>
-57.0535

> <r_i_glide_energy>
-45.0439

> <r_i_glide_erotb>
0.539571

> <r_i_glide_esite>
0

> <r_i_glide_evdw>
-41.0258

> <r_i_glide_gscore>
-5.55034

> <r_i_glide_hbond>
-0.32

> <r_i_glide_ligand_efficiency>
-0.185011

> <r_i_glide_ligand_efficiency_ln>
-1.2611

> <r_i_glide_ligand_efficiency_sa>
-0.574873

> <r_i_glide_lipo>
-2.28894

> <r_i_glide_metal>
0

> <r_i_glide_rewards>
-0.826963

> <s_i_glide_gridfile>
wee1_glide-grid

> <s_m_Source_File>
wee1_decoys_glide_SP.sdf

> <s_m_Source_Path>
/Users/zhangxujun/Desktop

> <s_m_entry_id>
2941

> <s_m_entry_name>
wee1_decoys_glide_SP.2666

> <s_m_subgroup_title>
wee1_decoys_glide_SP

> <s_m_subgroupid>
wee1_decoys_glide_SP


$$$$
