ZINC13353907_4930
                    3D
 Schrodinger Suite 2024-2.
 62 65  0  0  1  0            999 V2000
   -5.1981   54.3826   24.4812 C   0  0  0  0  0  0
   -5.7133   53.5667   25.5256 O   0  0  0  0  0  0
   -4.8613   52.6905   26.1728 C   0  0  0  0  0  0
   -3.4855   52.6293   25.9191 C   0  0  0  0  0  0
   -2.6615   51.7291   26.6009 C   0  0  0  0  0  0
   -3.2256   50.8966   27.5689 C   0  0  0  0  0  0
   -4.6021   50.9378   27.8484 C   0  0  0  0  0  0
   -5.4107   51.8449   27.1457 C   0  0  0  0  0  0
   -6.7623   51.9002   27.3977 O   0  0  0  0  0  0
   -7.1169   52.7464   28.4839 C   0  0  0  0  0  0
   -5.2228   50.1410   28.7937 O   0  0  0  0  0  0
   -4.4503   49.2049   29.5393 C   0  0  0  0  0  0
   -1.2673   51.6851   26.4128 N   0  0  0  0  0  0
   -0.5780   52.0967   25.3282 C   0  0  0  0  0  0
   -1.0739   52.2812   24.2127 O   0  0  0  0  0  0
    0.7065   52.3531   25.6398 N   0  0  0  0  0  0
    1.7054   52.8435   24.7826 C   0  0  0  0  0  0
    2.6711   53.6776   25.3548 C   0  0  0  0  0  0
    3.7535   54.1576   24.6186 C   0  0  0  0  0  0
    3.8538   53.7689   23.2773 C   0  0  0  0  0  0
    2.8769   52.9329   22.6749 C   0  0  0  0  0  0
    1.7934   52.4683   23.4328 C   0  0  0  0  0  0
    3.1070   52.6198   21.3714 N   0  0  0  0  0  0
    4.1902   53.1899   20.9259 C   0  0  0  0  0  0
    5.0974   54.1398   22.0975 S   0  0  0  0  0  0
    4.5488   53.0278   19.5980 N   0  0  0  0  0  0
    5.5006   53.6842   18.8966 C   0  0  0  0  0  0
    6.2824   54.4969   19.3939 O   0  0  0  0  0  0
    5.6402   53.3169   17.3898 C   0  0  0  0  0  0
    4.2846   52.8981   16.7421 C   0  0  0  0  0  0
    3.2607   54.0522   16.6321 C   0  0  0  0  0  0
    3.8533   55.2681   15.8872 C   0  0  0  0  0  0
    5.2208   55.7097   16.4533 C   0  0  0  0  0  0
    6.2032   54.5200   16.5763 C   0  0  0  0  0  0
   -6.0230   54.8967   23.9926 H   0  0  0  0  0  0
   -4.4983   55.1280   24.8625 H   0  0  0  0  0  0
   -4.6901   53.7918   23.7180 H   0  0  0  0  0  0
   -3.0450   53.3005   25.2017 H   0  0  0  0  0  0
   -2.5863   50.2106   28.1025 H   0  0  0  0  0  0
   -8.2031   52.8080   28.5495 H   0  0  0  0  0  0
   -6.7461   52.3524   29.4328 H   0  0  0  0  0  0
   -6.7337   53.7613   28.3501 H   0  0  0  0  0  0
   -5.1030   48.6570   30.2184 H   0  0  0  0  0  0
   -3.9620   48.4735   28.8930 H   0  0  0  0  0  0
   -3.6963   49.7079   30.1458 H   0  0  0  0  0  0
   -0.7477   51.2573   27.1650 H   0  0  0  0  0  0
    0.9487   52.3399   26.6185 H   0  0  0  0  0  0
    2.5956   53.9479   26.3983 H   0  0  0  0  0  0
    4.5015   54.7904   25.0755 H   0  0  0  0  0  0
    1.0660   51.8090   22.9863 H   0  0  0  0  0  0
    3.9934   52.3626   19.0802 H   0  0  0  0  0  0
    6.3584   52.4975   17.3843 H   0  0  0  0  0  0
    3.8763   52.0021   17.2121 H   0  0  0  0  0  0
    4.5028   52.5143   15.7433 H   0  0  0  0  0  0
    2.9290   54.3577   17.6255 H   0  0  0  0  0  0
    2.3666   53.7029   16.1148 H   0  0  0  0  0  0
    3.1535   56.1046   15.9220 H   0  0  0  0  0  0
    3.9708   55.0167   14.8323 H   0  0  0  0  0  0
    5.0759   56.1704   17.4310 H   0  0  0  0  0  0
    5.6524   56.4854   15.8209 H   0  0  0  0  0  0
    6.4693   54.1552   15.5828 H   0  0  0  0  0  0
    7.1845   54.8182   16.9500 H   0  0  0  0  0  0
  1  2  1  0  0  0
  1 35  1  0  0  0
  1 36  1  0  0  0
  1 37  1  0  0  0
  2  3  1  0  0  0
  3  8  2  0  0  0
  3  4  1  0  0  0
  4  5  2  0  0  0
  4 38  1  0  0  0
  5  6  1  0  0  0
  5 13  1  0  0  0
  6  7  2  0  0  0
  6 39  1  0  0  0
  7  8  1  0  0  0
  7 11  1  0  0  0
  8  9  1  0  0  0
  9 10  1  0  0  0
 10 40  1  0  0  0
 10 41  1  0  0  0
 10 42  1  0  0  0
 11 12  1  0  0  0
 12 43  1  0  0  0
 12 44  1  0  0  0
 12 45  1  0  0  0
 13 14  1  0  0  0
 13 46  1  0  0  0
 14 15  2  0  0  0
 14 16  1  0  0  0
 16 17  1  0  0  0
 16 47  1  0  0  0
 17 22  2  0  0  0
 17 18  1  0  0  0
 18 19  2  0  0  0
 18 48  1  0  0  0
 19 20  1  0  0  0
 19 49  1  0  0  0
 20 25  1  0  0  0
 20 21  2  0  0  0
 21 22  1  0  0  0
 21 23  1  0  0  0
 22 50  1  0  0  0
 23 24  2  0  0  0
 24 25  1  0  0  0
 24 26  1  0  0  0
 26 27  1  0  0  0
 26 51  1  0  0  0
 27 28  2  0  0  0
 27 29  1  0  0  0
 29 34  1  0  0  0
 29 30  1  0  0  0
 29 52  1  0  0  0
 30 31  1  0  0  0
 30 53  1  0  0  0
 30 54  1  0  0  0
 31 32  1  0  0  0
 31 55  1  0  0  0
 31 56  1  0  0  0
 32 33  1  0  0  0
 32 57  1  0  0  0
 32 58  1  0  0  0
 33 34  1  0  0  0
 33 59  1  0  0  0
 33 60  1  0  0  0
 34 61  1  0  0  0
 34 62  1  0  0  0
M  END
> <i_i_glide_confnum>
200

> <i_i_glide_lignum>
4931

> <i_i_glide_posenum>
157

> <i_i_glide_rotatable_bonds>
10

> <i_m_Source_File_Index>
2726

> <b_m_subgroup_collapsed>
0

> <r_i_docking_score>
-3.35111

> <r_i_glide_ecoul>
-3.63275

> <r_i_glide_eff_state_penalty>
0

> <r_i_glide_einternal>
4.96646

> <r_i_glide_emodel>
-48.7781

> <r_i_glide_energy>
-40.2239

> <r_i_glide_erotb>
0.605442

> <r_i_glide_esite>
-0.130051

> <r_i_glide_evdw>
-36.5912

> <r_i_glide_gscore>
-3.35111

> <r_i_glide_hbond>
0

> <r_i_glide_ligand_efficiency>
-0.098562

> <r_i_glide_ligand_efficiency_ln>
-0.740354

> <r_i_glide_ligand_efficiency_sa>
-0.319303

> <r_i_glide_lipo>
-1.46288

> <r_i_glide_metal>
0

> <r_i_glide_rewards>
0.0108456

> <s_i_glide_gridfile>
wee1_glide-grid

> <s_m_Source_File>
wee1_decoys_glide_SP.sdf

> <s_m_Source_Path>
/Users/zhangxujun/Desktop

> <s_m_entry_id>
3001

> <s_m_entry_name>
wee1_decoys_glide_SP.2726

> <s_m_subgroup_title>
wee1_decoys_glide_SP

> <s_m_subgroupid>
wee1_decoys_glide_SP


$$$$
