ZINC19818670_874
                    3D
 Schrodinger Suite 2024-2.
 65 68  0  0  1  0            999 V2000
    0.7026   49.2980   23.2390 C   0  0  0  0  0  0
    0.4358   50.1516   24.3075 C   0  0  0  0  0  0
    0.8975   51.4663   24.2754 C   0  0  0  0  0  0
    1.6355   51.9261   23.1851 C   0  0  0  0  0  0
    1.9276   51.0707   22.1046 C   0  0  0  0  0  0
    1.4368   49.7560   22.1431 C   0  0  0  0  0  0
    2.6323   51.5480   21.0037 N   0  0  0  0  0  0
    4.0094   52.0411   21.1659 C   0  0  0  0  0  0
    4.4178   53.1193   20.1431 C   0  0  0  0  0  0
    4.1535   52.6334   18.7011 N   0  3  0  0  0  0
    2.6904   52.1683   18.5648 C   0  0  0  0  0  0
    2.3729   51.0939   19.6272 C   0  0  0  0  0  0
    4.4683   53.7627   17.6864 C   0  0  0  0  0  0
    5.9922   53.9172   17.4658 C   0  0  0  0  0  0
    6.6643   52.8968   17.3337 O   0  0  0  0  0  0
    6.5452   55.1561   17.3522 N   0  0  0  0  0  0
    7.9606   55.2675   16.9619 C   0  0  0  0  0  0
    8.8183   55.2410   18.2464 C   0  0  0  0  0  0
    8.3074   56.1782   19.2593 N   0  0  0  0  0  0
    7.0476   56.6599   19.3325 C   0  0  0  0  0  0
    6.7043   57.2966   20.3240 O   0  0  0  0  0  0
    6.0745   56.3030   18.1689 C   0  0  1  0  0  0
    5.2085   56.0112   18.7595 H   0  0  0  0  0  0
    5.6589   57.5920   17.3846 C   0  0  0  0  0  0
    4.3537   57.4467   16.5813 C   0  0  0  0  0  0
    3.9945   56.3377   16.1851 O   0  0  0  0  0  0
    3.6549   58.5738   16.3392 N   0  0  0  0  0  0
    2.3557   58.6514   15.8082 C   0  0  0  0  0  0
    2.0266   59.7884   15.0680 C   0  0  0  0  0  0
    0.7300   59.9606   14.5858 C   0  0  0  0  0  0
   -0.2542   59.0112   14.8630 C   0  0  0  0  0  0
    0.0500   57.8758   15.6255 C   0  0  0  0  0  0
    1.3615   57.6963   16.0813 C   0  0  0  0  0  0
   -1.0248   56.8548   15.9940 C   0  0  0  0  0  0
   -2.1228   56.9913   15.2463 F   0  0  0  0  0  0
   -1.3688   57.0210   17.2733 F   0  0  0  0  0  0
   -0.5668   55.6114   15.8360 F   0  0  0  0  0  0
    2.0488   53.2172   23.1845 F   0  0  0  0  0  0
    0.3369   48.2821   23.2736 H   0  0  0  0  0  0
   -0.1302   49.7950   25.1567 H   0  0  0  0  0  0
    0.6820   52.1316   25.0979 H   0  0  0  0  0  0
    1.6380   49.0760   21.3268 H   0  0  0  0  0  0
    4.6409   51.1627   21.0136 H   0  0  0  0  0  0
    4.1975   52.3905   22.1812 H   0  0  0  0  0  0
    5.4935   53.3022   20.2025 H   0  0  0  0  0  0
    3.8630   54.0479   20.2941 H   0  0  0  0  0  0
    2.0459   53.0458   18.6520 H   0  0  0  0  0  0
    2.6116   51.7365   17.5647 H   0  0  0  0  0  0
    1.3454   50.7436   19.5185 H   0  0  0  0  0  0
    3.0226   50.2313   19.4588 H   0  0  0  0  0  0
    3.9153   54.6436   18.0042 H   0  0  0  0  0  0
    4.0337   53.4307   16.7429 H   0  0  0  0  0  0
    8.0807   56.2522   16.5090 H   0  0  0  0  0  0
    8.2483   54.5598   16.1830 H   0  0  0  0  0  0
    9.8469   55.5168   18.0087 H   0  0  0  0  0  0
    8.8344   54.2401   18.6828 H   0  0  0  0  0  0
    8.9217   56.4149   20.0252 H   0  0  0  0  0  0
    6.4438   57.8794   16.6841 H   0  0  0  0  0  0
    5.5324   58.4374   18.0667 H   0  0  0  0  0  0
    4.1028   59.4690   16.5053 H   0  0  0  0  0  0
    2.7718   60.5499   14.8809 H   0  0  0  0  0  0
    0.4830   60.8435   14.0147 H   0  0  0  0  0  0
   -1.2578   59.1778   14.4998 H   0  0  0  0  0  0
    1.5889   56.8356   16.6941 H   0  0  0  0  0  0
    4.7412   51.8171   18.4822 H   0  0  0  0  0  0
  1  6  2  0  0  0
  1  2  1  0  0  0
  1 39  1  0  0  0
  2  3  2  0  0  0
  2 40  1  0  0  0
  3  4  1  0  0  0
  3 41  1  0  0  0
  4  5  2  0  0  0
  4 38  1  0  0  0
  5  6  1  0  0  0
  5  7  1  0  0  0
  6 42  1  0  0  0
  7 12  1  0  0  0
  7  8  1  0  0  0
  8  9  1  0  0  0
  8 43  1  0  0  0
  8 44  1  0  0  0
  9 10  1  0  0  0
  9 45  1  0  0  0
  9 46  1  0  0  0
 10 11  1  0  0  0
 10 13  1  0  0  0
 10 65  1  0  0  0
 11 12  1  0  0  0
 11 47  1  0  0  0
 11 48  1  0  0  0
 12 49  1  0  0  0
 12 50  1  0  0  0
 13 14  1  0  0  0
 13 51  1  0  0  0
 13 52  1  0  0  0
 14 15  2  0  0  0
 14 16  1  0  0  0
 16 22  1  0  0  0
 16 17  1  0  0  0
 17 18  1  0  0  0
 17 53  1  0  0  0
 17 54  1  0  0  0
 18 19  1  0  0  0
 18 55  1  0  0  0
 18 56  1  0  0  0
 19 20  1  0  0  0
 19 57  1  0  0  0
 20 21  2  0  0  0
 20 22  1  0  0  0
 22 23  1  0  0  0
 22 24  1  0  0  0
 24 25  1  0  0  0
 24 58  1  0  0  0
 24 59  1  0  0  0
 25 26  2  0  0  0
 25 27  1  0  0  0
 27 28  1  0  0  0
 27 60  1  0  0  0
 28 33  2  0  0  0
 28 29  1  0  0  0
 29 30  2  0  0  0
 29 61  1  0  0  0
 30 31  1  0  0  0
 30 62  1  0  0  0
 31 32  2  0  0  0
 31 63  1  0  0  0
 32 33  1  0  0  0
 32 34  1  0  0  0
 33 64  1  0  0  0
 34 35  1  0  0  0
 34 36  1  0  0  0
 34 37  1  0  0  0
M  CHG  1  10   1
M  END
> <i_i_glide_confnum>
93

> <i_i_glide_lignum>
875

> <i_i_glide_posenum>
366

> <i_i_glide_rotatable_bonds>
9

> <i_m_Source_File_Index>
562

> <b_m_subgroup_collapsed>
0

> <r_i_docking_score>
-4.09512

> <r_i_glide_ecoul>
-10.1961

> <r_i_glide_eff_state_penalty>
0

> <r_i_glide_einternal>
5.08166

> <r_i_glide_emodel>
-51.3564

> <r_i_glide_energy>
-41.9601

> <r_i_glide_erotb>
0.60257

> <r_i_glide_esite>
-0.197005

> <r_i_glide_evdw>
-31.764

> <r_i_glide_gscore>
-4.09512

> <r_i_glide_hbond>
-0.624577

> <r_i_glide_ligand_efficiency>
-0.110679

> <r_i_glide_ligand_efficiency_ln>
-0.888136

> <r_i_glide_ligand_efficiency_sa>
-0.368807

> <r_i_glide_lipo>
-0.637096

> <r_i_glide_metal>
0

> <r_i_glide_rewards>
-0.121399

> <s_i_glide_gridfile>
wee1_glide-grid

> <s_m_Source_File>
wee1_decoys_glide_SP.sdf

> <s_m_Source_Path>
/Users/zhangxujun/Desktop

> <s_m_entry_id>
837

> <s_m_entry_name>
wee1_decoys_glide_SP.562

> <s_m_subgroup_title>
wee1_decoys_glide_SP

> <s_m_subgroupid>
wee1_decoys_glide_SP


$$$$
