ZINC13132295_3600
                    3D
 Schrodinger Suite 2024-2.
 39 42  0  0  1  0            999 V2000
    6.7044   54.4193   24.7514 C   0  0  0  0  0  0
    5.8622   54.5435   25.8525 C   0  0  0  0  0  0
    4.4844   54.4350   25.6824 C   0  0  0  0  0  0
    3.9436   54.2107   24.4148 C   0  0  0  0  0  0
    4.7843   54.0968   23.2882 C   0  0  0  0  0  0
    6.1724   54.1883   23.4836 C   0  0  0  0  0  0
    4.1684   53.8857   21.8885 C   0  0  2  0  0  0
    3.3127   54.5596   21.8113 H   0  0  0  0  0  0
    3.6466   52.4400   21.6821 C   0  0  0  0  0  0
    3.0093   52.2562   20.2835 C   0  0  1  0  0  0
    2.2553   53.0338   20.1444 H   0  0  0  0  0  0
    4.0425   52.4967   19.2599 N   0  0  0  0  0  0
    4.9005   53.5627   19.4721 C   0  0  0  0  0  0
    4.9845   54.1883   20.6993 N   0  0  0  0  0  0
    5.8919   55.1718   20.5979 N   0  0  0  0  0  0
    6.3307   55.0237   19.3689 C   0  0  0  0  0  0
    5.7777   54.0665   18.6459 N   0  0  0  0  0  0
    7.3195   55.8091   18.8678 N   0  0  0  0  0  0
    2.1709   50.9702   20.1426 C   0  0  0  0  0  0
    2.3045   50.1274   19.0318 C   0  0  0  0  0  0
    1.5563   48.9576   18.9279 C   0  0  0  0  0  0
    0.6478   48.6296   19.9283 C   0  0  0  0  0  0
    0.4695   49.4739   21.0206 C   0  0  0  0  0  0
    1.2217   50.6422   21.1236 C   0  0  0  0  0  0
   -0.0718   47.4881   19.8355 F   0  0  0  0  0  0
    2.2204   54.0963   24.2853 Cl  0  0  0  0  0  0
    7.7724   54.4976   24.8785 H   0  0  0  0  0  0
    6.2750   54.7123   26.8367 H   0  0  0  0  0  0
    3.8330   54.5236   26.5399 H   0  0  0  0  0  0
    6.8622   54.0869   22.6601 H   0  0  0  0  0  0
    4.4486   51.7136   21.8254 H   0  0  0  0  0  0
    2.9389   52.2066   22.4730 H   0  0  0  0  0  0
    4.4488   51.6385   18.8732 H   0  0  0  0  0  0
    7.7899   56.4945   19.4357 H   0  0  0  0  0  0
    7.6330   55.7027   17.9151 H   0  0  0  0  0  0
    3.0047   50.3581   18.2416 H   0  0  0  0  0  0
    1.6903   48.3098   18.0737 H   0  0  0  0  0  0
   -0.2475   49.2204   21.7872 H   0  0  0  0  0  0
    1.0520   51.2854   21.9722 H   0  0  0  0  0  0
  1  6  2  0  0  0
  1  2  1  0  0  0
  1 27  1  0  0  0
  2  3  2  0  0  0
  2 28  1  0  0  0
  3  4  1  0  0  0
  3 29  1  0  0  0
  4  5  2  0  0  0
  4 26  1  0  0  0
  5  6  1  0  0  0
  5  7  1  0  0  0
  6 30  1  0  0  0
  7  8  1  0  0  0
  7 14  1  0  0  0
  7  9  1  0  0  0
  9 10  1  0  0  0
  9 31  1  0  0  0
  9 32  1  0  0  0
 10 11  1  0  0  0
 10 12  1  0  0  0
 10 19  1  0  0  0
 12 13  1  0  0  0
 12 33  1  0  0  0
 13 17  2  0  0  0
 13 14  1  0  0  0
 14 15  1  0  0  0
 15 16  2  0  0  0
 16 17  1  0  0  0
 16 18  1  0  0  0
 18 34  1  0  0  0
 18 35  1  0  0  0
 19 24  2  0  0  0
 19 20  1  0  0  0
 20 21  2  0  0  0
 20 36  1  0  0  0
 21 22  1  0  0  0
 21 37  1  0  0  0
 22 23  2  0  0  0
 22 25  1  0  0  0
 23 24  1  0  0  0
 23 38  1  0  0  0
 24 39  1  0  0  0
M  END
> <i_i_glide_confnum>
1

> <i_i_glide_lignum>
3601

> <i_i_glide_posenum>
236

> <i_i_glide_rotatable_bonds>
2

> <i_m_Source_File_Index>
1303

> <b_m_subgroup_collapsed>
0

> <r_i_docking_score>
-5.55863

> <r_i_glide_ecoul>
-4.12902

> <r_i_glide_eff_state_penalty>
0

> <r_i_glide_einternal>
6.70078

> <r_i_glide_emodel>
-46.7813

> <r_i_glide_energy>
-37.2425

> <r_i_glide_erotb>
0.32117

> <r_i_glide_esite>
-0.105364

> <r_i_glide_evdw>
-33.1135

> <r_i_glide_gscore>
-5.55863

> <r_i_glide_hbond>
-0.16

> <r_i_glide_ligand_efficiency>
-0.23161

> <r_i_glide_ligand_efficiency_ln>
-1.33043

> <r_i_glide_ligand_efficiency_sa>
-0.668077

> <r_i_glide_lipo>
-2.08614

> <r_i_glide_metal>
0

> <r_i_glide_rewards>
-1.25326

> <s_i_glide_gridfile>
wee1_glide-grid

> <s_m_Source_File>
wee1_decoys_glide_SP.sdf

> <s_m_Source_Path>
/Users/zhangxujun/Desktop

> <s_m_entry_id>
1578

> <s_m_entry_name>
wee1_decoys_glide_SP.1303

> <s_m_subgroup_title>
wee1_decoys_glide_SP

> <s_m_subgroupid>
wee1_decoys_glide_SP


$$$$
