ZINC45245131_796
                    3D
 Schrodinger Suite 2024-2.
 52 55  0  0  1  0            999 V2000
    6.4264   54.5151   23.7601 C   0  0  0  0  0  0
    6.3846   54.9191   25.0919 C   0  0  0  0  0  0
    5.1649   54.8967   25.7632 C   0  0  0  0  0  0
    4.0116   54.4963   25.1748 N   0  0  0  0  0  0
    4.0581   54.0952   23.8717 C   0  0  0  0  0  0
    5.2542   54.0962   23.1347 C   0  0  0  0  0  0
    5.2944   53.7019   21.8423 F   0  0  0  0  0  0
    2.7709   53.5819   23.3153 C   0  0  0  0  0  0
    2.7458   52.5815   22.4550 N   0  0  0  0  0  0
    1.4728   52.3613   22.3262 C   0  0  0  0  0  0
    0.7027   53.2262   23.0262 O   0  0  0  0  0  0
    1.5996   54.0612   23.6845 N   0  0  0  0  0  0
    0.8037   51.2908   21.4753 C   0  0  2  0  0  0
    1.5111   50.4654   21.3782 H   0  0  0  0  0  0
    0.4670   51.8171   20.0729 C   0  0  0  0  0  0
   -0.8197   51.1086   19.6971 C   0  0  0  0  0  0
   -1.5798   50.9903   21.0154 C   0  0  0  0  0  0
   -0.4947   50.8039   21.9882 N   0  0  0  0  0  0
   -0.6909   50.0867   23.1274 C   0  0  0  0  0  0
   -1.8075   49.6763   23.4486 O   0  0  0  0  0  0
    0.4939   49.7426   24.0655 C   0  0  0  0  0  0
    0.2613   49.9947   25.5835 C   0  0  1  0  0  0
    1.1072   49.6207   26.1584 H   0  0  0  0  0  0
   -0.0501   51.4695   25.9497 C   0  0  0  0  0  0
    0.3290   51.8598   27.3760 C   0  0  0  0  0  0
    1.6058   52.3746   27.6324 C   0  0  0  0  0  0
    1.9804   52.7331   28.9271 C   0  0  0  0  0  0
    1.0748   52.5857   29.9776 C   0  0  0  0  0  0
   -0.2057   52.0957   29.7273 C   0  0  0  0  0  0
   -0.5804   51.7336   28.4318 C   0  0  0  0  0  0
   -1.8322   51.2788   28.2030 F   0  0  0  0  0  0
    1.4400   52.9139   31.2375 F   0  0  0  0  0  0
    3.2222   53.2179   29.1596 F   0  0  0  0  0  0
   -0.8611   49.0751   26.0817 N   0  3  0  0  0  0
    7.5044   55.3203   25.7231 F   0  0  0  0  0  0
    7.3569   54.5186   23.2121 H   0  0  0  0  0  0
    5.1044   55.1905   26.8000 H   0  0  0  0  0  0
    1.2687   51.6141   19.3599 H   0  0  0  0  0  0
    0.3119   52.8967   20.0781 H   0  0  0  0  0  0
   -0.5960   50.1130   19.3079 H   0  0  0  0  0  0
   -1.3912   51.6248   18.9244 H   0  0  0  0  0  0
   -2.2784   50.1526   20.9702 H   0  0  0  0  0  0
   -2.0848   51.9369   21.2150 H   0  0  0  0  0  0
    1.4143   50.2396   23.7730 H   0  0  0  0  0  0
    0.7031   48.6839   23.9102 H   0  0  0  0  0  0
   -1.0897   51.7272   25.7408 H   0  0  0  0  0  0
    0.5234   52.1185   25.2917 H   0  0  0  0  0  0
    2.3168   52.4973   26.8299 H   0  0  0  0  0  0
   -0.8956   51.9706   30.5468 H   0  0  0  0  0  0
   -1.7286   49.3003   25.6146 H   0  0  0  0  0  0
   -0.6381   48.1125   25.8713 H   0  0  0  0  0  0
   -1.0235   49.0843   27.0976 H   0  0  0  0  0  0
  1  6  2  0  0  0
  1  2  1  0  0  0
  1 36  1  0  0  0
  2  3  2  0  0  0
  2 35  1  0  0  0
  3  4  1  0  0  0
  3 37  1  0  0  0
  4  5  2  0  0  0
  5  6  1  0  0  0
  5  8  1  0  0  0
  6  7  1  0  0  0
  8 12  2  0  0  0
  8  9  1  0  0  0
  9 10  2  0  0  0
 10 11  1  0  0  0
 10 13  1  0  0  0
 11 12  1  0  0  0
 13 14  1  0  0  0
 13 18  1  0  0  0
 13 15  1  0  0  0
 15 16  1  0  0  0
 15 38  1  0  0  0
 15 39  1  0  0  0
 16 17  1  0  0  0
 16 40  1  0  0  0
 16 41  1  0  0  0
 17 18  1  0  0  0
 17 42  1  0  0  0
 17 43  1  0  0  0
 18 19  1  0  0  0
 19 20  2  0  0  0
 19 21  1  0  0  0
 21 22  1  0  0  0
 21 44  1  0  0  0
 21 45  1  0  0  0
 22 23  1  0  0  0
 22 24  1  0  0  0
 22 34  1  0  0  0
 24 25  1  0  0  0
 24 46  1  0  0  0
 24 47  1  0  0  0
 25 30  2  0  0  0
 25 26  1  0  0  0
 26 27  2  0  0  0
 26 48  1  0  0  0
 27 28  1  0  0  0
 27 33  1  0  0  0
 28 29  2  0  0  0
 28 32  1  0  0  0
 29 30  1  0  0  0
 29 49  1  0  0  0
 30 31  1  0  0  0
 34 50  1  0  0  0
 34 51  1  0  0  0
 34 52  1  0  0  0
M  CHG  1  34   1
M  END
> <i_i_glide_confnum>
123

> <i_i_glide_lignum>
797

> <i_i_glide_posenum>
102

> <i_i_glide_rotatable_bonds>
7

> <i_m_Source_File_Index>
3318

> <b_m_subgroup_collapsed>
0

> <r_i_docking_score>
-6.29085

> <r_i_glide_ecoul>
-8.78566

> <r_i_glide_eff_state_penalty>
0

> <r_i_glide_einternal>
8.09476

> <r_i_glide_emodel>
-62.5106

> <r_i_glide_energy>
-46.1176

> <r_i_glide_erotb>
0.552137

> <r_i_glide_esite>
-0.353486

> <r_i_glide_evdw>
-37.3319

> <r_i_glide_gscore>
-6.29085

> <r_i_glide_hbond>
-0.198682

> <r_i_glide_ligand_efficiency>
-0.190632

> <r_i_glide_ligand_efficiency_ln>
-1.39905

> <r_i_glide_ligand_efficiency_sa>
-0.611459

> <r_i_glide_lipo>
-1.99654

> <r_i_glide_metal>
0

> <r_i_glide_rewards>
-1.10984

> <s_i_glide_gridfile>
wee1_glide-grid

> <s_m_Source_File>
wee1_decoys_glide_SP.sdf

> <s_m_Source_Path>
/Users/zhangxujun/Desktop

> <s_m_entry_id>
3593

> <s_m_entry_name>
wee1_decoys_glide_SP.3318

> <s_m_subgroup_title>
wee1_decoys_glide_SP

> <s_m_subgroupid>
wee1_decoys_glide_SP


$$$$
