ZINC22913452_1224
                    3D
 Schrodinger Suite 2024-2.
 68 71  0  0  1  0            999 V2000
    5.8687   53.4091   14.5733 C   0  0  0  0  0  0
    5.9575   53.8534   16.0224 C   0  0  0  0  0  0
    6.9252   54.7852   16.4087 C   0  0  0  0  0  0
    7.0582   55.1930   17.7379 C   0  0  0  0  0  0
    6.1914   54.6411   18.6916 C   0  0  0  0  0  0
    5.2041   53.7043   18.2954 C   0  0  0  0  0  0
    5.0828   53.2974   16.9611 C   0  0  0  0  0  0
    4.2840   53.2097   19.7061 S   0  0  0  0  0  0
    5.3084   54.2504   20.6750 C   0  0  0  0  0  0
    6.2211   54.9205   20.0216 N   0  0  0  0  0  0
    5.1727   54.2769   22.1619 C   0  0  0  0  0  0
    3.9326   54.0810   22.7780 C   0  0  0  0  0  0
    3.8296   54.0940   24.1662 C   0  0  0  0  0  0
    4.9627   54.3028   24.9555 C   0  0  0  0  0  0
    6.2067   54.5044   24.3372 C   0  0  0  0  0  0
    6.3050   54.4969   22.9514 C   0  0  0  0  0  0
    4.7583   54.2691   26.3468 N   0  0  0  0  0  0
    5.6235   54.4968   27.3585 C   0  0  0  0  0  0
    6.8008   54.8144   27.1970 O   0  0  0  0  0  0
    5.1117   54.3637   28.8168 C   0  0  0  0  0  0
    3.6887   53.9798   28.9807 N   0  0  0  0  0  0
    2.6807   55.0003   28.6667 C   0  0  0  0  0  0
    1.3722   54.9149   29.4719 C   0  0  0  0  0  0
    0.3076   53.9161   28.9664 C   0  0  0  0  0  0
    0.8508   52.5378   28.5089 N   0  3  1  0  0  0
    2.0508   52.0158   29.3333 C   0  0  0  0  0  0
    3.3882   52.5573   28.7917 C   0  0  0  0  0  0
   -0.2815   51.4854   28.3088 C   0  0  0  0  0  0
   -0.8354   51.5470   26.8767 C   0  0  0  0  0  0
   -0.5696   52.4957   26.1367 O   0  0  0  0  0  0
   -1.5878   50.4968   26.5029 N   0  0  0  0  0  0
   -2.1998   50.2626   25.1928 C   0  0  0  0  0  0
   -3.2500   51.3238   24.8065 C   0  0  0  0  0  0
   -1.1602   50.0204   24.0823 C   0  0  0  0  0  0
    6.8174   53.5451   14.0544 H   0  0  0  0  0  0
    5.6304   52.3464   14.5134 H   0  0  0  0  0  0
    5.0918   53.9635   14.0465 H   0  0  0  0  0  0
    7.5921   55.1998   15.6661 H   0  0  0  0  0  0
    7.8162   55.9065   18.0242 H   0  0  0  0  0  0
    4.3485   52.5559   16.6759 H   0  0  0  0  0  0
    3.0439   53.9223   22.1842 H   0  0  0  0  0  0
    2.8618   53.9361   24.6188 H   0  0  0  0  0  0
    7.1178   54.6580   24.8911 H   0  0  0  0  0  0
    7.2734   54.6512   22.4950 H   0  0  0  0  0  0
    3.8245   54.0343   26.6400 H   0  0  0  0  0  0
    5.3086   55.2965   29.3493 H   0  0  0  0  0  0
    5.7392   53.6051   29.2804 H   0  0  0  0  0  0
    3.1049   55.9834   28.8815 H   0  0  0  0  0  0
    2.4841   54.9968   27.5941 H   0  0  0  0  0  0
    0.9178   55.9059   29.4983 H   0  0  0  0  0  0
    1.6019   54.6678   30.5072 H   0  0  0  0  0  0
   -0.2185   54.2956   28.0903 H   0  0  0  0  0  0
   -0.4252   53.7186   29.7511 H   0  0  0  0  0  0
    1.8690   52.2395   30.3852 H   0  0  0  0  0  0
    2.0698   50.9309   29.2447 H   0  0  0  0  0  0
    4.2153   51.9143   29.0967 H   0  0  0  0  0  0
    3.3174   52.4086   27.7136 H   0  0  0  0  0  0
   -1.0498   51.6498   29.0655 H   0  0  0  0  0  0
    0.1306   50.4968   28.4825 H   0  0  0  0  0  0
   -1.6953   49.7379   27.1761 H   0  0  0  0  0  0
   -2.7474   49.3239   25.3105 H   0  0  0  0  0  0
   -3.6739   51.1062   23.8268 H   0  0  0  0  0  0
   -2.8167   52.3225   24.7395 H   0  0  0  0  0  0
   -4.0795   51.3419   25.5132 H   0  0  0  0  0  0
   -1.6474   49.8547   23.1225 H   0  0  0  0  0  0
   -0.4989   50.8778   23.9507 H   0  0  0  0  0  0
   -0.5549   49.1368   24.2894 H   0  0  0  0  0  0
    1.2275   52.6642   27.5773 H   0  0  0  0  0  0
  1  2  1  0  0  0
  1 35  1  0  0  0
  1 36  1  0  0  0
  1 37  1  0  0  0
  2  7  2  0  0  0
  2  3  1  0  0  0
  3  4  2  0  0  0
  3 38  1  0  0  0
  4  5  1  0  0  0
  4 39  1  0  0  0
  5 10  1  0  0  0
  5  6  2  0  0  0
  6  7  1  0  0  0
  6  8  1  0  0  0
  7 40  1  0  0  0
  8  9  1  0  0  0
  9 10  2  0  0  0
  9 11  1  0  0  0
 11 16  2  0  0  0
 11 12  1  0  0  0
 12 13  2  0  0  0
 12 41  1  0  0  0
 13 14  1  0  0  0
 13 42  1  0  0  0
 14 15  2  0  0  0
 14 17  1  0  0  0
 15 16  1  0  0  0
 15 43  1  0  0  0
 16 44  1  0  0  0
 17 18  1  0  0  0
 17 45  1  0  0  0
 18 19  2  0  0  0
 18 20  1  0  0  0
 20 21  1  0  0  0
 20 46  1  0  0  0
 20 47  1  0  0  0
 21 27  1  0  0  0
 21 22  1  0  0  0
 22 23  1  0  0  0
 22 48  1  0  0  0
 22 49  1  0  0  0
 23 24  1  0  0  0
 23 50  1  0  0  0
 23 51  1  0  0  0
 24 25  1  0  0  0
 24 52  1  0  0  0
 24 53  1  0  0  0
 25 26  1  0  0  0
 25 28  1  0  0  0
 25 68  1  0  0  0
 26 27  1  0  0  0
 26 54  1  0  0  0
 26 55  1  0  0  0
 27 56  1  0  0  0
 27 57  1  0  0  0
 28 29  1  0  0  0
 28 58  1  0  0  0
 28 59  1  0  0  0
 29 30  2  0  0  0
 29 31  1  0  0  0
 31 32  1  0  0  0
 31 60  1  0  0  0
 32 33  1  0  0  0
 32 34  1  0  0  0
 32 61  1  0  0  0
 33 62  1  0  0  0
 33 63  1  0  0  0
 33 64  1  0  0  0
 34 65  1  0  0  0
 34 66  1  0  0  0
 34 67  1  0  0  0
M  CHG  1  25   1
M  END
> <i_i_glide_confnum>
380

> <i_i_glide_lignum>
1225

> <i_i_glide_posenum>
260

> <i_i_glide_rotatable_bonds>
9

> <i_m_Source_File_Index>
4769

> <b_m_subgroup_collapsed>
0

> <r_i_docking_score>
-6.12516

> <r_i_glide_ecoul>
-4.6204

> <r_i_glide_eff_state_penalty>
0

> <r_i_glide_einternal>
9.27507

> <r_i_glide_emodel>
-69.0901

> <r_i_glide_energy>
-51.4114

> <r_i_glide_erotb>
0.702293

> <r_i_glide_esite>
-0.144173

> <r_i_glide_evdw>
-46.791

> <r_i_glide_gscore>
-6.12516

> <r_i_glide_hbond>
-0.246843

> <r_i_glide_ligand_efficiency>
-0.180152

> <r_i_glide_ligand_efficiency_ln>
-1.35322

> <r_i_glide_ligand_efficiency_sa>
-0.583622

> <r_i_glide_lipo>
-2.82188

> <r_i_glide_metal>
0

> <r_i_glide_rewards>
-0.581953

> <s_i_glide_gridfile>
wee1_glide-grid

> <s_m_Source_File>
wee1_decoys_glide_SP.sdf

> <s_m_Source_Path>
/Users/zhangxujun/Desktop

> <s_m_entry_id>
5044

> <s_m_entry_name>
wee1_decoys_glide_SP.4769

> <s_m_subgroup_title>
wee1_decoys_glide_SP

> <s_m_subgroupid>
wee1_decoys_glide_SP


$$$$
