ZINC08909050_919
                    3D
 Schrodinger Suite 2024-2.
 62 65  0  0  1  0            999 V2000
   -0.0345   52.1552   30.0216 C   0  0  0  0  0  0
    1.1236   52.6752   29.1810 C   0  0  0  0  0  0
    2.3205   53.0210   29.8113 C   0  0  0  0  0  0
    3.3910   53.5261   29.0726 C   0  0  0  0  0  0
    3.2849   53.6963   27.6817 C   0  0  0  0  0  0
    2.0820   53.3356   27.0573 C   0  0  0  0  0  0
    1.0081   52.8178   27.7902 C   0  0  0  0  0  0
   -0.2593   52.3988   27.0549 C   0  0  0  0  0  0
    4.3542   54.1891   26.8945 N   0  0  0  0  0  0
    4.1592   55.0755   25.7350 C   0  0  0  0  0  0
    5.4865   55.1271   24.9867 C   0  0  1  0  0  0
    5.7578   56.1507   24.7220 H   0  0  0  0  0  0
    6.4788   54.5979   26.0094 C   0  0  0  0  0  0
    5.6761   53.9447   27.1319 C   0  0  0  0  0  0
    6.1879   53.2985   28.0446 O   0  0  0  0  0  0
    5.5196   54.3502   23.6476 C   0  0  0  0  0  0
    6.5426   54.3938   22.9654 O   0  0  0  0  0  0
    4.3965   53.6967   23.2862 N   0  0  0  0  0  0
    4.0721   53.2129   22.0331 C   0  0  0  0  0  0
    3.1000   52.3531   21.8640 N   0  0  0  0  0  0
    2.8069   52.1424   20.5238 N   0  0  0  0  0  0
    3.5132   52.8926   19.7114 C   0  0  0  0  0  0
    4.7044   53.8590   20.5465 S   0  0  0  0  0  0
    3.2786   52.8982   17.9611 S   0  0  0  0  0  0
    3.9313   54.5490   17.5185 C   0  0  0  0  0  0
    5.4410   54.6609   17.2562 C   0  0  0  0  0  0
    5.8907   55.7730   16.9836 O   0  0  0  0  0  0
    6.1843   53.5354   17.3379 N   0  0  0  0  0  0
    7.5717   53.3857   17.1736 C   0  0  0  0  0  0
    8.0205   52.0990   16.8726 C   0  0  0  0  0  0
    9.3796   51.8367   16.7031 C   0  0  0  0  0  0
   10.3033   52.8780   16.8257 C   0  0  0  0  0  0
    9.8735   54.1698   17.1367 C   0  0  0  0  0  0
    8.5097   54.4203   17.3223 C   0  0  0  0  0  0
   10.8831   55.2908   17.2979 C   0  0  0  0  0  0
    9.8449   50.4283   16.3846 C   0  0  0  0  0  0
   -0.8951   52.8151   29.9158 H   0  0  0  0  0  0
   -0.3439   51.1659   29.6808 H   0  0  0  0  0  0
    0.2085   52.0958   31.0856 H   0  0  0  0  0  0
    2.4248   52.8973   30.8786 H   0  0  0  0  0  0
    4.2969   53.7968   29.5936 H   0  0  0  0  0  0
    1.9788   53.4210   25.9871 H   0  0  0  0  0  0
   -0.5030   51.3625   27.2853 H   0  0  0  0  0  0
   -1.1032   53.0099   27.3669 H   0  0  0  0  0  0
   -0.1558   52.4778   25.9733 H   0  0  0  0  0  0
    3.9563   56.0865   26.0817 H   0  0  0  0  0  0
    3.2865   54.8687   25.1171 H   0  0  0  0  0  0
    7.1448   53.8354   25.6040 H   0  0  0  0  0  0
    7.1044   55.3941   26.4081 H   0  0  0  0  0  0
    3.7439   53.4680   24.0188 H   0  0  0  0  0  0
    3.6300   55.2858   18.2652 H   0  0  0  0  0  0
    3.4367   54.8474   16.5951 H   0  0  0  0  0  0
    5.6779   52.6724   17.4893 H   0  0  0  0  0  0
    7.3050   51.2965   16.7715 H   0  0  0  0  0  0
   11.3580   52.6769   16.6952 H   0  0  0  0  0  0
    8.1987   55.4175   17.5847 H   0  0  0  0  0  0
   10.5637   55.9929   18.0700 H   0  0  0  0  0  0
   11.0030   55.8367   16.3614 H   0  0  0  0  0  0
   11.8547   54.9071   17.6148 H   0  0  0  0  0  0
    9.1478   49.9353   15.7037 H   0  0  0  0  0  0
   10.8181   50.4286   15.8939 H   0  0  0  0  0  0
    9.9050   49.8332   17.2975 H   0  0  0  0  0  0
  1  2  1  0  0  0
  1 37  1  0  0  0
  1 38  1  0  0  0
  1 39  1  0  0  0
  2  7  2  0  0  0
  2  3  1  0  0  0
  3  4  2  0  0  0
  3 40  1  0  0  0
  4  5  1  0  0  0
  4 41  1  0  0  0
  5  6  2  0  0  0
  5  9  1  0  0  0
  6  7  1  0  0  0
  6 42  1  0  0  0
  7  8  1  0  0  0
  8 43  1  0  0  0
  8 44  1  0  0  0
  8 45  1  0  0  0
  9 14  1  0  0  0
  9 10  1  0  0  0
 10 11  1  0  0  0
 10 46  1  0  0  0
 10 47  1  0  0  0
 11 12  1  0  0  0
 11 13  1  0  0  0
 11 16  1  0  0  0
 13 14  1  0  0  0
 13 48  1  0  0  0
 13 49  1  0  0  0
 14 15  2  0  0  0
 16 17  2  0  0  0
 16 18  1  0  0  0
 18 19  1  0  0  0
 18 50  1  0  0  0
 19 23  1  0  0  0
 19 20  2  0  0  0
 20 21  1  0  0  0
 21 22  2  0  0  0
 22 23  1  0  0  0
 22 24  1  0  0  0
 24 25  1  0  0  0
 25 26  1  0  0  0
 25 51  1  0  0  0
 25 52  1  0  0  0
 26 27  2  0  0  0
 26 28  1  0  0  0
 28 29  1  0  0  0
 28 53  1  0  0  0
 29 34  2  0  0  0
 29 30  1  0  0  0
 30 31  2  0  0  0
 30 54  1  0  0  0
 31 32  1  0  0  0
 31 36  1  0  0  0
 32 33  2  0  0  0
 32 55  1  0  0  0
 33 34  1  0  0  0
 33 35  1  0  0  0
 34 56  1  0  0  0
 35 57  1  0  0  0
 35 58  1  0  0  0
 35 59  1  0  0  0
 36 60  1  0  0  0
 36 61  1  0  0  0
 36 62  1  0  0  0
M  END
> <i_i_glide_confnum>
216

> <i_i_glide_lignum>
920

> <i_i_glide_posenum>
344

> <i_i_glide_rotatable_bonds>
9

> <i_m_Source_File_Index>
584

> <b_m_subgroup_collapsed>
0

> <r_i_docking_score>
-5.25884

> <r_i_glide_ecoul>
1.50367

> <r_i_glide_eff_state_penalty>
0

> <r_i_glide_einternal>
11.9648

> <r_i_glide_emodel>
-63.5175

> <r_i_glide_energy>
-50.7015

> <r_i_glide_erotb>
0.709681

> <r_i_glide_esite>
-0.0607693

> <r_i_glide_evdw>
-52.2051

> <r_i_glide_gscore>
-5.25884

> <r_i_glide_hbond>
-0.0164902

> <r_i_glide_ligand_efficiency>
-0.150253

> <r_i_glide_ligand_efficiency_ln>
-1.15443

> <r_i_glide_ligand_efficiency_sa>
-0.491486

> <r_i_glide_lipo>
-2.31408

> <r_i_glide_metal>
0

> <r_i_glide_rewards>
-1.19247

> <s_i_glide_gridfile>
wee1_glide-grid

> <s_m_Source_File>
wee1_decoys_glide_SP.sdf

> <s_m_Source_Path>
/Users/zhangxujun/Desktop

> <s_m_entry_id>
859

> <s_m_entry_name>
wee1_decoys_glide_SP.584

> <s_m_subgroup_title>
wee1_decoys_glide_SP

> <s_m_subgroupid>
wee1_decoys_glide_SP


$$$$
