ZINC08974444_3800
                    3D
 Schrodinger Suite 2024-2.
 37 40  0  0  1  0            999 V2000
    3.0500   53.5497   28.5289 C   0  0  0  0  0  0
    4.1765   53.8525   29.2853 C   0  0  0  0  0  0
    5.3419   54.2825   28.6579 C   0  0  0  0  0  0
    5.4030   54.4220   27.2697 C   0  0  0  0  0  0
    4.2615   54.1117   26.5040 C   0  0  0  0  0  0
    3.0966   53.6784   27.1447 C   0  0  0  0  0  0
    4.3118   54.2699   24.9926 C   0  0  0  0  0  0
    5.7741   54.2692   24.4604 C   0  0  2  0  0  0
    6.2472   53.2972   24.5985 H   0  0  0  0  0  0
    6.5546   55.2767   25.1920 N   0  0  0  0  0  0
    6.7042   54.8576   26.5909 C   0  0  0  0  0  0
    5.8099   54.4827   22.9242 C   0  0  0  0  0  0
    4.8336   54.0955   22.2804 O   0  0  0  0  0  0
    6.9131   55.0234   22.3533 N   0  0  0  0  0  0
    7.1010   55.3070   20.9998 C   0  0  0  0  0  0
    8.2667   55.6979   20.5595 N   0  0  0  0  0  0
    8.2372   55.9573   19.2184 C   0  0  0  0  0  0
    9.3279   56.3875   18.4462 C   0  0  0  0  0  0
    9.1378   56.6234   17.0833 C   0  0  0  0  0  0
    7.8923   56.4405   16.4875 C   0  0  0  0  0  0
    6.7899   56.0147   17.2271 C   0  0  0  0  0  0
    6.9753   55.7723   18.5946 C   0  0  0  0  0  0
    5.8200   55.2331   19.7886 S   0  0  0  0  0  0
    2.1426   53.2123   29.0091 H   0  0  0  0  0  0
    4.1539   53.7455   30.3588 H   0  0  0  0  0  0
    6.2155   54.4982   29.2570 H   0  0  0  0  0  0
    2.2198   53.4398   26.5608 H   0  0  0  0  0  0
    3.7307   53.4682   24.5284 H   0  0  0  0  0  0
    3.8177   55.2095   24.7405 H   0  0  0  0  0  0
    6.0984   56.1766   25.1382 H   0  0  0  0  0  0
    7.1049   55.6967   27.1549 H   0  0  0  0  0  0
    7.4325   54.0483   26.6630 H   0  0  0  0  0  0
    7.7063   55.1954   22.9607 H   0  0  0  0  0  0
   10.3034   56.5292   18.8823 H   0  0  0  0  0  0
    9.9702   56.9501   16.4765 H   0  0  0  0  0  0
    7.7793   56.6300   15.4299 H   0  0  0  0  0  0
    5.8250   55.8714   16.7592 H   0  0  0  0  0  0
  1  6  2  0  0  0
  1  2  1  0  0  0
  1 24  1  0  0  0
  2  3  2  0  0  0
  2 25  1  0  0  0
  3  4  1  0  0  0
  3 26  1  0  0  0
  4 11  1  0  0  0
  4  5  2  0  0  0
  5  6  1  0  0  0
  5  7  1  0  0  0
  6 27  1  0  0  0
  7  8  1  0  0  0
  7 28  1  0  0  0
  7 29  1  0  0  0
  8  9  1  0  0  0
  8 10  1  0  0  0
  8 12  1  0  0  0
 10 11  1  0  0  0
 10 30  1  0  0  0
 11 31  1  0  0  0
 11 32  1  0  0  0
 12 13  2  0  0  0
 12 14  1  0  0  0
 14 15  1  0  0  0
 14 33  1  0  0  0
 15 23  1  0  0  0
 15 16  2  0  0  0
 16 17  1  0  0  0
 17 22  2  0  0  0
 17 18  1  0  0  0
 18 19  2  0  0  0
 18 34  1  0  0  0
 19 20  1  0  0  0
 19 35  1  0  0  0
 20 21  2  0  0  0
 20 36  1  0  0  0
 21 22  1  0  0  0
 21 37  1  0  0  0
 22 23  1  0  0  0
M  END
> <i_i_glide_confnum>
14

> <i_i_glide_lignum>
3801

> <i_i_glide_posenum>
248

> <i_i_glide_rotatable_bonds>
3

> <i_m_Source_File_Index>
2375

> <b_m_subgroup_collapsed>
0

> <r_i_docking_score>
-6.11565

> <r_i_glide_ecoul>
-2.00549

> <r_i_glide_eff_state_penalty>
0

> <r_i_glide_einternal>
3.30735

> <r_i_glide_emodel>
-52.5798

> <r_i_glide_energy>
-38.8185

> <r_i_glide_erotb>
0.5803

> <r_i_glide_esite>
0

> <r_i_glide_evdw>
-36.813

> <r_i_glide_gscore>
-6.11565

> <r_i_glide_hbond>
-0.345874

> <r_i_glide_ligand_efficiency>
-0.277984

> <r_i_glide_ligand_efficiency_ln>
-1.49489

> <r_i_glide_ligand_efficiency_sa>
-0.778923

> <r_i_glide_lipo>
-2.46554

> <r_i_glide_metal>
0

> <r_i_glide_rewards>
-1.74307

> <s_i_glide_gridfile>
wee1_glide-grid

> <s_m_Source_File>
wee1_decoys_glide_SP.sdf

> <s_m_Source_Path>
/Users/zhangxujun/Desktop

> <s_m_entry_id>
2650

> <s_m_entry_name>
wee1_decoys_glide_SP.2375

> <s_m_subgroup_title>
wee1_decoys_glide_SP

> <s_m_subgroupid>
wee1_decoys_glide_SP


$$$$
