ZINC09789065_60
                    3D
 Schrodinger Suite 2024-2.
 54 58  0  0  1  0            999 V2000
    0.5390   50.0595   18.4038 C   0  0  0  0  0  0
    1.2189   51.2791   19.0700 C   0  0  1  0  0  0
    0.6228   51.5205   20.4544 C   0  0  0  0  0  0
   -0.5589   51.7723   20.7104 O   0  0  0  0  0  0
    1.6458   51.3675   21.3221 N   0  0  0  0  0  0
    2.8359   51.0949   20.7319 C   0  0  0  0  0  0
    3.9153   50.9037   21.2817 O   0  0  0  0  0  0
    2.5752   50.9545   19.4286 N   0  0  0  0  0  0
    1.4610   51.2914   22.7889 C   0  0  0  0  0  0
    1.7401   52.6271   23.5027 C   0  0  0  0  0  0
    1.7922   53.6956   22.8932 O   0  0  0  0  0  0
    1.9039   52.5189   24.8330 N   0  0  0  0  0  0
    2.1960   53.5889   25.7995 C   0  0  2  0  0  0
    1.7596   54.4964   25.3834 H   0  0  0  0  0  0
    3.6987   53.9194   25.9371 C   0  0  0  0  0  0
    4.3991   53.6965   27.1348 C   0  0  0  0  0  0
    5.7564   53.9891   27.2306 C   0  0  0  0  0  0
    6.4262   54.5087   26.1288 C   0  0  0  0  0  0
    5.7470   54.7621   24.9409 C   0  0  0  0  0  0
    4.3863   54.4777   24.8508 C   0  0  0  0  0  0
    1.4991   53.3115   27.1376 C   0  0  0  0  0  0
    1.1055   54.2335   28.1125 C   0  0  0  0  0  0
    0.4873   53.6804   29.2372 C   0  0  0  0  0  0
    0.3939   52.3049   29.1627 C   0  0  0  0  0  0
    1.0999   51.6999   27.7044 S   0  0  0  0  0  0
    1.0743   52.5505   18.2363 C   0  0  0  0  0  0
    1.9988   53.4321   17.6817 C   0  0  0  0  0  0
    1.2503   54.4920   17.0859 C   0  0  0  0  0  0
    1.5419   55.6978   16.4288 C   0  0  0  0  0  0
    0.4789   56.5031   16.0056 C   0  0  0  0  0  0
   -0.8503   56.1238   16.2088 C   0  0  0  0  0  0
   -1.1729   54.9250   16.8480 C   0  0  0  0  0  0
   -0.1021   54.1340   17.2811 C   0  0  0  0  0  0
   -0.2035   52.9504   17.9512 O   0  0  0  0  0  0
   -0.5174   50.2449   18.2029 H   0  0  0  0  0  0
    1.0125   49.8269   17.4487 H   0  0  0  0  0  0
    0.6029   49.1603   19.0196 H   0  0  0  0  0  0
    3.3113   51.0082   18.7327 H   0  0  0  0  0  0
    2.0895   50.5029   23.2069 H   0  0  0  0  0  0
    0.4305   51.0152   23.0165 H   0  0  0  0  0  0
    1.9377   51.5871   25.2143 H   0  0  0  0  0  0
    3.9100   53.2716   27.9982 H   0  0  0  0  0  0
    6.2904   53.8008   28.1515 H   0  0  0  0  0  0
    7.4828   54.7100   26.1995 H   0  0  0  0  0  0
    6.2728   55.1717   24.0907 H   0  0  0  0  0  0
    3.8733   54.6796   23.9224 H   0  0  0  0  0  0
    1.2619   55.2967   28.0034 H   0  0  0  0  0  0
    0.1194   54.2631   30.0699 H   0  0  0  0  0  0
   -0.0475   51.6276   29.8808 H   0  0  0  0  0  0
    3.0725   53.3391   17.7505 H   0  0  0  0  0  0
    2.5647   56.0060   16.2688 H   0  0  0  0  0  0
    0.6903   57.4415   15.5112 H   0  0  0  0  0  0
   -1.6414   56.7731   15.8611 H   0  0  0  0  0  0
   -2.1962   54.6209   17.0062 H   0  0  0  0  0  0
  1  2  1  0  0  0
  1 35  1  0  0  0
  1 36  1  0  0  0
  1 37  1  0  0  0
  2  8  1  0  0  0
  2  3  1  0  0  0
  2 26  1  0  0  0
  3  4  2  0  0  0
  3  5  1  0  0  0
  5  6  1  0  0  0
  5  9  1  0  0  0
  6  7  2  0  0  0
  6  8  1  0  0  0
  8 38  1  0  0  0
  9 10  1  0  0  0
  9 39  1  0  0  0
  9 40  1  0  0  0
 10 11  2  0  0  0
 10 12  1  0  0  0
 12 13  1  0  0  0
 12 41  1  0  0  0
 13 14  1  0  0  0
 13 15  1  0  0  0
 13 21  1  0  0  0
 15 20  2  0  0  0
 15 16  1  0  0  0
 16 17  2  0  0  0
 16 42  1  0  0  0
 17 18  1  0  0  0
 17 43  1  0  0  0
 18 19  2  0  0  0
 18 44  1  0  0  0
 19 20  1  0  0  0
 19 45  1  0  0  0
 20 46  1  0  0  0
 21 25  1  0  0  0
 21 22  2  0  0  0
 22 23  1  0  0  0
 22 47  1  0  0  0
 23 24  2  0  0  0
 23 48  1  0  0  0
 24 25  1  0  0  0
 24 49  1  0  0  0
 26 34  1  0  0  0
 26 27  2  0  0  0
 27 28  1  0  0  0
 27 50  1  0  0  0
 28 33  2  0  0  0
 28 29  1  0  0  0
 29 30  2  0  0  0
 29 51  1  0  0  0
 30 31  1  0  0  0
 30 52  1  0  0  0
 31 32  2  0  0  0
 31 53  1  0  0  0
 32 33  1  0  0  0
 32 54  1  0  0  0
 33 34  1  0  0  0
M  END
> <i_i_glide_confnum>
145

> <i_i_glide_lignum>
61

> <i_i_glide_posenum>
11

> <i_i_glide_rotatable_bonds>
7

> <i_m_Source_File_Index>
5902

> <b_m_subgroup_collapsed>
0

> <r_i_docking_score>
-5.38413

> <r_i_glide_ecoul>
-2.87047

> <r_i_glide_eff_state_penalty>
0

> <r_i_glide_einternal>
5.63501

> <r_i_glide_emodel>
-58.159

> <r_i_glide_energy>
-45.3679

> <r_i_glide_erotb>
0.667033

> <r_i_glide_esite>
-0.0817439

> <r_i_glide_evdw>
-42.4975

> <r_i_glide_gscore>
-5.38413

> <r_i_glide_hbond>
-0.0700824

> <r_i_glide_ligand_efficiency>
-0.163155

> <r_i_glide_ligand_efficiency_ln>
-1.1974

> <r_i_glide_ligand_efficiency_sa>
-0.523327

> <r_i_glide_lipo>
-2.7408

> <r_i_glide_metal>
0

> <r_i_glide_rewards>
-0.603089

> <s_i_glide_gridfile>
wee1_glide-grid

> <s_m_Source_File>
wee1_decoys_glide_SP.sdf

> <s_m_Source_Path>
/Users/zhangxujun/Desktop

> <s_m_entry_id>
6177

> <s_m_entry_name>
wee1_decoys_glide_SP.5902

> <s_m_subgroup_title>
wee1_decoys_glide_SP

> <s_m_subgroupid>
wee1_decoys_glide_SP


$$$$
