ZINC46751138_6199
                    3D
 Schrodinger Suite 2024-2.
 57 58  0  0  1  0            999 V2000
    2.3452   53.4689   23.2106 C   0  0  0  0  0  0
    2.7402   52.4876   22.0864 C   0  0  2  0  0  0
    3.1141   51.5409   22.4816 H   0  0  0  0  0  0
    3.8045   53.1154   21.1553 C   0  0  0  0  0  0
    4.1297   52.2298   19.9418 C   0  0  0  0  0  0
    2.8542   51.8853   19.1571 C   0  0  0  0  0  0
    1.8047   51.2034   20.0498 C   0  0  0  0  0  0
    1.4721   52.1240   21.2586 N   0  3  1  0  0  0
    0.2950   51.5170   22.0837 C   0  0  0  0  0  0
    0.6887   50.2818   22.9353 C   0  0  0  0  0  0
   -0.5006   49.7005   23.7276 C   0  0  0  0  0  0
   -0.1095   48.5070   24.6234 C   0  0  0  0  0  0
   -1.2094   48.0398   25.4667 N   0  0  0  0  0  0
   -1.8886   46.8965   25.2829 C   0  0  0  0  0  0
   -1.9182   46.2783   24.2151 O   0  0  0  0  0  0
   -2.4962   46.4967   26.4181 N   0  0  0  0  0  0
   -3.2888   45.3151   26.4818 N   0  0  0  0  0  0
   -4.7277   45.5423   26.3087 C   0  0  2  0  0  0
   -5.2489   46.5769   27.3494 C   0  0  0  0  0  0
   -6.7818   46.5070   27.4046 C   0  0  0  0  0  0
   -7.1632   44.6930   27.1787 S   0  0  0  0  0  0
   -7.4260   44.0778   28.4814 O   0  0  0  0  0  0
   -8.1153   44.5385   26.0728 O   0  0  0  0  0  0
   -5.4412   44.2144   26.6220 C   0  0  0  0  0  0
   -5.0472   45.9793   24.8555 C   0  0  0  0  0  0
    3.2288   53.8091   23.7522 H   0  0  0  0  0  0
    1.6892   53.0156   23.9531 H   0  0  0  0  0  0
    1.8477   54.3557   22.8137 H   0  0  0  0  0  0
    3.4675   54.0895   20.7969 H   0  0  0  0  0  0
    4.7228   53.2988   21.7143 H   0  0  0  0  0  0
    4.8445   52.7282   19.2839 H   0  0  0  0  0  0
    4.6191   51.3089   20.2666 H   0  0  0  0  0  0
    2.4376   52.7901   18.7131 H   0  0  0  0  0  0
    3.1049   51.2248   18.3218 H   0  0  0  0  0  0
    0.8822   51.0702   19.4824 H   0  0  0  0  0  0
    2.1492   50.2408   20.4327 H   0  0  0  0  0  0
   -0.0813   52.3368   22.6977 H   0  0  0  0  0  0
   -0.4856   51.2831   21.3578 H   0  0  0  0  0  0
    1.1051   49.5023   22.2978 H   0  0  0  0  0  0
    1.4724   50.5521   23.6429 H   0  0  0  0  0  0
   -0.9355   50.4825   24.3534 H   0  0  0  0  0  0
   -1.2837   49.3877   23.0385 H   0  0  0  0  0  0
    0.3085   47.7003   24.0189 H   0  0  0  0  0  0
    0.7180   48.7935   25.2754 H   0  0  0  0  0  0
   -1.2960   48.4868   26.3735 H   0  0  0  0  0  0
   -2.4178   47.0143   27.2884 H   0  0  0  0  0  0
   -3.0698   44.8267   27.3526 H   0  0  0  0  0  0
   -4.8448   46.3498   28.3394 H   0  0  0  0  0  0
   -4.9223   47.5935   27.1155 H   0  0  0  0  0  0
   -7.2778   46.8994   28.2920 H   0  0  0  0  0  0
   -7.1830   47.0318   26.5375 H   0  0  0  0  0  0
   -5.4783   43.4497   25.8482 H   0  0  0  0  0  0
   -4.9758   43.7559   27.4968 H   0  0  0  0  0  0
   -6.1164   45.9765   24.6467 H   0  0  0  0  0  0
   -4.6777   46.9805   24.6378 H   0  0  0  0  0  0
   -4.5859   45.3090   24.1296 H   0  0  0  0  0  0
    1.1494   52.9963   20.8525 H   0  0  0  0  0  0
  1  2  1  0  0  0
  1 26  1  0  0  0
  1 27  1  0  0  0
  1 28  1  0  0  0
  2  3  1  0  0  0
  2  8  1  0  0  0
  2  4  1  0  0  0
  4  5  1  0  0  0
  4 29  1  0  0  0
  4 30  1  0  0  0
  5  6  1  0  0  0
  5 31  1  0  0  0
  5 32  1  0  0  0
  6  7  1  0  0  0
  6 33  1  0  0  0
  6 34  1  0  0  0
  7  8  1  0  0  0
  7 35  1  0  0  0
  7 36  1  0  0  0
  8  9  1  0  0  0
  8 57  1  0  0  0
  9 10  1  0  0  0
  9 37  1  0  0  0
  9 38  1  0  0  0
 10 11  1  0  0  0
 10 39  1  0  0  0
 10 40  1  0  0  0
 11 12  1  0  0  0
 11 41  1  0  0  0
 11 42  1  0  0  0
 12 13  1  0  0  0
 12 43  1  0  0  0
 12 44  1  0  0  0
 13 14  1  0  0  0
 13 45  1  0  0  0
 14 15  2  0  0  0
 14 16  1  0  0  0
 16 17  1  0  0  0
 16 46  1  0  0  0
 17 18  1  0  0  0
 17 47  1  0  0  0
 18 24  1  0  0  0
 18 19  1  0  0  0
 18 25  1  0  0  0
 19 20  1  0  0  0
 19 48  1  0  0  0
 19 49  1  0  0  0
 20 21  1  0  0  0
 20 50  1  0  0  0
 20 51  1  0  0  0
 21 22  2  0  0  0
 21 23  2  0  0  0
 21 24  1  0  0  0
 24 52  1  0  0  0
 24 53  1  0  0  0
 25 54  1  0  0  0
 25 55  1  0  0  0
 25 56  1  0  0  0
M  CHG  1   8   1
M  END
> <i_i_glide_confnum>
337

> <i_i_glide_lignum>
6200

> <i_i_glide_posenum>
207

> <i_i_glide_rotatable_bonds>
9

> <i_m_Source_File_Index>
2496

> <b_m_subgroup_collapsed>
0

> <r_i_docking_score>
-3.74016

> <r_i_glide_ecoul>
-11.3544

> <r_i_glide_eff_state_penalty>
0

> <r_i_glide_einternal>
5.15398

> <r_i_glide_emodel>
-39.067

> <r_i_glide_energy>
-31.0969

> <r_i_glide_erotb>
1.17469

> <r_i_glide_esite>
-0.322899

> <r_i_glide_evdw>
-19.7425

> <r_i_glide_gscore>
-3.74016

> <r_i_glide_hbond>
-0.570654

> <r_i_glide_ligand_efficiency>
-0.15584

> <r_i_glide_ligand_efficiency_ln>
-0.895192

> <r_i_glide_ligand_efficiency_sa>
-0.44952

> <r_i_glide_lipo>
-0.429979

> <r_i_glide_metal>
0

> <r_i_glide_rewards>
-0.901033

> <s_i_glide_gridfile>
wee1_glide-grid

> <s_m_Source_File>
wee1_decoys_glide_SP.sdf

> <s_m_Source_Path>
/Users/zhangxujun/Desktop

> <s_m_entry_id>
2771

> <s_m_entry_name>
wee1_decoys_glide_SP.2496

> <s_m_subgroup_title>
wee1_decoys_glide_SP

> <s_m_subgroupid>
wee1_decoys_glide_SP


$$$$
