ZINC06232740_1163
                    3D
 Schrodinger Suite 2024-2.
 48 50  0  0  1  0            999 V2000
    0.6979   49.5570   24.2762 C   0  0  0  0  0  0
    0.1416   50.2864   23.0278 C   0  0  0  0  0  0
    1.3475   51.0244   22.3110 C   0  0  2  0  0  0
    2.1554   50.3099   22.1406 H   0  0  0  0  0  0
    1.9306   52.2329   23.1338 C   0  0  1  0  0  0
    2.2673   51.8281   24.0878 H   0  0  0  0  0  0
   -0.3915   52.5860   24.2909 C   0  0  1  0  0  0
   -1.1310   53.3893   24.2691 H   0  0  0  0  0  0
   -0.9215   51.3828   23.4298 C   0  0  2  0  0  0
   -1.2665   51.8152   22.4912 H   0  0  0  0  0  0
   -2.2541   50.8791   23.9399 N   0  3  0  0  0  0
   -2.3298   49.7864   24.4892 O   0  0  0  0  0  0
   -3.2193   51.6224   23.7837 O   0  5  0  0  0  0
   -0.0837   52.3923   25.8046 C   0  0  0  0  0  0
    1.1112   52.8561   26.3866 C   0  0  0  0  0  0
    1.3363   52.7495   27.7572 C   0  0  0  0  0  0
    0.3701   52.1761   28.5761 C   0  0  0  0  0  0
   -0.8131   51.6959   28.0259 C   0  0  0  0  0  0
   -1.0444   51.8241   26.6579 C   0  0  0  0  0  0
    0.6499   52.0974   30.4599 Br  0  0  0  0  0  0
    3.1355   53.0500   22.6167 C   0  0  0  0  0  0
    3.5096   53.1406   21.2657 C   0  0  0  0  0  0
    4.6392   53.8623   20.8851 C   0  0  0  0  0  0
    5.4212   54.4894   21.8504 C   0  0  0  0  0  0
    5.0809   54.3954   23.1946 C   0  0  0  0  0  0
    3.9377   53.6971   23.5698 C   0  0  0  0  0  0
    6.9633   55.4808   21.3383 Br  0  0  0  0  0  0
    0.9505   51.4439   20.9109 N   0  3  0  0  0  0
    0.2874   52.4669   20.7604 O   0  0  0  0  0  0
    1.3155   50.7274   19.9836 O   0  5  0  0  0  0
   -0.4919   49.2335   22.0656 C   0  0  0  0  0  0
    1.5044   48.8967   23.9802 H   0  0  0  0  0  0
    1.1029   50.2117   25.0422 H   0  0  0  0  0  0
   -0.0412   48.9233   24.7668 H   0  0  0  0  0  0
    1.8787   53.3386   25.8075 H   0  0  0  0  0  0
    2.2533   53.1263   28.1875 H   0  0  0  0  0  0
   -1.5606   51.2383   28.6601 H   0  0  0  0  0  0
   -2.0029   51.4908   26.3003 H   0  0  0  0  0  0
    2.9585   52.6722   20.4707 H   0  0  0  0  0  0
    4.9077   53.9284   19.8405 H   0  0  0  0  0  0
    5.6961   54.8721   23.9433 H   0  0  0  0  0  0
    3.7074   53.6348   24.6218 H   0  0  0  0  0  0
    0.2405   48.5004   21.7106 H   0  0  0  0  0  0
   -1.2672   48.6450   22.5560 H   0  0  0  0  0  0
   -0.9601   49.6841   21.1895 H   0  0  0  0  0  0
    0.7999   53.2114   23.5191 N   0  3  0  0  0  0
    0.4884   53.7118   22.6973 H   0  0  0  0  0  0
    1.2050   53.9321   24.0993 H   0  0  0  0  0  0
  1  2  1  0  0  0
  1 32  1  0  0  0
  1 33  1  0  0  0
  1 34  1  0  0  0
  2  9  1  0  0  0
  2  3  1  0  0  0
  2 31  1  0  0  0
  3  4  1  0  0  0
  3  5  1  0  0  0
  3 28  1  0  0  0
  5  6  1  0  0  0
  5 21  1  0  0  0
  5 46  1  0  0  0
  7  8  1  0  0  0
  7  9  1  0  0  0
  7 14  1  0  0  0
  7 46  1  0  0  0
  9 10  1  0  0  0
  9 11  1  0  0  0
 11 12  2  0  0  0
 11 13  1  0  0  0
 14 19  2  0  0  0
 14 15  1  0  0  0
 15 16  2  0  0  0
 15 35  1  0  0  0
 16 17  1  0  0  0
 16 36  1  0  0  0
 17 18  2  0  0  0
 17 20  1  0  0  0
 18 19  1  0  0  0
 18 37  1  0  0  0
 19 38  1  0  0  0
 21 26  2  0  0  0
 21 22  1  0  0  0
 22 23  2  0  0  0
 22 39  1  0  0  0
 23 24  1  0  0  0
 23 40  1  0  0  0
 24 25  2  0  0  0
 24 27  1  0  0  0
 25 26  1  0  0  0
 25 41  1  0  0  0
 26 42  1  0  0  0
 28 29  2  0  0  0
 28 30  1  0  0  0
 31 43  1  0  0  0
 31 44  1  0  0  0
 31 45  1  0  0  0
 46 47  1  0  0  0
 46 48  1  0  0  0
M  CHG  5  11   1  13  -1  28   1  30  -1  46   1
M  END
> <i_i_glide_confnum>
9

> <i_i_glide_lignum>
1164

> <i_i_glide_posenum>
369

> <i_i_glide_rotatable_bonds>
4

> <i_m_Source_File_Index>
1791

> <b_m_subgroup_collapsed>
0

> <r_i_docking_score>
-3.11433

> <r_i_glide_ecoul>
0.039927

> <r_i_glide_eff_state_penalty>
0

> <r_i_glide_einternal>
1.81254

> <r_i_glide_emodel>
-30.2066

> <r_i_glide_energy>
-31.0874

> <r_i_glide_erotb>
0.155158

> <r_i_glide_esite>
-0.0601835

> <r_i_glide_evdw>
-31.1273

> <r_i_glide_gscore>
-3.11433

> <r_i_glide_hbond>
0

> <r_i_glide_ligand_efficiency>
-0.111226

> <r_i_glide_ligand_efficiency_ln>
-0.718879

> <r_i_glide_ligand_efficiency_sa>
-0.337748

> <r_i_glide_lipo>
-1.65893

> <r_i_glide_metal>
0

> <r_i_glide_rewards>
0

> <s_i_glide_gridfile>
wee1_glide-grid

> <s_m_Source_File>
wee1_decoys_glide_SP.sdf

> <s_m_Source_Path>
/Users/zhangxujun/Desktop

> <s_m_entry_id>
2066

> <s_m_entry_name>
wee1_decoys_glide_SP.1791

> <s_m_subgroup_title>
wee1_decoys_glide_SP

> <s_m_subgroupid>
wee1_decoys_glide_SP


$$$$
