ZINC05146069_1467
                    3D
 Schrodinger Suite 2024-2.
 46 48  0  0  1  0            999 V2000
    3.8047   51.8072   32.0359 C   0  0  0  0  0  0
    3.6876   51.9202   30.6265 O   0  0  0  0  0  0
    2.5302   52.4965   30.1610 C   0  0  0  0  0  0
    1.5551   52.8708   30.8171 O   0  0  0  0  0  0
    2.6999   52.6075   28.8356 N   0  0  0  0  0  0
    1.8230   53.0708   27.9236 C   0  0  0  0  0  0
    0.5984   53.1257   28.0735 O   0  0  0  0  0  0
    2.4568   53.4579   26.6713 C   0  0  0  0  0  0
    3.6973   54.1546   26.5721 C   0  0  0  0  0  0
    4.0901   54.3904   25.2466 C   0  0  0  0  0  0
    2.8759   53.8360   24.1356 S   0  0  0  0  0  0
    1.8567   53.2676   25.4212 C   0  0  0  0  0  0
    0.6187   52.6616   25.2142 N   0  0  0  0  0  0
   -0.0074   52.3241   24.0641 C   0  0  0  0  0  0
    0.4630   52.5001   22.9391 O   0  0  0  0  0  0
   -1.3264   51.7370   24.2460 C   0  0  0  0  0  0
   -1.6962   51.0590   25.3681 C   0  0  0  0  0  0
   -2.9025   50.4684   25.5707 O   0  0  0  0  0  0
   -3.6572   50.2863   24.3683 C   0  0  0  0  0  0
   -3.5358   51.5135   23.4302 C   0  0  0  0  0  0
   -2.1662   51.8641   23.1732 O   0  0  0  0  0  0
    5.3829   55.0492   24.7966 C   0  0  0  0  0  0
    6.6568   54.3494   25.3067 C   0  0  0  0  0  0
    6.9613   54.5062   26.8120 C   0  0  0  0  0  0
    5.9308   53.9432   27.8036 C   0  0  0  0  0  0
    4.5733   54.6475   27.7173 C   0  0  0  0  0  0
    4.7035   51.2510   32.2897 H   0  0  0  0  0  0
    3.9055   52.7942   32.4812 H   0  0  0  0  0  0
    2.9504   51.2946   32.4814 H   0  0  0  0  0  0
    3.6108   52.3485   28.4935 H   0  0  0  0  0  0
    0.1264   52.4503   26.0698 H   0  0  0  0  0  0
   -1.0685   50.9049   26.2366 H   0  0  0  0  0  0
   -3.2950   49.3943   23.8504 H   0  0  0  0  0  0
   -4.7023   50.1136   24.6278 H   0  0  0  0  0  0
   -4.0424   52.3684   23.8823 H   0  0  0  0  0  0
   -4.0284   51.2964   22.4822 H   0  0  0  0  0  0
    5.4205   56.0833   25.1422 H   0  0  0  0  0  0
    5.4273   55.0886   23.7081 H   0  0  0  0  0  0
    7.5044   54.7479   24.7481 H   0  0  0  0  0  0
    6.6171   53.2968   25.0446 H   0  0  0  0  0  0
    7.1057   55.5647   27.0335 H   0  0  0  0  0  0
    7.9044   54.0230   27.0334 H   0  0  0  0  0  0
    6.3289   54.0783   28.8106 H   0  0  0  0  0  0
    5.8171   52.8657   27.6715 H   0  0  0  0  0  0
    4.0806   54.6637   28.6870 H   0  0  0  0  0  0
    4.7853   55.6954   27.5468 H   0  0  0  0  0  0
  1  2  1  0  0  0
  1 27  1  0  0  0
  1 28  1  0  0  0
  1 29  1  0  0  0
  2  3  1  0  0  0
  3  4  2  0  0  0
  3  5  1  0  0  0
  5  6  1  0  0  0
  5 30  1  0  0  0
  6  7  2  0  0  0
  6  8  1  0  0  0
  8 12  2  0  0  0
  8  9  1  0  0  0
  9 26  1  0  0  0
  9 10  2  0  0  0
 10 11  1  0  0  0
 10 22  1  0  0  0
 11 12  1  0  0  0
 12 13  1  0  0  0
 13 14  1  0  0  0
 13 31  1  0  0  0
 14 15  2  0  0  0
 14 16  1  0  0  0
 16 21  1  0  0  0
 16 17  2  0  0  0
 17 18  1  0  0  0
 17 32  1  0  0  0
 18 19  1  0  0  0
 19 20  1  0  0  0
 19 33  1  0  0  0
 19 34  1  0  0  0
 20 21  1  0  0  0
 20 35  1  0  0  0
 20 36  1  0  0  0
 22 23  1  0  0  0
 22 37  1  0  0  0
 22 38  1  0  0  0
 23 24  1  0  0  0
 23 39  1  0  0  0
 23 40  1  0  0  0
 24 25  1  0  0  0
 24 41  1  0  0  0
 24 42  1  0  0  0
 25 26  1  0  0  0
 25 43  1  0  0  0
 25 44  1  0  0  0
 26 45  1  0  0  0
 26 46  1  0  0  0
M  END
> <i_i_glide_confnum>
333

> <i_i_glide_lignum>
1468

> <i_i_glide_posenum>
58

> <i_i_glide_rotatable_bonds>
7

> <i_m_Source_File_Index>
491

> <b_m_subgroup_collapsed>
0

> <r_i_docking_score>
-5.2526

> <r_i_glide_ecoul>
-1.08977

> <r_i_glide_eff_state_penalty>
0

> <r_i_glide_einternal>
6.23079

> <r_i_glide_emodel>
-48.2694

> <r_i_glide_energy>
-38.7963

> <r_i_glide_erotb>
0.804341

> <r_i_glide_esite>
0

> <r_i_glide_evdw>
-37.7065

> <r_i_glide_gscore>
-5.2526

> <r_i_glide_hbond>
-0.344539

> <r_i_glide_ligand_efficiency>
-0.202023

> <r_i_glide_ligand_efficiency_ln>
-1.23356

> <r_i_glide_ligand_efficiency_sa>
-0.598492

> <r_i_glide_lipo>
-2.48405

> <r_i_glide_metal>
0

> <r_i_glide_rewards>
-1.17956

> <s_i_glide_gridfile>
wee1_glide-grid

> <s_m_Source_File>
wee1_decoys_glide_SP.sdf

> <s_m_Source_Path>
/Users/zhangxujun/Desktop

> <s_m_entry_id>
766

> <s_m_entry_name>
wee1_decoys_glide_SP.491

> <s_m_subgroup_title>
wee1_decoys_glide_SP

> <s_m_subgroupid>
wee1_decoys_glide_SP


$$$$
