ZINC12850440_5266
                    3D
 Schrodinger Suite 2024-2.
 55 58  0  0  1  0            999 V2000
    7.6043   55.6028   17.7993 C   0  0  0  0  0  0
    8.0859   54.3362   17.0728 C   0  0  0  0  0  0
    6.9548   53.3490   16.6990 C   0  0  2  0  0  0
    6.5371   53.0524   17.6640 H   0  0  0  0  0  0
    7.4884   52.0552   16.0258 C   0  0  0  0  0  0
    7.8941   52.2400   14.5487 C   0  0  0  0  0  0
    6.7887   52.9490   13.7506 C   0  0  0  0  0  0
    6.3176   54.2388   14.4569 C   0  0  0  0  0  0
    5.8729   53.8932   15.8264 N   0  0  0  0  0  0
    4.5699   53.5123   16.0004 C   0  0  0  0  0  0
    3.8065   53.2612   15.0648 O   0  0  0  0  0  0
    4.0884   53.4359   17.3648 C   0  0  0  0  0  0
    4.3046   54.3443   18.3311 C   0  0  0  0  0  0
    3.9127   53.8227   19.5363 C   0  0  0  0  0  0
    3.9077   54.2504   20.7959 N   0  3  0  0  0  0
    3.5125   53.4792   21.9731 C   0  0  1  0  0  0
    2.4698   53.7541   22.1441 H   0  0  0  0  0  0
    3.5932   51.9720   21.6133 C   0  0  0  0  0  0
    3.0083   51.5777   20.2229 C   0  0  2  0  0  0
    3.4540   50.6311   19.9093 H   0  0  0  0  0  0
    3.4679   52.5942   19.2660 N   0  0  0  0  0  0
    3.5044   52.3157   17.9210 N   0  0  0  0  0  0
    1.4738   51.3879   20.2211 C   0  0  0  0  0  0
    1.0185   51.0349   19.0197 F   0  0  0  0  0  0
    1.1176   50.4246   21.0714 F   0  0  0  0  0  0
    0.8291   52.4962   20.5874 F   0  0  0  0  0  0
    4.3083   53.8588   23.2199 C   0  0  0  0  0  0
    5.7014   54.0015   23.1603 C   0  0  0  0  0  0
    6.4250   54.3812   24.2886 C   0  0  0  0  0  0
    5.7684   54.6108   25.4974 C   0  0  0  0  0  0
    4.3758   54.4637   25.5722 C   0  0  0  0  0  0
    3.6529   54.0964   24.4334 C   0  0  0  0  0  0
    3.5219   54.7227   27.0545 Cl  0  0  0  0  0  0
    6.7038   55.0722   26.8762 Cl  0  0  0  0  0  0
    8.4474   56.2523   18.0398 H   0  0  0  0  0  0
    7.1010   55.3554   18.7354 H   0  0  0  0  0  0
    6.9126   56.1803   17.1850 H   0  0  0  0  0  0
    8.6422   54.6315   16.1812 H   0  0  0  0  0  0
    8.8063   53.8265   17.7144 H   0  0  0  0  0  0
    8.3114   51.6352   16.6043 H   0  0  0  0  0  0
    6.7051   51.2980   16.0669 H   0  0  0  0  0  0
    8.8127   52.8272   14.4982 H   0  0  0  0  0  0
    8.1274   51.2757   14.0964 H   0  0  0  0  0  0
    7.1532   53.1963   12.7524 H   0  0  0  0  0  0
    5.9435   52.2774   13.5939 H   0  0  0  0  0  0
    7.1480   54.9367   14.5516 H   0  0  0  0  0  0
    5.5629   54.8059   13.9113 H   0  0  0  0  0  0
    4.7713   55.3091   18.1946 H   0  0  0  0  0  0
    3.1087   51.3874   22.3970 H   0  0  0  0  0  0
    4.6419   51.6705   21.6316 H   0  0  0  0  0  0
    3.8857   51.3897   17.7007 H   0  0  0  0  0  0
    6.2310   53.8270   22.2361 H   0  0  0  0  0  0
    7.4984   54.4909   24.2217 H   0  0  0  0  0  0
    2.5789   53.9889   24.5003 H   0  0  0  0  0  0
    4.1690   55.2116   20.9617 H   0  0  0  0  0  0
  1  2  1  0  0  0
  1 35  1  0  0  0
  1 36  1  0  0  0
  1 37  1  0  0  0
  2  3  1  0  0  0
  2 38  1  0  0  0
  2 39  1  0  0  0
  3  4  1  0  0  0
  3  9  1  0  0  0
  3  5  1  0  0  0
  5  6  1  0  0  0
  5 40  1  0  0  0
  5 41  1  0  0  0
  6  7  1  0  0  0
  6 42  1  0  0  0
  6 43  1  0  0  0
  7  8  1  0  0  0
  7 44  1  0  0  0
  7 45  1  0  0  0
  8  9  1  0  0  0
  8 46  1  0  0  0
  8 47  1  0  0  0
  9 10  1  0  0  0
 10 11  2  0  0  0
 10 12  1  0  0  0
 12 22  1  0  0  0
 12 13  2  0  0  0
 13 14  1  0  0  0
 13 48  1  0  0  0
 14 21  1  0  0  0
 14 15  2  0  0  0
 15 16  1  0  0  0
 15 55  1  0  0  0
 16 17  1  0  0  0
 16 18  1  0  0  0
 16 27  1  0  0  0
 18 19  1  0  0  0
 18 49  1  0  0  0
 18 50  1  0  0  0
 19 20  1  0  0  0
 19 21  1  0  0  0
 19 23  1  0  0  0
 21 22  1  0  0  0
 22 51  1  0  0  0
 23 24  1  0  0  0
 23 25  1  0  0  0
 23 26  1  0  0  0
 27 32  2  0  0  0
 27 28  1  0  0  0
 28 29  2  0  0  0
 28 52  1  0  0  0
 29 30  1  0  0  0
 29 53  1  0  0  0
 30 31  2  0  0  0
 30 34  1  0  0  0
 31 32  1  0  0  0
 31 33  1  0  0  0
 32 54  1  0  0  0
M  CHG  1  15   1
M  END
> <i_i_glide_confnum>
9

> <i_i_glide_lignum>
5267

> <i_i_glide_posenum>
363

> <i_i_glide_rotatable_bonds>
5

> <i_m_Source_File_Index>
3606

> <b_m_subgroup_collapsed>
0

> <r_i_docking_score>
-4.17861

> <r_i_glide_ecoul>
-4.93298

> <r_i_glide_eff_state_penalty>
0

> <r_i_glide_einternal>
1.32471

> <r_i_glide_emodel>
-42.2471

> <r_i_glide_energy>
-32.9373

> <r_i_glide_erotb>
0.267724

> <r_i_glide_esite>
-0.254963

> <r_i_glide_evdw>
-28.0043

> <r_i_glide_gscore>
-4.17861

> <r_i_glide_hbond>
-0.129249

> <r_i_glide_ligand_efficiency>
-0.134794

> <r_i_glide_ligand_efficiency_ln>
-0.942405

> <r_i_glide_ligand_efficiency_sa>
-0.423439

> <r_i_glide_lipo>
-2.29781

> <r_i_glide_metal>
0

> <r_i_glide_rewards>
0.37585

> <s_i_glide_gridfile>
wee1_glide-grid

> <s_m_Source_File>
wee1_decoys_glide_SP.sdf

> <s_m_Source_Path>
/Users/zhangxujun/Desktop

> <s_m_entry_id>
3881

> <s_m_entry_name>
wee1_decoys_glide_SP.3606

> <s_m_subgroup_title>
wee1_decoys_glide_SP

> <s_m_subgroupid>
wee1_decoys_glide_SP


$$$$
