ZINC39575061_4700
                    3D
 Schrodinger Suite 2024-2.
 38 41  0  0  1  0            999 V2000
   -2.9372   52.7429   24.4323 C   0  0  0  0  0  0
   -3.0187   51.2300   24.5922 C   0  0  0  0  0  0
   -4.1309   50.4780   24.4244 C   0  0  0  0  0  0
   -3.8395   48.7374   24.6472 S   0  0  0  0  0  0
   -2.2539   49.0493   25.4283 C   0  0  2  0  0  0
   -1.7717   50.3852   24.8489 C   0  0  2  0  0  0
   -0.7215   51.0755   25.7239 C   0  0  0  0  0  0
   -0.5865   50.8965   27.0867 N   0  0  0  0  0  0
   -1.1356   50.2323   27.6253 H   0  0  0  0  0  0
    0.4271   51.7263   27.5141 C   0  0  0  0  0  0
    1.0100   51.9875   28.7592 C   0  0  0  0  0  0
    2.0739   52.8931   28.7688 C   0  0  0  0  0  0
    2.5050   53.5495   27.5994 C   0  0  0  0  0  0
    1.9085   53.2974   26.3661 C   0  0  0  0  0  0
    0.8584   52.3698   26.3244 C   0  0  0  0  0  0
    0.1325   51.9491   25.2445 N   0  0  0  0  0  0
    3.5863   54.4089   27.5922 O   0  0  0  0  0  0
    3.9961   54.8589   28.8872 C   0  0  0  0  0  0
    3.9740   53.6927   29.9006 C   0  0  0  0  0  0
    2.6544   53.1502   29.9958 O   0  0  0  0  0  0
   -1.2952   47.9692   25.2820 N   0  0  0  0  0  0
   -5.5419   50.9496   24.1227 C   0  0  0  0  0  0
   -2.1275   53.0007   23.7494 H   0  0  0  0  0  0
   -3.8497   53.1840   24.0352 H   0  0  0  0  0  0
   -2.7280   53.2090   25.3959 H   0  0  0  0  0  0
   -2.4975   49.1751   26.4831 H   0  0  0  0  0  0
   -1.2940   50.2117   23.8826 H   0  0  0  0  0  0
    0.6648   51.5173   29.6664 H   0  0  0  0  0  0
    2.2604   53.7851   25.4702 H   0  0  0  0  0  0
    4.9963   55.2885   28.8229 H   0  0  0  0  0  0
    3.3175   55.6439   29.2251 H   0  0  0  0  0  0
    4.6622   52.9141   29.5654 H   0  0  0  0  0  0
    4.3045   54.0260   30.8822 H   0  0  0  0  0  0
   -0.3901   48.2915   25.5987 H   0  0  0  0  0  0
   -1.5428   47.2542   25.9528 H   0  0  0  0  0  0
   -5.7909   50.7462   23.0792 H   0  0  0  0  0  0
   -6.2571   50.4187   24.7539 H   0  0  0  0  0  0
   -5.6768   52.0158   24.3064 H   0  0  0  0  0  0
  1  2  1  0  0  0
  1 23  1  0  0  0
  1 24  1  0  0  0
  1 25  1  0  0  0
  2  6  1  0  0  0
  2  3  2  0  0  0
  3  4  1  0  0  0
  3 22  1  0  0  0
  4  5  1  0  0  0
  5  6  1  0  0  0
  5 21  1  0  0  0
  5 26  1  0  0  0
  6  7  1  0  0  0
  6 27  1  0  0  0
  7 16  2  0  0  0
  7  8  1  0  0  0
  8  9  1  0  0  0
  8 10  1  0  0  0
 10 15  2  0  0  0
 10 11  1  0  0  0
 11 12  2  0  0  0
 11 28  1  0  0  0
 12 20  1  0  0  0
 12 13  1  0  0  0
 13 14  2  0  0  0
 13 17  1  0  0  0
 14 15  1  0  0  0
 14 29  1  0  0  0
 15 16  1  0  0  0
 17 18  1  0  0  0
 18 19  1  0  0  0
 18 30  1  0  0  0
 18 31  1  0  0  0
 19 20  1  0  0  0
 19 32  1  0  0  0
 19 33  1  0  0  0
 21 34  1  0  0  0
 21 35  1  0  0  0
 22 36  1  0  0  0
 22 37  1  0  0  0
 22 38  1  0  0  0
M  END
> <i_i_glide_confnum>
4

> <i_i_glide_lignum>
4701

> <i_i_glide_posenum>
5

> <i_i_glide_rotatable_bonds>
1

> <i_m_Source_File_Index>
4539

> <b_m_subgroup_collapsed>
0

> <r_i_docking_score>
-4.74352

> <r_i_glide_ecoul>
-5.04067

> <r_i_glide_eff_state_penalty>
0

> <r_i_glide_einternal>
1.28744

> <r_i_glide_emodel>
-39.3767

> <r_i_glide_energy>
-30.1787

> <r_i_glide_erotb>
0.2002

> <r_i_glide_esite>
-0.108518

> <r_i_glide_evdw>
-25.138

> <r_i_glide_gscore>
-4.74352

> <r_i_glide_hbond>
-0.286492

> <r_i_glide_ligand_efficiency>
-0.225882

> <r_i_glide_ligand_efficiency_ln>
-1.17282

> <r_i_glide_ligand_efficiency_sa>
-0.62319

> <r_i_glide_lipo>
-1.19511

> <r_i_glide_metal>
0

> <r_i_glide_rewards>
-1.34059

> <s_i_glide_gridfile>
wee1_glide-grid

> <s_m_Source_File>
wee1_decoys_glide_SP.sdf

> <s_m_Source_Path>
/Users/zhangxujun/Desktop

> <s_m_entry_id>
4814

> <s_m_entry_name>
wee1_decoys_glide_SP.4539

> <s_m_subgroup_title>
wee1_decoys_glide_SP

> <s_m_subgroupid>
wee1_decoys_glide_SP


$$$$
