ZINC45606769_653
                    3D
 Schrodinger Suite 2024-2.
 51 52  0  0  1  0            999 V2000
    4.2672   53.0839   21.9188 C   0  0  0  0  0  0
    4.7812   54.3289   22.6621 C   0  0  2  0  0  0
    3.9919   55.0813   22.6700 H   0  0  0  0  0  0
    5.9925   54.8946   21.8588 C   0  0  0  0  0  0
    7.1059   54.8968   22.3622 O   0  0  0  0  0  0
    5.7438   55.3324   20.6026 N   0  0  0  0  0  0
    6.6264   55.8676   19.6374 C   0  0  0  0  0  0
    8.0264   55.9209   19.7848 C   0  0  0  0  0  0
    8.8284   56.4888   18.7964 C   0  0  0  0  0  0
    8.2479   57.0117   17.6431 C   0  0  0  0  0  0
    6.8676   56.9502   17.4720 C   0  0  0  0  0  0
    6.0587   56.3758   18.4545 C   0  0  0  0  0  0
    4.1804   56.2946   18.1175 Br  0  0  0  0  0  0
    9.3434   57.7991   16.3014 Br  0  0  0  0  0  0
    5.1178   54.0951   24.1852 N   0  3  0  0  0  0
    3.8339   53.6965   24.9577 C   0  0  0  0  0  0
    4.2069   53.2996   26.3990 C   0  0  0  0  0  0
    4.7334   54.4603   27.1296 N   0  0  0  0  0  0
    5.9891   54.8570   26.4666 C   0  0  0  0  0  0
    5.7681   55.2624   24.9860 C   0  0  0  0  0  0
    5.0340   54.0808   28.5301 C   0  0  0  0  0  0
    3.7757   53.8402   29.3979 C   0  0  0  0  0  0
    3.9036   53.2774   30.4825 O   0  0  0  0  0  0
    2.5747   54.2432   28.9434 N   0  0  0  0  0  0
    1.3103   54.0844   29.6600 C   0  0  0  0  0  0
    0.9014   55.2957   30.4802 C   0  0  0  0  0  0
    1.5041   56.4976   30.4814 C   0  0  0  0  0  0
    4.1113   53.2678   20.8537 H   0  0  0  0  0  0
    4.9761   52.2581   22.0223 H   0  0  0  0  0  0
    3.3032   52.7606   22.3117 H   0  0  0  0  0  0
    4.7877   55.2786   20.2815 H   0  0  0  0  0  0
    8.5363   55.5295   20.6499 H   0  0  0  0  0  0
    9.9020   56.5222   18.9256 H   0  0  0  0  0  0
    6.4189   57.3489   16.5727 H   0  0  0  0  0  0
    3.1395   54.5382   24.9159 H   0  0  0  0  0  0
    3.3700   52.8504   24.4622 H   0  0  0  0  0  0
    4.9468   52.4991   26.4421 H   0  0  0  0  0  0
    3.3008   52.9178   26.8694 H   0  0  0  0  0  0
    6.4366   55.6971   26.9991 H   0  0  0  0  0  0
    6.6863   54.0165   26.5031 H   0  0  0  0  0  0
    5.1051   56.1052   24.8884 H   0  0  0  0  0  0
    6.7392   55.5089   24.5657 H   0  0  0  0  0  0
    5.6419   54.8549   29.0069 H   0  0  0  0  0  0
    5.6607   53.1842   28.5596 H   0  0  0  0  0  0
    2.5543   54.7198   28.0548 H   0  0  0  0  0  0
    1.3342   53.2111   30.3167 H   0  0  0  0  0  0
    0.5165   53.8708   28.9421 H   0  0  0  0  0  0
    0.0424   55.1468   31.1195 H   0  0  0  0  0  0
    2.3637   56.7128   29.8618 H   0  0  0  0  0  0
    1.1380   57.2948   31.1088 H   0  0  0  0  0  0
    5.7668   53.3188   24.2226 H   0  0  0  0  0  0
  1  2  1  0  0  0
  1 28  1  0  0  0
  1 29  1  0  0  0
  1 30  1  0  0  0
  2  3  1  0  0  0
  2  4  1  0  0  0
  2 15  1  0  0  0
  4  5  2  0  0  0
  4  6  1  0  0  0
  6  7  1  0  0  0
  6 31  1  0  0  0
  7 12  2  0  0  0
  7  8  1  0  0  0
  8  9  2  0  0  0
  8 32  1  0  0  0
  9 10  1  0  0  0
  9 33  1  0  0  0
 10 11  2  0  0  0
 10 14  1  0  0  0
 11 12  1  0  0  0
 11 34  1  0  0  0
 12 13  1  0  0  0
 15 20  1  0  0  0
 15 16  1  0  0  0
 15 51  1  0  0  0
 16 17  1  0  0  0
 16 35  1  0  0  0
 16 36  1  0  0  0
 17 18  1  0  0  0
 17 37  1  0  0  0
 17 38  1  0  0  0
 18 19  1  0  0  0
 18 21  1  0  0  0
 19 20  1  0  0  0
 19 39  1  0  0  0
 19 40  1  0  0  0
 20 41  1  0  0  0
 20 42  1  0  0  0
 21 22  1  0  0  0
 21 43  1  0  0  0
 21 44  1  0  0  0
 22 23  2  0  0  0
 22 24  1  0  0  0
 24 25  1  0  0  0
 24 45  1  0  0  0
 25 26  1  0  0  0
 25 46  1  0  0  0
 25 47  1  0  0  0
 26 27  2  0  0  0
 26 48  1  0  0  0
 27 49  1  0  0  0
 27 50  1  0  0  0
M  CHG  1  15   1
M  END
> <i_i_glide_confnum>
174

> <i_i_glide_lignum>
654

> <i_i_glide_posenum>
145

> <i_i_glide_rotatable_bonds>
9

> <i_m_Source_File_Index>
1285

> <b_m_subgroup_collapsed>
0

> <r_i_docking_score>
-5.26789

> <r_i_glide_ecoul>
-4.29487

> <r_i_glide_eff_state_penalty>
0

> <r_i_glide_einternal>
7.55758

> <r_i_glide_emodel>
-51.4057

> <r_i_glide_energy>
-40.7147

> <r_i_glide_erotb>
0.679934

> <r_i_glide_esite>
0

> <r_i_glide_evdw>
-36.4198

> <r_i_glide_gscore>
-5.26789

> <r_i_glide_hbond>
-0.306523

> <r_i_glide_ligand_efficiency>
-0.202611

> <r_i_glide_ligand_efficiency_ln>
-1.23715

> <r_i_glide_ligand_efficiency_sa>
-0.600235

> <r_i_glide_lipo>
-2.64143

> <r_i_glide_metal>
0

> <r_i_glide_rewards>
-0.534656

> <s_i_glide_gridfile>
wee1_glide-grid

> <s_m_Source_File>
wee1_decoys_glide_SP.sdf

> <s_m_Source_Path>
/Users/zhangxujun/Desktop

> <s_m_entry_id>
1560

> <s_m_entry_name>
wee1_decoys_glide_SP.1285

> <s_m_subgroup_title>
wee1_decoys_glide_SP

> <s_m_subgroupid>
wee1_decoys_glide_SP


$$$$
