ZINC33779614_5594
                    3D
 Schrodinger Suite 2024-2.
 60 63  0  0  1  0            999 V2000
    1.2341   50.5612   21.2795 C   0  0  0  0  0  0
    2.3695   51.5670   21.2785 C   0  0  0  0  0  0
    2.2644   52.7371   22.0340 C   0  0  0  0  0  0
    3.3020   53.6658   22.0300 C   0  0  0  0  0  0
    4.4486   53.4167   21.2745 C   0  0  0  0  0  0
    4.5468   52.2575   20.5020 C   0  0  0  0  0  0
    3.5043   51.3356   20.4999 C   0  0  0  0  0  0
    5.4936   54.3588   21.2446 N   0  0  0  0  0  0
    5.9010   55.1218   20.1656 C   0  0  0  0  0  0
    6.8824   55.9224   20.5112 N   0  0  0  0  0  0
    7.1413   55.6968   21.8570 N   0  0  0  0  0  0
    6.3041   54.7880   22.2815 C   0  0  0  0  0  0
    6.3955   54.0967   23.9011 S   0  0  0  0  0  0
    5.2384   55.1515   24.8101 C   0  0  0  0  0  0
    4.9387   54.5719   26.1902 C   0  0  0  0  0  0
    5.8685   54.7969   27.2102 C   0  0  0  0  0  0
    5.6524   54.2924   28.4887 C   0  0  0  0  0  0
    4.5100   53.5485   28.7656 C   0  0  0  0  0  0
    3.5805   53.3079   27.7584 C   0  0  0  0  0  0
    3.7817   53.8139   26.4701 C   0  0  0  0  0  0
    2.7431   53.5032   25.4057 C   0  0  0  0  0  0
    5.3344   54.9914   18.7522 C   0  0  1  0  0  0
    4.3608   54.4965   18.8012 H   0  0  0  0  0  0
    5.1058   56.3748   18.1073 C   0  0  0  0  0  0
    6.2282   54.1301   17.9667 N   0  0  0  0  0  0
    5.9816   53.6631   16.7273 C   0  0  0  0  0  0
    4.9474   53.9401   16.1148 O   0  0  0  0  0  0
    7.0429   52.7864   16.0929 C   0  0  0  0  0  0
    8.2757   52.5252   16.7171 C   0  0  0  0  0  0
    9.2284   51.7156   16.1003 C   0  0  0  0  0  0
    8.9721   51.1607   14.8484 C   0  0  0  0  0  0
    7.7542   51.4006   14.1959 C   0  0  0  0  0  0
    6.8036   52.2116   14.8352 C   0  0  0  0  0  0
    7.4708   50.8032   12.8685 N   0  3  0  0  0  0
    8.3275   50.0969   12.3444 O   0  0  0  0  0  0
    6.3872   51.0407   12.3379 O   0  5  0  0  0  0
    1.3077   49.9024   22.1440 H   0  0  0  0  0  0
    0.2702   51.0679   21.3194 H   0  0  0  0  0  0
    1.2352   49.9572   20.3693 H   0  0  0  0  0  0
    1.3774   52.9329   22.6160 H   0  0  0  0  0  0
    3.1935   54.5867   22.5815 H   0  0  0  0  0  0
    5.4138   52.0717   19.8814 H   0  0  0  0  0  0
    3.5807   50.4530   19.8810 H   0  0  0  0  0  0
    5.6796   56.1427   24.9188 H   0  0  0  0  0  0
    4.3264   55.2967   24.2458 H   0  0  0  0  0  0
    6.7616   55.3732   27.0206 H   0  0  0  0  0  0
    6.3692   54.4919   29.2724 H   0  0  0  0  0  0
    4.3433   53.1558   29.7568 H   0  0  0  0  0  0
    2.7027   52.7184   27.9819 H   0  0  0  0  0  0
    1.9054   52.9203   25.7962 H   0  0  0  0  0  0
    2.3401   54.4187   24.9680 H   0  0  0  0  0  0
    3.2135   52.9190   24.6156 H   0  0  0  0  0  0
    4.4171   56.9678   18.7083 H   0  0  0  0  0  0
    6.0369   56.9350   18.0076 H   0  0  0  0  0  0
    4.6658   56.2967   17.1122 H   0  0  0  0  0  0
    6.9794   53.7010   18.4813 H   0  0  0  0  0  0
    8.5215   52.9440   17.6822 H   0  0  0  0  0  0
   10.1700   51.5188   16.5963 H   0  0  0  0  0  0
    9.7285   50.5379   14.3891 H   0  0  0  0  0  0
    5.8563   52.3937   14.3445 H   0  0  0  0  0  0
  1  2  1  0  0  0
  1 37  1  0  0  0
  1 38  1  0  0  0
  1 39  1  0  0  0
  2  7  2  0  0  0
  2  3  1  0  0  0
  3  4  2  0  0  0
  3 40  1  0  0  0
  4  5  1  0  0  0
  4 41  1  0  0  0
  5  6  2  0  0  0
  5  8  1  0  0  0
  6  7  1  0  0  0
  6 42  1  0  0  0
  7 43  1  0  0  0
  8 12  1  0  0  0
  8  9  1  0  0  0
  9 10  2  0  0  0
  9 22  1  0  0  0
 10 11  1  0  0  0
 11 12  2  0  0  0
 12 13  1  0  0  0
 13 14  1  0  0  0
 14 15  1  0  0  0
 14 44  1  0  0  0
 14 45  1  0  0  0
 15 20  2  0  0  0
 15 16  1  0  0  0
 16 17  2  0  0  0
 16 46  1  0  0  0
 17 18  1  0  0  0
 17 47  1  0  0  0
 18 19  2  0  0  0
 18 48  1  0  0  0
 19 20  1  0  0  0
 19 49  1  0  0  0
 20 21  1  0  0  0
 21 50  1  0  0  0
 21 51  1  0  0  0
 21 52  1  0  0  0
 22 23  1  0  0  0
 22 24  1  0  0  0
 22 25  1  0  0  0
 24 53  1  0  0  0
 24 54  1  0  0  0
 24 55  1  0  0  0
 25 26  1  0  0  0
 25 56  1  0  0  0
 26 27  2  0  0  0
 26 28  1  0  0  0
 28 33  2  0  0  0
 28 29  1  0  0  0
 29 30  2  0  0  0
 29 57  1  0  0  0
 30 31  1  0  0  0
 30 58  1  0  0  0
 31 32  2  0  0  0
 31 59  1  0  0  0
 32 33  1  0  0  0
 32 34  1  0  0  0
 33 60  1  0  0  0
 34 35  2  0  0  0
 34 36  1  0  0  0
M  CHG  2  34   1  36  -1
M  END
> <i_i_glide_confnum>
173

> <i_i_glide_lignum>
5595

> <i_i_glide_posenum>
266

> <i_i_glide_rotatable_bonds>
9

> <i_m_Source_File_Index>
3797

> <b_m_subgroup_collapsed>
0

> <r_i_docking_score>
-5.56207

> <r_i_glide_ecoul>
0.253567

> <r_i_glide_eff_state_penalty>
0

> <r_i_glide_einternal>
5.89379

> <r_i_glide_emodel>
-61.7108

> <r_i_glide_energy>
-47.2373

> <r_i_glide_erotb>
0.684152

> <r_i_glide_esite>
-0.0509997

> <r_i_glide_evdw>
-47.4909

> <r_i_glide_gscore>
-5.56207

> <r_i_glide_hbond>
0

> <r_i_glide_ligand_efficiency>
-0.158916

> <r_i_glide_ligand_efficiency_ln>
-1.221

> <r_i_glide_ligand_efficiency_sa>
-0.519826

> <r_i_glide_lipo>
-2.91994

> <r_i_glide_metal>
0

> <r_i_glide_rewards>
-0.93877

> <s_i_glide_gridfile>
wee1_glide-grid

> <s_m_Source_File>
wee1_decoys_glide_SP.sdf

> <s_m_Source_Path>
/Users/zhangxujun/Desktop

> <s_m_entry_id>
4072

> <s_m_entry_name>
wee1_decoys_glide_SP.3797

> <s_m_subgroup_title>
wee1_decoys_glide_SP

> <s_m_subgroupid>
wee1_decoys_glide_SP


$$$$
