ZINC62825495_2635
                    3D
 Schrodinger Suite 2024-2.
 33 33  0  0  1  0            999 V2000
    6.8768   53.2164   27.8548 C   0  0  0  0  0  0
    6.2168   54.5576   27.5294 C   0  0  1  0  0  0
    6.9817   55.3180   27.6809 H   0  0  0  0  0  0
    5.8047   54.7161   26.0508 C   0  0  0  0  0  0
    6.9580   54.7876   25.2240 O   0  0  0  0  0  0
    6.6339   55.0552   23.8663 C   0  0  0  0  0  0
    5.1724   54.8938   28.5022 N   0  0  0  0  0  0
    3.8899   54.4968   28.5682 C   0  0  0  0  0  0
    3.0963   55.1094   29.2811 O   0  0  0  0  0  0
    3.5636   53.4105   27.8409 N   0  0  0  0  0  0
    2.2689   52.8672   27.7669 C   0  0  0  0  0  0
    1.6184   52.2821   28.8847 C   0  0  0  0  0  0
    0.2953   51.8336   28.7318 C   0  0  0  0  0  0
   -0.3540   51.9192   27.5025 C   0  0  0  0  0  0
    0.3064   52.4562   26.4047 C   0  0  0  0  0  0
    1.6052   52.9383   26.5296 C   0  0  0  0  0  0
    2.4235   53.6968   24.9794 Br  0  0  0  0  0  0
   -2.1432   51.2997   27.3076 Br  0  0  0  0  0  0
    2.2913   52.0969   30.2128 C   0  0  0  0  0  0
    1.5983   52.2337   31.2433 O   0  0  0  0  0  0
    3.4923   51.7354   30.2217 O   0  5  0  0  0  0
    7.5140   52.8966   27.0345 H   0  0  0  0  0  0
    7.5089   53.2977   28.7382 H   0  0  0  0  0  0
    6.1398   52.4351   28.0283 H   0  0  0  0  0  0
    5.2073   55.6230   25.9316 H   0  0  0  0  0  0
    5.1860   53.8746   25.7396 H   0  0  0  0  0  0
    7.5041   54.9186   23.2305 H   0  0  0  0  0  0
    6.3049   56.0878   23.7525 H   0  0  0  0  0  0
    5.8548   54.3899   23.4899 H   0  0  0  0  0  0
    5.4508   55.5646   29.2028 H   0  0  0  0  0  0
    4.2784   52.9702   27.2828 H   0  0  0  0  0  0
   -0.2343   51.3907   29.5657 H   0  0  0  0  0  0
   -0.1994   52.5108   25.4519 H   0  0  0  0  0  0
  1  2  1  0  0  0
  1 22  1  0  0  0
  1 23  1  0  0  0
  1 24  1  0  0  0
  2  3  1  0  0  0
  2  4  1  0  0  0
  2  7  1  0  0  0
  4  5  1  0  0  0
  4 25  1  0  0  0
  4 26  1  0  0  0
  5  6  1  0  0  0
  6 27  1  0  0  0
  6 28  1  0  0  0
  6 29  1  0  0  0
  7  8  1  0  0  0
  7 30  1  0  0  0
  8  9  2  0  0  0
  8 10  1  0  0  0
 10 11  1  0  0  0
 10 31  1  0  0  0
 11 16  2  0  0  0
 11 12  1  0  0  0
 12 13  2  0  0  0
 12 19  1  0  0  0
 13 14  1  0  0  0
 13 32  1  0  0  0
 14 15  2  0  0  0
 14 18  1  0  0  0
 15 16  1  0  0  0
 15 33  1  0  0  0
 16 17  1  0  0  0
 19 20  2  0  0  0
 19 21  1  0  0  0
M  CHG  1  21  -1
M  END
> <i_i_glide_confnum>
35

> <i_i_glide_lignum>
2636

> <i_i_glide_posenum>
246

> <i_i_glide_rotatable_bonds>
7

> <i_m_Source_File_Index>
2649

> <b_m_subgroup_collapsed>
0

> <r_i_docking_score>
-4.4291

> <r_i_glide_ecoul>
-5.47203

> <r_i_glide_eff_state_penalty>
0

> <r_i_glide_einternal>
5.89809

> <r_i_glide_emodel>
-45.4847

> <r_i_glide_energy>
-39.627

> <r_i_glide_erotb>
0.588299

> <r_i_glide_esite>
-0.0346844

> <r_i_glide_evdw>
-34.155

> <r_i_glide_gscore>
-4.4291

> <r_i_glide_hbond>
-0.389971

> <r_i_glide_ligand_efficiency>
-0.221455

> <r_i_glide_ligand_efficiency_ln>
-1.10846

> <r_i_glide_ligand_efficiency_sa>
-0.601122

> <r_i_glide_lipo>
-1.97425

> <r_i_glide_metal>
0

> <r_i_glide_rewards>
-0.0899392

> <s_i_glide_gridfile>
wee1_glide-grid

> <s_m_Source_File>
wee1_decoys_glide_SP.sdf

> <s_m_Source_Path>
/Users/zhangxujun/Desktop

> <s_m_entry_id>
2924

> <s_m_entry_name>
wee1_decoys_glide_SP.2649

> <s_m_subgroup_title>
wee1_decoys_glide_SP

> <s_m_subgroupid>
wee1_decoys_glide_SP


$$$$
