ZINC35270152_2474
                    3D
 Schrodinger Suite 2024-2.
 42 45  0  0  1  0            999 V2000
   -6.2123   51.5208   25.4679 C   0  0  0  0  0  0
   -5.3589   52.0186   24.4816 C   0  0  0  0  0  0
   -4.5240   50.9716   24.1104 C   0  0  0  0  0  0
   -4.8647   49.8490   24.7963 O   0  0  0  0  0  0
   -5.8783   50.1868   25.6333 C   0  0  0  0  0  0
   -3.4066   50.8395   23.1149 C   0  0  1  0  0  0
   -3.7244   50.3783   22.1798 H   0  0  0  0  0  0
   -2.8946   52.0964   22.7099 O   0  0  0  0  0  0
   -2.1462   52.7733   23.7260 C   0  0  0  0  0  0
   -1.0355   51.8561   24.2394 C   0  0  2  0  0  0
   -0.3729   51.6216   23.4021 H   0  0  0  0  0  0
   -1.6888   50.5501   24.7139 C   0  0  1  0  0  0
   -2.3844   50.7495   25.5325 H   0  0  0  0  0  0
   -2.3733   49.9982   23.5825 O   0  0  0  0  0  0
   -0.6060   49.5995   25.2442 C   0  0  1  0  0  0
    0.0637   49.3356   24.4235 H   0  0  0  0  0  0
    0.2250   50.3395   26.3272 C   0  0  1  0  0  0
    1.0972   49.7364   26.5821 H   0  0  0  0  0  0
    0.7391   51.6994   25.7783 C   0  0  1  0  0  0
    1.4107   51.5347   24.9310 H   0  0  0  0  0  0
   -0.3251   52.4910   25.3018 O   0  0  0  0  0  0
    1.3957   52.3768   26.8225 O   0  0  0  0  0  0
    2.4961   53.1669   26.5471 C   0  0  0  0  0  0
    2.7041   53.7861   25.3045 C   0  0  0  0  0  0
    3.8797   54.4942   25.0505 C   0  0  0  0  0  0
    4.8535   54.6135   26.0420 C   0  0  0  0  0  0
    4.6466   54.0265   27.2893 C   0  0  0  0  0  0
    3.4777   53.3028   27.5419 C   0  0  0  0  0  0
    3.2585   52.4665   29.2431 Br  0  0  0  0  0  0
    6.4681   55.5574   25.6812 Br  0  0  0  0  0  0
   -0.4981   50.5079   27.5311 O   0  0  0  0  0  0
   -1.1615   48.3629   25.6816 O   0  0  0  0  0  0
   -6.9860   52.0634   25.9917 H   0  0  0  0  0  0
   -5.3434   53.0208   24.0820 H   0  0  0  0  0  0
   -6.2537   49.3970   26.2677 H   0  0  0  0  0  0
   -1.7169   53.6739   23.2909 H   0  0  0  0  0  0
   -2.7992   53.1112   24.5318 H   0  0  0  0  0  0
    1.9633   53.7116   24.5228 H   0  0  0  0  0  0
    4.0373   54.9367   24.0799 H   0  0  0  0  0  0
    5.4020   54.1168   28.0578 H   0  0  0  0  0  0
   -0.8611   49.6453   27.8309 H   0  0  0  0  0  0
   -1.2964   48.3630   26.6442 H   0  0  0  0  0  0
  1  5  2  0  0  0
  1  2  1  0  0  0
  1 33  1  0  0  0
  2  3  2  0  0  0
  2 34  1  0  0  0
  3  4  1  0  0  0
  3  6  1  0  0  0
  4  5  1  0  0  0
  5 35  1  0  0  0
  6  7  1  0  0  0
  6 14  1  0  0  0
  6  8  1  0  0  0
  8  9  1  0  0  0
  9 10  1  0  0  0
  9 36  1  0  0  0
  9 37  1  0  0  0
 10 11  1  0  0  0
 10 21  1  0  0  0
 10 12  1  0  0  0
 12 13  1  0  0  0
 12 14  1  0  0  0
 12 15  1  0  0  0
 15 16  1  0  0  0
 15 17  1  0  0  0
 15 32  1  0  0  0
 17 18  1  0  0  0
 17 19  1  0  0  0
 17 31  1  0  0  0
 19 20  1  0  0  0
 19 21  1  0  0  0
 19 22  1  0  0  0
 22 23  1  0  0  0
 23 28  2  0  0  0
 23 24  1  0  0  0
 24 25  2  0  0  0
 24 38  1  0  0  0
 25 26  1  0  0  0
 25 39  1  0  0  0
 26 27  2  0  0  0
 26 30  1  0  0  0
 27 28  1  0  0  0
 27 40  1  0  0  0
 28 29  1  0  0  0
 31 41  1  0  0  0
 32 42  1  0  0  0
M  END
> <i_i_glide_confnum>
1

> <i_i_glide_lignum>
2475

> <i_i_glide_posenum>
313

> <i_i_glide_rotatable_bonds>
5

> <i_m_Source_File_Index>
1324

> <b_m_subgroup_collapsed>
0

> <r_i_docking_score>
-4.83582

> <r_i_glide_ecoul>
-11.7616

> <r_i_glide_eff_state_penalty>
0

> <r_i_glide_einternal>
4.90133

> <r_i_glide_emodel>
-46.437

> <r_i_glide_energy>
-35.9837

> <r_i_glide_erotb>
0.252243

> <r_i_glide_esite>
-3.29896e-06

> <r_i_glide_evdw>
-24.222

> <r_i_glide_gscore>
-4.83582

> <r_i_glide_hbond>
0

> <r_i_glide_ligand_efficiency>
-0.185993

> <r_i_glide_ligand_efficiency_ln>
-1.13568

> <r_i_glide_ligand_efficiency_sa>
-0.551003

> <r_i_glide_lipo>
-1.94864

> <r_i_glide_metal>
0

> <r_i_glide_rewards>
-0.164065

> <s_i_glide_gridfile>
wee1_glide-grid

> <s_m_Source_File>
wee1_decoys_glide_SP.sdf

> <s_m_Source_Path>
/Users/zhangxujun/Desktop

> <s_m_entry_id>
1599

> <s_m_entry_name>
wee1_decoys_glide_SP.1324

> <s_m_subgroup_title>
wee1_decoys_glide_SP

> <s_m_subgroupid>
wee1_decoys_glide_SP


$$$$
