ZINC67061339_2583
                    3D
 Schrodinger Suite 2024-2.
 44 45  0  0  1  0            999 V2000
    2.5783   54.0966   25.0821 C   0  0  0  0  0  0
    3.6627   54.4726   25.8739 C   0  0  0  0  0  0
    4.9552   54.4611   25.3486 C   0  0  0  0  0  0
    5.1638   54.0765   24.0136 C   0  0  0  0  0  0
    4.0614   53.7105   23.2283 C   0  0  0  0  0  0
    2.7738   53.7303   23.7554 C   0  0  0  0  0  0
    1.7184   53.3749   22.9894 F   0  0  0  0  0  0
    6.5679   53.8854   23.4450 C   0  0  0  0  0  0
    7.1044   54.9903   22.6501 N   0  0  0  0  0  0
    6.7046   55.2967   21.4068 C   0  0  0  0  0  0
    5.5570   55.1207   20.9960 O   0  0  0  0  0  0
    7.7383   55.6971   20.6365 N   0  0  0  0  0  0
    7.5324   55.9648   19.2758 N   0  0  0  0  0  0
    6.9745   57.1297   18.8817 C   0  0  0  0  0  0
    6.7044   58.0522   19.6547 O   0  0  0  0  0  0
    6.6538   57.2465   17.3834 C   0  0  0  0  0  0
    6.6493   58.6957   16.8196 C   0  0  0  0  0  0
    8.0327   59.3965   16.8393 C   0  0  0  0  0  0
    9.0190   58.7560   15.8382 C   0  0  0  0  0  0
    8.4386   58.7339   14.4067 C   0  0  0  0  0  0
    7.0192   58.1268   14.3468 C   0  0  0  0  0  0
    6.0782   58.7787   15.3839 C   0  0  0  0  0  0
    6.4023   54.8967   26.5108 Br  0  0  0  0  0  0
    1.5808   54.0890   25.4929 H   0  0  0  0  0  0
    3.5044   54.7512   26.9055 H   0  0  0  0  0  0
    4.1974   53.3859   22.2073 H   0  0  0  0  0  0
    6.5878   52.9581   22.8718 H   0  0  0  0  0  0
    7.2736   53.6970   24.2529 H   0  0  0  0  0  0
    7.9975   55.3489   22.9709 H   0  0  0  0  0  0
    8.6656   55.9274   20.9630 H   0  0  0  0  0  0
    7.7129   55.1740   18.6741 H   0  0  0  0  0  0
    5.6621   56.8132   17.2483 H   0  0  0  0  0  0
    7.3332   56.6145   16.8115 H   0  0  0  0  0  0
    5.9743   59.2967   17.4326 H   0  0  0  0  0  0
    8.4629   59.3632   17.8404 H   0  0  0  0  0  0
    7.9082   60.4536   16.5972 H   0  0  0  0  0  0
    9.2634   57.7408   16.1519 H   0  0  0  0  0  0
    9.9611   59.3052   15.8454 H   0  0  0  0  0  0
    9.1069   58.1855   13.7421 H   0  0  0  0  0  0
    8.4030   59.7548   14.0230 H   0  0  0  0  0  0
    7.0724   57.0508   14.5154 H   0  0  0  0  0  0
    6.6063   58.2519   13.3449 H   0  0  0  0  0  0
    5.9103   59.8247   15.1183 H   0  0  0  0  0  0
    5.1011   58.2961   15.3403 H   0  0  0  0  0  0
  1  6  2  0  0  0
  1  2  1  0  0  0
  1 24  1  0  0  0
  2  3  2  0  0  0
  2 25  1  0  0  0
  3  4  1  0  0  0
  3 23  1  0  0  0
  4  5  2  0  0  0
  4  8  1  0  0  0
  5  6  1  0  0  0
  5 26  1  0  0  0
  6  7  1  0  0  0
  8  9  1  0  0  0
  8 27  1  0  0  0
  8 28  1  0  0  0
  9 10  1  0  0  0
  9 29  1  0  0  0
 10 11  2  0  0  0
 10 12  1  0  0  0
 12 13  1  0  0  0
 12 30  1  0  0  0
 13 14  1  0  0  0
 13 31  1  0  0  0
 14 15  2  0  0  0
 14 16  1  0  0  0
 16 17  1  0  0  0
 16 32  1  0  0  0
 16 33  1  0  0  0
 17 22  1  0  0  0
 17 18  1  0  0  0
 17 34  1  0  0  0
 18 19  1  0  0  0
 18 35  1  0  0  0
 18 36  1  0  0  0
 19 20  1  0  0  0
 19 37  1  0  0  0
 19 38  1  0  0  0
 20 21  1  0  0  0
 20 39  1  0  0  0
 20 40  1  0  0  0
 21 22  1  0  0  0
 21 41  1  0  0  0
 21 42  1  0  0  0
 22 43  1  0  0  0
 22 44  1  0  0  0
M  END
> <i_i_glide_confnum>
90

> <i_i_glide_lignum>
2584

> <i_i_glide_posenum>
282

> <i_i_glide_rotatable_bonds>
8

> <i_m_Source_File_Index>
797

> <b_m_subgroup_collapsed>
0

> <r_i_docking_score>
-5.40884

> <r_i_glide_ecoul>
-5.88966

> <r_i_glide_eff_state_penalty>
0

> <r_i_glide_einternal>
6.06199

> <r_i_glide_emodel>
-47.7111

> <r_i_glide_energy>
-36.677

> <r_i_glide_erotb>
0.782655

> <r_i_glide_esite>
-0.0106575

> <r_i_glide_evdw>
-30.7874

> <r_i_glide_gscore>
-5.40884

> <r_i_glide_hbond>
-0.582124

> <r_i_glide_ligand_efficiency>
-0.235167

> <r_i_glide_ligand_efficiency_ln>
-1.30791

> <r_i_glide_ligand_efficiency_sa>
-0.668783

> <r_i_glide_lipo>
-2.07452

> <r_i_glide_metal>
0

> <r_i_glide_rewards>
-1.10138

> <s_i_glide_gridfile>
wee1_glide-grid

> <s_m_Source_File>
wee1_decoys_glide_SP.sdf

> <s_m_Source_Path>
/Users/zhangxujun/Desktop

> <s_m_entry_id>
1072

> <s_m_entry_name>
wee1_decoys_glide_SP.797

> <s_m_subgroup_title>
wee1_decoys_glide_SP

> <s_m_subgroupid>
wee1_decoys_glide_SP


$$$$
