ZINC38596782_3054
                    3D
 Schrodinger Suite 2024-2.
 68 71  0  0  1  0            999 V2000
   -0.3103   51.9757   27.4997 C   0  0  0  0  0  0
   -1.0677   51.0022   26.5651 C   0  0  2  0  0  0
   -0.4201   50.1310   26.4499 H   0  0  0  0  0  0
   -1.3471   51.5741   25.1328 C   0  0  2  0  0  0
   -2.0081   52.4242   25.2896 H   0  0  0  0  0  0
   -2.0716   50.6168   24.1812 C   0  0  0  0  0  0
   -2.9838   50.9321   23.1732 C   0  0  0  0  0  0
   -3.4651   49.8342   22.4559 C   0  0  0  0  0  0
   -2.9216   48.6423   22.8921 C   0  0  0  0  0  0
   -1.8129   48.8862   24.1974 S   0  0  0  0  0  0
   -0.1225   52.1530   24.5586 N   0  0  0  0  0  0
   -0.3926   53.2894   23.6809 C   0  0  0  0  0  0
    0.9059   54.0952   23.5201 C   0  0  0  0  0  0
    1.9415   53.1975   22.8181 N   0  3  0  0  0  0
    2.1505   51.8655   23.5755 C   0  0  0  0  0  0
    0.8060   51.1960   23.9358 C   0  0  0  0  0  0
    3.2538   53.9423   22.4601 C   0  0  0  0  0  0
    4.3628   54.0970   23.5062 C   0  0  0  0  0  0
    4.1150   54.4894   24.8296 C   0  0  0  0  0  0
    5.1665   54.6578   25.7249 C   0  0  0  0  0  0
    6.4732   54.4594   25.2949 C   0  0  0  0  0  0
    6.7353   54.0964   23.9778 C   0  0  0  0  0  0
    5.6831   53.9071   23.0887 C   0  0  0  0  0  0
   -2.2605   50.4969   27.2517 N   0  0  0  0  0  0
   -3.4386   51.1384   27.4260 C   0  0  0  0  0  0
   -3.6926   52.2171   26.8820 O   0  0  0  0  0  0
   -4.4531   50.4753   28.2990 C   0  0  0  0  0  0
   -5.5686   50.9916   28.4376 O   0  0  0  0  0  0
   -4.1006   49.2984   28.8811 N   0  0  0  0  0  0
   -5.0416   48.4834   29.5287 C   0  0  0  0  0  0
   -5.3981   47.2975   28.8818 C   0  0  0  0  0  0
   -6.4124   46.4971   29.3993 C   0  0  0  0  0  0
   -7.0275   46.8415   30.6004 C   0  0  0  0  0  0
   -6.6495   48.0032   31.2697 C   0  0  0  0  0  0
   -5.6682   48.8589   30.7356 C   0  0  0  0  0  0
   -5.2967   50.0522   31.3336 O   0  0  0  0  0  0
   -5.9823   50.4892   32.5040 C   0  0  0  0  0  0
    0.6220   52.3194   27.0516 H   0  0  0  0  0  0
   -0.8963   52.8708   27.7066 H   0  0  0  0  0  0
   -0.0476   51.4980   28.4443 H   0  0  0  0  0  0
   -3.2976   51.9453   22.9721 H   0  0  0  0  0  0
   -4.1824   49.9090   21.6517 H   0  0  0  0  0  0
   -3.1146   47.6479   22.5192 H   0  0  0  0  0  0
   -0.7674   52.8968   22.7315 H   0  0  0  0  0  0
   -1.1662   53.9427   24.0815 H   0  0  0  0  0  0
    1.2733   54.4242   24.4842 H   0  0  0  0  0  0
    0.7733   54.9655   22.8818 H   0  0  0  0  0  0
    2.7046   52.0977   24.4818 H   0  0  0  0  0  0
    2.7044   51.2282   22.8860 H   0  0  0  0  0  0
    0.9813   50.3290   24.5744 H   0  0  0  0  0  0
    0.3329   50.8535   23.0139 H   0  0  0  0  0  0
    3.6200   53.3672   21.6067 H   0  0  0  0  0  0
    2.9549   54.9189   22.0818 H   0  0  0  0  0  0
    3.1254   54.6786   25.1997 H   0  0  0  0  0  0
    4.9693   54.9453   26.7476 H   0  0  0  0  0  0
    7.2865   54.5762   25.9935 H   0  0  0  0  0  0
    7.7521   53.9413   23.6476 H   0  0  0  0  0  0
    5.9022   53.6228   22.0697 H   0  0  0  0  0  0
   -2.0959   49.5912   27.7110 H   0  0  0  0  0  0
   -3.1654   48.9056   28.7703 H   0  0  0  0  0  0
   -4.9251   47.0220   27.9494 H   0  0  0  0  0  0
   -6.7221   45.6078   28.8713 H   0  0  0  0  0  0
   -7.8025   46.2103   31.0120 H   0  0  0  0  0  0
   -7.1476   48.2337   32.1986 H   0  0  0  0  0  0
   -5.6956   51.5115   32.7414 H   0  0  0  0  0  0
   -7.0639   50.4972   32.3624 H   0  0  0  0  0  0
   -5.7353   49.8631   33.3628 H   0  0  0  0  0  0
    1.5083   52.9604   21.9344 H   0  0  0  0  0  0
  1  2  1  0  0  0
  1 38  1  0  0  0
  1 39  1  0  0  0
  1 40  1  0  0  0
  2  3  1  0  0  0
  2  4  1  0  0  0
  2 24  1  0  0  0
  4  5  1  0  0  0
  4  6  1  0  0  0
  4 11  1  0  0  0
  6 10  1  0  0  0
  6  7  2  0  0  0
  7  8  1  0  0  0
  7 41  1  0  0  0
  8  9  2  0  0  0
  8 42  1  0  0  0
  9 10  1  0  0  0
  9 43  1  0  0  0
 11 16  1  0  0  0
 11 12  1  0  0  0
 12 13  1  0  0  0
 12 44  1  0  0  0
 12 45  1  0  0  0
 13 14  1  0  0  0
 13 46  1  0  0  0
 13 47  1  0  0  0
 14 15  1  0  0  0
 14 17  1  0  0  0
 14 68  1  0  0  0
 15 16  1  0  0  0
 15 48  1  0  0  0
 15 49  1  0  0  0
 16 50  1  0  0  0
 16 51  1  0  0  0
 17 18  1  0  0  0
 17 52  1  0  0  0
 17 53  1  0  0  0
 18 23  2  0  0  0
 18 19  1  0  0  0
 19 20  2  0  0  0
 19 54  1  0  0  0
 20 21  1  0  0  0
 20 55  1  0  0  0
 21 22  2  0  0  0
 21 56  1  0  0  0
 22 23  1  0  0  0
 22 57  1  0  0  0
 23 58  1  0  0  0
 24 25  1  0  0  0
 24 59  1  0  0  0
 25 26  2  0  0  0
 25 27  1  0  0  0
 27 28  2  0  0  0
 27 29  1  0  0  0
 29 30  1  0  0  0
 29 60  1  0  0  0
 30 35  2  0  0  0
 30 31  1  0  0  0
 31 32  2  0  0  0
 31 61  1  0  0  0
 32 33  1  0  0  0
 32 62  1  0  0  0
 33 34  2  0  0  0
 33 63  1  0  0  0
 34 35  1  0  0  0
 34 64  1  0  0  0
 35 36  1  0  0  0
 36 37  1  0  0  0
 37 65  1  0  0  0
 37 66  1  0  0  0
 37 67  1  0  0  0
M  CHG  1  14   1
M  END
> <i_i_glide_confnum>
322

> <i_i_glide_lignum>
3055

> <i_i_glide_posenum>
335

> <i_i_glide_rotatable_bonds>
11

> <i_m_Source_File_Index>
4125

> <b_m_subgroup_collapsed>
0

> <r_i_docking_score>
-5.15064

> <r_i_glide_ecoul>
-8.65464

> <r_i_glide_eff_state_penalty>
0

> <r_i_glide_einternal>
11.0798

> <r_i_glide_emodel>
-55.2002

> <r_i_glide_energy>
-42.2755

> <r_i_glide_erotb>
0.836045

> <r_i_glide_esite>
-0.30945

> <r_i_glide_evdw>
-33.6209

> <r_i_glide_gscore>
-5.15064

> <r_i_glide_hbond>
-0.317028

> <r_i_glide_ligand_efficiency>
-0.147161

> <r_i_glide_ligand_efficiency_ln>
-1.13068

> <r_i_glide_ligand_efficiency_sa>
-0.481374

> <r_i_glide_lipo>
-2.26779

> <r_i_glide_metal>
0

> <r_i_glide_rewards>
-0.113173

> <s_i_glide_gridfile>
wee1_glide-grid

> <s_m_Source_File>
wee1_decoys_glide_SP.sdf

> <s_m_Source_Path>
/Users/zhangxujun/Desktop

> <s_m_entry_id>
4400

> <s_m_entry_name>
wee1_decoys_glide_SP.4125

> <s_m_subgroup_title>
wee1_decoys_glide_SP

> <s_m_subgroupid>
wee1_decoys_glide_SP


$$$$
