ZINC33825844_4235
                    3D
 Schrodinger Suite 2024-2.
 57 60  0  0  1  0            999 V2000
    5.8929   54.7076   25.7790 C   0  0  0  0  0  0
    6.3739   54.5010   27.0705 C   0  0  0  0  0  0
    5.5024   54.0828   28.0728 C   0  0  0  0  0  0
    4.1551   53.8481   27.7838 C   0  0  0  0  0  0
    3.6799   54.0645   26.4831 C   0  0  0  0  0  0
    4.5481   54.4960   25.4830 C   0  0  0  0  0  0
    3.2486   53.3589   28.9119 C   0  0  0  0  0  0
    1.9677   52.9360   28.4439 O   0  0  0  0  0  0
    0.9949   52.5396   29.3148 C   0  0  0  0  0  0
    1.1825   52.5153   30.5368 O   0  0  0  0  0  0
   -0.2008   52.1941   28.6384 N   0  0  0  0  0  0
   -0.2632   52.1655   27.1594 C   0  0  0  0  0  0
   -1.7391   52.2269   26.6173 C   0  0  1  0  0  0
   -2.0485   53.2703   26.7038 H   0  0  0  0  0  0
   -1.8375   51.8438   25.1211 C   0  0  2  0  0  0
   -1.3370   52.6519   24.5952 H   0  0  0  0  0  0
   -3.3042   51.8570   24.6056 C   0  0  0  0  0  0
   -4.3082   51.0270   25.4715 C   0  0  1  0  0  0
   -4.2486   49.9927   25.1280 H   0  0  0  0  0  0
   -3.9254   50.9689   26.9601 C   0  0  0  0  0  0
   -2.7635   51.4549   27.4760 C   0  0  0  0  0  0
   -2.4249   51.2959   28.8837 C   0  0  0  0  0  0
   -1.2422   51.6953   29.3746 C   0  0  0  0  0  0
   -4.8378   50.2660   27.8119 C   0  0  0  0  0  0
   -5.6157   49.7258   28.4771 N   0  0  0  0  0  0
   -5.7139   51.3772   25.3009 N   0  0  0  0  0  0
   -3.7600   53.2594   24.5352 C   0  0  0  0  0  0
   -4.1182   54.3580   24.4816 N   0  0  0  0  0  0
   -3.3094   51.3222   23.2290 C   0  0  0  0  0  0
   -3.2980   50.8966   22.1521 N   0  0  0  0  0  0
   -1.0694   50.5500   24.7763 C   0  0  0  0  0  0
   -1.5166   49.3463   25.3414 C   0  0  0  0  0  0
   -0.8901   48.1452   25.0810 C   0  0  0  0  0  0
    0.2080   48.1307   24.2470 C   0  0  0  0  0  0
    0.6942   49.3028   23.6784 C   0  0  0  0  0  0
    0.0699   50.5316   23.9308 C   0  0  0  0  0  0
    0.6620   51.7982   23.2898 C   0  0  0  0  0  0
    1.7457   51.5463   22.5527 F   0  0  0  0  0  0
   -0.2414   52.3668   22.4913 F   0  0  0  0  0  0
    1.0210   52.6697   24.2338 F   0  0  0  0  0  0
    6.5668   55.0336   25.0001 H   0  0  0  0  0  0
    7.4150   54.6696   27.3031 H   0  0  0  0  0  0
    5.8866   53.9342   29.0713 H   0  0  0  0  0  0
    2.6445   53.8898   26.2349 H   0  0  0  0  0  0
    4.1820   54.6560   24.4788 H   0  0  0  0  0  0
    3.7368   52.5218   29.4129 H   0  0  0  0  0  0
    3.1316   54.1629   29.6397 H   0  0  0  0  0  0
    0.3176   52.9743   26.7164 H   0  0  0  0  0  0
    0.2152   51.2333   26.8566 H   0  0  0  0  0  0
   -3.1243   50.8443   29.5746 H   0  0  0  0  0  0
   -1.0353   51.5616   30.4322 H   0  0  0  0  0  0
   -6.3099   50.7277   25.7991 H   0  0  0  0  0  0
   -5.9134   52.3008   25.6618 H   0  0  0  0  0  0
   -2.3371   49.2953   26.0315 H   0  0  0  0  0  0
   -1.2351   47.2403   25.5597 H   0  0  0  0  0  0
    0.7044   47.1973   24.0818 H   0  0  0  0  0  0
    1.5743   49.2397   23.0548 H   0  0  0  0  0  0
  1  6  2  0  0  0
  1  2  1  0  0  0
  1 41  1  0  0  0
  2  3  2  0  0  0
  2 42  1  0  0  0
  3  4  1  0  0  0
  3 43  1  0  0  0
  4  5  2  0  0  0
  4  7  1  0  0  0
  5  6  1  0  0  0
  5 44  1  0  0  0
  6 45  1  0  0  0
  7  8  1  0  0  0
  7 46  1  0  0  0
  7 47  1  0  0  0
  8  9  1  0  0  0
  9 10  2  0  0  0
  9 11  1  0  0  0
 11 23  1  0  0  0
 11 12  1  0  0  0
 12 13  1  0  0  0
 12 48  1  0  0  0
 12 49  1  0  0  0
 13 14  1  0  0  0
 13 21  1  0  0  0
 13 15  1  0  0  0
 15 16  1  0  0  0
 15 17  1  0  0  0
 15 31  1  0  0  0
 17 18  1  0  0  0
 17 27  1  0  0  0
 17 29  1  0  0  0
 18 19  1  0  0  0
 18 20  1  0  0  0
 18 26  1  0  0  0
 20 21  2  0  0  0
 20 24  1  0  0  0
 21 22  1  0  0  0
 22 23  2  0  0  0
 22 50  1  0  0  0
 23 51  1  0  0  0
 24 25  3  0  0  0
 26 52  1  0  0  0
 26 53  1  0  0  0
 27 28  3  0  0  0
 29 30  3  0  0  0
 31 36  2  0  0  0
 31 32  1  0  0  0
 32 33  2  0  0  0
 32 54  1  0  0  0
 33 34  1  0  0  0
 33 55  1  0  0  0
 34 35  2  0  0  0
 34 56  1  0  0  0
 35 36  1  0  0  0
 35 57  1  0  0  0
 36 37  1  0  0  0
 37 38  1  0  0  0
 37 39  1  0  0  0
 37 40  1  0  0  0
M  END
> <i_i_glide_confnum>
11

> <i_i_glide_lignum>
4236

> <i_i_glide_posenum>
189

> <i_i_glide_rotatable_bonds>
9

> <i_m_Source_File_Index>
3149

> <b_m_subgroup_collapsed>
0

> <r_i_docking_score>
-4.69306

> <r_i_glide_ecoul>
-1.59471

> <r_i_glide_eff_state_penalty>
0

> <r_i_glide_einternal>
13.1807

> <r_i_glide_emodel>
-46.9785

> <r_i_glide_energy>
-41.5461

> <r_i_glide_erotb>
0.322544

> <r_i_glide_esite>
-0.0404608

> <r_i_glide_evdw>
-39.9514

> <r_i_glide_gscore>
-4.69306

> <r_i_glide_hbond>
0

> <r_i_glide_ligand_efficiency>
-0.12684

> <r_i_glide_ligand_efficiency_ln>
-1.01782

> <r_i_glide_ligand_efficiency_sa>
-0.422657

> <r_i_glide_lipo>
-2.00315

> <r_i_glide_metal>
0

> <r_i_glide_rewards>
-0.735218

> <s_i_glide_gridfile>
wee1_glide-grid

> <s_m_Source_File>
wee1_decoys_glide_SP.sdf

> <s_m_Source_Path>
/Users/zhangxujun/Desktop

> <s_m_entry_id>
3424

> <s_m_entry_name>
wee1_decoys_glide_SP.3149

> <s_m_subgroup_title>
wee1_decoys_glide_SP

> <s_m_subgroupid>
wee1_decoys_glide_SP


$$$$
