ZINC22851554_2257
                    3D
 Schrodinger Suite 2024-2.
 63 66  0  0  1  0            999 V2000
   -4.9544   48.5697   27.3596 C   0  0  0  0  0  0
   -4.3525   48.6820   25.9443 C   0  0  0  0  0  0
   -4.9269   47.5404   25.0739 C   0  0  0  0  0  0
   -4.7482   50.0541   25.3479 C   0  0  0  0  0  0
   -2.8955   48.5653   26.0819 N   0  0  0  0  0  0
   -1.9496   48.6430   25.1313 C   0  0  0  0  0  0
   -2.1662   48.6801   23.9196 O   0  0  0  0  0  0
   -0.7328   48.7541   25.6817 N   0  0  0  0  0  0
    0.4410   49.3287   25.0216 C   0  0  0  0  0  0
    0.4223   50.8901   24.8276 C   0  0  1  0  0  0
   -0.5355   51.1240   24.3579 H   0  0  0  0  0  0
    0.4273   51.6463   26.1885 C   0  0  0  0  0  0
   -0.6574   51.4852   27.0800 C   0  0  0  0  0  0
   -0.6774   52.0981   28.3378 C   0  0  0  0  0  0
    0.3910   52.9176   28.6708 C   0  0  0  0  0  0
    1.4392   53.1095   27.8202 C   0  0  0  0  0  0
    1.4954   52.4907   26.5776 C   0  0  0  0  0  0
    2.3196   53.9795   28.3805 O   0  0  0  0  0  0
    1.8945   54.1338   29.7066 C   0  0  0  0  0  0
    0.5771   53.6617   29.7919 O   0  0  0  0  0  0
    1.4532   51.3909   23.8769 N   0  0  0  0  0  0
    1.1378   52.7329   23.3777 C   0  0  0  0  0  0
    2.3894   53.3162   22.6990 C   0  0  0  0  0  0
    2.7235   52.5912   21.4672 N   0  0  0  0  0  0
    2.7481   51.1320   21.6804 C   0  0  0  0  0  0
    1.7474   50.5338   22.7120 C   0  0  0  0  0  0
    3.6093   53.1130   20.5266 C   0  0  0  0  0  0
    4.5851   54.0562   20.8931 C   0  0  0  0  0  0
    5.4580   54.5926   19.9461 C   0  0  0  0  0  0
    5.3585   54.2088   18.6115 C   0  0  0  0  0  0
    4.3784   53.2978   18.2241 C   0  0  0  0  0  0
    3.5029   52.7601   19.1685 C   0  0  0  0  0  0
    2.5372   51.9101   18.7423 F   0  0  0  0  0  0
   -4.5946   49.3636   28.0144 H   0  0  0  0  0  0
   -6.0422   48.6341   27.3404 H   0  0  0  0  0  0
   -4.6939   47.6216   27.8328 H   0  0  0  0  0  0
   -4.5655   47.5913   24.0475 H   0  0  0  0  0  0
   -4.6533   46.5626   25.4696 H   0  0  0  0  0  0
   -6.0155   47.5820   25.0307 H   0  0  0  0  0  0
   -4.3738   50.1765   24.3306 H   0  0  0  0  0  0
   -5.8317   50.1768   25.3084 H   0  0  0  0  0  0
   -4.3477   50.8770   25.9430 H   0  0  0  0  0  0
   -2.5560   48.4906   27.0396 H   0  0  0  0  0  0
   -0.6396   48.4969   26.6600 H   0  0  0  0  0  0
    0.5409   48.7895   24.0814 H   0  0  0  0  0  0
    1.3155   49.0426   25.6058 H   0  0  0  0  0  0
   -1.5044   50.8743   26.8147 H   0  0  0  0  0  0
   -1.5081   51.9500   29.0116 H   0  0  0  0  0  0
    2.3486   52.6468   25.9353 H   0  0  0  0  0  0
    2.5287   53.5227   30.3499 H   0  0  0  0  0  0
    1.9531   55.1779   30.0147 H   0  0  0  0  0  0
    0.2854   52.7249   22.6952 H   0  0  0  0  0  0
    0.8714   53.3958   24.2003 H   0  0  0  0  0  0
    3.2221   53.2881   23.4037 H   0  0  0  0  0  0
    2.1897   54.3593   22.4493 H   0  0  0  0  0  0
    3.7419   50.9381   22.0820 H   0  0  0  0  0  0
    2.6608   50.5783   20.7454 H   0  0  0  0  0  0
    2.1357   49.5574   23.0008 H   0  0  0  0  0  0
    0.8060   50.4110   22.1722 H   0  0  0  0  0  0
    4.6862   54.3698   21.9207 H   0  0  0  0  0  0
    6.2104   55.3070   20.2461 H   0  0  0  0  0  0
    6.0338   54.6206   17.8748 H   0  0  0  0  0  0
    4.2954   52.9993   17.1893 H   0  0  0  0  0  0
  1  2  1  0  0  0
  1 34  1  0  0  0
  1 35  1  0  0  0
  1 36  1  0  0  0
  2  3  1  0  0  0
  2  4  1  0  0  0
  2  5  1  0  0  0
  3 37  1  0  0  0
  3 38  1  0  0  0
  3 39  1  0  0  0
  4 40  1  0  0  0
  4 41  1  0  0  0
  4 42  1  0  0  0
  5  6  1  0  0  0
  5 43  1  0  0  0
  6  7  2  0  0  0
  6  8  1  0  0  0
  8  9  1  0  0  0
  8 44  1  0  0  0
  9 10  1  0  0  0
  9 45  1  0  0  0
  9 46  1  0  0  0
 10 11  1  0  0  0
 10 12  1  0  0  0
 10 21  1  0  0  0
 12 17  2  0  0  0
 12 13  1  0  0  0
 13 14  2  0  0  0
 13 47  1  0  0  0
 14 15  1  0  0  0
 14 48  1  0  0  0
 15 20  1  0  0  0
 15 16  2  0  0  0
 16 17  1  0  0  0
 16 18  1  0  0  0
 17 49  1  0  0  0
 18 19  1  0  0  0
 19 20  1  0  0  0
 19 50  1  0  0  0
 19 51  1  0  0  0
 21 26  1  0  0  0
 21 22  1  0  0  0
 22 23  1  0  0  0
 22 52  1  0  0  0
 22 53  1  0  0  0
 23 24  1  0  0  0
 23 54  1  0  0  0
 23 55  1  0  0  0
 24 25  1  0  0  0
 24 27  1  0  0  0
 25 26  1  0  0  0
 25 56  1  0  0  0
 25 57  1  0  0  0
 26 58  1  0  0  0
 26 59  1  0  0  0
 27 32  2  0  0  0
 27 28  1  0  0  0
 28 29  2  0  0  0
 28 60  1  0  0  0
 29 30  1  0  0  0
 29 61  1  0  0  0
 30 31  2  0  0  0
 30 62  1  0  0  0
 31 32  1  0  0  0
 31 63  1  0  0  0
 32 33  1  0  0  0
M  END
> <i_i_glide_confnum>
96

> <i_i_glide_lignum>
2258

> <i_i_glide_posenum>
298

> <i_i_glide_rotatable_bonds>
8

> <i_m_Source_File_Index>
3863

> <b_m_subgroup_collapsed>
0

> <r_i_docking_score>
-3.90398

> <r_i_glide_ecoul>
-5.67268

> <r_i_glide_eff_state_penalty>
0

> <r_i_glide_einternal>
3.75181

> <r_i_glide_emodel>
-44.7096

> <r_i_glide_energy>
-37.3033

> <r_i_glide_erotb>
0.714339

> <r_i_glide_esite>
-0.315323

> <r_i_glide_evdw>
-31.6306

> <r_i_glide_gscore>
-3.90398

> <r_i_glide_hbond>
-0.300822

> <r_i_glide_ligand_efficiency>
-0.122

> <r_i_glide_ligand_efficiency_ln>
-0.874209

> <r_i_glide_ligand_efficiency_sa>
-0.387324

> <r_i_glide_lipo>
-1.08935

> <r_i_glide_metal>
0

> <r_i_glide_rewards>
-0.480392

> <s_i_glide_gridfile>
wee1_glide-grid

> <s_m_Source_File>
wee1_decoys_glide_SP.sdf

> <s_m_Source_Path>
/Users/zhangxujun/Desktop

> <s_m_entry_id>
4138

> <s_m_entry_name>
wee1_decoys_glide_SP.3863

> <s_m_subgroup_title>
wee1_decoys_glide_SP

> <s_m_subgroupid>
wee1_decoys_glide_SP


$$$$
