ZINC09159357_2839
                    3D
 Schrodinger Suite 2024-2.
 53 58  0  0  1  0            999 V2000
   -0.2976   51.8563   17.5581 C   0  0  0  0  0  0
   -1.2518   50.8501   17.4291 C   0  0  0  0  0  0
   -1.9926   50.4541   18.5403 C   0  0  0  0  0  0
   -1.7855   51.0642   19.7845 C   0  0  0  0  0  0
   -0.8221   52.0692   19.8965 C   0  0  0  0  0  0
   -0.0791   52.4695   18.7883 C   0  0  0  0  0  0
   -2.5656   50.6046   20.9770 C   0  0  0  0  0  0
   -2.2845   50.4829   22.3491 C   0  0  0  0  0  0
   -3.4645   49.9276   22.8779 C   0  0  0  0  0  0
   -4.4300   49.7825   22.0097 N   0  0  0  0  0  0
   -3.8724   50.1874   20.8688 N   0  0  0  0  0  0
   -4.3872   50.1714   20.0005 H   0  0  0  0  0  0
   -3.6428   49.5095   24.1731 O   0  0  0  0  0  0
   -2.5025   49.4153   24.9092 C   0  0  0  0  0  0
   -1.2838   49.9059   24.5661 C   0  0  0  0  0  0
   -1.0544   50.7006   23.2565 C   0  0  1  0  0  0
    0.2342   50.4079   22.5467 C   0  0  0  0  0  0
    0.6550   49.2966   21.8163 C   0  0  0  0  0  0
    1.9055   49.3134   21.1951 C   0  0  0  0  0  0
    2.7286   50.4370   21.3073 C   0  0  0  0  0  0
    2.3108   51.5421   22.0491 C   0  0  0  0  0  0
    1.0568   51.5135   22.6603 C   0  0  0  0  0  0
    0.3862   52.5310   23.3329 N   0  0  0  0  0  0
   -0.8880   52.1853   23.6517 C   0  0  0  0  0  0
   -1.7540   52.8958   24.1679 O   0  0  0  0  0  0
    0.9374   53.8482   23.6653 C   0  0  0  0  0  0
    2.0806   53.8383   24.6735 C   0  0  0  0  0  0
    1.8963   53.2963   25.9484 C   0  0  0  0  0  0
    2.9218   53.3631   26.8890 C   0  0  0  0  0  0
    4.1330   53.9656   26.5514 C   0  0  0  0  0  0
    4.3262   54.4968   25.2781 C   0  0  0  0  0  0
    3.2990   54.4345   24.3395 C   0  0  0  0  0  0
    5.4061   54.0498   27.7152 Cl  0  0  0  0  0  0
   -0.1942   49.7616   25.4798 C   0  0  0  0  0  0
    0.7043   49.6961   26.2028 N   0  0  0  0  0  0
   -2.8402   48.7927   26.0817 N   0  0  0  0  0  0
    0.2838   52.1595   16.6993 H   0  0  0  0  0  0
   -1.4081   50.3733   16.4723 H   0  0  0  0  0  0
   -2.7152   49.6588   18.4286 H   0  0  0  0  0  0
   -0.6448   52.5473   20.8438 H   0  0  0  0  0  0
    0.6685   53.2454   18.8838 H   0  0  0  0  0  0
    0.0104   48.4380   21.7068 H   0  0  0  0  0  0
    2.2365   48.4640   20.6156 H   0  0  0  0  0  0
    3.6859   50.4561   20.8071 H   0  0  0  0  0  0
    2.9469   52.4125   22.1085 H   0  0  0  0  0  0
    1.2819   54.3107   22.7391 H   0  0  0  0  0  0
    0.1595   54.4966   24.0652 H   0  0  0  0  0  0
    0.9572   52.8324   26.2153 H   0  0  0  0  0  0
    2.7781   52.9433   27.8736 H   0  0  0  0  0  0
    5.2669   54.9606   25.0203 H   0  0  0  0  0  0
    3.4499   54.8639   23.3593 H   0  0  0  0  0  0
   -2.1403   48.5826   26.7951 H   0  0  0  0  0  0
   -3.7996   48.7864   26.3908 H   0  0  0  0  0  0
  1  6  2  0  0  0
  1  2  1  0  0  0
  1 37  1  0  0  0
  2  3  2  0  0  0
  2 38  1  0  0  0
  3  4  1  0  0  0
  3 39  1  0  0  0
  4  5  2  0  0  0
  4  7  1  0  0  0
  5  6  1  0  0  0
  5 40  1  0  0  0
  6 41  1  0  0  0
  7 11  1  0  0  0
  7  8  2  0  0  0
  8 16  1  0  0  0
  8  9  1  0  0  0
  9 10  2  0  0  0
  9 13  1  0  0  0
 10 11  1  0  0  0
 11 12  1  0  0  0
 13 14  1  0  0  0
 14 15  2  0  0  0
 14 36  1  0  0  0
 15 16  1  0  0  0
 15 34  1  0  0  0
 16 24  1  0  0  0
 16 17  1  0  0  0
 17 22  2  0  0  0
 17 18  1  0  0  0
 18 19  2  0  0  0
 18 42  1  0  0  0
 19 20  1  0  0  0
 19 43  1  0  0  0
 20 21  2  0  0  0
 20 44  1  0  0  0
 21 22  1  0  0  0
 21 45  1  0  0  0
 22 23  1  0  0  0
 23 24  1  0  0  0
 23 26  1  0  0  0
 24 25  2  0  0  0
 26 27  1  0  0  0
 26 46  1  0  0  0
 26 47  1  0  0  0
 27 32  2  0  0  0
 27 28  1  0  0  0
 28 29  2  0  0  0
 28 48  1  0  0  0
 29 30  1  0  0  0
 29 49  1  0  0  0
 30 31  2  0  0  0
 30 33  1  0  0  0
 31 32  1  0  0  0
 31 50  1  0  0  0
 32 51  1  0  0  0
 34 35  3  0  0  0
 36 52  1  0  0  0
 36 53  1  0  0  0
M  END
> <i_i_glide_confnum>
23

> <i_i_glide_lignum>
2840

> <i_i_glide_posenum>
117

> <i_i_glide_rotatable_bonds>
4

> <i_m_Source_File_Index>
4481

> <b_m_subgroup_collapsed>
0

> <r_i_docking_score>
-4.7498

> <r_i_glide_ecoul>
-3.36901

> <r_i_glide_eff_state_penalty>
0

> <r_i_glide_einternal>
2.61207

> <r_i_glide_emodel>
-47.1197

> <r_i_glide_energy>
-37.4622

> <r_i_glide_erotb>
0.264092

> <r_i_glide_esite>
-0.153517

> <r_i_glide_evdw>
-34.0932

> <r_i_glide_gscore>
-4.7498

> <r_i_glide_hbond>
-0.16

> <r_i_glide_ligand_efficiency>
-0.135709

> <r_i_glide_ligand_efficiency_ln>
-1.04269

> <r_i_glide_ligand_efficiency_sa>
-0.443912

> <r_i_glide_lipo>
-2.15888

> <r_i_glide_metal>
0

> <r_i_glide_rewards>
-0.331485

> <s_i_glide_gridfile>
wee1_glide-grid

> <s_m_Source_File>
wee1_decoys_glide_SP.sdf

> <s_m_Source_Path>
/Users/zhangxujun/Desktop

> <s_m_entry_id>
4756

> <s_m_entry_name>
wee1_decoys_glide_SP.4481

> <s_m_subgroup_title>
wee1_decoys_glide_SP

> <s_m_subgroupid>
wee1_decoys_glide_SP


$$$$
