ZINC65594241_2792
                    3D
 Schrodinger Suite 2024-2.
 61 64  0  0  1  0            999 V2000
    6.3912   54.0545   27.6945 C   0  0  0  0  0  0
    5.1350   54.0671   26.8342 C   0  0  0  0  0  0
    3.8564   53.6314   27.3431 C   0  0  0  0  0  0
    3.4236   53.1410   28.6040 C   0  0  0  0  0  0
    2.1456   52.7242   28.8056 N   0  0  0  0  0  0
    1.2946   52.8126   27.7582 C   0  0  0  0  0  0
    1.5655   53.2968   26.5219 N   0  0  0  0  0  0
    2.8300   53.6966   26.3548 C   0  0  0  0  0  0
    3.3981   54.3927   24.8658 S   0  0  0  0  0  0
    5.0509   54.4135   25.4755 C   0  0  0  0  0  0
    6.1128   54.9396   24.6221 C   0  0  0  0  0  0
    6.9438   55.6967   25.1263 O   0  0  0  0  0  0
    6.1458   54.5996   23.2957 N   0  0  0  0  0  0
    7.1252   55.2216   22.3824 C   0  0  0  0  0  0
    6.3977   55.6271   21.0718 C   0  0  0  0  0  0
    5.5130   54.5170   20.4445 C   0  0  0  0  0  0
    4.6995   53.7696   21.5131 C   0  0  0  0  0  0
    5.5206   53.3819   22.7536 C   0  0  0  0  0  0
    4.6940   54.8983   19.2964 N   0  0  0  0  0  0
    5.1372   55.4457   18.1573 C   0  0  0  0  0  0
    6.3184   55.4601   17.8120 O   0  0  0  0  0  0
    4.1369   56.0217   17.4733 N   0  0  0  0  0  0
    4.2849   56.8660   16.2871 C   0  0  0  0  0  0
    2.9579   57.0517   15.5125 C   0  0  0  0  0  0
    3.0922   57.9395   14.2592 C   0  0  0  0  0  0
    3.7748   59.2812   14.5697 C   0  0  0  0  0  0
    5.1415   59.0682   15.2409 C   0  0  0  0  0  0
    5.0361   58.2052   16.5136 C   0  0  0  0  0  0
   -0.1159   52.3015   27.9844 C   0  0  0  0  0  0
    4.2937   53.0169   29.8372 C   0  0  0  0  0  0
    7.2963   54.3461   27.1658 H   0  0  0  0  0  0
    6.3039   54.7329   28.5418 H   0  0  0  0  0  0
    6.5984   53.0587   28.0846 H   0  0  0  0  0  0
    7.6020   56.0973   22.8217 H   0  0  0  0  0  0
    7.9054   54.4962   22.1604 H   0  0  0  0  0  0
    5.7747   56.4951   21.2818 H   0  0  0  0  0  0
    7.1484   55.9603   20.3541 H   0  0  0  0  0  0
    6.2197   53.7750   20.0673 H   0  0  0  0  0  0
    4.2612   52.8663   21.0858 H   0  0  0  0  0  0
    3.8675   54.3957   21.8410 H   0  0  0  0  0  0
    6.3046   52.6762   22.4819 H   0  0  0  0  0  0
    4.8816   52.8967   23.4747 H   0  0  0  0  0  0
    3.6955   54.8435   19.4358 H   0  0  0  0  0  0
    3.2048   55.9585   17.8519 H   0  0  0  0  0  0
    4.9220   56.2988   15.6023 H   0  0  0  0  0  0
    2.5484   56.0822   15.2248 H   0  0  0  0  0  0
    2.2275   57.5197   16.1753 H   0  0  0  0  0  0
    3.6686   57.4081   13.5000 H   0  0  0  0  0  0
    2.1083   58.1168   13.8230 H   0  0  0  0  0  0
    3.8970   59.8618   13.6546 H   0  0  0  0  0  0
    3.1351   59.8760   15.2246 H   0  0  0  0  0  0
    5.8227   58.5912   14.5348 H   0  0  0  0  0  0
    5.5884   60.0333   15.4853 H   0  0  0  0  0  0
    4.5087   58.7870   17.2718 H   0  0  0  0  0  0
    6.0391   58.0229   16.9015 H   0  0  0  0  0  0
   -0.2900   51.4028   27.3906 H   0  0  0  0  0  0
   -0.3037   52.0557   29.0316 H   0  0  0  0  0  0
   -0.8466   53.0516   27.6808 H   0  0  0  0  0  0
    4.7042   53.9960   30.0816 H   0  0  0  0  0  0
    5.1044   52.3134   29.6560 H   0  0  0  0  0  0
    3.7447   52.6623   30.7116 H   0  0  0  0  0  0
  1  2  1  0  0  0
  1 31  1  0  0  0
  1 32  1  0  0  0
  1 33  1  0  0  0
  2 10  2  0  0  0
  2  3  1  0  0  0
  3  8  2  0  0  0
  3  4  1  0  0  0
  4  5  2  0  0  0
  4 30  1  0  0  0
  5  6  1  0  0  0
  6  7  2  0  0  0
  6 29  1  0  0  0
  7  8  1  0  0  0
  8  9  1  0  0  0
  9 10  1  0  0  0
 10 11  1  0  0  0
 11 12  2  0  0  0
 11 13  1  0  0  0
 13 18  1  0  0  0
 13 14  1  0  0  0
 14 15  1  0  0  0
 14 34  1  0  0  0
 14 35  1  0  0  0
 15 16  1  0  0  0
 15 36  1  0  0  0
 15 37  1  0  0  0
 16 17  1  0  0  0
 16 19  1  0  0  0
 16 38  1  0  0  0
 17 18  1  0  0  0
 17 39  1  0  0  0
 17 40  1  0  0  0
 18 41  1  0  0  0
 18 42  1  0  0  0
 19 20  1  0  0  0
 19 43  1  0  0  0
 20 21  2  0  0  0
 20 22  1  0  0  0
 22 23  1  0  0  0
 22 44  1  0  0  0
 23 28  1  0  0  0
 23 24  1  0  0  0
 23 45  1  0  0  0
 24 25  1  0  0  0
 24 46  1  0  0  0
 24 47  1  0  0  0
 25 26  1  0  0  0
 25 48  1  0  0  0
 25 49  1  0  0  0
 26 27  1  0  0  0
 26 50  1  0  0  0
 26 51  1  0  0  0
 27 28  1  0  0  0
 27 52  1  0  0  0
 27 53  1  0  0  0
 28 54  1  0  0  0
 28 55  1  0  0  0
 29 56  1  0  0  0
 29 57  1  0  0  0
 29 58  1  0  0  0
 30 59  1  0  0  0
 30 60  1  0  0  0
 30 61  1  0  0  0
M  END
> <i_i_glide_confnum>
79

> <i_i_glide_lignum>
2793

> <i_i_glide_posenum>
153

> <i_i_glide_rotatable_bonds>
6

> <i_m_Source_File_Index>
1262

> <b_m_subgroup_collapsed>
0

> <r_i_docking_score>
-6.38181

> <r_i_glide_ecoul>
-2.92189

> <r_i_glide_eff_state_penalty>
0

> <r_i_glide_einternal>
3.38079

> <r_i_glide_emodel>
-61.1313

> <r_i_glide_energy>
-45.6694

> <r_i_glide_erotb>
0.538469

> <r_i_glide_esite>
0

> <r_i_glide_evdw>
-42.7475

> <r_i_glide_gscore>
-6.38181

> <r_i_glide_hbond>
-0.340986

> <r_i_glide_ligand_efficiency>
-0.212727

> <r_i_glide_ligand_efficiency_ln>
-1.45002

> <r_i_glide_ligand_efficiency_sa>
-0.660992

> <r_i_glide_lipo>
-2.4416

> <r_i_glide_metal>
0

> <r_i_glide_rewards>
-1.56203

> <s_i_glide_gridfile>
wee1_glide-grid

> <s_m_Source_File>
wee1_decoys_glide_SP.sdf

> <s_m_Source_Path>
/Users/zhangxujun/Desktop

> <s_m_entry_id>
1537

> <s_m_entry_name>
wee1_decoys_glide_SP.1262

> <s_m_subgroup_title>
wee1_decoys_glide_SP

> <s_m_subgroupid>
wee1_decoys_glide_SP


$$$$
