ZINC20978075_4829
                    3D
 Schrodinger Suite 2024-2.
 55 58  0  0  1  0            999 V2000
    7.0952   53.8688   24.2473 C   0  0  0  0  0  0
    6.2144   54.1020   25.4618 C   0  0  0  0  0  0
    4.9645   54.6876   25.2833 C   0  0  0  0  0  0
    4.1182   54.8709   26.3705 C   0  0  0  0  0  0
    4.5188   54.4739   27.6480 C   0  0  0  0  0  0
    5.7849   53.9110   27.8320 C   0  0  0  0  0  0
    6.6256   53.7171   26.7398 C   0  0  0  0  0  0
    3.5944   54.6618   28.8494 C   0  0  0  0  0  0
    2.4579   53.6182   29.0174 N   0  3  2  0  0  0
    2.8599   52.1516   28.7836 C   0  0  0  0  0  0
    1.5185   51.4604   28.5745 C   0  0  0  0  0  0
    0.7108   52.4444   27.7300 C   0  0  2  0  0  0
    1.0087   52.3009   26.6917 H   0  0  0  0  0  0
    1.2084   53.8473   28.1381 C   0  0  0  0  0  0
   -0.8191   52.3098   27.8711 C   0  0  0  0  0  0
   -1.3728   51.0717   27.2811 N   0  0  0  0  0  0
   -2.0776   51.0570   25.6731 S   0  0  0  0  0  0
   -2.8490   52.2915   25.4869 O   0  0  0  0  0  0
   -2.6428   49.7311   25.4100 O   0  0  0  0  0  0
   -0.5922   51.1957   24.6687 C   0  0  0  0  0  0
    0.2553   50.1548   24.3178 C   0  0  0  0  0  0
    1.3437   50.5915   23.5535 C   0  0  0  0  0  0
    1.3533   51.9711   23.3425 C   0  0  0  0  0  0
   -0.0394   52.7217   24.0756 S   0  0  0  0  0  0
    2.3402   52.7747   22.6450 C   0  0  0  0  0  0
    3.1994   52.3697   21.6212 C   0  0  0  0  0  0
    3.9053   53.5042   21.2732 C   0  0  0  0  0  0
    3.5028   54.5123   22.0824 O   0  0  0  0  0  0
    2.5019   54.0489   22.9292 N   0  0  0  0  0  0
    4.9451   53.8565   20.2319 C   0  0  0  0  0  0
    5.9336   54.5699   20.7696 F   0  0  0  0  0  0
    4.4120   54.5792   19.2488 F   0  0  0  0  0  0
    5.4819   52.7659   19.6943 F   0  0  0  0  0  0
    7.9035   53.1668   24.4426 H   0  0  0  0  0  0
    6.5032   53.4451   23.4346 H   0  0  0  0  0  0
    7.5034   54.8137   23.8903 H   0  0  0  0  0  0
    4.6457   54.9902   24.2982 H   0  0  0  0  0  0
    3.1463   55.2959   26.2022 H   0  0  0  0  0  0
    6.1186   53.6053   28.8135 H   0  0  0  0  0  0
    7.5825   53.2460   26.8922 H   0  0  0  0  0  0
    3.1051   55.6383   28.8369 H   0  0  0  0  0  0
    4.1615   54.5783   29.7785 H   0  0  0  0  0  0
    3.4568   51.8058   29.6280 H   0  0  0  0  0  0
    3.4710   52.1192   27.8814 H   0  0  0  0  0  0
    1.0542   51.3055   29.5502 H   0  0  0  0  0  0
    1.6113   50.4967   28.0791 H   0  0  0  0  0  0
    1.5035   54.4209   27.2633 H   0  0  0  0  0  0
    0.5119   54.4085   28.7622 H   0  0  0  0  0  0
   -1.2959   53.1583   27.3808 H   0  0  0  0  0  0
   -1.1117   52.3428   28.9223 H   0  0  0  0  0  0
   -1.2789   50.1713   27.7731 H   0  0  0  0  0  0
    0.0935   49.1250   24.6059 H   0  0  0  0  0  0
    2.1131   49.9238   23.1917 H   0  0  0  0  0  0
    3.2725   51.3934   21.1646 H   0  0  0  0  0  0
    2.1415   53.6587   29.9756 H   0  0  0  0  0  0
  1  2  1  0  0  0
  1 34  1  0  0  0
  1 35  1  0  0  0
  1 36  1  0  0  0
  2  7  2  0  0  0
  2  3  1  0  0  0
  3  4  2  0  0  0
  3 37  1  0  0  0
  4  5  1  0  0  0
  4 38  1  0  0  0
  5  6  2  0  0  0
  5  8  1  0  0  0
  6  7  1  0  0  0
  6 39  1  0  0  0
  7 40  1  0  0  0
  8  9  1  0  0  0
  8 41  1  0  0  0
  8 42  1  0  0  0
  9 14  1  0  0  0
  9 10  1  0  0  0
  9 55  1  0  0  0
 10 11  1  0  0  0
 10 43  1  0  0  0
 10 44  1  0  0  0
 11 12  1  0  0  0
 11 45  1  0  0  0
 11 46  1  0  0  0
 12 13  1  0  0  0
 12 14  1  0  0  0
 12 15  1  0  0  0
 14 47  1  0  0  0
 14 48  1  0  0  0
 15 16  1  0  0  0
 15 49  1  0  0  0
 15 50  1  0  0  0
 16 17  1  0  0  0
 16 51  1  0  0  0
 17 18  2  0  0  0
 17 19  2  0  0  0
 17 20  1  0  0  0
 20 24  1  0  0  0
 20 21  2  0  0  0
 21 22  1  0  0  0
 21 52  1  0  0  0
 22 23  2  0  0  0
 22 53  1  0  0  0
 23 24  1  0  0  0
 23 25  1  0  0  0
 25 29  2  0  0  0
 25 26  1  0  0  0
 26 27  2  0  0  0
 26 54  1  0  0  0
 27 28  1  0  0  0
 27 30  1  0  0  0
 28 29  1  0  0  0
 30 31  1  0  0  0
 30 32  1  0  0  0
 30 33  1  0  0  0
M  CHG  1   9   1
M  END
> <i_i_glide_confnum>
124

> <i_i_glide_lignum>
4830

> <i_i_glide_posenum>
363

> <i_i_glide_rotatable_bonds>
8

> <i_m_Source_File_Index>
3758

> <b_m_subgroup_collapsed>
0

> <r_i_docking_score>
-5.41846

> <r_i_glide_ecoul>
0.700999

> <r_i_glide_eff_state_penalty>
0

> <r_i_glide_einternal>
10.9535

> <r_i_glide_emodel>
-53.3632

> <r_i_glide_energy>
-41.4746

> <r_i_glide_erotb>
0.600934

> <r_i_glide_esite>
-0.251927

> <r_i_glide_evdw>
-42.1756

> <r_i_glide_gscore>
-5.41846

> <r_i_glide_hbond>
-0.16

> <r_i_glide_ligand_efficiency>
-0.169327

> <r_i_glide_ligand_efficiency_ln>
-1.21334

> <r_i_glide_ligand_efficiency_sa>
-0.537579

> <r_i_glide_lipo>
-3.27279

> <r_i_glide_metal>
0

> <r_i_glide_rewards>
-0.33104

> <s_i_glide_gridfile>
wee1_glide-grid

> <s_m_Source_File>
wee1_decoys_glide_SP.sdf

> <s_m_Source_Path>
/Users/zhangxujun/Desktop

> <s_m_entry_id>
4033

> <s_m_entry_name>
wee1_decoys_glide_SP.3758

> <s_m_subgroup_title>
wee1_decoys_glide_SP

> <s_m_subgroupid>
wee1_decoys_glide_SP


$$$$
