ZINC12548088_3212
                    3D
 Schrodinger Suite 2024-2.
 58 62  0  0  1  0            999 V2000
    6.1383   54.2593   27.6089 C   0  0  0  0  0  0
    4.8549   54.0813   28.1094 C   0  0  0  0  0  0
    3.7755   53.9941   27.2357 C   0  0  0  0  0  0
    3.9640   54.0963   25.8454 C   0  0  0  0  0  0
    5.2643   54.3177   25.3326 C   0  0  0  0  0  0
    6.3379   54.3764   26.2361 C   0  0  0  0  0  0
    5.5873   54.4966   23.8667 C   0  0  0  0  0  0
    6.7048   55.1665   23.4179 N   0  0  0  0  0  0
    7.4122   55.5496   24.0277 H   0  0  0  0  0  0
    6.6788   55.1832   22.0463 C   0  0  0  0  0  0
    7.5331   55.6969   21.0689 C   0  0  0  0  0  0
    7.1339   55.5198   19.7412 C   0  0  0  0  0  0
    5.9518   54.8607   19.4063 C   0  0  0  0  0  0
    5.1087   54.3361   20.3869 C   0  0  0  0  0  0
    5.4828   54.4967   21.7268 C   0  0  0  0  0  0
    4.8460   54.0768   22.8641 N   0  0  0  0  0  0
    2.8980   53.9548   24.9304 N   0  0  0  0  0  0
    1.7258   53.2968   25.0638 C   0  0  0  0  0  0
    1.3537   52.7717   26.1133 O   0  0  0  0  0  0
    0.7687   53.3251   23.8355 C   0  0  0  0  0  0
    1.5214   53.1836   22.4817 C   0  0  0  0  0  0
    2.2037   51.8138   22.2845 C   0  0  0  0  0  0
    1.2803   50.6731   22.5542 N   0  0  0  0  0  0
    0.3712   50.7711   23.7357 C   0  0  0  0  0  0
   -0.2668   52.1695   23.8902 C   0  0  0  0  0  0
    0.7913   49.6684   21.1769 S   0  0  0  0  0  0
   -0.1504   48.6440   21.6446 O   0  0  0  0  0  0
    2.0013   49.2930   20.4387 O   0  0  0  0  0  0
   -0.1339   50.7688   20.1077 C   0  0  0  0  0  0
    0.5413   51.5392   19.1598 C   0  0  0  0  0  0
   -0.1732   52.4009   18.3308 C   0  0  0  0  0  0
   -1.5631   52.4769   18.4434 C   0  0  0  0  0  0
   -2.2400   51.6973   19.3868 C   0  0  0  0  0  0
   -1.5219   50.8496   20.2257 C   0  0  0  0  0  0
   -2.3052   53.3769   17.5727 C   0  0  0  0  0  0
   -2.8958   54.0963   16.8857 N   0  0  0  0  0  0
    6.9780   54.3098   28.2884 H   0  0  0  0  0  0
    4.6986   53.9963   29.1752 H   0  0  0  0  0  0
    2.7953   53.8557   27.6636 H   0  0  0  0  0  0
    7.3482   54.4968   25.8791 H   0  0  0  0  0  0
    8.4650   56.1803   21.3248 H   0  0  0  0  0  0
    7.7649   55.8952   18.9495 H   0  0  0  0  0  0
    5.6878   54.7447   18.3661 H   0  0  0  0  0  0
    4.1954   53.8189   20.1192 H   0  0  0  0  0  0
    3.1459   54.2284   23.9894 H   0  0  0  0  0  0
    0.2781   54.2996   23.8920 H   0  0  0  0  0  0
    2.1691   54.0360   22.2800 H   0  0  0  0  0  0
    0.7897   53.2970   21.6832 H   0  0  0  0  0  0
    3.1020   51.6974   22.8816 H   0  0  0  0  0  0
    2.5561   51.7352   21.2554 H   0  0  0  0  0  0
   -0.4206   50.0283   23.6382 H   0  0  0  0  0  0
    0.9324   50.4696   24.6196 H   0  0  0  0  0  0
   -0.9962   52.3262   23.0931 H   0  0  0  0  0  0
   -0.9013   52.2544   24.7729 H   0  0  0  0  0  0
    1.6157   51.4737   19.0582 H   0  0  0  0  0  0
    0.3654   52.9972   17.6041 H   0  0  0  0  0  0
   -3.3175   51.7343   19.4755 H   0  0  0  0  0  0
   -2.0453   50.2465   20.9535 H   0  0  0  0  0  0
  1  6  2  0  0  0
  1  2  1  0  0  0
  1 37  1  0  0  0
  2  3  2  0  0  0
  2 38  1  0  0  0
  3  4  1  0  0  0
  3 39  1  0  0  0
  4  5  2  0  0  0
  4 17  1  0  0  0
  5  6  1  0  0  0
  5  7  1  0  0  0
  6 40  1  0  0  0
  7 16  2  0  0  0
  7  8  1  0  0  0
  8  9  1  0  0  0
  8 10  1  0  0  0
 10 15  2  0  0  0
 10 11  1  0  0  0
 11 12  2  0  0  0
 11 41  1  0  0  0
 12 13  1  0  0  0
 12 42  1  0  0  0
 13 14  2  0  0  0
 13 43  1  0  0  0
 14 15  1  0  0  0
 14 44  1  0  0  0
 15 16  1  0  0  0
 17 18  1  0  0  0
 17 45  1  0  0  0
 18 19  2  0  0  0
 18 20  1  0  0  0
 20 25  1  0  0  0
 20 21  1  0  0  0
 20 46  1  0  0  0
 21 22  1  0  0  0
 21 47  1  0  0  0
 21 48  1  0  0  0
 22 23  1  0  0  0
 22 49  1  0  0  0
 22 50  1  0  0  0
 23 24  1  0  0  0
 23 26  1  0  0  0
 24 25  1  0  0  0
 24 51  1  0  0  0
 24 52  1  0  0  0
 25 53  1  0  0  0
 25 54  1  0  0  0
 26 27  2  0  0  0
 26 28  2  0  0  0
 26 29  1  0  0  0
 29 34  2  0  0  0
 29 30  1  0  0  0
 30 31  2  0  0  0
 30 55  1  0  0  0
 31 32  1  0  0  0
 31 56  1  0  0  0
 32 33  2  0  0  0
 32 35  1  0  0  0
 33 34  1  0  0  0
 33 57  1  0  0  0
 34 58  1  0  0  0
 35 36  3  0  0  0
M  END
> <i_i_glide_confnum>
56

> <i_i_glide_lignum>
3213

> <i_i_glide_posenum>
126

> <i_i_glide_rotatable_bonds>
7

> <i_m_Source_File_Index>
1845

> <b_m_subgroup_collapsed>
0

> <r_i_docking_score>
-5.98944

> <r_i_glide_ecoul>
-0.56271

> <r_i_glide_eff_state_penalty>
0

> <r_i_glide_einternal>
1.46161

> <r_i_glide_emodel>
-69.1325

> <r_i_glide_energy>
-50.215

> <r_i_glide_erotb>
0.517018

> <r_i_glide_esite>
-0.0416203

> <r_i_glide_evdw>
-49.6523

> <r_i_glide_gscore>
-5.98944

> <r_i_glide_hbond>
-0.0472258

> <r_i_glide_ligand_efficiency>
-0.171127

> <r_i_glide_ligand_efficiency_ln>
-1.31481

> <r_i_glide_ligand_efficiency_sa>
-0.559767

> <r_i_glide_lipo>
-2.95399

> <r_i_glide_metal>
0

> <r_i_glide_rewards>
-0.896601

> <s_i_glide_gridfile>
wee1_glide-grid

> <s_m_Source_File>
wee1_decoys_glide_SP.sdf

> <s_m_Source_Path>
/Users/zhangxujun/Desktop

> <s_m_entry_id>
2120

> <s_m_entry_name>
wee1_decoys_glide_SP.1845

> <s_m_subgroup_title>
wee1_decoys_glide_SP

> <s_m_subgroupid>
wee1_decoys_glide_SP


$$$$
