ZINC13142603_5674
                    3D
 Schrodinger Suite 2024-2.
 58 62  0  0  1  0            999 V2000
   -1.3686   47.9320   25.3231 C   0  0  0  0  0  0
   -1.5004   48.8514   24.1114 C   0  0  0  0  0  0
   -0.8153   50.0037   23.8900 C   0  0  0  0  0  0
   -1.0183   50.7959   22.5743 C   0  0  2  0  0  0
   -1.3382   51.8033   22.8498 H   0  0  0  0  0  0
   -2.2247   50.2316   21.7690 C   0  0  0  0  0  0
   -2.7596   50.8988   20.7146 C   0  0  0  0  0  0
   -3.8750   50.3858   19.8105 C   0  0  0  0  0  0
   -4.7046   49.3273   20.5600 C   0  0  0  0  0  0
   -3.8419   48.2739   21.2938 C   0  0  0  0  0  0
   -2.7638   48.9313   22.1662 C   0  0  0  0  0  0
   -2.3609   48.3063   23.2092 N   0  0  0  0  0  0
   -2.3190   52.0311   20.2835 O   0  5  0  0  0  0
    0.2703   50.9655   21.7360 C   0  0  0  0  0  0
    0.6670   49.9268   20.8843 C   0  0  0  0  0  0
    1.8462   50.0118   20.1314 C   0  0  0  0  0  0
    2.6247   51.1624   20.2369 C   0  0  0  0  0  0
    2.2524   52.2011   21.0877 C   0  0  0  0  0  0
    1.0809   52.1131   21.8555 C   0  0  0  0  0  0
    0.7042   53.0837   22.7682 O   0  0  0  0  0  0
    1.6500   54.0528   23.2105 C   0  0  0  0  0  0
    2.3042   49.0246   19.2826 O   0  0  0  0  0  0
    1.5560   47.8252   19.1358 C   0  0  0  0  0  0
    0.1135   50.5856   24.8355 C   0  0  0  0  0  0
    1.2535   50.8576   24.4816 O   0  0  0  0  0  0
   -0.3871   50.8847   26.0535 N   0  0  0  0  0  0
    0.1844   51.7384   26.9904 C   0  0  0  0  0  0
   -0.3117   51.8117   28.1920 N   0  0  0  0  0  0
    0.2582   52.8210   28.9041 C   0  0  0  0  0  0
   -0.0766   53.1587   30.2225 C   0  0  0  0  0  0
    0.5257   54.2820   30.7917 C   0  0  0  0  0  0
    1.4534   55.0468   30.0816 C   0  0  0  0  0  0
    1.8428   54.7032   28.7896 C   0  0  0  0  0  0
    1.2354   53.5838   28.2087 C   0  0  0  0  0  0
    1.4727   52.8928   26.6201 S   0  0  0  0  0  0
   -2.2547   48.0096   25.9552 H   0  0  0  0  0  0
   -1.2622   46.8892   25.0188 H   0  0  0  0  0  0
   -0.5020   48.1603   25.9432 H   0  0  0  0  0  0
   -3.4434   49.9720   18.8985 H   0  0  0  0  0  0
   -4.5349   51.1904   19.4796 H   0  0  0  0  0  0
   -5.3796   48.8298   19.8628 H   0  0  0  0  0  0
   -5.3450   49.8303   21.2878 H   0  0  0  0  0  0
   -3.3638   47.6015   20.5817 H   0  0  0  0  0  0
   -4.4961   47.6611   21.9162 H   0  0  0  0  0  0
    0.0482   49.0451   20.8284 H   0  0  0  0  0  0
    3.5309   51.2455   19.6536 H   0  0  0  0  0  0
    2.8875   53.0716   21.1433 H   0  0  0  0  0  0
    1.2518   54.5407   24.0988 H   0  0  0  0  0  0
    2.6010   53.5982   23.4912 H   0  0  0  0  0  0
    1.8268   54.8361   22.4761 H   0  0  0  0  0  0
    2.0642   47.1705   18.4277 H   0  0  0  0  0  0
    1.4741   47.2891   20.0820 H   0  0  0  0  0  0
    0.5561   48.0216   18.7456 H   0  0  0  0  0  0
   -1.2615   50.4598   26.3236 H   0  0  0  0  0  0
   -0.7946   52.5726   30.7811 H   0  0  0  0  0  0
    0.2673   54.5668   31.8017 H   0  0  0  0  0  0
    1.8880   55.9180   30.5515 H   0  0  0  0  0  0
    2.5733   55.2889   28.2500 H   0  0  0  0  0  0
  1  2  1  0  0  0
  1 36  1  0  0  0
  1 37  1  0  0  0
  1 38  1  0  0  0
  2 12  1  0  0  0
  2  3  2  0  0  0
  3  4  1  0  0  0
  3 24  1  0  0  0
  4  5  1  0  0  0
  4  6  1  0  0  0
  4 14  1  0  0  0
  6 11  1  0  0  0
  6  7  2  0  0  0
  7  8  1  0  0  0
  7 13  1  0  0  0
  8  9  1  0  0  0
  8 39  1  0  0  0
  8 40  1  0  0  0
  9 10  1  0  0  0
  9 41  1  0  0  0
  9 42  1  0  0  0
 10 11  1  0  0  0
 10 43  1  0  0  0
 10 44  1  0  0  0
 11 12  2  0  0  0
 14 19  2  0  0  0
 14 15  1  0  0  0
 15 16  2  0  0  0
 15 45  1  0  0  0
 16 17  1  0  0  0
 16 22  1  0  0  0
 17 18  2  0  0  0
 17 46  1  0  0  0
 18 19  1  0  0  0
 18 47  1  0  0  0
 19 20  1  0  0  0
 20 21  1  0  0  0
 21 48  1  0  0  0
 21 49  1  0  0  0
 21 50  1  0  0  0
 22 23  1  0  0  0
 23 51  1  0  0  0
 23 52  1  0  0  0
 23 53  1  0  0  0
 24 25  2  0  0  0
 24 26  1  0  0  0
 26 27  1  0  0  0
 26 54  1  0  0  0
 27 35  1  0  0  0
 27 28  2  0  0  0
 28 29  1  0  0  0
 29 34  2  0  0  0
 29 30  1  0  0  0
 30 31  2  0  0  0
 30 55  1  0  0  0
 31 32  1  0  0  0
 31 56  1  0  0  0
 32 33  2  0  0  0
 32 57  1  0  0  0
 33 34  1  0  0  0
 33 58  1  0  0  0
 34 35  1  0  0  0
M  CHG  1  13  -1
M  END
> <i_i_glide_confnum>
44

> <i_i_glide_lignum>
5675

> <i_i_glide_posenum>
337

> <i_i_glide_rotatable_bonds>
6

> <i_m_Source_File_Index>
2355

> <b_m_subgroup_collapsed>
0

> <r_i_docking_score>
-3.64616

> <r_i_glide_ecoul>
-0.883364

> <r_i_glide_eff_state_penalty>
0

> <r_i_glide_einternal>
8.39577

> <r_i_glide_emodel>
-44.1904

> <r_i_glide_energy>
-38.0396

> <r_i_glide_erotb>
0.359428

> <r_i_glide_esite>
-0.0403101

> <r_i_glide_evdw>
-37.1562

> <r_i_glide_gscore>
-3.64616

> <r_i_glide_hbond>
-0.16

> <r_i_glide_ligand_efficiency>
-0.10724

> <r_i_glide_ligand_efficiency_ln>
-0.805538

> <r_i_glide_ligand_efficiency_sa>
-0.347416

> <r_i_glide_lipo>
-1.65279

> <r_i_glide_metal>
0

> <r_i_glide_rewards>
-0.162169

> <s_i_glide_gridfile>
wee1_glide-grid

> <s_m_Source_File>
wee1_decoys_glide_SP.sdf

> <s_m_Source_Path>
/Users/zhangxujun/Desktop

> <s_m_entry_id>
2630

> <s_m_entry_name>
wee1_decoys_glide_SP.2355

> <s_m_subgroup_title>
wee1_decoys_glide_SP

> <s_m_subgroupid>
wee1_decoys_glide_SP


$$$$
