ZINC38563337_2061
                    3D
 Schrodinger Suite 2024-2.
 47 50  0  0  1  0            999 V2000
    1.4755   50.9427   19.5112 C   0  0  0  0  0  0
    0.4111   50.7351   20.3939 C   0  0  0  0  0  0
    0.7861   50.4066   21.6975 C   0  0  0  0  0  0
    2.5319   50.3518   21.7844 S   0  0  0  0  0  0
    2.7038   50.7759   20.1187 C   0  0  0  0  0  0
   -0.1190   50.1360   22.8938 C   0  0  1  0  0  0
   -1.0004   49.6169   22.5181 H   0  0  0  0  0  0
    0.5402   49.2539   23.9896 C   0  0  0  0  0  0
   -0.3963   48.6578   24.9478 N   0  0  0  0  0  0
   -1.2909   47.7036   24.6504 C   0  0  0  0  0  0
   -1.3459   47.1506   23.5505 O   0  0  0  0  0  0
   -2.1201   47.4600   25.6817 N   0  0  0  0  0  0
   -3.2605   46.6376   25.6958 C   0  0  0  0  0  0
   -3.9970   46.2971   24.5347 C   0  0  0  0  0  0
   -5.1305   45.4778   24.6141 C   0  0  0  0  0  0
   -5.5056   45.0209   25.8709 C   0  0  0  0  0  0
   -4.8204   45.3714   26.9994 C   0  0  0  0  0  0
   -3.6913   46.1827   26.9533 C   0  0  0  0  0  0
   -5.4468   44.8408   28.0815 O   0  0  0  0  0  0
   -6.3718   43.9231   27.5613 C   0  0  0  0  0  0
   -6.5641   44.2396   26.2092 O   0  0  0  0  0  0
   -0.8030   51.7377   23.6537 S   0  0  0  0  0  0
   -1.5426   51.4233   24.8810 O   0  0  0  0  0  0
   -1.4605   52.4968   22.5841 O   0  0  0  0  0  0
    0.6664   52.6520   24.1335 C   0  0  0  0  0  0
    1.1054   52.6172   25.4591 C   0  0  0  0  0  0
    2.2579   53.3091   25.8237 C   0  0  0  0  0  0
    2.9640   54.0340   24.8645 C   0  0  0  0  0  0
    2.5260   54.0736   23.5424 C   0  0  0  0  0  0
    1.3773   53.3790   23.1756 C   0  0  0  0  0  0
    4.3944   54.8863   25.3181 Cl  0  0  0  0  0  0
    1.3549   51.2042   18.4694 H   0  0  0  0  0  0
   -0.6219   50.8302   20.0945 H   0  0  0  0  0  0
    3.6837   50.8729   19.6708 H   0  0  0  0  0  0
    1.1043   48.4487   23.5219 H   0  0  0  0  0  0
    1.2766   49.8319   24.5464 H   0  0  0  0  0  0
   -0.3629   48.9991   25.8979 H   0  0  0  0  0  0
   -1.8546   47.8337   26.5908 H   0  0  0  0  0  0
   -3.7141   46.6763   23.5644 H   0  0  0  0  0  0
   -5.6941   45.2253   23.7284 H   0  0  0  0  0  0
   -3.1595   46.4535   27.8564 H   0  0  0  0  0  0
   -7.3181   43.9638   28.1021 H   0  0  0  0  0  0
   -5.9605   42.9139   27.6429 H   0  0  0  0  0  0
    0.5618   52.0527   26.2040 H   0  0  0  0  0  0
    2.6040   53.2804   26.8467 H   0  0  0  0  0  0
    3.0762   54.6338   22.8000 H   0  0  0  0  0  0
    1.0520   53.3985   22.1443 H   0  0  0  0  0  0
  1  5  2  0  0  0
  1  2  1  0  0  0
  1 32  1  0  0  0
  2  3  2  0  0  0
  2 33  1  0  0  0
  3  4  1  0  0  0
  3  6  1  0  0  0
  4  5  1  0  0  0
  5 34  1  0  0  0
  6  7  1  0  0  0
  6  8  1  0  0  0
  6 22  1  0  0  0
  8  9  1  0  0  0
  8 35  1  0  0  0
  8 36  1  0  0  0
  9 10  1  0  0  0
  9 37  1  0  0  0
 10 11  2  0  0  0
 10 12  1  0  0  0
 12 13  1  0  0  0
 12 38  1  0  0  0
 13 18  2  0  0  0
 13 14  1  0  0  0
 14 15  2  0  0  0
 14 39  1  0  0  0
 15 16  1  0  0  0
 15 40  1  0  0  0
 16 21  1  0  0  0
 16 17  2  0  0  0
 17 18  1  0  0  0
 17 19  1  0  0  0
 18 41  1  0  0  0
 19 20  1  0  0  0
 20 21  1  0  0  0
 20 42  1  0  0  0
 20 43  1  0  0  0
 22 23  2  0  0  0
 22 24  2  0  0  0
 22 25  1  0  0  0
 25 30  2  0  0  0
 25 26  1  0  0  0
 26 27  2  0  0  0
 26 44  1  0  0  0
 27 28  1  0  0  0
 27 45  1  0  0  0
 28 29  2  0  0  0
 28 31  1  0  0  0
 29 30  1  0  0  0
 29 46  1  0  0  0
 30 47  1  0  0  0
M  END
> <i_i_glide_confnum>
79

> <i_i_glide_lignum>
2062

> <i_i_glide_posenum>
320

> <i_i_glide_rotatable_bonds>
8

> <i_m_Source_File_Index>
615

> <b_m_subgroup_collapsed>
0

> <r_i_docking_score>
-4.97089

> <r_i_glide_ecoul>
-9.75697

> <r_i_glide_eff_state_penalty>
0

> <r_i_glide_einternal>
5.87955

> <r_i_glide_emodel>
-56.5639

> <r_i_glide_energy>
-44.2615

> <r_i_glide_erotb>
0.652917

> <r_i_glide_esite>
-0.249792

> <r_i_glide_evdw>
-34.5046

> <r_i_glide_gscore>
-4.97089

> <r_i_glide_hbond>
-0.32

> <r_i_glide_ligand_efficiency>
-0.165696

> <r_i_glide_ligand_efficiency_ln>
-1.12944

> <r_i_glide_ligand_efficiency_sa>
-0.514857

> <r_i_glide_lipo>
-1.60762

> <r_i_glide_metal>
0

> <r_i_glide_rewards>
-0.257625

> <s_i_glide_gridfile>
wee1_glide-grid

> <s_m_Source_File>
wee1_decoys_glide_SP.sdf

> <s_m_Source_Path>
/Users/zhangxujun/Desktop

> <s_m_entry_id>
890

> <s_m_entry_name>
wee1_decoys_glide_SP.615

> <s_m_subgroup_title>
wee1_decoys_glide_SP

> <s_m_subgroupid>
wee1_decoys_glide_SP


$$$$
