ZINC14118978_68
                    3D
 Schrodinger Suite 2024-2.
 61 65  0  0  1  0            999 V2000
   -1.1948   51.6798   20.5628 C   0  0  0  0  0  0
   -0.7367   51.9434   21.9759 C   0  0  0  0  0  0
    0.4465   52.4967   22.4326 C   0  0  0  0  0  0
    0.5952   52.6024   23.8325 C   0  0  0  0  0  0
   -0.5452   52.0868   24.4876 C   0  0  0  0  0  0
   -1.7293   51.5506   23.3305 S   0  0  0  0  0  0
   -0.8649   51.9388   25.9617 C   0  0  0  0  0  0
    1.8359   53.1786   24.4875 C   0  0  0  0  0  0
    2.9733   53.5360   23.7450 C   0  0  0  0  0  0
    4.1515   53.9983   24.3677 C   0  0  0  0  0  0
    4.0902   54.1016   25.7750 C   0  0  0  0  0  0
    4.9530   54.4963   26.8454 C   0  0  0  0  0  0
    4.3598   54.4071   28.0098 N   0  0  0  0  0  0
    3.1063   53.9556   27.7850 N   0  0  0  0  0  0
    2.8930   53.7425   26.4334 C   0  0  0  0  0  0
    1.7855   53.2963   25.8420 N   0  0  0  0  0  0
    2.1642   53.7717   28.9006 C   0  0  0  0  0  0
    1.8338   55.1320   29.5490 C   0  0  0  0  0  0
    2.7147   52.7453   29.9135 C   0  0  0  0  0  0
    5.3928   54.3209   23.5601 C   0  0  0  0  0  0
    6.4763   54.4331   24.1280 O   0  0  0  0  0  0
    5.2004   54.4961   22.2321 N   0  0  0  0  0  0
    6.0954   54.9003   21.2256 C   0  0  0  0  0  0
    7.4127   55.3231   21.4499 C   0  0  0  0  0  0
    8.2193   55.6967   20.3782 C   0  0  0  0  0  0
    7.7217   55.6743   19.0663 C   0  0  0  0  0  0
    6.3966   55.2745   18.8560 C   0  0  0  0  0  0
    5.5921   54.8924   19.9243 C   0  0  0  0  0  0
    8.5737   56.0894   17.8816 C   0  0  0  0  0  0
    8.0578   56.3249   16.7897 O   0  0  0  0  0  0
    9.9026   56.1552   18.0811 N   0  0  0  0  0  0
   10.8676   56.5839   17.0754 C   0  0  0  0  0  0
   12.1862   55.8531   16.9914 C   0  0  0  0  0  0
   11.1557   55.6761   15.9004 C   0  0  0  0  0  0
   -0.5114   52.1062   19.8235 H   0  0  0  0  0  0
   -1.2538   50.6086   20.3561 H   0  0  0  0  0  0
   -2.1826   52.0979   20.3669 H   0  0  0  0  0  0
    1.1890   52.8240   21.7230 H   0  0  0  0  0  0
   -0.0354   51.5046   26.5183 H   0  0  0  0  0  0
   -1.1028   52.8948   26.4241 H   0  0  0  0  0  0
   -1.7170   51.2831   26.1398 H   0  0  0  0  0  0
    2.9549   53.4018   22.6776 H   0  0  0  0  0  0
    5.9752   54.8372   26.7722 H   0  0  0  0  0  0
    1.2416   53.3663   28.4813 H   0  0  0  0  0  0
    1.0926   55.0192   30.3412 H   0  0  0  0  0  0
    1.4302   55.8317   28.8138 H   0  0  0  0  0  0
    2.7115   55.5977   29.9923 H   0  0  0  0  0  0
    1.9894   52.5564   30.7050 H   0  0  0  0  0  0
    2.9236   51.7915   29.4271 H   0  0  0  0  0  0
    3.6367   53.0882   30.3814 H   0  0  0  0  0  0
    4.2627   54.3391   21.9029 H   0  0  0  0  0  0
    7.8390   55.3692   22.4377 H   0  0  0  0  0  0
    9.2288   56.0123   20.5932 H   0  0  0  0  0  0
    5.9772   55.2537   17.8590 H   0  0  0  0  0  0
    4.5764   54.5809   19.7254 H   0  0  0  0  0  0
   10.2614   56.0951   19.0248 H   0  0  0  0  0  0
   10.8592   57.6601   16.8911 H   0  0  0  0  0  0
   13.0856   56.4328   16.7897 H   0  0  0  0  0  0
   12.3701   55.0345   17.6884 H   0  0  0  0  0  0
   10.6120   54.7345   15.8239 H   0  0  0  0  0  0
   11.3222   56.1353   14.9256 H   0  0  0  0  0  0
  1  2  1  0  0  0
  1 35  1  0  0  0
  1 36  1  0  0  0
  1 37  1  0  0  0
  2  6  1  0  0  0
  2  3  2  0  0  0
  3  4  1  0  0  0
  3 38  1  0  0  0
  4  5  2  0  0  0
  4  8  1  0  0  0
  5  6  1  0  0  0
  5  7  1  0  0  0
  7 39  1  0  0  0
  7 40  1  0  0  0
  7 41  1  0  0  0
  8 16  2  0  0  0
  8  9  1  0  0  0
  9 10  2  0  0  0
  9 42  1  0  0  0
 10 11  1  0  0  0
 10 20  1  0  0  0
 11 15  2  0  0  0
 11 12  1  0  0  0
 12 13  2  0  0  0
 12 43  1  0  0  0
 13 14  1  0  0  0
 14 15  1  0  0  0
 14 17  1  0  0  0
 15 16  1  0  0  0
 17 18  1  0  0  0
 17 19  1  0  0  0
 17 44  1  0  0  0
 18 45  1  0  0  0
 18 46  1  0  0  0
 18 47  1  0  0  0
 19 48  1  0  0  0
 19 49  1  0  0  0
 19 50  1  0  0  0
 20 21  2  0  0  0
 20 22  1  0  0  0
 22 23  1  0  0  0
 22 51  1  0  0  0
 23 28  2  0  0  0
 23 24  1  0  0  0
 24 25  2  0  0  0
 24 52  1  0  0  0
 25 26  1  0  0  0
 25 53  1  0  0  0
 26 27  2  0  0  0
 26 29  1  0  0  0
 27 28  1  0  0  0
 27 54  1  0  0  0
 28 55  1  0  0  0
 29 30  2  0  0  0
 29 31  1  0  0  0
 31 32  1  0  0  0
 31 56  1  0  0  0
 32 34  1  0  0  0
 32 33  1  0  0  0
 32 57  1  0  0  0
 33 34  1  0  0  0
 33 58  1  0  0  0
 33 59  1  0  0  0
 34 60  1  0  0  0
 34 61  1  0  0  0
M  END
> <i_i_glide_confnum>
124

> <i_i_glide_lignum>
69

> <i_i_glide_posenum>
75

> <i_i_glide_rotatable_bonds>
8

> <i_m_Source_File_Index>
4705

> <b_m_subgroup_collapsed>
0

> <r_i_docking_score>
-6.31359

> <r_i_glide_ecoul>
-3.82885

> <r_i_glide_eff_state_penalty>
0

> <r_i_glide_einternal>
0.485695

> <r_i_glide_emodel>
-67.8986

> <r_i_glide_energy>
-48.1117

> <r_i_glide_erotb>
0.631333

> <r_i_glide_esite>
-0.0269132

> <r_i_glide_evdw>
-44.2829

> <r_i_glide_gscore>
-6.31359

> <r_i_glide_hbond>
-0.307433

> <r_i_glide_ligand_efficiency>
-0.185694

> <r_i_glide_ligand_efficiency_ln>
-1.39485

> <r_i_glide_ligand_efficiency_sa>
-0.601576

> <r_i_glide_lipo>
-2.70009

> <r_i_glide_metal>
0

> <r_i_glide_rewards>
-1.12202

> <s_i_glide_gridfile>
wee1_glide-grid

> <s_m_Source_File>
wee1_decoys_glide_SP.sdf

> <s_m_Source_Path>
/Users/zhangxujun/Desktop

> <s_m_entry_id>
4980

> <s_m_entry_name>
wee1_decoys_glide_SP.4705

> <s_m_subgroup_title>
wee1_decoys_glide_SP

> <s_m_subgroupid>
wee1_decoys_glide_SP


$$$$
