ZINC38905308_5453
                    3D
 Schrodinger Suite 2024-2.
 56 59  0  0  1  0            999 V2000
    0.5867   52.2517   25.6351 C   0  0  0  0  0  0
    0.5398   51.5657   24.3888 O   0  0  0  0  0  0
   -0.1336   50.3574   24.3019 C   0  0  0  0  0  0
   -0.6788   49.6946   25.4125 C   0  0  0  0  0  0
   -1.3312   48.4733   25.2655 C   0  0  0  0  0  0
   -1.4555   47.8692   24.0092 C   0  0  0  0  0  0
   -0.8951   48.5145   22.8994 C   0  0  0  0  0  0
   -0.2534   49.7473   23.0383 C   0  0  0  0  0  0
    0.2826   50.3345   21.8855 N   0  0  0  0  0  0
   -0.1415   51.4993   21.3511 C   0  0  0  0  0  0
   -1.1519   52.0966   21.7295 O   0  0  0  0  0  0
    0.6959   52.0945   20.2011 C   0  0  2  0  0  0
    0.3418   53.1239   20.1454 H   0  0  0  0  0  0
    0.3811   51.3882   18.8657 C   0  0  0  0  0  0
    1.2065   52.0634   17.7535 C   0  0  0  0  0  0
    2.7172   52.0438   18.0574 C   0  0  0  0  0  0
    2.9986   52.7630   19.4070 N   0  3  1  0  0  0
    2.2021   52.1030   20.5630 C   0  0  0  0  0  0
    4.5375   52.7553   19.6475 C   0  0  0  0  0  0
    4.9788   53.5144   20.8931 C   0  0  0  0  0  0
    4.6523   53.2975   22.1377 N   0  0  0  0  0  0
    5.4096   54.1566   22.7915 C   0  0  0  0  0  0
    6.2096   54.8971   22.0509 N   0  0  0  0  0  0
    5.9040   54.4962   20.7502 O   0  0  0  0  0  0
    5.3456   54.2806   24.2825 C   0  0  0  0  0  0
    4.1217   54.0969   24.9390 C   0  0  0  0  0  0
    4.0497   54.1681   26.3268 C   0  0  0  0  0  0
    5.2016   54.4236   27.0643 C   0  0  0  0  0  0
    6.4222   54.6220   26.4250 C   0  0  0  0  0  0
    6.4948   54.5589   25.0337 C   0  0  0  0  0  0
    5.1044   54.4974   28.9627 Br  0  0  0  0  0  0
   -2.1709   46.5814   23.8607 N   0  3  0  0  0  0
   -2.7212   46.0968   24.8453 O   0  0  0  0  0  0
   -2.1880   46.0388   22.7592 O   0  5  0  0  0  0
    1.0984   53.2044   25.5009 H   0  0  0  0  0  0
   -0.4147   52.4691   26.0102 H   0  0  0  0  0  0
    1.1354   51.6845   26.3879 H   0  0  0  0  0  0
   -0.6074   50.1012   26.4103 H   0  0  0  0  0  0
   -1.7405   47.9956   26.1437 H   0  0  0  0  0  0
   -0.9760   48.0680   21.9181 H   0  0  0  0  0  0
    1.0227   49.8294   21.4235 H   0  0  0  0  0  0
    0.6857   50.3393   18.8808 H   0  0  0  0  0  0
   -0.6705   51.4909   18.5894 H   0  0  0  0  0  0
    1.0273   51.5551   16.8045 H   0  0  0  0  0  0
    0.8751   53.0936   17.6088 H   0  0  0  0  0  0
    3.1053   51.0237   18.1216 H   0  0  0  0  0  0
    3.2610   52.5877   17.2824 H   0  0  0  0  0  0
    2.3472   52.7293   21.4417 H   0  0  0  0  0  0
    2.6380   51.1100   20.6956 H   0  0  0  0  0  0
    4.8234   51.7020   19.6829 H   0  0  0  0  0  0
    4.9759   53.1836   18.7440 H   0  0  0  0  0  0
    3.2247   53.8870   24.3744 H   0  0  0  0  0  0
    3.1071   54.0169   26.8312 H   0  0  0  0  0  0
    7.3049   54.8124   27.0171 H   0  0  0  0  0  0
    7.4475   54.6992   24.5407 H   0  0  0  0  0  0
    2.6785   53.7231   19.3247 H   0  0  0  0  0  0
  1  2  1  0  0  0
  1 35  1  0  0  0
  1 36  1  0  0  0
  1 37  1  0  0  0
  2  3  1  0  0  0
  3  8  2  0  0  0
  3  4  1  0  0  0
  4  5  2  0  0  0
  4 38  1  0  0  0
  5  6  1  0  0  0
  5 39  1  0  0  0
  6  7  2  0  0  0
  6 32  1  0  0  0
  7  8  1  0  0  0
  7 40  1  0  0  0
  8  9  1  0  0  0
  9 10  1  0  0  0
  9 41  1  0  0  0
 10 11  2  0  0  0
 10 12  1  0  0  0
 12 13  1  0  0  0
 12 18  1  0  0  0
 12 14  1  0  0  0
 14 15  1  0  0  0
 14 42  1  0  0  0
 14 43  1  0  0  0
 15 16  1  0  0  0
 15 44  1  0  0  0
 15 45  1  0  0  0
 16 17  1  0  0  0
 16 46  1  0  0  0
 16 47  1  0  0  0
 17 18  1  0  0  0
 17 19  1  0  0  0
 17 56  1  0  0  0
 18 48  1  0  0  0
 18 49  1  0  0  0
 19 20  1  0  0  0
 19 50  1  0  0  0
 19 51  1  0  0  0
 20 24  1  0  0  0
 20 21  2  0  0  0
 21 22  1  0  0  0
 22 23  2  0  0  0
 22 25  1  0  0  0
 23 24  1  0  0  0
 25 30  2  0  0  0
 25 26  1  0  0  0
 26 27  2  0  0  0
 26 52  1  0  0  0
 27 28  1  0  0  0
 27 53  1  0  0  0
 28 29  2  0  0  0
 28 31  1  0  0  0
 29 30  1  0  0  0
 29 54  1  0  0  0
 30 55  1  0  0  0
 32 33  2  0  0  0
 32 34  1  0  0  0
M  CHG  3  17   1  32   1  34  -1
M  END
> <i_i_glide_confnum>
66

> <i_i_glide_lignum>
5454

> <i_i_glide_posenum>
200

> <i_i_glide_rotatable_bonds>
8

> <i_m_Source_File_Index>
2926

> <b_m_subgroup_collapsed>
0

> <r_i_docking_score>
-5.17008

> <r_i_glide_ecoul>
-6.67454

> <r_i_glide_eff_state_penalty>
0

> <r_i_glide_einternal>
10.6639

> <r_i_glide_emodel>
-60.4139

> <r_i_glide_energy>
-47.8177

> <r_i_glide_erotb>
0.460254

> <r_i_glide_esite>
-0.20957

> <r_i_glide_evdw>
-41.1431

> <r_i_glide_gscore>
-5.17008

> <r_i_glide_hbond>
0

> <r_i_glide_ligand_efficiency>
-0.156669

> <r_i_glide_ligand_efficiency_ln>
-1.1498

> <r_i_glide_ligand_efficiency_sa>
-0.502521

> <r_i_glide_lipo>
-1.93211

> <r_i_glide_metal>
0

> <r_i_glide_rewards>
-0.430311

> <s_i_glide_gridfile>
wee1_glide-grid

> <s_m_Source_File>
wee1_decoys_glide_SP.sdf

> <s_m_Source_Path>
/Users/zhangxujun/Desktop

> <s_m_entry_id>
3201

> <s_m_entry_name>
wee1_decoys_glide_SP.2926

> <s_m_subgroup_title>
wee1_decoys_glide_SP

> <s_m_subgroupid>
wee1_decoys_glide_SP


$$$$
