ZINC20751735_4488
                    3D
 Schrodinger Suite 2024-2.
 64 69  0  0  1  0            999 V2000
    1.0236   51.7203   28.3420 C   0  0  0  0  0  0
    2.0096   52.6530   27.6631 C   0  0  0  0  0  0
    1.8364   53.0283   26.3292 C   0  0  0  0  0  0
    2.7533   53.8809   25.7154 C   0  0  0  0  0  0
    3.8538   54.3683   26.4243 C   0  0  0  0  0  0
    4.0410   53.9866   27.7669 C   0  0  0  0  0  0
    3.1171   53.1268   28.3704 C   0  0  0  0  0  0
    5.2068   54.4904   28.6140 C   0  0  0  0  0  0
    4.6981   55.2964   25.8042 N   0  0  0  0  0  0
    6.2871   54.8905   25.1625 S   0  0  0  0  0  0
    7.0982   56.0967   25.2819 O   0  0  0  0  0  0
    6.7122   53.6701   25.8369 O   0  0  0  0  0  0
    6.0501   54.5563   23.4183 C   0  0  0  0  0  0
    5.1238   53.5931   23.0452 C   0  0  0  0  0  0
    4.8626   53.3476   21.7051 C   0  0  0  0  0  0
    5.5032   54.0951   20.7204 C   0  0  0  0  0  0
    6.3954   55.1344   21.0673 C   0  0  0  0  0  0
    6.7018   55.3054   22.4293 C   0  0  0  0  0  0
    6.9943   56.0487   19.9884 C   0  0  1  0  0  0
    6.6135   57.0542   20.1730 H   0  0  0  0  0  0
    8.5093   56.0292   19.9367 C   0  0  0  0  0  0
    8.9613   55.3449   18.8714 C   0  0  0  0  0  0
    7.8222   54.8249   18.0286 C   0  0  0  0  0  0
    6.6245   55.6243   18.5551 C   0  0  1  0  0  0
    6.5753   56.5344   17.9520 H   0  0  0  0  0  0
    5.2330   54.9501   18.4478 C   0  0  2  0  0  0
    4.4918   55.6359   18.8546 H   0  0  0  0  0  0
    5.1338   53.8409   19.3897 N   0  0  0  0  0  0
    4.7831   54.6606   16.9990 C   0  0  0  0  0  0
    4.0330   55.6705   16.2931 C   0  0  0  0  0  0
    3.7872   56.9837   16.8056 C   0  0  0  0  0  0
    3.0443   57.9140   16.0861 C   0  0  0  0  0  0
    2.5191   57.5865   14.8446 C   0  0  0  0  0  0
    2.7407   56.3284   14.2976 C   0  0  0  0  0  0
    3.5028   55.3597   14.9991 C   0  0  0  0  0  0
    3.7491   54.0905   14.4304 C   0  0  0  0  0  0
    4.5326   53.1609   15.0980 C   0  0  0  0  0  0
    5.0612   53.4376   16.3512 C   0  0  0  0  0  0
    5.9089   52.4968   16.8822 O   0  0  0  0  0  0
    0.3073   51.2901   27.6409 H   0  0  0  0  0  0
    0.4784   52.2465   29.1255 H   0  0  0  0  0  0
    1.5564   50.8948   28.8137 H   0  0  0  0  0  0
    0.9882   52.6663   25.7671 H   0  0  0  0  0  0
    2.5912   54.1832   24.6911 H   0  0  0  0  0  0
    3.2593   52.8301   29.3991 H   0  0  0  0  0  0
    5.8765   53.6661   28.8535 H   0  0  0  0  0  0
    5.7890   55.2758   28.1332 H   0  0  0  0  0  0
    4.8396   54.8983   29.5567 H   0  0  0  0  0  0
    4.3666   56.2374   25.6699 H   0  0  0  0  0  0
    4.5947   53.0381   23.8015 H   0  0  0  0  0  0
    4.1432   52.5868   21.4358 H   0  0  0  0  0  0
    7.4044   56.0733   22.7216 H   0  0  0  0  0  0
    9.1229   56.4936   20.6956 H   0  0  0  0  0  0
    9.9952   55.1591   18.6187 H   0  0  0  0  0  0
    7.7078   53.7503   18.1671 H   0  0  0  0  0  0
    7.9778   55.0064   16.9645 H   0  0  0  0  0  0
    4.4135   53.1655   19.1788 H   0  0  0  0  0  0
    4.1907   57.2986   17.7545 H   0  0  0  0  0  0
    2.8813   58.9032   16.4914 H   0  0  0  0  0  0
    1.9472   58.3200   14.2961 H   0  0  0  0  0  0
    2.3396   56.0876   13.3240 H   0  0  0  0  0  0
    3.3508   53.8571   13.4533 H   0  0  0  0  0  0
    4.7467   52.2131   14.6264 H   0  0  0  0  0  0
    5.5060   51.6731   17.2361 H   0  0  0  0  0  0
  1  2  1  0  0  0
  1 40  1  0  0  0
  1 41  1  0  0  0
  1 42  1  0  0  0
  2  7  2  0  0  0
  2  3  1  0  0  0
  3  4  2  0  0  0
  3 43  1  0  0  0
  4  5  1  0  0  0
  4 44  1  0  0  0
  5  6  2  0  0  0
  5  9  1  0  0  0
  6  7  1  0  0  0
  6  8  1  0  0  0
  7 45  1  0  0  0
  8 46  1  0  0  0
  8 47  1  0  0  0
  8 48  1  0  0  0
  9 10  1  0  0  0
  9 49  1  0  0  0
 10 11  2  0  0  0
 10 12  2  0  0  0
 10 13  1  0  0  0
 13 18  2  0  0  0
 13 14  1  0  0  0
 14 15  2  0  0  0
 14 50  1  0  0  0
 15 16  1  0  0  0
 15 51  1  0  0  0
 16 28  1  0  0  0
 16 17  2  0  0  0
 17 18  1  0  0  0
 17 19  1  0  0  0
 18 52  1  0  0  0
 19 20  1  0  0  0
 19 24  1  0  0  0
 19 21  1  0  0  0
 21 22  2  0  0  0
 21 53  1  0  0  0
 22 23  1  0  0  0
 22 54  1  0  0  0
 23 24  1  0  0  0
 23 55  1  0  0  0
 23 56  1  0  0  0
 24 25  1  0  0  0
 24 26  1  0  0  0
 26 27  1  0  0  0
 26 28  1  0  0  0
 26 29  1  0  0  0
 28 57  1  0  0  0
 29 38  2  0  0  0
 29 30  1  0  0  0
 30 35  2  0  0  0
 30 31  1  0  0  0
 31 32  2  0  0  0
 31 58  1  0  0  0
 32 33  1  0  0  0
 32 59  1  0  0  0
 33 34  2  0  0  0
 33 60  1  0  0  0
 34 35  1  0  0  0
 34 61  1  0  0  0
 35 36  1  0  0  0
 36 37  2  0  0  0
 36 62  1  0  0  0
 37 38  1  0  0  0
 37 63  1  0  0  0
 38 39  1  0  0  0
 39 64  1  0  0  0
M  END
> <i_i_glide_confnum>
19

> <i_i_glide_lignum>
4489

> <i_i_glide_posenum>
230

> <i_i_glide_rotatable_bonds>
5

> <i_m_Source_File_Index>
1216

> <b_m_subgroup_collapsed>
0

> <r_i_docking_score>
-5.5824

> <r_i_glide_ecoul>
-7.79054

> <r_i_glide_eff_state_penalty>
0

> <r_i_glide_einternal>
8.86766

> <r_i_glide_emodel>
-54.2554

> <r_i_glide_energy>
-43.9259

> <r_i_glide_erotb>
0.330752

> <r_i_glide_esite>
-0.0257548

> <r_i_glide_evdw>
-36.1354

> <r_i_glide_gscore>
-5.5824

> <r_i_glide_hbond>
-0.16

> <r_i_glide_ligand_efficiency>
-0.155067

> <r_i_glide_ligand_efficiency_ln>
-1.21793

> <r_i_glide_ligand_efficiency_sa>
-0.512019

> <r_i_glide_lipo>
-3.06402

> <r_i_glide_metal>
0

> <r_i_glide_rewards>
0.311973

> <s_i_glide_gridfile>
wee1_glide-grid

> <s_m_Source_File>
wee1_decoys_glide_SP.sdf

> <s_m_Source_Path>
/Users/zhangxujun/Desktop

> <s_m_entry_id>
1491

> <s_m_entry_name>
wee1_decoys_glide_SP.1216

> <s_m_subgroup_title>
wee1_decoys_glide_SP

> <s_m_subgroupid>
wee1_decoys_glide_SP


$$$$
