ZINC67067101_1509
                    3D
 Schrodinger Suite 2024-2.
 49 52  0  0  1  0            999 V2000
    4.0902   53.9246   27.1343 C   0  0  0  0  0  0
    3.2402   53.6967   26.0489 C   0  0  0  0  0  0
    1.9502   53.1725   26.2343 C   0  0  0  0  0  0
    1.5193   52.9295   27.5512 C   0  0  0  0  0  0
    2.3776   53.1604   28.6414 C   0  0  0  0  0  0
    3.6658   53.6451   28.4323 C   0  0  0  0  0  0
    2.0219   52.8526   29.9404 O   0  0  0  0  0  0
    0.6117   52.7172   30.1477 C   0  0  0  0  0  0
   -0.0364   51.9001   29.0044 C   0  0  0  0  0  0
    0.2087   52.5365   27.7483 O   0  0  0  0  0  0
    0.9919   52.9355   25.0457 C   0  0  1  0  0  0
    0.0356   53.2965   25.4241 H   0  0  0  0  0  0
    1.2741   53.6816   23.7411 C   0  0  0  0  0  0
    2.1149   52.7254   22.9077 C   0  0  0  0  0  0
    1.7235   51.3093   23.3621 C   0  0  0  0  0  0
    0.9099   51.5413   24.5743 N   0  0  0  0  0  0
   -0.1312   50.7315   24.9064 C   0  0  0  0  0  0
   -1.1169   51.1480   25.5278 O   0  0  0  0  0  0
    0.0252   49.4307   24.5597 N   0  0  0  0  0  0
   -0.8506   48.5013   25.1206 N   0  0  0  0  0  0
   -1.6537   47.7975   24.2882 C   0  0  0  0  0  0
   -1.6216   47.8869   23.0552 O   0  0  0  0  0  0
   -2.6660   46.8935   24.9557 C   0  0  0  0  0  0
   -3.8118   46.4877   24.2528 C   0  0  0  0  0  0
   -4.7814   45.6976   24.8728 C   0  0  0  0  0  0
   -4.6071   45.3009   26.2016 C   0  0  0  0  0  0
   -3.4709   45.6966   26.9015 C   0  0  0  0  0  0
   -2.5065   46.4795   26.2844 C   0  0  0  0  0  0
   -5.6095   44.4884   26.8758 C   0  0  0  0  0  0
   -6.4050   43.8432   27.4174 N   0  0  0  0  0  0
    5.0867   54.3071   26.9666 H   0  0  0  0  0  0
    3.6153   53.9157   25.0610 H   0  0  0  0  0  0
    4.3330   53.8016   29.2654 H   0  0  0  0  0  0
    0.4285   52.2392   31.1098 H   0  0  0  0  0  0
    0.1557   53.7084   30.1781 H   0  0  0  0  0  0
    0.3921   50.8979   28.9825 H   0  0  0  0  0  0
   -1.1091   51.7969   29.1597 H   0  0  0  0  0  0
    1.7732   54.6385   23.8986 H   0  0  0  0  0  0
    0.3223   53.9391   23.2814 H   0  0  0  0  0  0
    3.1748   52.8956   23.0944 H   0  0  0  0  0  0
    1.9554   52.8735   21.8386 H   0  0  0  0  0  0
    2.6537   50.7764   23.5677 H   0  0  0  0  0  0
    1.1561   50.8667   22.5404 H   0  0  0  0  0  0
    0.9144   49.0332   24.2868 H   0  0  0  0  0  0
   -0.5372   48.1473   26.0160 H   0  0  0  0  0  0
   -3.9726   46.8027   23.2311 H   0  0  0  0  0  0
   -5.6673   45.4112   24.3209 H   0  0  0  0  0  0
   -3.3229   45.4097   27.9354 H   0  0  0  0  0  0
   -1.6507   46.7714   26.8780 H   0  0  0  0  0  0
  1  6  2  0  0  0
  1  2  1  0  0  0
  1 31  1  0  0  0
  2  3  2  0  0  0
  2 32  1  0  0  0
  3  4  1  0  0  0
  3 11  1  0  0  0
  4 10  1  0  0  0
  4  5  2  0  0  0
  5  6  1  0  0  0
  5  7  1  0  0  0
  6 33  1  0  0  0
  7  8  1  0  0  0
  8  9  1  0  0  0
  8 34  1  0  0  0
  8 35  1  0  0  0
  9 10  1  0  0  0
  9 36  1  0  0  0
  9 37  1  0  0  0
 11 12  1  0  0  0
 11 16  1  0  0  0
 11 13  1  0  0  0
 13 14  1  0  0  0
 13 38  1  0  0  0
 13 39  1  0  0  0
 14 15  1  0  0  0
 14 40  1  0  0  0
 14 41  1  0  0  0
 15 16  1  0  0  0
 15 42  1  0  0  0
 15 43  1  0  0  0
 16 17  1  0  0  0
 17 18  2  0  0  0
 17 19  1  0  0  0
 19 20  1  0  0  0
 19 44  1  0  0  0
 20 21  1  0  0  0
 20 45  1  0  0  0
 21 22  2  0  0  0
 21 23  1  0  0  0
 23 28  2  0  0  0
 23 24  1  0  0  0
 24 25  2  0  0  0
 24 46  1  0  0  0
 25 26  1  0  0  0
 25 47  1  0  0  0
 26 27  2  0  0  0
 26 29  1  0  0  0
 27 28  1  0  0  0
 27 48  1  0  0  0
 28 49  1  0  0  0
 29 30  3  0  0  0
M  END
> <i_i_glide_confnum>
276

> <i_i_glide_lignum>
1510

> <i_i_glide_posenum>
251

> <i_i_glide_rotatable_bonds>
7

> <i_m_Source_File_Index>
3510

> <b_m_subgroup_collapsed>
0

> <r_i_docking_score>
-4.90129

> <r_i_glide_ecoul>
-6.54183

> <r_i_glide_eff_state_penalty>
0

> <r_i_glide_einternal>
6.3423

> <r_i_glide_emodel>
-54.265

> <r_i_glide_energy>
-43.9636

> <r_i_glide_erotb>
0.760772

> <r_i_glide_esite>
-0.147965

> <r_i_glide_evdw>
-37.4218

> <r_i_glide_gscore>
-4.90129

> <r_i_glide_hbond>
-0.0140628

> <r_i_glide_ligand_efficiency>
-0.16901

> <r_i_glide_ligand_efficiency_ln>
-1.12227

> <r_i_glide_ligand_efficiency_sa>
-0.519252

> <r_i_glide_lipo>
-1.82442

> <r_i_glide_metal>
0

> <r_i_glide_rewards>
-0.823249

> <s_i_glide_gridfile>
wee1_glide-grid

> <s_m_Source_File>
wee1_decoys_glide_SP.sdf

> <s_m_Source_Path>
/Users/zhangxujun/Desktop

> <s_m_entry_id>
3785

> <s_m_entry_name>
wee1_decoys_glide_SP.3510

> <s_m_subgroup_title>
wee1_decoys_glide_SP

> <s_m_subgroupid>
wee1_decoys_glide_SP


$$$$
