ZINC14745803_870
                    3D
 Schrodinger Suite 2024-2.
 74 76  0  0  1  0            999 V2000
    3.4105   52.1022   28.9816 C   0  0  0  0  0  0
    2.4900   53.1400   28.3565 C   0  0  0  0  0  0
    2.8919   54.1762   27.5883 C   0  0  0  0  0  0
    4.2348   54.4608   27.0592 C   0  0  0  0  0  0
    5.4067   54.3757   27.8187 C   0  0  0  0  0  0
    6.6443   54.5275   27.1956 C   0  0  0  0  0  0
    6.7043   54.7839   25.8276 C   0  0  0  0  0  0
    5.5443   54.9000   25.0735 C   0  0  0  0  0  0
    4.3130   54.7482   25.6935 C   0  0  0  0  0  0
    1.0072   52.8813   28.5805 C   0  0  0  0  0  0
    0.4477   51.6938   27.9246 N   0  0  0  0  0  0
    0.1864   51.6874   26.5374 C   0  0  0  0  0  0
    1.0713   52.2031   25.5772 C   0  0  0  0  0  0
    0.7396   52.2358   24.2151 C   0  0  0  0  0  0
   -0.5144   51.7684   23.8152 C   0  0  0  0  0  0
   -1.3844   51.2055   24.7538 C   0  0  0  0  0  0
   -1.0169   51.1302   26.1006 C   0  0  0  0  0  0
   -3.0102   50.6883   24.2318 S   0  0  0  0  0  0
   -2.8374   49.9868   22.9552 O   0  0  0  0  0  0
   -3.6897   50.0421   25.3599 O   0  0  0  0  0  0
   -3.8278   52.2044   23.8693 N   0  0  0  0  0  0
   -4.4254   53.1204   24.8737 C   0  0  0  0  0  0
   -3.6867   53.0867   26.2224 C   0  0  0  0  0  0
   -5.9043   52.7421   25.0660 C   0  0  0  0  0  0
   -4.3130   54.5578   24.3253 C   0  0  0  0  0  0
    1.7313   52.7942   23.2208 C   0  0  0  0  0  0
    1.9144   54.0122   23.2093 O   0  0  0  0  0  0
    2.4755   51.9208   22.4810 N   0  0  0  0  0  0
    2.1184   50.4968   22.3332 C   0  0  0  0  0  0
    2.4339   49.8818   20.9551 C   0  0  0  0  0  0
    2.0212   50.7097   19.7233 C   0  0  0  0  0  0
    3.4520   52.8551   20.3077 C   0  0  0  0  0  0
    3.6783   52.3769   21.7533 C   0  0  0  0  0  0
    2.7955   52.3238   17.9056 C   0  0  0  0  0  0
    2.9844   51.1058   28.8820 H   0  0  0  0  0  0
    4.3977   52.0955   28.5253 H   0  0  0  0  0  0
    3.5301   52.3099   30.0460 H   0  0  0  0  0  0
    2.1288   54.8677   27.2624 H   0  0  0  0  0  0
    5.3667   54.1744   28.8775 H   0  0  0  0  0  0
    7.5471   54.4480   27.7816 H   0  0  0  0  0  0
    7.6529   54.8887   25.3231 H   0  0  0  0  0  0
    5.5999   55.1035   24.0143 H   0  0  0  0  0  0
    3.4149   54.8238   25.0972 H   0  0  0  0  0  0
    0.8300   52.7951   29.6532 H   0  0  0  0  0  0
    0.4225   53.7474   28.2643 H   0  0  0  0  0  0
   -0.2350   51.1891   28.4758 H   0  0  0  0  0  0
    2.0462   52.5445   25.8724 H   0  0  0  0  0  0
   -0.8105   51.8277   22.7766 H   0  0  0  0  0  0
   -1.6976   50.7006   26.8220 H   0  0  0  0  0  0
   -4.1233   52.3333   22.8999 H   0  0  0  0  0  0
   -2.6244   53.2974   26.1079 H   0  0  0  0  0  0
   -4.0887   53.8522   26.8815 H   0  0  0  0  0  0
   -3.7953   52.1360   26.7441 H   0  0  0  0  0  0
   -6.4589   52.7864   24.1262 H   0  0  0  0  0  0
   -6.0070   51.7270   25.4513 H   0  0  0  0  0  0
   -6.4027   53.4100   25.7690 H   0  0  0  0  0  0
   -5.0493   54.7751   23.5556 H   0  0  0  0  0  0
   -4.4801   55.2968   25.1082 H   0  0  0  0  0  0
   -3.3266   54.7551   23.9010 H   0  0  0  0  0  0
    2.7028   49.9339   23.0624 H   0  0  0  0  0  0
    1.0626   50.3248   22.5347 H   0  0  0  0  0  0
    3.5043   49.6969   20.8991 H   0  0  0  0  0  0
    1.9791   48.8900   20.9021 H   0  0  0  0  0  0
    1.9327   50.0448   18.8604 H   0  0  0  0  0  0
    1.0842   51.2580   19.8502 H   0  0  0  0  0  0
    2.7043   53.6466   20.2461 H   0  0  0  0  0  0
    4.3766   53.2795   19.9106 H   0  0  0  0  0  0
    4.0869   53.2315   22.2973 H   0  0  0  0  0  0
    4.4882   51.6514   21.8244 H   0  0  0  0  0  0
    1.8596   52.8816   17.9754 H   0  0  0  0  0  0
    3.6296   52.9718   17.6327 H   0  0  0  0  0  0
    2.7278   51.4897   17.2038 H   0  0  0  0  0  0
    3.1036   51.7295   19.2962 N   0  3  2  0  0  0
    3.9561   51.1870   19.1434 H   0  0  0  0  0  0
  1  2  1  0  0  0
  1 35  1  0  0  0
  1 36  1  0  0  0
  1 37  1  0  0  0
  2  3  2  0  0  0
  2 10  1  0  0  0
  3  4  1  0  0  0
  3 38  1  0  0  0
  4  9  2  0  0  0
  4  5  1  0  0  0
  5  6  2  0  0  0
  5 39  1  0  0  0
  6  7  1  0  0  0
  6 40  1  0  0  0
  7  8  2  0  0  0
  7 41  1  0  0  0
  8  9  1  0  0  0
  8 42  1  0  0  0
  9 43  1  0  0  0
 10 11  1  0  0  0
 10 44  1  0  0  0
 10 45  1  0  0  0
 11 12  1  0  0  0
 11 46  1  0  0  0
 12 17  2  0  0  0
 12 13  1  0  0  0
 13 14  2  0  0  0
 13 47  1  0  0  0
 14 15  1  0  0  0
 14 26  1  0  0  0
 15 16  2  0  0  0
 15 48  1  0  0  0
 16 17  1  0  0  0
 16 18  1  0  0  0
 17 49  1  0  0  0
 18 19  2  0  0  0
 18 20  2  0  0  0
 18 21  1  0  0  0
 21 22  1  0  0  0
 21 50  1  0  0  0
 22 23  1  0  0  0
 22 24  1  0  0  0
 22 25  1  0  0  0
 23 51  1  0  0  0
 23 52  1  0  0  0
 23 53  1  0  0  0
 24 54  1  0  0  0
 24 55  1  0  0  0
 24 56  1  0  0  0
 25 57  1  0  0  0
 25 58  1  0  0  0
 25 59  1  0  0  0
 26 27  2  0  0  0
 26 28  1  0  0  0
 28 33  1  0  0  0
 28 29  1  0  0  0
 29 30  1  0  0  0
 29 60  1  0  0  0
 29 61  1  0  0  0
 30 31  1  0  0  0
 30 62  1  0  0  0
 30 63  1  0  0  0
 31 64  1  0  0  0
 31 65  1  0  0  0
 31 73  1  0  0  0
 32 33  1  0  0  0
 32 66  1  0  0  0
 32 67  1  0  0  0
 32 73  1  0  0  0
 33 68  1  0  0  0
 33 69  1  0  0  0
 34 70  1  0  0  0
 34 71  1  0  0  0
 34 72  1  0  0  0
 34 73  1  0  0  0
 73 74  1  0  0  0
M  CHG  1  73   1
M  END
> <i_i_glide_confnum>
6

> <i_i_glide_lignum>
871

> <i_i_glide_posenum>
143

> <i_i_glide_rotatable_bonds>
9

> <i_m_Source_File_Index>
6092

> <b_m_subgroup_collapsed>
0

> <r_i_docking_score>
-5.11171

> <r_i_glide_ecoul>
-0.854886

> <r_i_glide_eff_state_penalty>
0

> <r_i_glide_einternal>
9.73425

> <r_i_glide_emodel>
-56.0167

> <r_i_glide_energy>
-43.649

> <r_i_glide_erotb>
0.572318

> <r_i_glide_esite>
-0.0998401

> <r_i_glide_evdw>
-42.7941

> <r_i_glide_gscore>
-5.11171

> <r_i_glide_hbond>
-0.2

> <r_i_glide_ligand_efficiency>
-0.146049

> <r_i_glide_ligand_efficiency_ln>
-1.12213

> <r_i_glide_ligand_efficiency_sa>
-0.477735

> <r_i_glide_lipo>
-3.26992

> <r_i_glide_metal>
0

> <r_i_glide_rewards>
0.153669

> <s_i_glide_gridfile>
wee1_glide-grid

> <s_m_Source_File>
wee1_decoys_glide_SP.sdf

> <s_m_Source_Path>
/Users/zhangxujun/Desktop

> <s_m_entry_id>
6367

> <s_m_entry_name>
wee1_decoys_glide_SP.6092

> <s_m_subgroup_title>
wee1_decoys_glide_SP

> <s_m_subgroupid>
wee1_decoys_glide_SP


$$$$
