ZINC39327028_4502
                    3D
 Schrodinger Suite 2024-2.
 69 74  0  0  1  0            999 V2000
    2.1518   52.0009   19.9252 C   0  0  0  0  0  0
    1.5075   51.3594   21.1567 C   0  0  0  0  0  0
    0.9837   50.0952   21.2728 C   0  0  0  0  0  0
    0.3041   49.5989   22.5922 C   0  0  1  0  0  0
    0.7869   48.6661   22.8916 H   0  0  0  0  0  0
    0.5546   50.6213   23.7196 C   0  0  0  0  0  0
    0.1998   50.5167   25.0864 C   0  0  0  0  0  0
    0.4551   51.6757   25.8387 C   0  0  0  0  0  0
    1.1722   52.8995   24.8266 S   0  0  0  0  0  0
    1.1010   51.8706   23.4529 C   0  0  0  0  0  0
    1.5422   52.2510   22.2118 N   0  0  0  0  0  0
    0.1289   51.9776   27.2424 C   0  0  0  0  0  0
   -0.9329   51.5689   27.7141 O   0  0  0  0  0  0
    1.1181   52.7636   28.1685 C   0  0  0  0  0  0
    0.7971   52.5093   29.6832 C   0  0  0  0  0  0
    1.7431   53.3398   30.5893 C   0  0  2  0  0  0
    1.5539   54.8521   30.2671 C   0  0  0  0  0  0
    1.9209   55.1163   28.7957 C   0  0  2  0  0  0
    0.9703   54.2892   27.9112 C   0  0  0  0  0  0
    3.3889   54.6884   28.5286 C   0  0  0  0  0  0
    3.5572   53.1745   28.8321 C   0  0  1  0  0  0
    3.2106   52.9156   30.3171 C   0  0  0  0  0  0
    2.6035   52.3520   27.9299 C   0  0  0  0  0  0
   -0.3604   49.3871   25.6206 N   0  0  0  0  0  0
   -1.1965   49.2904   22.4578 C   0  0  0  0  0  0
   -1.6551   47.9677   22.4459 C   0  0  0  0  0  0
   -3.0138   47.6934   22.3411 C   0  0  0  0  0  0
   -3.9456   48.7391   22.2545 C   0  0  0  0  0  0
   -3.4831   50.0676   22.2709 C   0  0  0  0  0  0
   -2.1231   50.3347   22.3636 C   0  0  0  0  0  0
   -5.4060   48.4144   22.1510 C   0  0  0  0  0  0
   -5.8423   47.2590   22.1089 O   0  0  0  0  0  0
   -6.1988   49.5171   22.1131 O   0  0  0  0  0  0
   -7.6109   49.3947   22.0387 C   0  0  0  0  0  0
    0.9536   49.1061   20.1470 C   0  0  0  0  0  0
    0.5062   47.9657   20.2773 O   0  0  0  0  0  0
    1.4408   49.5417   18.9681 O   0  0  0  0  0  0
    1.5084   48.6938   17.8312 C   0  0  0  0  0  0
    2.9769   51.3874   19.5575 H   0  0  0  0  0  0
    1.4146   52.1105   19.1286 H   0  0  0  0  0  0
    2.5725   52.9923   20.1092 H   0  0  0  0  0  0
    1.9160   53.1751   22.0608 H   0  0  0  0  0  0
    0.8934   51.4488   29.9144 H   0  0  0  0  0  0
   -0.2371   52.7730   29.9146 H   0  0  0  0  0  0
    1.4932   53.1464   31.6339 H   0  0  0  0  0  0
    2.1750   55.4980   30.8816 H   0  0  0  0  0  0
    0.5238   55.1516   30.4696 H   0  0  0  0  0  0
    1.7980   56.1764   28.5729 H   0  0  0  0  0  0
   -0.0606   54.6008   28.0830 H   0  0  0  0  0  0
    1.2149   54.5185   26.8819 H   0  0  0  0  0  0
    4.0694   55.2843   29.1391 H   0  0  0  0  0  0
    3.6572   54.8963   27.4918 H   0  0  0  0  0  0
    4.5899   52.8773   28.6409 H   0  0  0  0  0  0
    3.3565   51.8629   30.5624 H   0  0  0  0  0  0
    3.9064   53.4626   30.9519 H   0  0  0  0  0  0
    2.9138   52.4966   26.8969 H   0  0  0  0  0  0
    2.7060   51.2906   28.1376 H   0  0  0  0  0  0
   -0.5610   48.5763   25.0545 H   0  0  0  0  0  0
   -0.6548   49.3256   26.5945 H   0  0  0  0  0  0
   -0.9523   47.1502   22.5133 H   0  0  0  0  0  0
   -3.3364   46.6615   22.3302 H   0  0  0  0  0  0
   -4.1711   50.8978   22.2151 H   0  0  0  0  0  0
   -1.7836   51.3604   22.3800 H   0  0  0  0  0  0
   -8.0710   50.3834   22.0479 H   0  0  0  0  0  0
   -7.9097   48.8876   21.1199 H   0  0  0  0  0  0
   -8.0014   48.8301   22.8876 H   0  0  0  0  0  0
    1.9017   49.2472   16.9778 H   0  0  0  0  0  0
    2.1804   47.8532   18.0143 H   0  0  0  0  0  0
    0.5252   48.3079   17.5650 H   0  0  0  0  0  0
  1  2  1  0  0  0
  1 39  1  0  0  0
  1 40  1  0  0  0
  1 41  1  0  0  0
  2 11  1  0  0  0
  2  3  2  0  0  0
  3  4  1  0  0  0
  3 35  1  0  0  0
  4  5  1  0  0  0
  4  6  1  0  0  0
  4 25  1  0  0  0
  6 10  2  0  0  0
  6  7  1  0  0  0
  7  8  2  0  0  0
  7 24  1  0  0  0
  8  9  1  0  0  0
  8 12  1  0  0  0
  9 10  1  0  0  0
 10 11  1  0  0  0
 11 42  1  0  0  0
 12 13  2  0  0  0
 12 14  1  0  0  0
 14 19  1  0  0  0
 14 23  1  0  0  0
 14 15  1  0  0  0
 15 16  1  0  0  0
 15 43  1  0  0  0
 15 44  1  0  0  0
 16 22  1  0  0  0
 16 17  1  0  0  0
 16 45  1  0  0  0
 17 18  1  0  0  0
 17 46  1  0  0  0
 17 47  1  0  0  0
 18 19  1  0  0  0
 18 20  1  0  0  0
 18 48  1  0  0  0
 19 49  1  0  0  0
 19 50  1  0  0  0
 20 21  1  0  0  0
 20 51  1  0  0  0
 20 52  1  0  0  0
 21 22  1  0  0  0
 21 23  1  0  0  0
 21 53  1  0  0  0
 22 54  1  0  0  0
 22 55  1  0  0  0
 23 56  1  0  0  0
 23 57  1  0  0  0
 24 58  1  0  0  0
 24 59  1  0  0  0
 25 30  2  0  0  0
 25 26  1  0  0  0
 26 27  2  0  0  0
 26 60  1  0  0  0
 27 28  1  0  0  0
 27 61  1  0  0  0
 28 29  2  0  0  0
 28 31  1  0  0  0
 29 30  1  0  0  0
 29 62  1  0  0  0
 30 63  1  0  0  0
 31 32  2  0  0  0
 31 33  1  0  0  0
 33 34  1  0  0  0
 34 64  1  0  0  0
 34 65  1  0  0  0
 34 66  1  0  0  0
 35 36  2  0  0  0
 35 37  1  0  0  0
 37 38  1  0  0  0
 38 67  1  0  0  0
 38 68  1  0  0  0
 38 69  1  0  0  0
M  END
> <i_i_glide_confnum>
8

> <i_i_glide_lignum>
4503

> <i_i_glide_posenum>
268

> <i_i_glide_rotatable_bonds>
7

> <i_m_Source_File_Index>
324

> <b_m_subgroup_collapsed>
0

> <r_i_docking_score>
-3.94872

> <r_i_glide_ecoul>
-1.81538

> <r_i_glide_eff_state_penalty>
0

> <r_i_glide_einternal>
2.35798

> <r_i_glide_emodel>
-44.9413

> <r_i_glide_energy>
-36.4939

> <r_i_glide_erotb>
0.379103

> <r_i_glide_esite>
-0.0892071

> <r_i_glide_evdw>
-34.6786

> <r_i_glide_gscore>
-3.94872

> <r_i_glide_hbond>
-0.0992021

> <r_i_glide_ligand_efficiency>
-0.106722

> <r_i_glide_ligand_efficiency_ln>
-0.856386

> <r_i_glide_ligand_efficiency_sa>
-0.355622

> <r_i_glide_lipo>
-2.12296

> <r_i_glide_metal>
0

> <r_i_glide_rewards>
-0.0102194

> <s_i_glide_gridfile>
wee1_glide-grid

> <s_m_Source_File>
wee1_decoys_glide_SP.sdf

> <s_m_Source_Path>
/Users/zhangxujun/Desktop

> <s_m_entry_id>
599

> <s_m_entry_name>
wee1_decoys_glide_SP.324

> <s_m_subgroup_title>
wee1_decoys_glide_SP

> <s_m_subgroupid>
wee1_decoys_glide_SP


$$$$
