ZINC13348958_5941
                    3D
 Schrodinger Suite 2024-2.
 45 47  0  0  1  0            999 V2000
    1.6687   56.3743   30.2723 C   0  0  0  0  0  0
    1.3218   56.0971   29.0087 C   0  0  0  0  0  0
    1.6664   54.8626   28.1949 C   0  0  0  0  0  0
    2.2508   53.7447   28.9348 N   0  0  0  0  0  0
    3.5355   53.2480   28.8460 C   0  0  0  0  0  0
    3.7331   52.3144   29.7427 N   0  0  0  0  0  0
    2.5125   52.0973   30.3745 N   0  0  0  0  0  0
    1.6338   52.9028   29.8347 C   0  0  0  0  0  0
   -0.0954   52.8558   30.1806 S   0  0  0  0  0  0
   -0.5498   51.4167   29.1290 C   0  0  0  0  0  0
   -1.0011   51.7485   27.6994 C   0  0  0  0  0  0
   -0.8898   52.8955   27.2815 O   0  0  0  0  0  0
   -1.4993   50.7485   26.9450 N   0  0  0  0  0  0
   -1.7514   50.8500   25.5559 C   0  0  0  0  0  0
   -0.9961   50.0834   24.6258 C   0  0  0  0  0  0
   -1.2582   50.2433   23.2554 C   0  0  0  0  0  0
   -2.2397   51.1117   22.7988 C   0  0  0  0  0  0
   -3.0118   51.8181   23.7107 C   0  0  0  0  0  0
   -2.7921   51.6818   25.0793 C   0  0  0  0  0  0
   -3.8569   52.5475   26.1364 Cl  0  0  0  0  0  0
   -2.4952   51.2977   21.1013 Cl  0  0  0  0  0  0
    0.0785   49.1058   25.0180 C   0  0  0  0  0  0
    0.2966   48.1547   24.2300 O   0  0  0  0  0  0
    4.5394   53.6906   27.8443 C   0  0  0  0  0  0
    4.1742   53.7036   26.4931 C   0  0  0  0  0  0
    5.0466   54.2125   25.5423 C   0  0  0  0  0  0
    6.2967   54.6661   25.9387 C   0  0  0  0  0  0
    6.7017   54.5773   27.2697 C   0  0  0  0  0  0
    5.8169   54.0949   28.2281 C   0  0  0  0  0  0
    7.1103   55.2182   25.0187 F   0  0  0  0  0  0
    1.3534   57.2919   30.7506 H   0  0  0  0  0  0
    2.2806   55.6971   30.8455 H   0  0  0  0  0  0
    0.7124   56.8202   28.4844 H   0  0  0  0  0  0
    2.3551   55.1989   27.4267 H   0  0  0  0  0  0
    0.7811   54.5071   27.6816 H   0  0  0  0  0  0
    0.2896   50.7287   29.0725 H   0  0  0  0  0  0
   -1.3684   50.8974   29.6302 H   0  0  0  0  0  0
   -1.4815   49.8116   27.3512 H   0  0  0  0  0  0
   -0.6855   49.6885   22.5231 H   0  0  0  0  0  0
   -3.7948   52.4699   23.3547 H   0  0  0  0  0  0
    3.2012   53.3500   26.1839 H   0  0  0  0  0  0
    4.7535   54.2688   24.5041 H   0  0  0  0  0  0
    7.6790   54.9142   27.5778 H   0  0  0  0  0  0
    6.1147   54.0776   29.2658 H   0  0  0  0  0  0
    0.7043   49.3043   26.0822 O   0  5  0  0  0  0
  1  2  2  0  0  0
  1 31  1  0  0  0
  1 32  1  0  0  0
  2  3  1  0  0  0
  2 33  1  0  0  0
  3  4  1  0  0  0
  3 34  1  0  0  0
  3 35  1  0  0  0
  4  8  1  0  0  0
  4  5  1  0  0  0
  5  6  2  0  0  0
  5 24  1  0  0  0
  6  7  1  0  0  0
  7  8  2  0  0  0
  8  9  1  0  0  0
  9 10  1  0  0  0
 10 11  1  0  0  0
 10 36  1  0  0  0
 10 37  1  0  0  0
 11 12  2  0  0  0
 11 13  1  0  0  0
 13 14  1  0  0  0
 13 38  1  0  0  0
 14 19  2  0  0  0
 14 15  1  0  0  0
 15 16  2  0  0  0
 15 22  1  0  0  0
 16 17  1  0  0  0
 16 39  1  0  0  0
 17 18  2  0  0  0
 17 21  1  0  0  0
 18 19  1  0  0  0
 18 40  1  0  0  0
 19 20  1  0  0  0
 22 23  2  0  0  0
 22 45  1  0  0  0
 24 29  2  0  0  0
 24 25  1  0  0  0
 25 26  2  0  0  0
 25 41  1  0  0  0
 26 27  1  0  0  0
 26 42  1  0  0  0
 27 28  2  0  0  0
 27 30  1  0  0  0
 28 29  1  0  0  0
 28 43  1  0  0  0
 29 44  1  0  0  0
M  CHG  1  45  -1
M  END
> <i_i_glide_confnum>
14

> <i_i_glide_lignum>
5942

> <i_i_glide_posenum>
59

> <i_i_glide_rotatable_bonds>
9

> <i_m_Source_File_Index>
3859

> <b_m_subgroup_collapsed>
0

> <r_i_docking_score>
-6.43122

> <r_i_glide_ecoul>
-6.69648

> <r_i_glide_eff_state_penalty>
0

> <r_i_glide_einternal>
2.27996

> <r_i_glide_emodel>
-72.3581

> <r_i_glide_energy>
-50.3796

> <r_i_glide_erotb>
0.703166

> <r_i_glide_esite>
-0.243762

> <r_i_glide_evdw>
-43.6831

> <r_i_glide_gscore>
-6.43122

> <r_i_glide_hbond>
-0.16

> <r_i_glide_ligand_efficiency>
-0.207459

> <r_i_glide_ligand_efficiency_ln>
-1.45044

> <r_i_glide_ligand_efficiency_sa>
-0.651707

> <r_i_glide_lipo>
-2.62024

> <r_i_glide_metal>
0

> <r_i_glide_rewards>
-0.92176

> <s_i_glide_gridfile>
wee1_glide-grid

> <s_m_Source_File>
wee1_decoys_glide_SP.sdf

> <s_m_Source_Path>
/Users/zhangxujun/Desktop

> <s_m_entry_id>
4134

> <s_m_entry_name>
wee1_decoys_glide_SP.3859

> <s_m_subgroup_title>
wee1_decoys_glide_SP

> <s_m_subgroupid>
wee1_decoys_glide_SP


$$$$
