ZINC30822659_3125
                    3D
 Schrodinger Suite 2024-2.
 61 65  0  0  1  0            999 V2000
    0.8595   48.9659   26.3022 C   0  0  0  0  0  0
    0.5231   49.2878   24.8349 C   0  0  0  0  0  0
   -0.2529   48.1061   24.2279 C   0  0  0  0  0  0
   -0.1546   50.6628   24.4457 C   0  0  1  0  0  0
   -1.2343   50.5518   24.5460 H   0  0  0  0  0  0
    0.2124   51.8560   25.3820 C   0  0  0  0  0  0
    0.6388   52.8972   24.8815 O   0  0  0  0  0  0
   -0.0327   51.6906   26.7039 N   0  0  0  0  0  0
    0.2764   52.5353   27.7831 C   0  0  0  0  0  0
   -0.2810   52.1934   29.0305 C   0  0  0  0  0  0
   -0.0852   53.0098   30.1562 C   0  0  0  0  0  0
    0.6579   54.1720   29.9856 C   0  0  0  0  0  0
    1.2417   54.4861   28.7924 C   0  0  0  0  0  0
    1.1048   53.6744   27.6812 C   0  0  0  0  0  0
    1.9280   55.6535   28.9135 O   0  0  0  0  0  0
    1.4928   56.1969   30.1267 C   0  0  0  0  0  0
    0.9435   55.1502   30.8814 O   0  0  0  0  0  0
    0.0474   50.9928   23.0119 N   0  0  0  0  0  0
    1.2255   51.0808   22.3539 C   0  0  0  0  0  0
    2.3044   50.8264   22.8816 O   0  0  0  0  0  0
    1.1845   51.5279   20.9044 C   0  0  0  0  0  0
    0.0802   51.1772   20.1090 C   0  0  0  0  0  0
   -0.0264   51.4589   18.7895 N   0  0  0  0  0  0
    1.0102   52.0927   18.1953 C   0  0  0  0  0  0
    2.1540   52.4832   18.8874 C   0  0  0  0  0  0
    2.2514   52.2306   20.2654 C   0  0  0  0  0  0
    3.4992   52.7357   20.9667 C   0  0  0  0  0  0
    4.6124   52.4654   20.5143 O   0  0  0  0  0  0
    3.2794   53.4770   22.0783 N   0  0  0  0  0  0
    4.2285   53.9342   23.0066 C   0  0  0  0  0  0
    5.5681   54.2205   22.6695 C   0  0  0  0  0  0
    6.4844   54.6293   23.6457 C   0  0  0  0  0  0
    6.0300   54.7445   24.9541 C   0  0  0  0  0  0
    4.7287   54.4927   25.2843 C   0  0  0  0  0  0
    3.7959   54.0979   24.3323 C   0  0  0  0  0  0
    4.5545   54.6994   26.6155 O   0  0  0  0  0  0
    5.8525   54.7985   27.1363 C   0  0  0  0  0  0
    6.7064   55.1241   26.0707 O   0  0  0  0  0  0
   -0.0390   48.7611   26.8797 H   0  0  0  0  0  0
    1.5041   48.0991   26.3239 H   0  0  0  0  0  0
    1.4507   49.7169   26.8207 H   0  0  0  0  0  0
    1.5050   49.2454   24.3802 H   0  0  0  0  0  0
   -1.2724   48.0693   24.6121 H   0  0  0  0  0  0
   -0.3040   48.1758   23.1424 H   0  0  0  0  0  0
    0.2264   47.1606   24.4814 H   0  0  0  0  0  0
   -0.4497   50.8068   26.9668 H   0  0  0  0  0  0
   -0.8840   51.3001   29.1352 H   0  0  0  0  0  0
   -0.4986   52.7453   31.1156 H   0  0  0  0  0  0
    1.6012   53.9511   26.7667 H   0  0  0  0  0  0
    2.3042   56.7048   30.6492 H   0  0  0  0  0  0
    0.7112   56.9282   29.9302 H   0  0  0  0  0  0
   -0.7908   51.2660   22.5260 H   0  0  0  0  0  0
   -0.7513   50.6181   20.5066 H   0  0  0  0  0  0
    0.9165   52.2864   17.1362 H   0  0  0  0  0  0
    2.9507   52.9865   18.3569 H   0  0  0  0  0  0
    2.3163   53.5770   22.3594 H   0  0  0  0  0  0
    5.9051   54.1412   21.6470 H   0  0  0  0  0  0
    7.5039   54.8325   23.3670 H   0  0  0  0  0  0
    2.7748   53.9067   24.6120 H   0  0  0  0  0  0
    6.1482   53.8326   27.5527 H   0  0  0  0  0  0
    5.9106   55.5356   27.9366 H   0  0  0  0  0  0
  1  2  1  0  0  0
  1 39  1  0  0  0
  1 40  1  0  0  0
  1 41  1  0  0  0
  2  3  1  0  0  0
  2  4  1  0  0  0
  2 42  1  0  0  0
  3 43  1  0  0  0
  3 44  1  0  0  0
  3 45  1  0  0  0
  4  5  1  0  0  0
  4  6  1  0  0  0
  4 18  1  0  0  0
  6  7  2  0  0  0
  6  8  1  0  0  0
  8  9  1  0  0  0
  8 46  1  0  0  0
  9 14  2  0  0  0
  9 10  1  0  0  0
 10 11  2  0  0  0
 10 47  1  0  0  0
 11 12  1  0  0  0
 11 48  1  0  0  0
 12 17  1  0  0  0
 12 13  2  0  0  0
 13 14  1  0  0  0
 13 15  1  0  0  0
 14 49  1  0  0  0
 15 16  1  0  0  0
 16 17  1  0  0  0
 16 50  1  0  0  0
 16 51  1  0  0  0
 18 19  1  0  0  0
 18 52  1  0  0  0
 19 20  2  0  0  0
 19 21  1  0  0  0
 21 26  2  0  0  0
 21 22  1  0  0  0
 22 23  2  0  0  0
 22 53  1  0  0  0
 23 24  1  0  0  0
 24 25  2  0  0  0
 24 54  1  0  0  0
 25 26  1  0  0  0
 25 55  1  0  0  0
 26 27  1  0  0  0
 27 28  2  0  0  0
 27 29  1  0  0  0
 29 30  1  0  0  0
 29 56  1  0  0  0
 30 35  2  0  0  0
 30 31  1  0  0  0
 31 32  2  0  0  0
 31 57  1  0  0  0
 32 33  1  0  0  0
 32 58  1  0  0  0
 33 38  1  0  0  0
 33 34  2  0  0  0
 34 35  1  0  0  0
 34 36  1  0  0  0
 35 59  1  0  0  0
 36 37  1  0  0  0
 37 38  1  0  0  0
 37 60  1  0  0  0
 37 61  1  0  0  0
M  END
> <i_i_glide_confnum>
13

> <i_i_glide_lignum>
3126

> <i_i_glide_posenum>
23

> <i_i_glide_rotatable_bonds>
10

> <i_m_Source_File_Index>
612

> <b_m_subgroup_collapsed>
0

> <r_i_docking_score>
-7.17965

> <r_i_glide_ecoul>
-5.92951

> <r_i_glide_eff_state_penalty>
0

> <r_i_glide_einternal>
1.99006

> <r_i_glide_emodel>
-80.4625

> <r_i_glide_energy>
-57.252

> <r_i_glide_erotb>
0.642706

> <r_i_glide_esite>
-0.0133049

> <r_i_glide_evdw>
-51.3225

> <r_i_glide_gscore>
-7.17965

> <r_i_glide_hbond>
-0.327663

> <r_i_glide_ligand_efficiency>
-0.194045

> <r_i_glide_ligand_efficiency_ln>
-1.5571

> <r_i_glide_ligand_efficiency_sa>
-0.6466

> <r_i_glide_lipo>
-2.3243

> <r_i_glide_metal>
0

> <r_i_glide_rewards>
-1.70154

> <s_i_glide_gridfile>
wee1_glide-grid

> <s_m_Source_File>
wee1_decoys_glide_SP.sdf

> <s_m_Source_Path>
/Users/zhangxujun/Desktop

> <s_m_entry_id>
887

> <s_m_entry_name>
wee1_decoys_glide_SP.612

> <s_m_subgroup_title>
wee1_decoys_glide_SP

> <s_m_subgroupid>
wee1_decoys_glide_SP


$$$$
