ZINC39548331_2321
                    3D
 Schrodinger Suite 2024-2.
 57 61  0  0  1  0            999 V2000
    2.4736   48.8419   19.1483 C   0  0  0  0  0  0
    1.4651   49.8744   19.7161 C   0  0  2  0  0  0
    1.8786   50.2212   21.1413 C   0  0  0  0  0  0
    2.9661   50.6855   21.4911 O   0  0  0  0  0  0
    0.8448   49.8405   21.9275 N   0  0  0  0  0  0
   -0.1958   49.2963   21.2551 C   0  0  0  0  0  0
   -1.3343   49.0817   21.6649 O   0  0  0  0  0  0
    0.2175   49.2043   19.9871 N   0  0  0  0  0  0
    0.8714   49.9473   23.4001 C   0  0  0  0  0  0
    0.6643   51.3999   23.8735 C   0  0  0  0  0  0
    0.2175   52.2768   23.1323 O   0  0  0  0  0  0
    1.0342   51.6230   25.1427 N   0  0  0  0  0  0
    1.1382   52.9193   25.8224 C   0  0  1  0  0  0
    0.4816   53.6025   25.2813 H   0  0  0  0  0  0
    0.6743   52.8734   27.3036 C   0  0  0  0  0  0
   -0.0157   51.7643   27.8233 C   0  0  0  0  0  0
   -0.4026   51.7286   29.1605 C   0  0  0  0  0  0
   -0.0956   52.7980   29.9969 C   0  0  0  0  0  0
    0.5611   53.9181   29.5011 C   0  0  0  0  0  0
    0.9282   53.9583   28.1592 C   0  0  0  0  0  0
    2.5456   53.4874   25.6196 C   0  0  0  0  0  0
    3.5597   53.9194   26.4745 C   0  0  0  0  0  0
    4.6391   54.3495   25.6518 C   0  0  0  0  0  0
    5.9109   54.8981   25.8609 C   0  0  0  0  0  0
    6.7060   55.1581   24.7445 C   0  0  0  0  0  0
    6.2896   54.8502   23.4493 C   0  0  0  0  0  0
    5.0240   54.3111   23.2108 C   0  0  0  0  0  0
    4.2122   54.0963   24.3298 C   0  0  0  0  0  0
    2.9388   53.6135   24.3149 O   0  0  0  0  0  0
    1.3151   51.1491   18.8474 C   0  0  0  0  0  0
    0.0645   51.7555   18.6395 C   0  0  0  0  0  0
   -0.0474   52.9025   17.8569 C   0  0  0  0  0  0
    1.0894   53.4610   17.2826 C   0  0  0  0  0  0
    2.3369   52.8800   17.4830 C   0  0  0  0  0  0
    2.4493   51.7314   18.2612 C   0  0  0  0  0  0
    0.9769   54.5739   16.5253 F   0  0  0  0  0  0
    3.4962   49.2150   19.1807 H   0  0  0  0  0  0
    2.4682   47.8994   19.6992 H   0  0  0  0  0  0
    2.2592   48.6084   18.1037 H   0  0  0  0  0  0
   -0.1600   48.5301   19.3394 H   0  0  0  0  0  0
    1.8329   49.5866   23.7655 H   0  0  0  0  0  0
    0.1048   49.3156   23.8539 H   0  0  0  0  0  0
    1.5044   50.8630   25.6093 H   0  0  0  0  0  0
   -0.2703   50.9159   27.2025 H   0  0  0  0  0  0
   -0.9568   50.8950   29.5541 H   0  0  0  0  0  0
   -0.3947   52.7599   31.0379 H   0  0  0  0  0  0
    0.7672   54.7565   30.1515 H   0  0  0  0  0  0
    1.4134   54.8475   27.7852 H   0  0  0  0  0  0
    3.5293   53.9133   27.5530 H   0  0  0  0  0  0
    6.2647   55.1108   26.8590 H   0  0  0  0  0  0
    7.6861   55.5882   24.8814 H   0  0  0  0  0  0
    6.9557   55.0458   22.6219 H   0  0  0  0  0  0
    4.6773   54.0848   22.2137 H   0  0  0  0  0  0
   -0.8326   51.3484   19.0832 H   0  0  0  0  0  0
   -1.0105   53.3629   17.6986 H   0  0  0  0  0  0
    3.2161   53.3177   17.0358 H   0  0  0  0  0  0
    3.4317   51.3024   18.4037 H   0  0  0  0  0  0
  1  2  1  0  0  0
  1 37  1  0  0  0
  1 38  1  0  0  0
  1 39  1  0  0  0
  2  8  1  0  0  0
  2  3  1  0  0  0
  2 30  1  0  0  0
  3  4  2  0  0  0
  3  5  1  0  0  0
  5  6  1  0  0  0
  5  9  1  0  0  0
  6  7  2  0  0  0
  6  8  1  0  0  0
  8 40  1  0  0  0
  9 10  1  0  0  0
  9 41  1  0  0  0
  9 42  1  0  0  0
 10 11  2  0  0  0
 10 12  1  0  0  0
 12 13  1  0  0  0
 12 43  1  0  0  0
 13 14  1  0  0  0
 13 15  1  0  0  0
 13 21  1  0  0  0
 15 20  2  0  0  0
 15 16  1  0  0  0
 16 17  2  0  0  0
 16 44  1  0  0  0
 17 18  1  0  0  0
 17 45  1  0  0  0
 18 19  2  0  0  0
 18 46  1  0  0  0
 19 20  1  0  0  0
 19 47  1  0  0  0
 20 48  1  0  0  0
 21 29  1  0  0  0
 21 22  2  0  0  0
 22 23  1  0  0  0
 22 49  1  0  0  0
 23 28  2  0  0  0
 23 24  1  0  0  0
 24 25  2  0  0  0
 24 50  1  0  0  0
 25 26  1  0  0  0
 25 51  1  0  0  0
 26 27  2  0  0  0
 26 52  1  0  0  0
 27 28  1  0  0  0
 27 53  1  0  0  0
 28 29  1  0  0  0
 30 35  2  0  0  0
 30 31  1  0  0  0
 31 32  2  0  0  0
 31 54  1  0  0  0
 32 33  1  0  0  0
 32 55  1  0  0  0
 33 34  2  0  0  0
 33 36  1  0  0  0
 34 35  1  0  0  0
 34 56  1  0  0  0
 35 57  1  0  0  0
M  END
> <i_i_glide_confnum>
184

> <i_i_glide_lignum>
2322

> <i_i_glide_posenum>
131

> <i_i_glide_rotatable_bonds>
7

> <i_m_Source_File_Index>
4832

> <b_m_subgroup_collapsed>
0

> <r_i_docking_score>
-4.90516

> <r_i_glide_ecoul>
-2.32699

> <r_i_glide_eff_state_penalty>
0

> <r_i_glide_einternal>
5.42814

> <r_i_glide_emodel>
-55.2484

> <r_i_glide_energy>
-42.8251

> <r_i_glide_erotb>
0.636503

> <r_i_glide_esite>
-0.00759197

> <r_i_glide_evdw>
-40.4981

> <r_i_glide_gscore>
-4.90516

> <r_i_glide_hbond>
0

> <r_i_glide_ligand_efficiency>
-0.140147

> <r_i_glide_ligand_efficiency_ln>
-1.07679

> <r_i_glide_ligand_efficiency_sa>
-0.458431

> <r_i_glide_lipo>
-2.68546

> <r_i_glide_metal>
0

> <r_i_glide_rewards>
-0.474651

> <s_i_glide_gridfile>
wee1_glide-grid

> <s_m_Source_File>
wee1_decoys_glide_SP.sdf

> <s_m_Source_Path>
/Users/zhangxujun/Desktop

> <s_m_entry_id>
5107

> <s_m_entry_name>
wee1_decoys_glide_SP.4832

> <s_m_subgroup_title>
wee1_decoys_glide_SP

> <s_m_subgroupid>
wee1_decoys_glide_SP


$$$$
