ZINC13124143_2690
                    3D
 Schrodinger Suite 2024-2.
 50 53  0  0  1  0            999 V2000
    4.4699   54.2713   26.2051 C   0  0  0  0  0  0
    5.1655   53.5260   27.3578 C   0  0  0  0  0  0
    4.4104   53.5207   28.7068 C   0  0  1  0  0  0
    4.9115   52.7722   29.3279 H   0  0  0  0  0  0
    4.5012   54.8657   29.4413 C   0  0  0  0  0  0
    3.0163   53.1126   28.5585 N   0  0  0  0  0  0
    2.2102   52.6012   29.5040 C   0  0  0  0  0  0
    2.5584   52.3861   30.6658 O   0  0  0  0  0  0
    0.8790   52.3064   29.0343 C   0  0  0  0  0  0
   -0.2617   52.0625   29.8081 C   0  0  0  0  0  0
   -1.2957   51.6967   29.0874 N   0  0  0  0  0  0
   -0.8930   51.7199   27.8055 N   0  0  0  0  0  0
    0.4520   52.0319   27.7363 C   0  0  0  0  0  0
    1.1046   52.0774   26.5227 N   0  0  0  0  0  0
    0.5016   51.3922   25.3796 C   0  0  1  0  0  0
    0.7246   50.3297   25.4937 H   0  0  0  0  0  0
   -1.0275   51.5821   25.3678 C   0  0  0  0  0  0
   -1.7162   51.1867   26.7028 C   0  0  2  0  0  0
   -1.6776   50.0993   26.8021 H   0  0  0  0  0  0
   -3.2162   51.5826   26.7186 C   0  0  0  0  0  0
   -3.8715   50.9369   25.7538 F   0  0  0  0  0  0
   -3.8301   51.2966   27.8663 F   0  0  0  0  0  0
   -3.3836   52.8851   26.4819 F   0  0  0  0  0  0
    1.1574   51.8190   24.0682 C   0  0  0  0  0  0
    1.3592   53.1892   23.7950 C   0  0  0  0  0  0
    2.0545   53.6036   22.6542 C   0  0  0  0  0  0
    2.5130   52.6179   21.7904 C   0  0  0  0  0  0
    2.3048   51.2893   22.0325 C   0  0  0  0  0  0
    1.6274   50.8476   23.1648 C   0  0  0  0  0  0
    2.9129   50.5593   21.0598 O   0  0  0  0  0  0
    3.2966   51.4891   20.0782 C   0  0  0  0  0  0
    3.2451   52.7640   20.6572 O   0  0  0  0  0  0
    5.1057   54.2953   25.3195 H   0  0  0  0  0  0
    4.2435   55.2980   26.4793 H   0  0  0  0  0  0
    3.5350   53.7912   25.9184 H   0  0  0  0  0  0
    5.3235   52.4968   27.0412 H   0  0  0  0  0  0
    6.1668   53.9346   27.5028 H   0  0  0  0  0  0
    5.5162   55.2582   29.4417 H   0  0  0  0  0  0
    3.8538   55.6186   28.9937 H   0  0  0  0  0  0
    4.2177   54.7337   30.4812 H   0  0  0  0  0  0
    2.6018   53.2947   27.6557 H   0  0  0  0  0  0
   -0.3274   52.1072   30.8885 H   0  0  0  0  0  0
    2.0973   51.8951   26.5363 H   0  0  0  0  0  0
   -1.4705   51.0139   24.5484 H   0  0  0  0  0  0
   -1.2585   52.6211   25.1281 H   0  0  0  0  0  0
    1.0027   53.9372   24.4884 H   0  0  0  0  0  0
    2.2311   54.6504   22.4592 H   0  0  0  0  0  0
    1.5077   49.7920   23.3634 H   0  0  0  0  0  0
    2.5989   51.4384   19.2403 H   0  0  0  0  0  0
    4.3018   51.2961   19.7058 H   0  0  0  0  0  0
  1  2  1  0  0  0
  1 33  1  0  0  0
  1 34  1  0  0  0
  1 35  1  0  0  0
  2  3  1  0  0  0
  2 36  1  0  0  0
  2 37  1  0  0  0
  3  4  1  0  0  0
  3  5  1  0  0  0
  3  6  1  0  0  0
  5 38  1  0  0  0
  5 39  1  0  0  0
  5 40  1  0  0  0
  6  7  1  0  0  0
  6 41  1  0  0  0
  7  8  2  0  0  0
  7  9  1  0  0  0
  9 13  2  0  0  0
  9 10  1  0  0  0
 10 11  2  0  0  0
 10 42  1  0  0  0
 11 12  1  0  0  0
 12 18  1  0  0  0
 12 13  1  0  0  0
 13 14  1  0  0  0
 14 15  1  0  0  0
 14 43  1  0  0  0
 15 16  1  0  0  0
 15 17  1  0  0  0
 15 24  1  0  0  0
 17 18  1  0  0  0
 17 44  1  0  0  0
 17 45  1  0  0  0
 18 19  1  0  0  0
 18 20  1  0  0  0
 20 21  1  0  0  0
 20 22  1  0  0  0
 20 23  1  0  0  0
 24 29  2  0  0  0
 24 25  1  0  0  0
 25 26  2  0  0  0
 25 46  1  0  0  0
 26 27  1  0  0  0
 26 47  1  0  0  0
 27 32  1  0  0  0
 27 28  2  0  0  0
 28 29  1  0  0  0
 28 30  1  0  0  0
 29 48  1  0  0  0
 30 31  1  0  0  0
 31 32  1  0  0  0
 31 49  1  0  0  0
 31 50  1  0  0  0
M  END
> <i_i_glide_confnum>
24

> <i_i_glide_lignum>
2691

> <i_i_glide_posenum>
274

> <i_i_glide_rotatable_bonds>
6

> <i_m_Source_File_Index>
2906

> <b_m_subgroup_collapsed>
0

> <r_i_docking_score>
-5.3265

> <r_i_glide_ecoul>
-5.61023

> <r_i_glide_eff_state_penalty>
0

> <r_i_glide_einternal>
4.79787

> <r_i_glide_emodel>
-54.6228

> <r_i_glide_energy>
-42.8176

> <r_i_glide_erotb>
0.467872

> <r_i_glide_esite>
-0.173827

> <r_i_glide_evdw>
-37.2074

> <r_i_glide_gscore>
-5.3265

> <r_i_glide_hbond>
-0.168441

> <r_i_glide_ligand_efficiency>
-0.183672

> <r_i_glide_ligand_efficiency_ln>
-1.21963

> <r_i_glide_ligand_efficiency_sa>
-0.5643

> <r_i_glide_lipo>
-1.87102

> <r_i_glide_metal>
0

> <r_i_glide_rewards>
-0.879179

> <s_i_glide_gridfile>
wee1_glide-grid

> <s_m_Source_File>
wee1_decoys_glide_SP.sdf

> <s_m_Source_Path>
/Users/zhangxujun/Desktop

> <s_m_entry_id>
3181

> <s_m_entry_name>
wee1_decoys_glide_SP.2906

> <s_m_subgroup_title>
wee1_decoys_glide_SP

> <s_m_subgroupid>
wee1_decoys_glide_SP


$$$$
