ZINC02725359_5827
                    3D
 Schrodinger Suite 2024-2.
 40 42  0  0  1  0            999 V2000
    1.9041   48.2116   18.1252 C   0  0  0  0  0  0
    0.9099   48.2054   19.2818 C   0  0  0  0  0  0
   -0.2529   47.4432   19.1597 C   0  0  0  0  0  0
   -1.1953   47.4206   20.1824 C   0  0  0  0  0  0
   -0.9701   48.1410   21.3509 C   0  0  0  0  0  0
    0.1934   48.9003   21.5108 C   0  0  0  0  0  0
    1.1296   48.9625   20.4497 C   0  0  0  0  0  0
    2.3050   49.7362   20.5162 N   0  0  0  0  0  0
    2.3615   51.0598   20.7537 C   0  0  0  0  0  0
    1.3737   51.7623   20.9746 O   0  0  0  0  0  0
    3.6266   51.5252   20.7141 N   0  0  0  0  0  0
    4.0311   52.9150   20.7910 C   0  0  1  0  0  0
    3.2035   53.6416   21.6832 O   0  0  0  0  0  0
    3.9467   53.9186   22.7866 C   0  0  0  0  0  0
    3.5520   54.4947   23.9895 C   0  0  0  0  0  0
    4.5442   54.7267   24.9534 C   0  0  0  0  0  0
    5.8879   54.4124   24.6908 C   0  0  0  0  0  0
    6.2529   53.8173   23.4761 C   0  0  0  0  0  0
    5.2416   53.5638   22.5536 C   0  0  0  0  0  0
    5.3275   52.9657   21.3369 O   0  0  0  0  0  0
    7.0958   54.7566   25.8747 Cl  0  0  0  0  0  0
    4.0870   53.5879   19.3972 C   0  0  0  0  0  0
    5.0868   53.0769   18.6804 F   0  0  0  0  0  0
    2.9540   53.3918   18.7192 F   0  0  0  0  0  0
    4.3050   54.8965   19.5193 F   0  0  0  0  0  0
    0.4330   49.5534   22.8690 C   0  0  0  0  0  0
    2.8973   47.9214   18.4745 H   0  0  0  0  0  0
    1.6208   47.5313   17.3192 H   0  0  0  0  0  0
    1.9890   49.2164   17.7083 H   0  0  0  0  0  0
   -0.4361   46.8691   18.2634 H   0  0  0  0  0  0
   -2.0966   46.8365   20.0745 H   0  0  0  0  0  0
   -1.6957   48.0911   22.1496 H   0  0  0  0  0  0
    3.1373   49.2833   20.1737 H   0  0  0  0  0  0
    4.3028   50.9105   20.2860 H   0  0  0  0  0  0
    2.5238   54.7678   24.1761 H   0  0  0  0  0  0
    4.2751   55.1756   25.8988 H   0  0  0  0  0  0
    7.2836   53.5563   23.2823 H   0  0  0  0  0  0
    1.4960   49.5816   23.1133 H   0  0  0  0  0  0
    0.0377   50.5698   22.8861 H   0  0  0  0  0  0
   -0.0438   48.9873   23.6701 H   0  0  0  0  0  0
  1  2  1  0  0  0
  1 27  1  0  0  0
  1 28  1  0  0  0
  1 29  1  0  0  0
  2  7  2  0  0  0
  2  3  1  0  0  0
  3  4  2  0  0  0
  3 30  1  0  0  0
  4  5  1  0  0  0
  4 31  1  0  0  0
  5  6  2  0  0  0
  5 32  1  0  0  0
  6  7  1  0  0  0
  6 26  1  0  0  0
  7  8  1  0  0  0
  8  9  1  0  0  0
  8 33  1  0  0  0
  9 10  2  0  0  0
  9 11  1  0  0  0
 11 12  1  0  0  0
 11 34  1  0  0  0
 12 20  1  0  0  0
 12 13  1  0  0  0
 12 22  1  0  0  0
 13 14  1  0  0  0
 14 19  2  0  0  0
 14 15  1  0  0  0
 15 16  2  0  0  0
 15 35  1  0  0  0
 16 17  1  0  0  0
 16 36  1  0  0  0
 17 18  2  0  0  0
 17 21  1  0  0  0
 18 19  1  0  0  0
 18 37  1  0  0  0
 19 20  1  0  0  0
 22 23  1  0  0  0
 22 24  1  0  0  0
 22 25  1  0  0  0
 26 38  1  0  0  0
 26 39  1  0  0  0
 26 40  1  0  0  0
M  END
> <i_i_glide_confnum>
8

> <i_i_glide_lignum>
5828

> <i_i_glide_posenum>
389

> <i_i_glide_rotatable_bonds>
5

> <i_m_Source_File_Index>
758

> <b_m_subgroup_collapsed>
0

> <r_i_docking_score>
-3.73086

> <r_i_glide_ecoul>
-1.13262

> <r_i_glide_eff_state_penalty>
0

> <r_i_glide_einternal>
7.28928

> <r_i_glide_emodel>
-32.5197

> <r_i_glide_energy>
-28.4272

> <r_i_glide_erotb>
0.520577

> <r_i_glide_esite>
-0.149006

> <r_i_glide_evdw>
-27.2945

> <r_i_glide_gscore>
-3.73086

> <r_i_glide_hbond>
-0.132333

> <r_i_glide_ligand_efficiency>
-0.143495

> <r_i_glide_ligand_efficiency_ln>
-0.876181

> <r_i_glide_ligand_efficiency_sa>
-0.425103

> <r_i_glide_lipo>
-1.54139

> <r_i_glide_metal>
0

> <r_i_glide_rewards>
-0.894093

> <s_i_glide_gridfile>
wee1_glide-grid

> <s_m_Source_File>
wee1_decoys_glide_SP.sdf

> <s_m_Source_Path>
/Users/zhangxujun/Desktop

> <s_m_entry_id>
1033

> <s_m_entry_name>
wee1_decoys_glide_SP.758

> <s_m_subgroup_title>
wee1_decoys_glide_SP

> <s_m_subgroupid>
wee1_decoys_glide_SP


$$$$
