ZINC20528278_429
                    3D
 Schrodinger Suite 2024-2.
 41 43  0  0  1  0            999 V2000
    1.9021   48.2403   18.9396 C   0  0  0  0  0  0
    1.5061   47.8254   17.6707 C   0  0  0  0  0  0
    0.1544   47.6558   17.3872 C   0  0  0  0  0  0
   -0.8067   47.9072   18.3627 C   0  0  0  0  0  0
   -0.4111   48.3278   19.6300 C   0  0  0  0  0  0
    0.9490   48.4947   19.9341 C   0  0  0  0  0  0
    1.3989   48.9178   21.2652 C   0  0  0  0  0  0
    0.6339   49.4110   22.1534 N   0  0  0  0  0  0
    1.2339   49.7112   23.3760 N   0  0  0  0  0  0
    0.7322   50.6157   24.2868 C   0  0  0  0  0  0
    0.7080   51.9131   24.1192 N   0  0  0  0  0  0
    0.2596   52.4591   25.3161 N   0  0  0  0  0  0
    0.0639   51.4758   26.1639 C   0  0  0  0  0  0
    0.2965   50.2630   25.5476 N   0  0  0  0  0  0
    0.1622   48.9892   26.0816 N   0  0  0  0  0  0
   -0.3689   51.6963   27.8641 S   0  0  0  0  0  0
    0.7437   53.0801   28.3125 C   0  0  0  0  0  0
    2.1782   52.5699   28.5396 C   0  0  0  0  0  0
    2.3653   51.6966   29.3886 O   0  0  0  0  0  0
    3.3053   53.2968   27.8698 C   0  0  0  0  0  0
    3.1441   53.8974   26.6133 C   0  0  0  0  0  0
    4.2248   54.4927   25.9723 C   0  0  0  0  0  0
    5.4747   54.4942   26.5809 C   0  0  0  0  0  0
    5.6545   53.9081   27.8315 C   0  0  0  0  0  0
    4.5742   53.3014   28.4697 C   0  0  0  0  0  0
    6.9435   55.2973   25.6803 Br  0  0  0  0  0  0
   -0.3335   47.1344   15.8167 Cl  0  0  0  0  0  0
    2.9593   48.3762   19.1288 H   0  0  0  0  0  0
    2.2544   47.6525   16.9094 H   0  0  0  0  0  0
   -1.8552   47.7772   18.1394 H   0  0  0  0  0  0
   -1.1697   48.5176   20.3766 H   0  0  0  0  0  0
    2.4641   48.7753   21.4432 H   0  0  0  0  0  0
    2.1970   49.4095   23.4391 H   0  0  0  0  0  0
    0.9585   48.7373   26.6473 H   0  0  0  0  0  0
   -0.6661   48.9205   26.6706 H   0  0  0  0  0  0
    0.3825   53.5082   29.2466 H   0  0  0  0  0  0
    0.7012   53.8723   27.5712 H   0  0  0  0  0  0
    2.1994   53.8964   26.0958 H   0  0  0  0  0  0
    4.0951   54.9391   24.9975 H   0  0  0  0  0  0
    6.6288   53.9128   28.2995 H   0  0  0  0  0  0
    4.7347   52.8280   29.4284 H   0  0  0  0  0  0
  1  6  2  0  0  0
  1  2  1  0  0  0
  1 28  1  0  0  0
  2  3  2  0  0  0
  2 29  1  0  0  0
  3  4  1  0  0  0
  3 27  1  0  0  0
  4  5  2  0  0  0
  4 30  1  0  0  0
  5  6  1  0  0  0
  5 31  1  0  0  0
  6  7  1  0  0  0
  7  8  2  0  0  0
  7 32  1  0  0  0
  8  9  1  0  0  0
  9 10  1  0  0  0
  9 33  1  0  0  0
 10 14  1  0  0  0
 10 11  2  0  0  0
 11 12  1  0  0  0
 12 13  2  0  0  0
 13 14  1  0  0  0
 13 16  1  0  0  0
 14 15  1  0  0  0
 15 34  1  0  0  0
 15 35  1  0  0  0
 16 17  1  0  0  0
 17 18  1  0  0  0
 17 36  1  0  0  0
 17 37  1  0  0  0
 18 19  2  0  0  0
 18 20  1  0  0  0
 20 25  2  0  0  0
 20 21  1  0  0  0
 21 22  2  0  0  0
 21 38  1  0  0  0
 22 23  1  0  0  0
 22 39  1  0  0  0
 23 24  2  0  0  0
 23 26  1  0  0  0
 24 25  1  0  0  0
 24 40  1  0  0  0
 25 41  1  0  0  0
M  END
> <i_i_glide_confnum>
8

> <i_i_glide_lignum>
430

> <i_i_glide_posenum>
347

> <i_i_glide_rotatable_bonds>
7

> <i_m_Source_File_Index>
89

> <b_m_subgroup_collapsed>
0

> <r_i_docking_score>
-5.60635

> <r_i_glide_ecoul>
-7.87736

> <r_i_glide_eff_state_penalty>
0

> <r_i_glide_einternal>
7.56717

> <r_i_glide_emodel>
-58.499

> <r_i_glide_energy>
-46.0055

> <r_i_glide_erotb>
0.464889

> <r_i_glide_esite>
-0.141316

> <r_i_glide_evdw>
-38.1282

> <r_i_glide_gscore>
-5.60635

> <r_i_glide_hbond>
-0.370324

> <r_i_glide_ligand_efficiency>
-0.207642

> <r_i_glide_ligand_efficiency_ln>
-1.30507

> <r_i_glide_ligand_efficiency_sa>
-0.622927

> <r_i_glide_lipo>
-1.749

> <r_i_glide_metal>
0

> <r_i_glide_rewards>
-0.722584

> <s_i_glide_gridfile>
wee1_glide-grid

> <s_m_Source_File>
wee1_decoys_glide_SP.sdf

> <s_m_Source_Path>
/Users/zhangxujun/Desktop

> <s_m_entry_id>
364

> <s_m_entry_name>
wee1_decoys_glide_SP.89

> <s_m_subgroup_title>
wee1_decoys_glide_SP

> <s_m_subgroupid>
wee1_decoys_glide_SP


$$$$
