ZINC66756948_1559
                    3D
 Schrodinger Suite 2024-2.
 47 50  0  0  1  0            999 V2000
    2.7575   54.4030   24.6955 C   0  0  0  0  0  0
    4.1545   54.2497   25.2761 C   0  0  0  0  0  0
    4.5901   54.0409   26.5992 C   0  0  0  0  0  0
    5.9106   54.0955   26.6350 N   0  0  0  0  0  0
    6.3853   54.2428   25.3522 N   0  0  0  0  0  0
    5.3269   54.3235   24.5295 N   0  0  0  0  0  0
    5.5353   54.4958   23.1268 C   0  0  0  0  0  0
    4.5941   54.0485   22.1908 C   0  0  0  0  0  0
    4.7632   54.2596   20.8245 C   0  0  0  0  0  0
    5.9298   54.8903   20.3413 C   0  0  0  0  0  0
    6.9302   55.2968   21.2731 C   0  0  0  0  0  0
    6.7048   55.1163   22.6592 C   0  0  0  0  0  0
    8.1400   55.8121   20.7538 C   0  0  0  0  0  0
    8.3012   55.9455   19.3767 C   0  0  0  0  0  0
    7.2542   55.5645   18.5427 C   0  0  0  0  0  0
    6.0882   55.0425   18.9963 N   0  0  0  0  0  0
    3.7725   53.8951   27.7839 C   0  0  0  0  0  0
    4.1465   54.3542   28.8649 O   0  0  0  0  0  0
    2.6310   53.1968   27.5723 N   0  0  0  0  0  0
    1.5704   52.8521   28.4472 C   0  0  0  0  0  0
    1.5009   53.3597   29.7590 C   0  0  0  0  0  0
    0.4832   52.9783   30.6263 C   0  0  0  0  0  0
   -0.4953   52.0966   30.1927 C   0  0  0  0  0  0
   -0.4751   51.6163   28.8898 C   0  0  0  0  0  0
    0.5495   51.9665   27.9972 C   0  0  0  0  0  0
    0.5260   51.3717   26.5988 C   0  0  0  0  0  0
    0.9442   52.0161   25.6358 O   0  0  0  0  0  0
    0.0855   50.1033   26.4817 N   0  0  0  0  0  0
    0.1019   49.3424   25.2405 C   0  0  0  0  0  0
    1.9906   54.4954   25.4579 H   0  0  0  0  0  0
    2.6691   55.2942   24.0790 H   0  0  0  0  0  0
    2.4452   53.5445   24.1072 H   0  0  0  0  0  0
    3.7140   53.5101   22.4899 H   0  0  0  0  0  0
    4.0164   53.9131   20.1222 H   0  0  0  0  0  0
    7.4732   55.4459   23.3453 H   0  0  0  0  0  0
    8.9352   56.0943   21.4294 H   0  0  0  0  0  0
    9.2231   56.3345   18.9666 H   0  0  0  0  0  0
    7.3469   55.6620   17.4706 H   0  0  0  0  0  0
    2.4940   52.8597   26.6279 H   0  0  0  0  0  0
    2.2272   54.0542   30.1409 H   0  0  0  0  0  0
    0.4560   53.3542   31.6391 H   0  0  0  0  0  0
   -1.2700   51.7750   30.8758 H   0  0  0  0  0  0
   -1.2630   50.9343   28.5983 H   0  0  0  0  0  0
   -0.3127   49.6245   27.2845 H   0  0  0  0  0  0
   -0.2566   48.3284   25.4259 H   0  0  0  0  0  0
    1.1145   49.2749   24.8385 H   0  0  0  0  0  0
   -0.5416   49.8077   24.4925 H   0  0  0  0  0  0
  1  2  1  0  0  0
  1 30  1  0  0  0
  1 31  1  0  0  0
  1 32  1  0  0  0
  2  6  1  0  0  0
  2  3  2  0  0  0
  3  4  1  0  0  0
  3 17  1  0  0  0
  4  5  2  0  0  0
  5  6  1  0  0  0
  6  7  1  0  0  0
  7 12  2  0  0  0
  7  8  1  0  0  0
  8  9  2  0  0  0
  8 33  1  0  0  0
  9 10  1  0  0  0
  9 34  1  0  0  0
 10 16  2  0  0  0
 10 11  1  0  0  0
 11 12  1  0  0  0
 11 13  2  0  0  0
 12 35  1  0  0  0
 13 14  1  0  0  0
 13 36  1  0  0  0
 14 15  2  0  0  0
 14 37  1  0  0  0
 15 16  1  0  0  0
 15 38  1  0  0  0
 17 18  2  0  0  0
 17 19  1  0  0  0
 19 20  1  0  0  0
 19 39  1  0  0  0
 20 25  2  0  0  0
 20 21  1  0  0  0
 21 22  2  0  0  0
 21 40  1  0  0  0
 22 23  1  0  0  0
 22 41  1  0  0  0
 23 24  2  0  0  0
 23 42  1  0  0  0
 24 25  1  0  0  0
 24 43  1  0  0  0
 25 26  1  0  0  0
 26 27  2  0  0  0
 26 28  1  0  0  0
 28 29  1  0  0  0
 28 44  1  0  0  0
 29 45  1  0  0  0
 29 46  1  0  0  0
 29 47  1  0  0  0
M  END
> <i_i_glide_confnum>
80

> <i_i_glide_lignum>
1560

> <i_i_glide_posenum>
243

> <i_i_glide_rotatable_bonds>
6

> <i_m_Source_File_Index>
1739

> <b_m_subgroup_collapsed>
0

> <r_i_docking_score>
-6.71258

> <r_i_glide_ecoul>
-6.59858

> <r_i_glide_eff_state_penalty>
0

> <r_i_glide_einternal>
6.37728

> <r_i_glide_emodel>
-73.0504

> <r_i_glide_energy>
-53.3002

> <r_i_glide_erotb>
0.651767

> <r_i_glide_esite>
-0.0856622

> <r_i_glide_evdw>
-46.7016

> <r_i_glide_gscore>
-6.71258

> <r_i_glide_hbond>
-0.16

> <r_i_glide_ligand_efficiency>
-0.231468

> <r_i_glide_ligand_efficiency_ln>
-1.53701

> <r_i_glide_ligand_efficiency_sa>
-0.711144

> <r_i_glide_lipo>
-2.35817

> <r_i_glide_metal>
0

> <r_i_glide_rewards>
-1.43565

> <s_i_glide_gridfile>
wee1_glide-grid

> <s_m_Source_File>
wee1_decoys_glide_SP.sdf

> <s_m_Source_Path>
/Users/zhangxujun/Desktop

> <s_m_entry_id>
2014

> <s_m_entry_name>
wee1_decoys_glide_SP.1739

> <s_m_subgroup_title>
wee1_decoys_glide_SP

> <s_m_subgroupid>
wee1_decoys_glide_SP


$$$$
