ZINC21050860_3766
                    3D
 Schrodinger Suite 2024-2.
 44 45  0  0  1  0            999 V2000
    0.4731   52.6301   22.8408 C   0  0  0  0  0  0
    0.2951   52.1598   24.2766 C   0  0  0  0  0  0
    1.1807   52.6664   25.2238 C   0  0  0  0  0  0
    1.0756   52.3393   26.5747 C   0  0  0  0  0  0
    0.0584   51.4647   26.9726 C   0  0  0  0  0  0
   -0.8431   50.9439   26.0361 C   0  0  0  0  0  0
   -0.7327   51.2874   24.6741 C   0  0  0  0  0  0
   -1.6896   50.7091   23.6269 C   0  0  0  0  0  0
   -1.8596   50.0969   26.4817 N   0  0  0  0  0  0
    2.1598   53.0920   27.8110 S   0  0  0  0  0  0
    1.4991   54.3410   28.2065 O   0  0  0  0  0  0
    2.4227   52.0540   28.8160 O   0  0  0  0  0  0
    3.7066   53.5449   27.0272 N   0  0  0  0  0  0
    3.7261   54.6852   26.0802 C   0  0  0  0  0  0
    4.4480   54.4405   24.7399 C   0  0  0  0  0  0
    5.9804   54.3177   24.7718 C   0  0  0  0  0  0
    6.7083   55.2085   25.7855 C   0  0  0  0  0  0
    7.0827   54.5203   27.1245 C   0  0  0  0  0  0
    5.9251   54.2040   28.0924 C   0  0  0  0  0  0
    4.9880   53.0768   27.6132 C   0  0  0  0  0  0
    1.2271   52.0319   22.3287 H   0  0  0  0  0  0
   -0.4546   52.6032   22.2708 H   0  0  0  0  0  0
    0.8047   53.6719   22.8449 H   0  0  0  0  0  0
    1.9461   53.3247   24.8687 H   0  0  0  0  0  0
   -0.0465   51.2041   28.0168 H   0  0  0  0  0  0
   -2.2026   49.8080   23.9614 H   0  0  0  0  0  0
   -1.1434   50.4138   22.7310 H   0  0  0  0  0  0
   -2.4348   51.4516   23.3423 H   0  0  0  0  0  0
   -1.6955   49.5533   27.3440 H   0  0  0  0  0  0
   -2.4381   49.6700   25.7765 H   0  0  0  0  0  0
    2.6988   54.8968   25.8441 H   0  0  0  0  0  0
    4.0613   55.5847   26.5862 H   0  0  0  0  0  0
    4.0333   53.5683   24.2342 H   0  0  0  0  0  0
    4.2007   55.2814   24.0934 H   0  0  0  0  0  0
    6.2779   53.2957   24.9390 H   0  0  0  0  0  0
    6.3511   54.5417   23.7697 H   0  0  0  0  0  0
    6.1244   56.0970   25.9749 H   0  0  0  0  0  0
    7.6026   55.5620   25.2769 H   0  0  0  0  0  0
    7.7909   55.1369   27.6801 H   0  0  0  0  0  0
    7.6107   53.5919   26.9120 H   0  0  0  0  0  0
    5.3765   55.1073   28.3601 H   0  0  0  0  0  0
    6.3846   53.8735   29.0226 H   0  0  0  0  0  0
    4.7783   52.3870   28.4294 H   0  0  0  0  0  0
    5.4861   52.4796   26.8599 H   0  0  0  0  0  0
  1  2  1  0  0  0
  1 21  1  0  0  0
  1 22  1  0  0  0
  1 23  1  0  0  0
  2  7  2  0  0  0
  2  3  1  0  0  0
  3  4  2  0  0  0
  3 24  1  0  0  0
  4  5  1  0  0  0
  4 10  1  0  0  0
  5  6  2  0  0  0
  5 25  1  0  0  0
  6  7  1  0  0  0
  6  9  1  0  0  0
  7  8  1  0  0  0
  8 26  1  0  0  0
  8 27  1  0  0  0
  8 28  1  0  0  0
  9 29  1  0  0  0
  9 30  1  0  0  0
 10 11  2  0  0  0
 10 12  2  0  0  0
 10 13  1  0  0  0
 13 20  1  0  0  0
 13 14  1  0  0  0
 14 15  1  0  0  0
 14 31  1  0  0  0
 14 32  1  0  0  0
 15 16  1  0  0  0
 15 33  1  0  0  0
 15 34  1  0  0  0
 16 17  1  0  0  0
 16 35  1  0  0  0
 16 36  1  0  0  0
 17 18  1  0  0  0
 17 37  1  0  0  0
 17 38  1  0  0  0
 18 19  1  0  0  0
 18 39  1  0  0  0
 18 40  1  0  0  0
 19 20  1  0  0  0
 19 41  1  0  0  0
 19 42  1  0  0  0
 20 43  1  0  0  0
 20 44  1  0  0  0
M  END
> <i_i_glide_confnum>
57

> <i_i_glide_lignum>
3767

> <i_i_glide_posenum>
17

> <i_i_glide_rotatable_bonds>
2

> <i_m_Source_File_Index>
3586

> <b_m_subgroup_collapsed>
0

> <r_i_docking_score>
-4.73032

> <r_i_glide_ecoul>
-5.36134

> <r_i_glide_eff_state_penalty>
0

> <r_i_glide_einternal>
4.49856

> <r_i_glide_emodel>
-33.9103

> <r_i_glide_energy>
-29.4507

> <r_i_glide_erotb>
0.416974

> <r_i_glide_esite>
-0.1

> <r_i_glide_evdw>
-24.0894

> <r_i_glide_gscore>
-4.73032

> <r_i_glide_hbond>
-0.16

> <r_i_glide_ligand_efficiency>
-0.236516

> <r_i_glide_ligand_efficiency_ln>
-1.18384

> <r_i_glide_ligand_efficiency_sa>
-0.642003

> <r_i_glide_lipo>
-1.88624

> <r_i_glide_metal>
0

> <r_i_glide_rewards>
-0.99238

> <s_i_glide_gridfile>
wee1_glide-grid

> <s_m_Source_File>
wee1_decoys_glide_SP.sdf

> <s_m_Source_Path>
/Users/zhangxujun/Desktop

> <s_m_entry_id>
3861

> <s_m_entry_name>
wee1_decoys_glide_SP.3586

> <s_m_subgroup_title>
wee1_decoys_glide_SP

> <s_m_subgroupid>
wee1_decoys_glide_SP


$$$$
