ZINC14269388_2710
                    3D
 Schrodinger Suite 2024-2.
 51 55  0  0  1  0            999 V2000
   -5.7332   51.2505   26.1236 C   0  0  0  0  0  0
   -4.2969   51.0723   25.6709 C   0  0  0  0  0  0
   -3.5785   49.9392   26.0814 C   0  0  0  0  0  0
   -2.2581   49.7199   25.6816 C   0  0  0  0  0  0
   -1.6929   50.6935   24.8559 C   0  0  0  0  0  0
   -2.3818   51.8445   24.4398 C   0  0  0  0  0  0
   -3.7117   52.0382   24.8400 C   0  0  0  0  0  0
   -1.5533   52.6218   23.6817 N   0  0  0  0  0  0
   -0.4254   51.9369   23.6588 C   0  0  0  0  0  0
   -0.4379   50.7476   24.3336 O   0  0  0  0  0  0
    0.8726   52.3964   23.1031 C   0  0  0  0  0  0
    1.2826   53.6955   23.3971 C   0  0  0  0  0  0
    2.5105   54.1496   22.9444 C   0  0  0  0  0  0
    3.3395   53.3119   22.1950 C   0  0  0  0  0  0
    2.9161   52.0250   21.8577 C   0  0  0  0  0  0
    1.6867   51.5603   22.3307 C   0  0  0  0  0  0
    4.6061   53.7687   21.7915 N   0  0  0  0  0  0
    5.5384   54.4000   22.5666 C   0  0  0  0  0  0
    6.7047   55.2967   21.7745 S   0  0  0  0  0  0
    5.3936   54.1962   23.9191 N   0  0  0  0  0  0
    5.9878   54.7258   25.0163 C   0  0  0  0  0  0
    7.0543   55.3448   25.0208 O   0  0  0  0  0  0
    5.2472   54.4854   26.3192 C   0  0  0  0  0  0
    5.9042   54.6747   27.5461 C   0  0  0  0  0  0
    5.2360   54.4966   28.7581 C   0  0  0  0  0  0
    3.9013   54.1029   28.7687 C   0  0  0  0  0  0
    3.2247   53.9162   27.5554 C   0  0  0  0  0  0
    3.8929   54.0967   26.3466 C   0  0  0  0  0  0
    1.9112   53.4944   27.5009 O   0  0  0  0  0  0
    1.1901   53.6718   28.7251 C   0  0  0  0  0  0
    2.0487   53.2249   29.9342 C   0  0  0  0  0  0
    3.2680   53.9782   29.9915 O   0  0  0  0  0  0
   -6.3078   51.8259   25.3968 H   0  0  0  0  0  0
   -6.2302   50.2847   26.2207 H   0  0  0  0  0  0
   -5.7708   51.7587   27.0867 H   0  0  0  0  0  0
   -4.0440   49.2170   26.7374 H   0  0  0  0  0  0
   -1.6961   48.8615   26.0257 H   0  0  0  0  0  0
   -4.2597   52.9145   24.5278 H   0  0  0  0  0  0
    0.6623   54.3473   23.9952 H   0  0  0  0  0  0
    2.8274   55.1506   23.1960 H   0  0  0  0  0  0
    3.5456   51.3757   21.2652 H   0  0  0  0  0  0
    1.3688   50.5532   22.1001 H   0  0  0  0  0  0
    4.7620   53.7799   20.7934 H   0  0  0  0  0  0
    4.5923   53.6290   24.1471 H   0  0  0  0  0  0
    6.9393   54.9861   27.5784 H   0  0  0  0  0  0
    5.7564   54.6920   29.6814 H   0  0  0  0  0  0
    3.3294   53.9280   25.4449 H   0  0  0  0  0  0
    0.9305   54.7261   28.8379 H   0  0  0  0  0  0
    0.2612   53.1031   28.6824 H   0  0  0  0  0  0
    1.4952   53.3477   30.8656 H   0  0  0  0  0  0
    2.2862   52.1646   29.8287 H   0  0  0  0  0  0
  1  2  1  0  0  0
  1 33  1  0  0  0
  1 34  1  0  0  0
  1 35  1  0  0  0
  2  7  2  0  0  0
  2  3  1  0  0  0
  3  4  2  0  0  0
  3 36  1  0  0  0
  4  5  1  0  0  0
  4 37  1  0  0  0
  5 10  1  0  0  0
  5  6  2  0  0  0
  6  7  1  0  0  0
  6  8  1  0  0  0
  7 38  1  0  0  0
  8  9  2  0  0  0
  9 10  1  0  0  0
  9 11  1  0  0  0
 11 16  2  0  0  0
 11 12  1  0  0  0
 12 13  2  0  0  0
 12 39  1  0  0  0
 13 14  1  0  0  0
 13 40  1  0  0  0
 14 15  2  0  0  0
 14 17  1  0  0  0
 15 16  1  0  0  0
 15 41  1  0  0  0
 16 42  1  0  0  0
 17 18  1  0  0  0
 17 43  1  0  0  0
 18 19  2  0  0  0
 18 20  1  0  0  0
 20 21  1  0  0  0
 20 44  1  0  0  0
 21 22  2  0  0  0
 21 23  1  0  0  0
 23 28  2  0  0  0
 23 24  1  0  0  0
 24 25  2  0  0  0
 24 45  1  0  0  0
 25 26  1  0  0  0
 25 46  1  0  0  0
 26 32  1  0  0  0
 26 27  2  0  0  0
 27 28  1  0  0  0
 27 29  1  0  0  0
 28 47  1  0  0  0
 29 30  1  0  0  0
 30 31  1  0  0  0
 30 48  1  0  0  0
 30 49  1  0  0  0
 31 32  1  0  0  0
 31 50  1  0  0  0
 31 51  1  0  0  0
M  END
> <i_i_glide_confnum>
38

> <i_i_glide_lignum>
2711

> <i_i_glide_posenum>
308

> <i_i_glide_rotatable_bonds>
6

> <i_m_Source_File_Index>
522

> <b_m_subgroup_collapsed>
0

> <r_i_docking_score>
-6.55502

> <r_i_glide_ecoul>
-4.78361

> <r_i_glide_eff_state_penalty>
0

> <r_i_glide_einternal>
9.1828

> <r_i_glide_emodel>
-65.3333

> <r_i_glide_energy>
-49.9462

> <r_i_glide_erotb>
0.504091

> <r_i_glide_esite>
0

> <r_i_glide_evdw>
-45.1625

> <r_i_glide_gscore>
-6.55502

> <r_i_glide_hbond>
-0.608

> <r_i_glide_ligand_efficiency>
-0.204844

> <r_i_glide_ligand_efficiency_ln>
-1.46785

> <r_i_glide_ligand_efficiency_sa>
-0.65034

> <r_i_glide_lipo>
-2.39462

> <r_i_glide_metal>
0

> <r_i_glide_rewards>
-1.08082

> <s_i_glide_gridfile>
wee1_glide-grid

> <s_m_Source_File>
wee1_decoys_glide_SP.sdf

> <s_m_Source_Path>
/Users/zhangxujun/Desktop

> <s_m_entry_id>
797

> <s_m_entry_name>
wee1_decoys_glide_SP.522

> <s_m_subgroup_title>
wee1_decoys_glide_SP

> <s_m_subgroupid>
wee1_decoys_glide_SP


$$$$
