ZINC04153187_3853
                    3D
 Schrodinger Suite 2024-2.
 45 48  0  0  1  0            999 V2000
   -0.8961   53.0395   23.9649 C   0  0  0  0  0  0
    0.2322   52.0731   24.4028 C   0  0  0  0  0  0
    0.3867   52.1831   25.9421 C   0  0  0  0  0  0
   -0.2417   50.6247   24.1066 C   0  0  0  0  0  0
    1.6024   52.3695   23.6696 C   0  0  2  0  0  0
    2.3075   51.6395   24.0736 H   0  0  0  0  0  0
    2.1792   53.7917   23.9200 C   0  0  0  0  0  0
    3.6465   53.9127   23.4514 C   0  0  0  0  0  0
    3.7582   53.4620   21.9949 C   0  0  0  0  0  0
    2.7835   52.6175   21.4331 C   0  0  0  0  0  0
    3.1112   52.2345   19.7768 S   0  0  0  0  0  0
    4.5191   53.2264   19.8206 C   0  0  0  0  0  0
    4.7417   53.8568   21.0512 C   0  0  0  0  0  0
    5.8972   54.7131   21.2998 C   0  0  0  0  0  0
    6.3040   55.1842   22.3609 O   0  0  0  0  0  0
    6.6182   54.9183   20.1737 N   0  0  0  0  0  0
    6.1551   54.6401   18.7948 C   0  0  1  0  0  0
    7.0523   54.4295   18.2121 H   0  0  0  0  0  0
    5.3467   53.4085   18.7392 N   0  0  0  0  0  0
    5.4825   55.8536   18.1718 C   0  0  0  0  0  0
    4.2091   56.1196   17.6839 C   0  0  0  0  0  0
    4.2231   57.4272   17.1940 C   0  0  0  0  0  0
    5.5011   57.9125   17.4119 C   0  0  0  0  0  0
    6.2635   56.9576   18.0044 O   0  0  0  0  0  0
    1.5171   52.1332   22.1297 C   0  0  0  0  0  0
   -1.7962   52.8970   24.5657 H   0  0  0  0  0  0
   -1.1904   52.8813   22.9280 H   0  0  0  0  0  0
   -0.6064   54.0836   24.0728 H   0  0  0  0  0  0
    1.1102   51.4672   26.3262 H   0  0  0  0  0  0
    0.6960   53.1730   26.2750 H   0  0  0  0  0  0
   -0.5524   51.9669   26.4516 H   0  0  0  0  0  0
    0.5309   49.8931   24.3437 H   0  0  0  0  0  0
   -1.1204   50.3607   24.6970 H   0  0  0  0  0  0
   -0.5199   50.4815   23.0607 H   0  0  0  0  0  0
    1.5434   54.5622   23.4798 H   0  0  0  0  0  0
    2.1820   54.0179   24.9848 H   0  0  0  0  0  0
    3.9872   54.9361   23.5851 H   0  0  0  0  0  0
    4.2941   53.2990   24.0758 H   0  0  0  0  0  0
    7.3603   55.5923   20.2780 H   0  0  0  0  0  0
    5.7391   52.6265   18.2318 H   0  0  0  0  0  0
    3.3730   55.4362   17.6854 H   0  0  0  0  0  0
    3.3981   57.9639   16.7474 H   0  0  0  0  0  0
    5.9726   58.8697   17.2233 H   0  0  0  0  0  0
    1.3591   51.0783   21.9087 H   0  0  0  0  0  0
    0.6761   52.6817   21.7056 H   0  0  0  0  0  0
  1  2  1  0  0  0
  1 26  1  0  0  0
  1 27  1  0  0  0
  1 28  1  0  0  0
  2  3  1  0  0  0
  2  4  1  0  0  0
  2  5  1  0  0  0
  3 29  1  0  0  0
  3 30  1  0  0  0
  3 31  1  0  0  0
  4 32  1  0  0  0
  4 33  1  0  0  0
  4 34  1  0  0  0
  5  6  1  0  0  0
  5 25  1  0  0  0
  5  7  1  0  0  0
  7  8  1  0  0  0
  7 35  1  0  0  0
  7 36  1  0  0  0
  8  9  1  0  0  0
  8 37  1  0  0  0
  8 38  1  0  0  0
  9 13  1  0  0  0
  9 10  2  0  0  0
 10 11  1  0  0  0
 10 25  1  0  0  0
 11 12  1  0  0  0
 12 19  1  0  0  0
 12 13  2  0  0  0
 13 14  1  0  0  0
 14 15  2  0  0  0
 14 16  1  0  0  0
 16 17  1  0  0  0
 16 39  1  0  0  0
 17 18  1  0  0  0
 17 19  1  0  0  0
 17 20  1  0  0  0
 19 40  1  0  0  0
 20 24  1  0  0  0
 20 21  2  0  0  0
 21 22  1  0  0  0
 21 41  1  0  0  0
 22 23  2  0  0  0
 22 42  1  0  0  0
 23 24  1  0  0  0
 23 43  1  0  0  0
 25 44  1  0  0  0
 25 45  1  0  0  0
M  END
> <i_i_glide_confnum>
2

> <i_i_glide_lignum>
3854

> <i_i_glide_posenum>
31

> <i_i_glide_rotatable_bonds>
2

> <i_m_Source_File_Index>
5156

> <b_m_subgroup_collapsed>
0

> <r_i_docking_score>
-4.41848

> <r_i_glide_ecoul>
-2.35037

> <r_i_glide_eff_state_penalty>
0

> <r_i_glide_einternal>
0.84394

> <r_i_glide_emodel>
-36.4504

> <r_i_glide_energy>
-28.8086

> <r_i_glide_erotb>
0.172246

> <r_i_glide_esite>
-0.0690599

> <r_i_glide_evdw>
-26.4582

> <r_i_glide_gscore>
-4.41848

> <r_i_glide_hbond>
-0.047992

> <r_i_glide_ligand_efficiency>
-0.192108

> <r_i_glide_ligand_efficiency_ln>
-1.06843

> <r_i_glide_ligand_efficiency_sa>
-0.54633

> <r_i_glide_lipo>
-1.38568

> <r_i_glide_metal>
0

> <r_i_glide_rewards>
-1.41253

> <s_i_glide_gridfile>
wee1_glide-grid

> <s_m_Source_File>
wee1_decoys_glide_SP.sdf

> <s_m_Source_Path>
/Users/zhangxujun/Desktop

> <s_m_entry_id>
5431

> <s_m_entry_name>
wee1_decoys_glide_SP.5156

> <s_m_subgroup_title>
wee1_decoys_glide_SP

> <s_m_subgroupid>
wee1_decoys_glide_SP


$$$$
