ZINC23362331_5715
                    3D
 Schrodinger Suite 2024-2.
 67 70  0  0  1  0            999 V2000
    1.8357   48.8071   19.8599 C   0  0  0  0  0  0
    1.8611   50.2298   20.4642 N   0  3  0  0  0  0
    2.0302   50.1802   22.0016 C   0  0  0  0  0  0
    1.9788   51.6247   22.5541 C   0  0  0  0  0  0
    2.9873   52.4952   21.9228 N   0  0  0  0  0  0
    2.8847   52.5054   20.4532 C   0  0  0  0  0  0
    3.0000   51.0807   19.8600 C   0  0  0  0  0  0
    2.8718   53.8650   22.4448 C   0  0  0  0  0  0
    3.5119   54.0294   23.8259 C   0  0  0  0  0  0
    2.7177   53.9568   24.9761 C   0  0  0  0  0  0
    3.2706   54.0902   26.2536 C   0  0  0  0  0  0
    4.6499   54.3065   26.3600 C   0  0  0  0  0  0
    5.4537   54.3908   25.2226 C   0  0  0  0  0  0
    4.8919   54.2497   23.9444 C   0  0  0  0  0  0
    5.6187   54.3199   22.7742 O   0  0  0  0  0  0
    6.9086   54.9356   22.7437 C   0  0  0  0  0  0
    7.0694   55.6492   21.3931 C   0  0  0  0  0  0
    6.0912   56.1260   20.8188 O   0  0  0  0  0  0
    8.3043   55.6966   20.8722 N   0  0  0  0  0  0
    8.6358   56.1795   19.5302 C   0  0  0  0  0  0
    8.6483   55.0684   18.4833 C   0  0  0  0  0  0
    7.4627   54.4080   18.1458 C   0  0  0  0  0  0
    7.4748   53.3816   17.2039 C   0  0  0  0  0  0
    8.6706   53.0243   16.5713 C   0  0  0  0  0  0
    9.8537   53.7001   16.8961 C   0  0  0  0  0  0
    9.8409   54.7194   17.8431 C   0  0  0  0  0  0
    8.6930   51.9117   15.5238 C   0  0  0  0  0  0
    9.5326   52.2128   14.5317 F   0  0  0  0  0  0
    7.4878   51.7009   14.9897 F   0  0  0  0  0  0
    9.1072   50.7857   16.0987 F   0  0  0  0  0  0
    2.4116   54.0035   27.4676 C   0  0  0  0  0  0
    1.4277   53.0124   27.5790 C   0  0  0  0  0  0
    0.5905   52.9617   28.6924 C   0  0  0  0  0  0
    0.7301   53.9107   29.7037 C   0  0  0  0  0  0
    1.7111   54.8928   29.6178 C   0  0  0  0  0  0
    2.5554   54.9274   28.5109 C   0  0  0  0  0  0
   -0.0945   53.8800   30.7735 F   0  0  0  0  0  0
    2.7082   48.2610   20.2186 H   0  0  0  0  0  0
    0.9158   48.3255   20.1960 H   0  0  0  0  0  0
    1.8493   48.8983   18.7707 H   0  0  0  0  0  0
    1.1952   49.5910   22.3907 H   0  0  0  0  0  0
    2.9772   49.6786   22.2240 H   0  0  0  0  0  0
    2.1104   51.5961   23.6371 H   0  0  0  0  0  0
    0.9906   52.0317   22.3235 H   0  0  0  0  0  0
    1.9048   52.9010   20.1747 H   0  0  0  0  0  0
    3.6620   53.1383   20.0195 H   0  0  0  0  0  0
    2.8478   51.0989   18.7766 H   0  0  0  0  0  0
    3.9484   50.5803   20.0797 H   0  0  0  0  0  0
    1.8322   54.2048   22.4734 H   0  0  0  0  0  0
    3.3633   54.5807   21.7784 H   0  0  0  0  0  0
    1.6545   53.8002   24.8718 H   0  0  0  0  0  0
    5.1119   54.4027   27.3334 H   0  0  0  0  0  0
    6.5171   54.5377   25.3485 H   0  0  0  0  0  0
    7.6705   54.1661   22.8766 H   0  0  0  0  0  0
    7.0381   55.6975   23.5130 H   0  0  0  0  0  0
    9.0623   55.3017   21.4067 H   0  0  0  0  0  0
    9.6049   56.6793   19.5693 H   0  0  0  0  0  0
    7.9265   56.9400   19.1921 H   0  0  0  0  0  0
    6.5304   54.6777   18.6227 H   0  0  0  0  0  0
    6.5522   52.8669   16.9719 H   0  0  0  0  0  0
   10.7852   53.4344   16.4178 H   0  0  0  0  0  0
   10.7655   55.2255   18.0827 H   0  0  0  0  0  0
    1.3033   52.2726   26.7979 H   0  0  0  0  0  0
   -0.1685   52.1974   28.7738 H   0  0  0  0  0  0
    1.8125   55.6270   30.4062 H   0  0  0  0  0  0
    3.3119   55.6941   28.4588 H   0  0  0  0  0  0
    0.9814   50.6801   20.2410 H   0  0  0  0  0  0
  1  2  1  0  0  0
  1 38  1  0  0  0
  1 39  1  0  0  0
  1 40  1  0  0  0
  2  7  1  0  0  0
  2  3  1  0  0  0
  2 67  1  0  0  0
  3  4  1  0  0  0
  3 41  1  0  0  0
  3 42  1  0  0  0
  4  5  1  0  0  0
  4 43  1  0  0  0
  4 44  1  0  0  0
  5  6  1  0  0  0
  5  8  1  0  0  0
  6  7  1  0  0  0
  6 45  1  0  0  0
  6 46  1  0  0  0
  7 47  1  0  0  0
  7 48  1  0  0  0
  8  9  1  0  0  0
  8 49  1  0  0  0
  8 50  1  0  0  0
  9 14  2  0  0  0
  9 10  1  0  0  0
 10 11  2  0  0  0
 10 51  1  0  0  0
 11 12  1  0  0  0
 11 31  1  0  0  0
 12 13  2  0  0  0
 12 52  1  0  0  0
 13 14  1  0  0  0
 13 53  1  0  0  0
 14 15  1  0  0  0
 15 16  1  0  0  0
 16 17  1  0  0  0
 16 54  1  0  0  0
 16 55  1  0  0  0
 17 18  2  0  0  0
 17 19  1  0  0  0
 19 20  1  0  0  0
 19 56  1  0  0  0
 20 21  1  0  0  0
 20 57  1  0  0  0
 20 58  1  0  0  0
 21 26  2  0  0  0
 21 22  1  0  0  0
 22 23  2  0  0  0
 22 59  1  0  0  0
 23 24  1  0  0  0
 23 60  1  0  0  0
 24 25  2  0  0  0
 24 27  1  0  0  0
 25 26  1  0  0  0
 25 61  1  0  0  0
 26 62  1  0  0  0
 27 28  1  0  0  0
 27 29  1  0  0  0
 27 30  1  0  0  0
 31 36  2  0  0  0
 31 32  1  0  0  0
 32 33  2  0  0  0
 32 63  1  0  0  0
 33 34  1  0  0  0
 33 64  1  0  0  0
 34 35  2  0  0  0
 34 37  1  0  0  0
 35 36  1  0  0  0
 35 65  1  0  0  0
 36 66  1  0  0  0
M  CHG  1   2   1
M  END
> <i_i_glide_confnum>
87

> <i_i_glide_lignum>
5716

> <i_i_glide_posenum>
162

> <i_i_glide_rotatable_bonds>
10

> <i_m_Source_File_Index>
5474

> <b_m_subgroup_collapsed>
0

> <r_i_docking_score>
-6.75759

> <r_i_glide_ecoul>
-5.08467

> <r_i_glide_eff_state_penalty>
0

> <r_i_glide_einternal>
6.38828

> <r_i_glide_emodel>
-75.1663

> <r_i_glide_energy>
-54.0296

> <r_i_glide_erotb>
0.692353

> <r_i_glide_esite>
-0.00860397

> <r_i_glide_evdw>
-48.9449

> <r_i_glide_gscore>
-6.75759

> <r_i_glide_hbond>
-0.0550036

> <r_i_glide_ligand_efficiency>
-0.182638

> <r_i_glide_ligand_efficiency_ln>
-1.46556

> <r_i_glide_ligand_efficiency_sa>
-0.608589

> <r_i_glide_lipo>
-3.63085

> <r_i_glide_metal>
0

> <r_i_glide_rewards>
-0.545538

> <s_i_glide_gridfile>
wee1_glide-grid

> <s_m_Source_File>
wee1_decoys_glide_SP.sdf

> <s_m_Source_Path>
/Users/zhangxujun/Desktop

> <s_m_entry_id>
5749

> <s_m_entry_name>
wee1_decoys_glide_SP.5474

> <s_m_subgroup_title>
wee1_decoys_glide_SP

> <s_m_subgroupid>
wee1_decoys_glide_SP


$$$$
