ZINC34923880_5902
                    3D
 Schrodinger Suite 2024-2.
 54 57  0  0  1  0            999 V2000
    2.7417   54.4968   27.1967 C   0  0  0  0  0  0
    1.7892   53.4455   26.6279 C   0  0  0  0  0  0
    0.9044   52.6693   27.3356 C   0  0  0  0  0  0
    0.0923   51.5547   26.5897 C   0  0  2  0  0  0
    0.2323   50.6144   27.1278 H   0  0  0  0  0  0
    0.7043   51.3282   25.2505 N   0  0  0  0  0  0
    0.4329   50.2520   24.4280 C   0  0  0  0  0  0
    0.7401   50.5117   23.1446 C   0  0  0  0  0  0
    1.5048   52.0871   22.9159 S   0  0  0  0  0  0
    1.4469   52.3507   24.6703 C   0  0  0  0  0  0
    1.9234   53.3725   25.2680 N   0  0  0  0  0  0
   -0.1795   49.0199   24.8922 C   0  0  0  0  0  0
   -1.2124   48.3761   24.3259 C   0  0  0  0  0  0
   -1.8741   48.6610   23.2587 O   0  5  0  0  0  0
   -1.6970   47.2416   24.9432 N   0  0  0  0  0  0
   -3.0390   46.8341   25.0203 C   0  0  0  0  0  0
   -3.7598   47.1348   26.1804 C   0  0  0  0  0  0
   -5.0858   46.7235   26.3129 C   0  0  0  0  0  0
   -5.6983   46.0028   25.2883 C   0  0  0  0  0  0
   -4.9830   45.6898   24.1328 C   0  0  0  0  0  0
   -3.6545   46.0969   23.9959 C   0  0  0  0  0  0
   -2.9697   45.7352   22.8831 F   0  0  0  0  0  0
   -1.4322   51.7755   26.4981 C   0  0  0  0  0  0
   -2.2918   51.1354   27.3943 C   0  0  0  0  0  0
   -3.6710   51.3024   27.3138 C   0  0  0  0  0  0
   -4.2118   52.1442   26.3452 C   0  0  0  0  0  0
   -3.3732   52.8097   25.4368 C   0  0  0  0  0  0
   -1.9957   52.5873   25.5066 C   0  0  0  0  0  0
   -3.8144   53.6968   24.4745 O   0  0  0  0  0  0
   -5.1815   54.0908   24.4817 C   0  0  0  0  0  0
    0.7187   52.8075   28.8037 C   0  0  0  0  0  0
    1.2655   53.6752   29.4911 O   0  0  0  0  0  0
   -0.1234   51.8939   29.3248 O   0  0  0  0  0  0
   -0.4944   51.9257   30.6937 C   0  0  0  0  0  0
    3.3945   54.0395   27.9404 H   0  0  0  0  0  0
    3.3879   54.9500   26.4422 H   0  0  0  0  0  0
    2.1826   55.2969   27.6817 H   0  0  0  0  0  0
    0.5845   49.8445   22.3098 H   0  0  0  0  0  0
    0.2364   48.5992   25.7979 H   0  0  0  0  0  0
   -1.1979   47.0263   25.7958 H   0  0  0  0  0  0
   -3.2952   47.6963   26.9809 H   0  0  0  0  0  0
   -5.6362   46.9662   27.2097 H   0  0  0  0  0  0
   -6.7258   45.6851   25.3915 H   0  0  0  0  0  0
   -5.4576   45.1256   23.3436 H   0  0  0  0  0  0
   -1.8914   50.4967   28.1648 H   0  0  0  0  0  0
   -4.3144   50.7880   28.0121 H   0  0  0  0  0  0
   -5.2831   52.2691   26.3160 H   0  0  0  0  0  0
   -1.3553   53.0927   24.7994 H   0  0  0  0  0  0
   -5.3333   54.8732   23.7371 H   0  0  0  0  0  0
   -5.8363   53.2561   24.2268 H   0  0  0  0  0  0
   -5.4796   54.4962   25.4498 H   0  0  0  0  0  0
   -1.2612   51.1737   30.8816 H   0  0  0  0  0  0
    0.3597   51.7161   31.3384 H   0  0  0  0  0  0
   -0.8956   52.8989   30.9735 H   0  0  0  0  0  0
  1  2  1  0  0  0
  1 35  1  0  0  0
  1 36  1  0  0  0
  1 37  1  0  0  0
  2 11  1  0  0  0
  2  3  2  0  0  0
  3  4  1  0  0  0
  3 31  1  0  0  0
  4  5  1  0  0  0
  4  6  1  0  0  0
  4 23  1  0  0  0
  6 10  1  0  0  0
  6  7  1  0  0  0
  7  8  2  0  0  0
  7 12  1  0  0  0
  8  9  1  0  0  0
  8 38  1  0  0  0
  9 10  1  0  0  0
 10 11  2  0  0  0
 12 13  2  0  0  0
 12 39  1  0  0  0
 13 14  1  0  0  0
 13 15  1  0  0  0
 15 16  1  0  0  0
 15 40  1  0  0  0
 16 21  2  0  0  0
 16 17  1  0  0  0
 17 18  2  0  0  0
 17 41  1  0  0  0
 18 19  1  0  0  0
 18 42  1  0  0  0
 19 20  2  0  0  0
 19 43  1  0  0  0
 20 21  1  0  0  0
 20 44  1  0  0  0
 21 22  1  0  0  0
 23 28  2  0  0  0
 23 24  1  0  0  0
 24 25  2  0  0  0
 24 45  1  0  0  0
 25 26  1  0  0  0
 25 46  1  0  0  0
 26 27  2  0  0  0
 26 47  1  0  0  0
 27 28  1  0  0  0
 27 29  1  0  0  0
 28 48  1  0  0  0
 29 30  1  0  0  0
 30 49  1  0  0  0
 30 50  1  0  0  0
 30 51  1  0  0  0
 31 32  2  0  0  0
 31 33  1  0  0  0
 33 34  1  0  0  0
 34 52  1  0  0  0
 34 53  1  0  0  0
 34 54  1  0  0  0
M  CHG  1  14  -1
M  END
> <i_i_glide_confnum>
17

> <i_i_glide_lignum>
5903

> <i_i_glide_posenum>
205

> <i_i_glide_rotatable_bonds>
7

> <i_m_Source_File_Index>
4554

> <b_m_subgroup_collapsed>
0

> <r_i_docking_score>
-3.87598

> <r_i_glide_ecoul>
-5.38779

> <r_i_glide_eff_state_penalty>
0

> <r_i_glide_einternal>
5.98781

> <r_i_glide_emodel>
-49.765

> <r_i_glide_energy>
-42.3479

> <r_i_glide_erotb>
0.370822

> <r_i_glide_esite>
-0.133201

> <r_i_glide_evdw>
-36.9601

> <r_i_glide_gscore>
-3.87598

> <r_i_glide_hbond>
-0.0792557

> <r_i_glide_ligand_efficiency>
-0.117454

> <r_i_glide_ligand_efficiency_ln>
-0.861999

> <r_i_glide_ligand_efficiency_sa>
-0.376738

> <r_i_glide_lipo>
-0.728152

> <r_i_glide_metal>
0

> <r_i_glide_rewards>
-0.650025

> <s_i_glide_gridfile>
wee1_glide-grid

> <s_m_Source_File>
wee1_decoys_glide_SP.sdf

> <s_m_Source_Path>
/Users/zhangxujun/Desktop

> <s_m_entry_id>
4829

> <s_m_entry_name>
wee1_decoys_glide_SP.4554

> <s_m_subgroup_title>
wee1_decoys_glide_SP

> <s_m_subgroupid>
wee1_decoys_glide_SP


$$$$
