ZINC39624103_2152
                    3D
 Schrodinger Suite 2024-2.
 59 61  0  0  1  0            999 V2000
    2.7043   53.4716   29.4897 C   0  0  0  0  0  0
    3.4385   53.8237   28.1891 C   0  0  0  0  0  0
    2.6323   53.4629   26.9281 C   0  0  0  0  0  0
    3.3953   53.7682   25.6290 C   0  0  0  0  0  0
    2.6828   53.2967   24.4452 N   0  0  0  0  0  0
    3.1044   53.4732   23.1800 C   0  0  0  0  0  0
    4.1335   54.0967   22.9270 O   0  0  0  0  0  0
    2.2465   52.9047   22.0086 C   0  0  2  0  0  0
    2.1886   53.6967   21.2817 H   0  0  0  0  0  0
    0.8215   52.5238   22.4346 C   0  0  0  0  0  0
    0.9466   51.1114   22.8239 N   0  0  0  0  0  0
    2.1772   50.5133   22.2687 C   0  0  0  0  0  0
    2.7933   51.6014   21.3561 C   0  0  0  0  0  0
    2.2191   51.3333   19.9248 C   0  0  0  0  0  0
    2.6296   52.4028   18.8890 C   0  0  0  0  0  0
    4.1693   52.4967   18.8516 N   0  3  0  0  0  0
    4.8405   52.6280   20.2290 C   0  0  0  0  0  0
    4.3254   51.4852   21.1368 C   0  0  0  0  0  0
    0.2472   50.4852   23.8120 C   0  0  0  0  0  0
    0.5628   49.3603   24.2031 O   0  0  0  0  0  0
   -0.9107   51.1913   24.4998 C   0  0  0  0  0  0
   -1.7604   52.0847   23.8255 C   0  0  0  0  0  0
   -2.7726   52.7606   24.5022 C   0  0  0  0  0  0
   -3.0161   52.4967   25.8490 C   0  0  0  0  0  0
   -2.1973   51.5919   26.5336 C   0  0  0  0  0  0
   -1.1627   50.9395   25.8593 C   0  0  0  0  0  0
   -2.4314   51.2967   28.2206 Cl  0  0  0  0  0  0
   -4.0448   53.1484   26.4817 O   0  0  0  0  0  0
   -5.2707   52.4276   26.4882 C   0  0  0  0  0  0
   -3.6956   53.9644   23.6817 Cl  0  0  0  0  0  0
    3.3259   53.6967   30.3560 H   0  0  0  0  0  0
    2.4569   52.4100   29.5301 H   0  0  0  0  0  0
    1.7754   54.0350   29.5871 H   0  0  0  0  0  0
    3.6751   54.8891   28.1854 H   0  0  0  0  0  0
    4.3957   53.2993   28.1724 H   0  0  0  0  0  0
    2.3749   52.4030   26.9592 H   0  0  0  0  0  0
    1.6867   54.0078   26.9313 H   0  0  0  0  0  0
    3.5970   54.8397   25.5619 H   0  0  0  0  0  0
    4.3799   53.2967   25.6696 H   0  0  0  0  0  0
    1.8547   52.7437   24.6059 H   0  0  0  0  0  0
    0.4642   53.2117   23.2028 H   0  0  0  0  0  0
    0.2097   52.6164   21.5366 H   0  0  0  0  0  0
    2.0675   49.5370   21.7934 H   0  0  0  0  0  0
    2.8595   50.3548   23.1021 H   0  0  0  0  0  0
    2.5015   50.3401   19.5663 H   0  0  0  0  0  0
    1.1292   51.3081   19.9498 H   0  0  0  0  0  0
    2.3229   52.1353   17.8763 H   0  0  0  0  0  0
    2.2682   53.4025   19.1090 H   0  0  0  0  0  0
    4.5399   51.6103   18.4713 H   0  0  0  0  0  0
    5.9044   52.5485   20.0258 H   0  0  0  0  0  0
    4.6165   53.6353   20.5766 H   0  0  0  0  0  0
    4.8608   51.5443   22.0817 H   0  0  0  0  0  0
    4.5875   50.5117   20.7231 H   0  0  0  0  0  0
   -1.6505   52.2767   22.7700 H   0  0  0  0  0  0
   -0.5463   50.2420   26.4135 H   0  0  0  0  0  0
   -6.0308   53.0116   27.0069 H   0  0  0  0  0  0
   -5.6310   52.2394   25.4752 H   0  0  0  0  0  0
   -5.1759   51.4720   27.0068 H   0  0  0  0  0  0
    4.4764   53.2244   18.2217 H   0  0  0  0  0  0
  1  2  1  0  0  0
  1 31  1  0  0  0
  1 32  1  0  0  0
  1 33  1  0  0  0
  2  3  1  0  0  0
  2 34  1  0  0  0
  2 35  1  0  0  0
  3  4  1  0  0  0
  3 36  1  0  0  0
  3 37  1  0  0  0
  4  5  1  0  0  0
  4 38  1  0  0  0
  4 39  1  0  0  0
  5  6  1  0  0  0
  5 40  1  0  0  0
  6  7  2  0  0  0
  6  8  1  0  0  0
  8  9  1  0  0  0
  8 13  1  0  0  0
  8 10  1  0  0  0
 10 11  1  0  0  0
 10 41  1  0  0  0
 10 42  1  0  0  0
 11 12  1  0  0  0
 11 19  1  0  0  0
 12 13  1  0  0  0
 12 43  1  0  0  0
 12 44  1  0  0  0
 13 18  1  0  0  0
 13 14  1  0  0  0
 14 15  1  0  0  0
 14 45  1  0  0  0
 14 46  1  0  0  0
 15 16  1  0  0  0
 15 47  1  0  0  0
 15 48  1  0  0  0
 16 17  1  0  0  0
 16 49  1  0  0  0
 16 59  1  0  0  0
 17 18  1  0  0  0
 17 50  1  0  0  0
 17 51  1  0  0  0
 18 52  1  0  0  0
 18 53  1  0  0  0
 19 20  2  0  0  0
 19 21  1  0  0  0
 21 26  2  0  0  0
 21 22  1  0  0  0
 22 23  2  0  0  0
 22 54  1  0  0  0
 23 24  1  0  0  0
 23 30  1  0  0  0
 24 25  2  0  0  0
 24 28  1  0  0  0
 25 26  1  0  0  0
 25 27  1  0  0  0
 26 55  1  0  0  0
 28 29  1  0  0  0
 29 56  1  0  0  0
 29 57  1  0  0  0
 29 58  1  0  0  0
M  CHG  1  16   1
M  END
> <i_i_glide_confnum>
183

> <i_i_glide_lignum>
2153

> <i_i_glide_posenum>
116

> <i_i_glide_rotatable_bonds>
8

> <i_m_Source_File_Index>
4592

> <b_m_subgroup_collapsed>
0

> <r_i_docking_score>
-3.84682

> <r_i_glide_ecoul>
-3.48346

> <r_i_glide_eff_state_penalty>
0

> <r_i_glide_einternal>
10.7614

> <r_i_glide_emodel>
-41.447

> <r_i_glide_energy>
-34.8044

> <r_i_glide_erotb>
0.610135

> <r_i_glide_esite>
-0.0808325

> <r_i_glide_evdw>
-31.321

> <r_i_glide_gscore>
-3.84682

> <r_i_glide_hbond>
-0.2

> <r_i_glide_ligand_efficiency>
-0.132649

> <r_i_glide_ligand_efficiency_ln>
-0.880824

> <r_i_glide_ligand_efficiency_sa>
-0.40754

> <r_i_glide_lipo>
-1.34093

> <r_i_glide_metal>
0

> <r_i_glide_rewards>
-0.746627

> <s_i_glide_gridfile>
wee1_glide-grid

> <s_m_Source_File>
wee1_decoys_glide_SP.sdf

> <s_m_Source_Path>
/Users/zhangxujun/Desktop

> <s_m_entry_id>
4867

> <s_m_entry_name>
wee1_decoys_glide_SP.4592

> <s_m_subgroup_title>
wee1_decoys_glide_SP

> <s_m_subgroupid>
wee1_decoys_glide_SP


$$$$
