ZINC45581458_6123
                    3D
 Schrodinger Suite 2024-2.
 64 68  0  0  1  0            999 V2000
    6.1334   53.4853   27.6159 C   0  0  0  0  0  0
    6.4275   53.9790   26.1887 C   0  0  0  0  0  0
    5.1827   54.1051   25.2703 C   0  0  1  0  0  0
    4.6481   53.1606   25.3297 H   0  0  0  0  0  0
    4.2129   55.1829   25.7611 C   0  0  0  0  0  0
    5.5107   54.3530   23.7902 C   0  0  0  0  0  0
    4.5851   53.9600   22.8198 C   0  0  0  0  0  0
    4.8119   54.2327   21.4746 C   0  0  0  0  0  0
    5.9718   54.9086   21.0691 C   0  0  0  0  0  0
    6.8974   55.2963   22.0462 C   0  0  0  0  0  0
    6.6804   55.0084   23.3904 C   0  0  0  0  0  0
    6.2573   55.2460   19.5912 C   0  0  2  0  0  0
    6.2044   56.3381   19.5432 H   0  0  0  0  0  0
    5.2550   54.6776   18.5882 C   0  0  0  0  0  0
    5.0056   53.3501   18.2341 C   0  0  0  0  0  0
    4.0031   53.1825   17.2779 C   0  0  0  0  0  0
    3.4532   54.3851   16.8747 C   0  0  0  0  0  0
    4.1916   55.7258   17.6821 S   0  0  0  0  0  0
    7.6404   54.8966   19.2376 N   0  0  0  0  0  0
    8.2840   55.1334   18.0823 C   0  0  0  0  0  0
    7.7633   55.6478   17.0947 O   0  0  0  0  0  0
    9.7686   54.7325   18.0819 C   0  0  0  0  0  0
   10.1720   54.0186   16.8492 N   0  0  0  0  0  0
    9.7144   52.7933   16.4918 C   0  0  0  0  0  0
    8.9314   52.0642   17.1035 O   0  0  0  0  0  0
   10.3396   52.4942   15.1341 C   0  0  2  0  0  0
    9.2697   52.0327   14.1196 C   0  0  0  0  0  0
    9.4429   50.5199   13.9354 C   0  0  0  0  0  0
   10.8087   50.2207   14.5140 C   0  0  0  0  0  0
   11.3122   51.3245   15.2107 C   0  0  0  0  0  0
   12.5550   51.2354   15.8489 C   0  0  0  0  0  0
   13.2791   50.0431   15.8045 C   0  0  0  0  0  0
   12.7657   48.9388   15.1246 C   0  0  0  0  0  0
   11.5257   49.0244   14.4864 C   0  0  0  0  0  0
   10.9370   53.7757   14.8644 N   0  0  0  0  0  0
   10.9544   54.6066   15.9121 C   0  0  0  0  0  0
   11.6834   55.5869   16.0408 O   0  0  0  0  0  0
    7.0617   53.3124   28.1621 H   0  0  0  0  0  0
    5.5748   52.5469   27.6068 H   0  0  0  0  0  0
    5.5560   54.2149   28.1843 H   0  0  0  0  0  0
    6.9561   54.9307   26.2523 H   0  0  0  0  0  0
    7.1119   53.2732   25.7234 H   0  0  0  0  0  0
    3.3105   55.2118   25.1514 H   0  0  0  0  0  0
    3.9036   55.0294   26.7942 H   0  0  0  0  0  0
    4.7050   56.1445   25.6819 H   0  0  0  0  0  0
    3.6738   53.4554   23.1096 H   0  0  0  0  0  0
    4.0611   53.9288   20.7603 H   0  0  0  0  0  0
    7.7998   55.8250   21.7737 H   0  0  0  0  0  0
    7.4136   55.3401   24.1073 H   0  0  0  0  0  0
    5.5450   52.5161   18.6589 H   0  0  0  0  0  0
    3.7022   52.2151   16.8992 H   0  0  0  0  0  0
    2.6712   54.5472   16.1496 H   0  0  0  0  0  0
    8.2235   54.6494   20.0208 H   0  0  0  0  0  0
   10.3671   55.6362   18.2176 H   0  0  0  0  0  0
    9.9818   54.0971   18.9377 H   0  0  0  0  0  0
    8.2445   52.2927   14.3900 H   0  0  0  0  0  0
    9.4490   52.5192   13.1590 H   0  0  0  0  0  0
    9.3621   50.2417   12.8834 H   0  0  0  0  0  0
    8.6700   49.9837   14.4857 H   0  0  0  0  0  0
   12.9618   52.0813   16.3840 H   0  0  0  0  0  0
   14.2397   49.9740   16.2956 H   0  0  0  0  0  0
   13.3279   48.0161   15.0838 H   0  0  0  0  0  0
   11.1482   48.1645   13.9559 H   0  0  0  0  0  0
   11.1422   54.0767   13.9228 H   0  0  0  0  0  0
  1  2  1  0  0  0
  1 38  1  0  0  0
  1 39  1  0  0  0
  1 40  1  0  0  0
  2  3  1  0  0  0
  2 41  1  0  0  0
  2 42  1  0  0  0
  3  4  1  0  0  0
  3  5  1  0  0  0
  3  6  1  0  0  0
  5 43  1  0  0  0
  5 44  1  0  0  0
  5 45  1  0  0  0
  6 11  2  0  0  0
  6  7  1  0  0  0
  7  8  2  0  0  0
  7 46  1  0  0  0
  8  9  1  0  0  0
  8 47  1  0  0  0
  9 10  2  0  0  0
  9 12  1  0  0  0
 10 11  1  0  0  0
 10 48  1  0  0  0
 11 49  1  0  0  0
 12 13  1  0  0  0
 12 14  1  0  0  0
 12 19  1  0  0  0
 14 18  1  0  0  0
 14 15  2  0  0  0
 15 16  1  0  0  0
 15 50  1  0  0  0
 16 17  2  0  0  0
 16 51  1  0  0  0
 17 18  1  0  0  0
 17 52  1  0  0  0
 19 20  1  0  0  0
 19 53  1  0  0  0
 20 21  2  0  0  0
 20 22  1  0  0  0
 22 23  1  0  0  0
 22 54  1  0  0  0
 22 55  1  0  0  0
 23 36  1  0  0  0
 23 24  1  0  0  0
 24 25  2  0  0  0
 24 26  1  0  0  0
 26 30  1  0  0  0
 26 27  1  0  0  0
 26 35  1  0  0  0
 27 28  1  0  0  0
 27 56  1  0  0  0
 27 57  1  0  0  0
 28 29  1  0  0  0
 28 58  1  0  0  0
 28 59  1  0  0  0
 29 34  2  0  0  0
 29 30  1  0  0  0
 30 31  2  0  0  0
 31 32  1  0  0  0
 31 60  1  0  0  0
 32 33  2  0  0  0
 32 61  1  0  0  0
 33 34  1  0  0  0
 33 62  1  0  0  0
 34 63  1  0  0  0
 35 36  1  0  0  0
 35 64  1  0  0  0
 36 37  2  0  0  0
M  END
> <i_i_glide_confnum>
41

> <i_i_glide_lignum>
6124

> <i_i_glide_posenum>
253

> <i_i_glide_rotatable_bonds>
8

> <i_m_Source_File_Index>
3663

> <b_m_subgroup_collapsed>
0

> <r_i_docking_score>
-4.54702

> <r_i_glide_ecoul>
-1.24536

> <r_i_glide_eff_state_penalty>
0

> <r_i_glide_einternal>
8.25508

> <r_i_glide_emodel>
-49.1322

> <r_i_glide_energy>
-40.009

> <r_i_glide_erotb>
0.513037

> <r_i_glide_esite>
0

> <r_i_glide_evdw>
-38.7636

> <r_i_glide_gscore>
-4.54702

> <r_i_glide_hbond>
0

> <r_i_glide_ligand_efficiency>
-0.129915

> <r_i_glide_ligand_efficiency_ln>
-0.998172

> <r_i_glide_ligand_efficiency_sa>
-0.42496

> <r_i_glide_lipo>
-2.53423

> <r_i_glide_metal>
0

> <r_i_glide_rewards>
-0.400843

> <s_i_glide_gridfile>
wee1_glide-grid

> <s_m_Source_File>
wee1_decoys_glide_SP.sdf

> <s_m_Source_Path>
/Users/zhangxujun/Desktop

> <s_m_entry_id>
3938

> <s_m_entry_name>
wee1_decoys_glide_SP.3663

> <s_m_subgroup_title>
wee1_decoys_glide_SP

> <s_m_subgroupid>
wee1_decoys_glide_SP


$$$$
