ZINC00659929_3807
                    3D
 Schrodinger Suite 2024-2.
 39 42  0  0  1  0            999 V2000
   -1.0282   48.7258   25.6817 C   0  0  0  0  0  0
   -0.3143   49.4538   24.5577 C   0  0  0  0  0  0
   -0.3328   48.8974   23.2737 C   0  0  0  0  0  0
    0.3450   49.5306   22.2324 C   0  0  0  0  0  0
    1.0355   50.6895   22.3726 N   0  0  0  0  0  0
    1.0479   51.2179   23.5972 C   0  0  0  0  0  0
    0.3964   50.6628   24.7409 C   0  0  0  0  0  0
    0.6185   51.4867   25.8876 C   0  0  0  0  0  0
    1.4558   52.5642   25.6498 C   0  0  0  0  0  0
    1.9037   52.7050   23.9624 S   0  0  0  0  0  0
    1.8797   53.5246   26.7580 C   0  0  1  0  0  0
    1.5050   54.4966   26.4818 H   0  0  0  0  0  0
    1.1084   53.1578   28.0396 C   0  0  0  0  0  0
    0.2868   52.0826   28.1055 C   0  0  0  0  0  0
    0.0523   51.1843   27.1065 O   0  0  0  0  0  0
   -0.4588   51.6967   29.1861 N   0  0  0  0  0  0
    1.2281   54.0314   29.1635 C   0  0  0  0  0  0
    1.3483   54.7314   30.0776 N   0  0  0  0  0  0
    3.3919   53.7685   26.8767 C   0  0  0  0  0  0
    4.1278   53.2969   27.9694 C   0  0  0  0  0  0
    5.4956   53.5440   28.0513 C   0  0  0  0  0  0
    6.1327   54.2629   27.0451 C   0  0  0  0  0  0
    5.4146   54.7422   25.9546 C   0  0  0  0  0  0
    4.0462   54.4981   25.8762 C   0  0  0  0  0  0
    7.4596   54.4964   27.1300 F   0  0  0  0  0  0
    0.3636   48.9372   20.8373 C   0  0  0  0  0  0
   -1.4784   47.7824   25.3651 H   0  0  0  0  0  0
   -0.3169   48.4969   26.4766 H   0  0  0  0  0  0
   -1.8102   49.3542   26.1114 H   0  0  0  0  0  0
   -0.8604   47.9727   23.0920 H   0  0  0  0  0  0
   -0.4140   52.1947   30.0619 H   0  0  0  0  0  0
   -0.8991   50.7847   29.1908 H   0  0  0  0  0  0
    3.6548   52.7225   28.7504 H   0  0  0  0  0  0
    6.0717   53.1743   28.8817 H   0  0  0  0  0  0
    5.9150   55.3006   25.1779 H   0  0  0  0  0  0
    3.4947   54.8841   25.0319 H   0  0  0  0  0  0
   -0.0991   47.9502   20.8147 H   0  0  0  0  0  0
   -0.1758   49.5833   20.1450 H   0  0  0  0  0  0
    1.3872   48.8321   20.4767 H   0  0  0  0  0  0
  1  2  1  0  0  0
  1 27  1  0  0  0
  1 28  1  0  0  0
  1 29  1  0  0  0
  2  7  2  0  0  0
  2  3  1  0  0  0
  3  4  2  0  0  0
  3 30  1  0  0  0
  4  5  1  0  0  0
  4 26  1  0  0  0
  5  6  2  0  0  0
  6 10  1  0  0  0
  6  7  1  0  0  0
  7  8  1  0  0  0
  8 15  1  0  0  0
  8  9  2  0  0  0
  9 10  1  0  0  0
  9 11  1  0  0  0
 11 12  1  0  0  0
 11 13  1  0  0  0
 11 19  1  0  0  0
 13 14  2  0  0  0
 13 17  1  0  0  0
 14 15  1  0  0  0
 14 16  1  0  0  0
 16 31  1  0  0  0
 16 32  1  0  0  0
 17 18  3  0  0  0
 19 24  2  0  0  0
 19 20  1  0  0  0
 20 21  2  0  0  0
 20 33  1  0  0  0
 21 22  1  0  0  0
 21 34  1  0  0  0
 22 23  2  0  0  0
 22 25  1  0  0  0
 23 24  1  0  0  0
 23 35  1  0  0  0
 24 36  1  0  0  0
 26 37  1  0  0  0
 26 38  1  0  0  0
 26 39  1  0  0  0
M  END
> <i_i_glide_confnum>
1

> <i_i_glide_lignum>
3808

> <i_i_glide_posenum>
258

> <i_i_glide_rotatable_bonds>
2

> <i_m_Source_File_Index>
4408

> <b_m_subgroup_collapsed>
0

> <r_i_docking_score>
-5.89846

> <r_i_glide_ecoul>
-2.69439

> <r_i_glide_eff_state_penalty>
0

> <r_i_glide_einternal>
3.42232

> <r_i_glide_emodel>
-48.9522

> <r_i_glide_energy>
-37.4846

> <r_i_glide_erotb>
0.154457

> <r_i_glide_esite>
-0.101415

> <r_i_glide_evdw>
-34.7902

> <r_i_glide_gscore>
-5.89846

> <r_i_glide_hbond>
-0.0103057

> <r_i_glide_ligand_efficiency>
-0.235938

> <r_i_glide_ligand_efficiency_ln>
-1.39811

> <r_i_glide_ligand_efficiency_sa>
-0.689888

> <r_i_glide_lipo>
-2.43832

> <r_i_glide_metal>
0

> <r_i_glide_rewards>
-1.3592

> <s_i_glide_gridfile>
wee1_glide-grid

> <s_m_Source_File>
wee1_decoys_glide_SP.sdf

> <s_m_Source_Path>
/Users/zhangxujun/Desktop

> <s_m_entry_id>
4683

> <s_m_entry_name>
wee1_decoys_glide_SP.4408

> <s_m_subgroup_title>
wee1_decoys_glide_SP

> <s_m_subgroupid>
wee1_decoys_glide_SP


$$$$
