ZINC15156285_3717
                    3D
 Schrodinger Suite 2024-2.
 56 59  0  0  1  0            999 V2000
    0.7186   51.3237   23.1546 C   0  0  0  0  0  0
    0.7044   52.8202   22.8028 C   0  0  0  0  0  0
    1.8919   53.4606   23.2570 O   0  0  0  0  0  0
    3.0291   53.4281   22.5250 C   0  0  0  0  0  0
    3.1034   52.9831   21.3762 O   0  0  0  0  0  0
    4.1926   53.9848   23.2468 C   0  0  0  0  0  0
    4.3495   54.1137   24.6590 C   0  0  0  0  0  0
    5.6300   54.5586   25.0384 C   0  0  0  0  0  0
    6.6276   54.9041   23.6760 S   0  0  0  0  0  0
    5.3395   54.4739   22.5864 C   0  0  0  0  0  0
    5.4624   54.5657   21.2029 N   0  0  0  0  0  0
    6.3127   55.3146   20.4710 C   0  0  0  0  0  0
    7.1618   56.0725   20.9461 O   0  0  0  0  0  0
    6.1074   55.2266   18.9431 C   0  0  2  0  0  0
    5.1878   54.6678   18.7712 H   0  0  0  0  0  0
    7.2323   54.4514   18.2493 C   0  0  0  0  0  0
    8.5638   54.8864   18.3269 C   0  0  0  0  0  0
    9.5709   54.1737   17.6815 C   0  0  0  0  0  0
    9.2523   53.0280   16.9576 C   0  0  0  0  0  0
    7.9331   52.5850   16.8754 C   0  0  0  0  0  0
    6.9241   53.2977   17.5174 C   0  0  0  0  0  0
    5.9358   56.8991   18.2080 S   0  0  0  0  0  0
    4.3903   56.8204   17.3513 C   0  0  0  0  0  0
    3.5689   55.7955   17.2933 N   0  0  0  0  0  0
    2.4144   56.0516   16.5626 N   0  0  0  0  0  0
    2.3978   57.2650   16.0819 C   0  0  0  0  0  0
    3.8014   58.2070   16.4812 S   0  0  0  0  0  0
    1.3922   57.7999   15.3363 N   0  0  0  0  0  0
    6.1658   54.6412   26.4677 C   0  0  0  0  0  0
    4.9979   54.4988   27.4791 C   0  0  1  0  0  0
    4.4581   55.4348   27.5513 H   0  0  0  0  0  0
    4.0392   53.3946   27.0462 C   0  0  0  0  0  0
    3.3262   53.7048   25.7266 C   0  0  0  0  0  0
    5.5414   54.1679   28.8777 C   0  0  0  0  0  0
   -0.2174   50.8460   22.8682 H   0  0  0  0  0  0
    1.5255   50.8040   22.6369 H   0  0  0  0  0  0
    0.8553   51.1728   24.2267 H   0  0  0  0  0  0
   -0.1462   53.2973   23.2885 H   0  0  0  0  0  0
    0.5641   52.9554   21.7280 H   0  0  0  0  0  0
    4.6977   54.1267   20.7050 H   0  0  0  0  0  0
    8.8205   55.7742   18.8848 H   0  0  0  0  0  0
   10.5970   54.5074   17.7512 H   0  0  0  0  0  0
   10.0340   52.4703   16.4632 H   0  0  0  0  0  0
    7.6911   51.6920   16.3193 H   0  0  0  0  0  0
    5.9070   52.9352   17.4498 H   0  0  0  0  0  0
    0.5756   57.2605   15.0944 H   0  0  0  0  0  0
    1.3795   58.7829   15.1078 H   0  0  0  0  0  0
    6.8807   53.8301   26.6153 H   0  0  0  0  0  0
    6.6929   55.5818   26.6376 H   0  0  0  0  0  0
    4.6308   52.4963   26.9753 H   0  0  0  0  0  0
    3.2978   53.1981   27.8225 H   0  0  0  0  0  0
    2.5916   54.4961   25.8654 H   0  0  0  0  0  0
    2.7632   52.8164   25.4393 H   0  0  0  0  0  0
    6.0341   53.1940   28.8818 H   0  0  0  0  0  0
    6.2741   54.8968   29.2052 H   0  0  0  0  0  0
    4.7428   54.1459   29.6208 H   0  0  0  0  0  0
  1  2  1  0  0  0
  1 35  1  0  0  0
  1 36  1  0  0  0
  1 37  1  0  0  0
  2  3  1  0  0  0
  2 38  1  0  0  0
  2 39  1  0  0  0
  3  4  1  0  0  0
  4  5  2  0  0  0
  4  6  1  0  0  0
  6 10  2  0  0  0
  6  7  1  0  0  0
  7 33  1  0  0  0
  7  8  2  0  0  0
  8  9  1  0  0  0
  8 29  1  0  0  0
  9 10  1  0  0  0
 10 11  1  0  0  0
 11 12  1  0  0  0
 11 40  1  0  0  0
 12 13  2  0  0  0
 12 14  1  0  0  0
 14 15  1  0  0  0
 14 16  1  0  0  0
 14 22  1  0  0  0
 16 21  2  0  0  0
 16 17  1  0  0  0
 17 18  2  0  0  0
 17 41  1  0  0  0
 18 19  1  0  0  0
 18 42  1  0  0  0
 19 20  2  0  0  0
 19 43  1  0  0  0
 20 21  1  0  0  0
 20 44  1  0  0  0
 21 45  1  0  0  0
 22 23  1  0  0  0
 23 27  1  0  0  0
 23 24  2  0  0  0
 24 25  1  0  0  0
 25 26  2  0  0  0
 26 27  1  0  0  0
 26 28  1  0  0  0
 28 46  1  0  0  0
 28 47  1  0  0  0
 29 30  1  0  0  0
 29 48  1  0  0  0
 29 49  1  0  0  0
 30 31  1  0  0  0
 30 32  1  0  0  0
 30 34  1  0  0  0
 32 33  1  0  0  0
 32 50  1  0  0  0
 32 51  1  0  0  0
 33 52  1  0  0  0
 33 53  1  0  0  0
 34 54  1  0  0  0
 34 55  1  0  0  0
 34 56  1  0  0  0
M  END
> <i_i_glide_confnum>
164

> <i_i_glide_lignum>
3718

> <i_i_glide_posenum>
75

> <i_i_glide_rotatable_bonds>
9

> <i_m_Source_File_Index>
1856

> <b_m_subgroup_collapsed>
0

> <r_i_docking_score>
-5.35746

> <r_i_glide_ecoul>
-1.95906

> <r_i_glide_eff_state_penalty>
0

> <r_i_glide_einternal>
5.28277

> <r_i_glide_emodel>
-60.9729

> <r_i_glide_energy>
-47.1782

> <r_i_glide_erotb>
0.681401

> <r_i_glide_esite>
-0.0115597

> <r_i_glide_evdw>
-45.2192

> <r_i_glide_gscore>
-5.35746

> <r_i_glide_hbond>
-0.0735344

> <r_i_glide_ligand_efficiency>
-0.167421

> <r_i_glide_ligand_efficiency_ln>
-1.19968

> <r_i_glide_ligand_efficiency_sa>
-0.531528

> <r_i_glide_lipo>
-2.90317

> <r_i_glide_metal>
0

> <r_i_glide_rewards>
-0.495788

> <s_i_glide_gridfile>
wee1_glide-grid

> <s_m_Source_File>
wee1_decoys_glide_SP.sdf

> <s_m_Source_Path>
/Users/zhangxujun/Desktop

> <s_m_entry_id>
2131

> <s_m_entry_name>
wee1_decoys_glide_SP.1856

> <s_m_subgroup_title>
wee1_decoys_glide_SP

> <s_m_subgroupid>
wee1_decoys_glide_SP


$$$$
