ZINC32535448_3013
                    3D
 Schrodinger Suite 2024-2.
 54 57  0  0  1  0            999 V2000
    4.4328   52.2541   29.7710 C   0  0  0  0  0  0
    5.2108   53.1124   28.7557 C   0  0  0  0  0  0
    4.3442   53.6811   27.6067 C   0  0  2  0  0  0
    3.7993   52.8351   27.1858 H   0  0  0  0  0  0
    5.1869   54.2644   26.4609 C   0  0  0  0  0  0
    6.2542   54.8338   26.7017 O   0  0  0  0  0  0
    4.6519   54.0967   25.2331 N   0  0  0  0  0  0
    5.1895   54.4324   24.0089 C   0  0  0  0  0  0
    4.5555   54.0965   22.9227 N   0  0  0  0  0  0
    5.2298   54.4965   21.8123 C   0  0  0  0  0  0
    4.7912   54.3034   20.4964 C   0  0  0  0  0  0
    5.5717   54.8095   19.4568 C   0  0  0  0  0  0
    6.7725   55.4770   19.7105 C   0  0  0  0  0  0
    7.2519   55.6422   21.0124 C   0  0  0  0  0  0
    6.4562   55.1691   22.0606 C   0  0  0  0  0  0
    6.7044   55.2885   23.7930 S   0  0  0  0  0  0
    7.6922   56.1448   18.3347 S   0  0  0  0  0  0
    8.8249   56.8970   18.8815 O   0  0  0  0  0  0
    7.8777   55.0525   17.3766 O   0  0  0  0  0  0
    6.6040   57.2966   17.6089 N   0  0  0  0  0  0
    3.1046   54.8967   28.1408 S   0  0  0  0  0  0
    1.7383   53.9291   28.6387 C   0  0  0  0  0  0
    0.9826   53.2387   27.6898 C   0  0  0  0  0  0
   -0.0606   52.4236   28.1603 C   0  0  0  0  0  0
   -0.2904   52.2973   29.5019 N   0  0  0  0  0  0
    0.5128   53.0126   30.3318 C   0  0  0  0  0  0
    1.5016   53.8551   29.9657 N   0  0  0  0  0  0
    0.3095   52.8439   31.8137 C   0  0  0  0  0  0
   -0.9883   51.6963   27.2333 C   0  0  0  0  0  0
   -0.6052   51.4053   25.9139 C   0  0  0  0  0  0
   -1.4724   50.7536   25.0411 C   0  0  0  0  0  0
   -2.7392   50.3804   25.4782 C   0  0  0  0  0  0
   -3.1402   50.6480   26.7826 C   0  0  0  0  0  0
   -2.2682   51.2967   27.6526 C   0  0  0  0  0  0
    5.1044   51.6966   30.4201 H   0  0  0  0  0  0
    3.8314   52.8764   30.4291 H   0  0  0  0  0  0
    3.7751   51.5356   29.2817 H   0  0  0  0  0  0
    6.0048   52.4969   28.3318 H   0  0  0  0  0  0
    5.7090   53.9314   29.2787 H   0  0  0  0  0  0
    3.7646   53.6228   25.1765 H   0  0  0  0  0  0
    3.8577   53.8004   20.2888 H   0  0  0  0  0  0
    5.2340   54.6866   18.4366 H   0  0  0  0  0  0
    8.2015   56.1191   21.2111 H   0  0  0  0  0  0
    6.8686   58.2804   17.7064 H   0  0  0  0  0  0
    6.2655   57.0372   16.6804 H   0  0  0  0  0  0
    1.1921   53.3567   26.6387 H   0  0  0  0  0  0
   -0.6401   53.2968   32.0826 H   0  0  0  0  0  0
    0.3044   51.7868   32.0807 H   0  0  0  0  0  0
    1.0967   53.3080   32.4050 H   0  0  0  0  0  0
    0.3757   51.6671   25.5492 H   0  0  0  0  0  0
   -1.1599   50.5313   24.0316 H   0  0  0  0  0  0
   -3.4106   49.8677   24.8053 H   0  0  0  0  0  0
   -4.1162   50.3390   27.1269 H   0  0  0  0  0  0
   -2.5977   51.4799   28.6649 H   0  0  0  0  0  0
  1  2  1  0  0  0
  1 35  1  0  0  0
  1 36  1  0  0  0
  1 37  1  0  0  0
  2  3  1  0  0  0
  2 38  1  0  0  0
  2 39  1  0  0  0
  3  4  1  0  0  0
  3  5  1  0  0  0
  3 21  1  0  0  0
  5  6  2  0  0  0
  5  7  1  0  0  0
  7  8  1  0  0  0
  7 40  1  0  0  0
  8 16  1  0  0  0
  8  9  2  0  0  0
  9 10  1  0  0  0
 10 15  2  0  0  0
 10 11  1  0  0  0
 11 12  2  0  0  0
 11 41  1  0  0  0
 12 13  1  0  0  0
 12 42  1  0  0  0
 13 14  2  0  0  0
 13 17  1  0  0  0
 14 15  1  0  0  0
 14 43  1  0  0  0
 15 16  1  0  0  0
 17 18  2  0  0  0
 17 19  2  0  0  0
 17 20  1  0  0  0
 20 44  1  0  0  0
 20 45  1  0  0  0
 21 22  1  0  0  0
 22 27  2  0  0  0
 22 23  1  0  0  0
 23 24  2  0  0  0
 23 46  1  0  0  0
 24 25  1  0  0  0
 24 29  1  0  0  0
 25 26  2  0  0  0
 26 27  1  0  0  0
 26 28  1  0  0  0
 28 47  1  0  0  0
 28 48  1  0  0  0
 28 49  1  0  0  0
 29 34  2  0  0  0
 29 30  1  0  0  0
 30 31  2  0  0  0
 30 50  1  0  0  0
 31 32  1  0  0  0
 31 51  1  0  0  0
 32 33  2  0  0  0
 32 52  1  0  0  0
 33 34  1  0  0  0
 33 53  1  0  0  0
 34 54  1  0  0  0
M  END
> <i_i_glide_confnum>
53

> <i_i_glide_lignum>
3014

> <i_i_glide_posenum>
101

> <i_i_glide_rotatable_bonds>
8

> <i_m_Source_File_Index>
3572

> <b_m_subgroup_collapsed>
0

> <r_i_docking_score>
-4.70959

> <r_i_glide_ecoul>
-2.3215

> <r_i_glide_eff_state_penalty>
0

> <r_i_glide_einternal>
9.8696

> <r_i_glide_emodel>
-61.5426

> <r_i_glide_energy>
-53.4785

> <r_i_glide_erotb>
0.490662

> <r_i_glide_esite>
-0.0271157

> <r_i_glide_evdw>
-51.157

> <r_i_glide_gscore>
-4.70959

> <r_i_glide_hbond>
0

> <r_i_glide_ligand_efficiency>
-0.142715

> <r_i_glide_ligand_efficiency_ln>
-1.04739

> <r_i_glide_ligand_efficiency_sa>
-0.457762

> <r_i_glide_lipo>
-2.47303

> <r_i_glide_metal>
0

> <r_i_glide_rewards>
0.205976

> <s_i_glide_gridfile>
wee1_glide-grid

> <s_m_Source_File>
wee1_decoys_glide_SP.sdf

> <s_m_Source_Path>
/Users/zhangxujun/Desktop

> <s_m_entry_id>
3847

> <s_m_entry_name>
wee1_decoys_glide_SP.3572

> <s_m_subgroup_title>
wee1_decoys_glide_SP

> <s_m_subgroupid>
wee1_decoys_glide_SP


$$$$
