ZINC12378763_4387
                    3D
 Schrodinger Suite 2024-2.
 42 44  0  0  1  0            999 V2000
    6.7044   57.6010   18.9227 C   0  0  0  0  0  0
    5.8613   56.8207   17.9077 C   0  0  0  0  0  0
    5.4109   55.6345   18.0570 N   0  0  0  0  0  0
    5.5044   55.0349   19.2843 N   0  3  0  0  0  0
    5.2686   53.7224   19.4242 C   0  0  0  0  0  0
    5.1364   52.8967   18.3869 N   0  0  0  0  0  0
    5.1044   53.0221   21.0175 S   0  0  0  0  0  0
    5.0333   54.4283   22.1854 C   0  0  2  0  0  0
    4.4776   55.2288   21.6963 H   0  0  0  0  0  0
    6.3715   54.8967   22.6799 C   0  0  0  0  0  0
    6.2449   54.8967   24.1889 C   0  0  0  0  0  0
    7.1044   55.3618   24.9361 O   0  0  0  0  0  0
    5.0472   54.3450   24.5433 N   0  0  0  0  0  0
    4.2758   54.0532   23.4498 C   0  0  0  0  0  0
    3.1471   53.5598   23.4327 O   0  0  0  0  0  0
    4.6671   54.0967   25.9042 C   0  0  0  0  0  0
    5.6288   53.7081   26.8567 C   0  0  0  0  0  0
    5.2724   53.4676   28.1771 C   0  0  0  0  0  0
    3.9451   53.5946   28.5706 C   0  0  0  0  0  0
    2.9718   53.9641   27.6472 C   0  0  0  0  0  0
    3.3303   54.2102   26.3239 C   0  0  0  0  0  0
    3.5044   53.2794   30.2086 Cl  0  0  0  0  0  0
    5.5928   57.5094   16.6345 C   0  0  0  0  0  0
    5.9717   58.8003   16.2543 C   0  0  0  0  0  0
    5.5220   59.1717   14.9840 C   0  0  0  0  0  0
    4.8063   58.1691   14.3536 C   0  0  0  0  0  0
    4.6753   56.7560   15.3460 S   0  0  0  0  0  0
    4.0016   58.2153   12.6303 Br  0  0  0  0  0  0
    6.2255   58.5468   19.1763 H   0  0  0  0  0  0
    6.9039   57.0605   19.8455 H   0  0  0  0  0  0
    7.6684   57.8612   18.4841 H   0  0  0  0  0  0
    5.1748   53.2894   17.4573 H   0  0  0  0  0  0
    5.1044   51.8705   18.4817 H   0  0  0  0  0  0
    7.1971   54.2357   22.4178 H   0  0  0  0  0  0
    6.6141   55.9050   22.3428 H   0  0  0  0  0  0
    6.6647   53.5666   26.5856 H   0  0  0  0  0  0
    6.0319   53.1715   28.8823 H   0  0  0  0  0  0
    1.9397   54.0564   27.9527 H   0  0  0  0  0  0
    2.5520   54.4967   25.6334 H   0  0  0  0  0  0
    6.5354   59.4774   16.8806 H   0  0  0  0  0  0
    5.7010   60.1469   14.5547 H   0  0  0  0  0  0
    5.6833   55.6173   20.0881 H   0  0  0  0  0  0
  1  2  1  0  0  0
  1 29  1  0  0  0
  1 30  1  0  0  0
  1 31  1  0  0  0
  2  3  2  0  0  0
  2 23  1  0  0  0
  3  4  1  0  0  0
  4  5  2  0  0  0
  4 42  1  0  0  0
  5  6  1  0  0  0
  5  7  1  0  0  0
  6 32  1  0  0  0
  6 33  1  0  0  0
  7  8  1  0  0  0
  8  9  1  0  0  0
  8 14  1  0  0  0
  8 10  1  0  0  0
 10 11  1  0  0  0
 10 34  1  0  0  0
 10 35  1  0  0  0
 11 12  2  0  0  0
 11 13  1  0  0  0
 13 14  1  0  0  0
 13 16  1  0  0  0
 14 15  2  0  0  0
 16 21  2  0  0  0
 16 17  1  0  0  0
 17 18  2  0  0  0
 17 36  1  0  0  0
 18 19  1  0  0  0
 18 37  1  0  0  0
 19 20  2  0  0  0
 19 22  1  0  0  0
 20 21  1  0  0  0
 20 38  1  0  0  0
 21 39  1  0  0  0
 23 27  1  0  0  0
 23 24  2  0  0  0
 24 25  1  0  0  0
 24 40  1  0  0  0
 25 26  2  0  0  0
 25 41  1  0  0  0
 26 27  1  0  0  0
 26 28  1  0  0  0
M  CHG  1   4   1
M  END
> <i_i_glide_confnum>
29

> <i_i_glide_lignum>
4388

> <i_i_glide_posenum>
53

> <i_i_glide_rotatable_bonds>
5

> <i_m_Source_File_Index>
5555

> <b_m_subgroup_collapsed>
0

> <r_i_docking_score>
-6.7326

> <r_i_glide_ecoul>
-6.28088

> <r_i_glide_eff_state_penalty>
0

> <r_i_glide_einternal>
4.23166

> <r_i_glide_emodel>
-60.6831

> <r_i_glide_energy>
-40.9615

> <r_i_glide_erotb>
0.343052

> <r_i_glide_esite>
-0.12906

> <r_i_glide_evdw>
-34.6807

> <r_i_glide_gscore>
-6.7326

> <r_i_glide_hbond>
-0.52

> <r_i_glide_ligand_efficiency>
-0.249356

> <r_i_glide_ligand_efficiency_ln>
-1.56724

> <r_i_glide_ligand_efficiency_sa>
-0.748067

> <r_i_glide_lipo>
-1.95048

> <r_i_glide_metal>
0

> <r_i_glide_rewards>
-1.79995

> <s_i_glide_gridfile>
wee1_glide-grid

> <s_m_Source_File>
wee1_decoys_glide_SP.sdf

> <s_m_Source_Path>
/Users/zhangxujun/Desktop

> <s_m_entry_id>
5830

> <s_m_entry_name>
wee1_decoys_glide_SP.5555

> <s_m_subgroup_title>
wee1_decoys_glide_SP

> <s_m_subgroupid>
wee1_decoys_glide_SP


$$$$
