ZINC09319148_3916
                    3D
 Schrodinger Suite 2024-2.
 38 40  0  0  1  0            999 V2000
    4.5773   54.0954   22.1390 C   0  0  0  0  0  0
    4.8521   54.2998   20.7897 C   0  0  0  0  0  0
    6.0484   54.9053   20.4135 C   0  0  0  0  0  0
    6.9765   55.2971   21.3762 C   0  0  0  0  0  0
    6.7047   55.0918   22.7258 C   0  0  0  0  0  0
    5.4942   54.4966   23.1153 C   0  0  0  0  0  0
    5.1027   54.2720   24.4479 N   0  0  0  0  0  0
    5.6835   54.6683   25.6055 C   0  0  0  0  0  0
    6.7387   55.2998   25.6841 O   0  0  0  0  0  0
    4.9683   54.3062   26.8196 C   0  0  0  0  0  0
    5.4708   54.4950   28.1105 C   0  0  0  0  0  0
    4.3035   53.9822   29.2818 S   0  0  0  0  0  0
    3.2466   53.5470   27.9694 C   0  0  0  0  0  0
    3.7408   53.7925   26.7798 N   0  0  0  0  0  0
    1.9880   52.9720   28.1179 N   0  0  0  0  0  0
    1.3855   52.5401   29.2518 C   0  0  0  0  0  0
    1.8273   52.7204   30.3852 O   0  0  0  0  0  0
    0.2113   51.8839   29.0976 N   0  0  0  0  0  0
   -0.4154   51.4065   27.9271 C   0  0  0  0  0  0
    0.3037   50.8981   26.8386 C   0  0  0  0  0  0
   -0.3649   50.4243   25.7132 C   0  0  0  0  0  0
   -1.7575   50.4371   25.6829 C   0  0  0  0  0  0
   -2.4831   50.8993   26.7792 C   0  0  0  0  0  0
   -1.8113   51.3702   27.9057 C   0  0  0  0  0  0
   -2.5895   49.8546   24.2873 Cl  0  0  0  0  0  0
    6.3929   55.1625   18.7433 Cl  0  0  0  0  0  0
    3.6392   53.6339   22.4136 H   0  0  0  0  0  0
    4.1359   53.9952   20.0391 H   0  0  0  0  0  0
    7.9119   55.7498   21.0790 H   0  0  0  0  0  0
    7.4525   55.4034   23.4378 H   0  0  0  0  0  0
    4.2397   53.7615   24.5491 H   0  0  0  0  0  0
    6.4257   54.8968   28.4183 H   0  0  0  0  0  0
    1.4914   52.7871   27.2599 H   0  0  0  0  0  0
   -0.3070   51.7227   29.9494 H   0  0  0  0  0  0
    1.3778   50.8313   26.8816 H   0  0  0  0  0  0
    0.1943   50.0292   24.8779 H   0  0  0  0  0  0
   -3.5625   50.8739   26.7653 H   0  0  0  0  0  0
   -2.3821   51.6967   28.7622 H   0  0  0  0  0  0
  1  6  2  0  0  0
  1  2  1  0  0  0
  1 27  1  0  0  0
  2  3  2  0  0  0
  2 28  1  0  0  0
  3  4  1  0  0  0
  3 26  1  0  0  0
  4  5  2  0  0  0
  4 29  1  0  0  0
  5  6  1  0  0  0
  5 30  1  0  0  0
  6  7  1  0  0  0
  7  8  1  0  0  0
  7 31  1  0  0  0
  8  9  2  0  0  0
  8 10  1  0  0  0
 10 14  1  0  0  0
 10 11  2  0  0  0
 11 12  1  0  0  0
 11 32  1  0  0  0
 12 13  1  0  0  0
 13 14  2  0  0  0
 13 15  1  0  0  0
 15 16  1  0  0  0
 15 33  1  0  0  0
 16 17  2  0  0  0
 16 18  1  0  0  0
 18 19  1  0  0  0
 18 34  1  0  0  0
 19 24  2  0  0  0
 19 20  1  0  0  0
 20 21  2  0  0  0
 20 35  1  0  0  0
 21 22  1  0  0  0
 21 36  1  0  0  0
 22 23  2  0  0  0
 22 25  1  0  0  0
 23 24  1  0  0  0
 23 37  1  0  0  0
 24 38  1  0  0  0
M  END
> <i_i_glide_confnum>
13

> <i_i_glide_lignum>
3917

> <i_i_glide_posenum>
247

> <i_i_glide_rotatable_bonds>
7

> <i_m_Source_File_Index>
1001

> <b_m_subgroup_collapsed>
0

> <r_i_docking_score>
-5.01901

> <r_i_glide_ecoul>
-6.13304

> <r_i_glide_eff_state_penalty>
0

> <r_i_glide_einternal>
7.89217

> <r_i_glide_emodel>
-58.2912

> <r_i_glide_energy>
-49.5903

> <r_i_glide_erotb>
0.711521

> <r_i_glide_esite>
0

> <r_i_glide_evdw>
-43.4573

> <r_i_glide_gscore>
-5.01901

> <r_i_glide_hbond>
-0.32

> <r_i_glide_ligand_efficiency>
-0.193039

> <r_i_glide_ligand_efficiency_ln>
-1.1787

> <r_i_glide_ligand_efficiency_sa>
-0.571877

> <r_i_glide_lipo>
-1.8718

> <r_i_glide_metal>
0

> <r_i_glide_rewards>
-0.445916

> <s_i_glide_gridfile>
wee1_glide-grid

> <s_m_Source_File>
wee1_decoys_glide_SP.sdf

> <s_m_Source_Path>
/Users/zhangxujun/Desktop

> <s_m_entry_id>
1276

> <s_m_entry_name>
wee1_decoys_glide_SP.1001

> <s_m_subgroup_title>
wee1_decoys_glide_SP

> <s_m_subgroupid>
wee1_decoys_glide_SP


$$$$
