ZINC39529487_5350
                    3D
 Schrodinger Suite 2024-2.
 53 55  0  0  1  0            999 V2000
    1.7294   52.4085   28.9893 C   0  0  0  0  0  0
    1.3485   53.5299   27.9937 C   0  0  0  0  0  0
    1.6197   54.9384   28.5550 C   0  0  0  0  0  0
    1.8202   53.2974   26.5213 C   0  0  0  0  0  0
    3.2526   53.6653   26.0635 C   0  0  0  0  0  0
    4.2580   53.6967   27.0411 C   0  0  0  0  0  0
    5.5814   53.9688   26.7238 C   0  0  0  0  0  0
    5.9185   54.3292   25.4339 C   0  0  0  0  0  0
    4.9445   54.3054   24.4479 C   0  0  0  0  0  0
    3.6124   53.9027   24.6950 C   0  0  0  0  0  0
    2.7796   53.7097   23.5677 N   0  0  0  0  0  0
    1.6060   52.8119   23.4838 C   0  0  0  0  0  0
    1.6250   51.7919   22.3274 C   0  0  0  0  0  0
    1.8475   52.4957   20.9836 N   0  3  0  0  0  0
    3.0911   53.3898   21.0236 C   0  0  1  0  0  0
    3.1049   53.9090   20.0674 H   0  0  0  0  0  0
    3.0163   54.3355   22.2444 C   0  0  0  0  0  0
    4.6272   52.2647   20.9414 S   0  0  0  0  0  0
    5.5037   52.5074   22.0860 O   0  0  0  0  0  0
    4.1900   50.8998   20.6346 O   0  0  0  0  0  0
    5.3651   52.8968   19.5734 O   0  0  0  0  0  0
    5.6051   54.2426   19.4453 C   0  0  0  0  0  0
    5.1755   54.8716   18.2761 C   0  0  0  0  0  0
    5.4238   56.2283   18.0775 C   0  0  0  0  0  0
    6.1096   56.9492   19.0519 C   0  0  0  0  0  0
    6.5409   56.3286   20.2225 C   0  0  0  0  0  0
    6.2958   54.9736   20.4167 C   0  0  0  0  0  0
    7.0867   53.7066   28.1450 I   0  0  0  0  0  0
    2.7758   52.4156   29.2869 H   0  0  0  0  0  0
    1.5078   51.4226   28.5802 H   0  0  0  0  0  0
    1.1457   52.5025   29.9059 H   0  0  0  0  0  0
    0.2607   53.4623   27.9379 H   0  0  0  0  0  0
    2.6831   55.1571   28.6563 H   0  0  0  0  0  0
    1.1799   55.6964   27.9100 H   0  0  0  0  0  0
    1.1680   55.0618   29.5399 H   0  0  0  0  0  0
    1.6945   52.2307   26.3395 H   0  0  0  0  0  0
    1.1066   53.8149   25.8797 H   0  0  0  0  0  0
    4.0485   53.4506   28.0637 H   0  0  0  0  0  0
    6.9438   54.5513   25.1745 H   0  0  0  0  0  0
    5.3117   54.5144   23.4594 H   0  0  0  0  0  0
    1.4668   52.2112   24.3709 H   0  0  0  0  0  0
    0.7395   53.4689   23.3958 H   0  0  0  0  0  0
    2.4234   51.0585   22.4418 H   0  0  0  0  0  0
    0.6774   51.2623   22.2285 H   0  0  0  0  0  0
    1.9457   51.8089   20.2456 H   0  0  0  0  0  0
    2.1808   55.0099   22.0851 H   0  0  0  0  0  0
    3.8679   55.0067   22.2212 H   0  0  0  0  0  0
    4.6583   54.3005   17.5179 H   0  0  0  0  0  0
    5.0955   56.7144   17.1700 H   0  0  0  0  0  0
    6.3046   58.0011   18.8910 H   0  0  0  0  0  0
    7.0717   56.8865   20.9768 H   0  0  0  0  0  0
    6.6567   54.4993   21.3163 H   0  0  0  0  0  0
    1.0492   53.0747   20.7571 H   0  0  0  0  0  0
  1  2  1  0  0  0
  1 29  1  0  0  0
  1 30  1  0  0  0
  1 31  1  0  0  0
  2  3  1  0  0  0
  2  4  1  0  0  0
  2 32  1  0  0  0
  3 33  1  0  0  0
  3 34  1  0  0  0
  3 35  1  0  0  0
  4  5  1  0  0  0
  4 36  1  0  0  0
  4 37  1  0  0  0
  5 10  2  0  0  0
  5  6  1  0  0  0
  6  7  2  0  0  0
  6 38  1  0  0  0
  7  8  1  0  0  0
  7 28  1  0  0  0
  8  9  2  0  0  0
  8 39  1  0  0  0
  9 10  1  0  0  0
  9 40  1  0  0  0
 10 11  1  0  0  0
 11 17  1  0  0  0
 11 12  1  0  0  0
 12 13  1  0  0  0
 12 41  1  0  0  0
 12 42  1  0  0  0
 13 14  1  0  0  0
 13 43  1  0  0  0
 13 44  1  0  0  0
 14 15  1  0  0  0
 14 45  1  0  0  0
 14 53  1  0  0  0
 15 16  1  0  0  0
 15 17  1  0  0  0
 15 18  1  0  0  0
 17 46  1  0  0  0
 17 47  1  0  0  0
 18 19  2  0  0  0
 18 20  2  0  0  0
 18 21  1  0  0  0
 21 22  1  0  0  0
 22 27  2  0  0  0
 22 23  1  0  0  0
 23 24  2  0  0  0
 23 48  1  0  0  0
 24 25  1  0  0  0
 24 49  1  0  0  0
 25 26  2  0  0  0
 25 50  1  0  0  0
 26 27  1  0  0  0
 26 51  1  0  0  0
 27 52  1  0  0  0
M  CHG  1  14   1
M  END
> <i_i_glide_confnum>
451

> <i_i_glide_lignum>
5351

> <i_i_glide_posenum>
380

> <i_i_glide_rotatable_bonds>
6

> <i_m_Source_File_Index>
3558

> <b_m_subgroup_collapsed>
0

> <r_i_docking_score>
-5.13091

> <r_i_glide_ecoul>
-0.321444

> <r_i_glide_eff_state_penalty>
0

> <r_i_glide_einternal>
8.54901

> <r_i_glide_emodel>
-47.3757

> <r_i_glide_energy>
-37.0812

> <r_i_glide_erotb>
0.406242

> <r_i_glide_esite>
-0.105497

> <r_i_glide_evdw>
-36.7597

> <r_i_glide_gscore>
-5.13091

> <r_i_glide_hbond>
0

> <r_i_glide_ligand_efficiency>
-0.190034

> <r_i_glide_ligand_efficiency_ln>
-1.19439

> <r_i_glide_ligand_efficiency_sa>
-0.570101

> <r_i_glide_lipo>
-3.08195

> <r_i_glide_metal>
0

> <r_i_glide_rewards>
-0.463502

> <s_i_glide_gridfile>
wee1_glide-grid

> <s_m_Source_File>
wee1_decoys_glide_SP.sdf

> <s_m_Source_Path>
/Users/zhangxujun/Desktop

> <s_m_entry_id>
3833

> <s_m_entry_name>
wee1_decoys_glide_SP.3558

> <s_m_subgroup_title>
wee1_decoys_glide_SP

> <s_m_subgroupid>
wee1_decoys_glide_SP


$$$$
