ZINC38905634_4851
                    3D
 Schrodinger Suite 2024-2.
 60 63  0  0  1  0            999 V2000
    3.9978   53.3661   30.2689 C   0  0  0  0  0  0
    3.3322   53.6989   28.9192 C   0  0  1  0  0  0
    2.7879   54.6335   29.0731 H   0  0  0  0  0  0
    4.3470   53.9908   27.8053 C   0  0  0  0  0  0
    5.7242   53.7855   27.9712 C   0  0  0  0  0  0
    6.6103   54.0940   26.9491 C   0  0  0  0  0  0
    6.1461   54.6025   25.7402 C   0  0  0  0  0  0
    4.7687   54.7993   25.5629 C   0  0  0  0  0  0
    3.8806   54.4962   26.5888 C   0  0  0  0  0  0
    7.1044   54.8756   24.7890 O   0  0  0  0  0  0
    6.7038   55.5023   23.5776 C   0  0  0  0  0  0
    2.3403   52.7197   28.4625 N   0  0  0  0  0  0
    1.3900   52.0967   29.1821 C   0  0  0  0  0  0
    1.3133   52.1536   30.4082 O   0  0  0  0  0  0
    0.3150   51.2970   28.4294 C   0  0  1  0  0  0
    0.0548   50.4968   29.1197 H   0  0  0  0  0  0
   -0.9119   52.2041   28.2474 C   0  0  0  0  0  0
   -2.0339   51.4307   27.5261 C   0  0  0  0  0  0
   -1.5577   50.8303   26.1906 C   0  0  0  0  0  0
   -0.3558   49.8940   26.4810 N   0  3  2  0  0  0
    0.8151   50.6859   27.1011 C   0  0  0  0  0  0
    0.1155   49.1508   25.2012 C   0  0  0  0  0  0
   -0.9456   48.1689   24.7473 C   0  0  0  0  0  0
   -1.8753   47.6111   25.4670 N   0  0  0  0  0  0
   -2.5588   46.9256   24.5789 C   0  0  0  0  0  0
   -2.1175   47.0005   23.3373 N   0  0  0  0  0  0
   -1.0126   47.8452   23.4339 O   0  0  0  0  0  0
   -3.7370   46.0964   24.9816 C   0  0  0  0  0  0
   -3.8585   45.6573   26.3102 C   0  0  0  0  0  0
   -4.8958   44.8064   26.6762 C   0  0  0  0  0  0
   -5.8379   44.4159   25.7308 C   0  0  0  0  0  0
   -5.7509   44.8708   24.4170 C   0  0  0  0  0  0
   -4.6991   45.7039   24.0424 C   0  0  0  0  0  0
   -7.2420   43.2356   26.2365 Br  0  0  0  0  0  0
    4.6818   54.1697   30.5376 H   0  0  0  0  0  0
    3.2947   53.2830   31.0888 H   0  0  0  0  0  0
    4.5483   52.4265   30.2237 H   0  0  0  0  0  0
    6.1420   53.3887   28.8818 H   0  0  0  0  0  0
    7.6658   53.9321   27.0999 H   0  0  0  0  0  0
    4.3706   55.1886   24.6387 H   0  0  0  0  0  0
    2.8241   54.6580   26.4384 H   0  0  0  0  0  0
    7.5469   55.6251   22.9034 H   0  0  0  0  0  0
    6.3141   56.4966   23.7923 H   0  0  0  0  0  0
    5.9554   54.9157   23.0439 H   0  0  0  0  0  0
    2.2867   52.6329   27.4594 H   0  0  0  0  0  0
   -1.2980   52.4983   29.2254 H   0  0  0  0  0  0
   -0.6826   53.0724   27.6238 H   0  0  0  0  0  0
   -2.4054   50.6312   28.1697 H   0  0  0  0  0  0
   -2.8849   52.0872   27.3426 H   0  0  0  0  0  0
   -2.3571   50.2277   25.7602 H   0  0  0  0  0  0
   -1.2373   51.5829   25.4671 H   0  0  0  0  0  0
    1.1047   51.4232   26.3493 H   0  0  0  0  0  0
    1.6021   49.9535   27.2816 H   0  0  0  0  0  0
    0.3394   49.9222   24.4633 H   0  0  0  0  0  0
    1.0362   48.6272   25.4686 H   0  0  0  0  0  0
   -3.1297   45.9387   27.0596 H   0  0  0  0  0  0
   -4.9513   44.4346   27.6877 H   0  0  0  0  0  0
   -6.4893   44.5665   23.6897 H   0  0  0  0  0  0
   -4.6373   46.0384   23.0158 H   0  0  0  0  0  0
   -0.6783   49.1872   27.1526 H   0  0  0  0  0  0
  1  2  1  0  0  0
  1 35  1  0  0  0
  1 36  1  0  0  0
  1 37  1  0  0  0
  2  3  1  0  0  0
  2  4  1  0  0  0
  2 12  1  0  0  0
  4  9  2  0  0  0
  4  5  1  0  0  0
  5  6  2  0  0  0
  5 38  1  0  0  0
  6  7  1  0  0  0
  6 39  1  0  0  0
  7  8  2  0  0  0
  7 10  1  0  0  0
  8  9  1  0  0  0
  8 40  1  0  0  0
  9 41  1  0  0  0
 10 11  1  0  0  0
 11 42  1  0  0  0
 11 43  1  0  0  0
 11 44  1  0  0  0
 12 13  1  0  0  0
 12 45  1  0  0  0
 13 14  2  0  0  0
 13 15  1  0  0  0
 15 16  1  0  0  0
 15 21  1  0  0  0
 15 17  1  0  0  0
 17 18  1  0  0  0
 17 46  1  0  0  0
 17 47  1  0  0  0
 18 19  1  0  0  0
 18 48  1  0  0  0
 18 49  1  0  0  0
 19 20  1  0  0  0
 19 50  1  0  0  0
 19 51  1  0  0  0
 20 21  1  0  0  0
 20 22  1  0  0  0
 20 60  1  0  0  0
 21 52  1  0  0  0
 21 53  1  0  0  0
 22 23  1  0  0  0
 22 54  1  0  0  0
 22 55  1  0  0  0
 23 27  1  0  0  0
 23 24  2  0  0  0
 24 25  1  0  0  0
 25 26  2  0  0  0
 25 28  1  0  0  0
 26 27  1  0  0  0
 28 33  2  0  0  0
 28 29  1  0  0  0
 29 30  2  0  0  0
 29 56  1  0  0  0
 30 31  1  0  0  0
 30 57  1  0  0  0
 31 32  2  0  0  0
 31 34  1  0  0  0
 32 33  1  0  0  0
 32 58  1  0  0  0
 33 59  1  0  0  0
M  CHG  1  20   1
M  END
> <i_i_glide_confnum>
212

> <i_i_glide_lignum>
4852

> <i_i_glide_posenum>
333

> <i_i_glide_rotatable_bonds>
8

> <i_m_Source_File_Index>
4550

> <b_m_subgroup_collapsed>
0

> <r_i_docking_score>
-4.70292

> <r_i_glide_ecoul>
-2.79869

> <r_i_glide_eff_state_penalty>
0

> <r_i_glide_einternal>
10.7881

> <r_i_glide_emodel>
-53.3081

> <r_i_glide_energy>
-41.9548

> <r_i_glide_erotb>
0.570812

> <r_i_glide_esite>
-0.187192

> <r_i_glide_evdw>
-39.1561

> <r_i_glide_gscore>
-4.70292

> <r_i_glide_hbond>
-0.35575

> <r_i_glide_ligand_efficiency>
-0.146966

> <r_i_glide_ligand_efficiency_ln>
-1.05311

> <r_i_glide_ligand_efficiency_sa>
-0.466589

> <r_i_glide_lipo>
-2.07974

> <r_i_glide_metal>
0

> <r_i_glide_rewards>
-0.273435

> <s_i_glide_gridfile>
wee1_glide-grid

> <s_m_Source_File>
wee1_decoys_glide_SP.sdf

> <s_m_Source_Path>
/Users/zhangxujun/Desktop

> <s_m_entry_id>
4825

> <s_m_entry_name>
wee1_decoys_glide_SP.4550

> <s_m_subgroup_title>
wee1_decoys_glide_SP

> <s_m_subgroupid>
wee1_decoys_glide_SP


$$$$
