ZINC12820483_2244
                    3D
 Schrodinger Suite 2024-2.
 57 59  0  0  1  0            999 V2000
    5.7881   54.4924   27.8577 C   0  0  0  0  0  0
    4.9611   54.3833   26.5879 C   0  0  0  0  0  0
    5.4138   54.8069   25.3274 C   0  0  0  0  0  0
    4.2462   54.4672   24.0839 S   0  0  0  0  0  0
    3.1553   53.8055   25.2293 C   0  0  0  0  0  0
    3.6583   53.8321   26.5166 C   0  0  0  0  0  0
    2.8238   53.2988   27.5973 C   0  0  0  0  0  0
    3.1698   53.2527   28.7795 O   0  0  0  0  0  0
    1.5635   52.8869   27.1339 N   0  0  0  0  0  0
    1.2080   52.8000   25.7744 C   0  0  0  0  0  0
    1.9540   53.3046   24.8595 N   0  0  0  0  0  0
   -0.3179   52.0622   25.1200 S   0  0  0  0  0  0
   -0.3068   50.3999   25.8825 C   0  0  0  0  0  0
   -0.8627   49.2729   24.9866 C   0  0  0  0  0  0
   -0.8198   49.3543   23.7575 O   0  0  0  0  0  0
   -1.3731   48.2385   25.6819 N   0  0  0  0  0  0
   -2.0386   47.1405   25.2808 C   0  0  0  0  0  0
   -2.2396   46.7711   24.1226 O   0  0  0  0  0  0
   -2.4966   46.4975   26.3684 N   0  0  0  0  0  0
   -3.6459   45.5965   26.4462 C   0  0  0  0  0  0
   -4.7886   46.1488   27.3360 C   0  0  0  0  0  0
   -4.3103   46.5062   28.7620 C   0  0  0  0  0  0
   -5.5182   47.3366   26.6770 C   0  0  0  0  0  0
    0.4935   52.7058   28.1685 C   0  0  0  0  0  0
    0.7221   51.5925   29.2167 C   0  0  0  0  0  0
    0.3293   52.1778   30.5831 C   0  0  0  0  0  0
    0.5603   53.6790   30.4471 C   0  0  0  0  0  0
    0.1823   53.9758   28.9962 C   0  0  0  0  0  0
    6.7208   55.4615   24.9520 C   0  0  0  0  0  0
    6.8030   54.8614   27.6989 H   0  0  0  0  0  0
    5.3070   55.1402   28.5925 H   0  0  0  0  0  0
    5.8795   53.5213   28.3483 H   0  0  0  0  0  0
   -0.9037   50.4526   26.7932 H   0  0  0  0  0  0
    0.7045   50.1234   26.1750 H   0  0  0  0  0  0
   -1.3072   48.3312   26.6949 H   0  0  0  0  0  0
   -2.0890   46.7586   27.2602 H   0  0  0  0  0  0
   -3.2937   44.6567   26.8809 H   0  0  0  0  0  0
   -4.0297   45.3640   25.4486 H   0  0  0  0  0  0
   -5.5190   45.3444   27.4359 H   0  0  0  0  0  0
   -3.6965   47.4074   28.7666 H   0  0  0  0  0  0
   -3.6972   45.7107   29.1853 H   0  0  0  0  0  0
   -5.1453   46.6803   29.4371 H   0  0  0  0  0  0
   -4.8571   48.1945   26.5464 H   0  0  0  0  0  0
   -5.9019   47.0653   25.6931 H   0  0  0  0  0  0
   -6.3626   47.6628   27.2845 H   0  0  0  0  0  0
   -0.4712   52.4904   27.7093 H   0  0  0  0  0  0
    0.1039   50.7234   28.9863 H   0  0  0  0  0  0
    1.7579   51.2574   29.2517 H   0  0  0  0  0  0
   -0.7246   51.9733   30.7934 H   0  0  0  0  0  0
    0.9079   51.7548   31.4067 H   0  0  0  0  0  0
   -0.0334   54.2514   31.1601 H   0  0  0  0  0  0
    1.6048   53.9256   30.6245 H   0  0  0  0  0  0
    0.6253   54.8941   28.6068 H   0  0  0  0  0  0
   -0.8941   54.0984   28.9990 H   0  0  0  0  0  0
    7.1058   56.0874   25.7553 H   0  0  0  0  0  0
    7.4775   54.7157   24.7104 H   0  0  0  0  0  0
    6.6227   56.1047   24.0773 H   0  0  0  0  0  0
  1  2  1  0  0  0
  1 30  1  0  0  0
  1 31  1  0  0  0
  1 32  1  0  0  0
  2  6  1  0  0  0
  2  3  2  0  0  0
  3  4  1  0  0  0
  3 29  1  0  0  0
  4  5  1  0  0  0
  5 11  1  0  0  0
  5  6  2  0  0  0
  6  7  1  0  0  0
  7  8  2  0  0  0
  7  9  1  0  0  0
  9 10  1  0  0  0
  9 24  1  0  0  0
 10 11  2  0  0  0
 10 12  1  0  0  0
 12 13  1  0  0  0
 13 14  1  0  0  0
 13 33  1  0  0  0
 13 34  1  0  0  0
 14 15  2  0  0  0
 14 16  1  0  0  0
 16 17  1  0  0  0
 16 35  1  0  0  0
 17 18  2  0  0  0
 17 19  1  0  0  0
 19 20  1  0  0  0
 19 36  1  0  0  0
 20 21  1  0  0  0
 20 37  1  0  0  0
 20 38  1  0  0  0
 21 22  1  0  0  0
 21 23  1  0  0  0
 21 39  1  0  0  0
 22 40  1  0  0  0
 22 41  1  0  0  0
 22 42  1  0  0  0
 23 43  1  0  0  0
 23 44  1  0  0  0
 23 45  1  0  0  0
 24 28  1  0  0  0
 24 25  1  0  0  0
 24 46  1  0  0  0
 25 26  1  0  0  0
 25 47  1  0  0  0
 25 48  1  0  0  0
 26 27  1  0  0  0
 26 49  1  0  0  0
 26 50  1  0  0  0
 27 28  1  0  0  0
 27 51  1  0  0  0
 27 52  1  0  0  0
 28 53  1  0  0  0
 28 54  1  0  0  0
 29 55  1  0  0  0
 29 56  1  0  0  0
 29 57  1  0  0  0
M  END
> <i_i_glide_confnum>
60

> <i_i_glide_lignum>
2245

> <i_i_glide_posenum>
279

> <i_i_glide_rotatable_bonds>
9

> <i_m_Source_File_Index>
5836

> <b_m_subgroup_collapsed>
0

> <r_i_docking_score>
-6.42106

> <r_i_glide_ecoul>
-9.18186

> <r_i_glide_eff_state_penalty>
0

> <r_i_glide_einternal>
4.54593

> <r_i_glide_emodel>
-69.9918

> <r_i_glide_energy>
-50.1606

> <r_i_glide_erotb>
0.836631

> <r_i_glide_esite>
-0.341173

> <r_i_glide_evdw>
-40.9788

> <r_i_glide_gscore>
-6.42106

> <r_i_glide_hbond>
-0.291441

> <r_i_glide_ligand_efficiency>
-0.221416

> <r_i_glide_ligand_efficiency_ln>
-1.47026

> <r_i_glide_ligand_efficiency_sa>
-0.680259

> <r_i_glide_lipo>
-2.41664

> <r_i_glide_metal>
0

> <r_i_glide_rewards>
-0.782219

> <s_i_glide_gridfile>
wee1_glide-grid

> <s_m_Source_File>
wee1_decoys_glide_SP.sdf

> <s_m_Source_Path>
/Users/zhangxujun/Desktop

> <s_m_entry_id>
6111

> <s_m_entry_name>
wee1_decoys_glide_SP.5836

> <s_m_subgroup_title>
wee1_decoys_glide_SP

> <s_m_subgroupid>
wee1_decoys_glide_SP


$$$$
