ZINC39665287_639
                    3D
 Schrodinger Suite 2024-2.
 63 66  0  0  1  0            999 V2000
    2.5500   49.7140   20.8349 C   0  0  0  0  0  0
    1.6618   50.9698   20.7554 C   0  0  1  0  0  0
    1.5272   51.2551   19.7110 H   0  0  0  0  0  0
    0.2413   50.7171   21.3104 C   0  0  0  0  0  0
    0.2012   50.5368   22.7674 N   0  0  0  0  0  0
   -0.0831   51.5181   23.6376 C   0  0  0  0  0  0
   -0.3525   52.6670   23.2820 O   0  0  0  0  0  0
    0.0442   51.1717   25.1383 C   0  0  1  0  0  0
    0.5761   50.2231   25.2480 H   0  0  0  0  0  0
    0.9013   52.2772   25.7815 C   0  0  0  0  0  0
    0.5129   52.2398   27.1905 N   0  0  0  0  0  0
   -0.7329   51.4777   27.3778 C   0  0  0  0  0  0
   -1.2765   51.1543   25.9583 C   0  0  0  0  0  0
   -2.3358   52.2117   25.5052 C   0  0  0  0  0  0
   -3.5860   52.2366   26.4134 C   0  0  0  0  0  0
   -4.2067   50.8217   26.4544 N   0  3  0  0  0  0
   -3.1972   49.7125   26.8186 C   0  0  0  0  0  0
   -2.0157   49.7999   25.8341 C   0  0  0  0  0  0
    1.2759   52.6354   28.2486 C   0  0  0  0  0  0
    0.8671   52.5200   29.4060 O   0  0  0  0  0  0
    2.6811   53.1746   28.0217 C   0  0  0  0  0  0
    2.9957   54.0255   26.9450 C   0  0  0  0  0  0
    4.3161   54.3980   26.6867 C   0  0  0  0  0  0
    5.3364   54.0032   27.5407 C   0  0  0  0  0  0
    5.0354   53.2126   28.6400 C   0  0  0  0  0  0
    3.7277   52.7925   28.8838 C   0  0  0  0  0  0
    3.5101   51.9817   29.9475 F   0  0  0  0  0  0
    4.7126   55.2968   25.2780 Cl  0  0  0  0  0  0
    2.2603   52.0494   21.4829 O   0  0  0  0  0  0
    3.3424   52.7447   20.9779 C   0  0  0  0  0  0
    3.8903   53.7253   21.8084 C   0  0  0  0  0  0
    4.9707   54.4943   21.3818 C   0  0  0  0  0  0
    5.5045   54.2844   20.1148 C   0  0  0  0  0  0
    4.9812   53.3001   19.2797 C   0  0  0  0  0  0
    3.9025   52.5344   19.7086 C   0  0  0  0  0  0
    2.0832   48.8633   20.3376 H   0  0  0  0  0  0
    3.5041   49.8864   20.3399 H   0  0  0  0  0  0
    2.7546   49.4331   21.8703 H   0  0  0  0  0  0
   -0.4041   51.5440   21.0081 H   0  0  0  0  0  0
   -0.1857   49.8302   20.8431 H   0  0  0  0  0  0
    0.4476   49.6264   23.1241 H   0  0  0  0  0  0
    1.9568   52.0950   25.5814 H   0  0  0  0  0  0
    0.5708   53.2515   25.4120 H   0  0  0  0  0  0
   -1.4489   51.8923   28.0852 H   0  0  0  0  0  0
   -0.4247   50.5245   27.8151 H   0  0  0  0  0  0
   -1.8850   53.2050   25.5276 H   0  0  0  0  0  0
   -2.6379   52.0588   24.4682 H   0  0  0  0  0  0
   -3.3724   52.4961   27.4457 H   0  0  0  0  0  0
   -4.3598   52.9070   26.0354 H   0  0  0  0  0  0
   -4.9758   50.8014   27.1124 H   0  0  0  0  0  0
   -2.9035   49.8878   27.8552 H   0  0  0  0  0  0
   -3.7243   48.7597   26.7586 H   0  0  0  0  0  0
   -2.3225   49.6035   24.8054 H   0  0  0  0  0  0
   -1.3264   48.9888   26.0830 H   0  0  0  0  0  0
    2.2351   54.3907   26.2745 H   0  0  0  0  0  0
    6.3579   54.2936   27.3465 H   0  0  0  0  0  0
    5.8397   52.8971   29.2810 H   0  0  0  0  0  0
    3.4650   53.8931   22.7866 H   0  0  0  0  0  0
    5.3923   55.2471   22.0290 H   0  0  0  0  0  0
    6.3407   54.8797   19.7768 H   0  0  0  0  0  0
    5.4076   53.1228   18.3024 H   0  0  0  0  0  0
    3.5226   51.7850   19.0312 H   0  0  0  0  0  0
   -4.5994   50.6084   25.5468 H   0  0  0  0  0  0
  1  2  1  0  0  0
  1 36  1  0  0  0
  1 37  1  0  0  0
  1 38  1  0  0  0
  2  3  1  0  0  0
  2  4  1  0  0  0
  2 29  1  0  0  0
  4  5  1  0  0  0
  4 39  1  0  0  0
  4 40  1  0  0  0
  5  6  1  0  0  0
  5 41  1  0  0  0
  6  7  2  0  0  0
  6  8  1  0  0  0
  8  9  1  0  0  0
  8 13  1  0  0  0
  8 10  1  0  0  0
 10 11  1  0  0  0
 10 42  1  0  0  0
 10 43  1  0  0  0
 11 12  1  0  0  0
 11 19  1  0  0  0
 12 13  1  0  0  0
 12 44  1  0  0  0
 12 45  1  0  0  0
 13 18  1  0  0  0
 13 14  1  0  0  0
 14 15  1  0  0  0
 14 46  1  0  0  0
 14 47  1  0  0  0
 15 16  1  0  0  0
 15 48  1  0  0  0
 15 49  1  0  0  0
 16 17  1  0  0  0
 16 50  1  0  0  0
 16 63  1  0  0  0
 17 18  1  0  0  0
 17 51  1  0  0  0
 17 52  1  0  0  0
 18 53  1  0  0  0
 18 54  1  0  0  0
 19 20  2  0  0  0
 19 21  1  0  0  0
 21 26  2  0  0  0
 21 22  1  0  0  0
 22 23  2  0  0  0
 22 55  1  0  0  0
 23 24  1  0  0  0
 23 28  1  0  0  0
 24 25  2  0  0  0
 24 56  1  0  0  0
 25 26  1  0  0  0
 25 57  1  0  0  0
 26 27  1  0  0  0
 29 30  1  0  0  0
 30 35  2  0  0  0
 30 31  1  0  0  0
 31 32  2  0  0  0
 31 58  1  0  0  0
 32 33  1  0  0  0
 32 59  1  0  0  0
 33 34  2  0  0  0
 33 60  1  0  0  0
 34 35  1  0  0  0
 34 61  1  0  0  0
 35 62  1  0  0  0
M  CHG  1  16   1
M  END
> <i_i_glide_confnum>
159

> <i_i_glide_lignum>
640

> <i_i_glide_posenum>
193

> <i_i_glide_rotatable_bonds>
8

> <i_m_Source_File_Index>
2471

> <b_m_subgroup_collapsed>
0

> <r_i_docking_score>
-4.71669

> <r_i_glide_ecoul>
-4.44189

> <r_i_glide_eff_state_penalty>
0

> <r_i_glide_einternal>
9.66505

> <r_i_glide_emodel>
-51.4219

> <r_i_glide_energy>
-41.9171

> <r_i_glide_erotb>
0.627978

> <r_i_glide_esite>
-0.0185291

> <r_i_glide_evdw>
-37.4752

> <r_i_glide_gscore>
-4.71669

> <r_i_glide_hbond>
0

> <r_i_glide_ligand_efficiency>
-0.14293

> <r_i_glide_ligand_efficiency_ln>
-1.04897

> <r_i_glide_ligand_efficiency_sa>
-0.458453

> <r_i_glide_lipo>
-1.94317

> <r_i_glide_metal>
0

> <r_i_glide_rewards>
-0.842929

> <s_i_glide_gridfile>
wee1_glide-grid

> <s_m_Source_File>
wee1_decoys_glide_SP.sdf

> <s_m_Source_Path>
/Users/zhangxujun/Desktop

> <s_m_entry_id>
2746

> <s_m_entry_name>
wee1_decoys_glide_SP.2471

> <s_m_subgroup_title>
wee1_decoys_glide_SP

> <s_m_subgroupid>
wee1_decoys_glide_SP


$$$$
