ZINC20568368_5362
                    3D
 Schrodinger Suite 2024-2.
 61 65  0  0  1  0            999 V2000
   -1.2962   47.1370   24.9735 C   0  0  0  0  0  0
   -1.8099   48.5503   24.6345 C   0  0  1  0  0  0
   -1.4421   48.9674   23.2068 C   0  0  0  0  0  0
   -1.6163   50.4782   23.3236 C   0  0  1  0  0  0
   -1.1450   50.9917   22.4839 H   0  0  0  0  0  0
   -3.1270   50.8455   23.3813 C   0  0  0  0  0  0
   -4.0489   49.9745   24.3135 C   0  0  0  0  0  0
   -3.3577   48.6474   24.8015 C   0  0  0  0  0  0
   -4.3884   50.8112   25.5710 C   0  0  0  0  0  0
   -5.3558   49.6307   23.5573 C   0  0  0  0  0  0
   -0.8604   50.7504   24.5421 N   0  0  0  0  0  0
   -1.0959   49.6420   25.4723 C   0  0  0  0  0  0
   -0.9068   52.1145   25.0735 C   0  0  0  0  0  0
    0.2783   52.4967   25.8542 N   0  0  0  0  0  0
    0.4282   52.3918   27.2241 C   0  0  0  0  0  0
   -0.4693   51.9164   28.1848 C   0  0  0  0  0  0
   -0.0752   51.8791   29.5221 C   0  0  0  0  0  0
    1.2114   52.2892   29.8829 C   0  0  0  0  0  0
    2.0853   52.7946   28.9178 C   0  0  0  0  0  0
    1.6813   52.8500   27.5815 C   0  0  0  0  0  0
    2.3472   53.2971   26.3768 C   0  0  0  0  0  0
    3.5366   53.7865   26.2992 N   0  0  0  0  0  0
    3.9956   54.0964   25.0653 N   0  0  0  0  0  0
    5.2772   54.3941   24.7867 C   0  0  0  0  0  0
    6.1482   54.5930   25.6410 O   0  0  0  0  0  0
    5.5961   54.4967   23.3113 C   0  0  0  0  0  0
    6.7046   55.2463   22.8983 C   0  0  0  0  0  0
    6.9515   55.4194   21.5365 C   0  0  0  0  0  0
    6.1545   54.8967   20.5732 N   0  0  0  0  0  0
    5.0962   54.1467   20.9711 C   0  0  0  0  0  0
    4.7845   53.9207   22.3143 C   0  0  0  0  0  0
    1.3840   53.0276   25.2803 C   0  0  0  0  0  0
    1.5616   53.2602   24.0795 O   0  0  0  0  0  0
    1.7982   52.0991   31.6815 Br  0  0  0  0  0  0
   -1.7235   46.3852   24.3116 H   0  0  0  0  0  0
   -0.2123   47.0765   24.8800 H   0  0  0  0  0  0
   -1.5531   46.8652   25.9986 H   0  0  0  0  0  0
   -2.0780   48.5207   22.4406 H   0  0  0  0  0  0
   -0.4078   48.7120   22.9637 H   0  0  0  0  0  0
   -3.3340   51.9150   23.4377 H   0  0  0  0  0  0
   -3.4080   50.5975   22.3563 H   0  0  0  0  0  0
   -3.6900   47.8640   24.1169 H   0  0  0  0  0  0
   -3.7276   48.3034   25.7699 H   0  0  0  0  0  0
   -5.1066   50.2926   26.2067 H   0  0  0  0  0  0
   -3.5221   51.0177   26.1921 H   0  0  0  0  0  0
   -4.8353   51.7707   25.3075 H   0  0  0  0  0  0
   -6.0406   49.0591   24.1851 H   0  0  0  0  0  0
   -5.8824   50.5325   23.2399 H   0  0  0  0  0  0
   -5.1630   49.0350   22.6644 H   0  0  0  0  0  0
   -0.1263   49.2763   25.8137 H   0  0  0  0  0  0
   -1.6877   49.9099   26.3454 H   0  0  0  0  0  0
   -1.8097   52.2833   25.6581 H   0  0  0  0  0  0
   -0.9954   52.8008   24.2267 H   0  0  0  0  0  0
   -1.4524   51.5582   27.9178 H   0  0  0  0  0  0
   -0.7562   51.4960   30.2708 H   0  0  0  0  0  0
    3.0756   53.1140   29.2081 H   0  0  0  0  0  0
    3.3208   53.9500   24.3235 H   0  0  0  0  0  0
    7.3562   55.7080   23.6235 H   0  0  0  0  0  0
    7.8042   55.9898   21.1993 H   0  0  0  0  0  0
    4.4810   53.7313   20.1850 H   0  0  0  0  0  0
    3.9149   53.3247   22.5527 H   0  0  0  0  0  0
  1  2  1  0  0  0
  1 35  1  0  0  0
  1 36  1  0  0  0
  1 37  1  0  0  0
  2  8  1  0  0  0
  2 12  1  0  0  0
  2  3  1  0  0  0
  3  4  1  0  0  0
  3 38  1  0  0  0
  3 39  1  0  0  0
  4  5  1  0  0  0
  4  6  1  0  0  0
  4 11  1  0  0  0
  6  7  1  0  0  0
  6 40  1  0  0  0
  6 41  1  0  0  0
  7  8  1  0  0  0
  7  9  1  0  0  0
  7 10  1  0  0  0
  8 42  1  0  0  0
  8 43  1  0  0  0
  9 44  1  0  0  0
  9 45  1  0  0  0
  9 46  1  0  0  0
 10 47  1  0  0  0
 10 48  1  0  0  0
 10 49  1  0  0  0
 11 12  1  0  0  0
 11 13  1  0  0  0
 12 50  1  0  0  0
 12 51  1  0  0  0
 13 14  1  0  0  0
 13 52  1  0  0  0
 13 53  1  0  0  0
 14 32  1  0  0  0
 14 15  1  0  0  0
 15 20  2  0  0  0
 15 16  1  0  0  0
 16 17  2  0  0  0
 16 54  1  0  0  0
 17 18  1  0  0  0
 17 55  1  0  0  0
 18 19  2  0  0  0
 18 34  1  0  0  0
 19 20  1  0  0  0
 19 56  1  0  0  0
 20 21  1  0  0  0
 21 22  2  0  0  0
 21 32  1  0  0  0
 22 23  1  0  0  0
 23 24  1  0  0  0
 23 57  1  0  0  0
 24 25  2  0  0  0
 24 26  1  0  0  0
 26 31  2  0  0  0
 26 27  1  0  0  0
 27 28  2  0  0  0
 27 58  1  0  0  0
 28 29  1  0  0  0
 28 59  1  0  0  0
 29 30  2  0  0  0
 30 31  1  0  0  0
 30 60  1  0  0  0
 31 61  1  0  0  0
 32 33  2  0  0  0
M  END
> <i_i_glide_confnum>
44

> <i_i_glide_lignum>
5363

> <i_i_glide_posenum>
337

> <i_i_glide_rotatable_bonds>
5

> <i_m_Source_File_Index>
5120

> <b_m_subgroup_collapsed>
0

> <r_i_docking_score>
-4.36028

> <r_i_glide_ecoul>
-2.52056

> <r_i_glide_eff_state_penalty>
0

> <r_i_glide_einternal>
5.70766

> <r_i_glide_emodel>
-56.0077

> <r_i_glide_energy>
-46.5697

> <r_i_glide_erotb>
0.314529

> <r_i_glide_esite>
-0.00023101

> <r_i_glide_evdw>
-44.0491

> <r_i_glide_gscore>
-4.36028

> <r_i_glide_hbond>
0

> <r_i_glide_ligand_efficiency>
-0.13213

> <r_i_glide_ligand_efficiency_ln>
-0.969705

> <r_i_glide_ligand_efficiency_sa>
-0.423811

> <r_i_glide_lipo>
-1.2175

> <r_i_glide_metal>
0

> <r_i_glide_rewards>
-0.876548

> <s_i_glide_gridfile>
wee1_glide-grid

> <s_m_Source_File>
wee1_decoys_glide_SP.sdf

> <s_m_Source_Path>
/Users/zhangxujun/Desktop

> <s_m_entry_id>
5395

> <s_m_entry_name>
wee1_decoys_glide_SP.5120

> <s_m_subgroup_title>
wee1_decoys_glide_SP

> <s_m_subgroupid>
wee1_decoys_glide_SP


$$$$
