ZINC31807884_798
                    3D
 Schrodinger Suite 2024-2.
 59 62  0  0  1  0            999 V2000
    4.8293   54.7423   25.2619 C   0  0  0  0  0  0
    3.6362   54.0966   25.9513 C   0  0  0  0  0  0
    2.5681   53.6219   25.1865 C   0  0  0  0  0  0
    1.5254   53.0377   25.8047 N   0  3  0  0  0  0
    1.4172   52.8935   27.1438 C   0  0  0  0  0  0
    2.4582   53.3780   27.9584 C   0  0  0  0  0  0
    3.5899   53.9633   27.3505 C   0  0  0  0  0  0
    4.6441   54.4157   28.1070 O   0  0  0  0  0  0
    5.6150   53.4204   28.4114 C   0  0  0  0  0  0
    2.3629   53.2690   29.4774 C   0  0  0  0  0  0
    0.1583   52.2051   27.7004 C   0  0  0  0  0  0
   -0.6115   51.4566   26.6917 N   0  0  0  0  0  0
    0.0680   50.1883   26.3824 C   0  0  0  0  0  0
   -0.6361   49.4571   25.2307 C   0  0  0  0  0  0
   -2.0993   49.1439   25.6332 N   0  3  0  0  0  0
   -2.8133   50.4418   26.0858 C   0  0  0  0  0  0
   -1.9767   51.1759   27.1622 C   0  0  0  0  0  0
   -2.9652   48.3720   24.5713 C   0  0  1  0  0  0
   -3.9863   48.5419   24.9140 H   0  0  0  0  0  0
   -2.7694   48.8691   23.1287 C   0  0  0  0  0  0
   -1.6404   48.7917   22.3211 C   0  0  0  0  0  0
   -1.8987   49.2885   21.0710 N   0  0  0  0  0  0
   -1.2000   49.3248   20.3420 H   0  0  0  0  0  0
   -3.2235   49.6463   20.9835 C   0  0  0  0  0  0
   -3.8051   49.3789   22.2641 C   0  0  0  0  0  0
   -5.1778   49.6159   22.4309 C   0  0  0  0  0  0
   -5.9229   50.0971   21.3545 C   0  0  0  0  0  0
   -5.3256   50.3699   20.1260 C   0  0  0  0  0  0
   -3.9642   50.1546   19.9117 C   0  0  0  0  0  0
   -6.3869   51.0765   18.7137 Br  0  0  0  0  0  0
   -2.6974   46.8452   24.6693 C   0  0  0  0  0  0
   -1.6958   46.4160   25.2818 O   0  0  0  0  0  0
   -3.5087   46.0960   24.0812 O   0  5  0  0  0  0
    5.7293   54.1414   25.4124 H   0  0  0  0  0  0
    4.6739   54.8642   24.1873 H   0  0  0  0  0  0
    5.0223   55.7286   25.6844 H   0  0  0  0  0  0
    2.5149   53.6701   24.1069 H   0  0  0  0  0  0
    6.4792   53.8906   28.8823 H   0  0  0  0  0  0
    5.2178   52.6733   29.1015 H   0  0  0  0  0  0
    5.9747   52.9072   27.5167 H   0  0  0  0  0  0
    3.1193   53.8683   29.9863 H   0  0  0  0  0  0
    1.3920   53.6305   29.8215 H   0  0  0  0  0  0
    2.4607   52.2299   29.7941 H   0  0  0  0  0  0
   -0.4630   52.9903   28.1387 H   0  0  0  0  0  0
    0.4352   51.5318   28.5158 H   0  0  0  0  0  0
    0.0668   49.5692   27.2804 H   0  0  0  0  0  0
    1.1044   50.3557   26.0994 H   0  0  0  0  0  0
   -0.1486   48.4981   25.0524 H   0  0  0  0  0  0
   -0.6462   50.0696   24.3299 H   0  0  0  0  0  0
   -2.9885   51.0425   25.1908 H   0  0  0  0  0  0
   -3.7621   50.1181   26.5213 H   0  0  0  0  0  0
   -2.4924   52.0965   27.4381 H   0  0  0  0  0  0
   -1.9038   50.5447   28.0518 H   0  0  0  0  0  0
   -0.6539   48.4060   22.5409 H   0  0  0  0  0  0
   -5.6547   49.4138   23.3767 H   0  0  0  0  0  0
   -6.9807   50.2801   21.4797 H   0  0  0  0  0  0
   -3.5176   50.3560   18.9504 H   0  0  0  0  0  0
   -2.0389   48.5477   26.4590 H   0  0  0  0  0  0
    0.7608   52.6790   25.2474 H   0  0  0  0  0  0
  1  2  1  0  0  0
  1 34  1  0  0  0
  1 35  1  0  0  0
  1 36  1  0  0  0
  2  7  2  0  0  0
  2  3  1  0  0  0
  3  4  2  0  0  0
  3 37  1  0  0  0
  4  5  1  0  0  0
  4 59  1  0  0  0
  5  6  2  0  0  0
  5 11  1  0  0  0
  6  7  1  0  0  0
  6 10  1  0  0  0
  7  8  1  0  0  0
  8  9  1  0  0  0
  9 38  1  0  0  0
  9 39  1  0  0  0
  9 40  1  0  0  0
 10 41  1  0  0  0
 10 42  1  0  0  0
 10 43  1  0  0  0
 11 12  1  0  0  0
 11 44  1  0  0  0
 11 45  1  0  0  0
 12 17  1  0  0  0
 12 13  1  0  0  0
 13 14  1  0  0  0
 13 46  1  0  0  0
 13 47  1  0  0  0
 14 15  1  0  0  0
 14 48  1  0  0  0
 14 49  1  0  0  0
 15 16  1  0  0  0
 15 18  1  0  0  0
 15 58  1  0  0  0
 16 17  1  0  0  0
 16 50  1  0  0  0
 16 51  1  0  0  0
 17 52  1  0  0  0
 17 53  1  0  0  0
 18 19  1  0  0  0
 18 20  1  0  0  0
 18 31  1  0  0  0
 20 25  1  0  0  0
 20 21  2  0  0  0
 21 22  1  0  0  0
 21 54  1  0  0  0
 22 23  1  0  0  0
 22 24  1  0  0  0
 24 29  2  0  0  0
 24 25  1  0  0  0
 25 26  2  0  0  0
 26 27  1  0  0  0
 26 55  1  0  0  0
 27 28  2  0  0  0
 27 56  1  0  0  0
 28 29  1  0  0  0
 28 30  1  0  0  0
 29 57  1  0  0  0
 31 32  2  0  0  0
 31 33  1  0  0  0
M  CHG  3   4   1  15   1  33  -1
M  END
> <i_i_glide_confnum>
16

> <i_i_glide_lignum>
799

> <i_i_glide_posenum>
338

> <i_i_glide_rotatable_bonds>
6

> <i_m_Source_File_Index>
3393

> <b_m_subgroup_collapsed>
0

> <r_i_docking_score>
-3.57639

> <r_i_glide_ecoul>
-2.28019

> <r_i_glide_eff_state_penalty>
0

> <r_i_glide_einternal>
4.47828

> <r_i_glide_emodel>
-37.9204

> <r_i_glide_energy>
-30.2921

> <r_i_glide_erotb>
0.341022

> <r_i_glide_esite>
-0.156539

> <r_i_glide_evdw>
-28.0119

> <r_i_glide_gscore>
-3.57639

> <r_i_glide_hbond>
-0.222289

> <r_i_glide_ligand_efficiency>
-0.115367

> <r_i_glide_ligand_efficiency_ln>
-0.806585

> <r_i_glide_ligand_efficiency_sa>
-0.362413

> <r_i_glide_lipo>
-1.71685

> <r_i_glide_metal>
0

> <r_i_glide_rewards>
-0.0791085

> <s_i_glide_gridfile>
wee1_glide-grid

> <s_m_Source_File>
wee1_decoys_glide_SP.sdf

> <s_m_Source_Path>
/Users/zhangxujun/Desktop

> <s_m_entry_id>
3668

> <s_m_entry_name>
wee1_decoys_glide_SP.3393

> <s_m_subgroup_title>
wee1_decoys_glide_SP

> <s_m_subgroupid>
wee1_decoys_glide_SP


$$$$
