ZINC32217780_731
                    3D
 Schrodinger Suite 2024-2.
 66 69  0  0  1  0            999 V2000
    6.8374   55.4584   26.0446 C   0  0  0  0  0  0
    5.5623   54.7447   26.3780 C   0  0  0  0  0  0
    4.7398   54.3484   25.3363 C   0  0  0  0  0  0
    3.5553   53.6967   25.6194 C   0  0  0  0  0  0
    3.1586   53.4395   26.9334 C   0  0  0  0  0  0
    3.9896   53.8465   27.9939 C   0  0  0  0  0  0
    5.1940   54.4967   27.7039 C   0  0  0  0  0  0
    3.6120   53.6106   29.4482 C   0  0  0  0  0  0
    1.5888   52.6115   27.2076 S   0  0  0  0  0  0
    0.7034   53.6598   27.7185 O   0  0  0  0  0  0
    1.8734   51.4315   28.0337 O   0  0  0  0  0  0
    1.0096   52.0822   25.5946 N   0  0  0  0  0  0
    0.6756   50.6657   25.3301 C   0  0  0  0  0  0
    1.2250   50.2248   23.9524 C   0  0  0  0  0  0
    0.9205   51.2480   22.8154 C   0  0  0  0  0  0
    0.8499   52.7620   23.1937 C   0  0  0  0  0  0
    0.4086   53.0480   24.6475 C   0  0  0  0  0  0
    1.7381   50.9441   21.5340 C   0  0  0  0  0  0
    1.6694   49.8276   21.0223 O   0  0  0  0  0  0
    2.5536   51.9075   21.0634 N   0  0  0  0  0  0
    3.4787   51.8056   19.9334 C   0  0  0  0  0  0
    3.0367   52.6370   18.6881 C   0  0  1  0  0  0
    2.0901   53.1479   18.8819 H   0  0  0  0  0  0
    4.1042   53.6208   18.2166 C   0  0  0  0  0  0
    5.4878   53.4538   18.1170 C   0  0  0  0  0  0
    6.1796   54.5781   17.6605 C   0  0  0  0  0  0
    5.3358   55.6371   17.3816 C   0  0  0  0  0  0
    3.6816   55.2304   17.6822 S   0  0  0  0  0  0
    2.7044   51.6934   17.5028 N   0  3  0  0  0  0
    1.5919   50.6630   17.7728 C   0  0  0  0  0  0
    1.1890   50.1754   16.3840 C   0  0  0  0  0  0
    1.4946   51.3154   15.4117 C   0  0  0  0  0  0
    2.2467   52.3883   16.2034 C   0  0  0  0  0  0
    7.1043   56.0926   26.8794 H   0  0  0  0  0  0
    7.6056   54.7179   25.8423 H   0  0  0  0  0  0
    6.7225   56.0972   25.1683 H   0  0  0  0  0  0
    5.0223   54.5279   24.3092 H   0  0  0  0  0  0
    2.9758   53.3719   24.7857 H   0  0  0  0  0  0
    5.8435   54.8192   28.5063 H   0  0  0  0  0  0
    4.2783   54.1355   30.1328 H   0  0  0  0  0  0
    2.5981   53.9639   29.6400 H   0  0  0  0  0  0
    3.6432   52.5460   29.6780 H   0  0  0  0  0  0
   -0.4114   50.5719   25.3338 H   0  0  0  0  0  0
    1.0432   50.0322   26.1381 H   0  0  0  0  0  0
    0.8168   49.2370   23.7299 H   0  0  0  0  0  0
    2.3047   50.1523   24.0817 H   0  0  0  0  0  0
   -0.1031   50.9858   22.5423 H   0  0  0  0  0  0
    1.8371   53.2089   23.1279 H   0  0  0  0  0  0
    0.1954   53.2965   22.5172 H   0  0  0  0  0  0
   -0.6770   52.9625   24.7235 H   0  0  0  0  0  0
    0.7044   54.0612   24.9241 H   0  0  0  0  0  0
    2.5692   52.7852   21.5598 H   0  0  0  0  0  0
    3.6802   50.7627   19.6819 H   0  0  0  0  0  0
    4.4488   52.1484   20.2956 H   0  0  0  0  0  0
    5.9818   52.5248   18.3694 H   0  0  0  0  0  0
    7.2524   54.6127   17.5333 H   0  0  0  0  0  0
    5.5966   56.6190   17.0107 H   0  0  0  0  0  0
    1.9902   49.8805   18.4187 H   0  0  0  0  0  0
    0.7941   51.1924   18.2962 H   0  0  0  0  0  0
    1.7748   49.2910   16.1265 H   0  0  0  0  0  0
    0.1390   49.8830   16.3547 H   0  0  0  0  0  0
    0.5795   51.7266   14.9834 H   0  0  0  0  0  0
    2.1028   50.9577   14.5794 H   0  0  0  0  0  0
    1.5913   53.2073   16.5059 H   0  0  0  0  0  0
    3.1284   52.7969   15.7064 H   0  0  0  0  0  0
    3.5503   51.1586   17.3062 H   0  0  0  0  0  0
  1  2  1  0  0  0
  1 34  1  0  0  0
  1 35  1  0  0  0
  1 36  1  0  0  0
  2  7  2  0  0  0
  2  3  1  0  0  0
  3  4  2  0  0  0
  3 37  1  0  0  0
  4  5  1  0  0  0
  4 38  1  0  0  0
  5  6  2  0  0  0
  5  9  1  0  0  0
  6  7  1  0  0  0
  6  8  1  0  0  0
  7 39  1  0  0  0
  8 40  1  0  0  0
  8 41  1  0  0  0
  8 42  1  0  0  0
  9 10  2  0  0  0
  9 11  2  0  0  0
  9 12  1  0  0  0
 12 17  1  0  0  0
 12 13  1  0  0  0
 13 14  1  0  0  0
 13 43  1  0  0  0
 13 44  1  0  0  0
 14 15  1  0  0  0
 14 45  1  0  0  0
 14 46  1  0  0  0
 15 16  1  0  0  0
 15 18  1  0  0  0
 15 47  1  0  0  0
 16 17  1  0  0  0
 16 48  1  0  0  0
 16 49  1  0  0  0
 17 50  1  0  0  0
 17 51  1  0  0  0
 18 19  2  0  0  0
 18 20  1  0  0  0
 20 21  1  0  0  0
 20 52  1  0  0  0
 21 22  1  0  0  0
 21 53  1  0  0  0
 21 54  1  0  0  0
 22 23  1  0  0  0
 22 24  1  0  0  0
 22 29  1  0  0  0
 24 28  1  0  0  0
 24 25  2  0  0  0
 25 26  1  0  0  0
 25 55  1  0  0  0
 26 27  2  0  0  0
 26 56  1  0  0  0
 27 28  1  0  0  0
 27 57  1  0  0  0
 29 33  1  0  0  0
 29 30  1  0  0  0
 29 66  1  0  0  0
 30 31  1  0  0  0
 30 58  1  0  0  0
 30 59  1  0  0  0
 31 32  1  0  0  0
 31 60  1  0  0  0
 31 61  1  0  0  0
 32 33  1  0  0  0
 32 62  1  0  0  0
 32 63  1  0  0  0
 33 64  1  0  0  0
 33 65  1  0  0  0
M  CHG  1  29   1
M  END
> <i_i_glide_confnum>
16

> <i_i_glide_lignum>
732

> <i_i_glide_posenum>
380

> <i_i_glide_rotatable_bonds>
8

> <i_m_Source_File_Index>
1076

> <b_m_subgroup_collapsed>
0

> <r_i_docking_score>
-2.06685

> <r_i_glide_ecoul>
-2.60272

> <r_i_glide_eff_state_penalty>
0

> <r_i_glide_einternal>
10.8543

> <r_i_glide_emodel>
-30.4574

> <r_i_glide_energy>
-35.6756

> <r_i_glide_erotb>
0.713016

> <r_i_glide_esite>
-0.0888708

> <r_i_glide_evdw>
-33.0729

> <r_i_glide_gscore>
-2.06685

> <r_i_glide_hbond>
-0.254653

> <r_i_glide_ligand_efficiency>
-0.064589

> <r_i_glide_ligand_efficiency_ln>
-0.462823

> <r_i_glide_ligand_efficiency_sa>
-0.205057

> <r_i_glide_lipo>
-1.99499

> <r_i_glide_metal>
0

> <r_i_glide_rewards>
1.60271

> <s_i_glide_gridfile>
wee1_glide-grid

> <s_m_Source_File>
wee1_decoys_glide_SP.sdf

> <s_m_Source_Path>
/Users/zhangxujun/Desktop

> <s_m_entry_id>
1351

> <s_m_entry_name>
wee1_decoys_glide_SP.1076

> <s_m_subgroup_title>
wee1_decoys_glide_SP

> <s_m_subgroupid>
wee1_decoys_glide_SP


$$$$
