ZINC35476887_3476
                    3D
 Schrodinger Suite 2024-2.
 57 60  0  0  1  0            999 V2000
    2.2976   48.6754   20.1713 C   0  0  0  0  0  0
    2.3361   50.1408   20.5542 C   0  0  0  0  0  0
    2.8462   51.1254   19.7042 C   0  0  0  0  0  0
    2.8452   52.4593   20.1175 C   0  0  0  0  0  0
    2.3163   52.7891   21.3682 C   0  0  0  0  0  0
    1.7954   51.7867   22.1878 C   0  0  0  0  0  0
    1.8394   50.5081   21.7532 N   0  3  0  0  0  0
    1.2193   52.1300   23.4431 N   0  0  0  0  0  0
    0.6218   51.1660   24.3886 C   0  0  2  0  0  0
    1.4235   50.4312   24.4820 H   0  0  0  0  0  0
   -0.5376   50.4184   23.7216 C   0  0  0  0  0  0
   -0.4795   49.0224   23.6029 C   0  0  0  0  0  0
   -1.5070   48.3247   22.9692 C   0  0  0  0  0  0
   -2.5982   49.0154   22.4431 C   0  0  0  0  0  0
   -2.6603   50.4047   22.5486 C   0  0  0  0  0  0
   -1.6346   51.1079   23.1806 C   0  0  0  0  0  0
   -1.7117   52.4570   23.2650 F   0  0  0  0  0  0
    0.4006   51.7202   25.8261 C   0  0  0  0  0  0
   -0.6266   51.3324   26.7495 C   0  0  0  0  0  0
   -0.4845   51.9103   28.0212 C   0  0  0  0  0  0
    0.8572   52.9848   28.0822 S   0  0  0  0  0  0
    1.2791   52.6417   26.4356 C   0  0  0  0  0  0
    2.4182   53.1880   25.8408 N   0  0  0  0  0  0
    3.3032   54.0964   26.3136 C   0  0  0  0  0  0
    3.2304   54.6361   27.4191 O   0  0  0  0  0  0
    4.4581   54.4193   25.3847 C   0  0  0  0  0  0
    5.5963   55.0546   25.8939 C   0  0  0  0  0  0
    6.6673   55.3553   25.0605 C   0  0  0  0  0  0
    6.6472   54.9780   23.7232 C   0  0  0  0  0  0
    5.5262   54.3469   23.1957 C   0  0  0  0  0  0
    4.4296   54.0957   24.0172 C   0  0  0  0  0  0
   -1.2962   51.6994   29.2821 C   0  0  0  0  0  0
   -1.7542   50.3538   26.4644 C   0  0  0  0  0  0
    2.8827   48.4886   19.2681 H   0  0  0  0  0  0
    2.7043   48.0555   20.9698 H   0  0  0  0  0  0
    1.2718   48.3610   19.9784 H   0  0  0  0  0  0
    3.2465   50.8639   18.7329 H   0  0  0  0  0  0
    3.2358   53.2313   19.4696 H   0  0  0  0  0  0
    2.2958   53.8232   21.6814 H   0  0  0  0  0  0
    1.1487   53.1076   23.6878 H   0  0  0  0  0  0
    0.3551   48.4721   24.0157 H   0  0  0  0  0  0
   -1.4595   47.2483   22.8920 H   0  0  0  0  0  0
   -3.3972   48.4756   21.9556 H   0  0  0  0  0  0
   -3.5058   50.9383   22.1419 H   0  0  0  0  0  0
    2.6352   52.8112   24.9325 H   0  0  0  0  0  0
    5.6547   55.3294   26.9382 H   0  0  0  0  0  0
    7.5044   55.8994   25.4488 H   0  0  0  0  0  0
    7.5016   55.1957   23.0946 H   0  0  0  0  0  0
    5.5002   54.0683   22.1523 H   0  0  0  0  0  0
    3.5730   53.6165   23.5781 H   0  0  0  0  0  0
   -2.3388   51.4516   29.0855 H   0  0  0  0  0  0
   -0.8915   50.8966   29.8948 H   0  0  0  0  0  0
   -1.2938   52.5865   29.9123 H   0  0  0  0  0  0
   -1.3731   49.4031   26.0954 H   0  0  0  0  0  0
   -2.3626   50.0999   27.3298 H   0  0  0  0  0  0
   -2.4401   50.7316   25.7091 H   0  0  0  0  0  0
    1.4461   49.7953   22.3497 H   0  0  0  0  0  0
  1  2  1  0  0  0
  1 34  1  0  0  0
  1 35  1  0  0  0
  1 36  1  0  0  0
  2  7  2  0  0  0
  2  3  1  0  0  0
  3  4  2  0  0  0
  3 37  1  0  0  0
  4  5  1  0  0  0
  4 38  1  0  0  0
  5  6  2  0  0  0
  5 39  1  0  0  0
  6  7  1  0  0  0
  6  8  1  0  0  0
  7 57  1  0  0  0
  8  9  1  0  0  0
  8 40  1  0  0  0
  9 10  1  0  0  0
  9 11  1  0  0  0
  9 18  1  0  0  0
 11 16  2  0  0  0
 11 12  1  0  0  0
 12 13  2  0  0  0
 12 41  1  0  0  0
 13 14  1  0  0  0
 13 42  1  0  0  0
 14 15  2  0  0  0
 14 43  1  0  0  0
 15 16  1  0  0  0
 15 44  1  0  0  0
 16 17  1  0  0  0
 18 22  2  0  0  0
 18 19  1  0  0  0
 19 20  2  0  0  0
 19 33  1  0  0  0
 20 21  1  0  0  0
 20 32  1  0  0  0
 21 22  1  0  0  0
 22 23  1  0  0  0
 23 24  1  0  0  0
 23 45  1  0  0  0
 24 25  2  0  0  0
 24 26  1  0  0  0
 26 31  2  0  0  0
 26 27  1  0  0  0
 27 28  2  0  0  0
 27 46  1  0  0  0
 28 29  1  0  0  0
 28 47  1  0  0  0
 29 30  2  0  0  0
 29 48  1  0  0  0
 30 31  1  0  0  0
 30 49  1  0  0  0
 31 50  1  0  0  0
 32 51  1  0  0  0
 32 52  1  0  0  0
 32 53  1  0  0  0
 33 54  1  0  0  0
 33 55  1  0  0  0
 33 56  1  0  0  0
M  CHG  1   7   1
M  END
> <i_i_glide_confnum>
27

> <i_i_glide_lignum>
3477

> <i_i_glide_posenum>
336

> <i_i_glide_rotatable_bonds>
7

> <i_m_Source_File_Index>
5013

> <b_m_subgroup_collapsed>
0

> <r_i_docking_score>
-4.4141

> <r_i_glide_ecoul>
-3.54434

> <r_i_glide_eff_state_penalty>
0

> <r_i_glide_einternal>
17.7944

> <r_i_glide_emodel>
-45.5256

> <r_i_glide_energy>
-42.3701

> <r_i_glide_erotb>
0.70266

> <r_i_glide_esite>
0

> <r_i_glide_evdw>
-38.8257

> <r_i_glide_gscore>
-4.4141

> <r_i_glide_hbond>
0

> <r_i_glide_ligand_efficiency>
-0.137941

> <r_i_glide_ligand_efficiency_ln>
-0.988436

> <r_i_glide_ligand_efficiency_sa>
-0.437934

> <r_i_glide_lipo>
-1.96732

> <r_i_glide_metal>
0

> <r_i_glide_rewards>
-0.676503

> <s_i_glide_gridfile>
wee1_glide-grid

> <s_m_Source_File>
wee1_decoys_glide_SP.sdf

> <s_m_Source_Path>
/Users/zhangxujun/Desktop

> <s_m_entry_id>
5288

> <s_m_entry_name>
wee1_decoys_glide_SP.5013

> <s_m_subgroup_title>
wee1_decoys_glide_SP

> <s_m_subgroupid>
wee1_decoys_glide_SP


$$$$
