ZINC39836473_5311
                    3D
 Schrodinger Suite 2024-2.
 66 69  0  0  1  0            999 V2000
    3.6968   52.2515   29.4571 C   0  0  0  0  0  0
    3.2175   53.6994   29.1588 C   0  0  0  0  0  0
    1.8494   53.9069   29.8659 C   0  0  0  0  0  0
    4.2371   54.6562   29.8092 C   0  0  0  0  0  0
    3.0875   54.0055   27.6162 C   0  0  2  0  0  0
    2.6206   54.9907   27.5309 H   0  0  0  0  0  0
    2.1659   52.9830   26.9103 C   0  0  0  0  0  0
    1.8526   53.3034   25.4466 C   0  0  0  0  0  0
    3.1217   53.6994   24.6920 C   0  0  0  0  0  0
    4.2799   54.0968   25.3697 C   0  0  0  0  0  0
    5.5690   54.4966   24.2833 S   0  0  0  0  0  0
    4.5750   54.0976   22.9041 C   0  0  0  0  0  0
    3.3248   53.5834   23.2925 C   0  0  0  0  0  0
    2.2939   53.1136   22.3869 C   0  0  0  0  0  0
    1.1045   53.2961   22.6210 O   0  0  0  0  0  0
    2.7272   52.4553   21.2931 N   0  0  0  0  0  0
    1.8463   51.9020   20.2665 C   0  0  1  0  0  0
    1.1330   52.6456   19.8973 H   0  0  0  0  0  0
    2.6884   51.4373   19.0593 C   0  0  0  0  0  0
    1.8060   50.6116   18.1211 C   0  0  0  0  0  0
    0.7257   49.6098   19.2692 S   0  0  0  0  0  0
    1.2758   48.2665   19.4785 O   0  0  0  0  0  0
   -0.6732   49.7860   18.8760 O   0  0  0  0  0  0
    1.0965   50.6554   20.7763 C   0  0  0  0  0  0
    4.9915   54.2736   21.5891 N   0  0  0  0  0  0
    6.0333   54.9739   21.0965 C   0  0  0  0  0  0
    6.8568   55.5950   21.7639 O   0  0  0  0  0  0
    6.1359   54.9128   19.6579 C   0  0  0  0  0  0
    5.0675   54.9275   18.8242 C   0  0  0  0  0  0
    5.1107   54.8172   17.3544 C   0  0  0  0  0  0
    6.2106   54.2674   16.6822 C   0  0  0  0  0  0
    6.2062   54.1692   15.2929 C   0  0  0  0  0  0
    5.1033   54.6218   14.5707 C   0  0  0  0  0  0
    4.0071   55.1748   15.2278 C   0  0  0  0  0  0
    4.0105   55.2724   16.6177 C   0  0  0  0  0  0
    4.4628   54.0828   26.8815 C   0  0  0  0  0  0
    4.6375   52.0229   28.9593 H   0  0  0  0  0  0
    3.8637   52.0967   30.5231 H   0  0  0  0  0  0
    2.9668   51.5047   29.1457 H   0  0  0  0  0  0
    1.4835   54.9290   29.7448 H   0  0  0  0  0  0
    1.0737   53.2381   29.4989 H   0  0  0  0  0  0
    1.9047   53.7028   30.9323 H   0  0  0  0  0  0
    3.9435   55.6967   29.6707 H   0  0  0  0  0  0
    4.3050   54.4907   30.8805 H   0  0  0  0  0  0
    5.2479   54.5379   29.4153 H   0  0  0  0  0  0
    2.6024   51.9978   26.9979 H   0  0  0  0  0  0
    1.2077   52.8914   27.4175 H   0  0  0  0  0  0
    1.1160   54.0976   25.3642 H   0  0  0  0  0  0
    1.3811   52.4249   25.0044 H   0  0  0  0  0  0
    3.7074   52.2210   21.2242 H   0  0  0  0  0  0
    3.5085   50.8146   19.4072 H   0  0  0  0  0  0
    3.1598   52.2767   18.5431 H   0  0  0  0  0  0
    2.3015   49.9737   17.3936 H   0  0  0  0  0  0
    1.1580   51.2941   17.5769 H   0  0  0  0  0  0
    0.2552   50.7769   21.4524 H   0  0  0  0  0  0
    1.8294   50.0481   21.3049 H   0  0  0  0  0  0
    4.3532   53.9120   20.8965 H   0  0  0  0  0  0
    7.1459   54.8653   19.2804 H   0  0  0  0  0  0
    4.0684   55.0062   19.2363 H   0  0  0  0  0  0
    7.0675   53.8964   17.2269 H   0  0  0  0  0  0
    7.0515   53.7387   14.7776 H   0  0  0  0  0  0
    5.1010   54.5474   13.4937 H   0  0  0  0  0  0
    3.1549   55.5263   14.6634 H   0  0  0  0  0  0
    3.1530   55.7009   17.1182 H   0  0  0  0  0  0
    5.0755   53.2153   27.1296 H   0  0  0  0  0  0
    5.0182   54.9682   27.1917 H   0  0  0  0  0  0
  1  2  1  0  0  0
  1 37  1  0  0  0
  1 38  1  0  0  0
  1 39  1  0  0  0
  2  3  1  0  0  0
  2  4  1  0  0  0
  2  5  1  0  0  0
  3 40  1  0  0  0
  3 41  1  0  0  0
  3 42  1  0  0  0
  4 43  1  0  0  0
  4 44  1  0  0  0
  4 45  1  0  0  0
  5  6  1  0  0  0
  5 36  1  0  0  0
  5  7  1  0  0  0
  7  8  1  0  0  0
  7 46  1  0  0  0
  7 47  1  0  0  0
  8  9  1  0  0  0
  8 48  1  0  0  0
  8 49  1  0  0  0
  9 13  1  0  0  0
  9 10  2  0  0  0
 10 11  1  0  0  0
 10 36  1  0  0  0
 11 12  1  0  0  0
 12 13  2  0  0  0
 12 25  1  0  0  0
 13 14  1  0  0  0
 14 15  2  0  0  0
 14 16  1  0  0  0
 16 17  1  0  0  0
 16 50  1  0  0  0
 17 18  1  0  0  0
 17 24  1  0  0  0
 17 19  1  0  0  0
 19 20  1  0  0  0
 19 51  1  0  0  0
 19 52  1  0  0  0
 20 21  1  0  0  0
 20 53  1  0  0  0
 20 54  1  0  0  0
 21 22  2  0  0  0
 21 23  2  0  0  0
 21 24  1  0  0  0
 24 55  1  0  0  0
 24 56  1  0  0  0
 25 26  1  0  0  0
 25 57  1  0  0  0
 26 27  2  0  0  0
 26 28  1  0  0  0
 28 29  2  0  0  0
 28 58  1  0  0  0
 29 30  1  0  0  0
 29 59  1  0  0  0
 30 35  2  0  0  0
 30 31  1  0  0  0
 31 32  2  0  0  0
 31 60  1  0  0  0
 32 33  1  0  0  0
 32 61  1  0  0  0
 33 34  2  0  0  0
 33 62  1  0  0  0
 34 35  1  0  0  0
 34 63  1  0  0  0
 35 64  1  0  0  0
 36 65  1  0  0  0
 36 66  1  0  0  0
M  END
> <i_i_glide_confnum>
147

> <i_i_glide_lignum>
5312

> <i_i_glide_posenum>
185

> <i_i_glide_rotatable_bonds>
8

> <i_m_Source_File_Index>
1801

> <b_m_subgroup_collapsed>
0

> <r_i_docking_score>
-4.84419

> <r_i_glide_ecoul>
-3.10529

> <r_i_glide_eff_state_penalty>
0

> <r_i_glide_einternal>
5.15631

> <r_i_glide_emodel>
-55.4058

> <r_i_glide_energy>
-41.4924

> <r_i_glide_erotb>
0.488789

> <r_i_glide_esite>
-0.0484663

> <r_i_glide_evdw>
-38.3871

> <r_i_glide_gscore>
-4.84419

> <r_i_glide_hbond>
0

> <r_i_glide_ligand_efficiency>
-0.142476

> <r_i_glide_ligand_efficiency_ln>
-1.07022

> <r_i_glide_ligand_efficiency_sa>
-0.461567

> <r_i_glide_lipo>
-2.48815

> <r_i_glide_metal>
0

> <r_i_glide_rewards>
-0.411217

> <s_i_glide_gridfile>
wee1_glide-grid

> <s_m_Source_File>
wee1_decoys_glide_SP.sdf

> <s_m_Source_Path>
/Users/zhangxujun/Desktop

> <s_m_entry_id>
2076

> <s_m_entry_name>
wee1_decoys_glide_SP.1801

> <s_m_subgroup_title>
wee1_decoys_glide_SP

> <s_m_subgroupid>
wee1_decoys_glide_SP


$$$$
