ZINC36270867_217
                    3D
 Schrodinger Suite 2024-2.
 55 58  0  0  1  0            999 V2000
    3.7729   53.6564   25.1746 C   0  0  0  0  0  0
    3.6334   54.6909   24.0655 C   0  0  0  0  0  0
    3.4041   54.1191   22.7812 O   0  0  0  0  0  0
    4.3611   54.0984   21.8225 C   0  0  0  0  0  0
    5.5429   54.4151   21.9688 O   0  0  0  0  0  0
    3.7833   53.6901   20.4580 C   0  0  2  0  0  0
    4.1314   52.2306   20.1403 C   0  0  0  0  0  0
    3.3149   51.8503   18.8940 C   0  0  0  0  0  0
    3.8184   52.7398   17.7281 N   0  3  2  0  0  0
    3.5519   54.2391   18.0075 C   0  0  0  0  0  0
    4.2957   54.6109   19.3019 C   0  0  0  0  0  0
    3.2106   52.2905   16.3824 C   0  0  0  0  0  0
    4.2134   52.4598   15.2433 C   0  0  0  0  0  0
    5.4326   53.1473   15.0466 C   0  0  0  0  0  0
    5.9073   53.0120   13.8246 N   0  0  0  0  0  0
    5.0435   52.1888   13.1925 C   0  0  0  0  0  0
    3.9877   51.8151   14.0432 N   0  0  0  0  0  0
    2.9857   50.9728   13.6218 C   0  0  0  0  0  0
    3.0094   50.4798   12.3218 C   0  0  0  0  0  0
    4.0374   50.8463   11.4539 C   0  0  0  0  0  0
    5.0631   51.6988   11.8715 C   0  0  0  0  0  0
    2.0002   49.6233   11.8935 N   0  0  0  0  0  0
    6.2291   53.9702   15.9946 C   0  0  0  0  0  0
    6.9539   53.3626   17.0244 C   0  0  0  0  0  0
    7.7283   54.1462   17.8777 C   0  0  0  0  0  0
    7.7608   55.5281   17.7115 C   0  0  0  0  0  0
    7.0424   56.1349   16.6838 C   0  0  0  0  0  0
    6.2852   55.3546   15.8161 C   0  0  0  0  0  0
    8.4869   56.2864   18.5641 F   0  0  0  0  0  0
    3.5759   54.1069   26.1467 H   0  0  0  0  0  0
    4.7979   53.2961   25.1998 H   0  0  0  0  0  0
    3.0843   52.8223   25.0454 H   0  0  0  0  0  0
    2.7906   55.3480   24.2822 H   0  0  0  0  0  0
    4.5356   55.2969   24.0793 H   0  0  0  0  0  0
    2.7028   53.6981   20.5544 H   0  0  0  0  0  0
    5.2007   52.0858   19.9666 H   0  0  0  0  0  0
    3.8280   51.5661   20.9512 H   0  0  0  0  0  0
    2.2397   52.0044   19.0002 H   0  0  0  0  0  0
    3.5040   50.8119   18.6351 H   0  0  0  0  0  0
    2.4721   54.3783   18.0852 H   0  0  0  0  0  0
    3.9301   54.8063   17.1593 H   0  0  0  0  0  0
    4.1335   55.6887   19.4325 H   0  0  0  0  0  0
    5.3688   54.4854   19.1649 H   0  0  0  0  0  0
    2.9534   51.2376   16.5135 H   0  0  0  0  0  0
    2.2828   52.8505   16.2544 H   0  0  0  0  0  0
    2.2175   50.7216   14.3374 H   0  0  0  0  0  0
    4.0427   50.4667   10.4403 H   0  0  0  0  0  0
    5.8575   51.9797   11.1958 H   0  0  0  0  0  0
    2.1529   49.0761   11.0578 H   0  0  0  0  0  0
    1.3437   49.2947   12.5861 H   0  0  0  0  0  0
    6.9243   52.2900   17.1578 H   0  0  0  0  0  0
    8.2995   53.6967   18.6737 H   0  0  0  0  0  0
    7.0737   57.2074   16.5638 H   0  0  0  0  0  0
    5.7377   55.8243   15.0118 H   0  0  0  0  0  0
    4.8128   52.5637   17.6487 H   0  0  0  0  0  0
  1  2  1  0  0  0
  1 30  1  0  0  0
  1 31  1  0  0  0
  1 32  1  0  0  0
  2  3  1  0  0  0
  2 33  1  0  0  0
  2 34  1  0  0  0
  3  4  1  0  0  0
  4  5  2  0  0  0
  4  6  1  0  0  0
  6 11  1  0  0  0
  6  7  1  0  0  0
  6 35  1  0  0  0
  7  8  1  0  0  0
  7 36  1  0  0  0
  7 37  1  0  0  0
  8  9  1  0  0  0
  8 38  1  0  0  0
  8 39  1  0  0  0
  9 10  1  0  0  0
  9 12  1  0  0  0
  9 55  1  0  0  0
 10 11  1  0  0  0
 10 40  1  0  0  0
 10 41  1  0  0  0
 11 42  1  0  0  0
 11 43  1  0  0  0
 12 13  1  0  0  0
 12 44  1  0  0  0
 12 45  1  0  0  0
 13 17  1  0  0  0
 13 14  2  0  0  0
 14 15  1  0  0  0
 14 23  1  0  0  0
 15 16  2  0  0  0
 16 21  1  0  0  0
 16 17  1  0  0  0
 17 18  1  0  0  0
 18 19  2  0  0  0
 18 46  1  0  0  0
 19 20  1  0  0  0
 19 22  1  0  0  0
 20 21  2  0  0  0
 20 47  1  0  0  0
 21 48  1  0  0  0
 22 49  1  0  0  0
 22 50  1  0  0  0
 23 28  2  0  0  0
 23 24  1  0  0  0
 24 25  2  0  0  0
 24 51  1  0  0  0
 25 26  1  0  0  0
 25 52  1  0  0  0
 26 27  2  0  0  0
 26 29  1  0  0  0
 27 28  1  0  0  0
 27 53  1  0  0  0
 28 54  1  0  0  0
M  CHG  1   9   1
M  END
> <i_i_glide_confnum>
95

> <i_i_glide_lignum>
218

> <i_i_glide_posenum>
47

> <i_i_glide_rotatable_bonds>
6

> <i_m_Source_File_Index>
1935

> <b_m_subgroup_collapsed>
0

> <r_i_docking_score>
-2.0681

> <r_i_glide_ecoul>
-2.52214

> <r_i_glide_eff_state_penalty>
0

> <r_i_glide_einternal>
6.83859

> <r_i_glide_emodel>
-19.1053

> <r_i_glide_energy>
-19.9335

> <r_i_glide_erotb>
0.619545

> <r_i_glide_esite>
-0.0968204

> <r_i_glide_evdw>
-17.4114

> <r_i_glide_gscore>
-2.0681

> <r_i_glide_hbond>
-0.0159451

> <r_i_glide_ligand_efficiency>
-0.0713138

> <r_i_glide_ligand_efficiency_ln>
-0.473543

> <r_i_glide_ligand_efficiency_sa>
-0.219099

> <r_i_glide_lipo>
-0.401422

> <r_i_glide_metal>
0

> <r_i_glide_rewards>
-0.924571

> <s_i_glide_gridfile>
wee1_glide-grid

> <s_m_Source_File>
wee1_decoys_glide_SP.sdf

> <s_m_Source_Path>
/Users/zhangxujun/Desktop

> <s_m_entry_id>
2210

> <s_m_entry_name>
wee1_decoys_glide_SP.1935

> <s_m_subgroup_title>
wee1_decoys_glide_SP

> <s_m_subgroupid>
wee1_decoys_glide_SP


$$$$
