ZINC34716218_5997
                    3D
 Schrodinger Suite 2024-2.
 62 65  0  0  1  0            999 V2000
    2.8754   52.6611   17.2392 C   0  0  0  0  0  0
    3.5951   53.2618   16.0163 C   0  0  0  0  0  0
    4.6953   54.2039   16.3784 N   0  0  0  0  0  0
    6.0289   53.7971   16.4231 C   0  0  0  0  0  0
    6.9495   54.4734   17.1757 C   0  0  0  0  0  0
    6.4909   55.6236   18.1039 C   0  0  1  0  0  0
    7.2523   56.4041   18.1439 H   0  0  0  0  0  0
    5.2624   56.1791   17.4962 N   0  0  0  0  0  0
    4.3331   55.4927   16.7660 C   0  0  0  0  0  0
    2.8949   56.2979   16.4816 S   0  0  0  0  0  0
    6.3131   55.1897   19.5665 C   0  0  0  0  0  0
    7.2071   55.6373   20.5448 C   0  0  0  0  0  0
    7.0072   55.3074   21.8846 C   0  0  0  0  0  0
    5.9042   54.5251   22.2572 C   0  0  0  0  0  0
    5.0353   54.0478   21.2760 C   0  0  0  0  0  0
    5.2351   54.3814   19.9419 C   0  0  0  0  0  0
    5.5567   54.2091   23.5794 N   0  0  0  0  0  0
    5.9621   54.7614   24.7441 C   0  0  0  0  0  0
    6.9184   55.5255   24.8818 O   0  0  0  0  0  0
    5.1189   54.3794   25.9366 C   0  0  0  0  0  0
    5.6889   54.3269   27.2130 C   0  0  0  0  0  0
    4.9117   53.9762   28.3137 C   0  0  0  0  0  0
    3.5501   53.6787   28.1706 C   0  0  0  0  0  0
    2.9843   53.7468   26.8937 C   0  0  0  0  0  0
    3.7528   54.0968   25.7910 C   0  0  0  0  0  0
    2.7100   53.2866   29.3411 C   0  0  0  0  0  0
    3.2381   52.4957   30.3707 C   0  0  0  0  0  0
    2.4378   52.0967   31.4388 C   0  0  0  0  0  0
    1.1047   52.4967   31.4921 C   0  0  0  0  0  0
    0.5663   53.2912   30.4867 C   0  0  0  0  0  0
    1.3667   53.6844   29.4186 C   0  0  0  0  0  0
    8.3532   54.0330   17.3306 C   0  0  0  0  0  0
    8.7060   52.8525   17.2817 O   0  0  0  0  0  0
    9.2082   55.0594   17.5462 O   0  0  0  0  0  0
   10.6023   54.8219   17.6821 C   0  0  0  0  0  0
    6.3804   52.6518   15.4592 C   0  0  0  0  0  0
    2.0944   51.9699   16.9223 H   0  0  0  0  0  0
    3.5675   52.0950   17.8638 H   0  0  0  0  0  0
    2.4007   53.4264   17.8542 H   0  0  0  0  0  0
    2.8694   53.7366   15.3556 H   0  0  0  0  0  0
    3.9506   52.4254   15.4195 H   0  0  0  0  0  0
    4.9493   57.0954   17.7846 H   0  0  0  0  0  0
    8.0586   56.2431   20.2703 H   0  0  0  0  0  0
    7.7099   55.6835   22.6110 H   0  0  0  0  0  0
    4.1790   53.4424   21.5366 H   0  0  0  0  0  0
    4.5357   54.0182   19.2047 H   0  0  0  0  0  0
    4.7904   53.5607   23.6612 H   0  0  0  0  0  0
    6.7352   54.5547   27.3646 H   0  0  0  0  0  0
    5.3833   53.9484   29.2817 H   0  0  0  0  0  0
    1.9401   53.5152   26.7426 H   0  0  0  0  0  0
    3.2640   54.1484   24.8285 H   0  0  0  0  0  0
    4.2675   52.1683   30.3368 H   0  0  0  0  0  0
    2.8471   51.4902   32.2342 H   0  0  0  0  0  0
    0.4817   52.1891   32.3210 H   0  0  0  0  0  0
   -0.4687   53.5949   30.5366 H   0  0  0  0  0  0
    0.9318   54.3044   28.6485 H   0  0  0  0  0  0
   11.1147   55.7541   17.9195 H   0  0  0  0  0  0
   10.8046   54.1079   18.4819 H   0  0  0  0  0  0
   11.0220   54.4268   16.7558 H   0  0  0  0  0  0
    7.4401   52.5872   15.2199 H   0  0  0  0  0  0
    6.0767   51.6966   15.8861 H   0  0  0  0  0  0
    5.8852   52.7817   14.4959 H   0  0  0  0  0  0
  1  2  1  0  0  0
  1 37  1  0  0  0
  1 38  1  0  0  0
  1 39  1  0  0  0
  2  3  1  0  0  0
  2 40  1  0  0  0
  2 41  1  0  0  0
  3  9  1  0  0  0
  3  4  1  0  0  0
  4  5  2  0  0  0
  4 36  1  0  0  0
  5  6  1  0  0  0
  5 32  1  0  0  0
  6  7  1  0  0  0
  6  8  1  0  0  0
  6 11  1  0  0  0
  8  9  1  0  0  0
  8 42  1  0  0  0
  9 10  2  0  0  0
 11 16  2  0  0  0
 11 12  1  0  0  0
 12 13  2  0  0  0
 12 43  1  0  0  0
 13 14  1  0  0  0
 13 44  1  0  0  0
 14 15  2  0  0  0
 14 17  1  0  0  0
 15 16  1  0  0  0
 15 45  1  0  0  0
 16 46  1  0  0  0
 17 18  1  0  0  0
 17 47  1  0  0  0
 18 19  2  0  0  0
 18 20  1  0  0  0
 20 25  2  0  0  0
 20 21  1  0  0  0
 21 22  2  0  0  0
 21 48  1  0  0  0
 22 23  1  0  0  0
 22 49  1  0  0  0
 23 24  2  0  0  0
 23 26  1  0  0  0
 24 25  1  0  0  0
 24 50  1  0  0  0
 25 51  1  0  0  0
 26 31  2  0  0  0
 26 27  1  0  0  0
 27 28  2  0  0  0
 27 52  1  0  0  0
 28 29  1  0  0  0
 28 53  1  0  0  0
 29 30  2  0  0  0
 29 54  1  0  0  0
 30 31  1  0  0  0
 30 55  1  0  0  0
 31 56  1  0  0  0
 32 33  2  0  0  0
 32 34  1  0  0  0
 34 35  1  0  0  0
 35 57  1  0  0  0
 35 58  1  0  0  0
 35 59  1  0  0  0
 36 60  1  0  0  0
 36 61  1  0  0  0
 36 62  1  0  0  0
M  END
> <i_i_glide_confnum>
9

> <i_i_glide_lignum>
5998

> <i_i_glide_posenum>
369

> <i_i_glide_rotatable_bonds>
8

> <i_m_Source_File_Index>
1133

> <b_m_subgroup_collapsed>
0

> <r_i_docking_score>
-6.38196

> <r_i_glide_ecoul>
-3.45519

> <r_i_glide_eff_state_penalty>
0

> <r_i_glide_einternal>
3.94343

> <r_i_glide_emodel>
-73.8392

> <r_i_glide_energy>
-54.8845

> <r_i_glide_erotb>
0.51694

> <r_i_glide_esite>
-0.00649666

> <r_i_glide_evdw>
-51.4293

> <r_i_glide_gscore>
-6.38196

> <r_i_glide_hbond>
-0.231168

> <r_i_glide_ligand_efficiency>
-0.182342

> <r_i_glide_ligand_efficiency_ln>
-1.40098

> <r_i_glide_ligand_efficiency_sa>
-0.596452

> <r_i_glide_lipo>
-2.75243

> <r_i_glide_metal>
0

> <r_i_glide_rewards>
-0.81906

> <s_i_glide_gridfile>
wee1_glide-grid

> <s_m_Source_File>
wee1_decoys_glide_SP.sdf

> <s_m_Source_Path>
/Users/zhangxujun/Desktop

> <s_m_entry_id>
1408

> <s_m_entry_name>
wee1_decoys_glide_SP.1133

> <s_m_subgroup_title>
wee1_decoys_glide_SP

> <s_m_subgroupid>
wee1_decoys_glide_SP


$$$$
