ZINC66338335_4607
                    3D
 Schrodinger Suite 2024-2.
 38 40  0  0  1  0            999 V2000
    2.0807   53.3028   27.2813 C   0  0  0  0  0  0
    2.9103   53.6977   26.2324 C   0  0  0  0  0  0
    4.2890   53.8949   26.4219 C   0  0  0  0  0  0
    4.8213   53.6433   27.7105 C   0  0  0  0  0  0
    3.9806   53.2558   28.7555 C   0  0  0  0  0  0
    2.6164   53.0855   28.5466 C   0  0  0  0  0  0
    1.6016   52.5866   29.8502 Cl  0  0  0  0  0  0
    6.5129   53.6971   28.0814 Cl  0  0  0  0  0  0
    5.0858   54.3299   25.2129 C   0  0  0  0  0  0
    4.7570   54.0560   23.9635 N   0  0  0  0  0  0
    5.6451   54.4967   23.0801 C   0  0  0  0  0  0
    6.6982   55.2217   23.6400 C   0  0  0  0  0  0
    6.5224   55.2966   25.3543 S   0  0  0  0  0  0
    5.5044   54.2929   21.6490 C   0  0  0  0  0  0
    6.2603   54.8966   20.8789 O   0  0  0  0  0  0
    4.5805   53.3846   21.2495 N   0  0  0  0  0  0
    4.5740   52.8802   19.9327 N   0  0  0  0  0  0
    4.2388   53.6251   18.8586 C   0  0  0  0  0  0
    3.9044   54.8104   18.8843 O   0  0  0  0  0  0
    4.3268   52.8967   17.7340 N   0  0  0  0  0  0
    4.0963   53.3865   16.3758 C   0  0  0  0  0  0
    5.2882   54.1664   15.7907 C   0  0  0  0  0  0
    5.0596   55.1583   14.6786 C   0  0  0  0  0  0
    5.4577   55.6402   16.0641 C   0  0  0  0  0  0
    1.0233   53.1627   27.1101 H   0  0  0  0  0  0
    2.4611   53.8646   25.2640 H   0  0  0  0  0  0
    4.3975   53.0586   29.7317 H   0  0  0  0  0  0
    7.5198   55.7050   23.1352 H   0  0  0  0  0  0
    3.8494   53.0034   21.8314 H   0  0  0  0  0  0
    5.0071   51.9709   19.8519 H   0  0  0  0  0  0
    4.6380   51.9290   17.8092 H   0  0  0  0  0  0
    3.2242   54.0442   16.4011 H   0  0  0  0  0  0
    3.7798   52.5977   15.6926 H   0  0  0  0  0  0
    6.1835   53.5472   15.7154 H   0  0  0  0  0  0
    4.0411   55.3316   14.3292 H   0  0  0  0  0  0
    5.7892   55.2059   13.8693 H   0  0  0  0  0  0
    6.4659   56.0201   16.2313 H   0  0  0  0  0  0
    4.7179   56.1485   16.6842 H   0  0  0  0  0  0
  1  6  2  0  0  0
  1  2  1  0  0  0
  1 25  1  0  0  0
  2  3  2  0  0  0
  2 26  1  0  0  0
  3  4  1  0  0  0
  3  9  1  0  0  0
  4  5  2  0  0  0
  4  8  1  0  0  0
  5  6  1  0  0  0
  5 27  1  0  0  0
  6  7  1  0  0  0
  9 13  1  0  0  0
  9 10  2  0  0  0
 10 11  1  0  0  0
 11 12  2  0  0  0
 11 14  1  0  0  0
 12 13  1  0  0  0
 12 28  1  0  0  0
 14 15  2  0  0  0
 14 16  1  0  0  0
 16 17  1  0  0  0
 16 29  1  0  0  0
 17 18  1  0  0  0
 17 30  1  0  0  0
 18 19  2  0  0  0
 18 20  1  0  0  0
 20 21  1  0  0  0
 20 31  1  0  0  0
 21 22  1  0  0  0
 21 32  1  0  0  0
 21 33  1  0  0  0
 22 24  1  0  0  0
 22 23  1  0  0  0
 22 34  1  0  0  0
 23 24  1  0  0  0
 23 35  1  0  0  0
 23 36  1  0  0  0
 24 37  1  0  0  0
 24 38  1  0  0  0
M  END
> <i_i_glide_confnum>
129

> <i_i_glide_lignum>
4608

> <i_i_glide_posenum>
344

> <i_i_glide_rotatable_bonds>
8

> <i_m_Source_File_Index>
2198

> <b_m_subgroup_collapsed>
0

> <r_i_docking_score>
-5.44342

> <r_i_glide_ecoul>
-2.70421

> <r_i_glide_eff_state_penalty>
0

> <r_i_glide_einternal>
3.89657

> <r_i_glide_emodel>
-52.2546

> <r_i_glide_energy>
-38.8636

> <r_i_glide_erotb>
0.917314

> <r_i_glide_esite>
-0.169511

> <r_i_glide_evdw>
-36.1594

> <r_i_glide_gscore>
-5.44342

> <r_i_glide_hbond>
-0.180166

> <r_i_glide_ligand_efficiency>
-0.226809

> <r_i_glide_ligand_efficiency_ln>
-1.30286

> <r_i_glide_ligand_efficiency_sa>
-0.654231

> <r_i_glide_lipo>
-2.64167

> <r_i_glide_metal>
0

> <r_i_glide_rewards>
-1.15579

> <s_i_glide_gridfile>
wee1_glide-grid

> <s_m_Source_File>
wee1_decoys_glide_SP.sdf

> <s_m_Source_Path>
/Users/zhangxujun/Desktop

> <s_m_entry_id>
2473

> <s_m_entry_name>
wee1_decoys_glide_SP.2198

> <s_m_subgroup_title>
wee1_decoys_glide_SP

> <s_m_subgroupid>
wee1_decoys_glide_SP


$$$$
