ZINC08132888_257
                    3D
 Schrodinger Suite 2024-2.
 64 67  0  0  1  0            999 V2000
    2.2802   52.0975   31.2055 C   0  0  0  0  0  0
    1.2537   52.4967   30.3540 C   0  0  0  0  0  0
    1.5528   52.9541   29.0715 C   0  0  0  0  0  0
    2.8826   53.0241   28.6401 C   0  0  0  0  0  0
    3.9094   52.6051   29.5020 C   0  0  0  0  0  0
    3.6064   52.1450   30.7819 C   0  0  0  0  0  0
    3.0975   53.4882   27.3242 N   0  0  0  0  0  0
    4.2269   53.9827   26.7608 C   0  0  0  0  0  0
    5.2640   54.1675   27.4033 O   0  0  0  0  0  0
    4.1557   54.2319   25.4195 N   0  0  0  0  0  0
    2.8817   54.3458   24.6580 C   0  0  0  0  0  0
    3.0201   53.5421   23.3440 C   0  0  0  0  0  0
    4.2430   54.0268   22.5342 C   0  0  0  0  0  0
    5.5253   53.9438   23.3943 C   0  0  0  0  0  0
    5.3691   54.7242   24.7153 C   0  0  0  0  0  0
    4.4056   53.1819   21.2507 C   0  0  0  0  0  0
    4.9972   52.1009   21.2752 O   0  0  0  0  0  0
    3.9050   53.7084   20.1218 N   0  0  0  0  0  0
    4.0365   53.1334   18.7763 C   0  0  0  0  0  0
    5.4317   53.2979   18.1016 C   0  0  1  0  0  0
    6.0768   52.5100   18.4965 H   0  0  0  0  0  0
    5.3880   53.1954   16.5806 C   0  0  0  0  0  0
    6.1464   52.4972   15.6522 C   0  0  0  0  0  0
    5.6188   52.7809   14.3925 C   0  0  0  0  0  0
    4.5508   53.6378   14.6045 C   0  0  0  0  0  0
    4.4084   53.8842   15.9318 O   0  0  0  0  0  0
    5.4346   55.8953   18.0578 C   0  0  0  0  0  0
    6.1311   57.1137   18.6914 C   0  0  0  0  0  0
    7.6394   57.1399   18.3776 C   0  0  0  0  0  0
    8.3310   55.8242   18.7780 C   0  0  0  0  0  0
    7.6444   54.6090   18.1322 C   0  0  0  0  0  0
    2.0446   51.7481   32.2013 H   0  0  0  0  0  0
    0.2266   52.4497   30.6918 H   0  0  0  0  0  0
    0.7442   53.2530   28.4164 H   0  0  0  0  0  0
    4.9459   52.6120   29.1961 H   0  0  0  0  0  0
    4.3985   51.8305   31.4447 H   0  0  0  0  0  0
    2.2867   53.4380   26.7310 H   0  0  0  0  0  0
    2.7049   55.3939   24.4232 H   0  0  0  0  0  0
    2.0099   53.9730   25.1951 H   0  0  0  0  0  0
    2.0957   53.7090   22.7879 H   0  0  0  0  0  0
    3.1019   52.4967   23.6394 H   0  0  0  0  0  0
    4.0675   55.0529   22.2077 H   0  0  0  0  0  0
    5.7526   52.9180   23.6798 H   0  0  0  0  0  0
    6.3744   54.3927   22.8788 H   0  0  0  0  0  0
    5.2484   55.7827   24.5056 H   0  0  0  0  0  0
    6.2808   54.5803   25.2967 H   0  0  0  0  0  0
    3.2825   54.5051   20.2021 H   0  0  0  0  0  0
    3.2506   53.5627   18.1496 H   0  0  0  0  0  0
    3.7887   52.0696   18.8141 H   0  0  0  0  0  0
    6.9761   51.8415   15.8703 H   0  0  0  0  0  0
    5.9621   52.3949   13.4453 H   0  0  0  0  0  0
    3.8360   54.1191   13.9525 H   0  0  0  0  0  0
    5.4786   55.9210   16.9683 H   0  0  0  0  0  0
    4.3962   55.8451   18.3881 H   0  0  0  0  0  0
    5.6623   58.0317   18.3280 H   0  0  0  0  0  0
    5.9708   57.0996   19.7719 H   0  0  0  0  0  0
    8.1136   57.9828   18.8831 H   0  0  0  0  0  0
    7.7852   57.3146   17.3105 H   0  0  0  0  0  0
    8.3285   55.7118   19.8635 H   0  0  0  0  0  0
    9.3823   55.8504   18.4865 H   0  0  0  0  0  0
    8.0954   53.6901   18.5006 H   0  0  0  0  0  0
    7.6952   54.6260   17.0433 H   0  0  0  0  0  0
    6.1506   54.6078   18.5471 N   0  3  0  0  0  0
    6.1070   54.5896   19.5579 H   0  0  0  0  0  0
  1  6  2  0  0  0
  1  2  1  0  0  0
  1 32  1  0  0  0
  2  3  2  0  0  0
  2 33  1  0  0  0
  3  4  1  0  0  0
  3 34  1  0  0  0
  4  5  2  0  0  0
  4  7  1  0  0  0
  5  6  1  0  0  0
  5 35  1  0  0  0
  6 36  1  0  0  0
  7  8  1  0  0  0
  7 37  1  0  0  0
  8  9  2  0  0  0
  8 10  1  0  0  0
 10 15  1  0  0  0
 10 11  1  0  0  0
 11 12  1  0  0  0
 11 38  1  0  0  0
 11 39  1  0  0  0
 12 13  1  0  0  0
 12 40  1  0  0  0
 12 41  1  0  0  0
 13 14  1  0  0  0
 13 16  1  0  0  0
 13 42  1  0  0  0
 14 15  1  0  0  0
 14 43  1  0  0  0
 14 44  1  0  0  0
 15 45  1  0  0  0
 15 46  1  0  0  0
 16 17  2  0  0  0
 16 18  1  0  0  0
 18 19  1  0  0  0
 18 47  1  0  0  0
 19 20  1  0  0  0
 19 48  1  0  0  0
 19 49  1  0  0  0
 20 21  1  0  0  0
 20 22  1  0  0  0
 20 63  1  0  0  0
 22 26  1  0  0  0
 22 23  2  0  0  0
 23 24  1  0  0  0
 23 50  1  0  0  0
 24 25  2  0  0  0
 24 51  1  0  0  0
 25 26  1  0  0  0
 25 52  1  0  0  0
 27 28  1  0  0  0
 27 53  1  0  0  0
 27 54  1  0  0  0
 27 63  1  0  0  0
 28 29  1  0  0  0
 28 55  1  0  0  0
 28 56  1  0  0  0
 29 30  1  0  0  0
 29 57  1  0  0  0
 29 58  1  0  0  0
 30 31  1  0  0  0
 30 59  1  0  0  0
 30 60  1  0  0  0
 31 61  1  0  0  0
 31 62  1  0  0  0
 31 63  1  0  0  0
 63 64  1  0  0  0
M  CHG  1  63   1
M  END
> <i_i_glide_confnum>
307

> <i_i_glide_lignum>
258

> <i_i_glide_posenum>
76

> <i_i_glide_rotatable_bonds>
9

> <i_m_Source_File_Index>
1819

> <b_m_subgroup_collapsed>
0

> <r_i_docking_score>
-5.55109

> <r_i_glide_ecoul>
-5.39851

> <r_i_glide_eff_state_penalty>
0

> <r_i_glide_einternal>
3.67239

> <r_i_glide_emodel>
-60.4905

> <r_i_glide_energy>
-43.8785

> <r_i_glide_erotb>
0.985951

> <r_i_glide_esite>
-0.0161305

> <r_i_glide_evdw>
-38.48

> <r_i_glide_gscore>
-5.55109

> <r_i_glide_hbond>
-0.316018

> <r_i_glide_ligand_efficiency>
-0.179067

> <r_i_glide_ligand_efficiency_ln>
-1.25194

> <r_i_glide_ligand_efficiency_sa>
-0.562519

> <r_i_glide_lipo>
-2.13068

> <r_i_glide_metal>
0

> <r_i_glide_rewards>
-1.34044

> <s_i_glide_gridfile>
wee1_glide-grid

> <s_m_Source_File>
wee1_decoys_glide_SP.sdf

> <s_m_Source_Path>
/Users/zhangxujun/Desktop

> <s_m_entry_id>
2094

> <s_m_entry_name>
wee1_decoys_glide_SP.1819

> <s_m_subgroup_title>
wee1_decoys_glide_SP

> <s_m_subgroupid>
wee1_decoys_glide_SP


$$$$
