ZINC49152305_4450
                    3D
 Schrodinger Suite 2024-2.
 35 35  0  0  1  0            999 V2000
    8.7848   56.5786   19.2324 C   0  0  0  0  0  0
    7.4142   55.9892   19.6048 C   0  0  0  0  0  0
    6.8451   56.6313   20.8803 C   0  0  0  0  0  0
    6.4200   56.0729   18.4176 C   0  0  0  0  0  0
    5.1362   55.4025   18.6524 N   0  0  0  0  0  0
    5.0050   54.0777   18.8159 C   0  0  0  0  0  0
    5.9448   53.2942   18.6908 O   0  0  0  0  0  0
    3.7441   53.7217   19.1074 N   0  0  0  0  0  0
    3.3066   52.4108   19.0183 N   0  0  0  0  0  0
    3.4925   51.4479   20.4866 S   0  0  0  0  0  0
    2.8270   50.1640   20.2383 O   0  0  0  0  0  0
    4.8995   51.4616   20.8889 O   0  0  0  0  0  0
    2.5329   52.2905   21.7529 C   0  0  0  0  0  0
    1.1886   51.9177   21.8837 C   0  0  0  0  0  0
    0.3844   52.4960   22.8624 C   0  0  0  0  0  0
    0.9208   53.4481   23.7222 C   0  0  0  0  0  0
    2.2487   53.8452   23.5889 C   0  0  0  0  0  0
    3.0609   53.2820   22.6059 C   0  0  0  0  0  0
    4.8600   53.9133   22.5192 Br  0  0  0  0  0  0
   -1.4488   52.0077   23.0066 Br  0  0  0  0  0  0
    8.7121   57.6292   18.9527 H   0  0  0  0  0  0
    9.2211   56.0475   18.3858 H   0  0  0  0  0  0
    9.4924   56.4971   20.0598 H   0  0  0  0  0  0
    7.5929   54.9374   19.8323 H   0  0  0  0  0  0
    6.6607   57.6956   20.7381 H   0  0  0  0  0  0
    5.8977   56.1798   21.1682 H   0  0  0  0  0  0
    7.5301   56.4961   21.7178 H   0  0  0  0  0  0
    6.2105   57.1198   18.1918 H   0  0  0  0  0  0
    6.8759   55.6694   17.5109 H   0  0  0  0  0  0
    4.3136   55.9850   18.6672 H   0  0  0  0  0  0
    2.9963   54.4031   19.1124 H   0  0  0  0  0  0
    3.7198   51.9557   18.1960 H   0  0  0  0  0  0
    0.7602   51.1729   21.2281 H   0  0  0  0  0  0
    0.3018   53.8879   24.4816 H   0  0  0  0  0  0
    2.6503   54.5955   24.2538 H   0  0  0  0  0  0
  1  2  1  0  0  0
  1 21  1  0  0  0
  1 22  1  0  0  0
  1 23  1  0  0  0
  2  3  1  0  0  0
  2  4  1  0  0  0
  2 24  1  0  0  0
  3 25  1  0  0  0
  3 26  1  0  0  0
  3 27  1  0  0  0
  4  5  1  0  0  0
  4 28  1  0  0  0
  4 29  1  0  0  0
  5  6  1  0  0  0
  5 30  1  0  0  0
  6  7  2  0  0  0
  6  8  1  0  0  0
  8  9  1  0  0  0
  8 31  1  0  0  0
  9 10  1  0  0  0
  9 32  1  0  0  0
 10 11  2  0  0  0
 10 12  2  0  0  0
 10 13  1  0  0  0
 13 18  2  0  0  0
 13 14  1  0  0  0
 14 15  2  0  0  0
 14 33  1  0  0  0
 15 16  1  0  0  0
 15 20  1  0  0  0
 16 17  2  0  0  0
 16 34  1  0  0  0
 17 18  1  0  0  0
 17 35  1  0  0  0
 18 19  1  0  0  0
M  END
> <i_i_glide_confnum>
54

> <i_i_glide_lignum>
4451

> <i_i_glide_posenum>
299

> <i_i_glide_rotatable_bonds>
7

> <i_m_Source_File_Index>
937

> <b_m_subgroup_collapsed>
0

> <r_i_docking_score>
-3.51986

> <r_i_glide_ecoul>
-4.19346

> <r_i_glide_eff_state_penalty>
0

> <r_i_glide_einternal>
3.77832

> <r_i_glide_emodel>
-37.9807

> <r_i_glide_energy>
-30.7142

> <r_i_glide_erotb>
0.539494

> <r_i_glide_esite>
-0.202907

> <r_i_glide_evdw>
-26.5207

> <r_i_glide_gscore>
-3.51986

> <r_i_glide_hbond>
-0.336141

> <r_i_glide_ligand_efficiency>
-0.175993

> <r_i_glide_ligand_efficiency_ln>
-0.880904

> <r_i_glide_ligand_efficiency_sa>
-0.477718

> <r_i_glide_lipo>
-1.08226

> <r_i_glide_metal>
0

> <r_i_glide_rewards>
-0.482984

> <s_i_glide_gridfile>
wee1_glide-grid

> <s_m_Source_File>
wee1_decoys_glide_SP.sdf

> <s_m_Source_Path>
/Users/zhangxujun/Desktop

> <s_m_entry_id>
1212

> <s_m_entry_name>
wee1_decoys_glide_SP.937

> <s_m_subgroup_title>
wee1_decoys_glide_SP

> <s_m_subgroupid>
wee1_decoys_glide_SP


$$$$
