ZINC12537880_4223
                    3D
 Schrodinger Suite 2024-2.
 65 69  0  0  1  0            999 V2000
    0.6844   52.4608   28.0260 C   0  0  0  0  0  0
    1.2605   51.2507   27.6910 C   0  0  0  0  0  0
    0.6371   50.4204   26.7641 C   0  0  0  0  0  0
   -0.5685   50.7758   26.1482 C   0  0  0  0  0  0
   -1.1988   51.9833   26.5323 C   0  0  0  0  0  0
   -0.5280   52.8147   27.4530 C   0  0  0  0  0  0
   -2.5806   52.4091   26.0046 C   0  0  0  0  0  0
   -2.5758   52.5277   24.6792 F   0  0  0  0  0  0
   -3.5072   51.5281   26.3800 F   0  0  0  0  0  0
   -2.9790   53.5841   26.4782 F   0  0  0  0  0  0
   -1.1492   49.6347   24.8515 S   0  0  0  0  0  0
   -2.5819   49.8268   24.6041 O   0  0  0  0  0  0
   -0.6535   48.2971   25.1926 O   0  0  0  0  0  0
   -0.2745   50.1335   23.3910 N   0  0  0  0  0  0
   -0.7643   51.3297   22.6706 C   0  0  0  0  0  0
   -0.2775   51.2864   21.2063 C   0  0  0  0  0  0
    1.2647   51.0753   21.1100 C   0  0  0  0  0  0
    1.7843   49.9443   22.0505 C   0  0  0  0  0  0
    1.2016   50.0669   23.4671 C   0  0  0  0  0  0
    1.6556   50.6660   19.6699 C   0  0  0  0  0  0
    1.0665   49.7259   19.1336 O   0  0  0  0  0  0
    2.7438   51.1837   19.0802 N   0  0  0  0  0  0
    3.0705   52.5266   19.2512 N   0  0  0  0  0  0
    4.2542   52.7842   19.8510 C   0  0  0  0  0  0
    4.6977   52.1018   20.7838 O   0  0  0  0  0  0
    5.1132   53.9552   19.2804 C   0  0  0  0  0  0
    5.7959   54.7512   20.4415 C   0  0  0  0  0  0
    6.7925   55.7894   19.8614 C   0  0  1  0  0  0
    7.8565   55.0922   18.9754 C   0  0  0  0  0  0
    7.1636   54.3575   17.7984 C   0  0  1  0  0  0
    6.1783   53.2962   18.3503 C   0  0  0  0  0  0
    6.3582   55.3776   16.9491 C   0  0  0  0  0  0
    5.2804   56.0531   17.8353 C   0  0  2  0  0  0
    6.0052   56.7959   18.9907 C   0  0  0  0  0  0
    4.3137   54.9615   18.3959 C   0  0  0  0  0  0
    1.1718   53.1199   28.7294 H   0  0  0  0  0  0
    2.1952   50.9497   28.1427 H   0  0  0  0  0  0
    1.0960   49.4737   26.5168 H   0  0  0  0  0  0
   -0.9091   53.7778   27.7348 H   0  0  0  0  0  0
   -0.3288   52.2190   23.1286 H   0  0  0  0  0  0
   -1.8528   51.3620   22.7011 H   0  0  0  0  0  0
   -0.5737   52.2213   20.7283 H   0  0  0  0  0  0
   -0.8204   50.4464   20.7664 H   0  0  0  0  0  0
    1.7698   52.0026   21.3838 H   0  0  0  0  0  0
    1.4579   48.9569   21.7128 H   0  0  0  0  0  0
    2.8714   49.9764   22.1427 H   0  0  0  0  0  0
    1.5771   50.9994   23.8900 H   0  0  0  0  0  0
    1.5026   49.2176   24.0790 H   0  0  0  0  0  0
    3.0747   50.8267   18.1920 H   0  0  0  0  0  0
    2.7528   53.0814   18.4719 H   0  0  0  0  0  0
    6.3111   54.0999   21.1438 H   0  0  0  0  0  0
    5.0410   55.2598   21.0451 H   0  0  0  0  0  0
    7.2867   56.3147   20.6806 H   0  0  0  0  0  0
    8.4493   54.3989   19.5705 H   0  0  0  0  0  0
    8.5625   55.8306   18.5925 H   0  0  0  0  0  0
    7.9141   53.8728   17.1723 H   0  0  0  0  0  0
    5.6911   52.7961   17.5079 H   0  0  0  0  0  0
    6.7037   52.4962   18.8652 H   0  0  0  0  0  0
    5.8915   54.8763   16.1018 H   0  0  0  0  0  0
    7.0262   56.1249   16.5220 H   0  0  0  0  0  0
    4.7131   56.7684   17.2391 H   0  0  0  0  0  0
    6.6618   57.5717   18.5967 H   0  0  0  0  0  0
    5.2636   57.2982   19.6052 H   0  0  0  0  0  0
    3.5058   55.3889   18.9774 H   0  0  0  0  0  0
    3.8326   54.4564   17.5560 H   0  0  0  0  0  0
  1  6  2  0  0  0
  1  2  1  0  0  0
  1 36  1  0  0  0
  2  3  2  0  0  0
  2 37  1  0  0  0
  3  4  1  0  0  0
  3 38  1  0  0  0
  4  5  2  0  0  0
  4 11  1  0  0  0
  5  6  1  0  0  0
  5  7  1  0  0  0
  6 39  1  0  0  0
  7  8  1  0  0  0
  7  9  1  0  0  0
  7 10  1  0  0  0
 11 12  2  0  0  0
 11 13  2  0  0  0
 11 14  1  0  0  0
 14 19  1  0  0  0
 14 15  1  0  0  0
 15 16  1  0  0  0
 15 40  1  0  0  0
 15 41  1  0  0  0
 16 17  1  0  0  0
 16 42  1  0  0  0
 16 43  1  0  0  0
 17 18  1  0  0  0
 17 20  1  0  0  0
 17 44  1  0  0  0
 18 19  1  0  0  0
 18 45  1  0  0  0
 18 46  1  0  0  0
 19 47  1  0  0  0
 19 48  1  0  0  0
 20 21  2  0  0  0
 20 22  1  0  0  0
 22 23  1  0  0  0
 22 49  1  0  0  0
 23 24  1  0  0  0
 23 50  1  0  0  0
 24 25  2  0  0  0
 24 26  1  0  0  0
 26 31  1  0  0  0
 26 35  1  0  0  0
 26 27  1  0  0  0
 27 28  1  0  0  0
 27 51  1  0  0  0
 27 52  1  0  0  0
 28 34  1  0  0  0
 28 29  1  0  0  0
 28 53  1  0  0  0
 29 30  1  0  0  0
 29 54  1  0  0  0
 29 55  1  0  0  0
 30 31  1  0  0  0
 30 32  1  0  0  0
 30 56  1  0  0  0
 31 57  1  0  0  0
 31 58  1  0  0  0
 32 33  1  0  0  0
 32 59  1  0  0  0
 32 60  1  0  0  0
 33 34  1  0  0  0
 33 35  1  0  0  0
 33 61  1  0  0  0
 34 62  1  0  0  0
 34 63  1  0  0  0
 35 64  1  0  0  0
 35 65  1  0  0  0
M  END
> <i_i_glide_confnum>
29

> <i_i_glide_lignum>
4224

> <i_i_glide_posenum>
325

> <i_i_glide_rotatable_bonds>
8

> <i_m_Source_File_Index>
4512

> <b_m_subgroup_collapsed>
0

> <r_i_docking_score>
-2.65146

> <r_i_glide_ecoul>
-1.27496

> <r_i_glide_eff_state_penalty>
0

> <r_i_glide_einternal>
8.6921

> <r_i_glide_emodel>
-29.9575

> <r_i_glide_energy>
-32.1988

> <r_i_glide_erotb>
0.466496

> <r_i_glide_esite>
-0.345329

> <r_i_glide_evdw>
-30.9239

> <r_i_glide_gscore>
-2.65146

> <r_i_glide_hbond>
-0.0107391

> <r_i_glide_ligand_efficiency>
-0.0757561

> <r_i_glide_ligand_efficiency_ln>
-0.582055

> <r_i_glide_ligand_efficiency_sa>
-0.247803

> <r_i_glide_lipo>
-0.997254

> <r_i_glide_metal>
0

> <r_i_glide_rewards>
-0.027198

> <s_i_glide_gridfile>
wee1_glide-grid

> <s_m_Source_File>
wee1_decoys_glide_SP.sdf

> <s_m_Source_Path>
/Users/zhangxujun/Desktop

> <s_m_entry_id>
4787

> <s_m_entry_name>
wee1_decoys_glide_SP.4512

> <s_m_subgroup_title>
wee1_decoys_glide_SP

> <s_m_subgroupid>
wee1_decoys_glide_SP


$$$$
