ZINC09298062_2290
                    3D
 Schrodinger Suite 2024-2.
 58 61  0  0  1  0            999 V2000
    2.7965   57.6225   12.6174 C   0  0  0  0  0  0
    3.4598   57.6886   14.0050 C   0  0  2  0  0  0
    2.8262   58.3256   14.6268 H   0  0  0  0  0  0
    4.8833   58.2651   13.9190 C   0  0  0  0  0  0
    5.4866   58.5530   15.3104 C   0  0  0  0  0  0
    5.2205   57.3829   16.2820 C   0  0  0  0  0  0
    4.3075   56.3694   15.9388 C   0  0  0  0  0  0
    4.1535   55.1683   17.1622 S   0  0  0  0  0  0
    5.2517   56.0293   18.2054 C   0  0  0  0  0  0
    5.7894   57.1792   17.5819 C   0  0  0  0  0  0
    6.7048   58.0879   18.2725 C   0  0  0  0  0  0
    6.7066   58.1500   19.5070 O   0  0  0  0  0  0
    7.5469   58.7571   17.4558 N   0  0  0  0  0  0
    8.5100   59.6458   17.7635 C   0  0  0  0  0  0
    8.7839   60.0966   18.8816 O   0  0  0  0  0  0
    9.1186   59.9519   16.5695 O   0  0  0  0  0  0
   10.1623   60.9151   16.6246 C   0  0  0  0  0  0
    5.5046   55.6178   19.5170 N   0  0  0  0  0  0
    5.1042   54.4949   20.1544 C   0  0  0  0  0  0
    4.5238   53.5473   19.6255 O   0  0  0  0  0  0
    5.3794   54.4662   21.6390 C   0  0  0  0  0  0
    6.4934   55.1038   22.2023 C   0  0  0  0  0  0
    6.6624   55.1204   23.5852 C   0  0  0  0  0  0
    5.7392   54.4987   24.4380 C   0  0  0  0  0  0
    4.6498   53.8329   23.8611 C   0  0  0  0  0  0
    4.4718   53.8174   22.4821 C   0  0  0  0  0  0
    5.9848   54.5054   25.9277 C   0  0  0  0  0  0
    7.1044   54.7995   26.3562 O   0  0  0  0  0  0
    4.9183   54.1113   26.9097 C   0  0  0  0  0  0
    3.5826   54.4956   26.7271 C   0  0  0  0  0  0
    2.6137   54.1499   27.6659 C   0  0  0  0  0  0
    2.9769   53.4351   28.8034 C   0  0  0  0  0  0
    4.3047   53.0769   29.0173 C   0  0  0  0  0  0
    5.2755   53.4280   28.0818 C   0  0  0  0  0  0
    3.5263   56.2801   14.6333 C   0  0  0  0  0  0
    3.3654   56.9970   11.9284 H   0  0  0  0  0  0
    1.7880   57.2128   12.6810 H   0  0  0  0  0  0
    2.7154   58.6146   12.1725 H   0  0  0  0  0  0
    5.5224   57.6072   13.3273 H   0  0  0  0  0  0
    4.8641   59.1981   13.3531 H   0  0  0  0  0  0
    5.0620   59.4739   15.7139 H   0  0  0  0  0  0
    6.5461   58.7408   15.1513 H   0  0  0  0  0  0
    7.4487   58.5748   16.4720 H   0  0  0  0  0  0
   10.5801   61.0568   15.6276 H   0  0  0  0  0  0
    9.7900   61.8808   16.9707 H   0  0  0  0  0  0
   10.9708   60.5913   17.2827 H   0  0  0  0  0  0
    6.0677   56.2670   20.0471 H   0  0  0  0  0  0
    7.2273   55.6054   21.5869 H   0  0  0  0  0  0
    7.5045   55.6536   23.9932 H   0  0  0  0  0  0
    3.9317   53.2978   24.4637 H   0  0  0  0  0  0
    3.6096   53.3075   22.0731 H   0  0  0  0  0  0
    3.2848   55.0666   25.8600 H   0  0  0  0  0  0
    1.5837   54.4379   27.5133 H   0  0  0  0  0  0
    2.2223   53.1615   29.5263 H   0  0  0  0  0  0
    4.5832   52.5266   29.9040 H   0  0  0  0  0  0
    6.3037   53.1459   28.2654 H   0  0  0  0  0  0
    4.0246   55.5829   13.9583 H   0  0  0  0  0  0
    2.5225   55.8886   14.8038 H   0  0  0  0  0  0
  1  2  1  0  0  0
  1 36  1  0  0  0
  1 37  1  0  0  0
  1 38  1  0  0  0
  2  3  1  0  0  0
  2 35  1  0  0  0
  2  4  1  0  0  0
  4  5  1  0  0  0
  4 39  1  0  0  0
  4 40  1  0  0  0
  5  6  1  0  0  0
  5 41  1  0  0  0
  5 42  1  0  0  0
  6 10  1  0  0  0
  6  7  2  0  0  0
  7  8  1  0  0  0
  7 35  1  0  0  0
  8  9  1  0  0  0
  9 10  2  0  0  0
  9 18  1  0  0  0
 10 11  1  0  0  0
 11 12  2  0  0  0
 11 13  1  0  0  0
 13 14  1  0  0  0
 13 43  1  0  0  0
 14 15  2  0  0  0
 14 16  1  0  0  0
 16 17  1  0  0  0
 17 44  1  0  0  0
 17 45  1  0  0  0
 17 46  1  0  0  0
 18 19  1  0  0  0
 18 47  1  0  0  0
 19 20  2  0  0  0
 19 21  1  0  0  0
 21 26  2  0  0  0
 21 22  1  0  0  0
 22 23  2  0  0  0
 22 48  1  0  0  0
 23 24  1  0  0  0
 23 49  1  0  0  0
 24 25  2  0  0  0
 24 27  1  0  0  0
 25 26  1  0  0  0
 25 50  1  0  0  0
 26 51  1  0  0  0
 27 28  2  0  0  0
 27 29  1  0  0  0
 29 34  2  0  0  0
 29 30  1  0  0  0
 30 31  2  0  0  0
 30 52  1  0  0  0
 31 32  1  0  0  0
 31 53  1  0  0  0
 32 33  2  0  0  0
 32 54  1  0  0  0
 33 34  1  0  0  0
 33 55  1  0  0  0
 34 56  1  0  0  0
 35 57  1  0  0  0
 35 58  1  0  0  0
M  END
> <i_i_glide_confnum>
324

> <i_i_glide_lignum>
2291

> <i_i_glide_posenum>
96

> <i_i_glide_rotatable_bonds>
9

> <i_m_Source_File_Index>
5213

> <b_m_subgroup_collapsed>
0

> <r_i_docking_score>
-7.46841

> <r_i_glide_ecoul>
-7.39177

> <r_i_glide_eff_state_penalty>
0

> <r_i_glide_einternal>
6.58227

> <r_i_glide_emodel>
-69.2837

> <r_i_glide_energy>
-46.3412

> <r_i_glide_erotb>
0.713376

> <r_i_glide_esite>
-0.171881

> <r_i_glide_evdw>
-38.9494

> <r_i_glide_gscore>
-7.46841

> <r_i_glide_hbond>
-0.713075

> <r_i_glide_ligand_efficiency>
-0.219659

> <r_i_glide_ligand_efficiency_ln>
-1.64998

> <r_i_glide_ligand_efficiency_sa>
-0.71161

> <r_i_glide_lipo>
-3.03552

> <r_i_glide_metal>
0

> <r_i_glide_rewards>
-1.20507

> <s_i_glide_gridfile>
wee1_glide-grid

> <s_m_Source_File>
wee1_decoys_glide_SP.sdf

> <s_m_Source_Path>
/Users/zhangxujun/Desktop

> <s_m_entry_id>
5488

> <s_m_entry_name>
wee1_decoys_glide_SP.5213

> <s_m_subgroup_title>
wee1_decoys_glide_SP

> <s_m_subgroupid>
wee1_decoys_glide_SP


$$$$
