ZINC27552043_4128
                    3D
 Schrodinger Suite 2024-2.
 55 59  0  0  1  0            999 V2000
    5.0115   54.0967   23.7653 C   0  0  0  0  0  0
    4.9940   54.1267   22.2533 C   0  0  0  0  0  0
    4.1197   53.5190   21.3258 C   0  0  0  0  0  0
    4.6468   53.8490   20.1064 C   0  0  0  0  0  0
    5.7115   54.6885   20.3174 N   0  0  0  0  0  0
    5.9132   54.8456   21.6382 N   0  0  0  0  0  0
    6.5316   55.3683   19.3895 C   0  0  0  0  0  0
    5.9558   55.9592   18.2598 C   0  0  0  0  0  0
    6.7549   56.6643   17.3618 C   0  0  0  0  0  0
    8.1245   56.7692   17.5912 C   0  0  0  0  0  0
    8.7041   56.1781   18.7099 C   0  0  0  0  0  0
    7.9101   55.4782   19.6133 C   0  0  0  0  0  0
    9.2134   57.7358   16.3673 Br  0  0  0  0  0  0
    4.2126   53.4583   18.8660 O   0  0  0  0  0  0
    3.1036   52.5767   18.7977 C   0  0  1  0  0  0
    3.5035   51.6969   18.2879 H   0  0  0  0  0  0
    2.4453   52.2287   20.1499 C   0  0  0  0  0  0
    2.9048   52.7094   21.3330 C   0  0  0  0  0  0
    2.1462   52.5460   22.5941 C   0  0  0  0  0  0
    1.7324   51.3030   23.0963 C   0  0  0  0  0  0
    1.1043   51.2240   24.3444 C   0  0  0  0  0  0
    0.9061   52.3869   25.0943 C   0  0  0  0  0  0
    1.2373   53.6166   24.5471 C   0  0  0  0  0  0
    1.8450   53.7041   23.3092 C   0  0  0  0  0  0
    0.3955   52.3921   26.3729 O   0  0  0  0  0  0
    1.1028   51.6666   27.3854 C   0  0  0  0  0  0
    2.2205   52.4790   28.0618 C   0  0  0  0  0  0
    2.4208   52.3432   29.4402 C   0  0  0  0  0  0
    3.4586   53.0290   30.0715 C   0  0  0  0  0  0
    4.2826   53.8749   29.3276 C   0  0  0  0  0  0
    4.1062   54.0044   27.9567 C   0  0  0  0  0  0
    3.0898   53.2974   27.3270 C   0  0  0  0  0  0
    1.2415   51.4637   20.0312 C   0  0  0  0  0  0
    0.2600   50.8502   19.9646 N   0  0  0  0  0  0
    2.1514   53.2455   17.9533 N   0  0  0  0  0  0
    4.3950   53.2979   24.1706 H   0  0  0  0  0  0
    6.0182   53.9356   24.1545 H   0  0  0  0  0  0
    4.6440   55.0262   24.1947 H   0  0  0  0  0  0
    4.8926   55.8911   18.0792 H   0  0  0  0  0  0
    6.3146   57.1311   16.4935 H   0  0  0  0  0  0
    9.7685   56.2609   18.8815 H   0  0  0  0  0  0
    8.3711   55.0235   20.4794 H   0  0  0  0  0  0
    1.9294   50.3949   22.5450 H   0  0  0  0  0  0
    0.8201   50.2636   24.7446 H   0  0  0  0  0  0
    1.1045   54.4970   25.1398 H   0  0  0  0  0  0
    2.1330   54.6735   22.9309 H   0  0  0  0  0  0
    0.3564   51.3949   28.1337 H   0  0  0  0  0  0
    1.5017   50.7178   27.0258 H   0  0  0  0  0  0
    1.7779   51.6989   30.0221 H   0  0  0  0  0  0
    3.6216   52.8977   31.1303 H   0  0  0  0  0  0
    5.0754   54.4316   29.8069 H   0  0  0  0  0  0
    4.7649   54.6372   27.3798 H   0  0  0  0  0  0
    3.0191   53.3758   26.2577 H   0  0  0  0  0  0
    1.8791   54.1253   18.3783 H   0  0  0  0  0  0
    2.5334   53.4241   17.0359 H   0  0  0  0  0  0
  1  2  1  0  0  0
  1 36  1  0  0  0
  1 37  1  0  0  0
  1 38  1  0  0  0
  2  6  2  0  0  0
  2  3  1  0  0  0
  3 18  1  0  0  0
  3  4  2  0  0  0
  4  5  1  0  0  0
  4 14  1  0  0  0
  5  6  1  0  0  0
  5  7  1  0  0  0
  7 12  2  0  0  0
  7  8  1  0  0  0
  8  9  2  0  0  0
  8 39  1  0  0  0
  9 10  1  0  0  0
  9 40  1  0  0  0
 10 11  2  0  0  0
 10 13  1  0  0  0
 11 12  1  0  0  0
 11 41  1  0  0  0
 12 42  1  0  0  0
 14 15  1  0  0  0
 15 16  1  0  0  0
 15 17  1  0  0  0
 15 35  1  0  0  0
 17 18  2  0  0  0
 17 33  1  0  0  0
 18 19  1  0  0  0
 19 24  2  0  0  0
 19 20  1  0  0  0
 20 21  2  0  0  0
 20 43  1  0  0  0
 21 22  1  0  0  0
 21 44  1  0  0  0
 22 23  2  0  0  0
 22 25  1  0  0  0
 23 24  1  0  0  0
 23 45  1  0  0  0
 24 46  1  0  0  0
 25 26  1  0  0  0
 26 27  1  0  0  0
 26 47  1  0  0  0
 26 48  1  0  0  0
 27 32  2  0  0  0
 27 28  1  0  0  0
 28 29  2  0  0  0
 28 49  1  0  0  0
 29 30  1  0  0  0
 29 50  1  0  0  0
 30 31  2  0  0  0
 30 51  1  0  0  0
 31 32  1  0  0  0
 31 52  1  0  0  0
 32 53  1  0  0  0
 33 34  3  0  0  0
 35 54  1  0  0  0
 35 55  1  0  0  0
M  END
> <i_i_glide_confnum>
86

> <i_i_glide_lignum>
4129

> <i_i_glide_posenum>
330

> <i_i_glide_rotatable_bonds>
6

> <i_m_Source_File_Index>
119

> <b_m_subgroup_collapsed>
0

> <r_i_docking_score>
-4.23361

> <r_i_glide_ecoul>
-3.17509

> <r_i_glide_eff_state_penalty>
0

> <r_i_glide_einternal>
7.84955

> <r_i_glide_emodel>
-48.9926

> <r_i_glide_energy>
-44.0566

> <r_i_glide_erotb>
0.389009

> <r_i_glide_esite>
-0.0582015

> <r_i_glide_evdw>
-40.8815

> <r_i_glide_gscore>
-4.23361

> <r_i_glide_hbond>
-0.2846

> <r_i_glide_ligand_efficiency>
-0.124518

> <r_i_glide_ligand_efficiency_ln>
-0.935324

> <r_i_glide_ligand_efficiency_sa>
-0.40339

> <r_i_glide_lipo>
-2.77942

> <r_i_glide_metal>
0

> <r_i_glide_rewards>
1.01994

> <s_i_glide_gridfile>
wee1_glide-grid

> <s_m_Source_File>
wee1_decoys_glide_SP.sdf

> <s_m_Source_Path>
/Users/zhangxujun/Desktop

> <s_m_entry_id>
394

> <s_m_entry_name>
wee1_decoys_glide_SP.119

> <s_m_subgroup_title>
wee1_decoys_glide_SP

> <s_m_subgroupid>
wee1_decoys_glide_SP


$$$$
