ZINC01275773_1955
                    3D
 Schrodinger Suite 2024-2.
 49 53  0  0  1  0            999 V2000
    6.6762   54.4279   24.7016 C   0  0  0  0  0  0
    6.1610   54.1861   23.4299 C   0  0  0  0  0  0
    4.7829   54.0969   23.2492 C   0  0  0  0  0  0
    3.9244   54.2579   24.3406 C   0  0  0  0  0  0
    4.4504   54.4956   25.6159 C   0  0  0  0  0  0
    5.8287   54.5755   25.7964 C   0  0  0  0  0  0
    2.4158   54.2544   24.1206 C   0  0  0  0  0  0
    1.7352   53.6966   25.2457 O   0  0  0  0  0  0
    1.1368   52.4546   25.1877 C   0  0  0  0  0  0
    1.1041   51.6239   24.0576 C   0  0  0  0  0  0
    0.4539   50.3964   24.1146 C   0  0  0  0  0  0
   -0.1680   49.9747   25.2932 C   0  0  0  0  0  0
   -0.1025   50.7853   26.4290 C   0  0  0  0  0  0
    0.5333   52.0213   26.3675 C   0  0  0  0  0  0
   -0.8817   48.6929   25.3582 C   0  0  0  0  0  0
   -1.8546   48.2982   24.6215 N   0  0  0  0  0  0
   -2.4145   49.2033   23.7232 N   0  0  0  0  0  0
   -3.2745   50.2628   23.9891 C   0  0  0  0  0  0
   -3.5795   50.8957   22.8820 N   0  0  0  0  0  0
   -2.9613   50.2360   21.8323 N   0  0  0  0  0  0
   -2.3064   49.2183   22.3340 C   0  0  0  0  0  0
   -1.4231   48.0785   21.3023 S   0  5  0  0  0  0
   -3.8814   50.6347   25.2758 C   0  0  0  0  0  0
   -4.9393   51.4908   25.5478 C   0  0  0  0  0  0
   -5.1484   51.4296   26.9122 C   0  0  0  0  0  0
   -4.2975   50.6511   27.5318 N   0  0  0  0  0  0
   -2.7974   49.5015   26.7063 H   0  0  0  0  0  0
   -3.5421   50.1659   26.5296 N   0  0  0  0  0  0
   -6.3537   52.2312   27.3340 C   0  0  0  0  0  0
   -7.0020   52.5592   25.9736 C   0  0  0  0  0  0
   -5.9116   52.4354   24.8944 C   0  0  0  0  0  0
    7.7439   54.4975   24.8373 H   0  0  0  0  0  0
    6.8279   54.0866   22.5870 H   0  0  0  0  0  0
    4.3848   53.9216   22.2595 H   0  0  0  0  0  0
    3.7932   54.6294   26.4625 H   0  0  0  0  0  0
    6.2367   54.7588   26.7794 H   0  0  0  0  0  0
    2.1078   55.2970   24.0817 H   0  0  0  0  0  0
    2.1390   53.8520   23.1477 H   0  0  0  0  0  0
    1.5735   51.8892   23.1242 H   0  0  0  0  0  0
    0.4375   49.7733   23.2316 H   0  0  0  0  0  0
   -0.5668   50.4744   27.3546 H   0  0  0  0  0  0
    0.5598   52.6510   27.2444 H   0  0  0  0  0  0
   -0.4978   48.0381   26.1303 H   0  0  0  0  0  0
   -7.0396   51.6605   27.9625 H   0  0  0  0  0  0
   -6.0944   53.1366   27.8810 H   0  0  0  0  0  0
   -7.7900   51.8324   25.7675 H   0  0  0  0  0  0
   -7.4804   53.5402   25.9688 H   0  0  0  0  0  0
   -5.4522   53.4053   24.7026 H   0  0  0  0  0  0
   -6.3105   52.0686   23.9491 H   0  0  0  0  0  0
  1  6  2  0  0  0
  1  2  1  0  0  0
  1 32  1  0  0  0
  2  3  2  0  0  0
  2 33  1  0  0  0
  3  4  1  0  0  0
  3 34  1  0  0  0
  4  5  2  0  0  0
  4  7  1  0  0  0
  5  6  1  0  0  0
  5 35  1  0  0  0
  6 36  1  0  0  0
  7  8  1  0  0  0
  7 37  1  0  0  0
  7 38  1  0  0  0
  8  9  1  0  0  0
  9 14  2  0  0  0
  9 10  1  0  0  0
 10 11  2  0  0  0
 10 39  1  0  0  0
 11 12  1  0  0  0
 11 40  1  0  0  0
 12 13  2  0  0  0
 12 15  1  0  0  0
 13 14  1  0  0  0
 13 41  1  0  0  0
 14 42  1  0  0  0
 15 16  2  0  0  0
 15 43  1  0  0  0
 16 17  1  0  0  0
 17 21  1  0  0  0
 17 18  1  0  0  0
 18 19  2  0  0  0
 18 23  1  0  0  0
 19 20  1  0  0  0
 20 21  2  0  0  0
 21 22  1  0  0  0
 23 24  2  0  0  0
 23 28  1  0  0  0
 24 31  1  0  0  0
 24 25  1  0  0  0
 25 29  1  0  0  0
 25 26  2  0  0  0
 26 28  1  0  0  0
 27 28  1  0  0  0
 29 30  1  0  0  0
 29 44  1  0  0  0
 29 45  1  0  0  0
 30 31  1  0  0  0
 30 46  1  0  0  0
 30 47  1  0  0  0
 31 48  1  0  0  0
 31 49  1  0  0  0
M  CHG  1  22  -1
M  END
> <i_i_glide_confnum>
32

> <i_i_glide_lignum>
1956

> <i_i_glide_posenum>
72

> <i_i_glide_rotatable_bonds>
6

> <i_m_Source_File_Index>
185

> <b_m_subgroup_collapsed>
0

> <r_i_docking_score>
-4.47537

> <r_i_glide_ecoul>
-3.55743

> <r_i_glide_eff_state_penalty>
0

> <r_i_glide_einternal>
2.09308

> <r_i_glide_emodel>
-47.4212

> <r_i_glide_energy>
-36.4689

> <r_i_glide_erotb>
0.68633

> <r_i_glide_esite>
-0.156172

> <r_i_glide_evdw>
-32.9115

> <r_i_glide_gscore>
-4.47537

> <r_i_glide_hbond>
-0.00414996

> <r_i_glide_ligand_efficiency>
-0.149179

> <r_i_glide_ligand_efficiency_ln>
-1.01685

> <r_i_glide_ligand_efficiency_sa>
-0.463534

> <r_i_glide_lipo>
-2.246

> <r_i_glide_metal>
0

> <r_i_glide_rewards>
-0.576191

> <s_i_glide_gridfile>
wee1_glide-grid

> <s_m_Source_File>
wee1_decoys_glide_SP.sdf

> <s_m_Source_Path>
/Users/zhangxujun/Desktop

> <s_m_entry_id>
460

> <s_m_entry_name>
wee1_decoys_glide_SP.185

> <s_m_subgroup_title>
wee1_decoys_glide_SP

> <s_m_subgroupid>
wee1_decoys_glide_SP


$$$$
