ZINC03522808_409
                    3D
 Schrodinger Suite 2024-2.
 52 55  0  0  1  0            999 V2000
    7.0705   55.6968   24.9378 C   0  0  0  0  0  0
    5.7275   55.2482   25.5256 C   0  0  1  0  0  0
    5.0996   56.1340   25.5879 H   0  0  0  0  0  0
    5.0657   54.1934   24.6261 C   0  0  0  0  0  0
    3.6197   53.8892   25.0592 C   0  0  0  0  0  0
    3.5506   53.6978   26.5791 C   0  0  0  0  0  0
    4.5908   54.0965   27.4254 C   0  0  0  0  0  0
    4.2844   53.7891   29.1167 S   0  0  0  0  0  0
    2.7273   53.0986   28.7238 C   0  0  0  0  0  0
    2.4592   53.1217   27.3196 C   0  0  0  0  0  0
    1.2091   52.5627   26.9460 C   0  0  0  0  0  0
    0.3642   52.0394   27.8715 N   0  0  0  0  0  0
    0.7499   52.0972   29.1670 C   0  0  0  0  0  0
    1.9064   52.6069   29.6574 N   0  0  0  0  0  0
    0.7045   52.4967   25.2457 S   0  0  0  0  0  0
   -0.7306   51.3945   25.0289 C   0  0  1  0  0  0
   -0.5070   50.4699   25.5655 H   0  0  0  0  0  0
   -2.0418   51.9743   25.6106 C   0  0  0  0  0  0
   -0.8571   51.0252   23.5336 C   0  0  0  0  0  0
   -1.7548   51.5205   22.8471 O   0  0  0  0  0  0
    0.1013   50.2035   23.0455 N   0  0  0  0  0  0
    0.2380   49.6942   21.7401 C   0  0  0  0  0  0
    1.5200   49.2970   21.3483 C   0  0  0  0  0  0
    1.7327   48.7663   20.0766 C   0  0  0  0  0  0
    0.6586   48.6145   19.1981 C   0  0  0  0  0  0
   -0.6250   49.0029   19.5852 C   0  0  0  0  0  0
   -0.8370   49.5385   20.8522 C   0  0  0  0  0  0
    0.9295   47.9132   17.5705 S   0  0  0  0  0  0
    2.0164   46.9367   17.6826 O   0  0  0  0  0  0
   -0.3808   47.5266   17.0375 O   0  0  0  0  0  0
    1.5044   49.2404   16.6021 N   0  0  0  0  0  0
    5.9189   54.6800   26.9513 C   0  0  0  0  0  0
    7.7769   54.8688   24.8825 H   0  0  0  0  0  0
    6.9502   56.0905   23.9281 H   0  0  0  0  0  0
    7.5043   56.4926   25.5407 H   0  0  0  0  0  0
    5.0474   54.5465   23.5939 H   0  0  0  0  0  0
    5.6835   53.2969   24.5883 H   0  0  0  0  0  0
    3.2958   52.9964   24.5266 H   0  0  0  0  0  0
    2.9537   54.6960   24.7503 H   0  0  0  0  0  0
    0.0571   51.6880   29.8899 H   0  0  0  0  0  0
   -2.8833   51.2977   25.4512 H   0  0  0  0  0  0
   -1.9725   52.1394   26.6848 H   0  0  0  0  0  0
   -2.2947   52.9300   25.1496 H   0  0  0  0  0  0
    0.8758   50.0081   23.6617 H   0  0  0  0  0  0
    2.3610   49.4003   22.0196 H   0  0  0  0  0  0
    2.7271   48.4693   19.7749 H   0  0  0  0  0  0
   -1.4621   48.8866   18.9118 H   0  0  0  0  0  0
   -1.8434   49.8089   21.1326 H   0  0  0  0  0  0
    2.5371   49.2721   16.4972 H   0  0  0  0  0  0
    0.9928   49.3676   15.7281 H   0  0  0  0  0  0
    6.2823   55.4493   27.6352 H   0  0  0  0  0  0
    6.6721   53.8903   26.9449 H   0  0  0  0  0  0
  1  2  1  0  0  0
  1 33  1  0  0  0
  1 34  1  0  0  0
  1 35  1  0  0  0
  2  3  1  0  0  0
  2 32  1  0  0  0
  2  4  1  0  0  0
  4  5  1  0  0  0
  4 36  1  0  0  0
  4 37  1  0  0  0
  5  6  1  0  0  0
  5 38  1  0  0  0
  5 39  1  0  0  0
  6 10  1  0  0  0
  6  7  2  0  0  0
  7  8  1  0  0  0
  7 32  1  0  0  0
  8  9  1  0  0  0
  9 14  2  0  0  0
  9 10  1  0  0  0
 10 11  2  0  0  0
 11 12  1  0  0  0
 11 15  1  0  0  0
 12 13  2  0  0  0
 13 14  1  0  0  0
 13 40  1  0  0  0
 15 16  1  0  0  0
 16 17  1  0  0  0
 16 18  1  0  0  0
 16 19  1  0  0  0
 18 41  1  0  0  0
 18 42  1  0  0  0
 18 43  1  0  0  0
 19 20  2  0  0  0
 19 21  1  0  0  0
 21 22  1  0  0  0
 21 44  1  0  0  0
 22 27  2  0  0  0
 22 23  1  0  0  0
 23 24  2  0  0  0
 23 45  1  0  0  0
 24 25  1  0  0  0
 24 46  1  0  0  0
 25 26  2  0  0  0
 25 28  1  0  0  0
 26 27  1  0  0  0
 26 47  1  0  0  0
 27 48  1  0  0  0
 28 29  2  0  0  0
 28 30  2  0  0  0
 28 31  1  0  0  0
 31 49  1  0  0  0
 31 50  1  0  0  0
 32 51  1  0  0  0
 32 52  1  0  0  0
M  END
> <i_i_glide_confnum>
21

> <i_i_glide_lignum>
410

> <i_i_glide_posenum>
248

> <i_i_glide_rotatable_bonds>
6

> <i_m_Source_File_Index>
3540

> <b_m_subgroup_collapsed>
0

> <r_i_docking_score>
-6.01188

> <r_i_glide_ecoul>
-7.17724

> <r_i_glide_eff_state_penalty>
0

> <r_i_glide_einternal>
5.6479

> <r_i_glide_emodel>
-62.9829

> <r_i_glide_energy>
-47.0525

> <r_i_glide_erotb>
0.470664

> <r_i_glide_esite>
-0.208352

> <r_i_glide_evdw>
-39.8753

> <r_i_glide_gscore>
-6.01188

> <r_i_glide_hbond>
-0.16

> <r_i_glide_ligand_efficiency>
-0.200396

> <r_i_glide_ligand_efficiency_ln>
-1.36596

> <r_i_glide_ligand_efficiency_sa>
-0.622677

> <r_i_glide_lipo>
-2.4989

> <r_i_glide_metal>
0

> <r_i_glide_rewards>
-0.544942

> <s_i_glide_gridfile>
wee1_glide-grid

> <s_m_Source_File>
wee1_decoys_glide_SP.sdf

> <s_m_Source_Path>
/Users/zhangxujun/Desktop

> <s_m_entry_id>
3815

> <s_m_entry_name>
wee1_decoys_glide_SP.3540

> <s_m_subgroup_title>
wee1_decoys_glide_SP

> <s_m_subgroupid>
wee1_decoys_glide_SP


$$$$
