ZINC22968282_481
                    3D
 Schrodinger Suite 2024-2.
 55 58  0  0  1  0            999 V2000
    6.4512   54.3979   27.2840 C   0  0  0  0  0  0
    5.3204   54.0914   28.0420 C   0  0  0  0  0  0
    4.0736   53.9175   27.4260 C   0  0  0  0  0  0
    3.9835   54.0962   26.0371 C   0  0  0  0  0  0
    5.1115   54.3837   25.2689 C   0  0  0  0  0  0
    6.3530   54.5413   25.9006 C   0  0  0  0  0  0
    4.8980   54.4922   23.8867 N   0  0  0  0  0  0
    5.7803   54.3572   22.8766 C   0  0  0  0  0  0
    6.9739   54.0961   23.0268 O   0  0  0  0  0  0
    5.1771   54.5115   21.4637 C   0  0  1  0  0  0
    4.1548   54.8912   21.5386 H   0  0  0  0  0  0
    6.0326   55.3761   20.5123 C   0  0  0  0  0  0
    6.1738   54.5266   19.2603 C   0  0  0  0  0  0
    5.1450   53.4158   19.4330 C   0  0  0  0  0  0
    5.1045   53.2289   20.8420 O   0  0  0  0  0  0
    2.8596   53.5423   28.2429 C   0  0  0  0  0  0
    2.7743   53.8909   29.4225 O   0  0  0  0  0  0
    1.9398   52.8062   27.5750 N   0  0  0  0  0  0
    0.6773   52.3310   27.9822 C   0  0  0  0  0  0
    0.3455   52.1907   29.3390 C   0  0  0  0  0  0
   -0.8952   51.6967   29.7207 C   0  0  0  0  0  0
   -1.8368   51.3421   28.7602 C   0  0  0  0  0  0
   -1.5216   51.4726   27.4044 C   0  0  0  0  0  0
   -0.2648   51.9450   26.9966 C   0  0  0  0  0  0
    0.0231   52.0110   25.4857 C   0  0  0  0  0  0
    0.7369   53.0825   25.1392 F   0  0  0  0  0  0
    0.7044   50.9245   25.1358 F   0  0  0  0  0  0
   -1.0982   52.0424   24.7625 F   0  0  0  0  0  0
   -3.0450   50.8277   29.2327 N   0  0  0  0  0  0
   -4.2667   50.8864   28.6740 C   0  0  0  0  0  0
   -4.5670   51.5526   27.6818 O   0  0  0  0  0  0
   -5.2378   50.1041   29.3898 C   0  0  0  0  0  0
   -5.1042   48.9761   30.2011 C   0  0  0  0  0  0
   -6.3928   48.5902   30.5759 C   0  0  0  0  0  0
   -7.2576   49.4696   29.9466 C   0  0  0  0  0  0
   -6.5595   50.3727   29.2092 O   0  0  0  0  0  0
    7.4058   54.5204   27.7748 H   0  0  0  0  0  0
    5.4254   53.9776   29.1125 H   0  0  0  0  0  0
    3.0327   53.9929   25.5355 H   0  0  0  0  0  0
    7.2425   54.7743   25.3358 H   0  0  0  0  0  0
    3.9327   54.5913   23.6155 H   0  0  0  0  0  0
    5.5048   56.2927   20.2416 H   0  0  0  0  0  0
    7.0289   55.6202   20.8901 H   0  0  0  0  0  0
    6.0136   55.0969   18.3428 H   0  0  0  0  0  0
    7.1776   54.0983   19.2076 H   0  0  0  0  0  0
    4.1498   53.6716   19.0632 H   0  0  0  0  0  0
    5.4317   52.4968   18.9241 H   0  0  0  0  0  0
    2.1542   52.6251   26.6074 H   0  0  0  0  0  0
    1.0405   52.4322   30.1262 H   0  0  0  0  0  0
   -1.1134   51.5814   30.7752 H   0  0  0  0  0  0
   -2.2451   51.1564   26.6670 H   0  0  0  0  0  0
   -2.9436   50.2524   30.0598 H   0  0  0  0  0  0
   -4.1754   48.4967   30.4845 H   0  0  0  0  0  0
   -6.6635   47.7592   31.2117 H   0  0  0  0  0  0
   -8.3339   49.5632   29.9209 H   0  0  0  0  0  0
  1  6  2  0  0  0
  1  2  1  0  0  0
  1 37  1  0  0  0
  2  3  2  0  0  0
  2 38  1  0  0  0
  3  4  1  0  0  0
  3 16  1  0  0  0
  4  5  2  0  0  0
  4 39  1  0  0  0
  5  6  1  0  0  0
  5  7  1  0  0  0
  6 40  1  0  0  0
  7  8  1  0  0  0
  7 41  1  0  0  0
  8  9  2  0  0  0
  8 10  1  0  0  0
 10 11  1  0  0  0
 10 15  1  0  0  0
 10 12  1  0  0  0
 12 13  1  0  0  0
 12 42  1  0  0  0
 12 43  1  0  0  0
 13 14  1  0  0  0
 13 44  1  0  0  0
 13 45  1  0  0  0
 14 15  1  0  0  0
 14 46  1  0  0  0
 14 47  1  0  0  0
 16 17  2  0  0  0
 16 18  1  0  0  0
 18 19  1  0  0  0
 18 48  1  0  0  0
 19 24  2  0  0  0
 19 20  1  0  0  0
 20 21  2  0  0  0
 20 49  1  0  0  0
 21 22  1  0  0  0
 21 50  1  0  0  0
 22 23  2  0  0  0
 22 29  1  0  0  0
 23 24  1  0  0  0
 23 51  1  0  0  0
 24 25  1  0  0  0
 25 26  1  0  0  0
 25 27  1  0  0  0
 25 28  1  0  0  0
 29 30  1  0  0  0
 29 52  1  0  0  0
 30 31  2  0  0  0
 30 32  1  0  0  0
 32 36  1  0  0  0
 32 33  2  0  0  0
 33 34  1  0  0  0
 33 53  1  0  0  0
 34 35  2  0  0  0
 34 54  1  0  0  0
 35 36  1  0  0  0
 35 55  1  0  0  0
M  END
> <i_i_glide_confnum>
326

> <i_i_glide_lignum>
482

> <i_i_glide_posenum>
186

> <i_i_glide_rotatable_bonds>
10

> <i_m_Source_File_Index>
5134

> <b_m_subgroup_collapsed>
0

> <r_i_docking_score>
-5.61658

> <r_i_glide_ecoul>
-5.46027

> <r_i_glide_eff_state_penalty>
0

> <r_i_glide_einternal>
8.56765

> <r_i_glide_emodel>
-66.3318

> <r_i_glide_energy>
-50.8216

> <r_i_glide_erotb>
0.770094

> <r_i_glide_esite>
-0.159623

> <r_i_glide_evdw>
-45.3613

> <r_i_glide_gscore>
-5.61658

> <r_i_glide_hbond>
-0.0630891

> <r_i_glide_ligand_efficiency>
-0.160474

> <r_i_glide_ligand_efficiency_ln>
-1.23296

> <r_i_glide_ligand_efficiency_sa>
-0.52492

> <r_i_glide_lipo>
-2.19799

> <r_i_glide_metal>
0

> <r_i_glide_rewards>
-0.878869

> <s_i_glide_gridfile>
wee1_glide-grid

> <s_m_Source_File>
wee1_decoys_glide_SP.sdf

> <s_m_Source_Path>
/Users/zhangxujun/Desktop

> <s_m_entry_id>
5409

> <s_m_entry_name>
wee1_decoys_glide_SP.5134

> <s_m_subgroup_title>
wee1_decoys_glide_SP

> <s_m_subgroupid>
wee1_decoys_glide_SP


$$$$
