ZINC36013484_1040
                    3D
 Schrodinger Suite 2024-2.
 73 76  0  0  1  0            999 V2000
    6.9953   59.3753   18.6981 C   0  0  0  0  0  0
    7.2061   57.8911   18.8392 C   0  0  0  0  0  0
    8.6535   57.5025   18.4933 C   0  0  0  0  0  0
    8.9625   56.1000   18.7932 N   0  0  0  0  0  0
    8.9272   55.7211   20.2236 C   0  0  0  0  0  0
    7.5419   55.2969   20.7359 C   0  0  0  0  0  0
    6.6437   55.0179   19.9406 O   0  0  0  0  0  0
    7.4165   55.2671   22.0797 N   0  0  0  0  0  0
    6.3132   54.8427   22.8400 C   0  0  0  0  0  0
    6.2939   55.1914   24.1928 C   0  0  0  0  0  0
    5.2033   54.8297   24.9908 C   0  0  0  0  0  0
    4.1259   54.1042   24.4543 C   0  0  0  0  0  0
    4.1957   53.7155   23.1114 C   0  0  0  0  0  0
    5.2677   54.0752   22.3141 C   0  0  0  0  0  0
    3.0160   53.7402   25.2194 N   0  0  0  0  0  0
    1.6754   53.5962   24.6363 C   0  0  0  0  0  0
    0.9536   52.3382   25.1404 C   0  0  0  0  0  0
    0.8135   52.4542   26.6047 N   0  0  0  0  0  0
    2.0778   52.6352   27.3470 C   0  0  0  0  0  0
    2.9686   53.7286   26.6911 C   0  0  0  0  0  0
   -0.3277   52.1056   27.2742 C   0  0  0  0  0  0
   -0.3576   51.9786   28.5014 O   0  0  0  0  0  0
   -1.4359   52.0189   26.5018 N   0  0  0  0  0  0
   -2.7619   51.7460   26.8734 C   0  0  0  0  0  0
   -3.1199   50.9520   27.9723 C   0  0  0  0  0  0
   -4.4633   50.7488   28.2851 C   0  0  0  0  0  0
   -5.4571   51.3294   27.5003 C   0  0  0  0  0  0
   -5.1130   52.1159   26.3987 C   0  0  0  0  0  0
   -3.7650   52.3084   26.0817 C   0  0  0  0  0  0
   -6.1883   52.7605   25.5522 C   0  0  0  0  0  0
    9.1533   55.1491   17.8310 C   0  0  0  0  0  0
    9.1306   53.9423   18.0794 O   0  0  0  0  0  0
    9.4283   55.5664   16.4065 C   0  0  0  0  0  0
   10.4552   56.4726   16.1111 C   0  0  0  0  0  0
   10.7286   56.8122   14.7891 C   0  0  0  0  0  0
    9.9847   56.2373   13.7601 C   0  0  0  0  0  0
    8.9749   55.3209   14.0395 C   0  0  0  0  0  0
    8.7012   54.9789   15.3621 C   0  0  0  0  0  0
   10.2549   56.5649   12.4779 F   0  0  0  0  0  0
    5.9957   59.6875   19.0162 H   0  0  0  0  0  0
    7.7071   59.9423   19.2978 H   0  0  0  0  0  0
    7.1059   59.6948   17.6616 H   0  0  0  0  0  0
    6.5046   57.3530   18.1981 H   0  0  0  0  0  0
    6.9431   57.6598   19.8673 H   0  0  0  0  0  0
    9.3476   58.1299   19.0515 H   0  0  0  0  0  0
    8.8094   57.7707   17.4480 H   0  0  0  0  0  0
    9.6005   54.8897   20.3617 H   0  0  0  0  0  0
    9.3480   56.4968   20.8588 H   0  0  0  0  0  0
    8.2264   55.5396   22.6268 H   0  0  0  0  0  0
    7.1003   55.7668   24.6251 H   0  0  0  0  0  0
    5.1953   55.1415   26.0242 H   0  0  0  0  0  0
    3.4323   53.1066   22.6546 H   0  0  0  0  0  0
    5.2580   53.7245   21.2942 H   0  0  0  0  0  0
    1.1053   54.4960   24.8860 H   0  0  0  0  0  0
    1.6757   53.5941   23.5487 H   0  0  0  0  0  0
    0.0045   52.2549   24.6129 H   0  0  0  0  0  0
    1.5483   51.4623   24.8818 H   0  0  0  0  0  0
    2.6376   51.7007   27.2777 H   0  0  0  0  0  0
    1.9316   52.8807   28.3996 H   0  0  0  0  0  0
    3.9738   53.6649   27.1093 H   0  0  0  0  0  0
    2.5613   54.7037   26.9655 H   0  0  0  0  0  0
   -1.3136   52.2373   25.5275 H   0  0  0  0  0  0
   -2.3679   50.4966   28.5967 H   0  0  0  0  0  0
   -4.7242   50.1385   29.1386 H   0  0  0  0  0  0
   -6.4921   51.1711   27.7561 H   0  0  0  0  0  0
   -3.5026   52.9207   25.2311 H   0  0  0  0  0  0
   -7.1280   52.2104   25.6121 H   0  0  0  0  0  0
   -6.3569   53.7840   25.8743 H   0  0  0  0  0  0
   -5.8917   52.7703   24.5043 H   0  0  0  0  0  0
   11.0531   56.9094   16.9008 H   0  0  0  0  0  0
   11.5185   57.5123   14.5620 H   0  0  0  0  0  0
    8.4129   54.8705   13.2336 H   0  0  0  0  0  0
    7.9234   54.2556   15.5727 H   0  0  0  0  0  0
  1  2  1  0  0  0
  1 40  1  0  0  0
  1 41  1  0  0  0
  1 42  1  0  0  0
  2  3  1  0  0  0
  2 43  1  0  0  0
  2 44  1  0  0  0
  3  4  1  0  0  0
  3 45  1  0  0  0
  3 46  1  0  0  0
  4  5  1  0  0  0
  4 31  1  0  0  0
  5  6  1  0  0  0
  5 47  1  0  0  0
  5 48  1  0  0  0
  6  7  2  0  0  0
  6  8  1  0  0  0
  8  9  1  0  0  0
  8 49  1  0  0  0
  9 14  2  0  0  0
  9 10  1  0  0  0
 10 11  2  0  0  0
 10 50  1  0  0  0
 11 12  1  0  0  0
 11 51  1  0  0  0
 12 13  2  0  0  0
 12 15  1  0  0  0
 13 14  1  0  0  0
 13 52  1  0  0  0
 14 53  1  0  0  0
 15 20  1  0  0  0
 15 16  1  0  0  0
 16 17  1  0  0  0
 16 54  1  0  0  0
 16 55  1  0  0  0
 17 18  1  0  0  0
 17 56  1  0  0  0
 17 57  1  0  0  0
 18 19  1  0  0  0
 18 21  1  0  0  0
 19 20  1  0  0  0
 19 58  1  0  0  0
 19 59  1  0  0  0
 20 60  1  0  0  0
 20 61  1  0  0  0
 21 22  2  0  0  0
 21 23  1  0  0  0
 23 24  1  0  0  0
 23 62  1  0  0  0
 24 29  2  0  0  0
 24 25  1  0  0  0
 25 26  2  0  0  0
 25 63  1  0  0  0
 26 27  1  0  0  0
 26 64  1  0  0  0
 27 28  2  0  0  0
 27 65  1  0  0  0
 28 29  1  0  0  0
 28 30  1  0  0  0
 29 66  1  0  0  0
 30 67  1  0  0  0
 30 68  1  0  0  0
 30 69  1  0  0  0
 31 32  2  0  0  0
 31 33  1  0  0  0
 33 38  2  0  0  0
 33 34  1  0  0  0
 34 35  2  0  0  0
 34 70  1  0  0  0
 35 36  1  0  0  0
 35 71  1  0  0  0
 36 37  2  0  0  0
 36 39  1  0  0  0
 37 38  1  0  0  0
 37 72  1  0  0  0
 38 73  1  0  0  0
M  END
> <i_i_glide_confnum>
238

> <i_i_glide_lignum>
1041

> <i_i_glide_posenum>
149

> <i_i_glide_rotatable_bonds>
12

> <i_m_Source_File_Index>
5732

> <b_m_subgroup_collapsed>
0

> <r_i_docking_score>
-4.81954

> <r_i_glide_ecoul>
-2.15058

> <r_i_glide_eff_state_penalty>
0

> <r_i_glide_einternal>
5.2333

> <r_i_glide_emodel>
-54.597

> <r_i_glide_energy>
-40.6539

> <r_i_glide_erotb>
0.729638

> <r_i_glide_esite>
-0.0486016

> <r_i_glide_evdw>
-38.5033

> <r_i_glide_gscore>
-4.81954

> <r_i_glide_hbond>
-0.32

> <r_i_glide_ligand_efficiency>
-0.123578

> <r_i_glide_ligand_efficiency_ln>
-1.03345

> <r_i_glide_ligand_efficiency_sa>
-0.419079

> <r_i_glide_lipo>
-2.33563

> <r_i_glide_metal>
0

> <r_i_glide_rewards>
-0.597191

> <s_i_glide_gridfile>
wee1_glide-grid

> <s_m_Source_File>
wee1_decoys_glide_SP.sdf

> <s_m_Source_Path>
/Users/zhangxujun/Desktop

> <s_m_entry_id>
6007

> <s_m_entry_name>
wee1_decoys_glide_SP.5732

> <s_m_subgroup_title>
wee1_decoys_glide_SP

> <s_m_subgroupid>
wee1_decoys_glide_SP


$$$$
