ZINC02788867_2665
                    3D
 Schrodinger Suite 2024-2.
 44 47  0  0  1  0            999 V2000
    4.2649   54.6656   25.5391 C   0  0  0  0  0  0
    3.0114   53.9336   25.5345 N   0  0  0  0  0  0
    2.0761   53.8564   24.5418 C   0  0  0  0  0  0
    1.1039   53.0116   25.0447 C   0  0  0  0  0  0
    1.5431   52.6011   26.3181 C   0  0  0  0  0  0
    2.6906   53.1952   26.6022 N   0  0  0  0  0  0
    0.9293   51.5673   27.2795 C   0  0  2  0  0  0
    1.5046   50.6476   27.2176 H   0  0  0  0  0  0
   -0.5297   51.1782   26.9806 C   0  0  0  0  0  0
   -1.2405   50.5800   25.9094 C   0  0  0  0  0  0
   -2.5404   50.5215   26.1699 N   0  0  0  0  0  0
   -2.7081   50.9443   27.4319 N   0  0  0  0  0  0
   -1.5033   51.3364   27.9423 C   0  0  0  0  0  0
   -1.3581   51.8048   29.2234 O   0  0  0  0  0  0
   -0.0802   52.0971   29.5646 C   0  0  0  0  0  0
    1.0143   51.9899   28.7697 C   0  0  0  0  0  0
    2.3006   52.1970   29.3581 C   0  0  0  0  0  0
    3.3194   52.3259   29.8944 N   0  0  0  0  0  0
   -0.0951   52.4624   30.8822 N   0  0  0  0  0  0
   -3.9755   50.9379   28.0549 C   0  0  0  0  0  0
   -5.1051   51.3835   27.3577 C   0  0  0  0  0  0
   -6.3470   51.3931   27.9888 C   0  0  0  0  0  0
   -6.4565   50.9529   29.3076 C   0  0  0  0  0  0
   -5.3372   50.4947   30.0000 C   0  0  0  0  0  0
   -4.0951   50.4881   29.3734 C   0  0  0  0  0  0
   -0.7271   50.0310   24.5773 C   0  0  0  0  0  0
   -1.2172   48.5855   24.2883 C   0  0  0  0  0  0
   -0.9323   47.7448   25.2801 F   0  0  0  0  0  0
   -2.5347   48.5243   24.0821 F   0  0  0  0  0  0
   -0.6397   48.0994   23.1891 F   0  0  0  0  0  0
   -1.1028   50.8343   23.5772 F   0  0  0  0  0  0
    0.6080   50.0292   24.5720 F   0  0  0  0  0  0
    4.3388   55.2964   24.6519 H   0  0  0  0  0  0
    5.0950   53.9556   25.5431 H   0  0  0  0  0  0
    4.3228   55.2940   26.4292 H   0  0  0  0  0  0
    2.1865   54.3892   23.6066 H   0  0  0  0  0  0
    0.2026   52.7060   24.5377 H   0  0  0  0  0  0
    0.7371   52.8231   31.3211 H   0  0  0  0  0  0
   -0.8100   52.0982   31.5106 H   0  0  0  0  0  0
   -5.0254   51.7300   26.3378 H   0  0  0  0  0  0
   -7.2211   51.7359   27.4571 H   0  0  0  0  0  0
   -7.4224   50.9523   29.7923 H   0  0  0  0  0  0
   -5.4292   50.1366   31.0161 H   0  0  0  0  0  0
   -3.2355   50.1141   29.9143 H   0  0  0  0  0  0
  1  2  1  0  0  0
  1 33  1  0  0  0
  1 34  1  0  0  0
  1 35  1  0  0  0
  2  6  1  0  0  0
  2  3  1  0  0  0
  3  4  2  0  0  0
  3 36  1  0  0  0
  4  5  1  0  0  0
  4 37  1  0  0  0
  5  6  2  0  0  0
  5  7  1  0  0  0
  7  8  1  0  0  0
  7 16  1  0  0  0
  7  9  1  0  0  0
  9 13  2  0  0  0
  9 10  1  0  0  0
 10 11  2  0  0  0
 10 26  1  0  0  0
 11 12  1  0  0  0
 12 13  1  0  0  0
 12 20  1  0  0  0
 13 14  1  0  0  0
 14 15  1  0  0  0
 15 16  2  0  0  0
 15 19  1  0  0  0
 16 17  1  0  0  0
 17 18  3  0  0  0
 19 38  1  0  0  0
 19 39  1  0  0  0
 20 25  2  0  0  0
 20 21  1  0  0  0
 21 22  2  0  0  0
 21 40  1  0  0  0
 22 23  1  0  0  0
 22 41  1  0  0  0
 23 24  2  0  0  0
 23 42  1  0  0  0
 24 25  1  0  0  0
 24 43  1  0  0  0
 25 44  1  0  0  0
 26 27  1  0  0  0
 26 31  1  0  0  0
 26 32  1  0  0  0
 27 28  1  0  0  0
 27 29  1  0  0  0
 27 30  1  0  0  0
M  END
> <i_i_glide_confnum>
8

> <i_i_glide_lignum>
2666

> <i_i_glide_posenum>
335

> <i_i_glide_rotatable_bonds>
5

> <i_m_Source_File_Index>
3675

> <b_m_subgroup_collapsed>
0

> <r_i_docking_score>
-4.57367

> <r_i_glide_ecoul>
-5.46992

> <r_i_glide_eff_state_penalty>
0

> <r_i_glide_einternal>
2.85445

> <r_i_glide_emodel>
-46.0595

> <r_i_glide_energy>
-37.3753

> <r_i_glide_erotb>
0.314069

> <r_i_glide_esite>
-0.309773

> <r_i_glide_evdw>
-31.9054

> <r_i_glide_gscore>
-4.57367

> <r_i_glide_hbond>
-0.185618

> <r_i_glide_ligand_efficiency>
-0.147538

> <r_i_glide_ligand_efficiency_ln>
-1.0315

> <r_i_glide_ligand_efficiency_sa>
-0.463472

> <r_i_glide_lipo>
-1.03482

> <r_i_glide_metal>
0

> <r_i_glide_rewards>
-0.941774

> <s_i_glide_gridfile>
wee1_glide-grid

> <s_m_Source_File>
wee1_decoys_glide_SP.sdf

> <s_m_Source_Path>
/Users/zhangxujun/Desktop

> <s_m_entry_id>
3950

> <s_m_entry_name>
wee1_decoys_glide_SP.3675

> <s_m_subgroup_title>
wee1_decoys_glide_SP

> <s_m_subgroupid>
wee1_decoys_glide_SP


$$$$
