ZINC13211872_521
                    3D
 Schrodinger Suite 2024-2.
 52 54  0  0  1  0            999 V2000
    6.3064   54.3246   23.2973 C   0  0  0  0  0  0
    5.4696   53.9501   22.0593 C   0  0  2  0  0  0
    5.8392   52.9758   21.7464 H   0  0  0  0  0  0
    5.6326   54.8719   20.8317 C   0  0  0  0  0  0
    6.5951   55.8951   20.7880 C   0  0  0  0  0  0
    6.7431   56.6852   19.6461 C   0  0  0  0  0  0
    5.9375   56.4686   18.5312 C   0  0  0  0  0  0
    4.9832   55.4545   18.5528 C   0  0  0  0  0  0
    4.8399   54.6609   19.6897 C   0  0  0  0  0  0
    4.1922   55.2376   17.4771 F   0  0  0  0  0  0
    6.0890   57.2415   17.4324 F   0  0  0  0  0  0
    4.0589   53.8370   22.4289 N   0  0  0  0  0  0
    3.2693   52.6949   22.2120 C   0  0  0  0  0  0
    3.6222   51.7454   21.2414 C   0  0  0  0  0  0
    2.8139   50.6440   20.9852 C   0  0  0  0  0  0
    1.6402   50.4396   21.7151 C   0  0  0  0  0  0
    1.3054   51.3617   22.7148 C   0  0  0  0  0  0
    2.0949   52.4912   22.9629 C   0  0  0  0  0  0
    1.4872   53.6328   24.2267 S   0  0  0  0  0  0
    0.0276   53.5815   24.0820 O   0  0  0  0  0  0
    2.2129   54.8965   24.0739 O   0  0  0  0  0  0
    1.9519   52.9457   25.8103 N   0  0  0  0  0  0
    3.1785   53.4195   26.4999 C   0  0  0  0  0  0
    2.8098   54.2792   27.7254 C   0  0  0  0  0  0
    1.8461   53.5343   28.6940 C   0  0  0  0  0  0
    0.6383   52.8723   27.9558 C   0  0  0  0  0  0
    1.0166   52.1420   26.6393 C   0  0  0  0  0  0
    2.6475   52.5345   29.5672 C   0  0  0  0  0  0
    2.6462   51.3150   29.2815 O   0  0  0  0  0  0
    0.7616   49.2849   21.4209 N   0  3  0  0  0  0
    1.0748   48.5223   20.5092 O   0  0  0  0  0  0
   -0.2505   49.1317   22.0984 O   0  5  0  0  0  0
    7.3751   54.3244   23.0770 H   0  0  0  0  0  0
    6.0386   55.3065   23.6845 H   0  0  0  0  0  0
    6.1524   53.6071   24.1044 H   0  0  0  0  0  0
    7.2440   56.0885   21.6287 H   0  0  0  0  0  0
    7.4896   57.4620   19.6072 H   0  0  0  0  0  0
    4.0843   53.8913   19.6727 H   0  0  0  0  0  0
    3.6959   54.4901   23.1178 H   0  0  0  0  0  0
    4.5031   51.8575   20.6289 H   0  0  0  0  0  0
    3.1053   49.9571   20.2017 H   0  0  0  0  0  0
    0.4015   51.2150   23.2908 H   0  0  0  0  0  0
    3.7829   53.9949   25.7993 H   0  0  0  0  0  0
    3.7721   52.5548   26.7964 H   0  0  0  0  0  0
    2.3006   55.1588   27.3377 H   0  0  0  0  0  0
    3.7007   54.6486   28.2367 H   0  0  0  0  0  0
    1.4283   54.2558   29.3977 H   0  0  0  0  0  0
    0.0759   52.2081   28.6150 H   0  0  0  0  0  0
   -0.0519   53.6688   27.6821 H   0  0  0  0  0  0
    0.1216   51.9237   26.0565 H   0  0  0  0  0  0
    1.4883   51.1839   26.8575 H   0  0  0  0  0  0
    3.3354   53.0443   30.4818 O   0  5  0  0  0  0
  1  2  1  0  0  0
  1 33  1  0  0  0
  1 34  1  0  0  0
  1 35  1  0  0  0
  2  3  1  0  0  0
  2  4  1  0  0  0
  2 12  1  0  0  0
  4  9  2  0  0  0
  4  5  1  0  0  0
  5  6  2  0  0  0
  5 36  1  0  0  0
  6  7  1  0  0  0
  6 37  1  0  0  0
  7  8  2  0  0  0
  7 11  1  0  0  0
  8  9  1  0  0  0
  8 10  1  0  0  0
  9 38  1  0  0  0
 12 13  1  0  0  0
 12 39  1  0  0  0
 13 18  2  0  0  0
 13 14  1  0  0  0
 14 15  2  0  0  0
 14 40  1  0  0  0
 15 16  1  0  0  0
 15 41  1  0  0  0
 16 17  2  0  0  0
 16 30  1  0  0  0
 17 18  1  0  0  0
 17 42  1  0  0  0
 18 19  1  0  0  0
 19 20  2  0  0  0
 19 21  2  0  0  0
 19 22  1  0  0  0
 22 27  1  0  0  0
 22 23  1  0  0  0
 23 24  1  0  0  0
 23 43  1  0  0  0
 23 44  1  0  0  0
 24 25  1  0  0  0
 24 45  1  0  0  0
 24 46  1  0  0  0
 25 26  1  0  0  0
 25 28  1  0  0  0
 25 47  1  0  0  0
 26 27  1  0  0  0
 26 48  1  0  0  0
 26 49  1  0  0  0
 27 50  1  0  0  0
 27 51  1  0  0  0
 28 29  2  0  0  0
 28 52  1  0  0  0
 30 31  2  0  0  0
 30 32  1  0  0  0
M  CHG  3  30   1  32  -1  52  -1
M  END
> <i_i_glide_confnum>
255

> <i_i_glide_lignum>
522

> <i_i_glide_posenum>
252

> <i_i_glide_rotatable_bonds>
7

> <i_m_Source_File_Index>
1926

> <b_m_subgroup_collapsed>
0

> <r_i_docking_score>
-5.75499

> <r_i_glide_ecoul>
-4.99704

> <r_i_glide_eff_state_penalty>
0

> <r_i_glide_einternal>
6.54773

> <r_i_glide_emodel>
-49.9416

> <r_i_glide_energy>
-43.4812

> <r_i_glide_erotb>
0.46002

> <r_i_glide_esite>
-0.0112018

> <r_i_glide_evdw>
-38.4842

> <r_i_glide_gscore>
-5.75499

> <r_i_glide_hbond>
-0.252949

> <r_i_glide_ligand_efficiency>
-0.179843

> <r_i_glide_ligand_efficiency_ln>
-1.2887

> <r_i_glide_ligand_efficiency_sa>
-0.570967

> <r_i_glide_lipo>
-2.224

> <r_i_glide_metal>
0

> <r_i_glide_rewards>
-1.0531

> <s_i_glide_gridfile>
wee1_glide-grid

> <s_m_Source_File>
wee1_decoys_glide_SP.sdf

> <s_m_Source_Path>
/Users/zhangxujun/Desktop

> <s_m_entry_id>
2201

> <s_m_entry_name>
wee1_decoys_glide_SP.1926

> <s_m_subgroup_title>
wee1_decoys_glide_SP

> <s_m_subgroupid>
wee1_decoys_glide_SP


$$$$
