ZINC20680228_2549
                    3D
 Schrodinger Suite 2024-2.
 54 57  0  0  1  0            999 V2000
    5.5354   54.0074   23.0562 C   0  0  0  0  0  0
    4.0997   53.9019   22.5157 C   0  0  0  0  0  0
    3.9386   52.9441   21.3172 C   0  0  2  0  0  0
    4.2398   51.9392   21.6189 H   0  0  0  0  0  0
    4.7727   53.3503   20.0889 C   0  0  0  0  0  0
    2.5242   52.8957   20.9151 N   0  0  0  0  0  0
    1.6719   51.3709   20.7124 S   0  0  0  0  0  0
    0.5141   51.6413   19.8536 O   0  0  0  0  0  0
    2.6478   50.3300   20.3742 O   0  0  0  0  0  0
    0.9992   50.9781   22.3194 C   0  0  0  0  0  0
    1.2842   49.7671   22.9513 C   0  0  0  0  0  0
    0.7045   49.4799   24.1860 C   0  0  0  0  0  0
   -0.1660   50.3881   24.7876 C   0  0  0  0  0  0
   -0.4607   51.6157   24.1613 C   0  0  0  0  0  0
    0.1384   51.8895   22.9273 C   0  0  0  0  0  0
   -1.3969   52.6355   24.8036 C   0  0  1  0  0  0
   -0.8168   53.5509   24.8815 H   0  0  0  0  0  0
   -2.6659   52.8695   24.0052 C   0  0  0  0  0  0
   -3.7450   52.3627   24.6232 C   0  0  0  0  0  0
   -3.3772   51.7217   25.9420 C   0  0  0  0  0  0
   -1.9396   52.2011   26.1793 C   0  0  1  0  0  0
   -2.0288   53.1009   26.7918 H   0  0  0  0  0  0
   -1.0527   51.1941   26.9630 C   0  0  1  0  0  0
   -1.6853   50.7173   27.7138 H   0  0  0  0  0  0
   -0.6316   50.1008   26.0816 N   0  0  0  0  0  0
    0.0612   51.8843   27.7677 C   0  0  0  0  0  0
    1.2306   52.3522   27.1552 C   0  0  0  0  0  0
    2.2284   52.9602   27.9149 C   0  0  0  0  0  0
    2.0586   53.1099   29.2900 C   0  0  0  0  0  0
    0.8944   52.6606   29.9092 C   0  0  0  0  0  0
   -0.1022   52.0509   29.1493 C   0  0  0  0  0  0
    3.0461   53.6968   30.0378 O   0  0  0  0  0  0
    5.5638   54.5978   23.9729 H   0  0  0  0  0  0
    6.2018   54.4900   22.3406 H   0  0  0  0  0  0
    5.9429   53.0208   23.2827 H   0  0  0  0  0  0
    3.4517   53.5615   23.3259 H   0  0  0  0  0  0
    3.7364   54.8959   22.2498 H   0  0  0  0  0  0
    5.8384   53.3656   20.3048 H   0  0  0  0  0  0
    4.6290   52.6391   19.2728 H   0  0  0  0  0  0
    4.4931   54.3385   19.7211 H   0  0  0  0  0  0
    2.0864   53.7588   20.5605 H   0  0  0  0  0  0
    1.9561   49.0508   22.4993 H   0  0  0  0  0  0
    0.9493   48.5517   24.6838 H   0  0  0  0  0  0
   -0.0748   52.8237   22.4289 H   0  0  0  0  0  0
   -2.6560   53.3636   23.0458 H   0  0  0  0  0  0
   -4.7601   52.3765   24.2536 H   0  0  0  0  0  0
   -3.4475   50.6344   25.8803 H   0  0  0  0  0  0
   -4.0361   52.0484   26.7474 H   0  0  0  0  0  0
   -0.4463   49.2244   26.5554 H   0  0  0  0  0  0
    1.3795   52.2388   26.0925 H   0  0  0  0  0  0
    3.1295   53.3064   27.4300 H   0  0  0  0  0  0
    0.7621   52.7722   30.9766 H   0  0  0  0  0  0
   -0.9943   51.6904   29.6438 H   0  0  0  0  0  0
    3.8068   53.9319   29.5013 H   0  0  0  0  0  0
  1  2  1  0  0  0
  1 33  1  0  0  0
  1 34  1  0  0  0
  1 35  1  0  0  0
  2  3  1  0  0  0
  2 36  1  0  0  0
  2 37  1  0  0  0
  3  4  1  0  0  0
  3  5  1  0  0  0
  3  6  1  0  0  0
  5 38  1  0  0  0
  5 39  1  0  0  0
  5 40  1  0  0  0
  6  7  1  0  0  0
  6 41  1  0  0  0
  7  8  2  0  0  0
  7  9  2  0  0  0
  7 10  1  0  0  0
 10 15  2  0  0  0
 10 11  1  0  0  0
 11 12  2  0  0  0
 11 42  1  0  0  0
 12 13  1  0  0  0
 12 43  1  0  0  0
 13 25  1  0  0  0
 13 14  2  0  0  0
 14 15  1  0  0  0
 14 16  1  0  0  0
 15 44  1  0  0  0
 16 17  1  0  0  0
 16 21  1  0  0  0
 16 18  1  0  0  0
 18 19  2  0  0  0
 18 45  1  0  0  0
 19 20  1  0  0  0
 19 46  1  0  0  0
 20 21  1  0  0  0
 20 47  1  0  0  0
 20 48  1  0  0  0
 21 22  1  0  0  0
 21 23  1  0  0  0
 23 24  1  0  0  0
 23 25  1  0  0  0
 23 26  1  0  0  0
 25 49  1  0  0  0
 26 31  2  0  0  0
 26 27  1  0  0  0
 27 28  2  0  0  0
 27 50  1  0  0  0
 28 29  1  0  0  0
 28 51  1  0  0  0
 29 30  2  0  0  0
 29 32  1  0  0  0
 30 31  1  0  0  0
 30 52  1  0  0  0
 31 53  1  0  0  0
 32 54  1  0  0  0
M  END
> <i_i_glide_confnum>
277

> <i_i_glide_lignum>
2550

> <i_i_glide_posenum>
35

> <i_i_glide_rotatable_bonds>
6

> <i_m_Source_File_Index>
2836

> <b_m_subgroup_collapsed>
0

> <r_i_docking_score>
-4.46723

> <r_i_glide_ecoul>
-6.93003

> <r_i_glide_eff_state_penalty>
0

> <r_i_glide_einternal>
5.18349

> <r_i_glide_emodel>
-46.1703

> <r_i_glide_energy>
-40.0665

> <r_i_glide_erotb>
0.493281

> <r_i_glide_esite>
-0.151423

> <r_i_glide_evdw>
-33.1364

> <r_i_glide_gscore>
-4.46723

> <r_i_glide_hbond>
-0.638614

> <r_i_glide_ligand_efficiency>
-0.159544

> <r_i_glide_ligand_efficiency_ln>
-1.03117

> <r_i_glide_ligand_efficiency_sa>
-0.48447

> <r_i_glide_lipo>
-1.58764

> <r_i_glide_metal>
0

> <r_i_glide_rewards>
0.113492

> <s_i_glide_gridfile>
wee1_glide-grid

> <s_m_Source_File>
wee1_decoys_glide_SP.sdf

> <s_m_Source_Path>
/Users/zhangxujun/Desktop

> <s_m_entry_id>
3111

> <s_m_entry_name>
wee1_decoys_glide_SP.2836

> <s_m_subgroup_title>
wee1_decoys_glide_SP

> <s_m_subgroupid>
wee1_decoys_glide_SP


$$$$
