ZINC13564737_5157
                    3D
 Schrodinger Suite 2024-2.
 65 70  0  0  1  0            999 V2000
   -2.6095   51.0075   27.3039 C   0  0  0  0  0  0
   -2.5211   51.6535   26.0397 O   0  0  0  0  0  0
   -1.2792   52.0271   25.5604 C   0  0  0  0  0  0
   -0.0965   51.9435   26.3068 C   0  0  0  0  0  0
    1.1156   52.3598   25.7601 C   0  0  0  0  0  0
    1.2065   52.8578   24.4524 C   0  0  0  0  0  0
    0.0222   52.8966   23.7044 C   0  0  0  0  0  0
   -1.2057   52.5186   24.2493 C   0  0  0  0  0  0
   -2.3293   52.6393   23.4711 O   0  0  0  0  0  0
   -3.1901   53.6967   23.8672 C   0  0  0  0  0  0
    2.4960   53.3600   23.8726 C   0  0  0  0  0  0
    3.6434   53.7400   24.4592 C   0  0  0  0  0  0
    4.1073   53.8255   25.8367 C   0  0  0  0  0  0
    5.3749   54.1797   26.1641 C   0  0  0  0  0  0
    6.3269   54.5696   25.1536 C   0  0  0  0  0  0
    7.4758   54.9684   25.2812 O   0  0  0  0  0  0
    5.8111   54.4534   23.7914 N   0  3  0  0  0  0
    4.5634   54.0636   23.4822 C   0  0  0  0  0  0
    3.9514   53.8610   22.3130 N   0  0  0  0  0  0
    2.6427   53.4280   22.4968 N   0  5  0  0  0  0
    4.4982   53.9897   20.9909 C   0  0  0  0  0  0
    5.5046   54.9340   20.7495 C   0  0  0  0  0  0
    6.0679   55.0588   19.4858 C   0  0  0  0  0  0
    5.6310   54.2354   18.4511 C   0  0  0  0  0  0
    4.6287   53.2967   18.6727 C   0  0  0  0  0  0
    4.0621   53.1726   19.9378 C   0  0  0  0  0  0
    5.9523   54.1436   27.5843 C   0  0  0  0  0  0
    5.2660   53.3182   28.5722 N   0  0  0  0  0  0
    4.0182   53.6851   29.0886 C   0  0  0  0  0  0
    3.4495   54.9458   28.8820 C   0  0  0  0  0  0
    2.1538   55.2372   29.2979 C   0  0  0  0  0  0
    1.4273   54.2601   29.9652 C   0  0  0  0  0  0
    1.9995   53.0081   30.2019 C   0  0  0  0  0  0
    3.2881   52.7172   29.7651 C   0  0  0  0  0  0
    1.0014   52.0967   30.8356 C   0  0  0  0  0  0
   -0.1464   53.0062   31.2319 C   0  0  0  0  0  0
   -0.0095   54.2841   30.4162 C   0  0  0  0  0  0
   -3.6431   50.7264   27.5053 H   0  0  0  0  0  0
   -2.0146   50.0971   27.2834 H   0  0  0  0  0  0
   -2.2675   51.6484   28.1165 H   0  0  0  0  0  0
   -0.0945   51.5573   27.3157 H   0  0  0  0  0  0
    1.9839   52.2325   26.3769 H   0  0  0  0  0  0
    0.0432   53.2528   22.6901 H   0  0  0  0  0  0
   -4.0969   53.6468   23.2817 H   0  0  0  0  0  0
   -3.4824   53.6528   24.9174 H   0  0  0  0  0  0
   -2.7341   54.6676   23.6792 H   0  0  0  0  0  0
    3.4539   53.5567   26.6392 H   0  0  0  0  0  0
    5.8424   55.6047   21.5228 H   0  0  0  0  0  0
    6.8401   55.7903   19.3019 H   0  0  0  0  0  0
    6.0729   54.3242   17.4690 H   0  0  0  0  0  0
    4.3061   52.6448   17.8728 H   0  0  0  0  0  0
    3.2970   52.4248   20.0905 H   0  0  0  0  0  0
    6.0693   55.1633   27.9542 H   0  0  0  0  0  0
    6.9629   53.7326   27.5312 H   0  0  0  0  0  0
    5.4631   52.3277   28.5357 H   0  0  0  0  0  0
    3.9827   55.6964   28.3359 H   0  0  0  0  0  0
    1.7243   56.2030   29.0809 H   0  0  0  0  0  0
    3.7066   51.7321   29.9101 H   0  0  0  0  0  0
    1.4013   51.5794   31.7085 H   0  0  0  0  0  0
    0.6615   51.3781   30.0827 H   0  0  0  0  0  0
   -1.0968   52.5051   31.0615 H   0  0  0  0  0  0
   -0.0889   53.2577   32.2923 H   0  0  0  0  0  0
   -0.6742   54.2372   29.5576 H   0  0  0  0  0  0
   -0.2576   55.1631   31.0089 H   0  0  0  0  0  0
    6.4718   54.6829   23.0640 H   0  0  0  0  0  0
  1  2  1  0  0  0
  1 38  1  0  0  0
  1 39  1  0  0  0
  1 40  1  0  0  0
  2  3  1  0  0  0
  3  8  2  0  0  0
  3  4  1  0  0  0
  4  5  2  0  0  0
  4 41  1  0  0  0
  5  6  1  0  0  0
  5 42  1  0  0  0
  6  7  2  0  0  0
  6 11  1  0  0  0
  7  8  1  0  0  0
  7 43  1  0  0  0
  8  9  1  0  0  0
  9 10  1  0  0  0
 10 44  1  0  0  0
 10 45  1  0  0  0
 10 46  1  0  0  0
 11 20  1  0  0  0
 11 12  2  0  0  0
 12 18  1  0  0  0
 12 13  1  0  0  0
 13 14  2  0  0  0
 13 47  1  0  0  0
 14 15  1  0  0  0
 14 27  1  0  0  0
 15 16  2  0  0  0
 15 17  1  0  0  0
 17 18  2  0  0  0
 17 65  1  0  0  0
 18 19  1  0  0  0
 19 20  1  0  0  0
 19 21  1  0  0  0
 21 26  2  0  0  0
 21 22  1  0  0  0
 22 23  2  0  0  0
 22 48  1  0  0  0
 23 24  1  0  0  0
 23 49  1  0  0  0
 24 25  2  0  0  0
 24 50  1  0  0  0
 25 26  1  0  0  0
 25 51  1  0  0  0
 26 52  1  0  0  0
 27 28  1  0  0  0
 27 53  1  0  0  0
 27 54  1  0  0  0
 28 29  1  0  0  0
 28 55  1  0  0  0
 29 34  2  0  0  0
 29 30  1  0  0  0
 30 31  2  0  0  0
 30 56  1  0  0  0
 31 32  1  0  0  0
 31 57  1  0  0  0
 32 37  1  0  0  0
 32 33  2  0  0  0
 33 34  1  0  0  0
 33 35  1  0  0  0
 34 58  1  0  0  0
 35 36  1  0  0  0
 35 59  1  0  0  0
 35 60  1  0  0  0
 36 37  1  0  0  0
 36 61  1  0  0  0
 36 62  1  0  0  0
 37 63  1  0  0  0
 37 64  1  0  0  0
M  CHG  2  17   1  20  -1
M  END
> <i_i_glide_confnum>
268

> <i_i_glide_lignum>
5158

> <i_i_glide_posenum>
307

> <i_i_glide_rotatable_bonds>
7

> <i_m_Source_File_Index>
3110

> <b_m_subgroup_collapsed>
0

> <r_i_docking_score>
-8.06792

> <r_i_glide_ecoul>
-5.93632

> <r_i_glide_eff_state_penalty>
0

> <r_i_glide_einternal>
10.6845

> <r_i_glide_emodel>
-68.6072

> <r_i_glide_energy>
-49.3871

> <r_i_glide_erotb>
0.419692

> <r_i_glide_esite>
0

> <r_i_glide_evdw>
-43.4508

> <r_i_glide_gscore>
-8.06792

> <r_i_glide_hbond>
-0.31881

> <r_i_glide_ligand_efficiency>
-0.218052

> <r_i_glide_ligand_efficiency_ln>
-1.74974

> <r_i_glide_ligand_efficiency_sa>
-0.726597

> <r_i_glide_lipo>
-4.00582

> <r_i_glide_metal>
0

> <r_i_glide_rewards>
-1.09999

> <s_i_glide_gridfile>
wee1_glide-grid

> <s_m_Source_File>
wee1_decoys_glide_SP.sdf

> <s_m_Source_Path>
/Users/zhangxujun/Desktop

> <s_m_entry_id>
3385

> <s_m_entry_name>
wee1_decoys_glide_SP.3110

> <s_m_subgroup_title>
wee1_decoys_glide_SP

> <s_m_subgroupid>
wee1_decoys_glide_SP


$$$$
