ZINC09262189_3497
                    3D
 Schrodinger Suite 2024-2.
 37 38  0  0  1  0            999 V2000
    4.4886   53.9031   23.3283 C   0  0  0  0  0  0
    5.7643   54.4950   23.2984 C   0  0  0  0  0  0
    6.2802   54.8996   22.0470 C   0  0  0  0  0  0
    5.5363   54.6944   20.8766 C   0  0  0  0  0  0
    4.2833   54.0924   20.9351 C   0  0  0  0  0  0
    3.7559   53.7029   22.1615 C   0  0  0  0  0  0
    2.1929   52.9766   22.2369 Cl  0  0  0  0  0  0
    6.2057   55.2414   19.1763 Br  0  0  0  0  0  0
    7.5046   55.5183   21.9277 O   0  0  0  0  0  0
    6.5279   54.7019   24.5296 C   0  0  0  0  0  0
    6.0703   54.3580   25.7256 N   0  3  0  0  0  0
    6.8592   54.5774   26.9649 C   0  0  0  0  0  0
    6.5057   53.5366   28.0337 C   0  0  0  0  0  0
    5.1784   53.8762   28.5868 N   0  3  0  0  0  0
    4.1378   53.0677   28.5263 C   0  0  0  0  0  0
    2.8398   53.4554   29.0802 C   0  0  0  0  0  0
    1.7842   52.5217   29.2489 C   0  0  0  0  0  0
    0.5773   52.9246   29.8396 C   0  0  0  0  0  0
    0.4139   54.2449   30.2508 C   0  0  0  0  0  0
    1.4169   55.1822   30.0358 C   0  0  0  0  0  0
    2.6152   54.7907   29.4561 C   0  0  0  0  0  0
    1.1808   56.8305   30.4832 Cl  0  0  0  0  0  0
   -0.8791   51.7085   30.0811 Br  0  0  0  0  0  0
    1.9103   51.3078   28.8817 O   0  5  0  0  0  0
    4.0377   53.5830   24.2573 H   0  0  0  0  0  0
    3.7098   53.9427   20.0303 H   0  0  0  0  0  0
    8.1650   55.2966   22.5942 H   0  0  0  0  0  0
    7.5044   55.1558   24.4899 H   0  0  0  0  0  0
    6.6452   55.5903   27.3121 H   0  0  0  0  0  0
    7.9050   54.4968   26.7084 H   0  0  0  0  0  0
    7.1980   53.5994   28.8761 H   0  0  0  0  0  0
    6.5056   52.5013   27.6710 H   0  0  0  0  0  0
    4.2740   52.0969   28.0769 H   0  0  0  0  0  0
   -0.4961   54.5564   30.7333 H   0  0  0  0  0  0
    3.3695   55.5525   29.3141 H   0  0  0  0  0  0
    5.1419   53.9530   25.8174 H   0  0  0  0  0  0
    5.0736   54.7848   29.0299 H   0  0  0  0  0  0
  1  6  2  0  0  0
  1  2  1  0  0  0
  1 25  1  0  0  0
  2  3  2  0  0  0
  2 10  1  0  0  0
  3  4  1  0  0  0
  3  9  1  0  0  0
  4  5  2  0  0  0
  4  8  1  0  0  0
  5  6  1  0  0  0
  5 26  1  0  0  0
  6  7  1  0  0  0
  9 27  1  0  0  0
 10 11  2  0  0  0
 10 28  1  0  0  0
 11 12  1  0  0  0
 11 36  1  0  0  0
 12 13  1  0  0  0
 12 29  1  0  0  0
 12 30  1  0  0  0
 13 14  1  0  0  0
 13 31  1  0  0  0
 13 32  1  0  0  0
 14 15  2  0  0  0
 14 37  1  0  0  0
 15 16  1  0  0  0
 15 33  1  0  0  0
 16 21  2  0  0  0
 16 17  1  0  0  0
 17 18  2  0  0  0
 17 24  1  0  0  0
 18 19  1  0  0  0
 18 23  1  0  0  0
 19 20  2  0  0  0
 19 34  1  0  0  0
 20 21  1  0  0  0
 20 22  1  0  0  0
 21 35  1  0  0  0
M  CHG  3  11   1  14   1  24  -1
M  END
> <i_i_glide_confnum>
36

> <i_i_glide_lignum>
3498

> <i_i_glide_posenum>
263

> <i_i_glide_rotatable_bonds>
6

> <i_m_Source_File_Index>
1457

> <b_m_subgroup_collapsed>
0

> <r_i_docking_score>
-6.51869

> <r_i_glide_ecoul>
-2.77969

> <r_i_glide_eff_state_penalty>
0

> <r_i_glide_einternal>
4.43364

> <r_i_glide_emodel>
-61.6045

> <r_i_glide_energy>
-43.2988

> <r_i_glide_erotb>
0.331511

> <r_i_glide_esite>
0

> <r_i_glide_evdw>
-40.5191

> <r_i_glide_gscore>
-6.51869

> <r_i_glide_hbond>
-0.327356

> <r_i_glide_ligand_efficiency>
-0.271612

> <r_i_glide_ligand_efficiency_ln>
-1.56022

> <r_i_glide_ligand_efficiency_sa>
-0.783465

> <r_i_glide_lipo>
-3.26981

> <r_i_glide_metal>
0

> <r_i_glide_rewards>
-0.810126

> <s_i_glide_gridfile>
wee1_glide-grid

> <s_m_Source_File>
wee1_decoys_glide_SP.sdf

> <s_m_Source_Path>
/Users/zhangxujun/Desktop

> <s_m_entry_id>
1732

> <s_m_entry_name>
wee1_decoys_glide_SP.1457

> <s_m_subgroup_title>
wee1_decoys_glide_SP

> <s_m_subgroupid>
wee1_decoys_glide_SP


$$$$
