ZINC13266873_5887
                    3D
 Schrodinger Suite 2024-2.
 50 53  0  0  1  0            999 V2000
    2.3040   51.2986   17.4086 C   0  0  0  0  0  0
    1.9164   51.1877   18.8709 C   0  0  0  0  0  0
    1.1846   52.2064   19.4787 C   0  0  0  0  0  0
    0.8486   52.1270   20.8300 C   0  0  0  0  0  0
    1.2373   51.0174   21.5922 C   0  0  0  0  0  0
    1.9468   49.9841   20.9685 C   0  0  0  0  0  0
    2.2894   50.0695   19.6179 C   0  0  0  0  0  0
    2.3054   48.8927   21.6807 F   0  0  0  0  0  0
    0.9916   50.8698   22.9700 N   0  0  0  0  0  0
    0.2070   51.5917   23.8001 C   0  0  0  0  0  0
   -0.5366   52.5137   23.4569 O   0  0  0  0  0  0
    0.2684   51.1597   25.2691 C   0  0  0  0  0  0
    0.3429   52.4946   26.5177 S   0  0  0  0  0  0
    2.0183   53.2004   26.3498 C   0  0  0  0  0  0
    2.5004   53.2972   25.1637 N   0  0  0  0  0  0
    3.7628   53.8550   24.9388 C   0  0  0  0  0  0
    4.2217   53.9707   23.6288 C   0  0  0  0  0  0
    5.4998   54.4967   23.3652 C   0  0  0  0  0  0
    6.3029   54.8946   24.4476 C   0  0  0  0  0  0
    5.8462   54.7907   25.7599 C   0  0  0  0  0  0
    4.5711   54.2706   25.9953 C   0  0  0  0  0  0
    4.0400   54.1406   27.4016 C   0  0  0  0  0  0
    4.6955   54.4967   28.3874 O   0  0  0  0  0  0
    2.7677   53.5912   27.4622 N   0  0  0  0  0  0
    2.2491   53.3766   28.7635 C   0  0  0  0  0  0
    1.1502   54.1238   29.2100 C   0  0  0  0  0  0
    0.6084   53.8689   30.4644 C   0  0  0  0  0  0
    1.1862   52.8972   31.2781 C   0  0  0  0  0  0
    2.3125   52.1935   30.8696 C   0  0  0  0  0  0
    2.8309   52.4087   29.5983 C   0  0  0  0  0  0
    0.7044   52.7043   32.5170 F   0  0  0  0  0  0
    5.9796   54.6980   21.9571 C   0  0  0  0  0  0
    6.8339   55.5946   21.7559 O   0  0  0  0  0  0
    1.6810   52.0196   16.8784 H   0  0  0  0  0  0
    2.1807   50.3392   16.9055 H   0  0  0  0  0  0
    3.3477   51.5951   17.3154 H   0  0  0  0  0  0
    0.9051   53.0850   18.9157 H   0  0  0  0  0  0
    0.3216   52.9586   21.2691 H   0  0  0  0  0  0
    2.8615   49.2770   19.1542 H   0  0  0  0  0  0
    1.4798   50.0855   23.3812 H   0  0  0  0  0  0
   -0.6316   50.5783   25.4665 H   0  0  0  0  0  0
    1.1043   50.4844   25.4356 H   0  0  0  0  0  0
    3.5805   53.6579   22.8159 H   0  0  0  0  0  0
    7.2884   55.3041   24.2624 H   0  0  0  0  0  0
    6.4819   55.1071   26.5755 H   0  0  0  0  0  0
    0.7083   54.8802   28.5770 H   0  0  0  0  0  0
   -0.2401   54.4336   30.8176 H   0  0  0  0  0  0
    2.7791   51.5040   31.5561 H   0  0  0  0  0  0
    3.6911   51.8429   29.2671 H   0  0  0  0  0  0
    5.5017   53.9642   21.0627 O   0  5  0  0  0  0
  1  2  1  0  0  0
  1 34  1  0  0  0
  1 35  1  0  0  0
  1 36  1  0  0  0
  2  7  2  0  0  0
  2  3  1  0  0  0
  3  4  2  0  0  0
  3 37  1  0  0  0
  4  5  1  0  0  0
  4 38  1  0  0  0
  5  6  2  0  0  0
  5  9  1  0  0  0
  6  7  1  0  0  0
  6  8  1  0  0  0
  7 39  1  0  0  0
  9 10  1  0  0  0
  9 40  1  0  0  0
 10 11  2  0  0  0
 10 12  1  0  0  0
 12 13  1  0  0  0
 12 41  1  0  0  0
 12 42  1  0  0  0
 13 14  1  0  0  0
 14 24  1  0  0  0
 14 15  2  0  0  0
 15 16  1  0  0  0
 16 21  2  0  0  0
 16 17  1  0  0  0
 17 18  2  0  0  0
 17 43  1  0  0  0
 18 19  1  0  0  0
 18 32  1  0  0  0
 19 20  2  0  0  0
 19 44  1  0  0  0
 20 21  1  0  0  0
 20 45  1  0  0  0
 21 22  1  0  0  0
 22 23  2  0  0  0
 22 24  1  0  0  0
 24 25  1  0  0  0
 25 30  2  0  0  0
 25 26  1  0  0  0
 26 27  2  0  0  0
 26 46  1  0  0  0
 27 28  1  0  0  0
 27 47  1  0  0  0
 28 29  2  0  0  0
 28 31  1  0  0  0
 29 30  1  0  0  0
 29 48  1  0  0  0
 30 49  1  0  0  0
 32 33  2  0  0  0
 32 50  1  0  0  0
M  CHG  1  50  -1
M  END
> <i_i_glide_confnum>
37

> <i_i_glide_lignum>
5888

> <i_i_glide_posenum>
251

> <i_i_glide_rotatable_bonds>
7

> <i_m_Source_File_Index>
2555

> <b_m_subgroup_collapsed>
0

> <r_i_docking_score>
-5.79683

> <r_i_glide_ecoul>
-1.38661

> <r_i_glide_eff_state_penalty>
0

> <r_i_glide_einternal>
6.02142

> <r_i_glide_emodel>
-64.741

> <r_i_glide_energy>
-46.0527

> <r_i_glide_erotb>
0.527085

> <r_i_glide_esite>
-0.1

> <r_i_glide_evdw>
-44.6661

> <r_i_glide_gscore>
-5.79683

> <r_i_glide_hbond>
0

> <r_i_glide_ligand_efficiency>
-0.170495

> <r_i_glide_ligand_efficiency_ln>
-1.28068

> <r_i_glide_ligand_efficiency_sa>
-0.552337

> <r_i_glide_lipo>
-2.64462

> <r_i_glide_metal>
0

> <r_i_glide_rewards>
-1.138

> <s_i_glide_gridfile>
wee1_glide-grid

> <s_m_Source_File>
wee1_decoys_glide_SP.sdf

> <s_m_Source_Path>
/Users/zhangxujun/Desktop

> <s_m_entry_id>
2830

> <s_m_entry_name>
wee1_decoys_glide_SP.2555

> <s_m_subgroup_title>
wee1_decoys_glide_SP

> <s_m_subgroupid>
wee1_decoys_glide_SP


$$$$
