ZINC63531329_6074
                    3D
 Schrodinger Suite 2024-2.
 62 65  0  0  1  0            999 V2000
   -1.4467   47.5577   25.0172 C   0  0  0  0  0  0
   -1.0432   48.9815   24.6818 C   0  0  0  0  0  0
    0.3050   49.2968   24.5108 C   0  0  0  0  0  0
    0.6825   50.6045   24.2179 C   0  0  0  0  0  0
   -0.2925   51.5995   24.1176 C   0  0  0  0  0  0
   -1.6443   51.2795   24.2468 C   0  0  0  0  0  0
   -2.0191   49.9692   24.5332 C   0  0  0  0  0  0
    0.1679   53.2898   23.8641 S   0  0  0  0  0  0
    1.5038   53.4869   25.0409 C   0  0  0  0  0  0
    1.5068   53.1566   26.3473 C   0  0  0  0  0  0
    0.4990   52.4964   27.1890 C   0  0  0  0  0  0
    0.7057   52.3241   28.5069 C   0  0  0  0  0  0
    1.9676   52.7892   29.0950 C   0  0  0  0  0  0
    2.9176   53.3645   28.3031 C   0  0  0  0  0  0
    2.7034   53.5756   26.9318 C   0  0  0  0  0  0
    3.4777   54.1498   26.0343 N   0  3  0  0  0  0
    2.7767   54.2509   24.7231 C   0  0  1  0  0  0
    2.5979   55.2968   24.4818 H   0  0  0  0  0  0
    3.6226   53.6966   23.5640 C   0  0  0  0  0  0
    3.1365   52.8975   22.7607 O   0  0  0  0  0  0
    4.8978   54.1124   23.4899 N   0  0  0  0  0  0
    5.8598   53.6828   22.4800 C   0  0  0  0  0  0
    5.9050   54.6026   21.2695 C   0  0  0  0  0  0
    6.9855   55.4724   21.1019 C   0  0  0  0  0  0
    7.0767   56.2485   19.9512 C   0  0  0  0  0  0
    6.0890   56.1852   18.9708 C   0  0  0  0  0  0
    5.0181   55.2925   19.1338 C   0  0  0  0  0  0
    4.9347   54.4965   20.2724 C   0  0  0  0  0  0
    6.2526   57.0324   17.8918 O   0  0  0  0  0  0
    5.2528   57.1252   16.8771 C   0  0  0  0  0  0
    5.4287   58.4953   16.2118 C   0  0  0  0  0  0
    5.4128   55.9752   15.8675 C   0  0  0  0  0  0
    2.2366   52.7258   30.4304 O   0  0  0  0  0  0
    1.1445   52.5887   31.3423 C   0  0  0  0  0  0
   -0.8404   46.8472   24.4537 H   0  0  0  0  0  0
   -1.2967   47.3620   26.0816 H   0  0  0  0  0  0
   -2.4897   47.3652   24.7591 H   0  0  0  0  0  0
    1.0626   48.5344   24.6177 H   0  0  0  0  0  0
    1.7279   50.8431   24.0857 H   0  0  0  0  0  0
   -2.3989   52.0467   24.1588 H   0  0  0  0  0  0
   -3.0651   49.7273   24.6594 H   0  0  0  0  0  0
   -0.4308   52.1286   26.7784 H   0  0  0  0  0  0
   -0.0474   51.8158   29.0907 H   0  0  0  0  0  0
    3.8301   53.7023   28.7703 H   0  0  0  0  0  0
    5.2063   54.8474   24.1058 H   0  0  0  0  0  0
    5.6386   52.6698   22.1322 H   0  0  0  0  0  0
    6.8461   53.6246   22.9452 H   0  0  0  0  0  0
    7.7667   55.5331   21.8458 H   0  0  0  0  0  0
    7.9272   56.8966   19.8043 H   0  0  0  0  0  0
    4.2410   55.1968   18.3918 H   0  0  0  0  0  0
    4.1070   53.8074   20.3769 H   0  0  0  0  0  0
    4.2503   57.1123   17.3104 H   0  0  0  0  0  0
    4.6913   58.6589   15.4250 H   0  0  0  0  0  0
    6.4214   58.5984   15.7711 H   0  0  0  0  0  0
    5.3097   59.2967   16.9414 H   0  0  0  0  0  0
    4.6666   56.0418   15.0741 H   0  0  0  0  0  0
    6.3971   55.9985   15.4007 H   0  0  0  0  0  0
    5.3001   55.0002   16.3391 H   0  0  0  0  0  0
    1.5257   52.5197   32.3613 H   0  0  0  0  0  0
    0.4847   53.4569   31.2987 H   0  0  0  0  0  0
    0.5446   51.6968   31.1757 H   0  0  0  0  0  0
    4.4037   54.5248   26.2207 H   0  0  0  0  0  0
  1  2  1  0  0  0
  1 35  1  0  0  0
  1 36  1  0  0  0
  1 37  1  0  0  0
  2  7  2  0  0  0
  2  3  1  0  0  0
  3  4  2  0  0  0
  3 38  1  0  0  0
  4  5  1  0  0  0
  4 39  1  0  0  0
  5  6  2  0  0  0
  5  8  1  0  0  0
  6  7  1  0  0  0
  6 40  1  0  0  0
  7 41  1  0  0  0
  8  9  1  0  0  0
  9 17  1  0  0  0
  9 10  2  0  0  0
 10 15  1  0  0  0
 10 11  1  0  0  0
 11 12  2  0  0  0
 11 42  1  0  0  0
 12 13  1  0  0  0
 12 43  1  0  0  0
 13 14  2  0  0  0
 13 33  1  0  0  0
 14 15  1  0  0  0
 14 44  1  0  0  0
 15 16  2  0  0  0
 16 17  1  0  0  0
 16 62  1  0  0  0
 17 18  1  0  0  0
 17 19  1  0  0  0
 19 20  2  0  0  0
 19 21  1  0  0  0
 21 22  1  0  0  0
 21 45  1  0  0  0
 22 23  1  0  0  0
 22 46  1  0  0  0
 22 47  1  0  0  0
 23 28  2  0  0  0
 23 24  1  0  0  0
 24 25  2  0  0  0
 24 48  1  0  0  0
 25 26  1  0  0  0
 25 49  1  0  0  0
 26 27  2  0  0  0
 26 29  1  0  0  0
 27 28  1  0  0  0
 27 50  1  0  0  0
 28 51  1  0  0  0
 29 30  1  0  0  0
 30 31  1  0  0  0
 30 32  1  0  0  0
 30 52  1  0  0  0
 31 53  1  0  0  0
 31 54  1  0  0  0
 31 55  1  0  0  0
 32 56  1  0  0  0
 32 57  1  0  0  0
 32 58  1  0  0  0
 33 34  1  0  0  0
 34 59  1  0  0  0
 34 60  1  0  0  0
 34 61  1  0  0  0
M  CHG  1  16   1
M  END
> <i_i_glide_confnum>
21

> <i_i_glide_lignum>
6075

> <i_i_glide_posenum>
224

> <i_i_glide_rotatable_bonds>
9

> <i_m_Source_File_Index>
1493

> <b_m_subgroup_collapsed>
0

> <r_i_docking_score>
-4.47429

> <r_i_glide_ecoul>
-1.82367

> <r_i_glide_eff_state_penalty>
0

> <r_i_glide_einternal>
6.45032

> <r_i_glide_emodel>
-53.8537

> <r_i_glide_energy>
-42.1572

> <r_i_glide_erotb>
0.661571

> <r_i_glide_esite>
0

> <r_i_glide_evdw>
-40.3336

> <r_i_glide_gscore>
-4.47429

> <r_i_glide_hbond>
-0.0525566

> <r_i_glide_ligand_efficiency>
-0.135584

> <r_i_glide_ligand_efficiency_ln>
-0.995058

> <r_i_glide_ligand_efficiency_sa>
-0.434892

> <r_i_glide_lipo>
-2.2548

> <r_i_glide_metal>
0

> <r_i_glide_rewards>
-0.538278

> <s_i_glide_gridfile>
wee1_glide-grid

> <s_m_Source_File>
wee1_decoys_glide_SP.sdf

> <s_m_Source_Path>
/Users/zhangxujun/Desktop

> <s_m_entry_id>
1768

> <s_m_entry_name>
wee1_decoys_glide_SP.1493

> <s_m_subgroup_title>
wee1_decoys_glide_SP

> <s_m_subgroupid>
wee1_decoys_glide_SP


$$$$
