ZINC61886294_1869
                    3D
 Schrodinger Suite 2024-2.
 39 41  0  0  1  0            999 V2000
    3.5832   54.0345   25.0418 C   0  0  0  0  0  0
    4.3464   54.1719   23.8874 C   0  0  0  0  0  0
    5.6587   54.4920   24.1438 C   0  0  0  0  0  0
    6.0065   54.6100   25.8371 S   0  0  0  0  0  0
    4.3333   54.2529   26.2071 C   0  0  0  0  0  0
    3.9053   54.0986   27.5713 C   0  0  0  0  0  0
    4.6900   53.9207   28.5041 O   0  0  0  0  0  0
    2.5709   54.1298   27.7182 N   0  0  0  0  0  0
    1.8472   53.8801   28.9614 C   0  0  1  0  0  0
    2.1777   54.6391   29.6784 H   0  0  0  0  0  0
    0.3453   54.0610   28.7317 C   0  0  0  0  0  0
   -0.1713   52.7203   28.2044 C   0  0  0  0  0  0
    0.8310   51.6735   28.6907 C   0  0  0  0  0  0
    1.9649   52.4163   29.4439 C   0  0  2  0  0  0
    2.8753   51.9785   29.0346 H   0  0  0  0  0  0
    1.9493   52.3197   30.9868 C   0  0  0  0  0  0
    2.9947   52.0967   31.6800 N   0  0  0  0  0  0
    4.2273   52.0958   30.9927 O   0  0  0  0  0  0
    0.7044   52.4954   31.5424 N   0  0  0  0  0  0
    6.4697   54.6424   22.8878 C   0  0  0  0  0  0
    5.5034   54.0612   21.8355 C   0  0  0  0  0  0
    4.0807   54.0991   22.4106 C   0  0  0  0  0  0
    2.5357   53.7720   25.0191 H   0  0  0  0  0  0
    2.0126   54.4096   26.9262 H   0  0  0  0  0  0
   -0.1383   54.2957   29.6800 H   0  0  0  0  0  0
    0.1172   54.8978   28.0818 H   0  0  0  0  0  0
   -1.1778   52.4959   28.5593 H   0  0  0  0  0  0
   -0.2104   52.7284   27.1144 H   0  0  0  0  0  0
    1.2393   51.1513   27.8228 H   0  0  0  0  0  0
    0.3463   50.8976   29.2839 H   0  0  0  0  0  0
    4.0238   52.4865   30.1363 H   0  0  0  0  0  0
    0.5804   52.4066   32.5436 H   0  0  0  0  0  0
   -0.1200   52.3762   30.9762 H   0  0  0  0  0  0
    6.7164   55.6858   22.6829 H   0  0  0  0  0  0
    7.4049   54.0789   22.9099 H   0  0  0  0  0  0
    5.5744   54.5797   20.8766 H   0  0  0  0  0  0
    5.7683   53.0179   21.6510 H   0  0  0  0  0  0
    3.5000   53.2260   22.1090 H   0  0  0  0  0  0
    3.5517   54.9841   22.0560 H   0  0  0  0  0  0
  1  5  2  0  0  0
  1  2  1  0  0  0
  1 23  1  0  0  0
  2 22  1  0  0  0
  2  3  2  0  0  0
  3  4  1  0  0  0
  3 20  1  0  0  0
  4  5  1  0  0  0
  5  6  1  0  0  0
  6  7  2  0  0  0
  6  8  1  0  0  0
  8  9  1  0  0  0
  8 24  1  0  0  0
  9 10  1  0  0  0
  9 14  1  0  0  0
  9 11  1  0  0  0
 11 12  1  0  0  0
 11 25  1  0  0  0
 11 26  1  0  0  0
 12 13  1  0  0  0
 12 27  1  0  0  0
 12 28  1  0  0  0
 13 14  1  0  0  0
 13 29  1  0  0  0
 13 30  1  0  0  0
 14 15  1  0  0  0
 14 16  1  0  0  0
 16 17  2  0  0  0
 16 19  1  0  0  0
 17 18  1  0  0  0
 18 31  1  0  0  0
 19 32  1  0  0  0
 19 33  1  0  0  0
 20 21  1  0  0  0
 20 34  1  0  0  0
 20 35  1  0  0  0
 21 22  1  0  0  0
 21 36  1  0  0  0
 21 37  1  0  0  0
 22 38  1  0  0  0
 22 39  1  0  0  0
M  END
> <i_i_glide_confnum>
125

> <i_i_glide_lignum>
1870

> <i_i_glide_posenum>
256

> <i_i_glide_rotatable_bonds>
5

> <i_m_Source_File_Index>
2323

> <b_m_subgroup_collapsed>
0

> <r_i_docking_score>
-5.84255

> <r_i_glide_ecoul>
-2.83775

> <r_i_glide_eff_state_penalty>
0

> <r_i_glide_einternal>
1.74541

> <r_i_glide_emodel>
-54.3341

> <r_i_glide_energy>
-40.376

> <r_i_glide_erotb>
1.0614

> <r_i_glide_esite>
-0.169755

> <r_i_glide_evdw>
-37.5383

> <r_i_glide_gscore>
-5.84255

> <r_i_glide_hbond>
-0.00555272

> <r_i_glide_ligand_efficiency>
-0.292128

> <r_i_glide_ligand_efficiency_ln>
-1.4622

> <r_i_glide_ligand_efficiency_sa>
-0.792956

> <r_i_glide_lipo>
-2.61307

> <r_i_glide_metal>
0

> <r_i_glide_rewards>
-1.81299

> <s_i_glide_gridfile>
wee1_glide-grid

> <s_m_Source_File>
wee1_decoys_glide_SP.sdf

> <s_m_Source_Path>
/Users/zhangxujun/Desktop

> <s_m_entry_id>
2598

> <s_m_entry_name>
wee1_decoys_glide_SP.2323

> <s_m_subgroup_title>
wee1_decoys_glide_SP

> <s_m_subgroupid>
wee1_decoys_glide_SP


$$$$
