ZINC25852159_2762
                    3D
 Schrodinger Suite 2024-2.
 56 60  0  0  1  0            999 V2000
    5.3702   54.8538   19.1683 C   0  0  0  0  0  0
    5.5049   54.7309   20.6805 C   0  0  0  0  0  0
    6.5687   55.3636   21.3278 C   0  0  0  0  0  0
    6.7044   55.2737   22.7128 C   0  0  0  0  0  0
    5.7837   54.5491   23.4805 C   0  0  0  0  0  0
    4.7376   53.8897   22.8282 C   0  0  0  0  0  0
    4.5924   53.9826   21.4402 C   0  0  0  0  0  0
    3.5162   53.3409   20.8232 N   0  0  0  0  0  0
    3.4777   52.0146   20.5934 C   0  0  0  0  0  0
    4.3624   51.2434   20.9614 O   0  0  0  0  0  0
    2.2359   51.4596   19.8602 C   0  0  2  0  0  0
    2.4399   50.3949   19.7302 H   0  0  0  0  0  0
    2.0961   52.1494   18.4624 C   0  0  0  0  0  0
    0.7854   51.7487   17.7449 C   0  0  0  0  0  0
    0.6492   51.6957   16.5265 O   0  0  0  0  0  0
   -0.2463   51.5448   18.5869 N   0  0  0  0  0  0
   -0.2564   51.6160   19.9836 C   0  0  0  0  0  0
    0.9532   51.6204   20.6983 C   0  0  0  0  0  0
    0.8899   51.6039   22.1037 C   0  0  0  0  0  0
   -0.3345   51.6648   22.7692 C   0  0  0  0  0  0
   -1.5205   51.6969   22.0406 C   0  0  0  0  0  0
   -1.4832   51.6625   20.6477 C   0  0  0  0  0  0
   -2.7076   51.7571   22.6832 F   0  0  0  0  0  0
    5.9379   54.5045   24.9698 C   0  0  0  0  0  0
    7.1044   54.4947   25.5573 N   0  0  0  0  0  0
    6.8978   54.4244   26.9253 N   0  0  0  0  0  0
    5.6071   54.4398   27.1218 C   0  0  0  0  0  0
    4.9328   54.5223   25.9202 N   0  0  0  0  0  0
    3.5045   54.7556   25.7760 C   0  0  0  0  0  0
    2.6292   53.6000   26.2900 C   0  0  0  0  0  0
    2.5440   53.4798   27.8262 C   0  0  0  0  0  0
    3.8691   53.2240   28.5723 C   0  0  0  0  0  0
    4.9227   54.3459   28.4726 C   0  0  0  0  0  0
    6.1671   55.4527   18.7250 H   0  0  0  0  0  0
    5.3912   53.8635   18.7101 H   0  0  0  0  0  0
    4.4133   55.3101   18.9102 H   0  0  0  0  0  0
    7.2909   55.9334   20.7622 H   0  0  0  0  0  0
    7.5044   55.8014   23.2032 H   0  0  0  0  0  0
    4.0337   53.2987   23.3972 H   0  0  0  0  0  0
    2.7614   53.9230   20.4832 H   0  0  0  0  0  0
    2.9280   51.8943   17.8018 H   0  0  0  0  0  0
    1.9910   53.2313   18.5574 H   0  0  0  0  0  0
   -1.1127   51.3646   18.1056 H   0  0  0  0  0  0
    1.7929   51.5404   22.6933 H   0  0  0  0  0  0
   -0.3641   51.6686   23.8490 H   0  0  0  0  0  0
   -2.4089   51.6592   20.0918 H   0  0  0  0  0  0
    3.3015   55.6646   26.3424 H   0  0  0  0  0  0
    3.2714   55.0031   24.7424 H   0  0  0  0  0  0
    1.6182   53.7393   25.9045 H   0  0  0  0  0  0
    2.9706   52.6592   25.8576 H   0  0  0  0  0  0
    2.0778   54.3820   28.2264 H   0  0  0  0  0  0
    1.8548   52.6676   28.0657 H   0  0  0  0  0  0
    3.6346   53.0730   29.6266 H   0  0  0  0  0  0
    4.3086   52.2840   28.2366 H   0  0  0  0  0  0
    5.6762   54.1824   29.2438 H   0  0  0  0  0  0
    4.4626   55.2967   28.7363 H   0  0  0  0  0  0
  1  2  1  0  0  0
  1 34  1  0  0  0
  1 35  1  0  0  0
  1 36  1  0  0  0
  2  7  2  0  0  0
  2  3  1  0  0  0
  3  4  2  0  0  0
  3 37  1  0  0  0
  4  5  1  0  0  0
  4 38  1  0  0  0
  5  6  2  0  0  0
  5 24  1  0  0  0
  6  7  1  0  0  0
  6 39  1  0  0  0
  7  8  1  0  0  0
  8  9  1  0  0  0
  8 40  1  0  0  0
  9 10  2  0  0  0
  9 11  1  0  0  0
 11 12  1  0  0  0
 11 18  1  0  0  0
 11 13  1  0  0  0
 13 14  1  0  0  0
 13 41  1  0  0  0
 13 42  1  0  0  0
 14 15  2  0  0  0
 14 16  1  0  0  0
 16 17  1  0  0  0
 16 43  1  0  0  0
 17 22  2  0  0  0
 17 18  1  0  0  0
 18 19  2  0  0  0
 19 20  1  0  0  0
 19 44  1  0  0  0
 20 21  2  0  0  0
 20 45  1  0  0  0
 21 22  1  0  0  0
 21 23  1  0  0  0
 22 46  1  0  0  0
 24 28  1  0  0  0
 24 25  2  0  0  0
 25 26  1  0  0  0
 26 27  2  0  0  0
 27 33  1  0  0  0
 27 28  1  0  0  0
 28 29  1  0  0  0
 29 30  1  0  0  0
 29 47  1  0  0  0
 29 48  1  0  0  0
 30 31  1  0  0  0
 30 49  1  0  0  0
 30 50  1  0  0  0
 31 32  1  0  0  0
 31 51  1  0  0  0
 31 52  1  0  0  0
 32 33  1  0  0  0
 32 53  1  0  0  0
 32 54  1  0  0  0
 33 55  1  0  0  0
 33 56  1  0  0  0
M  END
> <i_i_glide_confnum>
84

> <i_i_glide_lignum>
2763

> <i_i_glide_posenum>
326

> <i_i_glide_rotatable_bonds>
4

> <i_m_Source_File_Index>
2283

> <b_m_subgroup_collapsed>
0

> <r_i_docking_score>
-6.91531

> <r_i_glide_ecoul>
-5.84199

> <r_i_glide_eff_state_penalty>
0

> <r_i_glide_einternal>
8.9535

> <r_i_glide_emodel>
-60.4744

> <r_i_glide_energy>
-46.5458

> <r_i_glide_erotb>
0.423782

> <r_i_glide_esite>
-0.0620783

> <r_i_glide_evdw>
-40.7038

> <r_i_glide_gscore>
-6.91531

> <r_i_glide_hbond>
-0.32

> <r_i_glide_ligand_efficiency>
-0.216103

> <r_i_glide_ligand_efficiency_ln>
-1.54853

> <r_i_glide_ligand_efficiency_sa>
-0.686085

> <r_i_glide_lipo>
-2.32128

> <r_i_glide_metal>
0

> <r_i_glide_rewards>
-1.72424

> <s_i_glide_gridfile>
wee1_glide-grid

> <s_m_Source_File>
wee1_decoys_glide_SP.sdf

> <s_m_Source_Path>
/Users/zhangxujun/Desktop

> <s_m_entry_id>
2558

> <s_m_entry_name>
wee1_decoys_glide_SP.2283

> <s_m_subgroup_title>
wee1_decoys_glide_SP

> <s_m_subgroupid>
wee1_decoys_glide_SP


$$$$
