ZINC62998006_3796
                    3D
 Schrodinger Suite 2024-2.
 38 40  0  0  1  0            999 V2000
    1.2123   51.5317   27.6932 C   0  0  0  0  0  0
    1.2928   52.8172   28.5009 C   0  0  0  0  0  0
    0.6694   52.8848   29.7491 C   0  0  0  0  0  0
    0.6950   54.0650   30.4925 C   0  0  0  0  0  0
    1.3260   55.2093   29.9762 C   0  0  0  0  0  0
    1.9572   55.1315   28.7336 C   0  0  0  0  0  0
    1.9666   53.9404   28.0026 C   0  0  0  0  0  0
    2.5975   53.8893   26.7780 O   0  0  0  0  0  0
    3.9609   54.0973   26.6434 C   0  0  0  0  0  0
    4.4906   54.1545   25.3341 C   0  0  0  0  0  0
    3.8986   54.0475   24.0301 C   0  0  0  0  0  0
    4.8525   54.1184   23.0132 C   0  0  0  0  0  0
    6.4757   54.3746   23.6325 S   0  0  0  0  0  0
    5.8976   54.3565   25.2765 C   0  0  0  0  0  0
    6.7038   54.4967   26.3351 N   0  0  0  0  0  0
    6.0722   54.4128   27.5330 C   0  0  0  0  0  0
    4.7502   54.2205   27.7507 N   0  0  0  0  0  0
    4.6643   54.0295   21.5141 C   0  0  0  0  0  0
    2.4039   53.8568   23.8390 C   0  0  0  0  0  0
    1.3242   56.5494   30.7046 C   0  0  0  0  0  0
    0.0822   54.0670   31.7445 N   0  0  0  0  0  0
    0.3793   50.9030   28.0129 H   0  0  0  0  0  0
    1.0513   51.7532   26.6379 H   0  0  0  0  0  0
    2.1369   50.9649   27.7824 H   0  0  0  0  0  0
    0.1593   52.0159   30.1415 H   0  0  0  0  0  0
    2.4461   56.0010   28.3210 H   0  0  0  0  0  0
    6.6955   54.5027   28.4127 H   0  0  0  0  0  0
    3.6198   54.0324   21.2068 H   0  0  0  0  0  0
    5.1327   54.8715   21.0039 H   0  0  0  0  0  0
    5.1094   53.1209   21.1090 H   0  0  0  0  0  0
    2.0549   52.9424   24.3195 H   0  0  0  0  0  0
    2.1026   53.7920   22.7943 H   0  0  0  0  0  0
    1.8371   54.6810   24.2717 H   0  0  0  0  0  0
    0.3043   56.8880   30.8680 H   0  0  0  0  0  0
    1.7964   56.4961   31.6823 H   0  0  0  0  0  0
    1.8415   57.3195   30.1342 H   0  0  0  0  0  0
    0.2987   54.8156   32.3855 H   0  0  0  0  0  0
   -0.3199   53.2021   32.0986 H   0  0  0  0  0  0
  1  2  1  0  0  0
  1 22  1  0  0  0
  1 23  1  0  0  0
  1 24  1  0  0  0
  2  7  2  0  0  0
  2  3  1  0  0  0
  3  4  2  0  0  0
  3 25  1  0  0  0
  4  5  1  0  0  0
  4 21  1  0  0  0
  5  6  2  0  0  0
  5 20  1  0  0  0
  6  7  1  0  0  0
  6 26  1  0  0  0
  7  8  1  0  0  0
  8  9  1  0  0  0
  9 17  2  0  0  0
  9 10  1  0  0  0
 10 14  2  0  0  0
 10 11  1  0  0  0
 11 12  2  0  0  0
 11 19  1  0  0  0
 12 13  1  0  0  0
 12 18  1  0  0  0
 13 14  1  0  0  0
 14 15  1  0  0  0
 15 16  2  0  0  0
 16 17  1  0  0  0
 16 27  1  0  0  0
 18 28  1  0  0  0
 18 29  1  0  0  0
 18 30  1  0  0  0
 19 31  1  0  0  0
 19 32  1  0  0  0
 19 33  1  0  0  0
 20 34  1  0  0  0
 20 35  1  0  0  0
 20 36  1  0  0  0
 21 37  1  0  0  0
 21 38  1  0  0  0
M  END
> <i_i_glide_confnum>
3

> <i_i_glide_lignum>
3797

> <i_i_glide_posenum>
291

> <i_i_glide_rotatable_bonds>
2

> <i_m_Source_File_Index>
4260

> <b_m_subgroup_collapsed>
0

> <r_i_docking_score>
-8.11706

> <r_i_glide_ecoul>
-4.24302

> <r_i_glide_eff_state_penalty>
0

> <r_i_glide_einternal>
2.45486

> <r_i_glide_emodel>
-66.8155

> <r_i_glide_energy>
-46.1156

> <r_i_glide_erotb>
0.409786

> <r_i_glide_esite>
-0.0402258

> <r_i_glide_evdw>
-41.8726

> <r_i_glide_gscore>
-8.11706

> <r_i_glide_hbond>
-0.185849

> <r_i_glide_ligand_efficiency>
-0.386526

> <r_i_glide_ligand_efficiency_ln>
-2.00693

> <r_i_glide_ligand_efficiency_sa>
-1.0664

> <r_i_glide_lipo>
-3.72653

> <r_i_glide_metal>
0

> <r_i_glide_rewards>
-1.84416

> <s_i_glide_gridfile>
wee1_glide-grid

> <s_m_Source_File>
wee1_decoys_glide_SP.sdf

> <s_m_Source_Path>
/Users/zhangxujun/Desktop

> <s_m_entry_id>
4535

> <s_m_entry_name>
wee1_decoys_glide_SP.4260

> <s_m_subgroup_title>
wee1_decoys_glide_SP

> <s_m_subgroupid>
wee1_decoys_glide_SP


$$$$
