ZINC00751323_4415
                    3D
 Schrodinger Suite 2024-2.
 58 62  0  0  1  0            999 V2000
    0.6970   52.7913   30.9574 C   0  0  0  0  0  0
    0.1471   53.7691   30.1369 C   0  0  0  0  0  0
    0.9487   54.4404   29.2245 C   0  0  0  0  0  0
    2.2936   54.1106   29.0843 C   0  0  0  0  0  0
    2.8329   53.0625   29.8443 C   0  0  0  0  0  0
    2.0378   52.4502   30.8154 C   0  0  0  0  0  0
    4.2493   52.5942   29.5531 C   0  0  0  0  0  0
    5.0999   53.6429   28.7799 C   0  0  0  0  0  0
    4.3328   54.1398   27.6326 N   0  0  0  0  0  0
    3.1851   54.8967   28.1446 C   0  0  0  0  0  0
    4.8327   54.3588   26.3492 C   0  0  0  0  0  0
    6.1292   54.8805   26.2337 C   0  0  0  0  0  0
    6.7040   55.1116   24.9900 C   0  0  0  0  0  0
    6.0094   54.8227   23.8244 C   0  0  0  0  0  0
    4.7075   54.3138   23.9191 C   0  0  0  0  0  0
    4.0831   54.0961   25.1633 C   0  0  0  0  0  0
    2.7019   53.4378   25.1925 C   0  0  0  0  0  0
    2.2881   52.8957   26.2112 O   0  0  0  0  0  0
    1.9845   53.3833   24.0532 N   0  0  0  0  0  0
    0.9138   52.4061   23.7999 C   0  0  0  0  0  0
   -0.1685   52.1109   24.8307 C   0  0  0  0  0  0
   -0.4988   52.8966   23.5938 C   0  0  0  0  0  0
    6.7044   55.0744   22.6258 N   0  0  0  0  0  0
    6.2666   55.0626   21.3511 C   0  0  0  0  0  0
    5.1124   54.8193   20.9980 O   0  0  0  0  0  0
    7.2865   55.3268   20.5112 N   0  0  0  0  0  0
    7.2453   55.2638   19.1072 C   0  0  0  0  0  0
    8.2904   54.5806   18.4747 C   0  0  0  0  0  0
    8.3367   54.4911   17.0842 C   0  0  0  0  0  0
    7.3530   55.1082   16.3118 C   0  0  0  0  0  0
    6.3295   55.8247   16.9298 C   0  0  0  0  0  0
    6.2730   55.9126   18.3215 C   0  0  0  0  0  0
    5.2897   56.6535   18.8816 F   0  0  0  0  0  0
    0.0744   52.2867   31.6819 H   0  0  0  0  0  0
   -0.8954   54.0208   30.2088 H   0  0  0  0  0  0
    0.5333   55.2198   28.6031 H   0  0  0  0  0  0
    2.4504   51.6830   31.4524 H   0  0  0  0  0  0
    4.7037   52.2727   30.4860 H   0  0  0  0  0  0
    4.1788   51.6974   28.9364 H   0  0  0  0  0  0
    6.0013   53.1416   28.4237 H   0  0  0  0  0  0
    5.4381   54.4623   29.4189 H   0  0  0  0  0  0
    2.5835   55.2350   27.3060 H   0  0  0  0  0  0
    3.5049   55.7971   28.6613 H   0  0  0  0  0  0
    6.7001   55.1097   27.1222 H   0  0  0  0  0  0
    7.7018   55.5112   24.9117 H   0  0  0  0  0  0
    4.1840   54.0561   23.0128 H   0  0  0  0  0  0
    2.3142   53.9067   23.2555 H   0  0  0  0  0  0
    1.2532   51.5726   23.1797 H   0  0  0  0  0  0
   -0.5235   51.0831   24.9289 H   0  0  0  0  0  0
   -0.1758   52.6327   25.7874 H   0  0  0  0  0  0
   -0.7016   53.9635   23.6886 H   0  0  0  0  0  0
   -1.0961   52.4282   22.8127 H   0  0  0  0  0  0
    7.6758   55.3163   22.7661 H   0  0  0  0  0  0
    8.2126   55.3039   20.9085 H   0  0  0  0  0  0
    9.0671   54.0982   19.0504 H   0  0  0  0  0  0
    9.1352   53.9424   16.6047 H   0  0  0  0  0  0
    7.3869   55.0369   15.2344 H   0  0  0  0  0  0
    5.5780   56.3194   16.3328 H   0  0  0  0  0  0
  1  6  2  0  0  0
  1  2  1  0  0  0
  1 34  1  0  0  0
  2  3  2  0  0  0
  2 35  1  0  0  0
  3  4  1  0  0  0
  3 36  1  0  0  0
  4 10  1  0  0  0
  4  5  2  0  0  0
  5  6  1  0  0  0
  5  7  1  0  0  0
  6 37  1  0  0  0
  7  8  1  0  0  0
  7 38  1  0  0  0
  7 39  1  0  0  0
  8  9  1  0  0  0
  8 40  1  0  0  0
  8 41  1  0  0  0
  9 10  1  0  0  0
  9 11  1  0  0  0
 10 42  1  0  0  0
 10 43  1  0  0  0
 11 16  2  0  0  0
 11 12  1  0  0  0
 12 13  2  0  0  0
 12 44  1  0  0  0
 13 14  1  0  0  0
 13 45  1  0  0  0
 14 15  2  0  0  0
 14 23  1  0  0  0
 15 16  1  0  0  0
 15 46  1  0  0  0
 16 17  1  0  0  0
 17 18  2  0  0  0
 17 19  1  0  0  0
 19 20  1  0  0  0
 19 47  1  0  0  0
 20 22  1  0  0  0
 20 21  1  0  0  0
 20 48  1  0  0  0
 21 22  1  0  0  0
 21 49  1  0  0  0
 21 50  1  0  0  0
 22 51  1  0  0  0
 22 52  1  0  0  0
 23 24  1  0  0  0
 23 53  1  0  0  0
 24 25  2  0  0  0
 24 26  1  0  0  0
 26 27  1  0  0  0
 26 54  1  0  0  0
 27 32  2  0  0  0
 27 28  1  0  0  0
 28 29  2  0  0  0
 28 55  1  0  0  0
 29 30  1  0  0  0
 29 56  1  0  0  0
 30 31  2  0  0  0
 30 57  1  0  0  0
 31 32  1  0  0  0
 31 58  1  0  0  0
 32 33  1  0  0  0
M  END
> <i_i_glide_confnum>
387

> <i_i_glide_lignum>
4416

> <i_i_glide_posenum>
127

> <i_i_glide_rotatable_bonds>
8

> <i_m_Source_File_Index>
5390

> <b_m_subgroup_collapsed>
0

> <r_i_docking_score>
-6.85551

> <r_i_glide_ecoul>
-1.32914

> <r_i_glide_eff_state_penalty>
0

> <r_i_glide_einternal>
8.39419

> <r_i_glide_emodel>
-62.2224

> <r_i_glide_energy>
-48.7324

> <r_i_glide_erotb>
0.708587

> <r_i_glide_esite>
0

> <r_i_glide_evdw>
-47.4033

> <r_i_glide_gscore>
-6.85551

> <r_i_glide_hbond>
-0.185694

> <r_i_glide_ligand_efficiency>
-0.207743

> <r_i_glide_ligand_efficiency_ln>
-1.52463

> <r_i_glide_ligand_efficiency_sa>
-0.666342

> <r_i_glide_lipo>
-3.41462

> <r_i_glide_metal>
0

> <r_i_glide_rewards>
-1.39425

> <s_i_glide_gridfile>
wee1_glide-grid

> <s_m_Source_File>
wee1_decoys_glide_SP.sdf

> <s_m_Source_Path>
/Users/zhangxujun/Desktop

> <s_m_entry_id>
5665

> <s_m_entry_name>
wee1_decoys_glide_SP.5390

> <s_m_subgroup_title>
wee1_decoys_glide_SP

> <s_m_subgroupid>
wee1_decoys_glide_SP


$$$$
