ZINC33106832_2410
                    3D
 Schrodinger Suite 2024-2.
 56 59  0  0  1  0            999 V2000
   -3.4470   50.6102   28.6621 C   0  0  0  0  0  0
   -2.5064   51.1072   27.5793 C   0  0  0  0  0  0
   -2.8347   50.9372   26.2355 C   0  0  0  0  0  0
   -1.9568   51.3643   25.2422 C   0  0  0  0  0  0
   -0.7420   51.9700   25.5779 C   0  0  0  0  0  0
   -0.3985   52.1398   26.9343 C   0  0  0  0  0  0
   -1.2893   51.6955   27.9256 C   0  0  0  0  0  0
    0.8037   52.8183   27.2170 N   0  0  0  0  0  0
    1.3704   53.1514   28.3971 C   0  0  0  0  0  0
    1.0785   52.6201   29.4704 O   0  0  0  0  0  0
    2.1776   54.2475   28.3193 N   0  0  0  0  0  0
    2.8189   54.7740   29.5337 C   0  0  0  0  0  0
    4.1924   54.0769   29.6607 C   0  0  0  0  0  0
    5.0756   54.2472   28.4014 C   0  0  0  0  0  0
    4.2914   53.8778   27.1134 C   0  0  1  0  0  0
    4.0523   52.8153   27.1798 H   0  0  0  0  0  0
    2.9329   54.6213   27.1057 C   0  0  0  0  0  0
    5.0524   54.1107   25.8149 C   0  0  0  0  0  0
    6.3368   54.3703   25.7438 N   0  0  0  0  0  0
    6.7845   54.5873   24.4486 N   0  0  0  0  0  0
    5.8438   54.4968   23.5360 C   0  0  0  0  0  0
    4.2991   54.0967   24.2409 S   0  0  0  0  0  0
    5.9049   54.7094   22.1092 C   0  0  0  0  0  0
    4.9644   54.4078   21.3726 O   0  0  0  0  0  0
    7.0497   55.2964   21.6917 N   0  0  0  0  0  0
    7.3597   55.7186   20.3872 C   0  0  0  0  0  0
    8.7042   55.6966   20.0164 C   0  0  0  0  0  0
    9.0900   56.1359   18.7528 C   0  0  0  0  0  0
    8.1313   56.6096   17.8625 C   0  0  0  0  0  0
    6.7868   56.6442   18.2238 C   0  0  0  0  0  0
    6.3973   56.1983   19.4842 C   0  0  0  0  0  0
    8.5095   57.0440   16.6398 F   0  0  0  0  0  0
    0.1781   52.4335   24.4511 C   0  0  0  0  0  0
   -3.8291   49.6232   28.4004 H   0  0  0  0  0  0
   -2.9358   50.4971   29.6195 H   0  0  0  0  0  0
   -4.2943   51.2842   28.7801 H   0  0  0  0  0  0
   -3.7662   50.4647   25.9603 H   0  0  0  0  0  0
   -2.2278   51.2216   24.2065 H   0  0  0  0  0  0
   -1.0685   51.8044   28.9751 H   0  0  0  0  0  0
    1.2254   53.2322   26.4018 H   0  0  0  0  0  0
    2.1665   54.6989   30.4052 H   0  0  0  0  0  0
    2.9493   55.8482   29.3919 H   0  0  0  0  0  0
    4.0542   53.0175   29.8844 H   0  0  0  0  0  0
    4.7044   54.4967   30.5174 H   0  0  0  0  0  0
    5.9672   53.6272   28.5099 H   0  0  0  0  0  0
    5.3734   55.2967   28.3666 H   0  0  0  0  0  0
    3.1028   55.6952   27.1775 H   0  0  0  0  0  0
    2.3411   54.4967   26.1993 H   0  0  0  0  0  0
    7.7878   55.3871   22.3763 H   0  0  0  0  0  0
    9.4594   55.3371   20.6982 H   0  0  0  0  0  0
   10.1313   56.1140   18.4675 H   0  0  0  0  0  0
    6.0510   57.0180   17.5279 H   0  0  0  0  0  0
    5.3516   56.2420   19.7454 H   0  0  0  0  0  0
   -0.1987   52.1558   23.4658 H   0  0  0  0  0  0
    0.3005   53.5172   24.4790 H   0  0  0  0  0  0
    1.1669   51.9866   24.5638 H   0  0  0  0  0  0
  1  2  1  0  0  0
  1 34  1  0  0  0
  1 35  1  0  0  0
  1 36  1  0  0  0
  2  7  2  0  0  0
  2  3  1  0  0  0
  3  4  2  0  0  0
  3 37  1  0  0  0
  4  5  1  0  0  0
  4 38  1  0  0  0
  5  6  2  0  0  0
  5 33  1  0  0  0
  6  7  1  0  0  0
  6  8  1  0  0  0
  7 39  1  0  0  0
  8  9  1  0  0  0
  8 40  1  0  0  0
  9 10  2  0  0  0
  9 11  1  0  0  0
 11 17  1  0  0  0
 11 12  1  0  0  0
 12 13  1  0  0  0
 12 41  1  0  0  0
 12 42  1  0  0  0
 13 14  1  0  0  0
 13 43  1  0  0  0
 13 44  1  0  0  0
 14 15  1  0  0  0
 14 45  1  0  0  0
 14 46  1  0  0  0
 15 16  1  0  0  0
 15 17  1  0  0  0
 15 18  1  0  0  0
 17 47  1  0  0  0
 17 48  1  0  0  0
 18 22  1  0  0  0
 18 19  2  0  0  0
 19 20  1  0  0  0
 20 21  2  0  0  0
 21 22  1  0  0  0
 21 23  1  0  0  0
 23 24  2  0  0  0
 23 25  1  0  0  0
 25 26  1  0  0  0
 25 49  1  0  0  0
 26 31  2  0  0  0
 26 27  1  0  0  0
 27 28  2  0  0  0
 27 50  1  0  0  0
 28 29  1  0  0  0
 28 51  1  0  0  0
 29 30  2  0  0  0
 29 32  1  0  0  0
 30 31  1  0  0  0
 30 52  1  0  0  0
 31 53  1  0  0  0
 33 54  1  0  0  0
 33 55  1  0  0  0
 33 56  1  0  0  0
M  END
> <i_i_glide_confnum>
187

> <i_i_glide_lignum>
2411

> <i_i_glide_posenum>
259

> <i_i_glide_rotatable_bonds>
7

> <i_m_Source_File_Index>
4553

> <b_m_subgroup_collapsed>
0

> <r_i_docking_score>
-5.02781

> <r_i_glide_ecoul>
-1.60528

> <r_i_glide_eff_state_penalty>
0

> <r_i_glide_einternal>
6.5509

> <r_i_glide_emodel>
-58.2871

> <r_i_glide_energy>
-47.4786

> <r_i_glide_erotb>
0.683142

> <r_i_glide_esite>
0

> <r_i_glide_evdw>
-45.8733

> <r_i_glide_gscore>
-5.02781

> <r_i_glide_hbond>
-0.103826

> <r_i_glide_ligand_efficiency>
-0.157119

> <r_i_glide_ligand_efficiency_ln>
-1.12586

> <r_i_glide_ligand_efficiency_sa>
-0.498822

> <r_i_glide_lipo>
-1.91762

> <r_i_glide_metal>
0

> <r_i_glide_rewards>
-1.15504

> <s_i_glide_gridfile>
wee1_glide-grid

> <s_m_Source_File>
wee1_decoys_glide_SP.sdf

> <s_m_Source_Path>
/Users/zhangxujun/Desktop

> <s_m_entry_id>
4828

> <s_m_entry_name>
wee1_decoys_glide_SP.4553

> <s_m_subgroup_title>
wee1_decoys_glide_SP

> <s_m_subgroupid>
wee1_decoys_glide_SP


$$$$
