ZINC32871812_2002
                    3D
 Schrodinger Suite 2024-2.
 52 55  0  0  1  0            999 V2000
    2.3053   49.9392   21.0244 C   0  0  0  0  0  0
    2.9635   51.1541   21.1636 C   0  0  0  0  0  0
    2.4425   52.1291   22.0082 C   0  0  0  0  0  0
    1.2557   51.9114   22.7244 C   0  0  0  0  0  0
    0.6002   50.6568   22.6146 C   0  0  0  0  0  0
    1.1404   49.6955   21.7440 C   0  0  0  0  0  0
   -0.6881   50.2896   23.3736 C   0  0  0  0  0  0
   -0.6512   50.6624   24.6507 F   0  0  0  0  0  0
   -1.7355   50.8568   22.7742 F   0  0  0  0  0  0
   -0.9022   48.9708   23.3747 F   0  0  0  0  0  0
    0.6619   53.2967   23.7329 S   0  0  0  0  0  0
   -0.8030   53.2703   23.6817 O   0  0  0  0  0  0
    1.3019   54.4967   23.1866 O   0  0  0  0  0  0
    1.1772   52.8965   25.1328 N   0  5  0  0  0  0
    2.3510   53.2968   25.7087 C   0  0  0  0  0  0
    2.4956   53.2623   27.1211 C   0  0  0  0  0  0
    3.6596   53.6066   27.7258 N   0  0  0  0  0  0
    4.6878   54.0018   26.9541 C   0  0  0  0  0  0
    5.9101   54.3075   27.5694 C   0  0  0  0  0  0
    6.9743   54.7044   26.7805 C   0  0  0  0  0  0
    6.8411   54.8382   25.3977 C   0  0  0  0  0  0
    5.6396   54.5342   24.7658 C   0  0  0  0  0  0
    4.5472   54.0967   25.5412 C   0  0  0  0  0  0
    3.3828   53.7482   24.9396 N   0  0  0  0  0  0
    1.5104   52.9336   28.0489 N   0  0  0  0  0  0
    0.3206   52.1179   27.7391 C   0  0  0  0  0  0
   -0.2637   51.4286   28.9694 C   0  0  0  0  0  0
   -0.4956   52.4160   30.1027 C   0  0  0  0  0  0
    0.7246   53.2992   30.3908 C   0  0  2  0  0  0
    0.4751   54.0677   31.1232 H   0  0  0  0  0  0
    1.1793   53.9513   29.0698 C   0  0  0  0  0  0
    1.8580   52.4967   31.0670 C   0  0  0  0  0  0
    3.0424   52.6065   30.7593 O   0  0  0  0  0  0
    1.5045   51.7272   32.0822 N   0  0  0  0  0  0
    2.7039   49.1847   20.3611 H   0  0  0  0  0  0
    3.8695   51.3443   20.6059 H   0  0  0  0  0  0
    2.9647   53.0717   22.0900 H   0  0  0  0  0  0
    0.6568   48.7395   21.6120 H   0  0  0  0  0  0
    6.0149   54.2203   28.6422 H   0  0  0  0  0  0
    7.9044   54.9012   27.2816 H   0  0  0  0  0  0
    7.6820   55.1594   24.8045 H   0  0  0  0  0  0
    5.5343   54.6112   23.6933 H   0  0  0  0  0  0
    0.6170   51.3195   27.0573 H   0  0  0  0  0  0
   -0.4353   52.7220   27.2345 H   0  0  0  0  0  0
    0.3981   50.6263   29.2806 H   0  0  0  0  0  0
   -1.2035   50.9420   28.7043 H   0  0  0  0  0  0
   -0.9013   51.9515   30.9969 H   0  0  0  0  0  0
   -1.2956   53.0867   29.8225 H   0  0  0  0  0  0
    0.3848   54.5741   28.6550 H   0  0  0  0  0  0
    2.0220   54.6130   29.2772 H   0  0  0  0  0  0
    2.2181   51.2935   32.6472 H   0  0  0  0  0  0
    0.5345   51.6968   32.3801 H   0  0  0  0  0  0
  1  6  2  0  0  0
  1  2  1  0  0  0
  1 35  1  0  0  0
  2  3  2  0  0  0
  2 36  1  0  0  0
  3  4  1  0  0  0
  3 37  1  0  0  0
  4  5  2  0  0  0
  4 11  1  0  0  0
  5  6  1  0  0  0
  5  7  1  0  0  0
  6 38  1  0  0  0
  7  8  1  0  0  0
  7  9  1  0  0  0
  7 10  1  0  0  0
 11 12  2  0  0  0
 11 13  2  0  0  0
 11 14  1  0  0  0
 14 15  1  0  0  0
 15 24  2  0  0  0
 15 16  1  0  0  0
 16 17  2  0  0  0
 16 25  1  0  0  0
 17 18  1  0  0  0
 18 23  2  0  0  0
 18 19  1  0  0  0
 19 20  2  0  0  0
 19 39  1  0  0  0
 20 21  1  0  0  0
 20 40  1  0  0  0
 21 22  2  0  0  0
 21 41  1  0  0  0
 22 23  1  0  0  0
 22 42  1  0  0  0
 23 24  1  0  0  0
 25 31  1  0  0  0
 25 26  1  0  0  0
 26 27  1  0  0  0
 26 43  1  0  0  0
 26 44  1  0  0  0
 27 28  1  0  0  0
 27 45  1  0  0  0
 27 46  1  0  0  0
 28 29  1  0  0  0
 28 47  1  0  0  0
 28 48  1  0  0  0
 29 30  1  0  0  0
 29 31  1  0  0  0
 29 32  1  0  0  0
 31 49  1  0  0  0
 31 50  1  0  0  0
 32 33  2  0  0  0
 32 34  1  0  0  0
 34 51  1  0  0  0
 34 52  1  0  0  0
M  CHG  1  14  -1
M  END
> <i_i_glide_confnum>
67

> <i_i_glide_lignum>
2003

> <i_i_glide_posenum>
311

> <i_i_glide_rotatable_bonds>
6

> <i_m_Source_File_Index>
2374

> <b_m_subgroup_collapsed>
0

> <r_i_docking_score>
-6.18094

> <r_i_glide_ecoul>
-6.62095

> <r_i_glide_eff_state_penalty>
0

> <r_i_glide_einternal>
5.04275

> <r_i_glide_emodel>
-58.2227

> <r_i_glide_energy>
-45.3926

> <r_i_glide_erotb>
0.354073

> <r_i_glide_esite>
-0.149478

> <r_i_glide_evdw>
-38.7716

> <r_i_glide_gscore>
-6.18094

> <r_i_glide_hbond>
-0.258322

> <r_i_glide_ligand_efficiency>
-0.187301

> <r_i_glide_ligand_efficiency_ln>
-1.37461

> <r_i_glide_ligand_efficiency_sa>
-0.600775

> <r_i_glide_lipo>
-2.55291

> <r_i_glide_metal>
0

> <r_i_glide_rewards>
-0.642574

> <s_i_glide_gridfile>
wee1_glide-grid

> <s_m_Source_File>
wee1_decoys_glide_SP.sdf

> <s_m_Source_Path>
/Users/zhangxujun/Desktop

> <s_m_entry_id>
2649

> <s_m_entry_name>
wee1_decoys_glide_SP.2374

> <s_m_subgroup_title>
wee1_decoys_glide_SP

> <s_m_subgroupid>
wee1_decoys_glide_SP


$$$$
