ZINC09905121_4420
                    3D
 Schrodinger Suite 2024-2.
 46 48  0  0  1  0            999 V2000
    5.5429   54.5737   20.1593 C   0  0  0  0  0  0
    6.7188   55.2967   20.3507 C   0  0  0  0  0  0
    7.1669   55.5594   21.6435 C   0  0  0  0  0  0
    6.4329   55.1277   22.7495 C   0  0  0  0  0  0
    5.2253   54.4245   22.5648 C   0  0  0  0  0  0
    4.8091   54.1321   21.2595 C   0  0  0  0  0  0
    4.3649   53.9586   23.6719 C   0  0  0  0  0  0
    4.1419   54.6047   24.8408 C   0  0  0  0  0  0
    3.3382   54.0966   25.9182 C   0  0  0  0  0  0
    3.6591   54.2937   27.0883 O   0  0  0  0  0  0
    2.2356   53.4409   25.5084 N   0  0  0  0  0  0
    1.2502   52.7639   26.2497 C   0  0  0  0  0  0
    1.0356   53.0025   27.6177 C   0  0  0  0  0  0
    0.0904   52.2680   28.3423 C   0  0  0  0  0  0
   -0.6576   51.2967   27.6625 C   0  0  0  0  0  0
   -0.4383   51.0377   26.3143 C   0  0  0  0  0  0
    0.5170   51.7536   25.5917 C   0  0  0  0  0  0
    0.7032   51.4577   24.2304 N   0  0  0  0  0  0
    0.8889   50.1164   23.6711 C   0  0  0  0  0  0
    0.7625   50.2183   22.1490 C   0  0  0  0  0  0
    1.0263   51.6861   21.8711 C   0  0  0  0  0  0
    0.4539   52.3631   23.1099 C   0  0  0  0  0  0
   -0.0956   52.5304   29.8199 C   0  0  0  0  0  0
    0.4527   53.4722   30.3892 O   0  0  0  0  0  0
   -0.8956   51.6967   30.4817 N   0  0  0  0  0  0
    7.1044   55.5676   24.4817 Br  0  0  0  0  0  0
    5.1992   54.3537   19.1585 H   0  0  0  0  0  0
    7.2915   55.6335   19.4987 H   0  0  0  0  0  0
    8.0926   56.0967   21.7940 H   0  0  0  0  0  0
    3.8931   53.5852   21.0841 H   0  0  0  0  0  0
    3.8834   53.0075   23.4912 H   0  0  0  0  0  0
    4.5828   55.5616   25.0625 H   0  0  0  0  0  0
    2.1744   53.2652   24.5178 H   0  0  0  0  0  0
    1.5981   53.7677   28.1316 H   0  0  0  0  0  0
   -1.4092   50.7027   28.1630 H   0  0  0  0  0  0
   -1.0239   50.2669   25.8354 H   0  0  0  0  0  0
    1.8548   49.6967   23.9573 H   0  0  0  0  0  0
    0.1020   49.4538   24.0333 H   0  0  0  0  0  0
    1.4732   49.5717   21.6325 H   0  0  0  0  0  0
   -0.2411   49.9336   21.8288 H   0  0  0  0  0  0
    0.5450   52.0309   20.9552 H   0  0  0  0  0  0
    2.0915   51.9011   21.7725 H   0  0  0  0  0  0
   -0.6138   52.5700   23.0218 H   0  0  0  0  0  0
    0.9376   53.3245   23.2785 H   0  0  0  0  0  0
   -1.2687   50.8693   30.0365 H   0  0  0  0  0  0
   -1.0702   51.8155   31.4833 H   0  0  0  0  0  0
  1  6  2  0  0  0
  1  2  1  0  0  0
  1 27  1  0  0  0
  2  3  2  0  0  0
  2 28  1  0  0  0
  3  4  1  0  0  0
  3 29  1  0  0  0
  4  5  2  0  0  0
  4 26  1  0  0  0
  5  6  1  0  0  0
  5  7  1  0  0  0
  6 30  1  0  0  0
  7  8  2  0  0  0
  7 31  1  0  0  0
  8  9  1  0  0  0
  8 32  1  0  0  0
  9 10  2  0  0  0
  9 11  1  0  0  0
 11 12  1  0  0  0
 11 33  1  0  0  0
 12 17  2  0  0  0
 12 13  1  0  0  0
 13 14  2  0  0  0
 13 34  1  0  0  0
 14 15  1  0  0  0
 14 23  1  0  0  0
 15 16  2  0  0  0
 15 35  1  0  0  0
 16 17  1  0  0  0
 16 36  1  0  0  0
 17 18  1  0  0  0
 18 22  1  0  0  0
 18 19  1  0  0  0
 19 20  1  0  0  0
 19 37  1  0  0  0
 19 38  1  0  0  0
 20 21  1  0  0  0
 20 39  1  0  0  0
 20 40  1  0  0  0
 21 22  1  0  0  0
 21 41  1  0  0  0
 21 42  1  0  0  0
 22 43  1  0  0  0
 22 44  1  0  0  0
 23 24  2  0  0  0
 23 25  1  0  0  0
 25 45  1  0  0  0
 25 46  1  0  0  0
M  END
> <i_i_glide_confnum>
87

> <i_i_glide_lignum>
4421

> <i_i_glide_posenum>
283

> <i_i_glide_rotatable_bonds>
6

> <i_m_Source_File_Index>
3364

> <b_m_subgroup_collapsed>
0

> <r_i_docking_score>
-5.60872

> <r_i_glide_ecoul>
-7.28349

> <r_i_glide_eff_state_penalty>
0

> <r_i_glide_einternal>
6.49883

> <r_i_glide_emodel>
-56.439

> <r_i_glide_energy>
-43.1296

> <r_i_glide_erotb>
0.459942

> <r_i_glide_esite>
-0.109976

> <r_i_glide_evdw>
-35.8461

> <r_i_glide_gscore>
-5.60872

> <r_i_glide_hbond>
-0.16

> <r_i_glide_ligand_efficiency>
-0.21572

> <r_i_glide_ligand_efficiency_ln>
-1.31719

> <r_i_glide_ligand_efficiency_sa>
-0.63907

> <r_i_glide_lipo>
-1.93897

> <r_i_glide_metal>
0

> <r_i_glide_rewards>
-0.974884

> <s_i_glide_gridfile>
wee1_glide-grid

> <s_m_Source_File>
wee1_decoys_glide_SP.sdf

> <s_m_Source_Path>
/Users/zhangxujun/Desktop

> <s_m_entry_id>
3639

> <s_m_entry_name>
wee1_decoys_glide_SP.3364

> <s_m_subgroup_title>
wee1_decoys_glide_SP

> <s_m_subgroupid>
wee1_decoys_glide_SP


$$$$
