ZINC15443548_1726
                    3D
 Schrodinger Suite 2024-2.
 25 25  0  0  1  0            999 V2000
    0.2992   52.8966   24.6728 C   0  0  0  0  0  0
    1.5640   53.1937   25.4720 C   0  0  0  0  0  0
    1.5529   52.8826   26.8354 C   0  0  0  0  0  0
    2.6475   53.1735   27.6544 C   0  0  0  0  0  0
    3.7793   53.7782   27.0912 C   0  0  0  0  0  0
    3.7906   54.0965   25.7343 C   0  0  0  0  0  0
    2.7035   53.8071   24.9049 C   0  0  0  0  0  0
    2.8296   54.1876   23.5570 N   0  0  0  0  0  0
    2.2319   53.4207   22.4811 N   0  0  0  0  0  0
    5.3334   54.1899   28.1220 Br  0  0  0  0  0  0
    2.5859   52.8222   29.4162 S   0  0  0  0  0  0
    3.4958   51.7016   29.6801 O   0  0  0  0  0  0
    2.7882   54.1113   30.0817 O   0  0  0  0  0  0
    0.8336   52.2487   29.8108 C   0  0  0  0  0  0
   -0.5613   52.7007   25.3134 H   0  0  0  0  0  0
    0.4504   52.0372   24.0195 H   0  0  0  0  0  0
    0.0347   53.7535   24.0530 H   0  0  0  0  0  0
    0.6705   52.4195   27.2480 H   0  0  0  0  0  0
    4.6712   54.5683   25.3241 H   0  0  0  0  0  0
    3.7265   54.5517   23.2610 H   0  0  0  0  0  0
    1.9042   54.0580   21.7609 H   0  0  0  0  0  0
    2.9169   52.7784   22.1034 H   0  0  0  0  0  0
    0.7552   52.0964   30.8873 H   0  0  0  0  0  0
    0.1292   53.0197   29.5041 H   0  0  0  0  0  0
    0.6346   51.3116   29.2910 H   0  0  0  0  0  0
  1  2  1  0  0  0
  1 15  1  0  0  0
  1 16  1  0  0  0
  1 17  1  0  0  0
  2  7  2  0  0  0
  2  3  1  0  0  0
  3  4  2  0  0  0
  3 18  1  0  0  0
  4  5  1  0  0  0
  4 11  1  0  0  0
  5  6  2  0  0  0
  5 10  1  0  0  0
  6  7  1  0  0  0
  6 19  1  0  0  0
  7  8  1  0  0  0
  8  9  1  0  0  0
  8 20  1  0  0  0
  9 21  1  0  0  0
  9 22  1  0  0  0
 11 12  2  0  0  0
 11 13  2  0  0  0
 11 14  1  0  0  0
 14 23  1  0  0  0
 14 24  1  0  0  0
 14 25  1  0  0  0
M  END
> <i_i_glide_confnum>
1

> <i_i_glide_lignum>
1727

> <i_i_glide_posenum>
338

> <i_i_glide_rotatable_bonds>
2

> <i_m_Source_File_Index>
4691

> <b_m_subgroup_collapsed>
0

> <r_i_docking_score>
-6.16131

> <r_i_glide_ecoul>
-7.72251

> <r_i_glide_eff_state_penalty>
0

> <r_i_glide_einternal>
4.97699

> <r_i_glide_emodel>
-42.3216

> <r_i_glide_energy>
-32.2887

> <r_i_glide_erotb>
0

> <r_i_glide_esite>
-0.0616731

> <r_i_glide_evdw>
-24.5662

> <r_i_glide_gscore>
-6.16131

> <r_i_glide_hbond>
-0.285191

> <r_i_glide_ligand_efficiency>
-0.440093

> <r_i_glide_ligand_efficiency_ln>
-1.6931

> <r_i_glide_ligand_efficiency_sa>
-1.06069

> <r_i_glide_lipo>
-1.69926

> <r_i_glide_metal>
0

> <r_i_glide_rewards>
-1.7285

> <s_i_glide_gridfile>
wee1_glide-grid

> <s_m_Source_File>
wee1_decoys_glide_SP.sdf

> <s_m_Source_Path>
/Users/zhangxujun/Desktop

> <s_m_entry_id>
4966

> <s_m_entry_name>
wee1_decoys_glide_SP.4691

> <s_m_subgroup_title>
wee1_decoys_glide_SP

> <s_m_subgroupid>
wee1_decoys_glide_SP


$$$$
