ZINC02309842_260
                    3D
 Schrodinger Suite 2024-2.
 54 56  0  0  1  0            999 V2000
    3.1043   51.5206   19.4711 C   0  0  0  0  0  0
    2.6661   52.2177   20.7607 C   0  0  2  0  0  0
    2.1620   53.1464   20.4878 H   0  0  0  0  0  0
    3.8832   52.5958   21.6465 C   0  0  0  0  0  0
    4.8714   51.8585   21.6816 O   0  0  0  0  0  0
    3.7634   53.7216   22.3862 N   0  0  0  0  0  0
    4.7609   54.1706   23.2312 C   0  0  0  0  0  0
    4.6556   54.2206   24.6644 C   0  0  0  0  0  0
    3.6413   53.9142   25.5860 C   0  0  0  0  0  0
    3.8925   54.0585   26.9474 C   0  0  0  0  0  0
    5.1318   54.4950   27.4047 C   0  0  0  0  0  0
    6.1664   54.8209   26.5293 C   0  0  0  0  0  0
    5.9146   54.6871   25.1583 C   0  0  0  0  0  0
    6.7043   54.9514   24.0533 N   0  0  0  0  0  0
    7.6571   55.2972   24.0271 H   0  0  0  0  0  0
    5.9989   54.7034   22.8948 C   0  0  0  0  0  0
    6.5709   55.0649   21.5893 C   0  0  0  0  0  0
    5.9488   54.9360   20.5326 O   0  0  0  0  0  0
    7.8318   55.5487   21.6801 O   0  0  0  0  0  0
    8.5711   55.8337   20.4991 C   0  0  0  0  0  0
    2.5227   53.6384   28.1988 Br  0  0  0  0  0  0
    1.9940   50.0896   22.1313 C   0  0  0  0  0  0
    0.7760   49.4058   22.7880 C   0  0  0  0  0  0
    0.0933   50.3030   23.8386 C   0  0  0  0  0  0
   -0.3359   51.6835   23.2715 C   0  0  0  0  0  0
    0.9357   52.3629   22.6998 C   0  0  0  0  0  0
   -1.4201   51.5249   22.1759 C   0  0  0  0  0  0
   -0.8361   52.5488   24.4491 C   0  0  0  0  0  0
    3.8311   52.1286   18.9286 H   0  0  0  0  0  0
    3.5622   50.5546   19.6815 H   0  0  0  0  0  0
    2.2464   51.3568   18.8190 H   0  0  0  0  0  0
    2.8752   54.2009   22.4089 H   0  0  0  0  0  0
    2.6784   53.5623   25.2547 H   0  0  0  0  0  0
    5.2960   54.5899   28.4697 H   0  0  0  0  0  0
    7.1044   55.1713   26.9204 H   0  0  0  0  0  0
    9.5045   56.3320   20.7566 H   0  0  0  0  0  0
    8.8107   54.9148   19.9625 H   0  0  0  0  0  0
    8.0151   56.4921   19.8284 H   0  0  0  0  0  0
    2.8169   50.2342   22.8316 H   0  0  0  0  0  0
    2.3343   49.4956   21.2828 H   0  0  0  0  0  0
    1.1083   48.4967   23.2824 H   0  0  0  0  0  0
    0.0657   49.0853   22.0263 H   0  0  0  0  0  0
    0.7771   50.4366   24.6800 H   0  0  0  0  0  0
   -0.7724   49.7850   24.2558 H   0  0  0  0  0  0
    0.7018   53.3196   22.2371 H   0  0  0  0  0  0
    1.7015   52.5023   23.4625 H   0  0  0  0  0  0
   -1.0850   50.9404   21.3192 H   0  0  0  0  0  0
   -1.7428   52.4956   21.7958 H   0  0  0  0  0  0
   -2.3062   51.0275   22.5730 H   0  0  0  0  0  0
   -0.0775   52.6672   25.2255 H   0  0  0  0  0  0
   -1.1219   53.5476   24.1179 H   0  0  0  0  0  0
   -1.7123   52.1027   24.9236 H   0  0  0  0  0  0
    1.5642   51.4794   21.5882 N   0  3  1  0  0  0
    0.8275   51.3108   20.9184 H   0  0  0  0  0  0
  1  2  1  0  0  0
  1 29  1  0  0  0
  1 30  1  0  0  0
  1 31  1  0  0  0
  2  3  1  0  0  0
  2  4  1  0  0  0
  2 53  1  0  0  0
  4  5  2  0  0  0
  4  6  1  0  0  0
  6  7  1  0  0  0
  6 32  1  0  0  0
  7 16  2  0  0  0
  7  8  1  0  0  0
  8 13  2  0  0  0
  8  9  1  0  0  0
  9 10  2  0  0  0
  9 33  1  0  0  0
 10 11  1  0  0  0
 10 21  1  0  0  0
 11 12  2  0  0  0
 11 34  1  0  0  0
 12 13  1  0  0  0
 12 35  1  0  0  0
 13 14  1  0  0  0
 14 15  1  0  0  0
 14 16  1  0  0  0
 16 17  1  0  0  0
 17 18  2  0  0  0
 17 19  1  0  0  0
 19 20  1  0  0  0
 20 36  1  0  0  0
 20 37  1  0  0  0
 20 38  1  0  0  0
 22 23  1  0  0  0
 22 39  1  0  0  0
 22 40  1  0  0  0
 22 53  1  0  0  0
 23 24  1  0  0  0
 23 41  1  0  0  0
 23 42  1  0  0  0
 24 25  1  0  0  0
 24 43  1  0  0  0
 24 44  1  0  0  0
 25 26  1  0  0  0
 25 27  1  0  0  0
 25 28  1  0  0  0
 26 45  1  0  0  0
 26 46  1  0  0  0
 26 53  1  0  0  0
 27 47  1  0  0  0
 27 48  1  0  0  0
 27 49  1  0  0  0
 28 50  1  0  0  0
 28 51  1  0  0  0
 28 52  1  0  0  0
 53 54  1  0  0  0
M  CHG  1  53   1
M  END
> <i_i_glide_confnum>
44

> <i_i_glide_lignum>
261

> <i_i_glide_posenum>
398

> <i_i_glide_rotatable_bonds>
6

> <i_m_Source_File_Index>
4588

> <b_m_subgroup_collapsed>
0

> <r_i_docking_score>
-6.06356

> <r_i_glide_ecoul>
-3.61485

> <r_i_glide_eff_state_penalty>
0

> <r_i_glide_einternal>
8.4601

> <r_i_glide_emodel>
-53.2128

> <r_i_glide_energy>
-41.9873

> <r_i_glide_erotb>
0.521253

> <r_i_glide_esite>
0

> <r_i_glide_evdw>
-38.3725

> <r_i_glide_gscore>
-6.06356

> <r_i_glide_hbond>
-0.32

> <r_i_glide_ligand_efficiency>
-0.224576

> <r_i_glide_ligand_efficiency_ln>
-1.4115

> <r_i_glide_ligand_efficiency_sa>
-0.673729

> <r_i_glide_lipo>
-2.89899

> <r_i_glide_metal>
0

> <r_i_glide_rewards>
-0.90497

> <s_i_glide_gridfile>
wee1_glide-grid

> <s_m_Source_File>
wee1_decoys_glide_SP.sdf

> <s_m_Source_Path>
/Users/zhangxujun/Desktop

> <s_m_entry_id>
4863

> <s_m_entry_name>
wee1_decoys_glide_SP.4588

> <s_m_subgroup_title>
wee1_decoys_glide_SP

> <s_m_subgroupid>
wee1_decoys_glide_SP


$$$$
