ZINC61593949_1711
                    3D
 Schrodinger Suite 2024-2.
 30 32  0  0  1  0            999 V2000
    3.8172   53.4362   27.1443 C   0  0  0  0  0  0
    4.2720   54.7475   26.4821 C   0  0  0  0  0  0
    5.0074   54.5497   25.2245 N   0  0  0  0  0  0
    6.3282   54.7875   25.1263 C   0  0  0  0  0  0
    7.1044   55.2959   25.9337 O   0  0  0  0  0  0
    6.6064   54.2533   23.9317 N   0  0  0  0  0  0
    7.5189   54.2040   23.5002 H   0  0  0  0  0  0
    5.5370   53.8907   23.2280 N   0  0  0  0  0  0
    4.5857   54.0968   24.0257 C   0  0  0  0  0  0
    2.8026   53.9190   23.7394 S   0  0  0  0  0  0
    2.6972   52.6964   22.4447 C   0  0  0  0  0  0
    3.3838   52.8988   21.2430 C   0  0  0  0  0  0
    3.3504   51.9694   20.2063 C   0  0  0  0  0  0
    2.5725   50.8226   20.3856 C   0  0  0  0  0  0
    1.8426   50.6013   21.5843 C   0  0  0  0  0  0
    1.9020   51.5475   22.6325 C   0  0  0  0  0  0
    1.1817   51.3403   23.8206 N   0  0  0  0  0  0
    1.1145   49.4456   21.5951 N   0  0  0  0  0  0
    1.2489   48.7908   20.4788 C   0  0  0  0  0  0
    2.3043   49.4821   19.2819 S   0  0  0  0  0  0
    3.3152   53.6394   28.0894 H   0  0  0  0  0  0
    4.6672   52.7868   27.3555 H   0  0  0  0  0  0
    3.1133   52.8943   26.5133 H   0  0  0  0  0  0
    3.4080   55.3777   26.2764 H   0  0  0  0  0  0
    4.8865   55.2969   27.1971 H   0  0  0  0  0  0
    3.9616   53.8004   21.1031 H   0  0  0  0  0  0
    3.9029   52.1287   19.2890 H   0  0  0  0  0  0
    0.6784   50.4732   23.9546 H   0  0  0  0  0  0
    1.2524   52.0187   24.5649 H   0  0  0  0  0  0
    0.7421   47.8591   20.2755 H   0  0  0  0  0  0
  1  2  1  0  0  0
  1 21  1  0  0  0
  1 22  1  0  0  0
  1 23  1  0  0  0
  2  3  1  0  0  0
  2 24  1  0  0  0
  2 25  1  0  0  0
  3  9  1  0  0  0
  3  4  1  0  0  0
  4  5  2  0  0  0
  4  6  1  0  0  0
  6  7  1  0  0  0
  6  8  1  0  0  0
  8  9  2  0  0  0
  9 10  1  0  0  0
 10 11  1  0  0  0
 11 16  2  0  0  0
 11 12  1  0  0  0
 12 13  2  0  0  0
 12 26  1  0  0  0
 13 14  1  0  0  0
 13 27  1  0  0  0
 14 20  1  0  0  0
 14 15  2  0  0  0
 15 16  1  0  0  0
 15 18  1  0  0  0
 16 17  1  0  0  0
 17 28  1  0  0  0
 17 29  1  0  0  0
 18 19  2  0  0  0
 19 20  1  0  0  0
 19 30  1  0  0  0
M  END
> <i_i_glide_confnum>
1

> <i_i_glide_lignum>
1712

> <i_i_glide_posenum>
318

> <i_i_glide_rotatable_bonds>
3

> <i_m_Source_File_Index>
1915

> <b_m_subgroup_collapsed>
0

> <r_i_docking_score>
-6.86553

> <r_i_glide_ecoul>
-6.12097

> <r_i_glide_eff_state_penalty>
0

> <r_i_glide_einternal>
1.85825

> <r_i_glide_emodel>
-54.3285

> <r_i_glide_energy>
-38.5028

> <r_i_glide_erotb>
0.29722

> <r_i_glide_esite>
0

> <r_i_glide_evdw>
-32.3819

> <r_i_glide_gscore>
-6.86553

> <r_i_glide_hbond>
-0.376122

> <r_i_glide_ligand_efficiency>
-0.361344

> <r_i_glide_ligand_efficiency_ln>
-1.74056

> <r_i_glide_ligand_efficiency_sa>
-0.96421

> <r_i_glide_lipo>
-0.924487

> <r_i_glide_metal>
0

> <r_i_glide_rewards>
-3.3249

> <s_i_glide_gridfile>
wee1_glide-grid

> <s_m_Source_File>
wee1_decoys_glide_SP.sdf

> <s_m_Source_Path>
/Users/zhangxujun/Desktop

> <s_m_entry_id>
2190

> <s_m_entry_name>
wee1_decoys_glide_SP.1915

> <s_m_subgroup_title>
wee1_decoys_glide_SP

> <s_m_subgroupid>
wee1_decoys_glide_SP


$$$$
