ZINC33599952_976
                    3D
 Schrodinger Suite 2024-2.
 47 51  0  0  1  0            999 V2000
    7.7161   56.9801   16.0964 C   0  0  0  0  0  0
    6.9479   56.3526   17.2489 C   0  0  0  0  0  0
    5.6959   55.7781   17.0094 C   0  0  0  0  0  0
    4.9502   55.1983   18.0375 C   0  0  0  0  0  0
    5.4798   55.2153   19.3328 C   0  0  0  0  0  0
    6.7429   55.8141   19.5769 C   0  0  0  0  0  0
    7.4902   56.3827   18.5369 C   0  0  0  0  0  0
    7.1066   55.6953   21.2856 S   0  0  0  0  0  0
    5.5649   54.8590   21.5145 C   0  0  0  0  0  0
    4.8596   54.7016   20.4264 N   0  0  0  0  0  0
    5.1123   54.4520   22.7832 N   0  0  0  0  0  0
    3.7015   54.1054   23.0602 C   0  0  2  0  0  0
    3.1094   54.9747   22.7646 H   0  0  0  0  0  0
    3.6679   53.9591   24.5762 C   0  0  0  0  0  0
    2.4142   53.6962   25.3404 C   0  0  0  0  0  0
    2.3751   53.5568   26.8369 C   0  0  0  0  0  0
    2.9881   54.4924   27.6778 C   0  0  0  0  0  0
    2.8443   54.3789   29.0596 C   0  0  0  0  0  0
    2.1104   53.4004   29.6436 N   0  0  0  0  0  0
    1.4858   52.5141   28.8271 C   0  0  0  0  0  0
    1.5825   52.5630   27.4347 C   0  0  0  0  0  0
    1.3695   53.4893   24.7270 O   0  0  0  0  0  0
    4.9412   54.0970   24.9910 C   0  0  0  0  0  0
    5.4491   54.0217   26.1729 O   0  5  0  0  0  0
    5.8735   54.3270   23.9037 C   0  0  0  0  0  0
    7.1039   54.3975   23.9740 O   0  0  0  0  0  0
    3.1277   52.9272   22.2321 C   0  0  0  0  0  0
    1.7590   52.8969   21.9388 C   0  0  0  0  0  0
    1.2105   51.8758   21.1696 C   0  0  0  0  0  0
    2.0390   50.8921   20.6484 C   0  0  0  0  0  0
    3.4103   50.9342   20.8808 C   0  0  0  0  0  0
    3.9518   51.9381   21.6813 C   0  0  0  0  0  0
    1.2995   49.4864   19.6024 Br  0  0  0  0  0  0
    8.3364   56.2313   15.5999 H   0  0  0  0  0  0
    7.0304   57.4123   15.3608 H   0  0  0  0  0  0
    8.3551   57.7943   16.4414 H   0  0  0  0  0  0
    5.2924   55.7770   16.0075 H   0  0  0  0  0  0
    3.9875   54.7494   17.8407 H   0  0  0  0  0  0
    8.4574   56.8277   18.7245 H   0  0  0  0  0  0
    3.5766   55.2963   27.2721 H   0  0  0  0  0  0
    3.3272   55.0878   29.7128 H   0  0  0  0  0  0
    0.8845   51.7583   29.3095 H   0  0  0  0  0  0
    1.0474   51.8390   26.8352 H   0  0  0  0  0  0
    1.1096   53.6796   22.2988 H   0  0  0  0  0  0
    0.1511   51.8588   20.9632 H   0  0  0  0  0  0
    4.0408   50.1910   20.4275 H   0  0  0  0  0  0
    5.0177   51.9479   21.8616 H   0  0  0  0  0  0
  1  2  1  0  0  0
  1 34  1  0  0  0
  1 35  1  0  0  0
  1 36  1  0  0  0
  2  7  2  0  0  0
  2  3  1  0  0  0
  3  4  2  0  0  0
  3 37  1  0  0  0
  4  5  1  0  0  0
  4 38  1  0  0  0
  5 10  1  0  0  0
  5  6  2  0  0  0
  6  7  1  0  0  0
  6  8  1  0  0  0
  7 39  1  0  0  0
  8  9  1  0  0  0
  9 10  2  0  0  0
  9 11  1  0  0  0
 11 25  1  0  0  0
 11 12  1  0  0  0
 12 14  1  0  0  0
 12 27  1  0  0  0
 12 13  1  0  0  0
 14 23  2  0  0  0
 14 15  1  0  0  0
 15 22  2  0  0  0
 15 16  1  0  0  0
 16 21  2  0  0  0
 16 17  1  0  0  0
 17 18  2  0  0  0
 17 40  1  0  0  0
 18 19  1  0  0  0
 18 41  1  0  0  0
 19 20  2  0  0  0
 20 21  1  0  0  0
 20 42  1  0  0  0
 21 43  1  0  0  0
 23 25  1  0  0  0
 23 24  1  0  0  0
 25 26  2  0  0  0
 27 32  2  0  0  0
 27 28  1  0  0  0
 28 29  2  0  0  0
 28 44  1  0  0  0
 29 30  1  0  0  0
 29 45  1  0  0  0
 30 31  2  0  0  0
 30 33  1  0  0  0
 31 32  1  0  0  0
 31 46  1  0  0  0
 32 47  1  0  0  0
M  CHG  1  24  -1
M  END
> <i_i_glide_confnum>
26

> <i_i_glide_lignum>
977

> <i_i_glide_posenum>
316

> <i_i_glide_rotatable_bonds>
4

> <i_m_Source_File_Index>
3519

> <b_m_subgroup_collapsed>
0

> <r_i_docking_score>
-4.95534

> <r_i_glide_ecoul>
1.4696

> <r_i_glide_eff_state_penalty>
0

> <r_i_glide_einternal>
4.73412

> <r_i_glide_emodel>
-55.2866

> <r_i_glide_energy>
-41.4597

> <r_i_glide_erotb>
0.320335

> <r_i_glide_esite>
0

> <r_i_glide_evdw>
-42.9293

> <r_i_glide_gscore>
-4.95534

> <r_i_glide_hbond>
0

> <r_i_glide_ligand_efficiency>
-0.154854

> <r_i_glide_ligand_efficiency_ln>
-1.10964

> <r_i_glide_ligand_efficiency_sa>
-0.491632

> <r_i_glide_lipo>
-2.4127

> <r_i_glide_metal>
0

> <r_i_glide_rewards>
-0.936947

> <s_i_glide_gridfile>
wee1_glide-grid

> <s_m_Source_File>
wee1_decoys_glide_SP.sdf

> <s_m_Source_Path>
/Users/zhangxujun/Desktop

> <s_m_entry_id>
3794

> <s_m_entry_name>
wee1_decoys_glide_SP.3519

> <s_m_subgroup_title>
wee1_decoys_glide_SP

> <s_m_subgroupid>
wee1_decoys_glide_SP


$$$$
