ZINC23469481_3474
                    3D
 Schrodinger Suite 2024-2.
 69 74  0  0  1  0            999 V2000
    4.4382   58.1494   16.7779 C   0  0  0  0  0  0
    3.6813   56.9818   16.6715 C   0  0  0  0  0  0
    3.9535   55.8499   17.4455 C   0  0  0  0  0  0
    5.0137   55.9493   18.3556 C   0  0  0  0  0  0
    5.7814   57.1354   18.4815 C   0  0  0  0  0  0
    5.5048   58.2431   17.6706 C   0  0  0  0  0  0
    6.7361   56.9625   19.4354 N   0  0  0  0  0  0
    6.6501   55.6587   19.8603 N   0  0  0  0  0  0
    5.6308   55.0513   19.2165 N   0  0  0  0  0  0
    5.4713   53.5947   19.3151 C   0  0  1  0  0  0
    6.2090   53.2378   20.0229 H   0  0  0  0  0  0
    4.0690   53.2031   19.9134 C   0  0  1  0  0  0
    3.2943   53.7176   19.3426 H   0  0  0  0  0  0
    3.7696   51.6968   19.7013 N   0  3  0  0  0  0
    2.3786   51.3243   19.1533 C   0  0  0  0  0  0
    2.3099   51.6995   17.6500 C   0  0  0  0  0  0
    1.0626   51.1304   16.9468 C   0  0  0  0  0  0
    0.9382   49.6081   17.1470 C   0  0  0  0  0  0
    0.9874   49.2209   18.6372 C   0  0  0  0  0  0
    2.2393   49.7922   19.3300 C   0  0  0  0  0  0
    3.8213   53.4992   21.3500 N   0  0  0  0  0  0
    4.6203   53.8731   22.4398 C   0  0  0  0  0  0
    5.9789   54.1562   22.6329 C   0  0  0  0  0  0
    6.3974   54.4961   23.9217 C   0  0  0  0  0  0
    5.5111   54.5652   24.9936 C   0  0  0  0  0  0
    4.1550   54.2949   24.8197 C   0  0  0  0  0  0
    3.7154   53.9413   23.5365 C   0  0  0  0  0  0
    2.4690   53.5987   23.1257 N   0  0  0  0  0  0
    2.5584   53.2966   21.7915 N   0  0  0  0  0  0
    5.7737   52.8967   18.0483 N   0  0  0  0  0  0
    7.1403   53.0830   17.5487 C   0  0  0  0  0  0
    7.7581   51.7482   17.0710 C   0  0  0  0  0  0
    9.2167   51.9079   16.5995 C   0  0  0  0  0  0
    9.3415   52.9731   15.4964 C   0  0  0  0  0  0
    8.7072   54.3105   15.9246 C   0  0  0  0  0  0
    7.2552   54.1273   16.4119 C   0  0  0  0  0  0
    4.1934   59.0089   16.1661 H   0  0  0  0  0  0
    2.8694   56.9517   15.9598 H   0  0  0  0  0  0
    3.3824   54.9423   17.3277 H   0  0  0  0  0  0
    6.0758   59.1596   17.7479 H   0  0  0  0  0  0
    4.4457   51.2648   19.0669 H   0  0  0  0  0  0
    1.5782   51.8071   19.7172 H   0  0  0  0  0  0
    2.3988   52.7757   17.5011 H   0  0  0  0  0  0
    3.1873   51.2967   17.1426 H   0  0  0  0  0  0
    0.1700   51.6245   17.3329 H   0  0  0  0  0  0
    1.1006   51.3622   15.8813 H   0  0  0  0  0  0
    0.0161   49.2449   16.6931 H   0  0  0  0  0  0
    1.7542   49.1109   16.6180 H   0  0  0  0  0  0
    0.0900   49.5860   19.1400 H   0  0  0  0  0  0
    0.9694   48.1337   18.7368 H   0  0  0  0  0  0
    3.1040   49.2986   18.8816 H   0  0  0  0  0  0
    2.2873   49.5120   20.3837 H   0  0  0  0  0  0
    6.7031   54.1277   21.8455 H   0  0  0  0  0  0
    7.4455   54.7128   24.0860 H   0  0  0  0  0  0
    5.8819   54.8288   25.9738 H   0  0  0  0  0  0
    3.4672   54.3376   25.6516 H   0  0  0  0  0  0
    5.6169   51.8740   18.0817 H   0  0  0  0  0  0
    7.7839   53.4319   18.3593 H   0  0  0  0  0  0
    7.1608   51.3397   16.2545 H   0  0  0  0  0  0
    7.7283   51.0085   17.8705 H   0  0  0  0  0  0
    9.5989   50.9509   16.2405 H   0  0  0  0  0  0
    9.8444   52.1863   17.4467 H   0  0  0  0  0  0
    8.8537   52.6150   14.5883 H   0  0  0  0  0  0
   10.3903   53.1229   15.2379 H   0  0  0  0  0  0
    8.7351   55.0180   15.0948 H   0  0  0  0  0  0
    9.3042   54.7557   16.7222 H   0  0  0  0  0  0
    6.8812   55.0952   16.7317 H   0  0  0  0  0  0
    6.6255   53.8247   15.5733 H   0  0  0  0  0  0
    3.9068   51.2207   20.5799 H   0  0  0  0  0  0
  1  6  2  0  0  0
  1  2  1  0  0  0
  1 37  1  0  0  0
  2  3  2  0  0  0
  2 38  1  0  0  0
  3  4  1  0  0  0
  3 39  1  0  0  0
  4  9  1  0  0  0
  4  5  2  0  0  0
  5  6  1  0  0  0
  5  7  1  0  0  0
  6 40  1  0  0  0
  7  8  2  0  0  0
  8  9  1  0  0  0
  9 10  1  0  0  0
 10 11  1  0  0  0
 10 12  1  0  0  0
 10 30  1  0  0  0
 12 13  1  0  0  0
 12 14  1  0  0  0
 12 21  1  0  0  0
 14 15  1  0  0  0
 14 41  1  0  0  0
 14 69  1  0  0  0
 15 20  1  0  0  0
 15 16  1  0  0  0
 15 42  1  0  0  0
 16 17  1  0  0  0
 16 43  1  0  0  0
 16 44  1  0  0  0
 17 18  1  0  0  0
 17 45  1  0  0  0
 17 46  1  0  0  0
 18 19  1  0  0  0
 18 47  1  0  0  0
 18 48  1  0  0  0
 19 20  1  0  0  0
 19 49  1  0  0  0
 19 50  1  0  0  0
 20 51  1  0  0  0
 20 52  1  0  0  0
 21 29  1  0  0  0
 21 22  1  0  0  0
 22 27  2  0  0  0
 22 23  1  0  0  0
 23 24  2  0  0  0
 23 53  1  0  0  0
 24 25  1  0  0  0
 24 54  1  0  0  0
 25 26  2  0  0  0
 25 55  1  0  0  0
 26 27  1  0  0  0
 26 56  1  0  0  0
 27 28  1  0  0  0
 28 29  2  0  0  0
 30 31  1  0  0  0
 30 57  1  0  0  0
 31 36  1  0  0  0
 31 32  1  0  0  0
 31 58  1  0  0  0
 32 33  1  0  0  0
 32 59  1  0  0  0
 32 60  1  0  0  0
 33 34  1  0  0  0
 33 61  1  0  0  0
 33 62  1  0  0  0
 34 35  1  0  0  0
 34 63  1  0  0  0
 34 64  1  0  0  0
 35 36  1  0  0  0
 35 65  1  0  0  0
 35 66  1  0  0  0
 36 67  1  0  0  0
 36 68  1  0  0  0
M  CHG  1  14   1
M  END
> <i_i_glide_confnum>
359

> <i_i_glide_lignum>
3475

> <i_i_glide_posenum>
100

> <i_i_glide_rotatable_bonds>
7

> <i_m_Source_File_Index>
3662

> <b_m_subgroup_collapsed>
0

> <r_i_docking_score>
-5.45847

> <r_i_glide_ecoul>
-12.4932

> <r_i_glide_eff_state_penalty>
0

> <r_i_glide_einternal>
16.5268

> <r_i_glide_emodel>
-51.6556

> <r_i_glide_energy>
-41.1057

> <r_i_glide_erotb>
0.666791

> <r_i_glide_esite>
-0.174116

> <r_i_glide_evdw>
-28.6124

> <r_i_glide_gscore>
-5.45847

> <r_i_glide_hbond>
-0.350428

> <r_i_glide_ligand_efficiency>
-0.160543

> <r_i_glide_ligand_efficiency_ln>
-1.20593

> <r_i_glide_ligand_efficiency_sa>
-0.520098

> <r_i_glide_lipo>
-1.84804

> <r_i_glide_metal>
0

> <r_i_glide_rewards>
-0.448062

> <s_i_glide_gridfile>
wee1_glide-grid

> <s_m_Source_File>
wee1_decoys_glide_SP.sdf

> <s_m_Source_Path>
/Users/zhangxujun/Desktop

> <s_m_entry_id>
3937

> <s_m_entry_name>
wee1_decoys_glide_SP.3662

> <s_m_subgroup_title>
wee1_decoys_glide_SP

> <s_m_subgroupid>
wee1_decoys_glide_SP


$$$$
