ZINC16252507_3378
                    3D
 Schrodinger Suite 2024-2.
 63 65  0  0  1  0            999 V2000
    6.8251   55.3432   18.4945 C   0  0  0  0  0  0
    6.4334   55.0427   19.9343 C   0  0  0  0  0  0
    7.2123   55.5622   20.9721 C   0  0  0  0  0  0
    6.8894   55.2963   22.3019 C   0  0  0  0  0  0
    5.7829   54.4966   22.6165 C   0  0  0  0  0  0
    5.0041   53.9785   21.5766 C   0  0  0  0  0  0
    5.3206   54.2414   20.2384 C   0  0  0  0  0  0
    4.4424   53.6525   19.1418 C   0  0  0  0  0  0
    5.3448   54.2149   23.9223 N   0  0  0  0  0  0
    5.9159   54.4965   25.1118 C   0  0  0  0  0  0
    7.0438   54.9673   25.2806 O   0  0  0  0  0  0
    5.0437   54.1982   26.0945 N   0  0  0  0  0  0
    5.2838   54.0665   27.4195 C   0  0  0  0  0  0
    6.3982   54.0988   27.9442 O   0  0  0  0  0  0
    4.0451   53.9118   28.3214 C   0  0  0  0  0  0
    2.9717   53.3015   27.5939 O   0  0  0  0  0  0
    1.7484   53.0975   28.1522 C   0  0  0  0  0  0
    1.4571   53.4621   29.2942 O   0  0  0  0  0  0
    0.8295   52.3059   27.2662 C   0  0  0  0  0  0
    1.1045   52.1042   25.9036 C   0  0  0  0  0  0
    0.2966   51.2742   25.1321 C   0  0  0  0  0  0
   -0.8027   50.6415   25.7097 C   0  0  0  0  0  0
   -1.1278   50.8968   27.0402 C   0  0  0  0  0  0
   -0.3164   51.7189   27.8173 C   0  0  0  0  0  0
   -1.7680   49.4632   24.7526 S   0  0  0  0  0  0
   -0.9816   49.1527   23.5521 O   0  0  0  0  0  0
   -2.1977   48.3949   25.6609 O   0  0  0  0  0  0
   -3.2109   50.3498   24.2348 N   0  0  0  0  0  0
   -3.0484   51.4398   23.2415 C   0  0  0  0  0  0
   -3.1090   52.8282   23.9189 C   0  0  0  0  0  0
   -4.3961   52.9843   24.7605 C   0  0  0  0  0  0
   -4.4420   51.8607   25.8189 C   0  0  0  0  0  0
   -4.3716   50.4686   25.1615 C   0  0  0  0  0  0
   -4.4947   54.3723   25.4142 C   0  0  0  0  0  0
    7.7801   55.8662   18.4265 H   0  0  0  0  0  0
    6.9166   54.4155   17.9273 H   0  0  0  0  0  0
    6.0592   55.9517   18.0107 H   0  0  0  0  0  0
    8.0827   56.1633   20.7524 H   0  0  0  0  0  0
    7.5040   55.7320   23.0728 H   0  0  0  0  0  0
    4.1398   53.3700   21.8023 H   0  0  0  0  0  0
    3.5329   53.1971   19.5364 H   0  0  0  0  0  0
    4.9915   52.8996   18.5734 H   0  0  0  0  0  0
    4.1316   54.4318   18.4460 H   0  0  0  0  0  0
    4.4673   53.7216   23.9533 H   0  0  0  0  0  0
    4.0908   54.0223   25.8157 H   0  0  0  0  0  0
    4.3012   53.3428   29.2179 H   0  0  0  0  0  0
    3.7434   54.9136   28.6341 H   0  0  0  0  0  0
    1.9702   52.5499   25.4370 H   0  0  0  0  0  0
    0.5531   51.0919   24.0985 H   0  0  0  0  0  0
   -1.9814   50.4126   27.4935 H   0  0  0  0  0  0
   -0.5660   51.8493   28.8621 H   0  0  0  0  0  0
   -2.0903   51.3149   22.7352 H   0  0  0  0  0  0
   -3.8187   51.3011   22.4829 H   0  0  0  0  0  0
   -2.2307   52.9808   24.5492 H   0  0  0  0  0  0
   -3.0485   53.6202   23.1742 H   0  0  0  0  0  0
   -5.2488   52.8502   24.0906 H   0  0  0  0  0  0
   -5.3462   51.9465   26.4232 H   0  0  0  0  0  0
   -3.6273   51.9836   26.5323 H   0  0  0  0  0  0
   -5.2791   50.2523   24.5968 H   0  0  0  0  0  0
   -4.2971   49.6982   25.9298 H   0  0  0  0  0  0
   -3.6960   54.5206   26.1435 H   0  0  0  0  0  0
   -4.4182   55.1627   24.6670 H   0  0  0  0  0  0
   -5.4443   54.4961   25.9353 H   0  0  0  0  0  0
  1  2  1  0  0  0
  1 35  1  0  0  0
  1 36  1  0  0  0
  1 37  1  0  0  0
  2  7  2  0  0  0
  2  3  1  0  0  0
  3  4  2  0  0  0
  3 38  1  0  0  0
  4  5  1  0  0  0
  4 39  1  0  0  0
  5  6  2  0  0  0
  5  9  1  0  0  0
  6  7  1  0  0  0
  6 40  1  0  0  0
  7  8  1  0  0  0
  8 41  1  0  0  0
  8 42  1  0  0  0
  8 43  1  0  0  0
  9 10  1  0  0  0
  9 44  1  0  0  0
 10 11  2  0  0  0
 10 12  1  0  0  0
 12 13  1  0  0  0
 12 45  1  0  0  0
 13 14  2  0  0  0
 13 15  1  0  0  0
 15 16  1  0  0  0
 15 46  1  0  0  0
 15 47  1  0  0  0
 16 17  1  0  0  0
 17 18  2  0  0  0
 17 19  1  0  0  0
 19 24  2  0  0  0
 19 20  1  0  0  0
 20 21  2  0  0  0
 20 48  1  0  0  0
 21 22  1  0  0  0
 21 49  1  0  0  0
 22 23  2  0  0  0
 22 25  1  0  0  0
 23 24  1  0  0  0
 23 50  1  0  0  0
 24 51  1  0  0  0
 25 26  2  0  0  0
 25 27  2  0  0  0
 25 28  1  0  0  0
 28 33  1  0  0  0
 28 29  1  0  0  0
 29 30  1  0  0  0
 29 52  1  0  0  0
 29 53  1  0  0  0
 30 31  1  0  0  0
 30 54  1  0  0  0
 30 55  1  0  0  0
 31 32  1  0  0  0
 31 34  1  0  0  0
 31 56  1  0  0  0
 32 33  1  0  0  0
 32 57  1  0  0  0
 32 58  1  0  0  0
 33 59  1  0  0  0
 33 60  1  0  0  0
 34 61  1  0  0  0
 34 62  1  0  0  0
 34 63  1  0  0  0
M  END
> <i_i_glide_confnum>
255

> <i_i_glide_lignum>
3379

> <i_i_glide_posenum>
153

> <i_i_glide_rotatable_bonds>
10

> <i_m_Source_File_Index>
4682

> <b_m_subgroup_collapsed>
0

> <r_i_docking_score>
-4.98817

> <r_i_glide_ecoul>
-1.68533

> <r_i_glide_eff_state_penalty>
0

> <r_i_glide_einternal>
7.67872

> <r_i_glide_emodel>
-61.5189

> <r_i_glide_energy>
-49.7926

> <r_i_glide_erotb>
0.855205

> <r_i_glide_esite>
-0.142315

> <r_i_glide_evdw>
-48.1073

> <r_i_glide_gscore>
-4.98817

> <r_i_glide_hbond>
-0.32

> <r_i_glide_ligand_efficiency>
-0.146711

> <r_i_glide_ligand_efficiency_ln>
-1.10203

> <r_i_glide_ligand_efficiency_sa>
-0.475286

> <r_i_glide_lipo>
-1.6035

> <r_i_glide_metal>
0

> <r_i_glide_rewards>
-1.1194

> <s_i_glide_gridfile>
wee1_glide-grid

> <s_m_Source_File>
wee1_decoys_glide_SP.sdf

> <s_m_Source_Path>
/Users/zhangxujun/Desktop

> <s_m_entry_id>
4957

> <s_m_entry_name>
wee1_decoys_glide_SP.4682

> <s_m_subgroup_title>
wee1_decoys_glide_SP

> <s_m_subgroupid>
wee1_decoys_glide_SP


$$$$
