ZINC09585613_3200
                    3D
 Schrodinger Suite 2024-2.
 54 58  0  0  1  0            999 V2000
    3.2751   53.1179   28.8254 C   0  0  0  0  0  0
    2.4577   52.0967   29.3004 C   0  0  0  0  0  0
    1.3448   51.6905   28.5629 C   0  0  0  0  0  0
    1.0313   52.3219   27.3550 C   0  0  0  0  0  0
    1.8467   53.3692   26.9051 C   0  0  0  0  0  0
    2.9711   53.7577   27.6276 C   0  0  0  0  0  0
   -0.2563   51.9447   26.6046 C   0  0  0  0  0  0
   -0.1260   51.0679   25.3007 C   0  0  2  0  0  0
   -1.5425   50.8685   24.7538 C   0  0  0  0  0  0
   -2.3866   51.7538   24.5845 O   0  0  0  0  0  0
   -1.6506   49.5558   24.4619 N   0  0  0  0  0  0
   -0.6002   48.8146   24.8858 C   0  0  0  0  0  0
   -0.2804   47.6958   24.4899 O   0  0  0  0  0  0
    0.1528   49.6738   25.5899 N   0  0  0  0  0  0
   -2.8433   48.9656   23.8158 C   0  0  0  0  0  0
   -3.9456   48.4492   24.7622 C   0  0  0  0  0  0
   -5.0333   48.2265   24.2348 O   0  0  0  0  0  0
   -3.7054   48.2520   26.0822 N   0  0  0  0  0  0
   -4.6225   47.7482   27.0303 C   0  0  0  0  0  0
   -5.6218   46.7974   26.7102 C   0  0  0  0  0  0
   -6.5088   46.3226   27.6851 C   0  0  0  0  0  0
   -6.3620   46.8092   28.9767 C   0  0  0  0  0  0
   -5.3867   47.7057   29.3025 C   0  0  0  0  0  0
   -4.4955   48.1964   28.3551 C   0  0  0  0  0  0
   -5.4620   47.9937   30.6270 O   0  0  0  0  0  0
   -6.5309   47.2422   31.1408 C   0  0  0  0  0  0
   -7.0828   46.5000   30.0831 O   0  0  0  0  0  0
   -6.0863   46.4131   32.0823 F   0  0  0  0  0  0
   -7.4543   48.0560   31.6552 F   0  0  0  0  0  0
    0.7666   51.6616   24.1697 C   0  0  0  0  0  0
    0.7108   53.0330   23.8796 C   0  0  0  0  0  0
    1.5045   53.5862   22.8803 C   0  0  0  0  0  0
    2.2908   52.7583   22.0857 C   0  0  0  0  0  0
    2.3051   51.3846   22.3014 C   0  0  0  0  0  0
    1.5573   50.8415   23.3414 C   0  0  0  0  0  0
    4.1430   53.4233   29.3936 H   0  0  0  0  0  0
    2.6847   51.6421   30.2514 H   0  0  0  0  0  0
    0.7133   50.8968   28.9411 H   0  0  0  0  0  0
    1.6093   53.9234   26.0135 H   0  0  0  0  0  0
    3.5945   54.5640   27.2720 H   0  0  0  0  0  0
   -0.7672   52.8844   26.3861 H   0  0  0  0  0  0
   -0.9219   51.4503   27.3156 H   0  0  0  0  0  0
    0.7745   49.3839   26.3318 H   0  0  0  0  0  0
   -2.5524   48.1629   23.1397 H   0  0  0  0  0  0
   -3.3053   49.7355   23.1953 H   0  0  0  0  0  0
   -2.8024   48.5085   26.4573 H   0  0  0  0  0  0
   -5.7226   46.4123   25.7077 H   0  0  0  0  0  0
   -7.2742   45.6027   27.4328 H   0  0  0  0  0  0
   -3.7127   48.8886   28.6369 H   0  0  0  0  0  0
    0.0656   53.6867   24.4476 H   0  0  0  0  0  0
    1.4806   54.6484   22.6865 H   0  0  0  0  0  0
    2.8835   53.1865   21.2889 H   0  0  0  0  0  0
    2.9074   50.7437   21.6732 H   0  0  0  0  0  0
    1.6155   49.7741   23.4915 H   0  0  0  0  0  0
  1  6  2  0  0  0
  1  2  1  0  0  0
  1 36  1  0  0  0
  2  3  2  0  0  0
  2 37  1  0  0  0
  3  4  1  0  0  0
  3 38  1  0  0  0
  4  5  2  0  0  0
  4  7  1  0  0  0
  5  6  1  0  0  0
  5 39  1  0  0  0
  6 40  1  0  0  0
  7  8  1  0  0  0
  7 41  1  0  0  0
  7 42  1  0  0  0
  8 14  1  0  0  0
  8  9  1  0  0  0
  8 30  1  0  0  0
  9 10  2  0  0  0
  9 11  1  0  0  0
 11 12  1  0  0  0
 11 15  1  0  0  0
 12 13  2  0  0  0
 12 14  1  0  0  0
 14 43  1  0  0  0
 15 16  1  0  0  0
 15 44  1  0  0  0
 15 45  1  0  0  0
 16 17  2  0  0  0
 16 18  1  0  0  0
 18 19  1  0  0  0
 18 46  1  0  0  0
 19 24  2  0  0  0
 19 20  1  0  0  0
 20 21  2  0  0  0
 20 47  1  0  0  0
 21 22  1  0  0  0
 21 48  1  0  0  0
 22 27  1  0  0  0
 22 23  2  0  0  0
 23 24  1  0  0  0
 23 25  1  0  0  0
 24 49  1  0  0  0
 25 26  1  0  0  0
 26 27  1  0  0  0
 26 28  1  0  0  0
 26 29  1  0  0  0
 30 35  2  0  0  0
 30 31  1  0  0  0
 31 32  2  0  0  0
 31 50  1  0  0  0
 32 33  1  0  0  0
 32 51  1  0  0  0
 33 34  2  0  0  0
 33 52  1  0  0  0
 34 35  1  0  0  0
 34 53  1  0  0  0
 35 54  1  0  0  0
M  END
> <i_i_glide_confnum>
35

> <i_i_glide_lignum>
3201

> <i_i_glide_posenum>
264

> <i_i_glide_rotatable_bonds>
7

> <i_m_Source_File_Index>
841

> <b_m_subgroup_collapsed>
0

> <r_i_docking_score>
-4.16301

> <r_i_glide_ecoul>
-2.87293

> <r_i_glide_eff_state_penalty>
0

> <r_i_glide_einternal>
6.14328

> <r_i_glide_emodel>
-47.6008

> <r_i_glide_energy>
-39.8189

> <r_i_glide_erotb>
0.52916

> <r_i_glide_esite>
-0.222982

> <r_i_glide_evdw>
-36.9459

> <r_i_glide_gscore>
-4.16301

> <r_i_glide_hbond>
-0.0331252

> <r_i_glide_ligand_efficiency>
-0.118943

> <r_i_glide_ligand_efficiency_ln>
-0.913873

> <r_i_glide_ligand_efficiency_sa>
-0.389071

> <r_i_glide_lipo>
-1.69129

> <r_i_glide_metal>
0

> <r_i_glide_rewards>
-0.46654

> <s_i_glide_gridfile>
wee1_glide-grid

> <s_m_Source_File>
wee1_decoys_glide_SP.sdf

> <s_m_Source_Path>
/Users/zhangxujun/Desktop

> <s_m_entry_id>
1116

> <s_m_entry_name>
wee1_decoys_glide_SP.841

> <s_m_subgroup_title>
wee1_decoys_glide_SP

> <s_m_subgroupid>
wee1_decoys_glide_SP


$$$$
