ZINC38700682_2477
                    3D
 Schrodinger Suite 2024-2.
 54 58  0  0  1  0            999 V2000
    9.8896   49.5362   13.9282 C   0  0  0  0  0  0
   10.4134   50.4118   15.4332 S   0  0  0  0  0  0
    9.1990   51.6339   15.8610 C   0  0  0  0  0  0
    9.4978   52.5366   16.8817 C   0  0  0  0  0  0
    8.5563   53.4870   17.2705 C   0  0  0  0  0  0
    7.3095   53.5416   16.6349 C   0  0  0  0  0  0
    7.0254   52.6454   15.5960 C   0  0  0  0  0  0
    7.9671   51.6972   15.2077 C   0  0  0  0  0  0
    6.2559   54.5621   17.0794 C   0  0  1  0  0  0
    5.3306   54.3012   16.5549 H   0  0  0  0  0  0
    5.9417   54.4826   18.5808 C   0  0  0  0  0  0
    5.3386   53.3546   19.1518 C   0  0  0  0  0  0
    5.0286   53.3107   20.5098 C   0  0  0  0  0  0
    5.3432   54.3915   21.3359 C   0  0  0  0  0  0
    5.9391   55.5283   20.7839 C   0  0  0  0  0  0
    6.2166   55.5805   19.4212 C   0  0  0  0  0  0
    6.7215   56.7754   18.9477 O   0  0  0  0  0  0
    6.7869   56.9652   17.6049 C   0  0  0  0  0  0
    6.5799   56.0052   16.6805 C   0  0  0  0  0  0
    6.6549   56.3155   15.2873 C   0  0  0  0  0  0
    6.7263   56.5806   14.1641 N   0  0  0  0  0  0
    7.0518   58.2918   17.3711 N   0  0  0  0  0  0
    4.9945   54.3663   22.6651 O   0  0  0  0  0  0
    5.9532   54.1974   23.6144 C   0  0  0  0  0  0
    7.1036   53.7888   23.4190 O   0  0  0  0  0  0
    5.4454   54.5779   25.0162 C   0  0  2  0  0  0
    5.3820   55.6666   25.0343 H   0  0  0  0  0  0
    6.4106   54.1363   26.1508 C   0  0  0  0  0  0
    5.8985   54.5711   27.4118 O   0  0  0  0  0  0
    4.5759   54.2336   27.6028 C   0  0  0  0  0  0
    4.1084   54.1457   28.9148 C   0  0  0  0  0  0
    2.7702   53.8190   29.1498 C   0  0  0  0  0  0
    1.9030   53.5918   28.0783 C   0  0  0  0  0  0
    2.3647   53.6967   26.7657 C   0  0  0  0  0  0
    3.6973   54.0269   26.5268 C   0  0  0  0  0  0
    4.1065   54.0927   25.2113 O   0  0  0  0  0  0
   10.6751   48.8506   13.6149 H   0  0  0  0  0  0
    9.7137   50.2355   13.1110 H   0  0  0  0  0  0
    8.9830   48.9563   14.1096 H   0  0  0  0  0  0
   10.4524   52.4905   17.3863 H   0  0  0  0  0  0
    8.7928   54.1735   18.0708 H   0  0  0  0  0  0
    6.0706   52.6754   15.0924 H   0  0  0  0  0  0
    7.7217   51.0066   14.4164 H   0  0  0  0  0  0
    5.1013   52.4990   18.5309 H   0  0  0  0  0  0
    4.5462   52.4353   20.9197 H   0  0  0  0  0  0
    6.1583   56.3815   21.4097 H   0  0  0  0  0  0
    7.1845   58.6111   16.4226 H   0  0  0  0  0  0
    6.7679   58.9975   18.0394 H   0  0  0  0  0  0
    6.5061   53.0500   26.1637 H   0  0  0  0  0  0
    7.4074   54.5520   26.0101 H   0  0  0  0  0  0
    4.7802   54.3326   29.7377 H   0  0  0  0  0  0
    2.3988   53.7372   30.1604 H   0  0  0  0  0  0
    0.8698   53.3344   28.2668 H   0  0  0  0  0  0
    1.6933   53.5179   25.9377 H   0  0  0  0  0  0
  1  2  1  0  0  0
  1 37  1  0  0  0
  1 38  1  0  0  0
  1 39  1  0  0  0
  2  3  1  0  0  0
  3  8  2  0  0  0
  3  4  1  0  0  0
  4  5  2  0  0  0
  4 40  1  0  0  0
  5  6  1  0  0  0
  5 41  1  0  0  0
  6  7  2  0  0  0
  6  9  1  0  0  0
  7  8  1  0  0  0
  7 42  1  0  0  0
  8 43  1  0  0  0
  9 10  1  0  0  0
  9 19  1  0  0  0
  9 11  1  0  0  0
 11 16  2  0  0  0
 11 12  1  0  0  0
 12 13  2  0  0  0
 12 44  1  0  0  0
 13 14  1  0  0  0
 13 45  1  0  0  0
 14 15  2  0  0  0
 14 23  1  0  0  0
 15 16  1  0  0  0
 15 46  1  0  0  0
 16 17  1  0  0  0
 17 18  1  0  0  0
 18 19  2  0  0  0
 18 22  1  0  0  0
 19 20  1  0  0  0
 20 21  3  0  0  0
 22 47  1  0  0  0
 22 48  1  0  0  0
 23 24  1  0  0  0
 24 25  2  0  0  0
 24 26  1  0  0  0
 26 27  1  0  0  0
 26 36  1  0  0  0
 26 28  1  0  0  0
 28 29  1  0  0  0
 28 49  1  0  0  0
 28 50  1  0  0  0
 29 30  1  0  0  0
 30 35  2  0  0  0
 30 31  1  0  0  0
 31 32  2  0  0  0
 31 51  1  0  0  0
 32 33  1  0  0  0
 32 52  1  0  0  0
 33 34  2  0  0  0
 33 53  1  0  0  0
 34 35  1  0  0  0
 34 54  1  0  0  0
 35 36  1  0  0  0
M  END
> <i_i_glide_confnum>
31

> <i_i_glide_lignum>
2478

> <i_i_glide_posenum>
327

> <i_i_glide_rotatable_bonds>
6

> <i_m_Source_File_Index>
4631

> <b_m_subgroup_collapsed>
0

> <r_i_docking_score>
-3.36307

> <r_i_glide_ecoul>
-0.129221

> <r_i_glide_eff_state_penalty>
0

> <r_i_glide_einternal>
4.7886

> <r_i_glide_emodel>
-45.5964

> <r_i_glide_energy>
-44.1606

> <r_i_glide_erotb>
0.362265

> <r_i_glide_esite>
-0.0449248

> <r_i_glide_evdw>
-44.0313

> <r_i_glide_gscore>
-3.36307

> <r_i_glide_hbond>
0

> <r_i_glide_ligand_efficiency>
-0.0989139

> <r_i_glide_ligand_efficiency_ln>
-0.742997

> <r_i_glide_ligand_efficiency_sa>
-0.320443

> <r_i_glide_lipo>
-2.56819

> <r_i_glide_metal>
0

> <r_i_glide_rewards>
1.10873

> <s_i_glide_gridfile>
wee1_glide-grid

> <s_m_Source_File>
wee1_decoys_glide_SP.sdf

> <s_m_Source_Path>
/Users/zhangxujun/Desktop

> <s_m_entry_id>
4906

> <s_m_entry_name>
wee1_decoys_glide_SP.4631

> <s_m_subgroup_title>
wee1_decoys_glide_SP

> <s_m_subgroupid>
wee1_decoys_glide_SP


$$$$
