ZINC09463383_986
                    3D
 Schrodinger Suite 2024-2.
 60 65  0  0  1  0            999 V2000
    1.2965   49.5398   19.2039 C   0  0  0  0  0  0
    1.8308   50.5953   20.1539 C   0  0  0  0  0  0
    0.9751   51.5362   20.7170 C   0  0  0  0  0  0
    1.4964   52.5353   21.5302 C   0  0  0  0  0  0
    2.8645   52.5935   21.8224 C   0  0  0  0  0  0
    3.7095   51.6220   21.2800 C   0  0  0  0  0  0
    3.1942   50.6496   20.4298 C   0  0  0  0  0  0
    3.4220   53.8117   22.5942 C   0  0  1  0  0  0
    2.7573   54.6370   22.3295 H   0  0  0  0  0  0
    3.5037   53.6977   24.1087 C   0  0  0  0  0  0
    2.3338   53.2971   24.9471 C   0  0  0  0  0  0
    2.2920   53.4220   26.4473 C   0  0  0  0  0  0
    2.8900   54.4982   27.1116 C   0  0  0  0  0  0
    2.6597   54.7559   28.4594 C   0  0  0  0  0  0
    1.8044   53.9279   29.1676 C   0  0  0  0  0  0
    1.2371   52.8017   28.5528 C   0  0  0  0  0  0
    1.4694   52.5588   27.1982 C   0  0  0  0  0  0
    0.3557   51.9752   29.2216 O   0  0  0  0  0  0
    0.3565   52.1491   30.6448 C   0  0  0  0  0  0
    0.3783   53.6487   31.0151 C   0  0  0  0  0  0
    1.5611   54.2535   30.4818 O   0  0  0  0  0  0
    1.3592   52.7866   24.4002 O   0  0  0  0  0  0
    4.7660   54.0414   24.4343 C   0  0  0  0  0  0
    5.3506   54.0959   25.5813 O   0  5  0  0  0  0
    5.5999   54.3160   23.2788 C   0  0  0  0  0  0
    6.8064   54.5809   23.2750 O   0  0  0  0  0  0
    4.7780   54.2462   22.1972 N   0  0  0  0  0  0
    5.1208   54.5758   20.8686 C   0  0  0  0  0  0
    4.3045   54.3925   19.8682 N   0  0  0  0  0  0
    4.8310   54.7676   18.6727 C   0  0  0  0  0  0
    4.1791   54.6484   17.4291 C   0  0  0  0  0  0
    4.8692   55.0965   16.2974 C   0  0  0  0  0  0
    6.1546   55.6388   16.3744 C   0  0  0  0  0  0
    6.8092   55.7555   17.6028 C   0  0  0  0  0  0
    6.1378   55.3129   18.7473 C   0  0  0  0  0  0
    6.6674   55.3030   20.4196 S   0  0  0  0  0  0
    6.8476   56.1197   15.1114 C   0  0  0  0  0  0
    2.7906   54.0501   17.2647 C   0  0  0  0  0  0
    0.3023   49.7876   18.8341 H   0  0  0  0  0  0
    1.9510   49.4549   18.3340 H   0  0  0  0  0  0
    1.2675   48.5671   19.6942 H   0  0  0  0  0  0
   -0.0818   51.5230   20.5004 H   0  0  0  0  0  0
    0.8341   53.2956   21.9151 H   0  0  0  0  0  0
    4.7730   51.6604   21.4553 H   0  0  0  0  0  0
    3.8654   49.9626   19.9424 H   0  0  0  0  0  0
    3.4657   55.2336   26.5712 H   0  0  0  0  0  0
    3.0988   55.6210   28.9332 H   0  0  0  0  0  0
    0.9640   51.7256   26.7275 H   0  0  0  0  0  0
   -0.5043   51.6537   31.0868 H   0  0  0  0  0  0
    1.2560   51.6968   31.0636 H   0  0  0  0  0  0
   -0.4951   54.1382   30.5827 H   0  0  0  0  0  0
    0.3384   53.7871   32.0958 H   0  0  0  0  0  0
    4.3951   55.0195   15.3280 H   0  0  0  0  0  0
    7.8023   56.1735   17.6652 H   0  0  0  0  0  0
    7.5384   55.3605   14.7424 H   0  0  0  0  0  0
    6.1296   56.3536   14.3266 H   0  0  0  0  0  0
    7.4107   57.0329   15.3065 H   0  0  0  0  0  0
    2.5442   53.8537   16.2190 H   0  0  0  0  0  0
    2.7268   53.1013   17.8013 H   0  0  0  0  0  0
    2.0349   54.7180   17.6838 H   0  0  0  0  0  0
  1  2  1  0  0  0
  1 39  1  0  0  0
  1 40  1  0  0  0
  1 41  1  0  0  0
  2  7  2  0  0  0
  2  3  1  0  0  0
  3  4  2  0  0  0
  3 42  1  0  0  0
  4  5  1  0  0  0
  4 43  1  0  0  0
  5  6  2  0  0  0
  5  8  1  0  0  0
  6  7  1  0  0  0
  6 44  1  0  0  0
  7 45  1  0  0  0
  8 10  1  0  0  0
  8 27  1  0  0  0
  8  9  1  0  0  0
 10 23  2  0  0  0
 10 11  1  0  0  0
 11 22  2  0  0  0
 11 12  1  0  0  0
 12 17  2  0  0  0
 12 13  1  0  0  0
 13 14  2  0  0  0
 13 46  1  0  0  0
 14 15  1  0  0  0
 14 47  1  0  0  0
 15 21  1  0  0  0
 15 16  2  0  0  0
 16 17  1  0  0  0
 16 18  1  0  0  0
 17 48  1  0  0  0
 18 19  1  0  0  0
 19 20  1  0  0  0
 19 49  1  0  0  0
 19 50  1  0  0  0
 20 21  1  0  0  0
 20 51  1  0  0  0
 20 52  1  0  0  0
 23 25  1  0  0  0
 23 24  1  0  0  0
 25 27  1  0  0  0
 25 26  2  0  0  0
 27 28  1  0  0  0
 28 36  1  0  0  0
 28 29  2  0  0  0
 29 30  1  0  0  0
 30 35  2  0  0  0
 30 31  1  0  0  0
 31 32  2  0  0  0
 31 38  1  0  0  0
 32 33  1  0  0  0
 32 53  1  0  0  0
 33 34  2  0  0  0
 33 37  1  0  0  0
 34 35  1  0  0  0
 34 54  1  0  0  0
 35 36  1  0  0  0
 37 55  1  0  0  0
 37 56  1  0  0  0
 37 57  1  0  0  0
 38 58  1  0  0  0
 38 59  1  0  0  0
 38 60  1  0  0  0
M  CHG  1  24  -1
M  END
> <i_i_glide_confnum>
57

> <i_i_glide_lignum>
987

> <i_i_glide_posenum>
29

> <i_i_glide_rotatable_bonds>
4

> <i_m_Source_File_Index>
3387

> <b_m_subgroup_collapsed>
0

> <r_i_docking_score>
-4.98523

> <r_i_glide_ecoul>
0.0399575

> <r_i_glide_eff_state_penalty>
0

> <r_i_glide_einternal>
4.2417

> <r_i_glide_emodel>
-56.4502

> <r_i_glide_energy>
-43.8113

> <r_i_glide_erotb>
0.313239

> <r_i_glide_esite>
0

> <r_i_glide_evdw>
-43.8513

> <r_i_glide_gscore>
-4.98523

> <r_i_glide_hbond>
-0.191338

> <r_i_glide_ligand_efficiency>
-0.134736

> <r_i_glide_ligand_efficiency_ln>
-1.08118

> <r_i_glide_ligand_efficiency_sa>
-0.448971

> <r_i_glide_lipo>
-2.12107

> <r_i_glide_metal>
0

> <r_i_glide_rewards>
-0.799494

> <s_i_glide_gridfile>
wee1_glide-grid

> <s_m_Source_File>
wee1_decoys_glide_SP.sdf

> <s_m_Source_Path>
/Users/zhangxujun/Desktop

> <s_m_entry_id>
3662

> <s_m_entry_name>
wee1_decoys_glide_SP.3387

> <s_m_subgroup_title>
wee1_decoys_glide_SP

> <s_m_subgroupid>
wee1_decoys_glide_SP


$$$$
