ZINC30839898_2560
                    3D
 Schrodinger Suite 2024-2.
 47 48  0  0  1  0            999 V2000
    6.3161   54.3428   27.8500 C   0  0  0  0  0  0
    5.1619   53.7745   26.9847 C   0  0  1  0  0  0
    5.3244   52.6955   27.0235 H   0  0  0  0  0  0
    3.7644   53.9751   27.6017 C   0  0  0  0  0  0
    3.5361   54.8018   28.7155 C   0  0  0  0  0  0
    2.2646   54.9092   29.2806 C   0  0  0  0  0  0
    1.2096   54.1558   28.7688 C   0  0  0  0  0  0
    1.4232   53.3157   27.6784 C   0  0  0  0  0  0
    2.6813   53.2555   27.0821 C   0  0  0  0  0  0
    0.0115   52.2147   27.0304 Br  0  0  0  0  0  0
    5.1942   54.0969   25.5398 N   0  0  0  0  0  0
    6.1561   54.6905   24.8002 C   0  0  0  0  0  0
    7.1041   55.2966   25.2987 O   0  0  0  0  0  0
    6.0310   54.5974   23.2894 C   0  0  0  0  0  0
    6.8267   55.4218   22.4811 C   0  0  0  0  0  0
    6.7257   55.3968   21.0922 C   0  0  0  0  0  0
    5.8637   54.4968   20.4753 C   0  0  0  0  0  0
    5.1042   53.6150   21.2458 C   0  0  0  0  0  0
    5.1661   53.6925   22.6505 C   0  0  0  0  0  0
    4.4001   52.6242   20.5408 N   0  0  0  0  0  0
    3.3676   51.8741   20.9621 C   0  0  0  0  0  0
    2.7389   52.0563   22.0065 O   0  0  0  0  0  0
    3.1049   50.8947   20.0822 N   0  0  0  0  0  0
    1.9297   50.0230   20.0902 C   0  0  0  0  0  0
    1.8872   49.1915   18.7964 C   0  0  0  0  0  0
    1.8508   49.1114   21.3327 C   0  0  0  0  0  0
    6.2515   53.9968   28.8809 H   0  0  0  0  0  0
    7.2900   54.0145   27.4882 H   0  0  0  0  0  0
    6.3043   55.4316   27.8578 H   0  0  0  0  0  0
    4.3399   55.3613   29.1647 H   0  0  0  0  0  0
    2.1027   55.5592   30.1277 H   0  0  0  0  0  0
    0.2330   54.2085   29.2250 H   0  0  0  0  0  0
    2.8245   52.5948   26.2395 H   0  0  0  0  0  0
    4.4122   53.7291   25.0211 H   0  0  0  0  0  0
    7.5393   56.0965   22.9320 H   0  0  0  0  0  0
    7.3428   56.0489   20.4923 H   0  0  0  0  0  0
    5.8276   54.4569   19.3961 H   0  0  0  0  0  0
    4.5864   53.0071   23.2444 H   0  0  0  0  0  0
    4.7051   52.4617   19.5923 H   0  0  0  0  0  0
    3.7443   50.7606   19.3064 H   0  0  0  0  0  0
    1.0449   50.6671   20.0872 H   0  0  0  0  0  0
    1.0247   48.5253   18.7858 H   0  0  0  0  0  0
    2.7684   48.5566   18.6986 H   0  0  0  0  0  0
    1.8144   49.8217   17.9089 H   0  0  0  0  0  0
    0.9538   48.4966   21.2824 H   0  0  0  0  0  0
    2.7041   48.4329   21.3897 H   0  0  0  0  0  0
    1.7888   49.6776   22.2634 H   0  0  0  0  0  0
  1  2  1  0  0  0
  1 27  1  0  0  0
  1 28  1  0  0  0
  1 29  1  0  0  0
  2  3  1  0  0  0
  2  4  1  0  0  0
  2 11  1  0  0  0
  4  9  2  0  0  0
  4  5  1  0  0  0
  5  6  2  0  0  0
  5 30  1  0  0  0
  6  7  1  0  0  0
  6 31  1  0  0  0
  7  8  2  0  0  0
  7 32  1  0  0  0
  8  9  1  0  0  0
  8 10  1  0  0  0
  9 33  1  0  0  0
 11 12  1  0  0  0
 11 34  1  0  0  0
 12 13  2  0  0  0
 12 14  1  0  0  0
 14 19  2  0  0  0
 14 15  1  0  0  0
 15 16  2  0  0  0
 15 35  1  0  0  0
 16 17  1  0  0  0
 16 36  1  0  0  0
 17 18  2  0  0  0
 17 37  1  0  0  0
 18 19  1  0  0  0
 18 20  1  0  0  0
 19 38  1  0  0  0
 20 21  1  0  0  0
 20 39  1  0  0  0
 21 22  2  0  0  0
 21 23  1  0  0  0
 23 24  1  0  0  0
 23 40  1  0  0  0
 24 25  1  0  0  0
 24 26  1  0  0  0
 24 41  1  0  0  0
 25 42  1  0  0  0
 25 43  1  0  0  0
 25 44  1  0  0  0
 26 45  1  0  0  0
 26 46  1  0  0  0
 26 47  1  0  0  0
M  END
> <i_i_glide_confnum>
8

> <i_i_glide_lignum>
2561

> <i_i_glide_posenum>
28

> <i_i_glide_rotatable_bonds>
8

> <i_m_Source_File_Index>
3029

> <b_m_subgroup_collapsed>
0

> <r_i_docking_score>
-6.70307

> <r_i_glide_ecoul>
-5.56878

> <r_i_glide_eff_state_penalty>
0

> <r_i_glide_einternal>
7.53308

> <r_i_glide_emodel>
-63.8647

> <r_i_glide_energy>
-47.7917

> <r_i_glide_erotb>
0.72098

> <r_i_glide_esite>
-0.100219

> <r_i_glide_evdw>
-42.2229

> <r_i_glide_gscore>
-6.70307

> <r_i_glide_hbond>
-0.454097

> <r_i_glide_ligand_efficiency>
-0.268123

> <r_i_glide_ligand_efficiency_ln>
-1.58883

> <r_i_glide_ligand_efficiency_sa>
-0.783995

> <r_i_glide_lipo>
-2.84967

> <r_i_glide_metal>
0

> <r_i_glide_rewards>
-1.0736

> <s_i_glide_gridfile>
wee1_glide-grid

> <s_m_Source_File>
wee1_decoys_glide_SP.sdf

> <s_m_Source_Path>
/Users/zhangxujun/Desktop

> <s_m_entry_id>
3304

> <s_m_entry_name>
wee1_decoys_glide_SP.3029

> <s_m_subgroup_title>
wee1_decoys_glide_SP

> <s_m_subgroupid>
wee1_decoys_glide_SP


$$$$
