ZINC42420884_1900
                    3D
 Schrodinger Suite 2024-2.
 39 40  0  0  1  0            999 V2000
    6.2353   54.2082   28.3310 C   0  0  0  0  0  0
    4.8867   54.2958   28.8821 N   0  0  0  0  0  0
    4.1761   53.2267   29.2792 C   0  0  0  0  0  0
    4.6563   52.0967   29.2768 O   0  0  0  0  0  0
    2.7272   53.4629   29.7914 C   0  0  2  0  0  0
    2.6889   54.5100   30.0926 H   0  0  0  0  0  0
    2.5008   52.4989   31.0043 C   0  0  0  0  0  0
    1.1218   52.6824   31.6479 C   0  0  0  0  0  0
    0.0391   52.6231   30.5690 C   0  0  0  0  0  0
    0.3647   53.5274   29.3624 C   0  0  0  0  0  0
    1.6715   53.1711   28.7736 N   0  0  0  0  0  0
    1.7655   53.0920   27.3776 C   0  0  0  0  0  0
    2.5818   53.9784   26.6628 C   0  0  0  0  0  0
    2.7128   53.8920   25.2788 C   0  0  0  0  0  0
    1.9899   52.9415   24.5549 C   0  0  0  0  0  0
    1.1046   52.1038   25.2425 C   0  0  0  0  0  0
    1.0007   52.1611   26.6351 C   0  0  0  0  0  0
    0.1497   51.2341   27.2494 N   0  0  0  0  0  0
    2.1729   52.7985   23.0448 C   0  0  0  0  0  0
    2.2977   51.5149   22.7055 F   0  0  0  0  0  0
    1.1050   53.2962   22.4324 F   0  0  0  0  0  0
    3.2489   53.4537   22.6068 F   0  0  0  0  0  0
    6.4653   55.1123   27.7674 H   0  0  0  0  0  0
    6.3380   53.3573   27.6565 H   0  0  0  0  0  0
    6.9726   54.0961   29.1244 H   0  0  0  0  0  0
    4.4879   55.2182   28.9660 H   0  0  0  0  0  0
    2.5527   51.4762   30.6404 H   0  0  0  0  0  0
    3.2913   52.5482   31.7546 H   0  0  0  0  0  0
    0.9455   51.9251   32.4122 H   0  0  0  0  0  0
    1.0769   53.6440   32.1522 H   0  0  0  0  0  0
   -0.1301   51.6014   30.2316 H   0  0  0  0  0  0
   -0.8959   52.9243   31.0265 H   0  0  0  0  0  0
   -0.4349   53.4313   28.6276 H   0  0  0  0  0  0
    0.3726   54.5766   29.6603 H   0  0  0  0  0  0
    3.1180   54.7639   27.1699 H   0  0  0  0  0  0
    3.3833   54.5729   24.7753 H   0  0  0  0  0  0
    0.5295   51.3726   24.6895 H   0  0  0  0  0  0
   -0.3435   50.5382   26.7084 H   0  0  0  0  0  0
    0.0976   51.2242   28.2600 H   0  0  0  0  0  0
  1  2  1  0  0  0
  1 23  1  0  0  0
  1 24  1  0  0  0
  1 25  1  0  0  0
  2  3  1  0  0  0
  2 26  1  0  0  0
  3  4  2  0  0  0
  3  5  1  0  0  0
  5  6  1  0  0  0
  5 11  1  0  0  0
  5  7  1  0  0  0
  7  8  1  0  0  0
  7 27  1  0  0  0
  7 28  1  0  0  0
  8  9  1  0  0  0
  8 29  1  0  0  0
  8 30  1  0  0  0
  9 10  1  0  0  0
  9 31  1  0  0  0
  9 32  1  0  0  0
 10 11  1  0  0  0
 10 33  1  0  0  0
 10 34  1  0  0  0
 11 12  1  0  0  0
 12 17  2  0  0  0
 12 13  1  0  0  0
 13 14  2  0  0  0
 13 35  1  0  0  0
 14 15  1  0  0  0
 14 36  1  0  0  0
 15 16  2  0  0  0
 15 19  1  0  0  0
 16 17  1  0  0  0
 16 37  1  0  0  0
 17 18  1  0  0  0
 18 38  1  0  0  0
 18 39  1  0  0  0
 19 20  1  0  0  0
 19 21  1  0  0  0
 19 22  1  0  0  0
M  END
> <i_i_glide_confnum>
2

> <i_i_glide_lignum>
1901

> <i_i_glide_posenum>
312

> <i_i_glide_rotatable_bonds>
4

> <i_m_Source_File_Index>
5090

> <b_m_subgroup_collapsed>
0

> <r_i_docking_score>
-4.74522

> <r_i_glide_ecoul>
0.322571

> <r_i_glide_eff_state_penalty>
0

> <r_i_glide_einternal>
2.46795

> <r_i_glide_emodel>
-36.8064

> <r_i_glide_energy>
-28.9646

> <r_i_glide_erotb>
0.405237

> <r_i_glide_esite>
-0.0393476

> <r_i_glide_evdw>
-29.2871

> <r_i_glide_gscore>
-4.74522

> <r_i_glide_hbond>
0

> <r_i_glide_ligand_efficiency>
-0.225963

> <r_i_glide_ligand_efficiency_ln>
-1.17325

> <r_i_glide_ligand_efficiency_sa>
-0.623415

> <r_i_glide_lipo>
-1.52236

> <r_i_glide_metal>
0

> <r_i_glide_rewards>
-2.17278

> <s_i_glide_gridfile>
wee1_glide-grid

> <s_m_Source_File>
wee1_decoys_glide_SP.sdf

> <s_m_Source_Path>
/Users/zhangxujun/Desktop

> <s_m_entry_id>
5365

> <s_m_entry_name>
wee1_decoys_glide_SP.5090

> <s_m_subgroup_title>
wee1_decoys_glide_SP

> <s_m_subgroupid>
wee1_decoys_glide_SP


$$$$
