ZINC36899399_3878
                    3D
 Schrodinger Suite 2024-2.
 27 29  0  0  1  0            999 V2000
    1.1044   55.6786   30.4814 C   0  0  0  0  0  0
    0.3843   54.5523   30.8818 C   0  0  0  0  0  0
    0.6185   53.3218   30.2741 C   0  0  0  0  0  0
    1.5772   53.2053   29.2662 C   0  0  0  0  0  0
    2.3057   54.3352   28.8576 C   0  0  0  0  0  0
    2.0587   55.5724   29.4709 C   0  0  0  0  0  0
    3.3162   54.2664   27.8709 N   0  0  0  0  0  0
    3.1582   54.0183   26.5173 C   0  0  0  0  0  0
    2.0583   53.6965   25.7144 C   0  0  0  0  0  0
    2.2870   53.6017   24.3389 C   0  0  0  0  0  0
    3.5488   53.8047   23.7820 C   0  0  0  0  0  0
    4.6506   54.0975   24.5827 C   0  0  0  0  0  0
    4.4538   54.2032   25.9653 C   0  0  0  0  0  0
    5.3686   54.4960   26.9350 N   0  0  0  0  0  0
    4.6668   54.5369   28.0340 C   0  0  0  0  0  0
    5.2115   54.8860   29.2313 N   0  0  0  0  0  0
    3.7079   53.7027   22.4446 F   0  0  0  0  0  0
    1.9041   51.2969   28.4790 I   0  0  0  0  0  0
    0.9306   56.6315   30.9568 H   0  0  0  0  0  0
   -0.3401   54.6253   31.6780 H   0  0  0  0  0  0
    0.0669   52.4505   30.6038 H   0  0  0  0  0  0
    2.6107   56.4528   29.1727 H   0  0  0  0  0  0
    1.0775   53.5403   26.1350 H   0  0  0  0  0  0
    1.4660   53.3676   23.6768 H   0  0  0  0  0  0
    5.6279   54.2438   24.1487 H   0  0  0  0  0  0
    6.1589   55.2472   29.2812 H   0  0  0  0  0  0
    4.6819   54.8612   30.0878 H   0  0  0  0  0  0
  1  6  2  0  0  0
  1  2  1  0  0  0
  1 19  1  0  0  0
  2  3  2  0  0  0
  2 20  1  0  0  0
  3  4  1  0  0  0
  3 21  1  0  0  0
  4  5  2  0  0  0
  4 18  1  0  0  0
  5  6  1  0  0  0
  5  7  1  0  0  0
  6 22  1  0  0  0
  7 15  1  0  0  0
  7  8  1  0  0  0
  8 13  2  0  0  0
  8  9  1  0  0  0
  9 10  2  0  0  0
  9 23  1  0  0  0
 10 11  1  0  0  0
 10 24  1  0  0  0
 11 12  2  0  0  0
 11 17  1  0  0  0
 12 13  1  0  0  0
 12 25  1  0  0  0
 13 14  1  0  0  0
 14 15  2  0  0  0
 15 16  1  0  0  0
 16 26  1  0  0  0
 16 27  1  0  0  0
M  END
> <i_i_glide_confnum>
1

> <i_i_glide_lignum>
3879

> <i_i_glide_posenum>
86

> <i_i_glide_rotatable_bonds>
1

> <i_m_Source_File_Index>
2376

> <b_m_subgroup_collapsed>
0

> <r_i_docking_score>
-6.6989

> <r_i_glide_ecoul>
-2.07031

> <r_i_glide_eff_state_penalty>
0

> <r_i_glide_einternal>
0.0106284

> <r_i_glide_emodel>
-47.7938

> <r_i_glide_energy>
-33.6391

> <r_i_glide_erotb>
0.153109

> <r_i_glide_esite>
-0.0127785

> <r_i_glide_evdw>
-31.5688

> <r_i_glide_gscore>
-6.6989

> <r_i_glide_hbond>
-0.32

> <r_i_glide_ligand_efficiency>
-0.372161

> <r_i_glide_ligand_efficiency_ln>
-1.72192

> <r_i_glide_ligand_efficiency_sa>
-0.975337

> <r_i_glide_lipo>
-2.74487

> <r_i_glide_metal>
0

> <r_i_glide_rewards>
-1.88537

> <s_i_glide_gridfile>
wee1_glide-grid

> <s_m_Source_File>
wee1_decoys_glide_SP.sdf

> <s_m_Source_Path>
/Users/zhangxujun/Desktop

> <s_m_entry_id>
2651

> <s_m_entry_name>
wee1_decoys_glide_SP.2376

> <s_m_subgroup_title>
wee1_decoys_glide_SP

> <s_m_subgroupid>
wee1_decoys_glide_SP


$$$$
