ZINC38719662_1678
                    3D
 Schrodinger Suite 2024-2.
 35 36  0  0  1  0            999 V2000
    2.0375   53.6294   24.2693 C   0  0  0  0  0  0
    3.4516   53.9702   24.7259 C   0  0  0  0  0  0
    4.4518   54.1186   23.7603 C   0  0  0  0  0  0
    5.7523   54.4517   24.1344 C   0  0  0  0  0  0
    6.0698   54.6110   25.4815 C   0  0  0  0  0  0
    5.0820   54.4519   26.4537 C   0  0  0  0  0  0
    3.7699   54.1261   26.0875 C   0  0  0  0  0  0
    2.7555   54.0294   27.0499 N   0  0  0  0  0  0
    2.8700   52.9967   28.4861 S   0  0  0  0  0  0
    4.2261   53.0870   29.0366 O   0  0  0  0  0  0
    2.3008   51.7045   28.0991 O   0  0  0  0  0  0
    1.7582   53.7634   29.6628 C   0  0  0  0  0  0
    1.5375   55.0651   29.8553 C   0  0  0  0  0  0
    0.6820   55.2298   30.8821 N   0  0  0  0  0  0
    0.3045   54.1115   31.3644 N   0  0  0  0  0  0
    0.9159   53.0252   30.6597 C   0  0  1  0  0  0
    1.5195   52.4553   31.3684 H   0  0  0  0  0  0
   -0.1882   52.1335   30.0551 C   0  0  0  0  0  0
    2.1341   56.3158   29.2504 C   0  0  0  0  0  0
    6.7231   54.6386   23.1550 N   0  0  0  0  0  0
    1.9885   53.4174   23.1995 H   0  0  0  0  0  0
    1.6753   52.7438   24.7939 H   0  0  0  0  0  0
    1.3555   54.4517   24.4906 H   0  0  0  0  0  0
    4.2114   53.9978   22.7137 H   0  0  0  0  0  0
    7.0752   54.8647   25.7793 H   0  0  0  0  0  0
    5.3441   54.6070   27.4896 H   0  0  0  0  0  0
    1.8496   53.9256   26.6213 H   0  0  0  0  0  0
    0.2240   51.2968   29.4929 H   0  0  0  0  0  0
   -0.8114   51.7040   30.8434 H   0  0  0  0  0  0
   -0.8462   52.6865   29.3833 H   0  0  0  0  0  0
    3.1001   56.0959   28.8001 H   0  0  0  0  0  0
    1.4720   56.7205   28.4868 H   0  0  0  0  0  0
    2.2879   57.0803   30.0131 H   0  0  0  0  0  0
    6.4695   54.5296   22.1839 H   0  0  0  0  0  0
    7.6709   54.8926   23.4158 H   0  0  0  0  0  0
  1  2  1  0  0  0
  1 21  1  0  0  0
  1 22  1  0  0  0
  1 23  1  0  0  0
  2  7  2  0  0  0
  2  3  1  0  0  0
  3  4  2  0  0  0
  3 24  1  0  0  0
  4  5  1  0  0  0
  4 20  1  0  0  0
  5  6  2  0  0  0
  5 25  1  0  0  0
  6  7  1  0  0  0
  6 26  1  0  0  0
  7  8  1  0  0  0
  8  9  1  0  0  0
  8 27  1  0  0  0
  9 10  2  0  0  0
  9 11  2  0  0  0
  9 12  1  0  0  0
 12 16  1  0  0  0
 12 13  2  0  0  0
 13 14  1  0  0  0
 13 19  1  0  0  0
 14 15  2  0  0  0
 15 16  1  0  0  0
 16 17  1  0  0  0
 16 18  1  0  0  0
 18 28  1  0  0  0
 18 29  1  0  0  0
 18 30  1  0  0  0
 19 31  1  0  0  0
 19 32  1  0  0  0
 19 33  1  0  0  0
 20 34  1  0  0  0
 20 35  1  0  0  0
M  END
> <i_i_glide_confnum>
28

> <i_i_glide_lignum>
1679

> <i_i_glide_posenum>
81

> <i_i_glide_rotatable_bonds>
3

> <i_m_Source_File_Index>
5790

> <b_m_subgroup_collapsed>
0

> <r_i_docking_score>
-6.2052

> <r_i_glide_ecoul>
-2.11246

> <r_i_glide_eff_state_penalty>
0

> <r_i_glide_einternal>
4.83645

> <r_i_glide_emodel>
-52.4605

> <r_i_glide_energy>
-39.4984

> <r_i_glide_erotb>
0.689305

> <r_i_glide_esite>
0

> <r_i_glide_evdw>
-37.386

> <r_i_glide_gscore>
-6.2052

> <r_i_glide_hbond>
-0.32

> <r_i_glide_ligand_efficiency>
-0.326589

> <r_i_glide_ligand_efficiency_ln>
-1.57315

> <r_i_glide_ligand_efficiency_sa>
-0.871472

> <r_i_glide_lipo>
-2.62959

> <r_i_glide_metal>
0

> <r_i_glide_rewards>
-1.75874

> <s_i_glide_gridfile>
wee1_glide-grid

> <s_m_Source_File>
wee1_decoys_glide_SP.sdf

> <s_m_Source_Path>
/Users/zhangxujun/Desktop

> <s_m_entry_id>
6065

> <s_m_entry_name>
wee1_decoys_glide_SP.5790

> <s_m_subgroup_title>
wee1_decoys_glide_SP

> <s_m_subgroupid>
wee1_decoys_glide_SP


$$$$
