ZINC13110642_2537
                    3D
 Schrodinger Suite 2024-2.
 47 50  0  0  1  0            999 V2000
    4.7161   54.0966   22.5751 C   0  0  0  0  0  0
    5.5632   54.1063   23.6798 C   0  0  0  0  0  0
    5.0212   54.0982   24.9626 C   0  0  0  0  0  0
    3.6318   54.0475   25.1455 C   0  0  0  0  0  0
    2.7902   54.0756   24.0236 C   0  0  0  0  0  0
    3.3337   54.1061   22.7445 C   0  0  0  0  0  0
    3.0693   53.9393   26.5401 C   0  0  0  0  0  0
    3.6479   54.4939   27.4752 O   0  0  0  0  0  0
    1.9432   53.1946   26.6479 N   0  0  0  0  0  0
    1.2130   52.8077   27.7972 C   0  0  0  0  0  0
    1.7423   52.9476   29.0959 C   0  0  0  0  0  0
    0.9970   52.6032   30.2193 C   0  0  0  0  0  0
   -0.2853   52.0964   30.0668 C   0  0  0  0  0  0
   -0.8157   51.9134   28.7953 C   0  0  0  0  0  0
   -0.0910   52.2653   27.6477 C   0  0  0  0  0  0
   -0.7934   52.0943   26.3088 C   0  0  0  0  0  0
   -1.9453   52.4973   26.1512 O   0  0  0  0  0  0
   -0.1387   51.4581   25.2635 N   0  0  0  0  0  0
    0.3068   50.2603   25.3591 C   0  0  0  0  0  0
    0.2762   49.3973   26.4816 N   0  0  0  0  0  0
    0.9474   49.5659   24.3038 N   0  0  0  0  0  0
    1.1839   50.0072   23.0256 C   0  0  0  0  0  0
    1.8985   51.0454   22.6442 N   0  0  0  0  0  0
    2.0002   50.8727   21.2900 C   0  0  0  0  0  0
    2.6648   51.6179   20.3048 C   0  0  0  0  0  0
    2.6012   51.1651   18.9834 C   0  0  0  0  0  0
    1.9013   50.0055   18.6379 C   0  0  0  0  0  0
    1.2278   49.2456   19.5979 C   0  0  0  0  0  0
    1.3056   49.7102   20.9135 C   0  0  0  0  0  0
    0.7882   49.1539   22.0371 O   0  0  0  0  0  0
    5.1333   54.1104   21.5786 H   0  0  0  0  0  0
    6.6350   54.1173   23.5434 H   0  0  0  0  0  0
    5.6896   54.0838   25.8126 H   0  0  0  0  0  0
    1.7138   54.0643   24.1250 H   0  0  0  0  0  0
    2.6766   54.1386   21.8883 H   0  0  0  0  0  0
    1.5675   52.8391   25.7803 H   0  0  0  0  0  0
    2.7375   53.3202   29.2719 H   0  0  0  0  0  0
    1.4119   52.7211   31.2096 H   0  0  0  0  0  0
   -0.8640   51.8139   30.9334 H   0  0  0  0  0  0
   -1.8113   51.4968   28.7117 H   0  0  0  0  0  0
   -0.3647   49.5788   27.2466 H   0  0  0  0  0  0
    0.4095   48.4017   26.3614 H   0  0  0  0  0  0
    1.3366   48.6646   24.5403 H   0  0  0  0  0  0
    3.2362   52.4971   20.5473 H   0  0  0  0  0  0
    3.1370   51.6983   18.2094 H   0  0  0  0  0  0
    1.9110   49.6842   17.6051 H   0  0  0  0  0  0
    0.6972   48.3413   19.3422 H   0  0  0  0  0  0
  1  6  2  0  0  0
  1  2  1  0  0  0
  1 31  1  0  0  0
  2  3  2  0  0  0
  2 32  1  0  0  0
  3  4  1  0  0  0
  3 33  1  0  0  0
  4  5  2  0  0  0
  4  7  1  0  0  0
  5  6  1  0  0  0
  5 34  1  0  0  0
  6 35  1  0  0  0
  7  8  2  0  0  0
  7  9  1  0  0  0
  9 10  1  0  0  0
  9 36  1  0  0  0
 10 15  2  0  0  0
 10 11  1  0  0  0
 11 12  2  0  0  0
 11 37  1  0  0  0
 12 13  1  0  0  0
 12 38  1  0  0  0
 13 14  2  0  0  0
 13 39  1  0  0  0
 14 15  1  0  0  0
 14 40  1  0  0  0
 15 16  1  0  0  0
 16 17  2  0  0  0
 16 18  1  0  0  0
 18 19  2  0  0  0
 19 20  1  0  0  0
 19 21  1  0  0  0
 20 41  1  0  0  0
 20 42  1  0  0  0
 21 22  1  0  0  0
 21 43  1  0  0  0
 22 30  1  0  0  0
 22 23  2  0  0  0
 23 24  1  0  0  0
 24 29  2  0  0  0
 24 25  1  0  0  0
 25 26  2  0  0  0
 25 44  1  0  0  0
 26 27  1  0  0  0
 26 45  1  0  0  0
 27 28  2  0  0  0
 27 46  1  0  0  0
 28 29  1  0  0  0
 28 47  1  0  0  0
 29 30  1  0  0  0
M  END
> <i_i_glide_confnum>
80

> <i_i_glide_lignum>
2538

> <i_i_glide_posenum>
230

> <i_i_glide_rotatable_bonds>
7

> <i_m_Source_File_Index>
4386

> <b_m_subgroup_collapsed>
0

> <r_i_docking_score>
-6.17246

> <r_i_glide_ecoul>
-9.58875

> <r_i_glide_eff_state_penalty>
0

> <r_i_glide_einternal>
4.77665

> <r_i_glide_emodel>
-65.7454

> <r_i_glide_energy>
-49.0382

> <r_i_glide_erotb>
0.736982

> <r_i_glide_esite>
-0.102071

> <r_i_glide_evdw>
-39.4495

> <r_i_glide_gscore>
-6.17246

> <r_i_glide_hbond>
-0.560975

> <r_i_glide_ligand_efficiency>
-0.205749

> <r_i_glide_ligand_efficiency_ln>
-1.40245

> <r_i_glide_ligand_efficiency_sa>
-0.639309

> <r_i_glide_lipo>
-1.86075

> <r_i_glide_metal>
0

> <r_i_glide_rewards>
-0.974862

> <s_i_glide_gridfile>
wee1_glide-grid

> <s_m_Source_File>
wee1_decoys_glide_SP.sdf

> <s_m_Source_Path>
/Users/zhangxujun/Desktop

> <s_m_entry_id>
4661

> <s_m_entry_name>
wee1_decoys_glide_SP.4386

> <s_m_subgroup_title>
wee1_decoys_glide_SP

> <s_m_subgroupid>
wee1_decoys_glide_SP


$$$$
