ZINC12487749_3156
                    3D
 Schrodinger Suite 2024-2.
 57 60  0  0  1  0            999 V2000
    2.2597   50.1762   22.0810 C   0  0  0  0  0  0
    2.3240   51.4757   21.5866 C   0  0  0  0  0  0
    1.6601   52.5025   22.2537 C   0  0  0  0  0  0
    0.9335   52.2385   23.4155 C   0  0  0  0  0  0
    0.8729   50.9295   23.9408 C   0  0  0  0  0  0
    1.5382   49.9115   23.2430 C   0  0  0  0  0  0
    0.1092   50.5279   25.2047 C   0  0  1  0  0  0
    0.5690   49.5948   25.5144 H   0  0  0  0  0  0
    0.3487   51.3936   26.4766 C   0  0  0  0  0  0
    0.9235   52.4787   26.3983 O   0  0  0  0  0  0
   -0.0982   50.9046   27.6492 N   0  0  0  0  0  0
   -0.1232   51.6989   28.8895 C   0  0  0  0  0  0
    1.2314   51.9574   29.5495 C   0  0  0  0  0  0
    1.6103   52.2375   30.8582 C   0  0  0  0  0  0
    3.0058   52.3174   30.8817 C   0  0  0  0  0  0
    3.4239   52.1183   29.5800 C   0  0  0  0  0  0
    2.3534   51.8837   28.7801 O   0  0  0  0  0  0
   -1.3298   50.3200   24.8474 N   0  0  0  0  0  0
   -2.2349   51.4069   24.8702 C   0  0  0  0  0  0
   -2.9646   51.6614   26.0404 C   0  0  0  0  0  0
   -3.8730   52.7177   26.0844 C   0  0  0  0  0  0
   -4.0408   53.5432   24.9759 C   0  0  0  0  0  0
   -3.3054   53.2972   23.8175 C   0  0  0  0  0  0
   -2.4374   52.2142   23.7416 C   0  0  0  0  0  0
   -1.8177   51.9544   22.5666 F   0  0  0  0  0  0
   -1.8607   49.1013   24.5157 C   0  0  0  0  0  0
   -2.8367   48.9983   23.7636 O   0  0  0  0  0  0
   -1.2942   47.7854   25.0914 C   0  0  0  0  0  0
   -2.2651   47.3158   26.0817 N   0  0  0  0  0  0
   -3.3034   46.4967   25.8410 C   0  0  0  0  0  0
   -3.4903   45.9443   24.7548 O   0  0  0  0  0  0
   -4.2281   46.3299   26.9378 C   0  0  0  0  0  0
   -4.3619   47.0822   28.1115 C   0  0  0  0  0  0
   -5.4723   46.7207   28.8791 C   0  0  0  0  0  0
   -6.2093   45.6972   28.3024 C   0  0  0  0  0  0
   -5.5076   45.1497   26.8145 S   0  0  0  0  0  0
    0.2741   53.2691   23.9928 F   0  0  0  0  0  0
    2.7666   49.3749   21.5643 H   0  0  0  0  0  0
    2.8782   51.6867   20.6830 H   0  0  0  0  0  0
    1.6990   53.5105   21.8649 H   0  0  0  0  0  0
    1.5045   48.8969   23.6079 H   0  0  0  0  0  0
   -0.5614   49.9995   27.6812 H   0  0  0  0  0  0
   -0.8077   51.2210   29.5912 H   0  0  0  0  0  0
   -0.5849   52.6618   28.6626 H   0  0  0  0  0  0
    0.9431   52.3389   31.7057 H   0  0  0  0  0  0
    3.6329   52.4967   31.7444 H   0  0  0  0  0  0
    4.3909   52.0942   29.0973 H   0  0  0  0  0  0
   -2.8395   51.0312   26.9098 H   0  0  0  0  0  0
   -4.4452   52.8963   26.9805 H   0  0  0  0  0  0
   -4.7349   54.3689   25.0125 H   0  0  0  0  0  0
   -3.4325   53.9338   22.9594 H   0  0  0  0  0  0
   -1.1728   47.0611   24.2854 H   0  0  0  0  0  0
   -0.3302   47.8701   25.5772 H   0  0  0  0  0  0
   -2.0968   47.6543   27.0368 H   0  0  0  0  0  0
   -3.6961   47.8839   28.3994 H   0  0  0  0  0  0
   -5.7374   47.2064   29.8070 H   0  0  0  0  0  0
   -7.1244   45.2500   28.6641 H   0  0  0  0  0  0
  1  6  2  0  0  0
  1  2  1  0  0  0
  1 38  1  0  0  0
  2  3  2  0  0  0
  2 39  1  0  0  0
  3  4  1  0  0  0
  3 40  1  0  0  0
  4  5  2  0  0  0
  4 37  1  0  0  0
  5  6  1  0  0  0
  5  7  1  0  0  0
  6 41  1  0  0  0
  7  8  1  0  0  0
  7  9  1  0  0  0
  7 18  1  0  0  0
  9 10  2  0  0  0
  9 11  1  0  0  0
 11 12  1  0  0  0
 11 42  1  0  0  0
 12 13  1  0  0  0
 12 43  1  0  0  0
 12 44  1  0  0  0
 13 17  1  0  0  0
 13 14  2  0  0  0
 14 15  1  0  0  0
 14 45  1  0  0  0
 15 16  2  0  0  0
 15 46  1  0  0  0
 16 17  1  0  0  0
 16 47  1  0  0  0
 18 19  1  0  0  0
 18 26  1  0  0  0
 19 24  2  0  0  0
 19 20  1  0  0  0
 20 21  2  0  0  0
 20 48  1  0  0  0
 21 22  1  0  0  0
 21 49  1  0  0  0
 22 23  2  0  0  0
 22 50  1  0  0  0
 23 24  1  0  0  0
 23 51  1  0  0  0
 24 25  1  0  0  0
 26 27  2  0  0  0
 26 28  1  0  0  0
 28 29  1  0  0  0
 28 52  1  0  0  0
 28 53  1  0  0  0
 29 30  1  0  0  0
 29 54  1  0  0  0
 30 31  2  0  0  0
 30 32  1  0  0  0
 32 36  1  0  0  0
 32 33  2  0  0  0
 33 34  1  0  0  0
 33 55  1  0  0  0
 34 35  2  0  0  0
 34 56  1  0  0  0
 35 36  1  0  0  0
 35 57  1  0  0  0
M  END
> <i_i_glide_confnum>
227

> <i_i_glide_lignum>
3157

> <i_i_glide_posenum>
314

> <i_i_glide_rotatable_bonds>
12

> <i_m_Source_File_Index>
963

> <b_m_subgroup_collapsed>
0

> <r_i_docking_score>
-5.45752

> <r_i_glide_ecoul>
-15.9615

> <r_i_glide_eff_state_penalty>
0

> <r_i_glide_einternal>
25.0646

> <r_i_glide_emodel>
-60.5067

> <r_i_glide_energy>
-53.2497

> <r_i_glide_erotb>
0.788875

> <r_i_glide_esite>
-0.333227

> <r_i_glide_evdw>
-37.2881

> <r_i_glide_gscore>
-5.45752

> <r_i_glide_hbond>
-0.420695

> <r_i_glide_ligand_efficiency>
-0.151598

> <r_i_glide_ligand_efficiency_ln>
-1.19068

> <r_i_glide_ligand_efficiency_sa>
-0.500565

> <r_i_glide_lipo>
-1.30643

> <r_i_glide_metal>
0

> <r_i_glide_rewards>
0.0725861

> <s_i_glide_gridfile>
wee1_glide-grid

> <s_m_Source_File>
wee1_decoys_glide_SP.sdf

> <s_m_Source_Path>
/Users/zhangxujun/Desktop

> <s_m_entry_id>
1238

> <s_m_entry_name>
wee1_decoys_glide_SP.963

> <s_m_subgroup_title>
wee1_decoys_glide_SP

> <s_m_subgroupid>
wee1_decoys_glide_SP


$$$$
