ZINC20467674_2616
                    3D
 Schrodinger Suite 2024-2.
 31 32  0  0  1  0            999 V2000
    1.5070   53.2958   26.3505 C   0  0  0  0  0  0
    1.2193   53.3628   27.7090 C   0  0  0  0  0  0
    0.4932   52.3385   28.3228 C   0  0  0  0  0  0
    0.0353   51.2838   27.5400 C   0  0  0  0  0  0
    0.3520   51.2127   26.1839 C   0  0  0  0  0  0
    1.1040   52.2125   25.5577 C   0  0  0  0  0  0
    1.4323   52.0395   24.2321 N   0  5  0  0  0  0
    1.5658   53.2022   23.1869 S   0  0  0  0  0  0
    1.1060   52.7993   21.8536 O   0  0  0  0  0  0
    1.1043   54.4967   23.6814 O   0  0  0  0  0  0
    3.3555   53.4074   23.0695 C   0  0  0  0  0  0
    4.0125   54.2278   23.9978 C   0  0  0  0  0  0
    5.3983   54.3567   23.9729 C   0  0  0  0  0  0
    6.1027   53.6969   22.9765 C   0  0  0  0  0  0
    5.4930   52.9304   22.0408 N   0  0  0  0  0  0
    4.1450   52.7955   22.0817 C   0  0  0  0  0  0
    3.6049   51.9906   21.0875 N   0  0  0  0  0  0
    6.3074   55.3937   25.2807 Br  0  0  0  0  0  0
    0.1978   52.2982   29.6718 O   0  0  0  0  0  0
    0.9861   53.0579   30.5889 C   0  0  0  0  0  0
    2.2950   52.8590   30.4089 F   0  0  0  0  0  0
    0.7045   52.6479   31.8208 F   0  0  0  0  0  0
    0.6978   54.3589   30.5132 F   0  0  0  0  0  0
    2.0642   54.1055   25.9350 H   0  0  0  0  0  0
    1.5764   54.2149   28.2656 H   0  0  0  0  0  0
   -0.5455   50.4966   27.9961 H   0  0  0  0  0  0
    0.0154   50.3578   25.6154 H   0  0  0  0  0  0
    3.4696   54.7917   24.7333 H   0  0  0  0  0  0
    7.1791   53.7735   22.9213 H   0  0  0  0  0  0
    2.5897   51.9883   21.0195 H   0  0  0  0  0  0
    4.1881   51.6940   20.3174 H   0  0  0  0  0  0
  1  6  2  0  0  0
  1  2  1  0  0  0
  1 24  1  0  0  0
  2  3  2  0  0  0
  2 25  1  0  0  0
  3  4  1  0  0  0
  3 19  1  0  0  0
  4  5  2  0  0  0
  4 26  1  0  0  0
  5  6  1  0  0  0
  5 27  1  0  0  0
  6  7  1  0  0  0
  7  8  1  0  0  0
  8  9  2  0  0  0
  8 10  2  0  0  0
  8 11  1  0  0  0
 11 16  2  0  0  0
 11 12  1  0  0  0
 12 13  2  0  0  0
 12 28  1  0  0  0
 13 14  1  0  0  0
 13 18  1  0  0  0
 14 15  2  0  0  0
 14 29  1  0  0  0
 15 16  1  0  0  0
 16 17  1  0  0  0
 17 30  1  0  0  0
 17 31  1  0  0  0
 19 20  1  0  0  0
 20 21  1  0  0  0
 20 22  1  0  0  0
 20 23  1  0  0  0
M  CHG  1   7  -1
M  END
> <i_i_glide_confnum>
4

> <i_i_glide_lignum>
2617

> <i_i_glide_posenum>
390

> <i_i_glide_rotatable_bonds>
5

> <i_m_Source_File_Index>
1941

> <b_m_subgroup_collapsed>
0

> <r_i_docking_score>
-4.74836

> <r_i_glide_ecoul>
-2.69937

> <r_i_glide_eff_state_penalty>
0

> <r_i_glide_einternal>
4.15228

> <r_i_glide_emodel>
-45.1212

> <r_i_glide_energy>
-35.3352

> <r_i_glide_erotb>
0.466261

> <r_i_glide_esite>
-0.112952

> <r_i_glide_evdw>
-32.6359

> <r_i_glide_gscore>
-4.74836

> <r_i_glide_hbond>
0

> <r_i_glide_ligand_efficiency>
-0.206451

> <r_i_glide_ligand_efficiency_ln>
-1.1482

> <r_i_glide_ligand_efficiency_sa>
-0.587118

> <r_i_glide_lipo>
-1.8102

> <r_i_glide_metal>
0

> <r_i_glide_rewards>
-1.25477

> <s_i_glide_gridfile>
wee1_glide-grid

> <s_m_Source_File>
wee1_decoys_glide_SP.sdf

> <s_m_Source_Path>
/Users/zhangxujun/Desktop

> <s_m_entry_id>
2216

> <s_m_entry_name>
wee1_decoys_glide_SP.1941

> <s_m_subgroup_title>
wee1_decoys_glide_SP

> <s_m_subgroupid>
wee1_decoys_glide_SP


$$$$
