ZINC11044353_5074
                    3D
 Schrodinger Suite 2024-2.
 63 66  0  0  1  0            999 V2000
    5.8252   53.5765   19.6811 C   0  0  0  0  0  0
    4.4312   54.1055   20.0620 C   0  0  2  0  0  0
    4.3942   55.1914   19.9791 H   0  0  0  0  0  0
    3.9981   53.6618   21.4914 C   0  0  0  0  0  0
    3.1305   52.7958   21.6379 O   0  0  0  0  0  0
    4.6536   54.2630   22.5102 N   0  0  0  0  0  0
    4.4535   54.1304   23.9045 C   0  0  0  0  0  0
    3.2505   53.7087   24.4952 C   0  0  0  0  0  0
    3.1387   53.6307   25.8854 C   0  0  0  0  0  0
    4.2291   53.9636   26.6969 C   0  0  0  0  0  0
    5.4171   54.4031   26.1141 C   0  0  0  0  0  0
    5.5249   54.4965   24.7246 C   0  0  0  0  0  0
    4.1423   53.8010   28.4922 S   0  0  0  0  0  0
    4.4956   52.4195   28.8257 O   0  0  0  0  0  0
    4.9275   54.8969   29.0528 O   0  0  0  0  0  0
    2.4502   54.0498   28.9450 N   0  0  0  0  0  0
    1.8229   55.3837   28.8866 C   0  0  0  0  0  0
    1.1388   55.6695   30.2376 C   0  0  0  0  0  0
    0.2251   54.4976   30.6928 C   0  0  0  0  0  0
    0.8770   53.0954   30.5660 C   0  0  0  0  0  0
    1.5387   52.9121   29.1887 C   0  0  0  0  0  0
    3.4933   53.8212   17.5844 C   0  0  1  0  0  0
    4.4108   53.2802   17.3527 H   0  0  0  0  0  0
    2.3484   53.1103   16.8621 C   0  0  0  0  0  0
    2.6386   52.0534   15.9957 C   0  0  0  0  0  0
    1.6088   51.3740   15.3502 C   0  0  0  0  0  0
    0.2883   51.7511   15.5689 C   0  0  0  0  0  0
   -0.0161   52.7994   16.4338 C   0  0  0  0  0  0
    1.0132   53.4688   17.0909 C   0  0  0  0  0  0
    3.6804   55.3129   17.2608 C   0  0  0  0  0  0
    4.8465   56.0841   17.3586 C   0  0  0  0  0  0
    4.7155   57.4200   16.9674 C   0  0  0  0  0  0
    3.4451   57.7170   16.5238 C   0  0  0  0  0  0
    2.4207   56.3289   16.5802 S   0  0  0  0  0  0
    6.5895   54.0979   20.2539 H   0  0  0  0  0  0
    5.9043   52.5006   19.8511 H   0  0  0  0  0  0
    6.0860   53.7515   18.6385 H   0  0  0  0  0  0
    5.4128   54.8746   22.2516 H   0  0  0  0  0  0
    2.3948   53.4398   23.8936 H   0  0  0  0  0  0
    2.2146   53.2850   26.3222 H   0  0  0  0  0  0
    6.2613   54.6650   26.7363 H   0  0  0  0  0  0
    6.4547   54.8378   24.2962 H   0  0  0  0  0  0
    2.5821   56.1303   28.6545 H   0  0  0  0  0  0
    1.0993   55.3883   28.0721 H   0  0  0  0  0  0
    1.9039   55.8590   30.9857 H   0  0  0  0  0  0
    0.5774   56.6012   30.1844 H   0  0  0  0  0  0
   -0.6741   54.4960   30.0779 H   0  0  0  0  0  0
   -0.0988   54.6564   31.7207 H   0  0  0  0  0  0
    0.1286   52.3196   30.7276 H   0  0  0  0  0  0
    1.6190   52.9548   31.3524 H   0  0  0  0  0  0
    0.7911   52.8846   28.3929 H   0  0  0  0  0  0
    2.0899   51.9736   29.1429 H   0  0  0  0  0  0
    3.6570   51.7376   15.8292 H   0  0  0  0  0  0
    1.8412   50.5524   14.6883 H   0  0  0  0  0  0
   -0.5094   51.2222   15.0662 H   0  0  0  0  0  0
   -1.0449   53.0865   16.5969 H   0  0  0  0  0  0
    0.7697   54.2735   17.7703 H   0  0  0  0  0  0
    5.7879   55.6938   17.7114 H   0  0  0  0  0  0
    5.5164   58.1463   16.9972 H   0  0  0  0  0  0
    3.0696   58.6693   16.1713 H   0  0  0  0  0  0
    3.3720   53.5972   19.1086 N   0  3  0  0  0  0
    2.5024   54.0231   19.4182 H   0  0  0  0  0  0
    3.3056   52.6017   19.2737 H   0  0  0  0  0  0
  1  2  1  0  0  0
  1 35  1  0  0  0
  1 36  1  0  0  0
  1 37  1  0  0  0
  2  3  1  0  0  0
  2  4  1  0  0  0
  2 61  1  0  0  0
  4  5  2  0  0  0
  4  6  1  0  0  0
  6  7  1  0  0  0
  6 38  1  0  0  0
  7 12  2  0  0  0
  7  8  1  0  0  0
  8  9  2  0  0  0
  8 39  1  0  0  0
  9 10  1  0  0  0
  9 40  1  0  0  0
 10 11  2  0  0  0
 10 13  1  0  0  0
 11 12  1  0  0  0
 11 41  1  0  0  0
 12 42  1  0  0  0
 13 14  2  0  0  0
 13 15  2  0  0  0
 13 16  1  0  0  0
 16 21  1  0  0  0
 16 17  1  0  0  0
 17 18  1  0  0  0
 17 43  1  0  0  0
 17 44  1  0  0  0
 18 19  1  0  0  0
 18 45  1  0  0  0
 18 46  1  0  0  0
 19 20  1  0  0  0
 19 47  1  0  0  0
 19 48  1  0  0  0
 20 21  1  0  0  0
 20 49  1  0  0  0
 20 50  1  0  0  0
 21 51  1  0  0  0
 21 52  1  0  0  0
 22 23  1  0  0  0
 22 24  1  0  0  0
 22 30  1  0  0  0
 22 61  1  0  0  0
 24 29  2  0  0  0
 24 25  1  0  0  0
 25 26  2  0  0  0
 25 53  1  0  0  0
 26 27  1  0  0  0
 26 54  1  0  0  0
 27 28  2  0  0  0
 27 55  1  0  0  0
 28 29  1  0  0  0
 28 56  1  0  0  0
 29 57  1  0  0  0
 30 34  1  0  0  0
 30 31  2  0  0  0
 31 32  1  0  0  0
 31 58  1  0  0  0
 32 33  2  0  0  0
 32 59  1  0  0  0
 33 34  1  0  0  0
 33 60  1  0  0  0
 61 62  1  0  0  0
 61 63  1  0  0  0
M  CHG  1  61   1
M  END
> <i_i_glide_confnum>
38

> <i_i_glide_lignum>
5075

> <i_i_glide_posenum>
91

> <i_i_glide_rotatable_bonds>
9

> <i_m_Source_File_Index>
276

> <b_m_subgroup_collapsed>
0

> <r_i_docking_score>
-4.64703

> <r_i_glide_ecoul>
-2.98207

> <r_i_glide_eff_state_penalty>
0

> <r_i_glide_einternal>
10.6877

> <r_i_glide_emodel>
-54.1184

> <r_i_glide_energy>
-44.3088

> <r_i_glide_erotb>
0.77817

> <r_i_glide_esite>
-0.0180809

> <r_i_glide_evdw>
-41.3267

> <r_i_glide_gscore>
-4.64703

> <r_i_glide_hbond>
0

> <r_i_glide_ligand_efficiency>
-0.140819

> <r_i_glide_ligand_efficiency_ln>
-1.03348

> <r_i_glide_ligand_efficiency_sa>
-0.451682

> <r_i_glide_lipo>
-2.56808

> <r_i_glide_metal>
0

> <r_i_glide_rewards>
-0.325399

> <s_i_glide_gridfile>
wee1_glide-grid

> <s_m_Source_File>
wee1_decoys_glide_SP.sdf

> <s_m_Source_Path>
/Users/zhangxujun/Desktop

> <s_m_entry_id>
551

> <s_m_entry_name>
wee1_decoys_glide_SP.276

> <s_m_subgroup_title>
wee1_decoys_glide_SP

> <s_m_subgroupid>
wee1_decoys_glide_SP


$$$$
