ZINC39945691_605
                    3D
 Schrodinger Suite 2024-2.
 56 60  0  0  1  0            999 V2000
    2.8893   53.2509   21.7843 C   0  0  0  0  0  0
    1.3750   53.0507   22.0372 C   0  0  1  0  0  0
    0.8459   53.6836   21.3321 H   0  0  0  0  0  0
    0.8225   51.6482   21.6790 C   0  0  0  0  0  0
   -0.2397   51.2807   22.1815 O   0  0  0  0  0  0
    1.5269   50.9249   20.7802 N   0  0  0  0  0  0
    1.2453   49.6730   20.2043 C   0  0  0  0  0  0
    2.1120   49.2559   19.1887 C   0  0  0  0  0  0
    1.9051   48.0461   18.5283 C   0  0  0  0  0  0
    0.8326   47.2325   18.8842 C   0  0  0  0  0  0
   -0.0321   47.6282   19.9042 C   0  0  0  0  0  0
    0.1703   48.8412   20.5638 C   0  0  0  0  0  0
   -1.3394   46.6019   20.3680 Cl  0  0  0  0  0  0
    0.8694   53.6773   23.6818 S   0  0  0  0  0  0
    1.5371   52.4161   24.7922 C   0  0  2  0  0  0
    2.4400   52.0101   24.3379 H   0  0  0  0  0  0
    0.6186   51.3347   25.0820 N   0  0  0  0  0  0
    0.0225   51.5273   26.3185 N   0  0  0  0  0  0
    0.7472   52.3634   26.9230 C   0  0  0  0  0  0
    1.7884   52.8707   26.1551 N   0  0  0  0  0  0
    3.0440   53.4575   26.4524 C   0  0  0  0  0  0
    3.6817   53.2205   27.6796 C   0  0  0  0  0  0
    4.9377   53.7600   27.9426 C   0  0  0  0  0  0
    5.5591   54.5430   26.9761 C   0  0  0  0  0  0
    4.9448   54.7988   25.7580 C   0  0  0  0  0  0
    3.6941   54.2584   25.5019 C   0  0  0  0  0  0
    7.1044   55.2225   27.2812 Cl  0  0  0  0  0  0
    0.4448   52.6739   28.2983 C   0  0  0  0  0  0
    0.7122   53.8029   28.9893 C   0  0  0  0  0  0
    1.3309   55.0901   28.6214 C   0  0  0  0  0  0
    1.5055   56.0695   29.5266 C   0  0  0  0  0  0
    1.0511   55.8191   30.8815 C   0  0  0  0  0  0
    0.4530   54.6483   31.2392 C   0  0  0  0  0  0
    0.2828   53.6234   30.3085 C   0  0  0  0  0  0
   -0.2618   52.4401   30.4831 N   0  3  0  0  0  0
   -0.2594   51.6973   29.2128 C   0  0  0  0  0  0
    3.1612   53.0522   20.7465 H   0  0  0  0  0  0
    3.1739   54.2857   21.9797 H   0  0  0  0  0  0
    3.5027   52.6132   22.4214 H   0  0  0  0  0  0
    2.3651   51.3573   20.4233 H   0  0  0  0  0  0
    2.9500   49.8683   18.8824 H   0  0  0  0  0  0
    2.5852   47.7478   17.7415 H   0  0  0  0  0  0
    0.6787   46.2947   18.3732 H   0  0  0  0  0  0
   -0.5188   49.1051   21.3495 H   0  0  0  0  0  0
   -0.1025   51.1603   24.3933 H   0  0  0  0  0  0
    3.2229   52.5893   28.4241 H   0  0  0  0  0  0
    5.4326   53.5604   28.8816 H   0  0  0  0  0  0
    5.4314   55.4110   25.0136 H   0  0  0  0  0  0
    3.2477   54.4778   24.5471 H   0  0  0  0  0  0
    1.6501   55.2919   27.6167 H   0  0  0  0  0  0
    1.9501   57.0168   29.2536 H   0  0  0  0  0  0
    1.1867   56.5928   31.6264 H   0  0  0  0  0  0
    0.1338   54.5119   32.2647 H   0  0  0  0  0  0
   -1.2919   51.4798   28.9325 H   0  0  0  0  0  0
    0.2918   50.7676   29.3257 H   0  0  0  0  0  0
   -0.6578   52.0929   31.3646 H   0  0  0  0  0  0
  1  2  1  0  0  0
  1 37  1  0  0  0
  1 38  1  0  0  0
  1 39  1  0  0  0
  2  3  1  0  0  0
  2  4  1  0  0  0
  2 14  1  0  0  0
  4  5  2  0  0  0
  4  6  1  0  0  0
  6  7  1  0  0  0
  6 40  1  0  0  0
  7 12  2  0  0  0
  7  8  1  0  0  0
  8  9  2  0  0  0
  8 41  1  0  0  0
  9 10  1  0  0  0
  9 42  1  0  0  0
 10 11  2  0  0  0
 10 43  1  0  0  0
 11 12  1  0  0  0
 11 13  1  0  0  0
 12 44  1  0  0  0
 14 15  1  0  0  0
 15 16  1  0  0  0
 15 20  1  0  0  0
 15 17  1  0  0  0
 17 18  1  0  0  0
 17 45  1  0  0  0
 18 19  2  0  0  0
 19 20  1  0  0  0
 19 28  1  0  0  0
 20 21  1  0  0  0
 21 26  2  0  0  0
 21 22  1  0  0  0
 22 23  2  0  0  0
 22 46  1  0  0  0
 23 24  1  0  0  0
 23 47  1  0  0  0
 24 25  2  0  0  0
 24 27  1  0  0  0
 25 26  1  0  0  0
 25 48  1  0  0  0
 26 49  1  0  0  0
 28 36  1  0  0  0
 28 29  2  0  0  0
 29 34  1  0  0  0
 29 30  1  0  0  0
 30 31  2  0  0  0
 30 50  1  0  0  0
 31 32  1  0  0  0
 31 51  1  0  0  0
 32 33  2  0  0  0
 32 52  1  0  0  0
 33 34  1  0  0  0
 33 53  1  0  0  0
 34 35  2  0  0  0
 35 36  1  0  0  0
 35 56  1  0  0  0
 36 54  1  0  0  0
 36 55  1  0  0  0
M  CHG  1  35   1
M  END
> <i_i_glide_confnum>
52

> <i_i_glide_lignum>
606

> <i_i_glide_posenum>
48

> <i_i_glide_rotatable_bonds>
7

> <i_m_Source_File_Index>
734

> <b_m_subgroup_collapsed>
0

> <r_i_docking_score>
-6.45304

> <r_i_glide_ecoul>
-5.22246

> <r_i_glide_eff_state_penalty>
0

> <r_i_glide_einternal>
8.21906

> <r_i_glide_emodel>
-65.6316

> <r_i_glide_energy>
-47.6845

> <r_i_glide_erotb>
0.470066

> <r_i_glide_esite>
-0.0836588

> <r_i_glide_evdw>
-42.462

> <r_i_glide_gscore>
-6.45304

> <r_i_glide_hbond>
-0.2

> <r_i_glide_ligand_efficiency>
-0.189795

> <r_i_glide_ligand_efficiency_ln>
-1.42566

> <r_i_glide_ligand_efficiency_sa>
-0.614863

> <r_i_glide_lipo>
-3.10698

> <r_i_glide_metal>
0

> <r_i_glide_rewards>
-0.625992

> <s_i_glide_gridfile>
wee1_glide-grid

> <s_m_Source_File>
wee1_decoys_glide_SP.sdf

> <s_m_Source_Path>
/Users/zhangxujun/Desktop

> <s_m_entry_id>
1009

> <s_m_entry_name>
wee1_decoys_glide_SP.734

> <s_m_subgroup_title>
wee1_decoys_glide_SP

> <s_m_subgroupid>
wee1_decoys_glide_SP


$$$$
