ZINC55339666_2568
                    3D
 Schrodinger Suite 2024-2.
 48 50  0  0  1  0            999 V2000
    0.8738   55.5322   30.4795 C   0  0  0  0  0  0
    1.6666   54.2859   30.0575 C   0  0  1  0  0  0
    1.8193   53.6774   30.9509 H   0  0  0  0  0  0
    0.8686   53.4005   29.0912 C   0  0  0  0  0  0
    1.1256   53.4149   27.7174 C   0  0  0  0  0  0
    0.5062   52.4987   26.8737 C   0  0  0  0  0  0
   -0.4196   51.5850   27.3903 C   0  0  0  0  0  0
   -0.7158   51.6038   28.7554 C   0  0  0  0  0  0
   -0.0689   52.4988   29.6023 C   0  0  0  0  0  0
   -1.0216   50.5816   26.6075 N   0  0  0  0  0  0
   -1.2318   50.5871   25.2688 C   0  0  0  0  0  0
   -1.1040   51.5875   24.5552 O   0  0  0  0  0  0
   -1.6660   49.2759   24.6508 C   0  0  0  0  0  0
   -1.4052   48.0494   25.2819 C   0  0  0  0  0  0
   -1.7930   46.8535   24.6914 C   0  0  0  0  0  0
   -2.4311   46.8643   23.4561 C   0  0  0  0  0  0
   -2.6909   48.0702   22.8081 C   0  0  0  0  0  0
   -2.3107   49.2716   23.4036 C   0  0  0  0  0  0
   -2.7955   45.6965   22.8821 F   0  0  0  0  0  0
    3.0090   54.6788   29.6048 N   0  0  0  0  0  0
    4.0143   53.8478   29.2817 C   0  0  0  0  0  0
    3.9947   52.6330   29.4808 O   0  0  0  0  0  0
    5.0033   54.4970   28.6517 N   0  0  0  0  0  0
    5.9740   53.8948   27.7401 C   0  0  0  0  0  0
    5.5671   54.0968   26.2940 C   0  0  0  0  0  0
    4.3408   53.8574   25.6745 C   0  0  0  0  0  0
    4.3249   54.0969   24.2988 C   0  0  0  0  0  0
    5.5562   54.4965   23.8222 C   0  0  0  0  0  0
    6.7044   54.6583   25.1016 S   0  0  0  0  0  0
   -0.0989   55.2595   30.8862 H   0  0  0  0  0  0
    1.3966   56.1005   31.2504 H   0  0  0  0  0  0
    0.7061   56.2027   29.6372 H   0  0  0  0  0  0
    1.8217   54.1248   27.3019 H   0  0  0  0  0  0
    0.7763   52.5024   25.8281 H   0  0  0  0  0  0
   -1.4187   50.8973   29.1757 H   0  0  0  0  0  0
   -0.2819   52.4661   30.6626 H   0  0  0  0  0  0
   -1.2962   49.7501   27.1256 H   0  0  0  0  0  0
   -0.8942   48.0004   26.2343 H   0  0  0  0  0  0
   -1.5869   45.9231   25.1958 H   0  0  0  0  0  0
   -3.1837   48.0711   21.8469 H   0  0  0  0  0  0
   -2.5179   50.1986   22.8863 H   0  0  0  0  0  0
    3.2027   55.6679   29.6209 H   0  0  0  0  0  0
    5.0863   55.4922   28.7845 H   0  0  0  0  0  0
    6.9346   54.3706   27.9374 H   0  0  0  0  0  0
    6.1256   52.8366   27.9585 H   0  0  0  0  0  0
    3.4912   53.4731   26.2118 H   0  0  0  0  0  0
    3.4555   53.9448   23.6740 H   0  0  0  0  0  0
    5.8309   54.7301   22.8031 H   0  0  0  0  0  0
  1  2  1  0  0  0
  1 30  1  0  0  0
  1 31  1  0  0  0
  1 32  1  0  0  0
  2  3  1  0  0  0
  2  4  1  0  0  0
  2 20  1  0  0  0
  4  9  2  0  0  0
  4  5  1  0  0  0
  5  6  2  0  0  0
  5 33  1  0  0  0
  6  7  1  0  0  0
  6 34  1  0  0  0
  7  8  2  0  0  0
  7 10  1  0  0  0
  8  9  1  0  0  0
  8 35  1  0  0  0
  9 36  1  0  0  0
 10 11  1  0  0  0
 10 37  1  0  0  0
 11 12  2  0  0  0
 11 13  1  0  0  0
 13 18  2  0  0  0
 13 14  1  0  0  0
 14 15  2  0  0  0
 14 38  1  0  0  0
 15 16  1  0  0  0
 15 39  1  0  0  0
 16 17  2  0  0  0
 16 19  1  0  0  0
 17 18  1  0  0  0
 17 40  1  0  0  0
 18 41  1  0  0  0
 20 21  1  0  0  0
 20 42  1  0  0  0
 21 22  2  0  0  0
 21 23  1  0  0  0
 23 24  1  0  0  0
 23 43  1  0  0  0
 24 25  1  0  0  0
 24 44  1  0  0  0
 24 45  1  0  0  0
 25 29  1  0  0  0
 25 26  2  0  0  0
 26 27  1  0  0  0
 26 46  1  0  0  0
 27 28  2  0  0  0
 27 47  1  0  0  0
 28 29  1  0  0  0
 28 48  1  0  0  0
M  END
> <i_i_glide_confnum>
264

> <i_i_glide_lignum>
2569

> <i_i_glide_posenum>
279

> <i_i_glide_rotatable_bonds>
9

> <i_m_Source_File_Index>
4155

> <b_m_subgroup_collapsed>
0

> <r_i_docking_score>
-5.70541

> <r_i_glide_ecoul>
-6.33782

> <r_i_glide_eff_state_penalty>
0

> <r_i_glide_einternal>
3.8811

> <r_i_glide_emodel>
-66.2205

> <r_i_glide_energy>
-49.7269

> <r_i_glide_erotb>
0.991268

> <r_i_glide_esite>
-0.178281

> <r_i_glide_evdw>
-43.389

> <r_i_glide_gscore>
-5.70541

> <r_i_glide_hbond>
-0.16

> <r_i_glide_ligand_efficiency>
-0.203764

> <r_i_glide_ligand_efficiency_ln>
-1.31698

> <r_i_glide_ligand_efficiency_sa>
-0.618749

> <r_i_glide_lipo>
-2.28861

> <r_i_glide_metal>
0

> <r_i_glide_rewards>
-0.949655

> <s_i_glide_gridfile>
wee1_glide-grid

> <s_m_Source_File>
wee1_decoys_glide_SP.sdf

> <s_m_Source_Path>
/Users/zhangxujun/Desktop

> <s_m_entry_id>
4430

> <s_m_entry_name>
wee1_decoys_glide_SP.4155

> <s_m_subgroup_title>
wee1_decoys_glide_SP

> <s_m_subgroupid>
wee1_decoys_glide_SP


$$$$
