ZINC23182370_3621
                    3D
 Schrodinger Suite 2024-2.
 52 55  0  0  1  0            999 V2000
    8.3716   57.1233   16.6020 C   0  0  0  0  0  0
    7.2761   57.5450   17.3499 C   0  0  0  0  0  0
    7.1056   57.0736   18.6491 C   0  0  0  0  0  0
    8.0376   56.1781   19.1953 C   0  0  0  0  0  0
    9.1392   55.7721   18.4430 C   0  0  0  0  0  0
    9.3054   56.2406   17.1427 C   0  0  0  0  0  0
    7.9541   55.6972   20.5119 N   0  0  0  0  0  0
    6.8270   55.4514   21.2049 C   0  0  0  0  0  0
    5.6958   55.5135   20.7284 O   0  0  0  0  0  0
    7.1044   55.1358   22.4851 N   0  0  0  0  0  0
    6.1942   54.8104   23.4972 C   0  0  0  0  0  0
    6.5542   55.1366   24.8043 C   0  0  0  0  0  0
    5.6709   54.8964   25.8533 C   0  0  0  0  0  0
    4.4142   54.3404   25.5994 C   0  0  0  0  0  0
    4.0713   53.9924   24.2827 C   0  0  0  0  0  0
    4.9671   54.1927   23.2440 C   0  0  0  0  0  0
    3.5611   54.1813   26.7126 N   0  0  0  0  0  0
    2.2993   53.6944   26.7509 C   0  0  0  0  0  0
    1.7237   53.2273   25.7727 O   0  0  0  0  0  0
    1.5813   53.8033   28.0833 C   0  0  0  0  0  0
    1.8113   54.9330   28.8887 C   0  0  0  0  0  0
    1.1770   55.0863   30.1185 C   0  0  0  0  0  0
    0.3054   54.1048   30.5776 C   0  0  0  0  0  0
    0.0447   52.9854   29.7944 C   0  0  0  0  0  0
    0.6681   52.8233   28.5547 C   0  0  0  0  0  0
    0.2609   51.3419   27.6619 S   0  0  0  0  0  0
   -0.8790   51.7947   26.3000 C   0  0  0  0  0  0
   -2.3705   51.7610   26.5885 C   0  0  0  0  0  0
   -3.3514   52.5230   25.9555 C   0  0  0  0  0  0
   -4.9243   52.0583   26.5222 S   0  0  0  0  0  0
   -4.1303   50.9308   27.5684 C   0  0  0  0  0  0
   -2.8284   50.8968   27.4761 N   0  0  0  0  0  0
    8.4995   57.4866   15.5912 H   0  0  0  0  0  0
    6.5617   58.2379   16.9283 H   0  0  0  0  0  0
    6.2536   57.4179   19.2183 H   0  0  0  0  0  0
    9.8735   55.0918   18.8576 H   0  0  0  0  0  0
   10.1548   55.9223   16.5558 H   0  0  0  0  0  0
    8.8298   55.4355   20.9379 H   0  0  0  0  0  0
    8.0582   55.2658   22.7971 H   0  0  0  0  0  0
    7.5049   55.6059   25.0013 H   0  0  0  0  0  0
    5.9603   55.1658   26.8586 H   0  0  0  0  0  0
    3.1303   53.5488   24.0107 H   0  0  0  0  0  0
    4.6762   53.9022   22.2473 H   0  0  0  0  0  0
    3.9441   54.4928   27.5919 H   0  0  0  0  0  0
    2.4738   55.7217   28.5644 H   0  0  0  0  0  0
    1.3683   55.9628   30.7208 H   0  0  0  0  0  0
   -0.1692   54.2090   31.5433 H   0  0  0  0  0  0
   -0.6362   52.2301   30.1592 H   0  0  0  0  0  0
   -0.6446   51.1750   25.4357 H   0  0  0  0  0  0
   -0.6365   52.8151   26.0075 H   0  0  0  0  0  0
   -3.2331   53.2769   25.1922 H   0  0  0  0  0  0
   -4.6821   50.2826   28.2311 H   0  0  0  0  0  0
  1  6  2  0  0  0
  1  2  1  0  0  0
  1 33  1  0  0  0
  2  3  2  0  0  0
  2 34  1  0  0  0
  3  4  1  0  0  0
  3 35  1  0  0  0
  4  5  2  0  0  0
  4  7  1  0  0  0
  5  6  1  0  0  0
  5 36  1  0  0  0
  6 37  1  0  0  0
  7  8  1  0  0  0
  7 38  1  0  0  0
  8  9  2  0  0  0
  8 10  1  0  0  0
 10 11  1  0  0  0
 10 39  1  0  0  0
 11 16  2  0  0  0
 11 12  1  0  0  0
 12 13  2  0  0  0
 12 40  1  0  0  0
 13 14  1  0  0  0
 13 41  1  0  0  0
 14 15  2  0  0  0
 14 17  1  0  0  0
 15 16  1  0  0  0
 15 42  1  0  0  0
 16 43  1  0  0  0
 17 18  1  0  0  0
 17 44  1  0  0  0
 18 19  2  0  0  0
 18 20  1  0  0  0
 20 25  2  0  0  0
 20 21  1  0  0  0
 21 22  2  0  0  0
 21 45  1  0  0  0
 22 23  1  0  0  0
 22 46  1  0  0  0
 23 24  2  0  0  0
 23 47  1  0  0  0
 24 25  1  0  0  0
 24 48  1  0  0  0
 25 26  1  0  0  0
 26 27  1  0  0  0
 27 28  1  0  0  0
 27 49  1  0  0  0
 27 50  1  0  0  0
 28 32  1  0  0  0
 28 29  2  0  0  0
 29 30  1  0  0  0
 29 51  1  0  0  0
 30 31  1  0  0  0
 31 32  2  0  0  0
 31 52  1  0  0  0
M  END
> <i_i_glide_confnum>
227

> <i_i_glide_lignum>
3622

> <i_i_glide_posenum>
374

> <i_i_glide_rotatable_bonds>
10

> <i_m_Source_File_Index>
1565

> <b_m_subgroup_collapsed>
0

> <r_i_docking_score>
-5.98945

> <r_i_glide_ecoul>
-2.15592

> <r_i_glide_eff_state_penalty>
0

> <r_i_glide_einternal>
9.27333

> <r_i_glide_emodel>
-68.5567

> <r_i_glide_energy>
-52.2896

> <r_i_glide_erotb>
0.854039

> <r_i_glide_esite>
0

> <r_i_glide_evdw>
-50.1337

> <r_i_glide_gscore>
-5.98945

> <r_i_glide_hbond>
-0.32

> <r_i_glide_ligand_efficiency>
-0.18717

> <r_i_glide_ligand_efficiency_ln>
-1.3412

> <r_i_glide_ligand_efficiency_sa>
-0.594229

> <r_i_glide_lipo>
-2.98402

> <r_i_glide_metal>
0

> <r_i_glide_rewards>
-0.709405

> <s_i_glide_gridfile>
wee1_glide-grid

> <s_m_Source_File>
wee1_decoys_glide_SP.sdf

> <s_m_Source_Path>
/Users/zhangxujun/Desktop

> <s_m_entry_id>
1840

> <s_m_entry_name>
wee1_decoys_glide_SP.1565

> <s_m_subgroup_title>
wee1_decoys_glide_SP

> <s_m_subgroupid>
wee1_decoys_glide_SP


$$$$
