ZINC63145082_4764
                    3D
 Schrodinger Suite 2024-2.
 44 46  0  0  1  0            999 V2000
   -2.2140   51.9145   25.7601 C   0  0  0  0  0  0
   -1.1754   51.6095   24.6676 C   0  0  2  0  0  0
    0.2651   51.7953   25.1864 C   0  0  0  0  0  0
    1.3051   51.4392   24.0981 C   0  0  0  0  0  0
    1.1097   52.2395   22.7849 C   0  0  1  0  0  0
   -0.3634   52.0972   22.3144 C   0  0  0  0  0  0
   -1.3731   52.4921   23.4161 C   0  0  0  0  0  0
    1.5431   53.7227   22.9095 C   0  0  0  0  0  0
    2.9890   53.9400   22.8408 N   0  0  0  0  0  0
    3.8462   54.0965   23.9512 C   0  0  0  0  0  0
    3.3457   54.0998   25.2628 C   0  0  0  0  0  0
    4.2021   54.2602   26.3469 C   0  0  0  0  0  0
    5.5690   54.4204   26.1368 C   0  0  0  0  0  0
    6.0941   54.4354   24.8493 C   0  0  0  0  0  0
    5.2412   54.2635   23.7542 C   0  0  0  0  0  0
    5.8270   54.2873   22.4819 N   0  0  0  0  0  0
    6.4017   54.6306   27.2153 O   0  0  0  0  0  0
    5.9908   53.9694   28.4394 C   0  0  0  0  0  0
    4.4705   54.1093   28.7653 C   0  0  0  0  0  0
    3.9818   54.0948   29.8949 O   0  0  0  0  0  0
    3.7269   54.2529   27.6542 N   0  0  0  0  0  0
   -2.1349   52.9435   26.1122 H   0  0  0  0  0  0
   -3.2292   51.7661   25.3914 H   0  0  0  0  0  0
   -2.0814   51.2565   26.6203 H   0  0  0  0  0  0
   -1.2872   50.5666   24.3625 H   0  0  0  0  0  0
    0.3984   52.8183   25.5371 H   0  0  0  0  0  0
    0.4248   51.1790   26.0729 H   0  0  0  0  0  0
    2.3046   51.6176   24.4816 H   0  0  0  0  0  0
    1.2530   50.3699   23.8850 H   0  0  0  0  0  0
    1.7211   51.7579   22.0188 H   0  0  0  0  0  0
   -0.5482   51.0630   22.0161 H   0  0  0  0  0  0
   -0.5321   52.6956   21.4185 H   0  0  0  0  0  0
   -1.2837   53.5468   23.6828 H   0  0  0  0  0  0
   -2.3926   52.3836   23.0454 H   0  0  0  0  0  0
    1.1196   54.2814   22.0817 H   0  0  0  0  0  0
    1.0919   54.1985   23.7780 H   0  0  0  0  0  0
    3.4192   53.7537   21.9475 H   0  0  0  0  0  0
    2.2945   53.9781   25.4593 H   0  0  0  0  0  0
    7.1560   54.5739   24.7054 H   0  0  0  0  0  0
    6.8120   54.4958   22.3988 H   0  0  0  0  0  0
    5.2337   54.2880   21.6653 H   0  0  0  0  0  0
    6.1678   52.8981   28.3256 H   0  0  0  0  0  0
    6.5760   54.3306   29.2817 H   0  0  0  0  0  0
    2.7340   54.2858   27.8235 H   0  0  0  0  0  0
  1  2  1  0  0  0
  1 22  1  0  0  0
  1 23  1  0  0  0
  1 24  1  0  0  0
  2  7  1  0  0  0
  2  3  1  0  0  0
  2 25  1  0  0  0
  3  4  1  0  0  0
  3 26  1  0  0  0
  3 27  1  0  0  0
  4  5  1  0  0  0
  4 28  1  0  0  0
  4 29  1  0  0  0
  5  6  1  0  0  0
  5  8  1  0  0  0
  5 30  1  0  0  0
  6  7  1  0  0  0
  6 31  1  0  0  0
  6 32  1  0  0  0
  7 33  1  0  0  0
  7 34  1  0  0  0
  8  9  1  0  0  0
  8 35  1  0  0  0
  8 36  1  0  0  0
  9 10  1  0  0  0
  9 37  1  0  0  0
 10 15  2  0  0  0
 10 11  1  0  0  0
 11 12  2  0  0  0
 11 38  1  0  0  0
 12 21  1  0  0  0
 12 13  1  0  0  0
 13 14  2  0  0  0
 13 17  1  0  0  0
 14 15  1  0  0  0
 14 39  1  0  0  0
 15 16  1  0  0  0
 16 40  1  0  0  0
 16 41  1  0  0  0
 17 18  1  0  0  0
 18 19  1  0  0  0
 18 42  1  0  0  0
 18 43  1  0  0  0
 19 20  2  0  0  0
 19 21  1  0  0  0
 21 44  1  0  0  0
M  END
> <i_i_glide_confnum>
1

> <i_i_glide_lignum>
4765

> <i_i_glide_posenum>
116

> <i_i_glide_rotatable_bonds>
3

> <i_m_Source_File_Index>
1809

> <b_m_subgroup_collapsed>
0

> <r_i_docking_score>
-5.94513

> <r_i_glide_ecoul>
-3.79317

> <r_i_glide_eff_state_penalty>
0

> <r_i_glide_einternal>
1.57768

> <r_i_glide_emodel>
-47.6221

> <r_i_glide_energy>
-35.9888

> <r_i_glide_erotb>
0.652325

> <r_i_glide_esite>
0

> <r_i_glide_evdw>
-32.1956

> <r_i_glide_gscore>
-5.94513

> <r_i_glide_hbond>
-0.218914

> <r_i_glide_ligand_efficiency>
-0.283101

> <r_i_glide_ligand_efficiency_ln>
-1.46992

> <r_i_glide_ligand_efficiency_sa>
-0.781055

> <r_i_glide_lipo>
-2.30931

> <r_i_glide_metal>
0

> <r_i_glide_rewards>
-1.89047

> <s_i_glide_gridfile>
wee1_glide-grid

> <s_m_Source_File>
wee1_decoys_glide_SP.sdf

> <s_m_Source_Path>
/Users/zhangxujun/Desktop

> <s_m_entry_id>
2084

> <s_m_entry_name>
wee1_decoys_glide_SP.1809

> <s_m_subgroup_title>
wee1_decoys_glide_SP

> <s_m_subgroupid>
wee1_decoys_glide_SP


$$$$
