ZINC37560100_1674
                    3D
 Schrodinger Suite 2024-2.
 35 36  0  0  1  0            999 V2000
    1.7228   53.4920   26.0113 C   0  0  0  0  0  0
    3.1002   53.7928   25.4411 C   0  0  0  0  0  0
    3.1938   53.8231   24.0499 C   0  0  0  0  0  0
    4.3991   54.0972   23.4253 C   0  0  0  0  0  0
    5.5325   54.3751   24.1798 C   0  0  0  0  0  0
    5.4686   54.3677   25.5906 C   0  0  0  0  0  0
    4.2388   54.0599   26.2394 C   0  0  0  0  0  0
    4.1393   53.9093   28.0653 S   0  0  0  0  0  0
    5.4596   53.5444   28.5843 O   0  0  0  0  0  0
    3.4284   55.0956   28.5539 O   0  0  0  0  0  0
    3.1393   52.4978   28.4600 N   0  0  0  0  0  0
    2.0005   52.5205   29.2209 C   0  0  0  0  0  0
    0.8374   51.7598   29.0379 C   0  0  0  0  0  0
   -0.0056   52.0977   30.0815 C   0  0  0  0  0  0
    0.6937   53.0185   30.8135 N   0  0  0  0  0  0
    1.9102   53.2571   30.3078 N   0  0  0  0  0  0
    0.3029   53.6663   32.0526 C   0  0  0  0  0  0
    6.7275   54.7288   26.3871 C   0  0  0  0  0  0
    6.7039   54.6510   23.4662 N   0  0  0  0  0  0
    1.6415   52.4406   26.2856 H   0  0  0  0  0  0
    1.5097   54.1125   26.8824 H   0  0  0  0  0  0
    0.9367   53.6987   25.2847 H   0  0  0  0  0  0
    2.3263   53.6225   23.4368 H   0  0  0  0  0  0
    4.4403   54.1036   22.3449 H   0  0  0  0  0  0
    3.5539   51.6275   28.1644 H   0  0  0  0  0  0
    0.6401   51.0424   28.2546 H   0  0  0  0  0  0
   -0.9849   51.7539   30.3864 H   0  0  0  0  0  0
   -0.7806   53.6971   32.1375 H   0  0  0  0  0  0
    0.7024   53.0948   32.8907 H   0  0  0  0  0  0
    0.6867   54.6873   32.0798 H   0  0  0  0  0  0
    7.1803   53.8313   26.8110 H   0  0  0  0  0  0
    6.4850   55.4136   27.2010 H   0  0  0  0  0  0
    7.4870   55.2351   25.7926 H   0  0  0  0  0  0
    6.6754   54.6310   22.4577 H   0  0  0  0  0  0
    7.5899   54.7693   23.9424 H   0  0  0  0  0  0
  1  2  1  0  0  0
  1 20  1  0  0  0
  1 21  1  0  0  0
  1 22  1  0  0  0
  2  7  2  0  0  0
  2  3  1  0  0  0
  3  4  2  0  0  0
  3 23  1  0  0  0
  4  5  1  0  0  0
  4 24  1  0  0  0
  5  6  2  0  0  0
  5 19  1  0  0  0
  6  7  1  0  0  0
  6 18  1  0  0  0
  7  8  1  0  0  0
  8  9  2  0  0  0
  8 10  2  0  0  0
  8 11  1  0  0  0
 11 12  1  0  0  0
 11 25  1  0  0  0
 12 16  2  0  0  0
 12 13  1  0  0  0
 13 14  2  0  0  0
 13 26  1  0  0  0
 14 15  1  0  0  0
 14 27  1  0  0  0
 15 16  1  0  0  0
 15 17  1  0  0  0
 17 28  1  0  0  0
 17 29  1  0  0  0
 17 30  1  0  0  0
 18 31  1  0  0  0
 18 32  1  0  0  0
 18 33  1  0  0  0
 19 34  1  0  0  0
 19 35  1  0  0  0
M  END
> <i_i_glide_confnum>
4

> <i_i_glide_lignum>
1675

> <i_i_glide_posenum>
348

> <i_i_glide_rotatable_bonds>
3

> <i_m_Source_File_Index>
139

> <b_m_subgroup_collapsed>
0

> <r_i_docking_score>
-5.8256

> <r_i_glide_ecoul>
-3.62936

> <r_i_glide_eff_state_penalty>
0

> <r_i_glide_einternal>
5.03473

> <r_i_glide_emodel>
-50.1609

> <r_i_glide_energy>
-39.319

> <r_i_glide_erotb>
0.689305

> <r_i_glide_esite>
-0.0282109

> <r_i_glide_evdw>
-35.6896

> <r_i_glide_gscore>
-5.8256

> <r_i_glide_hbond>
-0.370393

> <r_i_glide_ligand_efficiency>
-0.306611

> <r_i_glide_ligand_efficiency_ln>
-1.47692

> <r_i_glide_ligand_efficiency_sa>
-0.818161

> <r_i_glide_lipo>
-2.11899

> <r_i_glide_metal>
0

> <r_i_glide_rewards>
-1.66843

> <s_i_glide_gridfile>
wee1_glide-grid

> <s_m_Source_File>
wee1_decoys_glide_SP.sdf

> <s_m_Source_Path>
/Users/zhangxujun/Desktop

> <s_m_entry_id>
414

> <s_m_entry_name>
wee1_decoys_glide_SP.139

> <s_m_subgroup_title>
wee1_decoys_glide_SP

> <s_m_subgroupid>
wee1_decoys_glide_SP


$$$$
