ZINC38547733_2006
                    3D
 Schrodinger Suite 2024-2.
 64 67  0  0  1  0            999 V2000
   -0.1976   49.1453   23.9551 C   0  0  0  0  0  0
   -0.3697   50.5592   23.2966 C   0  0  1  0  0  0
   -0.4894   51.5772   24.4672 C   0  0  0  0  0  0
   -0.0907   52.9525   23.9424 C   0  0  0  0  0  0
    0.8933   52.6875   22.7813 C   0  0  2  0  0  0
    0.4862   53.1962   21.9086 H   0  0  0  0  0  0
    0.8912   51.1309   22.4955 C   0  0  0  0  0  0
    0.8874   50.9015   20.9555 C   0  0  0  0  0  0
    2.1943   50.4517   22.9996 C   0  0  0  0  0  0
    2.2714   53.3397   22.9743 C   0  0  0  0  0  0
    3.1069   53.6216   21.9163 N   0  0  0  0  0  0
    2.8455   53.4830   20.9504 H   0  0  0  0  0  0
    4.2924   54.0912   22.4316 C   0  0  0  0  0  0
    5.5043   54.4969   21.8626 C   0  0  0  0  0  0
    6.5073   54.8928   22.7532 C   0  0  0  0  0  0
    6.3109   54.8946   24.1357 C   0  0  0  0  0  0
    5.0969   54.4967   24.6985 C   0  0  0  0  0  0
    4.0733   54.0876   23.8322 C   0  0  0  0  0  0
    2.8192   53.6273   24.1333 N   0  0  0  0  0  0
   -1.7059   50.6035   22.4457 C   0  0  0  0  0  0
   -2.4269   51.6040   22.4692 O   0  0  0  0  0  0
   -2.1185   49.5584   21.6930 N   0  0  0  0  0  0
   -1.3139   48.5732   21.2464 N   0  0  0  0  0  0
   -1.9311   47.6461   20.6352 C   0  0  0  0  0  0
   -1.2308   46.5633   19.9187 C   0  0  0  0  0  0
   -0.2313   46.9323   19.0082 C   0  0  0  0  0  0
    0.4217   45.9882   18.2261 C   0  0  0  0  0  0
    0.0925   44.6322   18.3247 C   0  0  0  0  0  0
   -0.8842   44.2365   19.2492 C   0  0  0  0  0  0
   -1.5379   45.1852   20.0675 C   0  0  0  0  0  0
   -2.5347   44.7053   21.0778 C   0  0  0  0  0  0
   -3.7401   44.9435   20.8479 O   0  0  0  0  0  0
   -2.0957   44.0965   22.0815 O   0  5  0  0  0  0
   -1.2064   42.8973   19.3067 O   0  0  0  0  0  0
   -2.3134   42.5412   18.4838 C   0  0  0  0  0  0
    0.6671   43.6464   17.5402 O   0  0  0  0  0  0
    1.4372   44.0223   16.4013 C   0  0  0  0  0  0
    0.5022   49.1547   24.7923 H   0  0  0  0  0  0
   -1.1384   48.7641   24.3561 H   0  0  0  0  0  0
    0.1857   48.3950   23.2665 H   0  0  0  0  0  0
    0.2299   51.3278   25.2498 H   0  0  0  0  0  0
   -1.4580   51.5617   24.9717 H   0  0  0  0  0  0
    0.3290   53.5478   24.7538 H   0  0  0  0  0  0
   -0.9847   53.4692   23.5933 H   0  0  0  0  0  0
    0.9220   49.8416   20.7055 H   0  0  0  0  0  0
    0.0152   51.3315   20.4636 H   0  0  0  0  0  0
    1.7601   51.3568   20.4855 H   0  0  0  0  0  0
    2.2004   49.3751   22.8261 H   0  0  0  0  0  0
    3.0781   50.8328   22.4850 H   0  0  0  0  0  0
    2.3075   50.6126   24.0708 H   0  0  0  0  0  0
    5.6652   54.4956   20.7942 H   0  0  0  0  0  0
    7.4669   55.2063   22.3654 H   0  0  0  0  0  0
    7.1215   55.2058   24.7777 H   0  0  0  0  0  0
    4.9530   54.4885   25.7687 H   0  0  0  0  0  0
   -3.0446   49.5713   21.2923 H   0  0  0  0  0  0
   -3.0176   47.5872   20.5812 H   0  0  0  0  0  0
    0.0384   47.9726   18.8799 H   0  0  0  0  0  0
    1.1745   46.3354   17.5344 H   0  0  0  0  0  0
   -2.5186   41.4762   18.5810 H   0  0  0  0  0  0
   -3.2226   43.0753   18.7626 H   0  0  0  0  0  0
   -2.1052   42.7418   17.4314 H   0  0  0  0  0  0
    1.7537   43.1249   15.8702 H   0  0  0  0  0  0
    0.8489   44.6250   15.7080 H   0  0  0  0  0  0
    2.3361   44.5758   16.6694 H   0  0  0  0  0  0
  1  2  1  0  0  0
  1 38  1  0  0  0
  1 39  1  0  0  0
  1 40  1  0  0  0
  2  7  1  0  0  0
  2  3  1  0  0  0
  2 20  1  0  0  0
  3  4  1  0  0  0
  3 41  1  0  0  0
  3 42  1  0  0  0
  4  5  1  0  0  0
  4 43  1  0  0  0
  4 44  1  0  0  0
  5  6  1  0  0  0
  5  7  1  0  0  0
  5 10  1  0  0  0
  7  8  1  0  0  0
  7  9  1  0  0  0
  8 45  1  0  0  0
  8 46  1  0  0  0
  8 47  1  0  0  0
  9 48  1  0  0  0
  9 49  1  0  0  0
  9 50  1  0  0  0
 10 19  2  0  0  0
 10 11  1  0  0  0
 11 12  1  0  0  0
 11 13  1  0  0  0
 13 18  2  0  0  0
 13 14  1  0  0  0
 14 15  2  0  0  0
 14 51  1  0  0  0
 15 16  1  0  0  0
 15 52  1  0  0  0
 16 17  2  0  0  0
 16 53  1  0  0  0
 17 18  1  0  0  0
 17 54  1  0  0  0
 18 19  1  0  0  0
 20 21  2  0  0  0
 20 22  1  0  0  0
 22 23  1  0  0  0
 22 55  1  0  0  0
 23 24  2  0  0  0
 24 25  1  0  0  0
 24 56  1  0  0  0
 25 30  2  0  0  0
 25 26  1  0  0  0
 26 27  2  0  0  0
 26 57  1  0  0  0
 27 28  1  0  0  0
 27 58  1  0  0  0
 28 29  2  0  0  0
 28 36  1  0  0  0
 29 30  1  0  0  0
 29 34  1  0  0  0
 30 31  1  0  0  0
 31 32  2  0  0  0
 31 33  1  0  0  0
 34 35  1  0  0  0
 35 59  1  0  0  0
 35 60  1  0  0  0
 35 61  1  0  0  0
 36 37  1  0  0  0
 37 62  1  0  0  0
 37 63  1  0  0  0
 37 64  1  0  0  0
M  CHG  1  33  -1
M  END
> <i_i_glide_confnum>
21

> <i_i_glide_lignum>
2007

> <i_i_glide_posenum>
341

> <i_i_glide_rotatable_bonds>
8

> <i_m_Source_File_Index>
1759

> <b_m_subgroup_collapsed>
0

> <r_i_docking_score>
-4.98224

> <r_i_glide_ecoul>
-8.41151

> <r_i_glide_eff_state_penalty>
0

> <r_i_glide_einternal>
5.88811

> <r_i_glide_emodel>
-55.8568

> <r_i_glide_energy>
-41.2826

> <r_i_glide_erotb>
0.444178

> <r_i_glide_esite>
-0.0264188

> <r_i_glide_evdw>
-32.8711

> <r_i_glide_gscore>
-4.98224

> <r_i_glide_hbond>
-0.239999

> <r_i_glide_ligand_efficiency>
-0.14235

> <r_i_glide_ligand_efficiency_ln>
-1.09371

> <r_i_glide_ligand_efficiency_sa>
-0.465635

> <r_i_glide_lipo>
-1.81297

> <r_i_glide_metal>
0

> <r_i_glide_rewards>
-0.441742

> <s_i_glide_gridfile>
wee1_glide-grid

> <s_m_Source_File>
wee1_decoys_glide_SP.sdf

> <s_m_Source_Path>
/Users/zhangxujun/Desktop

> <s_m_entry_id>
2034

> <s_m_entry_name>
wee1_decoys_glide_SP.1759

> <s_m_subgroup_title>
wee1_decoys_glide_SP

> <s_m_subgroupid>
wee1_decoys_glide_SP


$$$$
