ZINC20193392_5097
                    3D
 Schrodinger Suite 2024-2.
 68 71  0  0  1  0            999 V2000
    1.6552   48.1034   20.1075 C   0  0  0  0  0  0
    1.3712   49.1025   19.0066 C   0  0  0  0  0  0
    1.0849   48.7148   17.6901 C   0  0  0  0  0  0
    0.6710   50.0823   16.7137 S   0  0  0  0  0  0
    0.8681   51.1532   18.0569 C   0  0  0  0  0  0
    1.2984   50.5008   19.2214 C   0  0  0  0  0  0
    1.6672   51.1677   20.5614 C   0  0  2  0  0  0
    2.3443   50.4961   21.0957 H   0  0  0  0  0  0
    0.4778   51.4135   21.5060 C   0  0  0  0  0  0
   -0.8033   51.6966   21.0202 C   0  0  0  0  0  0
   -1.8630   51.8961   21.9019 C   0  0  0  0  0  0
   -1.6617   51.8370   23.2793 C   0  0  0  0  0  0
   -0.3830   51.5406   23.7719 C   0  0  0  0  0  0
    0.6706   51.3185   22.8898 C   0  0  0  0  0  0
   -2.7661   52.0729   24.0739 O   0  0  0  0  0  0
   -2.6339   51.9847   25.4917 C   0  0  0  0  0  0
    2.6182   52.3876   20.3343 N   0  3  0  0  0  0
    3.1186   53.0044   21.6618 C   0  0  0  0  0  0
    4.0658   54.1818   21.3700 C   0  0  0  0  0  0
    5.2078   53.8152   20.5295 N   0  0  0  0  0  0
    4.7822   53.2162   19.2568 C   0  0  0  0  0  0
    3.8629   51.9978   19.4893 C   0  0  0  0  0  0
    6.1524   54.9401   20.3816 C   0  0  0  0  0  0
    5.7998   56.0092   19.3201 C   0  0  0  0  0  0
    6.5686   57.1757   19.5490 O   0  0  0  0  0  0
    0.6861   52.5075   17.8381 N   0  0  0  0  0  0
   -0.5009   53.0612   17.5014 C   0  0  0  0  0  0
   -1.5606   52.4292   17.4686 O   0  0  0  0  0  0
   -0.4866   54.5481   17.2224 C   0  0  0  0  0  0
   -1.6855   55.2782   17.2819 C   0  0  0  0  0  0
   -1.6922   56.6489   17.0341 C   0  0  0  0  0  0
   -0.5038   57.2966   16.7137 C   0  0  0  0  0  0
    0.6927   56.5878   16.6272 C   0  0  0  0  0  0
    0.6994   55.2186   16.8806 C   0  0  0  0  0  0
    1.0834   47.3287   17.0838 C   0  0  0  0  0  0
    1.0931   48.3631   21.0041 H   0  0  0  0  0  0
    1.3641   47.0849   19.8527 H   0  0  0  0  0  0
    2.7052   48.1033   20.3949 H   0  0  0  0  0  0
   -0.9970   51.7437   19.9608 H   0  0  0  0  0  0
   -2.8529   52.0962   21.5208 H   0  0  0  0  0  0
   -0.1934   51.4684   24.8307 H   0  0  0  0  0  0
    1.6428   51.0738   23.2947 H   0  0  0  0  0  0
   -3.6024   52.1727   25.9544 H   0  0  0  0  0  0
   -2.2999   50.9910   25.8008 H   0  0  0  0  0  0
   -1.9323   52.7285   25.8751 H   0  0  0  0  0  0
    2.2285   53.3874   22.1645 H   0  0  0  0  0  0
    3.5851   52.2209   22.2558 H   0  0  0  0  0  0
    3.5036   54.8967   20.7888 H   0  0  0  0  0  0
    4.3894   54.6403   22.3053 H   0  0  0  0  0  0
    5.6429   52.9002   18.6655 H   0  0  0  0  0  0
    4.2100   53.9559   18.6941 H   0  0  0  0  0  0
    4.3683   51.1921   20.0234 H   0  0  0  0  0  0
    3.5030   51.6406   18.5189 H   0  0  0  0  0  0
    6.3199   55.4007   21.3577 H   0  0  0  0  0  0
    7.1019   54.4963   20.0820 H   0  0  0  0  0  0
    6.0496   55.6345   18.3245 H   0  0  0  0  0  0
    4.7380   56.2478   19.2814 H   0  0  0  0  0  0
    6.3818   57.8118   18.8510 H   0  0  0  0  0  0
    1.4489   53.1339   18.0486 H   0  0  0  0  0  0
   -2.6183   54.7854   17.5203 H   0  0  0  0  0  0
   -2.6152   57.2082   17.0831 H   0  0  0  0  0  0
   -0.5020   58.3615   16.5250 H   0  0  0  0  0  0
    1.6064   57.1008   16.3712 H   0  0  0  0  0  0
    1.6410   54.6923   16.7997 H   0  0  0  0  0  0
    2.0046   46.7944   17.3223 H   0  0  0  0  0  0
    0.2495   46.7305   17.4537 H   0  0  0  0  0  0
    1.0062   47.3511   15.9956 H   0  0  0  0  0  0
    2.1027   53.1135   19.8545 H   0  0  0  0  0  0
  1  2  1  0  0  0
  1 36  1  0  0  0
  1 37  1  0  0  0
  1 38  1  0  0  0
  2  6  1  0  0  0
  2  3  2  0  0  0
  3  4  1  0  0  0
  3 35  1  0  0  0
  4  5  1  0  0  0
  5  6  2  0  0  0
  5 26  1  0  0  0
  6  7  1  0  0  0
  7  8  1  0  0  0
  7  9  1  0  0  0
  7 17  1  0  0  0
  9 14  2  0  0  0
  9 10  1  0  0  0
 10 11  2  0  0  0
 10 39  1  0  0  0
 11 12  1  0  0  0
 11 40  1  0  0  0
 12 13  2  0  0  0
 12 15  1  0  0  0
 13 14  1  0  0  0
 13 41  1  0  0  0
 14 42  1  0  0  0
 15 16  1  0  0  0
 16 43  1  0  0  0
 16 44  1  0  0  0
 16 45  1  0  0  0
 17 22  1  0  0  0
 17 18  1  0  0  0
 17 68  1  0  0  0
 18 19  1  0  0  0
 18 46  1  0  0  0
 18 47  1  0  0  0
 19 20  1  0  0  0
 19 48  1  0  0  0
 19 49  1  0  0  0
 20 21  1  0  0  0
 20 23  1  0  0  0
 21 22  1  0  0  0
 21 50  1  0  0  0
 21 51  1  0  0  0
 22 52  1  0  0  0
 22 53  1  0  0  0
 23 24  1  0  0  0
 23 54  1  0  0  0
 23 55  1  0  0  0
 24 25  1  0  0  0
 24 56  1  0  0  0
 24 57  1  0  0  0
 25 58  1  0  0  0
 26 27  1  0  0  0
 26 59  1  0  0  0
 27 28  2  0  0  0
 27 29  1  0  0  0
 29 34  2  0  0  0
 29 30  1  0  0  0
 30 31  2  0  0  0
 30 60  1  0  0  0
 31 32  1  0  0  0
 31 61  1  0  0  0
 32 33  2  0  0  0
 32 62  1  0  0  0
 33 34  1  0  0  0
 33 63  1  0  0  0
 34 64  1  0  0  0
 35 65  1  0  0  0
 35 66  1  0  0  0
 35 67  1  0  0  0
M  CHG  1  17   1
M  END
> <i_i_glide_confnum>
62

> <i_i_glide_lignum>
5098

> <i_i_glide_posenum>
386

> <i_i_glide_rotatable_bonds>
10

> <i_m_Source_File_Index>
325

> <b_m_subgroup_collapsed>
0

> <r_i_docking_score>
-2.6088

> <r_i_glide_ecoul>
-6.10754

> <r_i_glide_eff_state_penalty>
0

> <r_i_glide_einternal>
11.9073

> <r_i_glide_emodel>
-39.453

> <r_i_glide_energy>
-38.3036

> <r_i_glide_erotb>
0.702302

> <r_i_glide_esite>
-0.0425207

> <r_i_glide_evdw>
-32.196

> <r_i_glide_gscore>
-2.6088

> <r_i_glide_hbond>
-0.0983391

> <r_i_glide_ligand_efficiency>
-0.0767293

> <r_i_glide_ligand_efficiency_ln>
-0.576357

> <r_i_glide_ligand_efficiency_sa>
-0.248573

> <r_i_glide_lipo>
-0.513106

> <r_i_glide_metal>
0

> <r_i_glide_rewards>
-0.131201

> <s_i_glide_gridfile>
wee1_glide-grid

> <s_m_Source_File>
wee1_decoys_glide_SP.sdf

> <s_m_Source_Path>
/Users/zhangxujun/Desktop

> <s_m_entry_id>
600

> <s_m_entry_name>
wee1_decoys_glide_SP.325

> <s_m_subgroup_title>
wee1_decoys_glide_SP

> <s_m_subgroupid>
wee1_decoys_glide_SP


$$$$
