ZINC33249943_1438
                    3D
 Schrodinger Suite 2024-2.
 60 63  0  0  1  0            999 V2000
    5.4466   52.8204   21.6969 C   0  0  0  0  0  0
    4.3249   53.8438   21.9207 C   0  0  0  0  0  0
    3.6316   53.7047   23.2200 N   0  0  0  0  0  0
    4.3626   54.0958   24.3358 C   0  0  0  0  0  0
    5.4833   54.6077   24.2741 O   0  0  0  0  0  0
    3.7027   53.7435   25.5714 C   0  0  0  0  0  0
    4.0938   53.6970   26.9085 C   0  0  0  0  0  0
    2.9634   53.3092   27.6571 C   0  0  0  0  0  0
    1.9238   53.3178   26.8650 N   0  0  0  0  0  0
    2.3538   53.5649   25.6387 N   0  0  0  0  0  0
    1.4735   53.7469   24.5174 C   0  0  0  0  0  0
    2.1988   53.1841   23.2542 C   0  0  1  0  0  0
    1.3302   53.6498   22.0819 C   0  0  0  0  0  0
    2.0981   51.6236   23.0677 C   0  0  0  0  0  0
    2.7007   51.0759   22.1412 O   0  0  0  0  0  0
    1.2747   50.9190   23.8697 N   0  0  0  0  0  0
    0.9040   49.5148   23.6570 C   0  0  0  0  0  0
    0.4755   48.8152   24.9666 C   0  0  0  0  0  0
   -0.9704   48.3356   24.7792 C   0  0  0  0  0  0
   -1.1611   48.2432   23.2680 C   0  0  0  0  0  0
   -0.3230   49.4030   22.7277 C   0  0  0  0  0  0
    2.9366   53.0405   29.0847 C   0  0  0  0  0  0
    3.9040   53.3335   29.7847 O   0  0  0  0  0  0
    1.8639   52.4563   29.6712 N   0  0  0  0  0  0
    0.5271   52.0298   29.2120 C   0  0  0  0  0  0
   -0.3934   53.1705   28.7677 C   0  0  0  0  0  0
   -1.2956   52.5506   27.6818 C   0  0  0  0  0  0
   -0.4991   51.4534   27.0200 C   0  0  0  0  0  0
    0.4522   50.9546   28.1033 C   0  0  0  0  0  0
    5.8994   53.0126   20.7246 H   0  0  0  0  0  0
    6.2148   52.8834   22.4722 H   0  0  0  0  0  0
    5.0729   51.7979   21.6752 H   0  0  0  0  0  0
    3.6363   53.7610   21.0848 H   0  0  0  0  0  0
    4.7313   54.8535   21.8344 H   0  0  0  0  0  0
    5.0944   53.8512   27.2884 H   0  0  0  0  0  0
    0.4968   53.3031   24.6997 H   0  0  0  0  0  0
    1.3088   54.8193   24.4060 H   0  0  0  0  0  0
    0.3047   53.2967   22.1860 H   0  0  0  0  0  0
    1.3192   54.7339   22.0818 H   0  0  0  0  0  0
    1.6612   53.2965   21.1033 H   0  0  0  0  0  0
    0.7772   51.3993   24.6011 H   0  0  0  0  0  0
    1.6946   48.9059   23.2101 H   0  0  0  0  0  0
    1.1036   47.9524   25.1691 H   0  0  0  0  0  0
    0.5785   49.4393   25.8456 H   0  0  0  0  0  0
   -1.1575   47.3874   25.2863 H   0  0  0  0  0  0
   -1.6711   49.0611   25.1921 H   0  0  0  0  0  0
   -0.7882   47.2905   22.8935 H   0  0  0  0  0  0
   -2.2106   48.3193   22.9792 H   0  0  0  0  0  0
   -0.9256   50.3123   22.7784 H   0  0  0  0  0  0
   -0.0395   49.2860   21.6805 H   0  0  0  0  0  0
    1.9848   52.3429   30.6658 H   0  0  0  0  0  0
    0.0043   51.5812   30.0607 H   0  0  0  0  0  0
    0.1441   54.0222   28.3588 H   0  0  0  0  0  0
   -0.8952   53.5894   29.6369 H   0  0  0  0  0  0
   -1.6523   53.2792   26.9507 H   0  0  0  0  0  0
   -2.1720   52.0967   28.1491 H   0  0  0  0  0  0
    0.0344   51.8080   26.1496 H   0  0  0  0  0  0
   -1.1692   50.6674   26.6724 H   0  0  0  0  0  0
   -0.0956   50.0971   28.4755 H   0  0  0  0  0  0
    1.4196   50.6382   27.7106 H   0  0  0  0  0  0
  1  2  1  0  0  0
  1 30  1  0  0  0
  1 31  1  0  0  0
  1 32  1  0  0  0
  2  3  1  0  0  0
  2 33  1  0  0  0
  2 34  1  0  0  0
  3 12  1  0  0  0
  3  4  1  0  0  0
  4  5  2  0  0  0
  4  6  1  0  0  0
  6 10  1  0  0  0
  6  7  2  0  0  0
  7  8  1  0  0  0
  7 35  1  0  0  0
  8  9  2  0  0  0
  8 22  1  0  0  0
  9 10  1  0  0  0
 10 11  1  0  0  0
 11 12  1  0  0  0
 11 36  1  0  0  0
 11 37  1  0  0  0
 12 13  1  0  0  0
 12 14  1  0  0  0
 13 38  1  0  0  0
 13 39  1  0  0  0
 13 40  1  0  0  0
 14 15  2  0  0  0
 14 16  1  0  0  0
 16 17  1  0  0  0
 16 41  1  0  0  0
 17 21  1  0  0  0
 17 18  1  0  0  0
 17 42  1  0  0  0
 18 19  1  0  0  0
 18 43  1  0  0  0
 18 44  1  0  0  0
 19 20  1  0  0  0
 19 45  1  0  0  0
 19 46  1  0  0  0
 20 21  1  0  0  0
 20 47  1  0  0  0
 20 48  1  0  0  0
 21 49  1  0  0  0
 21 50  1  0  0  0
 22 23  2  0  0  0
 22 24  1  0  0  0
 24 25  1  0  0  0
 24 51  1  0  0  0
 25 29  1  0  0  0
 25 26  1  0  0  0
 25 52  1  0  0  0
 26 27  1  0  0  0
 26 53  1  0  0  0
 26 54  1  0  0  0
 27 28  1  0  0  0
 27 55  1  0  0  0
 27 56  1  0  0  0
 28 29  1  0  0  0
 28 57  1  0  0  0
 28 58  1  0  0  0
 29 59  1  0  0  0
 29 60  1  0  0  0
M  END
> <i_i_glide_confnum>
873

> <i_i_glide_lignum>
1439

> <i_i_glide_posenum>
139

> <i_i_glide_rotatable_bonds>
7

> <i_m_Source_File_Index>
2553

> <b_m_subgroup_collapsed>
0

> <r_i_docking_score>
-2.71034

> <r_i_glide_ecoul>
-2.5467

> <r_i_glide_eff_state_penalty>
0

> <r_i_glide_einternal>
5.9048

> <r_i_glide_emodel>
-23.0419

> <r_i_glide_energy>
-26.4382

> <r_i_glide_erotb>
0.730056

> <r_i_glide_esite>
0

> <r_i_glide_evdw>
-23.8915

> <r_i_glide_gscore>
-2.71034

> <r_i_glide_hbond>
0

> <r_i_glide_ligand_efficiency>
-0.0934599

> <r_i_glide_ligand_efficiency_ln>
-0.620598

> <r_i_glide_ligand_efficiency_sa>
-0.287138

> <r_i_glide_lipo>
-1.46132

> <r_i_glide_metal>
0

> <r_i_glide_rewards>
-0.402496

> <s_i_glide_gridfile>
wee1_glide-grid

> <s_m_Source_File>
wee1_decoys_glide_SP.sdf

> <s_m_Source_Path>
/Users/zhangxujun/Desktop

> <s_m_entry_id>
2828

> <s_m_entry_name>
wee1_decoys_glide_SP.2553

> <s_m_subgroup_title>
wee1_decoys_glide_SP

> <s_m_subgroupid>
wee1_decoys_glide_SP


$$$$
