ZINC50309726_4746
                    3D
 Schrodinger Suite 2024-2.
 43 44  0  0  1  0            999 V2000
    0.4095   52.7577   31.8695 C   0  0  0  0  0  0
    0.7482   53.0001   30.4232 C   0  0  0  0  0  0
    1.4753   54.1337   30.0991 C   0  0  0  0  0  0
    1.8966   54.3686   28.8027 C   0  0  0  0  0  0
    1.5445   53.4586   27.7791 C   0  0  0  0  0  0
    0.7383   52.3426   28.0939 C   0  0  0  0  0  0
    0.3625   52.1126   29.4201 C   0  0  0  0  0  0
    0.2611   51.3608   27.0291 C   0  0  0  0  0  0
    1.9124   53.6513   26.4376 N   0  0  0  0  0  0
    3.1644   53.8161   25.9588 C   0  0  0  0  0  0
    4.1759   53.8133   26.6628 O   0  0  0  0  0  0
    3.2479   53.9740   24.5140 C   0  0  0  0  0  0
    4.4533   54.0962   23.7666 C   0  0  0  0  0  0
    4.0598   54.1393   22.4288 C   0  0  0  0  0  0
    2.6956   54.0969   22.4810 N   0  0  0  0  0  0
    2.1008   54.1481   21.6598 H   0  0  0  0  0  0
    2.1989   54.0129   23.7113 N   0  0  0  0  0  0
    4.7928   54.1890   21.0936 C   0  0  0  0  0  0
    6.1205   54.9680   21.1538 C   0  0  0  0  0  0
    4.9849   52.7666   20.5360 C   0  0  0  0  0  0
    5.7364   54.1246   24.2406 N   0  0  0  0  0  0
    2.6690   55.6532   28.5847 C   0  0  0  0  0  0
    0.3045   51.6963   32.0792 H   0  0  0  0  0  0
    1.1990   53.1031   32.5297 H   0  0  0  0  0  0
   -0.4963   53.2974   32.1315 H   0  0  0  0  0  0
    1.7068   54.8497   30.8687 H   0  0  0  0  0  0
   -0.2363   51.2502   29.6749 H   0  0  0  0  0  0
   -0.2716   50.5055   27.4561 H   0  0  0  0  0  0
   -0.4000   51.8634   26.3222 H   0  0  0  0  0  0
    1.1037   50.9683   26.4646 H   0  0  0  0  0  0
    1.1736   53.5727   25.7573 H   0  0  0  0  0  0
    4.1655   54.7243   20.3753 H   0  0  0  0  0  0
    5.9643   55.9893   21.5012 H   0  0  0  0  0  0
    6.5854   55.0297   20.1689 H   0  0  0  0  0  0
    6.8434   54.4969   21.8185 H   0  0  0  0  0  0
    4.0247   52.2951   20.3196 H   0  0  0  0  0  0
    5.5581   52.7676   19.6086 H   0  0  0  0  0  0
    5.5048   52.1255   21.2489 H   0  0  0  0  0  0
    5.9077   54.0210   25.2323 H   0  0  0  0  0  0
    6.5386   54.1984   23.6330 H   0  0  0  0  0  0
    2.5101   56.3850   29.3782 H   0  0  0  0  0  0
    3.7356   55.4588   28.5012 H   0  0  0  0  0  0
    2.3042   56.1142   27.6817 H   0  0  0  0  0  0
  1  2  1  0  0  0
  1 23  1  0  0  0
  1 24  1  0  0  0
  1 25  1  0  0  0
  2  7  2  0  0  0
  2  3  1  0  0  0
  3  4  2  0  0  0
  3 26  1  0  0  0
  4  5  1  0  0  0
  4 22  1  0  0  0
  5  6  2  0  0  0
  5  9  1  0  0  0
  6  7  1  0  0  0
  6  8  1  0  0  0
  7 27  1  0  0  0
  8 28  1  0  0  0
  8 29  1  0  0  0
  8 30  1  0  0  0
  9 10  1  0  0  0
  9 31  1  0  0  0
 10 11  2  0  0  0
 10 12  1  0  0  0
 12 17  2  0  0  0
 12 13  1  0  0  0
 13 14  2  0  0  0
 13 21  1  0  0  0
 14 15  1  0  0  0
 14 18  1  0  0  0
 15 16  1  0  0  0
 15 17  1  0  0  0
 18 19  1  0  0  0
 18 20  1  0  0  0
 18 32  1  0  0  0
 19 33  1  0  0  0
 19 34  1  0  0  0
 19 35  1  0  0  0
 20 36  1  0  0  0
 20 37  1  0  0  0
 20 38  1  0  0  0
 21 39  1  0  0  0
 21 40  1  0  0  0
 22 41  1  0  0  0
 22 42  1  0  0  0
 22 43  1  0  0  0
M  END
> <i_i_glide_confnum>
1

> <i_i_glide_lignum>
4747

> <i_i_glide_posenum>
220

> <i_i_glide_rotatable_bonds>
4

> <i_m_Source_File_Index>
1065

> <b_m_subgroup_collapsed>
0

> <r_i_docking_score>
-5.3208

> <r_i_glide_ecoul>
-2.48241

> <r_i_glide_eff_state_penalty>
0

> <r_i_glide_einternal>
1.60339

> <r_i_glide_emodel>
-46.482

> <r_i_glide_energy>
-35.3237

> <r_i_glide_erotb>
0.66428

> <r_i_glide_esite>
0

> <r_i_glide_evdw>
-32.8413

> <r_i_glide_gscore>
-5.3208

> <r_i_glide_hbond>
-0.306422

> <r_i_glide_ligand_efficiency>
-0.253371

> <r_i_glide_ligand_efficiency_ln>
-1.31556

> <r_i_glide_ligand_efficiency_sa>
-0.699033

> <r_i_glide_lipo>
-1.92337

> <r_i_glide_metal>
0

> <r_i_glide_rewards>
-1.74086

> <s_i_glide_gridfile>
wee1_glide-grid

> <s_m_Source_File>
wee1_decoys_glide_SP.sdf

> <s_m_Source_Path>
/Users/zhangxujun/Desktop

> <s_m_entry_id>
1340

> <s_m_entry_name>
wee1_decoys_glide_SP.1065

> <s_m_subgroup_title>
wee1_decoys_glide_SP

> <s_m_subgroupid>
wee1_decoys_glide_SP


$$$$
