ZINC02250282_5974
                    3D
 Schrodinger Suite 2024-2.
 57 61  0  0  1  0            999 V2000
   -0.2861   45.8197   19.3149 C   0  0  0  0  0  0
   -0.6994   46.2599   18.0270 O   0  0  0  0  0  0
    0.2228   46.0570   17.0286 C   0  0  0  0  0  0
   -0.0378   45.0273   16.1231 C   0  0  0  0  0  0
    0.8582   44.7441   15.0987 C   0  0  0  0  0  0
    2.0256   45.4927   14.9774 C   0  0  0  0  0  0
    2.2999   46.5261   15.8753 C   0  0  0  0  0  0
    1.3937   46.8364   16.8945 C   0  0  0  0  0  0
    1.6836   48.0060   17.7517 C   0  0  0  0  0  0
    0.7300   48.8614   18.1810 C   0  0  0  0  0  0
    0.8891   49.9456   19.1195 C   0  0  0  0  0  0
   -0.1247   50.4326   19.6263 O   0  0  0  0  0  0
    2.1531   50.3251   19.4472 N   0  0  0  0  0  0
    2.4595   51.1942   20.4933 C   0  0  0  0  0  0
    1.7048   51.3187   21.5875 N   0  0  0  0  0  0
    2.3631   52.1737   22.3137 C   0  0  0  0  0  0
    3.4993   52.5674   21.6498 N   0  0  0  0  0  0
    3.5799   51.8944   20.4891 N   0  0  0  0  0  0
    4.4977   53.4727   22.2598 C   0  0  2  0  0  0
    5.2162   52.8495   22.7946 H   0  0  0  0  0  0
    3.7445   54.3194   23.3418 C   0  0  0  0  0  0
    2.7623   53.4678   24.1964 C   0  0  0  0  0  0
    2.0711   52.5774   23.5826 N   0  0  0  0  0  0
    2.5969   53.6983   25.6566 C   0  0  0  0  0  0
    1.5211   53.0992   26.3316 C   0  0  0  0  0  0
    1.3291   53.2943   27.6942 C   0  0  0  0  0  0
    2.2183   54.0932   28.4040 C   0  0  0  0  0  0
    3.3090   54.6747   27.7679 C   0  0  0  0  0  0
    3.5030   54.4778   26.4017 C   0  0  0  0  0  0
    1.9641   54.3717   30.0830 Cl  0  0  0  0  0  0
    5.3253   54.3737   21.3328 C   0  0  0  0  0  0
    4.9099   54.6993   20.0329 C   0  0  0  0  0  0
    5.6997   55.5234   19.2355 C   0  0  0  0  0  0
    6.9023   56.0200   19.7294 C   0  0  0  0  0  0
    7.3236   55.7083   21.0199 C   0  0  0  0  0  0
    6.5246   54.9074   21.8259 C   0  0  0  0  0  0
    7.6653   56.8250   18.9586 F   0  0  0  0  0  0
   -0.0481   44.7548   19.3119 H   0  0  0  0  0  0
    0.5849   46.3671   19.6792 H   0  0  0  0  0  0
   -1.0925   45.9795   20.0280 H   0  0  0  0  0  0
   -0.9427   44.4455   16.2237 H   0  0  0  0  0  0
    0.6471   43.9477   14.3979 H   0  0  0  0  0  0
    2.7052   45.2786   14.1710 H   0  0  0  0  0  0
    3.2002   47.1150   15.7474 H   0  0  0  0  0  0
    2.7142   48.1201   18.0528 H   0  0  0  0  0  0
   -0.2884   48.7270   17.8491 H   0  0  0  0  0  0
    2.9134   50.0641   18.8324 H   0  0  0  0  0  0
    4.4704   54.8610   23.9388 H   0  0  0  0  0  0
    3.1623   55.0786   22.8206 H   0  0  0  0  0  0
    0.8096   52.4763   25.8066 H   0  0  0  0  0  0
    0.4884   52.8369   28.1920 H   0  0  0  0  0  0
    3.9962   55.2962   28.3247 H   0  0  0  0  0  0
    4.3682   54.9501   25.9663 H   0  0  0  0  0  0
    3.9701   54.3354   19.6424 H   0  0  0  0  0  0
    5.3774   55.7820   18.2368 H   0  0  0  0  0  0
    8.2632   56.0917   21.3945 H   0  0  0  0  0  0
    6.8566   54.6758   22.8277 H   0  0  0  0  0  0
  1  2  1  0  0  0
  1 38  1  0  0  0
  1 39  1  0  0  0
  1 40  1  0  0  0
  2  3  1  0  0  0
  3  8  2  0  0  0
  3  4  1  0  0  0
  4  5  2  0  0  0
  4 41  1  0  0  0
  5  6  1  0  0  0
  5 42  1  0  0  0
  6  7  2  0  0  0
  6 43  1  0  0  0
  7  8  1  0  0  0
  7 44  1  0  0  0
  8  9  1  0  0  0
  9 10  2  0  0  0
  9 45  1  0  0  0
 10 11  1  0  0  0
 10 46  1  0  0  0
 11 12  2  0  0  0
 11 13  1  0  0  0
 13 14  1  0  0  0
 13 47  1  0  0  0
 14 18  2  0  0  0
 14 15  1  0  0  0
 15 16  2  0  0  0
 16 17  1  0  0  0
 16 23  1  0  0  0
 17 18  1  0  0  0
 17 19  1  0  0  0
 19 20  1  0  0  0
 19 31  1  0  0  0
 19 21  1  0  0  0
 21 22  1  0  0  0
 21 48  1  0  0  0
 21 49  1  0  0  0
 22 23  2  0  0  0
 22 24  1  0  0  0
 24 29  2  0  0  0
 24 25  1  0  0  0
 25 26  2  0  0  0
 25 50  1  0  0  0
 26 27  1  0  0  0
 26 51  1  0  0  0
 27 28  2  0  0  0
 27 30  1  0  0  0
 28 29  1  0  0  0
 28 52  1  0  0  0
 29 53  1  0  0  0
 31 36  2  0  0  0
 31 32  1  0  0  0
 32 33  2  0  0  0
 32 54  1  0  0  0
 33 34  1  0  0  0
 33 55  1  0  0  0
 34 35  2  0  0  0
 34 37  1  0  0  0
 35 36  1  0  0  0
 35 56  1  0  0  0
 36 57  1  0  0  0
M  END
> <i_i_glide_confnum>
111

> <i_i_glide_lignum>
5975

> <i_i_glide_posenum>
342

> <i_i_glide_rotatable_bonds>
7

> <i_m_Source_File_Index>
4783

> <b_m_subgroup_collapsed>
0

> <r_i_docking_score>
-4.95826

> <r_i_glide_ecoul>
-3.112

> <r_i_glide_eff_state_penalty>
0

> <r_i_glide_einternal>
13.5402

> <r_i_glide_emodel>
-53.8793

> <r_i_glide_energy>
-43.3723

> <r_i_glide_erotb>
0.486535

> <r_i_glide_esite>
-0.107622

> <r_i_glide_evdw>
-40.2603

> <r_i_glide_gscore>
-4.95826

> <r_i_glide_hbond>
0

> <r_i_glide_ligand_efficiency>
-0.13773

> <r_i_glide_ligand_efficiency_ln>
-1.08176

> <r_i_glide_ligand_efficiency_sa>
-0.454773

> <r_i_glide_lipo>
-2.35576

> <r_i_glide_metal>
0

> <r_i_glide_rewards>
-0.501605

> <s_i_glide_gridfile>
wee1_glide-grid

> <s_m_Source_File>
wee1_decoys_glide_SP.sdf

> <s_m_Source_Path>
/Users/zhangxujun/Desktop

> <s_m_entry_id>
5058

> <s_m_entry_name>
wee1_decoys_glide_SP.4783

> <s_m_subgroup_title>
wee1_decoys_glide_SP

> <s_m_subgroupid>
wee1_decoys_glide_SP


$$$$
