ZINC47633599_1750
                    3D
 Schrodinger Suite 2024-2.
 44 45  0  0  1  0            999 V2000
   -1.1548   51.9085   23.3789 C   0  0  0  0  0  0
   -1.1527   51.3584   24.8160 C   0  0  2  0  0  0
   -1.1538   50.2669   24.7746 H   0  0  0  0  0  0
   -2.4082   51.8016   25.5919 C   0  0  0  0  0  0
   -2.4469   51.1379   26.9776 C   0  0  0  0  0  0
   -1.1948   51.4850   27.8107 C   0  0  0  0  0  0
    0.1502   51.2997   27.0548 C   0  0  1  0  0  0
    0.2330   50.2130   26.9673 H   0  0  0  0  0  0
    0.1075   51.8066   25.5879 C   0  0  0  0  0  0
    1.3586   51.6852   27.7897 N   0  0  0  0  0  0
    1.6601   52.9321   28.1849 C   0  0  0  0  0  0
    0.8355   53.8282   28.3721 O   0  0  0  0  0  0
    2.9853   53.1123   28.2791 N   0  0  0  0  0  0
    3.6501   54.4085   28.1159 C   0  0  2  0  0  0
    4.0079   54.6699   26.6289 C   0  0  0  0  0  0
    5.1658   53.8267   26.0836 C   0  0  0  0  0  0
    6.4176   53.8198   26.9817 C   0  0  2  0  0  0
    6.0694   53.5540   28.4546 C   0  0  0  0  0  0
    4.9368   54.4653   28.9681 C   0  0  0  0  0  0
    7.1024   55.0465   26.8819 O   0  0  0  0  0  0
   -1.1637   52.9990   23.3694 H   0  0  0  0  0  0
   -2.0297   51.5644   22.8245 H   0  0  0  0  0  0
   -0.2717   51.5809   22.8292 H   0  0  0  0  0  0
   -2.4474   52.8890   25.6688 H   0  0  0  0  0  0
   -3.3027   51.5296   25.0296 H   0  0  0  0  0  0
   -2.5135   50.0543   26.8662 H   0  0  0  0  0  0
   -3.3455   51.4413   27.5163 H   0  0  0  0  0  0
   -1.1994   50.8969   28.7304 H   0  0  0  0  0  0
   -1.2956   52.5257   28.1014 H   0  0  0  0  0  0
    1.0011   51.4952   25.0440 H   0  0  0  0  0  0
    0.1349   52.8968   25.5893 H   0  0  0  0  0  0
    2.1443   51.0722   27.6423 H   0  0  0  0  0  0
    3.5813   52.3030   28.2010 H   0  0  0  0  0  0
    2.9823   55.2018   28.4640 H   0  0  0  0  0  0
    3.1248   54.5351   26.0019 H   0  0  0  0  0  0
    4.2976   55.6967   26.4821 H   0  0  0  0  0  0
    5.4065   54.1045   25.0572 H   0  0  0  0  0  0
    4.7556   52.8311   26.0818 H   0  0  0  0  0  0
    7.1035   53.0443   26.6398 H   0  0  0  0  0  0
    6.9548   53.6569   29.0831 H   0  0  0  0  0  0
    5.7052   52.5288   28.5371 H   0  0  0  0  0  0
    5.3197   55.4801   29.0264 H   0  0  0  0  0  0
    4.6937   54.2059   29.9992 H   0  0  0  0  0  0
    7.2826   55.3463   27.7829 H   0  0  0  0  0  0
  1  2  1  0  0  0
  1 21  1  0  0  0
  1 22  1  0  0  0
  1 23  1  0  0  0
  2  3  1  0  0  0
  2  9  1  0  0  0
  2  4  1  0  0  0
  4  5  1  0  0  0
  4 24  1  0  0  0
  4 25  1  0  0  0
  5  6  1  0  0  0
  5 26  1  0  0  0
  5 27  1  0  0  0
  6  7  1  0  0  0
  6 28  1  0  0  0
  6 29  1  0  0  0
  7  8  1  0  0  0
  7  9  1  0  0  0
  7 10  1  0  0  0
  9 30  1  0  0  0
  9 31  1  0  0  0
 10 11  1  0  0  0
 10 32  1  0  0  0
 11 12  2  0  0  0
 11 13  1  0  0  0
 13 14  1  0  0  0
 13 33  1  0  0  0
 14 19  1  0  0  0
 14 15  1  0  0  0
 14 34  1  0  0  0
 15 16  1  0  0  0
 15 35  1  0  0  0
 15 36  1  0  0  0
 16 17  1  0  0  0
 16 37  1  0  0  0
 16 38  1  0  0  0
 17 18  1  0  0  0
 17 20  1  0  0  0
 17 39  1  0  0  0
 18 19  1  0  0  0
 18 40  1  0  0  0
 18 41  1  0  0  0
 19 42  1  0  0  0
 19 43  1  0  0  0
 20 44  1  0  0  0
M  END
> <i_i_glide_confnum>
48

> <i_i_glide_lignum>
1751

> <i_i_glide_posenum>
354

> <i_i_glide_rotatable_bonds>
5

> <i_m_Source_File_Index>
2406

> <b_m_subgroup_collapsed>
0

> <r_i_docking_score>
-5.29612

> <r_i_glide_ecoul>
-5.71358

> <r_i_glide_eff_state_penalty>
0

> <r_i_glide_einternal>
2.80948

> <r_i_glide_emodel>
-41.1984

> <r_i_glide_energy>
-31.4964

> <r_i_glide_erotb>
1.0872

> <r_i_glide_esite>
0

> <r_i_glide_evdw>
-25.7828

> <r_i_glide_gscore>
-5.29612

> <r_i_glide_hbond>
-0.562728

> <r_i_glide_ligand_efficiency>
-0.294229

> <r_i_glide_ligand_efficiency_ln>
-1.36134

> <r_i_glide_ligand_efficiency_sa>
-0.771098

> <r_i_glide_lipo>
-1.50472

> <r_i_glide_metal>
0

> <r_i_glide_rewards>
-2.16969

> <s_i_glide_gridfile>
wee1_glide-grid

> <s_m_Source_File>
wee1_decoys_glide_SP.sdf

> <s_m_Source_Path>
/Users/zhangxujun/Desktop

> <s_m_entry_id>
2681

> <s_m_entry_name>
wee1_decoys_glide_SP.2406

> <s_m_subgroup_title>
wee1_decoys_glide_SP

> <s_m_subgroupid>
wee1_decoys_glide_SP


$$$$
