ZINC27517155_5744
                    3D
 Schrodinger Suite 2024-2.
 81 84  0  0  1  0            999 V2000
   -1.8231   46.4340   18.8892 C   0  0  0  0  0  0
   -2.3519   47.1728   20.1266 C   0  0  0  0  0  0
   -1.2177   47.7455   21.0090 C   0  0  0  0  0  0
   -1.6190   48.3655   22.3907 C   0  0  1  0  0  0
   -2.8230   49.3412   22.2039 C   0  0  0  0  0  0
   -3.3572   49.8606   23.4877 N   0  0  0  0  0  0
   -3.5664   48.8860   24.5932 C   0  0  0  0  0  0
   -2.3811   47.8690   24.7653 C   0  0  1  0  0  0
   -2.0494   47.2610   23.3879 C   0  0  0  0  0  0
   -2.0990   46.0562   23.1261 O   0  0  0  0  0  0
   -1.0520   48.5117   25.2920 C   0  0  0  0  0  0
   -0.5516   49.5510   24.3641 N   0  0  0  0  0  0
   -0.3640   49.1205   22.9546 C   0  0  0  0  0  0
   -0.0214   50.7478   24.7595 C   0  0  0  0  0  0
    0.6175   51.4709   23.9880 O   0  0  0  0  0  0
   -0.1591   51.2231   26.1904 C   0  0  0  0  0  0
   -1.3757   51.1930   26.8792 C   0  0  0  0  0  0
   -1.4415   51.6189   28.2024 C   0  0  0  0  0  0
   -0.3184   52.1228   28.8502 C   0  0  0  0  0  0
    0.8851   52.2141   28.1439 C   0  0  0  0  0  0
    0.9578   51.7649   26.8318 C   0  0  0  0  0  0
   -0.5052   52.5076   30.1663 O   0  0  0  0  0  0
    0.4853   53.1954   30.9273 C   0  0  0  0  0  0
    1.6922   52.3089   31.3020 C   0  0  0  0  0  0
    0.7965   54.5985   30.3619 C   0  0  0  0  0  0
   -2.7844   46.7647   25.8009 C   0  0  0  0  0  0
   -4.1035   45.9971   25.5631 C   0  0  0  0  0  0
   -3.4716   51.2091   23.6647 C   0  0  0  0  0  0
   -2.8961   52.0215   22.9314 O   0  0  0  0  0  0
   -4.3852   51.7432   24.7523 C   0  0  0  0  0  0
   -4.0928   52.9611   25.3763 C   0  0  0  0  0  0
   -4.9177   53.4494   26.3861 C   0  0  0  0  0  0
   -6.0387   52.7331   26.8018 C   0  0  0  0  0  0
   -6.3841   51.5621   26.1183 C   0  0  0  0  0  0
   -5.5710   51.0778   25.0996 C   0  0  0  0  0  0
   -6.7378   53.2448   27.8806 O   0  0  0  0  0  0
   -7.6230   52.4056   28.6272 C   0  0  0  0  0  0
   -7.3431   52.6525   30.1147 C   0  0  0  0  0  0
   -9.0700   52.7478   28.2492 C   0  0  0  0  0  0
   -2.6462   46.0502   18.2851 H   0  0  0  0  0  0
   -1.2300   47.0964   18.2576 H   0  0  0  0  0  0
   -1.1967   45.5874   19.1709 H   0  0  0  0  0  0
   -2.9798   46.4913   20.6997 H   0  0  0  0  0  0
   -3.0034   47.9799   19.7906 H   0  0  0  0  0  0
   -0.6793   48.4926   20.4241 H   0  0  0  0  0  0
   -0.4956   46.9475   21.1746 H   0  0  0  0  0  0
   -2.5023   50.1397   21.5327 H   0  0  0  0  0  0
   -3.6465   48.8200   21.7184 H   0  0  0  0  0  0
   -4.4915   48.3511   24.3844 H   0  0  0  0  0  0
   -3.6640   49.3830   25.5571 H   0  0  0  0  0  0
   -0.2846   47.7383   25.3714 H   0  0  0  0  0  0
   -1.2212   48.8742   26.3019 H   0  0  0  0  0  0
   -0.2350   49.9862   22.3014 H   0  0  0  0  0  0
    0.5272   48.4968   22.8923 H   0  0  0  0  0  0
   -2.2730   50.8178   26.4139 H   0  0  0  0  0  0
   -2.3779   51.5413   28.7380 H   0  0  0  0  0  0
    1.7810   52.6166   28.5809 H   0  0  0  0  0  0
    1.9019   51.8130   26.3172 H   0  0  0  0  0  0
   -0.0131   53.3894   31.8805 H   0  0  0  0  0  0
    2.5255   52.8922   31.6802 H   0  0  0  0  0  0
    2.0641   51.7000   30.4832 H   0  0  0  0  0  0
    1.4075   51.6186   32.0971 H   0  0  0  0  0  0
    1.6174   55.0852   30.8816 H   0  0  0  0  0  0
    1.0430   54.5974   29.3034 H   0  0  0  0  0  0
   -0.0773   55.2409   30.4820 H   0  0  0  0  0  0
   -1.9727   46.0388   25.8967 H   0  0  0  0  0  0
   -2.8599   47.2211   26.7906 H   0  0  0  0  0  0
   -4.2114   45.1903   26.2905 H   0  0  0  0  0  0
   -4.9729   46.6440   25.6865 H   0  0  0  0  0  0
   -4.1637   45.5527   24.5700 H   0  0  0  0  0  0
   -3.2118   53.5219   25.0968 H   0  0  0  0  0  0
   -4.6606   54.3740   26.8786 H   0  0  0  0  0  0
   -7.2815   51.0146   26.3576 H   0  0  0  0  0  0
   -5.8809   50.1817   24.5858 H   0  0  0  0  0  0
   -7.4467   51.3410   28.4614 H   0  0  0  0  0  0
   -8.0039   52.0546   30.7425 H   0  0  0  0  0  0
   -6.3186   52.3786   30.3638 H   0  0  0  0  0  0
   -7.4866   53.6974   30.3847 H   0  0  0  0  0  0
   -9.7786   52.1202   28.7919 H   0  0  0  0  0  0
   -9.3022   53.7879   28.4830 H   0  0  0  0  0  0
   -9.2442   52.5955   27.1837 H   0  0  0  0  0  0
  1  2  1  0  0  0
  1 40  1  0  0  0
  1 41  1  0  0  0
  1 42  1  0  0  0
  2  3  1  0  0  0
  2 43  1  0  0  0
  2 44  1  0  0  0
  3  4  1  0  0  0
  3 45  1  0  0  0
  3 46  1  0  0  0
  4  9  1  0  0  0
  4 13  1  0  0  0
  4  5  1  0  0  0
  5  6  1  0  0  0
  5 47  1  0  0  0
  5 48  1  0  0  0
  6  7  1  0  0  0
  6 28  1  0  0  0
  7  8  1  0  0  0
  7 49  1  0  0  0
  7 50  1  0  0  0
  8  9  1  0  0  0
  8 11  1  0  0  0
  8 26  1  0  0  0
  9 10  2  0  0  0
 11 12  1  0  0  0
 11 51  1  0  0  0
 11 52  1  0  0  0
 12 13  1  0  0  0
 12 14  1  0  0  0
 13 53  1  0  0  0
 13 54  1  0  0  0
 14 15  2  0  0  0
 14 16  1  0  0  0
 16 21  2  0  0  0
 16 17  1  0  0  0
 17 18  2  0  0  0
 17 55  1  0  0  0
 18 19  1  0  0  0
 18 56  1  0  0  0
 19 20  2  0  0  0
 19 22  1  0  0  0
 20 21  1  0  0  0
 20 57  1  0  0  0
 21 58  1  0  0  0
 22 23  1  0  0  0
 23 24  1  0  0  0
 23 25  1  0  0  0
 23 59  1  0  0  0
 24 60  1  0  0  0
 24 61  1  0  0  0
 24 62  1  0  0  0
 25 63  1  0  0  0
 25 64  1  0  0  0
 25 65  1  0  0  0
 26 27  1  0  0  0
 26 66  1  0  0  0
 26 67  1  0  0  0
 27 68  1  0  0  0
 27 69  1  0  0  0
 27 70  1  0  0  0
 28 29  2  0  0  0
 28 30  1  0  0  0
 30 35  2  0  0  0
 30 31  1  0  0  0
 31 32  2  0  0  0
 31 71  1  0  0  0
 32 33  1  0  0  0
 32 72  1  0  0  0
 33 34  2  0  0  0
 33 36  1  0  0  0
 34 35  1  0  0  0
 34 73  1  0  0  0
 35 74  1  0  0  0
 36 37  1  0  0  0
 37 38  1  0  0  0
 37 39  1  0  0  0
 37 75  1  0  0  0
 38 76  1  0  0  0
 38 77  1  0  0  0
 38 78  1  0  0  0
 39 79  1  0  0  0
 39 80  1  0  0  0
 39 81  1  0  0  0
M  END
> <i_i_glide_confnum>
180

> <i_i_glide_lignum>
5745

> <i_i_glide_posenum>
340

> <i_i_glide_rotatable_bonds>
11

> <i_m_Source_File_Index>
5383

> <b_m_subgroup_collapsed>
0

> <r_i_docking_score>
-2.25843

> <r_i_glide_ecoul>
-3.46988

> <r_i_glide_eff_state_penalty>
0

> <r_i_glide_einternal>
11.2789

> <r_i_glide_emodel>
-36.1463

> <r_i_glide_energy>
-36.6358

> <r_i_glide_erotb>
0.505366

> <r_i_glide_esite>
-0.0376978

> <r_i_glide_evdw>
-33.1659

> <r_i_glide_gscore>
-2.25843

> <r_i_glide_hbond>
0

> <r_i_glide_ligand_efficiency>
-0.0579085

> <r_i_glide_ligand_efficiency_ln>
-0.484272

> <r_i_glide_ligand_efficiency_sa>
-0.19638

> <r_i_glide_lipo>
-0.692445

> <r_i_glide_metal>
0

> <r_i_glide_rewards>
0.145124

> <s_i_glide_gridfile>
wee1_glide-grid

> <s_m_Source_File>
wee1_decoys_glide_SP.sdf

> <s_m_Source_Path>
/Users/zhangxujun/Desktop

> <s_m_entry_id>
5658

> <s_m_entry_name>
wee1_decoys_glide_SP.5383

> <s_m_subgroup_title>
wee1_decoys_glide_SP

> <s_m_subgroupid>
wee1_decoys_glide_SP


$$$$
