ZINC14151899_4425
                    3D
 Schrodinger Suite 2024-2.
 45 47  0  0  1  0            999 V2000
    1.6616   53.4269   25.0136 C   0  0  0  0  0  0
    3.0197   53.7825   25.6010 C   0  0  0  0  0  0
    3.1572   53.7909   26.9938 C   0  0  0  0  0  0
    4.3903   54.0947   27.5694 C   0  0  0  0  0  0
    5.5010   54.4032   26.8602 N   0  0  0  0  0  0
    5.3656   54.3949   25.5367 C   0  0  0  0  0  0
    4.1675   54.0932   24.8232 C   0  0  0  0  0  0
    4.3915   54.1529   23.4047 C   0  0  0  0  0  0
    5.6898   54.5474   23.0636 C   0  0  0  0  0  0
    6.7044   54.7555   24.4807 S   0  0  0  0  0  0
    6.3045   54.8967   21.7708 C   0  0  0  0  0  0
    7.4715   55.2817   21.6547 O   0  0  0  0  0  0
    5.4169   54.7983   20.7321 O   0  0  0  0  0  0
    5.7252   55.0051   19.3334 C   0  0  2  0  0  0
    4.7426   54.9712   18.8613 H   0  0  0  0  0  0
    6.5710   53.8334   18.7823 C   0  0  0  0  0  0
    6.3053   56.4146   19.0117 C   0  0  0  0  0  0
    6.3269   57.2967   19.8699 O   0  0  0  0  0  0
    6.7640   56.6081   17.7568 N   0  0  0  0  0  0
    7.3617   57.7883   17.2942 C   0  0  0  0  0  0
    6.7891   58.4331   16.1938 C   0  0  0  0  0  0
    7.3746   59.5903   15.6807 C   0  0  0  0  0  0
    8.5313   60.1087   16.2629 C   0  0  0  0  0  0
    9.1159   59.4630   17.3541 C   0  0  0  0  0  0
    8.5452   58.2923   17.8594 C   0  0  0  0  0  0
    9.1547   57.6464   18.8814 F   0  0  0  0  0  0
   10.2355   59.9720   17.9194 F   0  0  0  0  0  0
    9.0840   61.2395   15.7687 F   0  0  0  0  0  0
    3.4083   53.9030   22.4819 N   0  0  0  0  0  0
    4.5862   54.0536   29.0690 C   0  0  0  0  0  0
    0.9195   53.2036   25.7818 H   0  0  0  0  0  0
    1.2846   54.2535   24.4105 H   0  0  0  0  0  0
    1.7470   52.5517   24.3690 H   0  0  0  0  0  0
    2.3148   53.5466   27.6253 H   0  0  0  0  0  0
    6.6073   53.8380   17.6924 H   0  0  0  0  0  0
    7.5989   53.8820   19.1408 H   0  0  0  0  0  0
    6.1519   52.8702   19.0786 H   0  0  0  0  0  0
    6.6125   55.8814   17.0748 H   0  0  0  0  0  0
    5.8823   58.0541   15.7440 H   0  0  0  0  0  0
    6.9171   60.1022   14.8465 H   0  0  0  0  0  0
    2.4694   53.6378   22.7395 H   0  0  0  0  0  0
    3.5865   54.0319   21.4928 H   0  0  0  0  0  0
    3.6367   54.0774   29.6035 H   0  0  0  0  0  0
    5.1036   53.1278   29.3194 H   0  0  0  0  0  0
    5.1930   54.8949   29.4120 H   0  0  0  0  0  0
  1  2  1  0  0  0
  1 31  1  0  0  0
  1 32  1  0  0  0
  1 33  1  0  0  0
  2  7  2  0  0  0
  2  3  1  0  0  0
  3  4  2  0  0  0
  3 34  1  0  0  0
  4  5  1  0  0  0
  4 30  1  0  0  0
  5  6  2  0  0  0
  6 10  1  0  0  0
  6  7  1  0  0  0
  7  8  1  0  0  0
  8  9  2  0  0  0
  8 29  1  0  0  0
  9 10  1  0  0  0
  9 11  1  0  0  0
 11 12  2  0  0  0
 11 13  1  0  0  0
 13 14  1  0  0  0
 14 15  1  0  0  0
 14 16  1  0  0  0
 14 17  1  0  0  0
 16 35  1  0  0  0
 16 36  1  0  0  0
 16 37  1  0  0  0
 17 18  2  0  0  0
 17 19  1  0  0  0
 19 20  1  0  0  0
 19 38  1  0  0  0
 20 25  2  0  0  0
 20 21  1  0  0  0
 21 22  2  0  0  0
 21 39  1  0  0  0
 22 23  1  0  0  0
 22 40  1  0  0  0
 23 24  2  0  0  0
 23 28  1  0  0  0
 24 25  1  0  0  0
 24 27  1  0  0  0
 25 26  1  0  0  0
 29 41  1  0  0  0
 29 42  1  0  0  0
 30 43  1  0  0  0
 30 44  1  0  0  0
 30 45  1  0  0  0
M  END
> <i_i_glide_confnum>
20

> <i_i_glide_lignum>
4426

> <i_i_glide_posenum>
286

> <i_i_glide_rotatable_bonds>
6

> <i_m_Source_File_Index>
3182

> <b_m_subgroup_collapsed>
0

> <r_i_docking_score>
-5.53596

> <r_i_glide_ecoul>
-3.69584

> <r_i_glide_eff_state_penalty>
0

> <r_i_glide_einternal>
8.14981

> <r_i_glide_emodel>
-52.2529

> <r_i_glide_energy>
-41.5145

> <r_i_glide_erotb>
0.552756

> <r_i_glide_esite>
-0.0795116

> <r_i_glide_evdw>
-37.8186

> <r_i_glide_gscore>
-5.53596

> <r_i_glide_hbond>
-0.165288

> <r_i_glide_ligand_efficiency>
-0.190895

> <r_i_glide_ligand_efficiency_ln>
-1.26759

> <r_i_glide_ligand_efficiency_sa>
-0.586491

> <r_i_glide_lipo>
-2.34907

> <r_i_glide_metal>
0

> <r_i_glide_rewards>
-1.04954

> <s_i_glide_gridfile>
wee1_glide-grid

> <s_m_Source_File>
wee1_decoys_glide_SP.sdf

> <s_m_Source_Path>
/Users/zhangxujun/Desktop

> <s_m_entry_id>
3457

> <s_m_entry_name>
wee1_decoys_glide_SP.3182

> <s_m_subgroup_title>
wee1_decoys_glide_SP

> <s_m_subgroupid>
wee1_decoys_glide_SP


$$$$
