ZINC34978311_695
                    3D
 Schrodinger Suite 2024-2.
 74 77  0  0  1  0            999 V2000
   -1.5805   47.5385   21.4446 C   0  0  0  0  0  0
   -2.0553   47.2883   22.8718 C   0  0  0  0  0  0
   -3.2616   46.6005   23.0456 C   0  0  0  0  0  0
   -3.7320   46.2898   24.3216 C   0  0  0  0  0  0
   -2.9836   46.6448   25.4409 C   0  0  0  0  0  0
   -1.7819   47.3301   25.2823 C   0  0  0  0  0  0
   -1.3177   47.6800   24.0136 C   0  0  0  0  0  0
   -0.1096   48.3963   23.9826 N   0  0  0  0  0  0
    0.0728   49.5869   23.3866 C   0  0  0  0  0  0
   -0.7797   50.1706   22.7135 O   0  0  0  0  0  0
    1.2849   50.0959   23.6680 N   0  0  0  0  0  0
    1.7765   51.4478   23.3243 C   0  0  2  0  0  0
    2.7038   51.5240   23.8880 H   0  0  0  0  0  0
    0.8144   52.5513   23.8695 C   0  0  0  0  0  0
    0.6011   52.4970   25.3769 C   0  0  0  0  0  0
    1.5916   52.9949   26.2494 C   0  0  0  0  0  0
    1.4510   52.8449   27.6229 C   0  0  0  0  0  0
    0.3501   52.1758   28.1463 C   0  0  0  0  0  0
   -0.6159   51.6485   27.2989 C   0  0  0  0  0  0
   -0.4989   51.7975   25.9233 C   0  0  0  0  0  0
    2.2078   51.6013   21.8314 C   0  0  0  0  0  0
    1.8546   50.7243   21.0378 O   0  0  0  0  0  0
    2.9843   52.6533   21.4388 N   0  0  0  0  0  0
    3.3130   52.8256   20.0085 C   0  0  0  0  0  0
    4.8313   53.0500   19.8571 C   0  0  0  0  0  0
    5.2178   54.2172   20.6774 N   0  0  0  0  0  0
    4.9255   54.0979   22.1253 C   0  0  1  0  0  0
    5.0739   55.0719   22.5877 H   0  0  0  0  0  0
    3.4223   53.7506   22.3269 C   0  0  0  0  0  0
    5.8677   53.1479   22.8807 C   0  0  0  0  0  0
    5.9045   55.2977   20.1967 C   0  0  0  0  0  0
    6.3424   56.1689   20.9572 O   0  0  0  0  0  0
    6.1222   55.4805   18.6692 C   0  0  0  0  0  0
    4.7735   55.8987   18.0210 C   0  0  0  0  0  0
    4.9527   56.0601   16.4982 C   0  0  0  0  0  0
    6.0811   57.0524   16.1475 C   0  0  0  0  0  0
    7.4066   56.6988   16.8549 C   0  0  0  0  0  0
    7.2199   56.5451   18.3793 C   0  0  0  0  0  0
   -1.9922   48.4740   21.0618 H   0  0  0  0  0  0
   -0.4955   47.5821   21.3763 H   0  0  0  0  0  0
   -1.8956   46.7335   20.7785 H   0  0  0  0  0  0
   -3.8452   46.3054   22.1847 H   0  0  0  0  0  0
   -4.6748   45.7771   24.4414 H   0  0  0  0  0  0
   -3.3370   46.4104   26.4349 H   0  0  0  0  0  0
   -1.2255   47.6165   26.1640 H   0  0  0  0  0  0
    0.5762   48.1214   24.6720 H   0  0  0  0  0  0
    1.9742   49.4773   24.0728 H   0  0  0  0  0  0
    1.1678   53.5526   23.6314 H   0  0  0  0  0  0
   -0.1572   52.4952   23.3796 H   0  0  0  0  0  0
    2.4647   53.4915   25.8530 H   0  0  0  0  0  0
    2.2080   53.2334   28.2882 H   0  0  0  0  0  0
    0.2499   52.0467   29.2141 H   0  0  0  0  0  0
   -1.4531   51.0986   27.7090 H   0  0  0  0  0  0
   -1.2460   51.3632   25.2748 H   0  0  0  0  0  0
    3.0192   51.9727   19.3934 H   0  0  0  0  0  0
    2.7785   53.6965   19.6315 H   0  0  0  0  0  0
    5.3646   52.1725   20.2213 H   0  0  0  0  0  0
    5.0725   53.1340   18.8015 H   0  0  0  0  0  0
    2.8339   54.6387   22.0880 H   0  0  0  0  0  0
    3.2813   53.5343   23.3830 H   0  0  0  0  0  0
    5.5663   53.0947   23.9244 H   0  0  0  0  0  0
    5.8446   52.1339   22.4805 H   0  0  0  0  0  0
    6.8932   53.5177   22.8802 H   0  0  0  0  0  0
    6.4858   54.5214   18.3044 H   0  0  0  0  0  0
    3.9998   55.1401   18.1496 H   0  0  0  0  0  0
    4.4340   56.8682   18.3947 H   0  0  0  0  0  0
    5.1710   55.0892   16.0505 H   0  0  0  0  0  0
    4.0161   56.3968   16.0492 H   0  0  0  0  0  0
    6.2334   57.0759   15.0670 H   0  0  0  0  0  0
    5.7779   58.0616   16.4321 H   0  0  0  0  0  0
    7.8071   55.7712   16.4396 H   0  0  0  0  0  0
    8.1519   57.4684   16.6496 H   0  0  0  0  0  0
    6.9273   57.5334   18.7404 H   0  0  0  0  0  0
    8.1879   56.2430   18.7844 H   0  0  0  0  0  0
  1  2  1  0  0  0
  1 39  1  0  0  0
  1 40  1  0  0  0
  1 41  1  0  0  0
  2  7  2  0  0  0
  2  3  1  0  0  0
  3  4  2  0  0  0
  3 42  1  0  0  0
  4  5  1  0  0  0
  4 43  1  0  0  0
  5  6  2  0  0  0
  5 44  1  0  0  0
  6  7  1  0  0  0
  6 45  1  0  0  0
  7  8  1  0  0  0
  8  9  1  0  0  0
  8 46  1  0  0  0
  9 10  2  0  0  0
  9 11  1  0  0  0
 11 12  1  0  0  0
 11 47  1  0  0  0
 12 13  1  0  0  0
 12 14  1  0  0  0
 12 21  1  0  0  0
 14 15  1  0  0  0
 14 48  1  0  0  0
 14 49  1  0  0  0
 15 20  2  0  0  0
 15 16  1  0  0  0
 16 17  2  0  0  0
 16 50  1  0  0  0
 17 18  1  0  0  0
 17 51  1  0  0  0
 18 19  2  0  0  0
 18 52  1  0  0  0
 19 20  1  0  0  0
 19 53  1  0  0  0
 20 54  1  0  0  0
 21 22  2  0  0  0
 21 23  1  0  0  0
 23 29  1  0  0  0
 23 24  1  0  0  0
 24 25  1  0  0  0
 24 55  1  0  0  0
 24 56  1  0  0  0
 25 26  1  0  0  0
 25 57  1  0  0  0
 25 58  1  0  0  0
 26 27  1  0  0  0
 26 31  1  0  0  0
 27 28  1  0  0  0
 27 29  1  0  0  0
 27 30  1  0  0  0
 29 59  1  0  0  0
 29 60  1  0  0  0
 30 61  1  0  0  0
 30 62  1  0  0  0
 30 63  1  0  0  0
 31 32  2  0  0  0
 31 33  1  0  0  0
 33 38  1  0  0  0
 33 34  1  0  0  0
 33 64  1  0  0  0
 34 35  1  0  0  0
 34 65  1  0  0  0
 34 66  1  0  0  0
 35 36  1  0  0  0
 35 67  1  0  0  0
 35 68  1  0  0  0
 36 37  1  0  0  0
 36 69  1  0  0  0
 36 70  1  0  0  0
 37 38  1  0  0  0
 37 71  1  0  0  0
 37 72  1  0  0  0
 38 73  1  0  0  0
 38 74  1  0  0  0
M  END
> <i_i_glide_confnum>
215

> <i_i_glide_lignum>
696

> <i_i_glide_posenum>
349

> <i_i_glide_rotatable_bonds>
10

> <i_m_Source_File_Index>
1831

> <b_m_subgroup_collapsed>
0

> <r_i_docking_score>
-4.06836

> <r_i_glide_ecoul>
-6.58356

> <r_i_glide_eff_state_penalty>
0

> <r_i_glide_einternal>
8.05924

> <r_i_glide_emodel>
-51.0476

> <r_i_glide_energy>
-44.0906

> <r_i_glide_erotb>
0.7609

> <r_i_glide_esite>
-0.0321813

> <r_i_glide_evdw>
-37.5071

> <r_i_glide_gscore>
-4.06836

> <r_i_glide_hbond>
-0.132479

> <r_i_glide_ligand_efficiency>
-0.11301

> <r_i_glide_ligand_efficiency_ln>
-0.887607

> <r_i_glide_ligand_efficiency_sa>
-0.373151

> <r_i_glide_lipo>
-1.36062

> <r_i_glide_metal>
0

> <r_i_glide_rewards>
-0.441097

> <s_i_glide_gridfile>
wee1_glide-grid

> <s_m_Source_File>
wee1_decoys_glide_SP.sdf

> <s_m_Source_Path>
/Users/zhangxujun/Desktop

> <s_m_entry_id>
2106

> <s_m_entry_name>
wee1_decoys_glide_SP.1831

> <s_m_subgroup_title>
wee1_decoys_glide_SP

> <s_m_subgroupid>
wee1_decoys_glide_SP


$$$$
