ZINC09698937_4218
                    3D
 Schrodinger Suite 2024-2.
 58 62  0  0  1  0            999 V2000
   -2.8734   50.8954   27.6989 C   0  0  0  0  0  0
   -1.5256   51.5378   27.9673 C   0  0  0  0  0  0
   -1.0814   51.6965   29.2808 C   0  0  0  0  0  0
    0.1644   52.2574   29.5325 C   0  0  0  0  0  0
    0.9714   52.6576   28.4614 C   0  0  0  0  0  0
    0.5267   52.4969   27.1456 C   0  0  0  0  0  0
   -0.7211   51.9337   26.8998 C   0  0  0  0  0  0
    2.2273   53.2386   28.6796 N   0  0  0  0  0  0
    2.5796   54.5612   28.1672 C   0  0  0  0  0  0
    4.0751   54.7105   28.3967 C   0  0  1  0  0  0
    4.3050   55.6958   28.7894 H   0  0  0  0  0  0
    4.3570   53.6898   29.4859 C   0  0  0  0  0  0
    3.1786   52.7307   29.5071 C   0  0  0  0  0  0
    3.1553   51.6967   30.1675 O   0  0  0  0  0  0
    4.9983   54.4967   27.1683 C   0  0  0  0  0  0
    6.2164   54.5241   27.3481 O   0  0  0  0  0  0
    4.4115   54.3458   25.9623 N   0  0  0  0  0  0
    5.0192   54.3234   24.7169 C   0  0  0  0  0  0
    4.3124   54.0965   23.6388 N   0  0  0  0  0  0
    5.0323   54.1806   22.5310 C   0  0  0  0  0  0
    6.3759   54.4967   22.7259 C   0  0  0  0  0  0
    6.7042   54.6597   24.4192 S   0  0  0  0  0  0
    4.3100   53.9703   21.2098 C   0  0  0  0  0  0
    3.7434   52.5571   21.0289 C   0  0  0  0  0  0
    4.4627   51.5894   21.2809 O   0  0  0  0  0  0
    2.4606   52.4967   20.6131 N   0  0  0  0  0  0
    1.6965   51.3717   20.3507 C   0  0  0  0  0  0
    0.4386   51.5136   20.0434 N   0  0  0  0  0  0
   -0.1503   50.3131   19.7982 C   0  0  0  0  0  0
   -1.4972   50.1421   19.4476 C   0  0  0  0  0  0
   -1.9649   48.8457   19.2205 C   0  0  0  0  0  0
   -1.1223   47.7345   19.3299 C   0  0  0  0  0  0
    0.2219   47.8857   19.6818 C   0  0  0  0  0  0
    0.6982   49.1812   19.9179 C   0  0  0  0  0  0
    2.3039   49.7183   20.3781 S   0  0  0  0  0  0
   -1.6767   46.3440   19.0814 C   0  0  0  0  0  0
   -3.2068   50.2982   28.5503 H   0  0  0  0  0  0
   -3.6260   51.6521   27.4676 H   0  0  0  0  0  0
   -2.8025   50.2099   26.8520 H   0  0  0  0  0  0
   -1.6934   51.3572   30.1068 H   0  0  0  0  0  0
    0.4944   52.3698   30.5555 H   0  0  0  0  0  0
    1.1473   52.7921   26.3129 H   0  0  0  0  0  0
   -1.0587   51.7961   25.8829 H   0  0  0  0  0  0
    2.0492   55.2942   28.7779 H   0  0  0  0  0  0
    2.2321   54.7948   27.1618 H   0  0  0  0  0  0
    5.2436   53.0838   29.2818 H   0  0  0  0  0  0
    4.5063   54.1624   30.4551 H   0  0  0  0  0  0
    3.4128   54.2140   25.9507 H   0  0  0  0  0  0
    7.1583   54.6347   21.9947 H   0  0  0  0  0  0
    4.9784   54.1528   20.3687 H   0  0  0  0  0  0
    3.5103   54.7061   21.1116 H   0  0  0  0  0  0
    1.9790   53.3789   20.4817 H   0  0  0  0  0  0
   -2.1560   50.9897   19.3500 H   0  0  0  0  0  0
   -3.0021   48.7066   18.9482 H   0  0  0  0  0  0
    0.8793   47.0332   19.7645 H   0  0  0  0  0  0
   -1.5692   46.0720   18.0309 H   0  0  0  0  0  0
   -1.1577   45.6024   19.6897 H   0  0  0  0  0  0
   -2.7319   46.2860   19.3520 H   0  0  0  0  0  0
  1  2  1  0  0  0
  1 37  1  0  0  0
  1 38  1  0  0  0
  1 39  1  0  0  0
  2  7  2  0  0  0
  2  3  1  0  0  0
  3  4  2  0  0  0
  3 40  1  0  0  0
  4  5  1  0  0  0
  4 41  1  0  0  0
  5  6  2  0  0  0
  5  8  1  0  0  0
  6  7  1  0  0  0
  6 42  1  0  0  0
  7 43  1  0  0  0
  8 13  1  0  0  0
  8  9  1  0  0  0
  9 10  1  0  0  0
  9 44  1  0  0  0
  9 45  1  0  0  0
 10 11  1  0  0  0
 10 12  1  0  0  0
 10 15  1  0  0  0
 12 13  1  0  0  0
 12 46  1  0  0  0
 12 47  1  0  0  0
 13 14  2  0  0  0
 15 16  2  0  0  0
 15 17  1  0  0  0
 17 18  1  0  0  0
 17 48  1  0  0  0
 18 22  1  0  0  0
 18 19  2  0  0  0
 19 20  1  0  0  0
 20 21  2  0  0  0
 20 23  1  0  0  0
 21 22  1  0  0  0
 21 49  1  0  0  0
 23 24  1  0  0  0
 23 50  1  0  0  0
 23 51  1  0  0  0
 24 25  2  0  0  0
 24 26  1  0  0  0
 26 27  1  0  0  0
 26 52  1  0  0  0
 27 35  1  0  0  0
 27 28  2  0  0  0
 28 29  1  0  0  0
 29 34  2  0  0  0
 29 30  1  0  0  0
 30 31  2  0  0  0
 30 53  1  0  0  0
 31 32  1  0  0  0
 31 54  1  0  0  0
 32 33  2  0  0  0
 32 36  1  0  0  0
 33 34  1  0  0  0
 33 55  1  0  0  0
 34 35  1  0  0  0
 36 56  1  0  0  0
 36 57  1  0  0  0
 36 58  1  0  0  0
M  END
> <i_i_glide_confnum>
124

> <i_i_glide_lignum>
4219

> <i_i_glide_posenum>
13

> <i_i_glide_rotatable_bonds>
8

> <i_m_Source_File_Index>
583

> <b_m_subgroup_collapsed>
0

> <r_i_docking_score>
-6.42169

> <r_i_glide_ecoul>
-7.13867

> <r_i_glide_eff_state_penalty>
0

> <r_i_glide_einternal>
8.64548

> <r_i_glide_emodel>
-74.425

> <r_i_glide_energy>
-56.0017

> <r_i_glide_erotb>
0.64009

> <r_i_glide_esite>
-0.0215691

> <r_i_glide_evdw>
-48.863

> <r_i_glide_gscore>
-6.42169

> <r_i_glide_hbond>
-0.608

> <r_i_glide_ligand_efficiency>
-0.183477

> <r_i_glide_ligand_efficiency_ln>
-1.4097

> <r_i_glide_ligand_efficiency_sa>
-0.600165

> <r_i_glide_lipo>
-1.97853

> <r_i_glide_metal>
0

> <r_i_glide_rewards>
-0.939729

> <s_i_glide_gridfile>
wee1_glide-grid

> <s_m_Source_File>
wee1_decoys_glide_SP.sdf

> <s_m_Source_Path>
/Users/zhangxujun/Desktop

> <s_m_entry_id>
858

> <s_m_entry_name>
wee1_decoys_glide_SP.583

> <s_m_subgroup_title>
wee1_decoys_glide_SP

> <s_m_subgroupid>
wee1_decoys_glide_SP


$$$$
