ZINC38597985_887
                    3D
 Schrodinger Suite 2024-2.
 62 65  0  0  1  0            999 V2000
   -4.2764   49.8335   29.7120 C   0  0  0  0  0  0
   -4.1527   48.9985   28.5669 O   0  0  0  0  0  0
   -4.9035   47.8375   28.4931 C   0  0  0  0  0  0
   -6.0879   47.6523   29.2254 C   0  0  0  0  0  0
   -6.8505   46.4968   29.0690 C   0  0  0  0  0  0
   -6.4325   45.5012   28.1905 C   0  0  0  0  0  0
   -5.2530   45.6596   27.4668 C   0  0  0  0  0  0
   -4.4914   46.8332   27.5962 C   0  0  0  0  0  0
   -3.2959   47.0635   26.8817 N   0  0  0  0  0  0
   -2.9394   46.5984   25.6596 C   0  0  0  0  0  0
   -3.5482   45.6992   25.0673 O   0  0  0  0  0  0
   -1.7865   47.2967   24.9879 C   0  0  0  0  0  0
   -1.4924   47.0251   23.8206 O   0  0  0  0  0  0
   -1.1269   48.2555   25.6817 N   0  0  0  0  0  0
   -0.1489   49.1834   25.0954 C   0  0  0  0  0  0
   -0.7483   50.1487   24.0194 C   0  0  1  0  0  0
   -0.7442   49.6362   23.0542 H   0  0  0  0  0  0
   -2.1661   50.6346   24.3078 C   0  0  0  0  0  0
   -3.3007   50.8061   23.5247 C   0  0  0  0  0  0
   -4.3266   51.2280   24.3734 C   0  0  0  0  0  0
   -3.7796   51.2849   25.6438 C   0  0  0  0  0  0
   -2.4700   50.9343   25.6017 O   0  0  0  0  0  0
    0.1349   51.3995   23.7306 N   0  3  0  0  0  0
    0.3043   52.3861   24.9077 C   0  0  0  0  0  0
    1.0117   53.6465   24.3748 C   0  0  0  0  0  0
    2.3235   53.3721   23.7731 N   0  0  0  0  0  0
    2.2520   52.3384   22.7232 C   0  0  0  0  0  0
    1.5215   51.0402   23.1504 C   0  0  0  0  0  0
    3.5220   53.8393   24.3067 C   0  0  0  0  0  0
    3.6629   54.0481   25.6872 C   0  0  0  0  0  0
    4.8676   54.4968   26.2190 C   0  0  0  0  0  0
    5.9429   54.7426   25.3728 C   0  0  0  0  0  0
    5.8300   54.5321   24.0026 C   0  0  0  0  0  0
    4.6183   54.0949   23.4706 C   0  0  0  0  0  0
    7.1044   55.1967   25.8881 F   0  0  0  0  0  0
   -7.3544   44.0509   28.0333 Cl  0  0  0  0  0  0
   -3.4852   50.5823   29.6925 H   0  0  0  0  0  0
   -5.2317   50.3584   29.7276 H   0  0  0  0  0  0
   -4.1610   49.2665   30.6375 H   0  0  0  0  0  0
   -6.4414   48.4089   29.9082 H   0  0  0  0  0  0
   -7.7625   46.3725   29.6355 H   0  0  0  0  0  0
   -4.9399   44.8513   26.8242 H   0  0  0  0  0  0
   -2.6908   47.7389   27.3528 H   0  0  0  0  0  0
   -1.3203   48.4032   26.6756 H   0  0  0  0  0  0
    0.2936   49.7397   25.9203 H   0  0  0  0  0  0
    0.6733   48.6036   24.6670 H   0  0  0  0  0  0
   -3.3788   50.6272   22.4617 H   0  0  0  0  0  0
   -5.3488   51.4454   24.0974 H   0  0  0  0  0  0
   -4.1753   51.5317   26.6193 H   0  0  0  0  0  0
   -0.6948   52.6617   25.2450 H   0  0  0  0  0  0
    0.8533   51.8953   25.7115 H   0  0  0  0  0  0
    0.4121   54.1176   23.5948 H   0  0  0  0  0  0
    1.1045   54.3863   25.1669 H   0  0  0  0  0  0
    3.2414   52.0830   22.3438 H   0  0  0  0  0  0
    1.7184   52.8138   21.8979 H   0  0  0  0  0  0
    2.0677   50.4636   23.8993 H   0  0  0  0  0  0
    1.3318   50.4248   22.2682 H   0  0  0  0  0  0
    2.8497   53.8417   26.3649 H   0  0  0  0  0  0
    4.9718   54.6534   27.2828 H   0  0  0  0  0  0
    6.6733   54.7274   23.3568 H   0  0  0  0  0  0
    4.5370   53.9564   22.4027 H   0  0  0  0  0  0
   -0.3579   51.9041   23.0061 H   0  0  0  0  0  0
  1  2  1  0  0  0
  1 37  1  0  0  0
  1 38  1  0  0  0
  1 39  1  0  0  0
  2  3  1  0  0  0
  3  8  2  0  0  0
  3  4  1  0  0  0
  4  5  2  0  0  0
  4 40  1  0  0  0
  5  6  1  0  0  0
  5 41  1  0  0  0
  6  7  2  0  0  0
  6 36  1  0  0  0
  7  8  1  0  0  0
  7 42  1  0  0  0
  8  9  1  0  0  0
  9 10  1  0  0  0
  9 43  1  0  0  0
 10 11  2  0  0  0
 10 12  1  0  0  0
 12 13  2  0  0  0
 12 14  1  0  0  0
 14 15  1  0  0  0
 14 44  1  0  0  0
 15 16  1  0  0  0
 15 45  1  0  0  0
 15 46  1  0  0  0
 16 17  1  0  0  0
 16 18  1  0  0  0
 16 23  1  0  0  0
 18 22  1  0  0  0
 18 19  2  0  0  0
 19 20  1  0  0  0
 19 47  1  0  0  0
 20 21  2  0  0  0
 20 48  1  0  0  0
 21 22  1  0  0  0
 21 49  1  0  0  0
 23 28  1  0  0  0
 23 24  1  0  0  0
 23 62  1  0  0  0
 24 25  1  0  0  0
 24 50  1  0  0  0
 24 51  1  0  0  0
 25 26  1  0  0  0
 25 52  1  0  0  0
 25 53  1  0  0  0
 26 27  1  0  0  0
 26 29  1  0  0  0
 27 28  1  0  0  0
 27 54  1  0  0  0
 27 55  1  0  0  0
 28 56  1  0  0  0
 28 57  1  0  0  0
 29 34  2  0  0  0
 29 30  1  0  0  0
 30 31  2  0  0  0
 30 58  1  0  0  0
 31 32  1  0  0  0
 31 59  1  0  0  0
 32 33  2  0  0  0
 32 35  1  0  0  0
 33 34  1  0  0  0
 33 60  1  0  0  0
 34 61  1  0  0  0
M  CHG  1  23   1
M  END
> <i_i_glide_confnum>
162

> <i_i_glide_lignum>
888

> <i_i_glide_posenum>
35

> <i_i_glide_rotatable_bonds>
10

> <i_m_Source_File_Index>
3974

> <b_m_subgroup_collapsed>
0

> <r_i_docking_score>
-6.30299

> <r_i_glide_ecoul>
-13.4579

> <r_i_glide_eff_state_penalty>
0

> <r_i_glide_einternal>
5.07272

> <r_i_glide_emodel>
-66.3055

> <r_i_glide_energy>
-46.3649

> <r_i_glide_erotb>
0.729753

> <r_i_glide_esite>
-0.395957

> <r_i_glide_evdw>
-32.907

> <r_i_glide_gscore>
-6.30299

> <r_i_glide_hbond>
-0.448505

> <r_i_glide_ligand_efficiency>
-0.180085

> <r_i_glide_ligand_efficiency_ln>
-1.38365

> <r_i_glide_ligand_efficiency_sa>
-0.589071

> <r_i_glide_lipo>
-2.12841

> <r_i_glide_metal>
0

> <r_i_glide_rewards>
-0.395844

> <s_i_glide_gridfile>
wee1_glide-grid

> <s_m_Source_File>
wee1_decoys_glide_SP.sdf

> <s_m_Source_Path>
/Users/zhangxujun/Desktop

> <s_m_entry_id>
4249

> <s_m_entry_name>
wee1_decoys_glide_SP.3974

> <s_m_subgroup_title>
wee1_decoys_glide_SP

> <s_m_subgroupid>
wee1_decoys_glide_SP


$$$$
