ZINC11996065_5329
                    3D
 Schrodinger Suite 2024-2.
 58 61  0  0  1  0            999 V2000
    5.7776   54.6471   28.6216 C   0  0  0  0  0  0
    4.6714   53.9983   27.7686 C   0  0  1  0  0  0
    4.8612   52.9231   27.8116 H   0  0  0  0  0  0
    3.2727   54.2465   28.3506 C   0  0  0  0  0  0
    2.9221   55.2335   29.1410 N   0  0  0  0  0  0
    1.5738   55.0688   29.4370 N   0  0  0  0  0  0
    1.1509   54.0026   28.8008 C   0  0  0  0  0  0
    2.1800   53.4561   28.0578 N   0  0  0  0  0  0
    2.1517   52.2943   27.1831 C   0  0  0  0  0  0
    0.8141   51.9969   26.4982 C   0  0  0  0  0  0
   -0.3686   51.9033   28.8361 C   0  0  0  0  0  0
   -0.2654   53.4448   28.8622 C   0  0  0  0  0  0
   -1.5682   51.0715   26.6930 C   0  0  0  0  0  0
   -1.4153   50.4339   25.3156 C   0  0  0  0  0  0
   -1.6008   51.2043   24.1640 C   0  0  0  0  0  0
   -1.3606   50.6472   22.9108 C   0  0  0  0  0  0
   -0.9277   49.3235   22.8073 C   0  0  0  0  0  0
   -0.7860   48.5425   23.9529 C   0  0  0  0  0  0
   -1.0336   49.0934   25.2066 C   0  0  0  0  0  0
   -0.6663   48.7637   21.5807 O   0  0  0  0  0  0
    0.5601   49.1588   20.9644 C   0  0  0  0  0  0
    0.6950   48.4405   19.8518 F   0  0  0  0  0  0
    0.5464   50.4477   20.6227 F   0  0  0  0  0  0
    1.6131   48.8999   21.7419 F   0  0  0  0  0  0
    4.6898   54.3906   26.3500 N   0  0  0  0  0  0
    5.7535   54.4712   25.5266 C   0  0  0  0  0  0
    6.9152   54.4976   25.9358 O   0  0  0  0  0  0
    5.4724   54.4917   24.0359 C   0  0  0  0  0  0
    6.4981   54.8895   23.1600 C   0  0  0  0  0  0
    6.3049   54.9032   21.7804 C   0  0  0  0  0  0
    5.0879   54.4962   21.2435 C   0  0  0  0  0  0
    4.0561   54.0969   22.0892 C   0  0  0  0  0  0
    4.2359   54.0968   23.4738 C   0  0  0  0  0  0
    3.1889   53.7078   24.2397 F   0  0  0  0  0  0
    7.3025   55.3099   20.9642 F   0  0  0  0  0  0
    5.9043   55.6967   28.3817 H   0  0  0  0  0  0
    5.5570   54.5779   29.6817 H   0  0  0  0  0  0
    6.7427   54.1638   28.4658 H   0  0  0  0  0  0
    2.5269   51.4345   27.7361 H   0  0  0  0  0  0
    2.8612   52.4968   26.3842 H   0  0  0  0  0  0
    0.9765   51.3064   25.6688 H   0  0  0  0  0  0
    0.3362   52.8955   26.1025 H   0  0  0  0  0  0
   -1.3113   51.5219   29.2366 H   0  0  0  0  0  0
    0.4291   51.4421   29.4215 H   0  0  0  0  0  0
   -0.8927   53.8797   28.0821 H   0  0  0  0  0  0
   -0.7083   53.7757   29.8026 H   0  0  0  0  0  0
   -2.1520   50.4308   27.3581 H   0  0  0  0  0  0
   -2.0450   52.0524   26.6432 H   0  0  0  0  0  0
   -1.9065   52.2382   24.2362 H   0  0  0  0  0  0
   -1.4936   51.2433   22.0204 H   0  0  0  0  0  0
   -0.4687   47.5143   23.8709 H   0  0  0  0  0  0
   -0.8955   48.4819   26.0867 H   0  0  0  0  0  0
    3.7889   54.4106   25.8954 H   0  0  0  0  0  0
    7.4634   55.1971   23.5392 H   0  0  0  0  0  0
    4.9418   54.5008   20.1730 H   0  0  0  0  0  0
    3.1073   53.7959   21.6679 H   0  0  0  0  0  0
   -0.2162   51.2965   27.4181 N   0  3  1  0  0  0
    0.1248   50.3537   27.5667 H   0  0  0  0  0  0
  1  2  1  0  0  0
  1 36  1  0  0  0
  1 37  1  0  0  0
  1 38  1  0  0  0
  2  3  1  0  0  0
  2  4  1  0  0  0
  2 25  1  0  0  0
  4  8  1  0  0  0
  4  5  2  0  0  0
  5  6  1  0  0  0
  6  7  2  0  0  0
  7 12  1  0  0  0
  7  8  1  0  0  0
  8  9  1  0  0  0
  9 10  1  0  0  0
  9 39  1  0  0  0
  9 40  1  0  0  0
 10 41  1  0  0  0
 10 42  1  0  0  0
 10 57  1  0  0  0
 11 12  1  0  0  0
 11 43  1  0  0  0
 11 44  1  0  0  0
 11 57  1  0  0  0
 12 45  1  0  0  0
 12 46  1  0  0  0
 13 14  1  0  0  0
 13 47  1  0  0  0
 13 48  1  0  0  0
 13 57  1  0  0  0
 14 19  2  0  0  0
 14 15  1  0  0  0
 15 16  2  0  0  0
 15 49  1  0  0  0
 16 17  1  0  0  0
 16 50  1  0  0  0
 17 18  2  0  0  0
 17 20  1  0  0  0
 18 19  1  0  0  0
 18 51  1  0  0  0
 19 52  1  0  0  0
 20 21  1  0  0  0
 21 22  1  0  0  0
 21 23  1  0  0  0
 21 24  1  0  0  0
 25 26  1  0  0  0
 25 53  1  0  0  0
 26 27  2  0  0  0
 26 28  1  0  0  0
 28 33  2  0  0  0
 28 29  1  0  0  0
 29 30  2  0  0  0
 29 54  1  0  0  0
 30 31  1  0  0  0
 30 35  1  0  0  0
 31 32  2  0  0  0
 31 55  1  0  0  0
 32 33  1  0  0  0
 32 56  1  0  0  0
 33 34  1  0  0  0
 57 58  1  0  0  0
M  CHG  1  57   1
M  END
> <i_i_glide_confnum>
143

> <i_i_glide_lignum>
5330

> <i_i_glide_posenum>
169

> <i_i_glide_rotatable_bonds>
8

> <i_m_Source_File_Index>
2423

> <b_m_subgroup_collapsed>
0

> <r_i_docking_score>
-4.53266

> <r_i_glide_ecoul>
-4.1223

> <r_i_glide_eff_state_penalty>
0

> <r_i_glide_einternal>
9.89027

> <r_i_glide_emodel>
-51.7104

> <r_i_glide_energy>
-48.0096

> <r_i_glide_erotb>
0.496436

> <r_i_glide_esite>
-0.067477

> <r_i_glide_evdw>
-43.8873

> <r_i_glide_gscore>
-4.53266

> <r_i_glide_hbond>
-0.230055

> <r_i_glide_ligand_efficiency>
-0.129505

> <r_i_glide_ligand_efficiency_ln>
-0.995019

> <r_i_glide_ligand_efficiency_sa>
-0.423618

> <r_i_glide_lipo>
-1.9021

> <r_i_glide_metal>
0

> <r_i_glide_rewards>
-0.0167587

> <s_i_glide_gridfile>
wee1_glide-grid

> <s_m_Source_File>
wee1_decoys_glide_SP.sdf

> <s_m_Source_Path>
/Users/zhangxujun/Desktop

> <s_m_entry_id>
2698

> <s_m_entry_name>
wee1_decoys_glide_SP.2423

> <s_m_subgroup_title>
wee1_decoys_glide_SP

> <s_m_subgroupid>
wee1_decoys_glide_SP


$$$$
