ZINC65380893_6215
                    3D
 Schrodinger Suite 2024-2.
 54 56  0  0  1  0            999 V2000
    3.2902   53.9231   26.8439 C   0  0  0  0  0  0
    4.2938   54.0970   25.7177 C   0  0  0  0  0  0
    5.6361   54.4359   25.8925 C   0  0  0  0  0  0
    6.4928   54.5941   24.3710 S   0  0  0  0  0  0
    5.0812   54.0966   23.4784 C   0  0  0  0  0  0
    3.9615   53.8735   24.3330 C   0  0  0  0  0  0
    2.7781   53.4499   23.6685 C   0  0  0  0  0  0
    2.7569   53.3077   22.3144 N   0  0  0  0  0  0
    3.9042   53.5261   21.6300 C   0  0  0  0  0  0
    5.0899   53.9291   22.1515 N   0  0  0  0  0  0
    3.8883   53.2202   20.1303 C   0  0  0  0  0  0
    2.9180   52.0813   19.7276 C   0  0  0  0  0  0
    3.1044   51.6968   18.2521 N   0  3  0  0  0  0
    1.6252   53.0839   24.3909 N   0  0  0  0  0  0
    0.3976   52.6586   23.7185 C   0  0  0  0  0  0
    0.3937   51.1768   23.2638 C   0  0  2  0  0  0
    1.2666   51.0080   22.6308 H   0  0  0  0  0  0
   -0.8651   50.8289   22.4783 C   0  0  0  0  0  0
   -1.7902   50.0926   23.4414 C   0  0  0  0  0  0
   -2.9847   49.8725   23.2504 O   0  0  0  0  0  0
   -1.0126   49.7267   24.4848 N   0  0  0  0  0  0
    0.3773   50.1657   24.4028 C   0  0  0  0  0  0
   -1.4572   48.8052   25.5352 C   0  0  0  0  0  0
   -1.2928   47.3067   25.1866 C   0  0  0  0  0  0
   -2.1179   46.8309   24.1252 O   0  0  0  0  0  0
   -3.5036   46.7589   24.4351 C   0  0  0  0  0  0
    6.3889   54.6661   27.1860 C   0  0  0  0  0  0
    2.3796   54.4966   26.6760 H   0  0  0  0  0  0
    3.6770   54.2504   27.8087 H   0  0  0  0  0  0
    3.0005   52.8791   26.9650 H   0  0  0  0  0  0
    3.6307   54.1408   19.6048 H   0  0  0  0  0  0
    4.8993   52.9415   19.8263 H   0  0  0  0  0  0
    3.0977   51.1513   20.2688 H   0  0  0  0  0  0
    1.8700   52.3740   19.8126 H   0  0  0  0  0  0
    2.4254   51.0051   17.9674 H   0  0  0  0  0  0
    3.0295   52.5001   17.6461 H   0  0  0  0  0  0
    1.7174   52.9118   25.3823 H   0  0  0  0  0  0
   -0.4529   52.8753   24.3674 H   0  0  0  0  0  0
    0.2550   53.2966   22.8461 H   0  0  0  0  0  0
   -1.3620   51.6959   22.0425 H   0  0  0  0  0  0
   -0.6385   50.1357   21.6674 H   0  0  0  0  0  0
    1.0012   49.3053   24.1564 H   0  0  0  0  0  0
    0.7641   50.5729   25.3374 H   0  0  0  0  0  0
   -0.9700   49.0333   26.4817 H   0  0  0  0  0  0
   -2.5144   49.0018   25.7101 H   0  0  0  0  0  0
   -0.2602   47.1319   24.8821 H   0  0  0  0  0  0
   -1.4421   46.6985   26.0802 H   0  0  0  0  0  0
   -4.0370   46.3228   23.5913 H   0  0  0  0  0  0
   -3.6853   46.1283   25.3064 H   0  0  0  0  0  0
   -3.9374   47.7410   24.6227 H   0  0  0  0  0  0
    6.0147   54.0371   27.9950 H   0  0  0  0  0  0
    7.4524   54.4381   27.0937 H   0  0  0  0  0  0
    6.3083   55.6967   27.5248 H   0  0  0  0  0  0
    4.0249   51.2580   18.1109 H   0  0  0  0  0  0
  1  2  1  0  0  0
  1 28  1  0  0  0
  1 29  1  0  0  0
  1 30  1  0  0  0
  2  6  1  0  0  0
  2  3  2  0  0  0
  3  4  1  0  0  0
  3 27  1  0  0  0
  4  5  1  0  0  0
  5 10  2  0  0  0
  5  6  1  0  0  0
  6  7  2  0  0  0
  7  8  1  0  0  0
  7 14  1  0  0  0
  8  9  2  0  0  0
  9 10  1  0  0  0
  9 11  1  0  0  0
 11 12  1  0  0  0
 11 31  1  0  0  0
 11 32  1  0  0  0
 12 13  1  0  0  0
 12 33  1  0  0  0
 12 34  1  0  0  0
 13 35  1  0  0  0
 13 36  1  0  0  0
 13 54  1  0  0  0
 14 15  1  0  0  0
 14 37  1  0  0  0
 15 16  1  0  0  0
 15 38  1  0  0  0
 15 39  1  0  0  0
 16 17  1  0  0  0
 16 22  1  0  0  0
 16 18  1  0  0  0
 18 19  1  0  0  0
 18 40  1  0  0  0
 18 41  1  0  0  0
 19 20  2  0  0  0
 19 21  1  0  0  0
 21 22  1  0  0  0
 21 23  1  0  0  0
 22 42  1  0  0  0
 22 43  1  0  0  0
 23 24  1  0  0  0
 23 44  1  0  0  0
 23 45  1  0  0  0
 24 25  1  0  0  0
 24 46  1  0  0  0
 24 47  1  0  0  0
 25 26  1  0  0  0
 26 48  1  0  0  0
 26 49  1  0  0  0
 26 50  1  0  0  0
 27 51  1  0  0  0
 27 52  1  0  0  0
 27 53  1  0  0  0
M  CHG  1  13   1
M  END
> <i_i_glide_confnum>
129

> <i_i_glide_lignum>
6216

> <i_i_glide_posenum>
280

> <i_i_glide_rotatable_bonds>
8

> <i_m_Source_File_Index>
984

> <b_m_subgroup_collapsed>
0

> <r_i_docking_score>
-5.67536

> <r_i_glide_ecoul>
-7.47455

> <r_i_glide_eff_state_penalty>
0

> <r_i_glide_einternal>
6.61285

> <r_i_glide_emodel>
-57.1471

> <r_i_glide_energy>
-41.085

> <r_i_glide_erotb>
0.811601

> <r_i_glide_esite>
-0.122735

> <r_i_glide_evdw>
-33.6105

> <r_i_glide_gscore>
-5.67536

> <r_i_glide_hbond>
-0.2

> <r_i_glide_ligand_efficiency>
-0.218283

> <r_i_glide_ligand_efficiency_ln>
-1.33284

> <r_i_glide_ligand_efficiency_sa>
-0.646662

> <r_i_glide_lipo>
-2.28996

> <r_i_glide_metal>
0

> <r_i_glide_rewards>
-1.07256

> <s_i_glide_gridfile>
wee1_glide-grid

> <s_m_Source_File>
wee1_decoys_glide_SP.sdf

> <s_m_Source_Path>
/Users/zhangxujun/Desktop

> <s_m_entry_id>
1259

> <s_m_entry_name>
wee1_decoys_glide_SP.984

> <s_m_subgroup_title>
wee1_decoys_glide_SP

> <s_m_subgroupid>
wee1_decoys_glide_SP


$$$$
