ZINC32527496_4280
                    3D
 Schrodinger Suite 2024-2.
 58 61  0  0  1  0            999 V2000
    6.7109   55.0144   24.2967 C   0  0  0  0  0  0
    5.3375   54.5274   24.7164 C   0  0  0  0  0  0
    4.3612   54.2663   23.7653 C   0  0  0  0  0  0
    3.0833   53.8298   24.1278 C   0  0  0  0  0  0
    2.7835   53.5628   25.4980 C   0  0  0  0  0  0
    3.7746   53.9075   26.4583 C   0  0  0  0  0  0
    5.0348   54.3693   26.0602 C   0  0  0  0  0  0
    3.4360   53.7932   27.9006 C   0  0  0  0  0  0
    2.2192   53.3362   28.2516 C   0  0  0  0  0  0
    1.2405   52.8050   27.3291 C   0  0  0  0  0  0
    0.2351   52.2510   27.7766 O   0  0  0  0  0  0
    1.5921   52.8986   26.0006 N   0  0  0  0  0  0
    0.7113   52.1239   25.0912 C   0  0  0  0  0  0
   -0.6976   52.7327   24.8362 C   0  0  0  0  0  0
   -1.6179   51.9409   23.9036 C   0  0  0  0  0  0
   -2.2733   52.5496   23.0600 O   0  0  0  0  0  0
   -1.6536   50.6118   24.1114 N   0  0  0  0  0  0
   -2.4882   49.6491   23.5481 C   0  0  0  0  0  0
   -2.4244   48.2730   23.8309 C   0  0  0  0  0  0
   -3.4603   47.5466   23.1771 C   0  0  0  0  0  0
   -4.2840   48.3813   22.4017 C   0  0  0  0  0  0
   -3.8170   50.0415   22.4908 S   0  0  0  0  0  0
   -5.4924   47.9271   21.5964 C   0  0  0  0  0  0
   -5.3931   46.4089   21.3554 C   0  0  0  0  0  0
   -5.0815   45.6534   22.6565 C   0  0  0  0  0  0
   -3.7044   46.0330   23.2499 C   0  0  0  0  0  0
   -1.3506   47.6972   24.6178 C   0  0  0  0  0  0
   -0.1863   48.0632   24.4810 O   0  0  0  0  0  0
   -1.6956   46.7835   25.5247 N   0  0  0  0  0  0
    4.4453   54.2463   28.9517 C   0  0  0  0  0  0
    2.0843   53.7988   22.9736 C   0  0  0  0  0  0
    6.8093   56.0863   24.4677 H   0  0  0  0  0  0
    7.4784   54.5055   24.8797 H   0  0  0  0  0  0
    6.9190   54.7983   23.2496 H   0  0  0  0  0  0
    4.5898   54.4516   22.7238 H   0  0  0  0  0  0
    5.7938   54.6099   26.7894 H   0  0  0  0  0  0
    1.9552   53.2788   29.2969 H   0  0  0  0  0  0
    0.5950   51.1155   25.4979 H   0  0  0  0  0  0
    1.2120   51.8991   24.1564 H   0  0  0  0  0  0
   -0.6033   53.7495   24.4740 H   0  0  0  0  0  0
   -1.2146   52.8967   25.7813 H   0  0  0  0  0  0
   -0.9868   50.2390   24.7727 H   0  0  0  0  0  0
   -5.5596   48.4579   20.6458 H   0  0  0  0  0  0
   -6.4061   48.1530   22.1464 H   0  0  0  0  0  0
   -4.6178   46.2001   20.6138 H   0  0  0  0  0  0
   -6.3287   46.0449   20.9258 H   0  0  0  0  0  0
   -5.1214   44.5772   22.4828 H   0  0  0  0  0  0
   -5.8643   45.8666   23.3865 H   0  0  0  0  0  0
   -3.6776   45.6771   24.2782 H   0  0  0  0  0  0
   -2.9121   45.5147   22.7071 H   0  0  0  0  0  0
   -0.9656   46.4968   26.1694 H   0  0  0  0  0  0
   -2.6578   46.7034   25.8155 H   0  0  0  0  0  0
    4.7050   55.2968   28.8163 H   0  0  0  0  0  0
    4.0519   54.1339   29.9623 H   0  0  0  0  0  0
    5.3534   53.6436   28.8868 H   0  0  0  0  0  0
    2.3742   54.4940   22.1840 H   0  0  0  0  0  0
    2.0024   52.8121   22.5121 H   0  0  0  0  0  0
    1.1094   54.1591   23.2899 H   0  0  0  0  0  0
  1  2  1  0  0  0
  1 32  1  0  0  0
  1 33  1  0  0  0
  1 34  1  0  0  0
  2  7  2  0  0  0
  2  3  1  0  0  0
  3  4  2  0  0  0
  3 35  1  0  0  0
  4  5  1  0  0  0
  4 31  1  0  0  0
  5 12  1  0  0  0
  5  6  2  0  0  0
  6  7  1  0  0  0
  6  8  1  0  0  0
  7 36  1  0  0  0
  8  9  2  0  0  0
  8 30  1  0  0  0
  9 10  1  0  0  0
  9 37  1  0  0  0
 10 11  2  0  0  0
 10 12  1  0  0  0
 12 13  1  0  0  0
 13 14  1  0  0  0
 13 38  1  0  0  0
 13 39  1  0  0  0
 14 15  1  0  0  0
 14 40  1  0  0  0
 14 41  1  0  0  0
 15 16  2  0  0  0
 15 17  1  0  0  0
 17 18  1  0  0  0
 17 42  1  0  0  0
 18 22  1  0  0  0
 18 19  2  0  0  0
 19 20  1  0  0  0
 19 27  1  0  0  0
 20 26  1  0  0  0
 20 21  2  0  0  0
 21 22  1  0  0  0
 21 23  1  0  0  0
 23 24  1  0  0  0
 23 43  1  0  0  0
 23 44  1  0  0  0
 24 25  1  0  0  0
 24 45  1  0  0  0
 24 46  1  0  0  0
 25 26  1  0  0  0
 25 47  1  0  0  0
 25 48  1  0  0  0
 26 49  1  0  0  0
 26 50  1  0  0  0
 27 28  2  0  0  0
 27 29  1  0  0  0
 29 51  1  0  0  0
 29 52  1  0  0  0
 30 53  1  0  0  0
 30 54  1  0  0  0
 30 55  1  0  0  0
 31 56  1  0  0  0
 31 57  1  0  0  0
 31 58  1  0  0  0
M  END
> <i_i_glide_confnum>
154

> <i_i_glide_lignum>
4281

> <i_i_glide_posenum>
297

> <i_i_glide_rotatable_bonds>
6

> <i_m_Source_File_Index>
5994

> <b_m_subgroup_collapsed>
0

> <r_i_docking_score>
-5.89921

> <r_i_glide_ecoul>
-3.20437

> <r_i_glide_eff_state_penalty>
0

> <r_i_glide_einternal>
7.94566

> <r_i_glide_emodel>
-52.8784

> <r_i_glide_energy>
-41.3681

> <r_i_glide_erotb>
0.52081

> <r_i_glide_esite>
-0.16425

> <r_i_glide_evdw>
-38.1637

> <r_i_glide_gscore>
-5.89921

> <r_i_glide_hbond>
-0.32

> <r_i_glide_ligand_efficiency>
-0.190297

> <r_i_glide_ligand_efficiency_ln>
-1.33045

> <r_i_glide_ligand_efficiency_sa>
-0.597796

> <r_i_glide_lipo>
-2.77932

> <r_i_glide_metal>
0

> <r_i_glide_rewards>
-0.767614

> <s_i_glide_gridfile>
wee1_glide-grid

> <s_m_Source_File>
wee1_decoys_glide_SP.sdf

> <s_m_Source_Path>
/Users/zhangxujun/Desktop

> <s_m_entry_id>
6269

> <s_m_entry_name>
wee1_decoys_glide_SP.5994

> <s_m_subgroup_title>
wee1_decoys_glide_SP

> <s_m_subgroupid>
wee1_decoys_glide_SP


$$$$
