ZINC21000865_4938
                    3D
 Schrodinger Suite 2024-2.
 61 64  0  0  1  0            999 V2000
   10.7145   55.7664   15.8522 C   0  0  0  0  0  0
   10.2898   55.0849   17.1697 C   0  0  0  0  0  0
    9.9771   53.5696   17.0705 C   0  0  2  0  0  0
    9.8637   53.2172   18.0943 H   0  0  0  0  0  0
   11.1405   52.7698   16.4259 C   0  0  0  0  0  0
   10.8491   51.2509   16.3586 C   0  0  0  0  0  0
    9.4276   50.9231   15.8540 C   0  0  0  0  0  0
    8.3577   51.7946   16.5423 C   0  0  0  0  0  0
    8.6906   53.2354   16.3592 N   0  0  0  0  0  0
    7.2655   54.3302   16.2998 S   0  0  0  0  0  0
    6.2578   53.6882   15.4474 O   0  0  0  0  0  0
    7.6859   55.7022   15.9932 O   0  0  0  0  0  0
    6.5783   54.3444   17.9601 C   0  0  0  0  0  0
    6.8966   55.3592   18.8658 C   0  0  0  0  0  0
    6.3711   55.3256   20.1565 C   0  0  0  0  0  0
    5.5112   54.2918   20.5479 C   0  0  0  0  0  0
    5.1750   53.2949   19.6199 C   0  0  0  0  0  0
    5.7069   53.3234   18.3363 C   0  0  0  0  0  0
    5.0074   54.2286   21.9706 C   0  0  0  0  0  0
    5.7414   54.5978   22.8905 O   0  0  0  0  0  0
    3.7459   53.7600   22.1063 N   0  0  0  0  0  0
    3.0092   53.5320   23.2711 C   0  0  0  0  0  0
    1.7811   52.8414   23.3579 C   0  0  0  0  0  0
    1.2789   52.8633   24.6734 C   0  0  0  0  0  0
    2.1212   53.4337   25.6241 C   0  0  0  0  0  0
    3.5290   54.0930   24.8480 S   0  0  0  0  0  0
    1.9330   53.5265   27.1095 C   0  0  0  0  0  0
    1.0608   52.6290   27.7424 C   0  0  0  0  0  0
    0.8346   52.7108   29.1134 C   0  0  0  0  0  0
    1.4755   53.6958   29.8598 C   0  0  0  0  0  0
    2.3515   54.5894   29.2484 C   0  0  0  0  0  0
    2.5866   54.4990   27.8786 C   0  0  0  0  0  0
    1.0268   52.2363   22.2732 C   0  0  0  0  0  0
   -0.1951   52.1057   22.3168 O   0  0  0  0  0  0
    1.7344   51.7999   21.2288 N   0  0  0  0  0  0
   10.6859   56.8542   15.9454 H   0  0  0  0  0  0
   11.7327   55.5005   15.5830 H   0  0  0  0  0  0
   10.0702   55.4896   15.0177 H   0  0  0  0  0  0
    9.4673   55.6296   17.6261 H   0  0  0  0  0  0
   11.0938   55.2152   17.8964 H   0  0  0  0  0  0
   12.0549   52.9107   17.0064 H   0  0  0  0  0  0
   11.3151   53.1215   15.4084 H   0  0  0  0  0  0
   10.9810   50.8204   17.3476 H   0  0  0  0  0  0
   11.5896   50.7678   15.7221 H   0  0  0  0  0  0
    9.2136   49.8655   16.0267 H   0  0  0  0  0  0
    9.3700   51.0667   14.7704 H   0  0  0  0  0  0
    8.3661   51.5668   17.6162 H   0  0  0  0  0  0
    7.3684   51.5831   16.1399 H   0  0  0  0  0  0
    7.5507   56.1704   18.5799 H   0  0  0  0  0  0
    6.6431   56.1031   20.8556 H   0  0  0  0  0  0
    4.5396   52.4619   19.8791 H   0  0  0  0  0  0
    5.4648   52.5158   17.6536 H   0  0  0  0  0  0
    3.2625   53.5418   21.2464 H   0  0  0  0  0  0
    0.3297   52.4176   24.9373 H   0  0  0  0  0  0
    0.5497   51.8611   27.1791 H   0  0  0  0  0  0
    0.1586   52.0175   29.5934 H   0  0  0  0  0  0
    1.2885   53.7623   30.9200 H   0  0  0  0  0  0
    2.8394   55.3563   29.8297 H   0  0  0  0  0  0
    3.2601   55.2059   27.4169 H   0  0  0  0  0  0
    1.2446   51.4024   20.4415 H   0  0  0  0  0  0
    2.7342   51.7047   21.2963 H   0  0  0  0  0  0
  1  2  1  0  0  0
  1 36  1  0  0  0
  1 37  1  0  0  0
  1 38  1  0  0  0
  2  3  1  0  0  0
  2 39  1  0  0  0
  2 40  1  0  0  0
  3  4  1  0  0  0
  3  9  1  0  0  0
  3  5  1  0  0  0
  5  6  1  0  0  0
  5 41  1  0  0  0
  5 42  1  0  0  0
  6  7  1  0  0  0
  6 43  1  0  0  0
  6 44  1  0  0  0
  7  8  1  0  0  0
  7 45  1  0  0  0
  7 46  1  0  0  0
  8  9  1  0  0  0
  8 47  1  0  0  0
  8 48  1  0  0  0
  9 10  1  0  0  0
 10 11  2  0  0  0
 10 12  2  0  0  0
 10 13  1  0  0  0
 13 18  2  0  0  0
 13 14  1  0  0  0
 14 15  2  0  0  0
 14 49  1  0  0  0
 15 16  1  0  0  0
 15 50  1  0  0  0
 16 17  2  0  0  0
 16 19  1  0  0  0
 17 18  1  0  0  0
 17 51  1  0  0  0
 18 52  1  0  0  0
 19 20  2  0  0  0
 19 21  1  0  0  0
 21 22  1  0  0  0
 21 53  1  0  0  0
 22 26  1  0  0  0
 22 23  2  0  0  0
 23 24  1  0  0  0
 23 33  1  0  0  0
 24 25  2  0  0  0
 24 54  1  0  0  0
 25 26  1  0  0  0
 25 27  1  0  0  0
 27 32  2  0  0  0
 27 28  1  0  0  0
 28 29  2  0  0  0
 28 55  1  0  0  0
 29 30  1  0  0  0
 29 56  1  0  0  0
 30 31  2  0  0  0
 30 57  1  0  0  0
 31 32  1  0  0  0
 31 58  1  0  0  0
 32 59  1  0  0  0
 33 34  2  0  0  0
 33 35  1  0  0  0
 35 60  1  0  0  0
 35 61  1  0  0  0
M  END
> <i_i_glide_confnum>
130

> <i_i_glide_lignum>
4939

> <i_i_glide_posenum>
368

> <i_i_glide_rotatable_bonds>
8

> <i_m_Source_File_Index>
1415

> <b_m_subgroup_collapsed>
0

> <r_i_docking_score>
-4.9461

> <r_i_glide_ecoul>
-2.58052

> <r_i_glide_eff_state_penalty>
0

> <r_i_glide_einternal>
11.3295

> <r_i_glide_emodel>
-58.2866

> <r_i_glide_energy>
-46.3009

> <r_i_glide_erotb>
0.494283

> <r_i_glide_esite>
-0.00374894

> <r_i_glide_evdw>
-43.7203

> <r_i_glide_gscore>
-4.9461

> <r_i_glide_hbond>
0

> <r_i_glide_ligand_efficiency>
-0.145474

> <r_i_glide_ligand_efficiency_ln>
-1.09273

> <r_i_glide_ligand_efficiency_sa>
-0.471278

> <r_i_glide_lipo>
-2.55073

> <r_i_glide_metal>
0

> <r_i_glide_rewards>
-0.312806

> <s_i_glide_gridfile>
wee1_glide-grid

> <s_m_Source_File>
wee1_decoys_glide_SP.sdf

> <s_m_Source_Path>
/Users/zhangxujun/Desktop

> <s_m_entry_id>
1690

> <s_m_entry_name>
wee1_decoys_glide_SP.1415

> <s_m_subgroup_title>
wee1_decoys_glide_SP

> <s_m_subgroupid>
wee1_decoys_glide_SP


$$$$
