ZINC20744942_6183
                    3D
 Schrodinger Suite 2024-2.
 28 30  0  0  1  0            999 V2000
    1.0520   52.0921   25.3483 C   0  0  0  0  0  0
    1.2663   52.8938   26.4670 C   0  0  0  0  0  0
    0.5084   52.7248   27.6403 C   0  0  0  0  0  0
   -0.4708   51.7108   27.6575 C   0  0  0  0  0  0
   -0.6641   50.8970   26.5410 C   0  0  0  0  0  0
    0.0905   51.0874   25.3876 C   0  0  0  0  0  0
   -0.1098   50.3001   24.3073 F   0  0  0  0  0  0
   -1.4848   51.4370   29.0323 Cl  0  0  0  0  0  0
    0.7036   53.6430   28.8645 C   0  0  1  0  0  0
   -0.3037   53.9731   29.1210 H   0  0  0  0  0  0
    1.2793   52.9313   30.0760 C   0  0  0  0  0  0
    0.6941   52.6509   31.2998 C   0  0  0  0  0  0
    1.6714   52.0972   32.0791 N   0  0  0  0  0  0
    1.5707   51.8600   33.0614 H   0  0  0  0  0  0
    2.8509   52.0345   31.4511 N   0  0  0  0  0  0
    2.5953   52.4579   30.2362 C   0  0  0  0  0  0
    3.5809   52.5155   29.2772 N   0  0  0  0  0  0
    3.9224   53.5793   28.5285 C   0  0  0  0  0  0
    4.6418   53.5100   27.5365 O   0  0  0  0  0  0
    3.2819   54.8958   28.9978 C   0  0  0  0  0  0
    1.5509   55.2340   28.4934 S   0  0  0  0  0  0
    1.6401   52.2394   24.4544 H   0  0  0  0  0  0
    2.0275   53.6546   26.3927 H   0  0  0  0  0  0
   -1.4015   50.1068   26.5754 H   0  0  0  0  0  0
   -0.3028   52.8213   31.6820 H   0  0  0  0  0  0
    3.9742   51.6439   28.9586 H   0  0  0  0  0  0
    3.3370   54.9541   30.0802 H   0  0  0  0  0  0
    3.9056   55.6965   28.6257 H   0  0  0  0  0  0
  1  6  2  0  0  0
  1  2  1  0  0  0
  1 22  1  0  0  0
  2  3  2  0  0  0
  2 23  1  0  0  0
  3  4  1  0  0  0
  3  9  1  0  0  0
  4  5  2  0  0  0
  4  8  1  0  0  0
  5  6  1  0  0  0
  5 24  1  0  0  0
  6  7  1  0  0  0
  9 10  1  0  0  0
  9 21  1  0  0  0
  9 11  1  0  0  0
 11 16  1  0  0  0
 11 12  2  0  0  0
 12 13  1  0  0  0
 12 25  1  0  0  0
 13 14  1  0  0  0
 13 15  1  0  0  0
 15 16  2  0  0  0
 16 17  1  0  0  0
 17 18  1  0  0  0
 17 26  1  0  0  0
 18 19  2  0  0  0
 18 20  1  0  0  0
 20 21  1  0  0  0
 20 27  1  0  0  0
 20 28  1  0  0  0
M  END
> <i_i_glide_confnum>
5

> <i_i_glide_lignum>
6184

> <i_i_glide_posenum>
393

> <i_i_glide_rotatable_bonds>
1

> <i_m_Source_File_Index>
145

> <b_m_subgroup_collapsed>
0

> <r_i_docking_score>
-5.43054

> <r_i_glide_ecoul>
-3.79176

> <r_i_glide_eff_state_penalty>
0

> <r_i_glide_einternal>
1.56932

> <r_i_glide_emodel>
-43.5636

> <r_i_glide_energy>
-33.2655

> <r_i_glide_erotb>
0.20689

> <r_i_glide_esite>
-0.0857026

> <r_i_glide_evdw>
-29.4738

> <r_i_glide_gscore>
-5.43054

> <r_i_glide_hbond>
-0.535893

> <r_i_glide_ligand_efficiency>
-0.285818

> <r_i_glide_ligand_efficiency_ln>
-1.37676

> <r_i_glide_ligand_efficiency_sa>
-0.762676

> <r_i_glide_lipo>
-1.27497

> <r_i_glide_metal>
0

> <r_i_glide_rewards>
-1.69841

> <s_i_glide_gridfile>
wee1_glide-grid

> <s_m_Source_File>
wee1_decoys_glide_SP.sdf

> <s_m_Source_Path>
/Users/zhangxujun/Desktop

> <s_m_entry_id>
420

> <s_m_entry_name>
wee1_decoys_glide_SP.145

> <s_m_subgroup_title>
wee1_decoys_glide_SP

> <s_m_subgroupid>
wee1_decoys_glide_SP


$$$$
