ZINC13719730_2753
                    3D
 Schrodinger Suite 2024-2.
 38 41  0  0  1  0            999 V2000
    0.6743   51.4017   28.0078 C   0  0  0  0  0  0
    1.9714   51.6966   28.4058 C   0  0  0  0  0  0
    2.3214   53.0046   28.7532 C   0  0  0  0  0  0
    1.3516   54.0070   28.7729 C   0  0  0  0  0  0
    0.0431   53.6943   28.4185 C   0  0  0  0  0  0
   -0.2876   52.3990   28.0197 C   0  0  0  0  0  0
   -1.5458   52.0967   27.6286 F   0  0  0  0  0  0
    4.0124   53.3871   29.2144 S   0  0  0  0  0  0
    4.7044   52.0967   29.2755 O   0  0  0  0  0  0
    3.8324   54.0850   30.4817 O   0  0  0  0  0  0
    4.5684   54.3698   28.1241 N   0  5  0  0  0  0
    4.5957   54.2475   26.7899 C   0  0  0  0  0  0
    5.5853   54.6910   26.0660 N   0  0  0  0  0  0
    5.3719   54.4968   24.7422 C   0  0  0  0  0  0
    6.3043   54.7687   23.7349 C   0  0  0  0  0  0
    5.9488   54.4968   22.4125 C   0  0  0  0  0  0
    4.6876   53.9787   22.0767 C   0  0  0  0  0  0
    3.7453   53.7193   23.0785 C   0  0  0  0  0  0
    4.1026   53.9758   24.4042 C   0  0  0  0  0  0
    3.1998   53.6967   25.8734 S   0  0  0  0  0  0
    4.3257   53.6572   20.6499 C   0  0  0  0  0  0
    3.5739   52.7104   20.4075 O   0  0  0  0  0  0
    4.8314   54.4965   19.7213 N   0  0  0  0  0  0
    4.6142   54.4024   18.3570 C   0  0  0  0  0  0
    4.3880   53.3064   17.6663 N   0  0  0  0  0  0
    4.2262   53.5703   16.3850 C   0  0  0  0  0  0
    4.3200   54.9105   16.0152 C   0  0  0  0  0  0
    4.6407   55.8680   17.4320 S   0  0  0  0  0  0
    0.4022   50.4086   27.6824 H   0  0  0  0  0  0
    2.7039   50.9072   28.4149 H   0  0  0  0  0  0
    1.6160   55.0169   29.0536 H   0  0  0  0  0  0
   -0.7039   54.4677   28.4049 H   0  0  0  0  0  0
    7.2813   55.1596   23.9770 H   0  0  0  0  0  0
    6.6836   54.6866   21.6423 H   0  0  0  0  0  0
    2.7728   53.3082   22.8403 H   0  0  0  0  0  0
    5.2166   55.3645   20.0556 H   0  0  0  0  0  0
    4.0365   52.7452   15.7132 H   0  0  0  0  0  0
    4.2240   55.3584   15.0373 H   0  0  0  0  0  0
  1  6  2  0  0  0
  1  2  1  0  0  0
  1 29  1  0  0  0
  2  3  2  0  0  0
  2 30  1  0  0  0
  3  4  1  0  0  0
  3  8  1  0  0  0
  4  5  2  0  0  0
  4 31  1  0  0  0
  5  6  1  0  0  0
  5 32  1  0  0  0
  6  7  1  0  0  0
  8  9  2  0  0  0
  8 10  2  0  0  0
  8 11  1  0  0  0
 11 12  1  0  0  0
 12 20  1  0  0  0
 12 13  2  0  0  0
 13 14  1  0  0  0
 14 19  2  0  0  0
 14 15  1  0  0  0
 15 16  2  0  0  0
 15 33  1  0  0  0
 16 17  1  0  0  0
 16 34  1  0  0  0
 17 18  2  0  0  0
 17 21  1  0  0  0
 18 19  1  0  0  0
 18 35  1  0  0  0
 19 20  1  0  0  0
 21 22  2  0  0  0
 21 23  1  0  0  0
 23 24  1  0  0  0
 23 36  1  0  0  0
 24 28  1  0  0  0
 24 25  2  0  0  0
 25 26  1  0  0  0
 26 27  2  0  0  0
 26 37  1  0  0  0
 27 28  1  0  0  0
 27 38  1  0  0  0
M  CHG  1  11  -1
M  END
> <i_i_glide_confnum>
92

> <i_i_glide_lignum>
2754

> <i_i_glide_posenum>
380

> <i_i_glide_rotatable_bonds>
6

> <i_m_Source_File_Index>
1885

> <b_m_subgroup_collapsed>
0

> <r_i_docking_score>
-4.67298

> <r_i_glide_ecoul>
-6.07086

> <r_i_glide_eff_state_penalty>
0

> <r_i_glide_einternal>
7.94029

> <r_i_glide_emodel>
-47.0492

> <r_i_glide_energy>
-42.1521

> <r_i_glide_erotb>
0.63566

> <r_i_glide_esite>
-0.0711092

> <r_i_glide_evdw>
-36.0812

> <r_i_glide_gscore>
-4.67298

> <r_i_glide_hbond>
0

> <r_i_glide_ligand_efficiency>
-0.166892

> <r_i_glide_ligand_efficiency_ln>
-1.07866

> <r_i_glide_ligand_efficiency_sa>
-0.506783

> <r_i_glide_lipo>
-2.58528

> <r_i_glide_metal>
0

> <r_i_glide_rewards>
0.0624368

> <s_i_glide_gridfile>
wee1_glide-grid

> <s_m_Source_File>
wee1_decoys_glide_SP.sdf

> <s_m_Source_Path>
/Users/zhangxujun/Desktop

> <s_m_entry_id>
2160

> <s_m_entry_name>
wee1_decoys_glide_SP.1885

> <s_m_subgroup_title>
wee1_decoys_glide_SP

> <s_m_subgroupid>
wee1_decoys_glide_SP


$$$$
