ZINC39448854_4996
                    3D
 Schrodinger Suite 2024-2.
 56 60  0  0  1  0            999 V2000
   -0.0247   52.2693   29.6593 C   0  0  0  0  0  0
    0.5513   52.8238   28.5222 C   0  0  0  0  0  0
   -0.0453   52.6223   27.2796 C   0  0  0  0  0  0
   -1.2234   51.8704   27.1420 C   0  0  0  0  0  0
   -1.7904   51.2970   28.2958 C   0  0  0  0  0  0
   -1.1861   51.5106   29.5408 C   0  0  0  0  0  0
   -3.0734   50.4963   28.1639 C   0  0  0  0  0  0
   -4.3114   51.2681   27.7074 C   0  0  0  0  0  0
   -4.2247   52.2206   26.5107 C   0  0  0  0  0  0
   -5.3724   52.9849   26.2628 C   0  0  0  0  0  0
   -5.4180   53.9138   25.2359 C   0  0  0  0  0  0
   -4.3105   54.0812   24.4219 C   0  0  0  0  0  0
   -3.1790   53.2966   24.6126 C   0  0  0  0  0  0
   -3.0866   52.3698   25.6653 C   0  0  0  0  0  0
   -1.8832   51.6483   25.9093 N   0  0  0  0  0  0
   -1.2914   50.9041   24.9173 C   0  0  0  0  0  0
   -1.7979   50.7673   23.8000 O   0  0  0  0  0  0
    0.0741   50.2185   25.1814 C   0  0  0  0  0  0
    0.7030   49.1342   23.8442 S   0  0  0  0  0  0
    1.4573   50.2555   22.6334 C   0  0  0  0  0  0
    1.3734   51.6220   22.8496 N   0  0  0  0  0  0
    2.1642   52.6515   22.1393 C   0  0  2  0  0  0
    1.4956   53.4587   21.8328 H   0  0  0  0  0  0
    2.5940   51.9809   20.8935 N   0  3  0  0  0  0
    2.5815   50.6460   20.7610 C   0  0  0  0  0  0
    2.0665   49.7794   21.6313 N   0  0  0  0  0  0
    3.1044   50.0979   19.6814 N   0  0  0  0  0  0
    3.2763   53.3141   22.9616 C   0  0  0  0  0  0
    3.0088   53.7331   24.2717 C   0  0  0  0  0  0
    4.0096   54.3194   25.0455 C   0  0  0  0  0  0
    5.2857   54.4973   24.5114 C   0  0  0  0  0  0
    5.5614   54.1001   23.2050 C   0  0  0  0  0  0
    4.5592   53.5226   22.4294 C   0  0  0  0  0  0
    6.5299   55.2192   25.4691 Cl  0  0  0  0  0  0
    0.4225   52.4174   30.6322 H   0  0  0  0  0  0
    1.4543   53.4099   28.6017 H   0  0  0  0  0  0
    0.4114   53.0643   26.4060 H   0  0  0  0  0  0
   -1.6181   51.0708   30.4308 H   0  0  0  0  0  0
   -3.2940   49.9912   29.1058 H   0  0  0  0  0  0
   -2.8962   49.6966   27.4476 H   0  0  0  0  0  0
   -4.6703   51.8416   28.5627 H   0  0  0  0  0  0
   -5.0895   50.5385   27.4836 H   0  0  0  0  0  0
   -6.2449   52.8607   26.8892 H   0  0  0  0  0  0
   -6.3104   54.4962   25.0684 H   0  0  0  0  0  0
   -4.3351   54.8105   23.6281 H   0  0  0  0  0  0
   -2.3346   53.4423   23.9532 H   0  0  0  0  0  0
    0.8377   50.9615   25.4022 H   0  0  0  0  0  0
   -0.0309   49.5920   26.0678 H   0  0  0  0  0  0
    3.7294   50.5763   19.0348 H   0  0  0  0  0  0
    3.0208   49.0957   19.6049 H   0  0  0  0  0  0
    2.0263   53.6016   24.6969 H   0  0  0  0  0  0
    3.7976   54.6323   26.0577 H   0  0  0  0  0  0
    6.5505   54.2447   22.7942 H   0  0  0  0  0  0
    4.7988   53.2242   21.4189 H   0  0  0  0  0  0
    0.6322   51.9837   23.4325 H   0  0  0  0  0  0
    2.8663   52.5313   20.0959 H   0  0  0  0  0  0
  1  6  2  0  0  0
  1  2  1  0  0  0
  1 35  1  0  0  0
  2  3  2  0  0  0
  2 36  1  0  0  0
  3  4  1  0  0  0
  3 37  1  0  0  0
  4 15  1  0  0  0
  4  5  2  0  0  0
  5  6  1  0  0  0
  5  7  1  0  0  0
  6 38  1  0  0  0
  7  8  1  0  0  0
  7 39  1  0  0  0
  7 40  1  0  0  0
  8  9  1  0  0  0
  8 41  1  0  0  0
  8 42  1  0  0  0
  9 14  2  0  0  0
  9 10  1  0  0  0
 10 11  2  0  0  0
 10 43  1  0  0  0
 11 12  1  0  0  0
 11 44  1  0  0  0
 12 13  2  0  0  0
 12 45  1  0  0  0
 13 14  1  0  0  0
 13 46  1  0  0  0
 14 15  1  0  0  0
 15 16  1  0  0  0
 16 17  2  0  0  0
 16 18  1  0  0  0
 18 19  1  0  0  0
 18 47  1  0  0  0
 18 48  1  0  0  0
 19 20  1  0  0  0
 20 26  2  0  0  0
 20 21  1  0  0  0
 21 22  1  0  0  0
 21 55  1  0  0  0
 22 23  1  0  0  0
 22 24  1  0  0  0
 22 28  1  0  0  0
 24 25  2  0  0  0
 24 56  1  0  0  0
 25 26  1  0  0  0
 25 27  1  0  0  0
 27 49  1  0  0  0
 27 50  1  0  0  0
 28 33  2  0  0  0
 28 29  1  0  0  0
 29 30  2  0  0  0
 29 51  1  0  0  0
 30 31  1  0  0  0
 30 52  1  0  0  0
 31 32  2  0  0  0
 31 34  1  0  0  0
 32 33  1  0  0  0
 32 53  1  0  0  0
 33 54  1  0  0  0
M  CHG  1  24   1
M  END
> <i_i_glide_confnum>
141

> <i_i_glide_lignum>
4997

> <i_i_glide_posenum>
343

> <i_i_glide_rotatable_bonds>
5

> <i_m_Source_File_Index>
1271

> <b_m_subgroup_collapsed>
0

> <r_i_docking_score>
-5.06827

> <r_i_glide_ecoul>
-4.56261

> <r_i_glide_eff_state_penalty>
0

> <r_i_glide_einternal>
4.45304

> <r_i_glide_emodel>
-53.751

> <r_i_glide_energy>
-39.1533

> <r_i_glide_erotb>
0.356065

> <r_i_glide_esite>
-0.122467

> <r_i_glide_evdw>
-34.5907

> <r_i_glide_gscore>
-5.06827

> <r_i_glide_hbond>
-0.160957

> <r_i_glide_ligand_efficiency>
-0.153584

> <r_i_glide_ligand_efficiency_ln>
-1.12716

> <r_i_glide_ligand_efficiency_sa>
-0.492626

> <r_i_glide_lipo>
-2.22755

> <r_i_glide_metal>
0

> <r_i_glide_rewards>
-0.499436

> <s_i_glide_gridfile>
wee1_glide-grid

> <s_m_Source_File>
wee1_decoys_glide_SP.sdf

> <s_m_Source_Path>
/Users/zhangxujun/Desktop

> <s_m_entry_id>
1546

> <s_m_entry_name>
wee1_decoys_glide_SP.1271

> <s_m_subgroup_title>
wee1_decoys_glide_SP

> <s_m_subgroupid>
wee1_decoys_glide_SP


$$$$
