ZINC39992580_950
                    3D
 Schrodinger Suite 2024-2.
 56 59  0  0  1  0            999 V2000
   -4.1843   50.2800   29.5354 C   0  0  0  0  0  0
   -5.0571   50.5495   30.5848 C   0  0  0  0  0  0
   -6.2009   51.3079   30.3463 C   0  0  0  0  0  0
   -6.4896   51.7698   29.0640 C   0  0  0  0  0  0
   -5.6086   51.5034   28.0181 C   0  0  0  0  0  0
   -4.4368   50.7740   28.2522 C   0  0  0  0  0  0
   -3.4299   50.5104   27.2008 C   0  0  0  0  0  0
   -3.0510   51.3333   26.1917 C   0  0  0  0  0  0
   -3.5900   52.6474   26.0054 C   0  0  0  0  0  0
   -4.0686   53.6898   25.8375 N   0  0  0  0  0  0
   -2.0510   50.8739   25.2428 C   0  0  0  0  0  0
   -2.0071   49.7018   24.8727 O   0  0  0  0  0  0
   -1.1812   51.8275   24.8321 N   0  0  0  0  0  0
   -0.1797   51.6866   23.8651 C   0  0  0  0  0  0
    1.0616   52.3636   23.7998 C   0  0  0  0  0  0
    1.6962   52.1715   22.5371 C   0  0  0  0  0  0
    1.0233   51.2334   21.7390 C   0  0  0  0  0  0
   -0.4350   50.6741   22.4680 S   0  0  0  0  0  0
    1.5157   50.6863   20.4057 C   0  0  0  0  0  0
    2.6128   51.6106   19.8445 C   0  0  0  0  0  0
    3.6493   51.9755   20.9191 C   0  0  0  0  0  0
    3.0211   52.7976   22.0674 C   0  0  0  0  0  0
    1.5944   53.2422   24.8312 C   0  0  0  0  0  0
    2.2974   54.2135   24.5551 O   0  0  0  0  0  0
    1.2966   52.8831   26.0949 N   0  0  0  0  0  0
    1.7436   53.5694   27.3116 C   0  0  0  0  0  0
    3.1825   53.2023   27.7445 C   0  0  1  0  0  0
    3.3587   52.1272   27.7490 H   0  0  0  0  0  0
    4.3079   54.0200   27.0853 C   0  0  0  0  0  0
    5.2462   54.3309   28.2243 C   0  0  0  0  0  0
    4.2551   54.5872   29.3421 C   0  0  0  0  0  0
    3.2614   53.5914   29.1260 O   0  0  0  0  0  0
   -7.3681   51.7307   31.7883 Br  0  0  0  0  0  0
   -3.2956   49.6972   29.7286 H   0  0  0  0  0  0
   -4.8329   50.1862   31.5792 H   0  0  0  0  0  0
   -7.3891   52.3411   28.8858 H   0  0  0  0  0  0
   -5.8498   51.8675   27.0307 H   0  0  0  0  0  0
   -2.9662   49.5331   27.2770 H   0  0  0  0  0  0
   -1.1600   52.6829   25.3659 H   0  0  0  0  0  0
    1.9315   49.6884   20.5520 H   0  0  0  0  0  0
    0.7015   50.5886   19.6868 H   0  0  0  0  0  0
    3.1010   51.1247   18.9984 H   0  0  0  0  0  0
    2.1639   52.5228   19.4467 H   0  0  0  0  0  0
    4.0973   51.0635   21.3155 H   0  0  0  0  0  0
    4.4676   52.5407   20.4682 H   0  0  0  0  0  0
    2.8297   53.8159   21.7247 H   0  0  0  0  0  0
    3.7413   52.8987   22.8799 H   0  0  0  0  0  0
    0.7812   52.0247   26.2277 H   0  0  0  0  0  0
    1.6528   54.6478   27.1909 H   0  0  0  0  0  0
    1.0468   53.3107   28.1102 H   0  0  0  0  0  0
    4.7918   53.4742   26.2734 H   0  0  0  0  0  0
    3.9288   54.9577   26.6734 H   0  0  0  0  0  0
    5.8759   53.4716   28.4598 H   0  0  0  0  0  0
    5.8928   55.1883   28.0307 H   0  0  0  0  0  0
    4.7004   54.4961   30.3310 H   0  0  0  0  0  0
    3.7962   55.5743   29.2718 H   0  0  0  0  0  0
  1  6  2  0  0  0
  1  2  1  0  0  0
  1 34  1  0  0  0
  2  3  2  0  0  0
  2 35  1  0  0  0
  3  4  1  0  0  0
  3 33  1  0  0  0
  4  5  2  0  0  0
  4 36  1  0  0  0
  5  6  1  0  0  0
  5 37  1  0  0  0
  6  7  1  0  0  0
  7  8  2  0  0  0
  7 38  1  0  0  0
  8  9  1  0  0  0
  8 11  1  0  0  0
  9 10  3  0  0  0
 11 12  2  0  0  0
 11 13  1  0  0  0
 13 14  1  0  0  0
 13 39  1  0  0  0
 14 18  1  0  0  0
 14 15  2  0  0  0
 15 16  1  0  0  0
 15 23  1  0  0  0
 16 22  1  0  0  0
 16 17  2  0  0  0
 17 18  1  0  0  0
 17 19  1  0  0  0
 19 20  1  0  0  0
 19 40  1  0  0  0
 19 41  1  0  0  0
 20 21  1  0  0  0
 20 42  1  0  0  0
 20 43  1  0  0  0
 21 22  1  0  0  0
 21 44  1  0  0  0
 21 45  1  0  0  0
 22 46  1  0  0  0
 22 47  1  0  0  0
 23 24  2  0  0  0
 23 25  1  0  0  0
 25 26  1  0  0  0
 25 48  1  0  0  0
 26 27  1  0  0  0
 26 49  1  0  0  0
 26 50  1  0  0  0
 27 28  1  0  0  0
 27 32  1  0  0  0
 27 29  1  0  0  0
 29 30  1  0  0  0
 29 51  1  0  0  0
 29 52  1  0  0  0
 30 31  1  0  0  0
 30 53  1  0  0  0
 30 54  1  0  0  0
 31 32  1  0  0  0
 31 55  1  0  0  0
 31 56  1  0  0  0
M  END
> <i_i_glide_confnum>
394

> <i_i_glide_lignum>
951

> <i_i_glide_posenum>
225

> <i_i_glide_rotatable_bonds>
9

> <i_m_Source_File_Index>
4134

> <b_m_subgroup_collapsed>
0

> <r_i_docking_score>
-3.79114

> <r_i_glide_ecoul>
-4.27924

> <r_i_glide_eff_state_penalty>
0

> <r_i_glide_einternal>
15.8092

> <r_i_glide_emodel>
-42.7463

> <r_i_glide_energy>
-40.5372

> <r_i_glide_erotb>
0.542571

> <r_i_glide_esite>
-0.0228487

> <r_i_glide_evdw>
-36.2579

> <r_i_glide_gscore>
-3.79114

> <r_i_glide_hbond>
0

> <r_i_glide_ligand_efficiency>
-0.118473

> <r_i_glide_ligand_efficiency_ln>
-0.848939

> <r_i_glide_ligand_efficiency_sa>
-0.376128

> <r_i_glide_lipo>
-1.46146

> <r_i_glide_metal>
0

> <r_i_glide_rewards>
-0.394619

> <s_i_glide_gridfile>
wee1_glide-grid

> <s_m_Source_File>
wee1_decoys_glide_SP.sdf

> <s_m_Source_Path>
/Users/zhangxujun/Desktop

> <s_m_entry_id>
4409

> <s_m_entry_name>
wee1_decoys_glide_SP.4134

> <s_m_subgroup_title>
wee1_decoys_glide_SP

> <s_m_subgroupid>
wee1_decoys_glide_SP


$$$$
