ZINC15016240_5035
                    3D
 Schrodinger Suite 2024-2.
 48 52  0  0  1  0            999 V2000
    6.7047   53.8046   27.6939 C   0  0  0  0  0  0
    5.5358   54.3216   28.1014 C   0  0  0  0  0  0
    4.1784   53.7248   27.7986 C   0  0  0  0  0  0
    3.3195   53.0727   29.2623 S   0  0  0  0  0  0
    1.7180   52.5563   28.7155 C   0  0  0  0  0  0
    1.4255   52.6668   27.4020 N   0  0  0  0  0  0
    0.1832   52.2897   27.0134 C   0  0  0  0  0  0
   -0.7712   51.8193   27.9491 C   0  0  0  0  0  0
   -0.3687   51.7338   29.2588 N   0  0  0  0  0  0
    0.8623   52.0970   29.6549 N   0  0  0  0  0  0
   -2.2331   51.4668   27.6879 C   0  0  0  0  0  0
   -2.9717   50.8972   28.7523 C   0  0  0  0  0  0
   -4.3406   50.6721   28.6758 C   0  0  0  0  0  0
   -5.0244   50.9952   27.5160 C   0  0  0  0  0  0
   -4.3232   51.5093   26.4334 C   0  0  0  0  0  0
   -2.9397   51.7165   26.4773 C   0  0  0  0  0  0
   -2.3152   52.1546   25.3052 N   0  0  0  0  0  0
   -0.9705   51.8636   24.9439 C   0  0  1  0  0  0
   -0.8737   52.2935   23.9473 H   0  0  0  0  0  0
    0.0180   52.4966   25.6657 O   0  0  0  0  0  0
   -0.6089   50.4108   24.8056 C   0  0  0  0  0  0
   -1.0329   49.3544   25.6023 C   0  0  0  0  0  0
   -0.4496   48.2401   25.0958 N   0  0  0  0  0  0
   -0.5089   47.3201   25.5146 H   0  0  0  0  0  0
    0.3045   48.4968   24.0336 N   0  0  0  0  0  0
    0.2643   49.8049   23.8561 C   0  0  0  0  0  0
    1.1078   50.4205   22.7622 C   0  0  0  0  0  0
    1.4859   49.6502   21.6498 C   0  0  0  0  0  0
    2.2862   50.1873   20.6446 C   0  0  0  0  0  0
    2.7167   51.5067   20.7393 C   0  0  0  0  0  0
    2.3573   52.2883   21.8334 C   0  0  0  0  0  0
    1.5644   51.7440   22.8415 C   0  0  0  0  0  0
   -5.2733   49.9459   30.1676 Br  0  0  0  0  0  0
    6.7507   52.8979   27.1082 H   0  0  0  0  0  0
    7.6351   54.2891   27.9487 H   0  0  0  0  0  0
    5.5393   55.2344   28.6833 H   0  0  0  0  0  0
    3.5617   54.5009   27.3443 H   0  0  0  0  0  0
    4.2834   52.9165   27.0721 H   0  0  0  0  0  0
   -2.4983   50.6182   29.6833 H   0  0  0  0  0  0
   -6.0893   50.8279   27.4475 H   0  0  0  0  0  0
   -4.8661   51.7185   25.5230 H   0  0  0  0  0  0
   -2.7115   53.0099   24.9467 H   0  0  0  0  0  0
   -1.6574   49.2840   26.4808 H   0  0  0  0  0  0
    1.1616   48.6247   21.5551 H   0  0  0  0  0  0
    2.5754   49.5852   19.7943 H   0  0  0  0  0  0
    3.3366   51.9225   19.9575 H   0  0  0  0  0  0
    2.6997   53.3108   21.9019 H   0  0  0  0  0  0
    1.3392   52.3634   23.6916 H   0  0  0  0  0  0
  1  2  2  0  0  0
  1 34  1  0  0  0
  1 35  1  0  0  0
  2  3  1  0  0  0
  2 36  1  0  0  0
  3  4  1  0  0  0
  3 37  1  0  0  0
  3 38  1  0  0  0
  4  5  1  0  0  0
  5 10  2  0  0  0
  5  6  1  0  0  0
  6  7  2  0  0  0
  7 20  1  0  0  0
  7  8  1  0  0  0
  8  9  2  0  0  0
  8 11  1  0  0  0
  9 10  1  0  0  0
 11 16  2  0  0  0
 11 12  1  0  0  0
 12 13  2  0  0  0
 12 39  1  0  0  0
 13 14  1  0  0  0
 13 33  1  0  0  0
 14 15  2  0  0  0
 14 40  1  0  0  0
 15 16  1  0  0  0
 15 41  1  0  0  0
 16 17  1  0  0  0
 17 18  1  0  0  0
 17 42  1  0  0  0
 18 19  1  0  0  0
 18 20  1  0  0  0
 18 21  1  0  0  0
 21 26  1  0  0  0
 21 22  2  0  0  0
 22 23  1  0  0  0
 22 43  1  0  0  0
 23 24  1  0  0  0
 23 25  1  0  0  0
 25 26  2  0  0  0
 26 27  1  0  0  0
 27 32  2  0  0  0
 27 28  1  0  0  0
 28 29  2  0  0  0
 28 44  1  0  0  0
 29 30  1  0  0  0
 29 45  1  0  0  0
 30 31  2  0  0  0
 30 46  1  0  0  0
 31 32  1  0  0  0
 31 47  1  0  0  0
 32 48  1  0  0  0
M  END
> <i_i_glide_confnum>
229

> <i_i_glide_lignum>
5036

> <i_i_glide_posenum>
198

> <i_i_glide_rotatable_bonds>
5

> <i_m_Source_File_Index>
874

> <b_m_subgroup_collapsed>
0

> <r_i_docking_score>
-4.53258

> <r_i_glide_ecoul>
-5.34662

> <r_i_glide_eff_state_penalty>
0

> <r_i_glide_einternal>
6.41546

> <r_i_glide_emodel>
-56.0643

> <r_i_glide_energy>
-47.3644

> <r_i_glide_erotb>
0.418429

> <r_i_glide_esite>
-0.11893

> <r_i_glide_evdw>
-42.0177

> <r_i_glide_gscore>
-4.53258

> <r_i_glide_hbond>
-0.167708

> <r_i_glide_ligand_efficiency>
-0.146212

> <r_i_glide_ligand_efficiency_ln>
-1.02223

> <r_i_glide_ligand_efficiency_sa>
-0.459308

> <r_i_glide_lipo>
-1.48085

> <r_i_glide_metal>
0

> <r_i_glide_rewards>
-0.280638

> <s_i_glide_gridfile>
wee1_glide-grid

> <s_m_Source_File>
wee1_decoys_glide_SP.sdf

> <s_m_Source_Path>
/Users/zhangxujun/Desktop

> <s_m_entry_id>
1149

> <s_m_entry_name>
wee1_decoys_glide_SP.874

> <s_m_subgroup_title>
wee1_decoys_glide_SP

> <s_m_subgroupid>
wee1_decoys_glide_SP


$$$$
