ZINC59331746_709
                    3D
 Schrodinger Suite 2024-2.
 59 63  0  0  1  0            999 V2000
   -4.2030   45.2975   26.5167 C   0  0  0  0  0  0
   -4.8938   45.2960   25.3086 C   0  0  0  0  0  0
   -4.7689   46.3799   24.4423 C   0  0  0  0  0  0
   -3.9559   47.4754   24.7753 C   0  0  0  0  0  0
   -3.2952   47.4727   26.0125 C   0  0  0  0  0  0
   -3.4081   46.3836   26.8718 C   0  0  0  0  0  0
   -3.8981   48.6701   23.8393 C   0  0  0  0  0  0
   -4.9297   48.9528   23.2202 O   0  0  0  0  0  0
   -2.7514   49.4060   23.7119 N   0  0  0  0  0  0
   -2.8414   50.5988   22.8426 C   0  0  0  0  0  0
   -1.6793   51.5746   23.1168 C   0  0  0  0  0  0
   -0.3551   50.9533   23.1425 N   0  0  0  0  0  0
   -0.3148   49.7953   24.0392 C   0  0  0  0  0  0
   -1.4305   48.7476   23.8088 C   0  0  0  0  0  0
    0.7888   51.7159   22.9448 C   0  0  0  0  0  0
    1.0103   52.8768   23.7002 C   0  0  0  0  0  0
    2.1602   53.6443   23.5129 C   0  0  0  0  0  0
    3.1183   53.2487   22.5700 C   0  0  0  0  0  0
    2.8847   52.1211   21.7805 C   0  0  0  0  0  0
    1.7358   51.3502   21.9714 C   0  0  0  0  0  0
    1.5281   49.9365   20.9902 Cl  0  0  0  0  0  0
    4.3294   53.9342   22.3841 N   0  0  0  0  0  0
    5.2658   54.3049   23.3080 C   0  0  0  0  0  0
    6.7041   54.8968   22.7059 S   0  0  0  0  0  0
    4.9135   54.1400   24.6246 N   0  0  0  0  0  0
    5.5459   54.3672   25.8025 C   0  0  0  0  0  0
    6.6712   54.8480   25.9612 O   0  0  0  0  0  0
    4.7439   53.9574   26.9341 C   0  0  0  0  0  0
    5.0844   53.7839   28.2751 C   0  0  0  0  0  0
    3.9061   53.3073   28.9344 C   0  0  0  0  0  0
    3.5617   52.8955   30.2332 C   0  0  0  0  0  0
    2.2451   52.4963   30.4875 C   0  0  0  0  0  0
    1.2790   52.4926   29.4793 C   0  0  0  0  0  0
    1.5891   52.8875   28.1772 C   0  0  0  0  0  0
    2.9082   53.2877   27.9342 C   0  0  0  0  0  0
    3.4125   53.6898   26.7339 O   0  0  0  0  0  0
   -4.2911   44.4645   27.1991 H   0  0  0  0  0  0
   -5.5304   44.4635   25.0471 H   0  0  0  0  0  0
   -5.3178   46.3692   23.5115 H   0  0  0  0  0  0
   -2.6982   48.3155   26.3352 H   0  0  0  0  0  0
   -2.8928   46.3967   27.8220 H   0  0  0  0  0  0
   -3.7598   51.1620   23.0045 H   0  0  0  0  0  0
   -2.7333   50.2954   21.8011 H   0  0  0  0  0  0
   -1.8319   51.9947   24.1133 H   0  0  0  0  0  0
   -1.6989   52.3964   22.4004 H   0  0  0  0  0  0
    0.6643   49.3133   23.9933 H   0  0  0  0  0  0
   -0.4378   50.1947   25.0478 H   0  0  0  0  0  0
   -1.1908   48.2879   22.8487 H   0  0  0  0  0  0
   -1.3376   48.0310   24.6221 H   0  0  0  0  0  0
    0.2888   53.1847   24.4417 H   0  0  0  0  0  0
    2.3014   54.5355   24.1085 H   0  0  0  0  0  0
    3.6072   51.8172   21.0345 H   0  0  0  0  0  0
    4.6148   54.0261   21.4192 H   0  0  0  0  0  0
    4.0032   53.7262   24.7521 H   0  0  0  0  0  0
    6.0656   53.9491   28.6996 H   0  0  0  0  0  0
    4.3008   52.8850   31.0214 H   0  0  0  0  0  0
    1.9622   52.1807   31.4821 H   0  0  0  0  0  0
    0.2737   52.1713   29.7161 H   0  0  0  0  0  0
    0.8494   52.8782   27.3910 H   0  0  0  0  0  0
  1  6  2  0  0  0
  1  2  1  0  0  0
  1 37  1  0  0  0
  2  3  2  0  0  0
  2 38  1  0  0  0
  3  4  1  0  0  0
  3 39  1  0  0  0
  4  5  2  0  0  0
  4  7  1  0  0  0
  5  6  1  0  0  0
  5 40  1  0  0  0
  6 41  1  0  0  0
  7  8  2  0  0  0
  7  9  1  0  0  0
  9 14  1  0  0  0
  9 10  1  0  0  0
 10 11  1  0  0  0
 10 42  1  0  0  0
 10 43  1  0  0  0
 11 12  1  0  0  0
 11 44  1  0  0  0
 11 45  1  0  0  0
 12 13  1  0  0  0
 12 15  1  0  0  0
 13 14  1  0  0  0
 13 46  1  0  0  0
 13 47  1  0  0  0
 14 48  1  0  0  0
 14 49  1  0  0  0
 15 20  2  0  0  0
 15 16  1  0  0  0
 16 17  2  0  0  0
 16 50  1  0  0  0
 17 18  1  0  0  0
 17 51  1  0  0  0
 18 19  2  0  0  0
 18 22  1  0  0  0
 19 20  1  0  0  0
 19 52  1  0  0  0
 20 21  1  0  0  0
 22 23  1  0  0  0
 22 53  1  0  0  0
 23 24  2  0  0  0
 23 25  1  0  0  0
 25 26  1  0  0  0
 25 54  1  0  0  0
 26 27  2  0  0  0
 26 28  1  0  0  0
 28 36  1  0  0  0
 28 29  2  0  0  0
 29 30  1  0  0  0
 29 55  1  0  0  0
 30 35  2  0  0  0
 30 31  1  0  0  0
 31 32  2  0  0  0
 31 56  1  0  0  0
 32 33  1  0  0  0
 32 57  1  0  0  0
 33 34  2  0  0  0
 33 58  1  0  0  0
 34 35  1  0  0  0
 34 59  1  0  0  0
 35 36  1  0  0  0
M  END
> <i_i_glide_confnum>
50

> <i_i_glide_lignum>
710

> <i_i_glide_posenum>
398

> <i_i_glide_rotatable_bonds>
8

> <i_m_Source_File_Index>
121

> <b_m_subgroup_collapsed>
0

> <r_i_docking_score>
-5.21159

> <r_i_glide_ecoul>
-4.44708

> <r_i_glide_eff_state_penalty>
0

> <r_i_glide_einternal>
10.1818

> <r_i_glide_emodel>
-62.1305

> <r_i_glide_energy>
-52.6331

> <r_i_glide_erotb>
0.533805

> <r_i_glide_esite>
-0.00424223

> <r_i_glide_evdw>
-48.186

> <r_i_glide_gscore>
-5.21159

> <r_i_glide_hbond>
-0.206789

> <r_i_glide_ligand_efficiency>
-0.144766

> <r_i_glide_ligand_efficiency_ln>
-1.13703

> <r_i_glide_ligand_efficiency_sa>
-0.478008

> <r_i_glide_lipo>
-2.18347

> <r_i_glide_metal>
0

> <r_i_glide_rewards>
-0.274527

> <s_i_glide_gridfile>
wee1_glide-grid

> <s_m_Source_File>
wee1_decoys_glide_SP.sdf

> <s_m_Source_Path>
/Users/zhangxujun/Desktop

> <s_m_entry_id>
396

> <s_m_entry_name>
wee1_decoys_glide_SP.121

> <s_m_subgroup_title>
wee1_decoys_glide_SP

> <s_m_subgroupid>
wee1_decoys_glide_SP


$$$$
