ZINC11286290_5327
                    3D
 Schrodinger Suite 2024-2.
 74 78  0  0  1  0            999 V2000
    0.1366   52.5642   24.2987 C   0  0  0  0  0  0
   -0.7247   51.4001   24.7682 C   0  0  0  0  0  0
   -1.8517   51.6787   25.5469 C   0  0  0  0  0  0
   -2.6717   50.6477   25.9966 C   0  0  0  0  0  0
   -2.3649   49.3268   25.6816 C   0  0  0  0  0  0
   -1.2409   49.0163   24.9116 C   0  0  0  0  0  0
   -0.4261   50.0643   24.4277 C   0  0  0  0  0  0
    0.6968   49.8062   23.6229 N   0  0  0  0  0  0
    0.6315   49.3027   22.3755 C   0  0  0  0  0  0
   -0.4256   49.0087   21.8105 O   0  0  0  0  0  0
    1.9846   49.1012   21.6691 C   0  0  0  0  0  0
    1.8513   49.0170   20.2014 N   0  0  0  0  0  0
    1.4993   47.7095   19.6273 C   0  0  0  0  0  0
    1.9024   50.0968   19.3758 C   0  0  0  0  0  0
    1.7173   50.0065   18.1634 O   0  0  0  0  0  0
    2.1335   51.5101   19.9356 C   0  0  0  0  0  0
    4.5303   52.1148   20.5740 C   0  0  0  0  0  0
    4.6313   53.5262   21.2128 C   0  0  0  0  0  0
    5.6284   53.4210   22.4211 C   0  0  0  0  0  0
    4.8790   53.8632   23.6850 C   0  0  0  0  0  0
    3.4053   53.6551   23.3624 C   0  0  0  0  0  0
    3.3242   54.0280   21.8899 C   0  0  0  0  0  0
    5.0307   54.5220   20.1025 C   0  0  0  0  0  0
    5.9043   55.6057   20.3327 C   0  0  0  0  0  0
    6.1853   56.5344   19.3376 C   0  0  0  0  0  0
    5.5992   56.4001   18.0796 C   0  0  0  0  0  0
    4.7496   55.3360   17.8289 C   0  0  0  0  0  0
    4.4383   54.3871   18.8176 C   0  0  0  0  0  0
    3.3827   53.2992   18.5073 C   0  0  1  0  0  0
    2.3994   53.7333   18.6788 H   0  0  0  0  0  0
    3.4600   52.7328   17.0697 C   0  0  0  0  0  0
    5.8537   57.2801   17.0472 O   0  0  0  0  0  0
    6.3296   58.5573   17.4820 C   0  0  0  0  0  0
    7.4363   58.3789   18.5484 C   0  0  0  0  0  0
    6.9503   57.6325   19.6757 O   0  0  0  0  0  0
   -0.9051   47.5435   24.6892 C   0  0  0  0  0  0
    1.0867   52.5589   24.8334 H   0  0  0  0  0  0
    0.3485   52.4781   23.2325 H   0  0  0  0  0  0
   -0.3509   53.5265   24.4548 H   0  0  0  0  0  0
   -2.0967   52.6970   25.8142 H   0  0  0  0  0  0
   -3.5330   50.8650   26.6117 H   0  0  0  0  0  0
   -2.9870   48.5368   26.0800 H   0  0  0  0  0  0
    1.5972   50.0271   24.0202 H   0  0  0  0  0  0
    2.7312   49.8144   22.0128 H   0  0  0  0  0  0
    2.3854   48.1475   22.0105 H   0  0  0  0  0  0
    0.4148   47.5919   19.6054 H   0  0  0  0  0  0
    1.8759   47.5867   18.6098 H   0  0  0  0  0  0
    1.9083   46.8974   20.2202 H   0  0  0  0  0  0
    1.3366   52.1486   19.5531 H   0  0  0  0  0  0
    2.0999   51.5821   21.0193 H   0  0  0  0  0  0
    4.3255   51.3050   21.2749 H   0  0  0  0  0  0
    5.4703   51.8587   20.0820 H   0  0  0  0  0  0
    5.9780   52.3984   22.5689 H   0  0  0  0  0  0
    6.5298   54.0228   22.3356 H   0  0  0  0  0  0
    5.1924   53.3121   24.5712 H   0  0  0  0  0  0
    5.0691   54.9187   23.8862 H   0  0  0  0  0  0
    3.1038   52.6162   23.5016 H   0  0  0  0  0  0
    2.7549   54.2726   23.9859 H   0  0  0  0  0  0
    3.2698   55.1165   21.8329 H   0  0  0  0  0  0
    2.4102   53.6959   21.4068 H   0  0  0  0  0  0
    6.3294   55.7934   21.3046 H   0  0  0  0  0  0
    4.3037   55.2839   16.8484 H   0  0  0  0  0  0
    3.2339   53.4875   16.3169 H   0  0  0  0  0  0
    4.4518   52.3293   16.8529 H   0  0  0  0  0  0
    2.7435   51.9291   16.9042 H   0  0  0  0  0  0
    5.5029   59.1263   17.9121 H   0  0  0  0  0  0
    6.7000   59.1227   16.6257 H   0  0  0  0  0  0
    7.7961   59.3515   18.8819 H   0  0  0  0  0  0
    8.2784   57.8460   18.1040 H   0  0  0  0  0  0
   -1.1372   47.2438   23.6666 H   0  0  0  0  0  0
    0.1556   47.3560   24.8723 H   0  0  0  0  0  0
   -1.4545   46.8971   25.3799 H   0  0  0  0  0  0
    3.5050   52.0471   19.4187 N   0  3  2  0  0  0
    3.8462   51.2926   18.8205 H   0  0  0  0  0  0
  1  2  1  0  0  0
  1 37  1  0  0  0
  1 38  1  0  0  0
  1 39  1  0  0  0
  2  7  2  0  0  0
  2  3  1  0  0  0
  3  4  2  0  0  0
  3 40  1  0  0  0
  4  5  1  0  0  0
  4 41  1  0  0  0
  5  6  2  0  0  0
  5 42  1  0  0  0
  6  7  1  0  0  0
  6 36  1  0  0  0
  7  8  1  0  0  0
  8  9  1  0  0  0
  8 43  1  0  0  0
  9 10  2  0  0  0
  9 11  1  0  0  0
 11 12  1  0  0  0
 11 44  1  0  0  0
 11 45  1  0  0  0
 12 13  1  0  0  0
 12 14  1  0  0  0
 13 46  1  0  0  0
 13 47  1  0  0  0
 13 48  1  0  0  0
 14 15  2  0  0  0
 14 16  1  0  0  0
 16 49  1  0  0  0
 16 50  1  0  0  0
 16 73  1  0  0  0
 17 18  1  0  0  0
 17 51  1  0  0  0
 17 52  1  0  0  0
 17 73  1  0  0  0
 18 22  1  0  0  0
 18 19  1  0  0  0
 18 23  1  0  0  0
 19 20  1  0  0  0
 19 53  1  0  0  0
 19 54  1  0  0  0
 20 21  1  0  0  0
 20 55  1  0  0  0
 20 56  1  0  0  0
 21 22  1  0  0  0
 21 57  1  0  0  0
 21 58  1  0  0  0
 22 59  1  0  0  0
 22 60  1  0  0  0
 23 28  2  0  0  0
 23 24  1  0  0  0
 24 25  2  0  0  0
 24 61  1  0  0  0
 25 35  1  0  0  0
 25 26  1  0  0  0
 26 27  2  0  0  0
 26 32  1  0  0  0
 27 28  1  0  0  0
 27 62  1  0  0  0
 28 29  1  0  0  0
 29 30  1  0  0  0
 29 31  1  0  0  0
 29 73  1  0  0  0
 31 63  1  0  0  0
 31 64  1  0  0  0
 31 65  1  0  0  0
 32 33  1  0  0  0
 33 34  1  0  0  0
 33 66  1  0  0  0
 33 67  1  0  0  0
 34 35  1  0  0  0
 34 68  1  0  0  0
 34 69  1  0  0  0
 36 70  1  0  0  0
 36 71  1  0  0  0
 36 72  1  0  0  0
 73 74  1  0  0  0
M  CHG  1  73   1
M  END
> <i_i_glide_confnum>
227

> <i_i_glide_lignum>
5328

> <i_i_glide_posenum>
283

> <i_i_glide_rotatable_bonds>
7

> <i_m_Source_File_Index>
3189

> <b_m_subgroup_collapsed>
0

> <r_i_docking_score>
-3.73259

> <r_i_glide_ecoul>
-3.40326

> <r_i_glide_eff_state_penalty>
0

> <r_i_glide_einternal>
10.0816

> <r_i_glide_emodel>
-45.8397

> <r_i_glide_energy>
-39.5277

> <r_i_glide_erotb>
0.587435

> <r_i_glide_esite>
-0.151648

> <r_i_glide_evdw>
-36.1244

> <r_i_glide_gscore>
-3.73259

> <r_i_glide_hbond>
-0.480185

> <r_i_glide_ligand_efficiency>
-0.103683

> <r_i_glide_ligand_efficiency_ln>
-0.814351

> <r_i_glide_ligand_efficiency_sa>
-0.342354

> <r_i_glide_lipo>
-1.2808

> <r_i_glide_metal>
0

> <r_i_glide_rewards>
-0.0906831

> <s_i_glide_gridfile>
wee1_glide-grid

> <s_m_Source_File>
wee1_decoys_glide_SP.sdf

> <s_m_Source_Path>
/Users/zhangxujun/Desktop

> <s_m_entry_id>
3464

> <s_m_entry_name>
wee1_decoys_glide_SP.3189

> <s_m_subgroup_title>
wee1_decoys_glide_SP

> <s_m_subgroupid>
wee1_decoys_glide_SP


$$$$
