ZINC09113689_2848
                    3D
 Schrodinger Suite 2024-2.
 58 61  0  0  1  0            999 V2000
   -4.7461   51.7416   26.8353 C   0  0  0  0  0  0
   -4.2256   52.4054   25.7263 C   0  0  0  0  0  0
   -3.2375   51.7940   24.9582 C   0  0  0  0  0  0
   -2.7858   50.5173   25.2994 C   0  0  0  0  0  0
   -3.2958   49.8636   26.4248 C   0  0  0  0  0  0
   -4.2825   50.4769   27.1918 C   0  0  0  0  0  0
   -1.7465   49.9602   24.5425 N   0  0  0  0  0  0
   -1.6649   48.7681   23.8739 C   0  0  0  0  0  0
   -2.8807   47.6344   23.7374 S   0  0  0  0  0  0
   -0.4957   48.4973   23.2219 N   0  0  0  0  0  0
    0.6750   49.2691   23.3072 N   0  0  0  0  0  0
    0.8261   50.4060   22.5939 C   0  0  0  0  0  0
    0.0002   50.8379   21.7877 O   0  0  0  0  0  0
    2.1310   51.1732   22.8505 C   0  0  0  0  0  0
    1.9333   52.9485   23.2539 S   0  0  0  0  0  0
    1.3883   52.7970   24.9301 C   0  0  0  0  0  0
    0.2835   52.1461   25.1675 N   0  0  0  0  0  0
    0.0463   52.1684   26.5176 N   0  0  0  0  0  0
    0.9895   52.8877   27.0648 C   0  0  0  0  0  0
    1.9483   53.2769   26.1246 N   0  0  0  0  0  0
    3.1923   54.0711   26.3928 C   0  0  0  0  0  0
    4.0263   53.4084   27.5266 C   0  0  0  0  0  0
    5.3604   54.1297   27.8029 C   0  0  0  0  0  0
    6.2040   54.2834   26.5273 C   0  0  0  0  0  0
    5.4073   54.9795   25.4103 C   0  0  0  0  0  0
    4.0772   54.2547   25.1299 C   0  0  0  0  0  0
    0.8980   53.2200   28.5179 C   0  0  0  0  0  0
    1.1048   54.5169   29.0009 C   0  0  0  0  0  0
    0.9223   54.7941   30.3529 C   0  0  0  0  0  0
    0.5204   53.7760   31.2162 C   0  0  0  0  0  0
    0.3044   52.4898   30.7438 C   0  0  0  0  0  0
    0.4925   52.2099   29.3983 C   0  0  0  0  0  0
    0.3044   54.0972   32.8929 Cl  0  0  0  0  0  0
   -5.5117   52.2163   27.4306 H   0  0  0  0  0  0
   -4.5848   53.3902   25.4659 H   0  0  0  0  0  0
   -2.8259   52.3131   24.1045 H   0  0  0  0  0  0
   -2.9095   48.8979   26.7212 H   0  0  0  0  0  0
   -4.6739   49.9751   28.0649 H   0  0  0  0  0  0
   -0.9966   50.6101   24.3555 H   0  0  0  0  0  0
   -0.4936   47.8997   22.4094 H   0  0  0  0  0  0
    1.3169   48.9423   24.0178 H   0  0  0  0  0  0
    2.7032   50.6834   23.6353 H   0  0  0  0  0  0
    2.7286   51.1065   21.9412 H   0  0  0  0  0  0
    2.8185   55.0285   26.7302 H   0  0  0  0  0  0
    3.4890   53.4438   28.4701 H   0  0  0  0  0  0
    4.1796   52.3555   27.3313 H   0  0  0  0  0  0
    5.1659   55.1146   28.2308 H   0  0  0  0  0  0
    5.9281   53.5814   28.5555 H   0  0  0  0  0  0
    7.1100   54.8473   26.7498 H   0  0  0  0  0  0
    6.5306   53.2982   26.1878 H   0  0  0  0  0  0
    5.2103   56.0171   25.6812 H   0  0  0  0  0  0
    6.0067   55.0182   24.4999 H   0  0  0  0  0  0
    4.2692   53.2970   24.6461 H   0  0  0  0  0  0
    3.5467   54.8867   24.4166 H   0  0  0  0  0  0
    1.3723   55.3212   28.3340 H   0  0  0  0  0  0
    1.0793   55.7955   30.7286 H   0  0  0  0  0  0
   -0.0272   51.7058   31.4130 H   0  0  0  0  0  0
    0.2978   51.2085   29.0380 H   0  0  0  0  0  0
  1  6  2  0  0  0
  1  2  1  0  0  0
  1 34  1  0  0  0
  2  3  2  0  0  0
  2 35  1  0  0  0
  3  4  1  0  0  0
  3 36  1  0  0  0
  4  5  2  0  0  0
  4  7  1  0  0  0
  5  6  1  0  0  0
  5 37  1  0  0  0
  6 38  1  0  0  0
  7  8  1  0  0  0
  7 39  1  0  0  0
  8  9  2  0  0  0
  8 10  1  0  0  0
 10 11  1  0  0  0
 10 40  1  0  0  0
 11 12  1  0  0  0
 11 41  1  0  0  0
 12 13  2  0  0  0
 12 14  1  0  0  0
 14 15  1  0  0  0
 14 42  1  0  0  0
 14 43  1  0  0  0
 15 16  1  0  0  0
 16 20  1  0  0  0
 16 17  2  0  0  0
 17 18  1  0  0  0
 18 19  2  0  0  0
 19 20  1  0  0  0
 19 27  1  0  0  0
 20 21  1  0  0  0
 21 26  1  0  0  0
 21 22  1  0  0  0
 21 44  1  0  0  0
 22 23  1  0  0  0
 22 45  1  0  0  0
 22 46  1  0  0  0
 23 24  1  0  0  0
 23 47  1  0  0  0
 23 48  1  0  0  0
 24 25  1  0  0  0
 24 49  1  0  0  0
 24 50  1  0  0  0
 25 26  1  0  0  0
 25 51  1  0  0  0
 25 52  1  0  0  0
 26 53  1  0  0  0
 26 54  1  0  0  0
 27 32  2  0  0  0
 27 28  1  0  0  0
 28 29  2  0  0  0
 28 55  1  0  0  0
 29 30  1  0  0  0
 29 56  1  0  0  0
 30 31  2  0  0  0
 30 33  1  0  0  0
 31 32  1  0  0  0
 31 57  1  0  0  0
 32 58  1  0  0  0
M  END
> <i_i_glide_confnum>
224

> <i_i_glide_lignum>
2849

> <i_i_glide_posenum>
244

> <i_i_glide_rotatable_bonds>
10

> <i_m_Source_File_Index>
5572

> <b_m_subgroup_collapsed>
0

> <r_i_docking_score>
-4.51602

> <r_i_glide_ecoul>
-1.76199

> <r_i_glide_eff_state_penalty>
0

> <r_i_glide_einternal>
18.2713

> <r_i_glide_emodel>
-48.9672

> <r_i_glide_energy>
-43.9825

> <r_i_glide_erotb>
0.732128

> <r_i_glide_esite>
-0.048263

> <r_i_glide_evdw>
-42.2205

> <r_i_glide_gscore>
-4.51602

> <r_i_glide_hbond>
-0.128923

> <r_i_glide_ligand_efficiency>
-0.136849

> <r_i_glide_ligand_efficiency_ln>
-1.00434

> <r_i_glide_ligand_efficiency_sa>
-0.438948

> <r_i_glide_lipo>
-2.65929

> <r_i_glide_metal>
0

> <r_i_glide_rewards>
-0.0363535

> <s_i_glide_gridfile>
wee1_glide-grid

> <s_m_Source_File>
wee1_decoys_glide_SP.sdf

> <s_m_Source_Path>
/Users/zhangxujun/Desktop

> <s_m_entry_id>
5847

> <s_m_entry_name>
wee1_decoys_glide_SP.5572

> <s_m_subgroup_title>
wee1_decoys_glide_SP

> <s_m_subgroupid>
wee1_decoys_glide_SP


$$$$
