ZINC02236928_1367
                    3D
 Schrodinger Suite 2024-2.
 54 57  0  0  1  0            999 V2000
    0.4536   54.4321   30.0954 C   0  0  0  0  0  0
    0.8188   52.9492   29.9470 C   0  0  1  0  0  0
    0.0281   52.4171   29.4151 H   0  0  0  0  0  0
    2.1821   52.7150   29.2533 C   0  0  0  0  0  0
    2.3787   53.2643   27.8857 N   0  0  0  0  0  0
    1.2647   53.2680   26.9194 C   0  0  0  0  0  0
    1.0405   51.9864   26.0872 C   0  0  1  0  0  0
    1.9042   51.7903   25.4547 H   0  0  0  0  0  0
    0.6971   50.7401   26.9146 C   0  0  0  0  0  0
   -0.0431   52.2231   25.2134 O   0  0  0  0  0  0
    3.6969   53.6264   27.4747 C   0  0  0  0  0  0
    4.1005   53.9119   26.1412 C   0  0  0  0  0  0
    5.4396   54.3128   25.8815 C   0  0  0  0  0  0
    5.5453   54.4954   24.5086 C   0  0  0  0  0  0
    6.5581   54.8977   23.6415 C   0  0  0  0  0  0
    6.3109   54.8937   22.2648 C   0  0  0  0  0  0
    5.0606   54.4314   21.8041 C   0  0  0  0  0  0
    4.0258   54.1054   22.6442 N   0  0  0  0  0  0
    4.3080   54.1451   23.9491 C   0  0  0  0  0  0
    3.4090   53.8246   24.9452 O   0  0  0  0  0  0
    4.8346   54.2667   20.3022 C   0  0  0  0  0  0
    5.8306   55.0646   19.4082 C   0  0  0  0  0  0
    7.1431   54.8969   19.9462 O   0  0  0  0  0  0
    7.3900   55.3346   21.2812 C   0  0  0  0  0  0
    5.5049   56.5678   19.3292 C   0  0  0  0  0  0
    5.8949   54.4031   18.0193 C   0  0  0  0  0  0
    6.3601   54.4273   26.8436 N   0  0  0  0  0  0
    5.9212   54.0921   28.0826 C   0  0  0  0  0  0
    4.6680   53.7120   28.4356 N   0  0  0  0  0  0
    0.9079   52.4150   31.2538 O   0  0  0  0  0  0
    0.3652   54.8986   29.1186 H   0  0  0  0  0  0
    1.2128   54.9848   30.6509 H   0  0  0  0  0  0
   -0.4946   54.5611   30.6136 H   0  0  0  0  0  0
    2.9283   53.1202   29.9361 H   0  0  0  0  0  0
    2.3859   51.6465   29.2231 H   0  0  0  0  0  0
    0.3372   53.5152   27.4302 H   0  0  0  0  0  0
    1.4149   54.0967   26.2302 H   0  0  0  0  0  0
    1.5072   50.4927   27.5964 H   0  0  0  0  0  0
   -0.2005   50.8826   27.5166 H   0  0  0  0  0  0
    0.5322   49.8663   26.2833 H   0  0  0  0  0  0
   -0.2494   51.4016   24.7582 H   0  0  0  0  0  0
    7.5027   55.2179   24.0422 H   0  0  0  0  0  0
    4.9691   53.1999   20.1123 H   0  0  0  0  0  0
    3.8007   54.4900   20.0370 H   0  0  0  0  0  0
    7.4592   56.4230   21.2857 H   0  0  0  0  0  0
    8.3691   54.9674   21.5932 H   0  0  0  0  0  0
    4.5260   56.7354   18.8791 H   0  0  0  0  0  0
    5.5045   57.0319   20.3126 H   0  0  0  0  0  0
    6.2383   57.0950   18.7198 H   0  0  0  0  0  0
    4.9252   54.4259   17.5193 H   0  0  0  0  0  0
    6.6141   54.9108   17.3769 H   0  0  0  0  0  0
    6.2097   53.3588   18.0873 H   0  0  0  0  0  0
    6.6608   54.0969   28.8716 H   0  0  0  0  0  0
    0.0331   52.3875   31.6588 H   0  0  0  0  0  0
  1  2  1  0  0  0
  1 31  1  0  0  0
  1 32  1  0  0  0
  1 33  1  0  0  0
  2  3  1  0  0  0
  2  4  1  0  0  0
  2 30  1  0  0  0
  4  5  1  0  0  0
  4 34  1  0  0  0
  4 35  1  0  0  0
  5  6  1  0  0  0
  5 11  1  0  0  0
  6  7  1  0  0  0
  6 36  1  0  0  0
  6 37  1  0  0  0
  7  8  1  0  0  0
  7  9  1  0  0  0
  7 10  1  0  0  0
  9 38  1  0  0  0
  9 39  1  0  0  0
  9 40  1  0  0  0
 10 41  1  0  0  0
 11 29  2  0  0  0
 11 12  1  0  0  0
 12 20  1  0  0  0
 12 13  2  0  0  0
 13 14  1  0  0  0
 13 27  1  0  0  0
 14 19  2  0  0  0
 14 15  1  0  0  0
 15 16  2  0  0  0
 15 42  1  0  0  0
 16 24  1  0  0  0
 16 17  1  0  0  0
 17 18  2  0  0  0
 17 21  1  0  0  0
 18 19  1  0  0  0
 19 20  1  0  0  0
 21 22  1  0  0  0
 21 43  1  0  0  0
 21 44  1  0  0  0
 22 23  1  0  0  0
 22 25  1  0  0  0
 22 26  1  0  0  0
 23 24  1  0  0  0
 24 45  1  0  0  0
 24 46  1  0  0  0
 25 47  1  0  0  0
 25 48  1  0  0  0
 25 49  1  0  0  0
 26 50  1  0  0  0
 26 51  1  0  0  0
 26 52  1  0  0  0
 27 28  2  0  0  0
 28 29  1  0  0  0
 28 53  1  0  0  0
 30 54  1  0  0  0
M  END
> <i_i_glide_confnum>
101

> <i_i_glide_lignum>
1368

> <i_i_glide_posenum>
162

> <i_i_glide_rotatable_bonds>
7

> <i_m_Source_File_Index>
4053

> <b_m_subgroup_collapsed>
0

> <r_i_docking_score>
-6.64522

> <r_i_glide_ecoul>
-4.28727

> <r_i_glide_eff_state_penalty>
0

> <r_i_glide_einternal>
7.58556

> <r_i_glide_emodel>
-60.8558

> <r_i_glide_energy>
-44.9406

> <r_i_glide_erotb>
0.651651

> <r_i_glide_esite>
0

> <r_i_glide_evdw>
-40.6533

> <r_i_glide_gscore>
-6.64522

> <r_i_glide_hbond>
-0.0519171

> <r_i_glide_ligand_efficiency>
-0.237329

> <r_i_glide_ligand_efficiency_ln>
-1.53391

> <r_i_glide_ligand_efficiency_sa>
-0.720671

> <r_i_glide_lipo>
-2.97458

> <r_i_glide_metal>
0

> <r_i_glide_rewards>
-1.59461

> <s_i_glide_gridfile>
wee1_glide-grid

> <s_m_Source_File>
wee1_decoys_glide_SP.sdf

> <s_m_Source_Path>
/Users/zhangxujun/Desktop

> <s_m_entry_id>
4328

> <s_m_entry_name>
wee1_decoys_glide_SP.4053

> <s_m_subgroup_title>
wee1_decoys_glide_SP

> <s_m_subgroupid>
wee1_decoys_glide_SP


$$$$
