ZINC40214972_4727
                    3D
 Schrodinger Suite 2024-2.
 38 38  0  0  1  0            999 V2000
    7.1045   54.7270   24.1459 C   0  0  0  0  0  0
    5.7903   54.4961   24.8491 C   0  0  0  0  0  0
    5.7785   54.5886   26.2437 C   0  0  0  0  0  0
    4.6138   54.3524   26.9604 C   0  0  0  0  0  0
    3.4294   54.0290   26.2866 C   0  0  0  0  0  0
    3.4388   53.9454   24.8911 C   0  0  0  0  0  0
    4.6127   54.1657   24.1569 C   0  0  0  0  0  0
    4.5247   54.0206   22.3549 S   0  0  0  0  0  0
    3.1044   54.0377   22.0051 O   0  0  0  0  0  0
    5.4742   54.9482   21.7350 O   0  0  0  0  0  0
    5.1042   52.4376   21.9621 N   0  0  0  0  0  0
    2.2320   53.6964   26.9414 N   0  0  0  0  0  0
    1.8841   53.9522   28.2159 C   0  0  0  0  0  0
    2.4671   54.7275   28.9757 O   0  0  0  0  0  0
    0.8465   53.1825   28.5814 N   0  0  0  0  0  0
    0.4554   52.7957   29.9431 C   0  0  0  0  0  0
    1.6396   52.1680   30.7156 C   0  0  0  0  0  0
   -0.6529   51.7312   29.8189 C   0  0  0  0  0  0
   -0.0921   54.0128   30.7139 C   0  0  0  0  0  0
    7.1049   55.6816   23.6196 H   0  0  0  0  0  0
    7.9042   54.7265   24.8802 H   0  0  0  0  0  0
    7.3165   53.9330   23.4294 H   0  0  0  0  0  0
    6.6790   54.8276   26.7907 H   0  0  0  0  0  0
    4.6624   54.3989   28.0376 H   0  0  0  0  0  0
    2.5274   53.6813   24.3736 H   0  0  0  0  0  0
    4.3429   51.8108   21.6914 H   0  0  0  0  0  0
    5.8455   52.4706   21.2604 H   0  0  0  0  0  0
    1.5687   53.1822   26.3837 H   0  0  0  0  0  0
    0.3032   52.7504   27.8508 H   0  0  0  0  0  0
    1.3284   51.7823   31.6882 H   0  0  0  0  0  0
    2.4376   52.8872   30.8977 H   0  0  0  0  0  0
    2.0717   51.3461   30.1461 H   0  0  0  0  0  0
   -1.5355   52.0977   29.2960 H   0  0  0  0  0  0
   -0.2987   50.8726   29.2525 H   0  0  0  0  0  0
   -0.9804   51.3665   30.7951 H   0  0  0  0  0  0
   -0.8809   54.4961   30.1381 H   0  0  0  0  0  0
   -0.4954   53.7206   31.6851 H   0  0  0  0  0  0
    0.6773   54.7624   30.9008 H   0  0  0  0  0  0
  1  2  1  0  0  0
  1 20  1  0  0  0
  1 21  1  0  0  0
  1 22  1  0  0  0
  2  7  2  0  0  0
  2  3  1  0  0  0
  3  4  2  0  0  0
  3 23  1  0  0  0
  4  5  1  0  0  0
  4 24  1  0  0  0
  5  6  2  0  0  0
  5 12  1  0  0  0
  6  7  1  0  0  0
  6 25  1  0  0  0
  7  8  1  0  0  0
  8  9  2  0  0  0
  8 10  2  0  0  0
  8 11  1  0  0  0
 11 26  1  0  0  0
 11 27  1  0  0  0
 12 13  1  0  0  0
 12 28  1  0  0  0
 13 14  2  0  0  0
 13 15  1  0  0  0
 15 16  1  0  0  0
 15 29  1  0  0  0
 16 17  1  0  0  0
 16 18  1  0  0  0
 16 19  1  0  0  0
 17 30  1  0  0  0
 17 31  1  0  0  0
 17 32  1  0  0  0
 18 33  1  0  0  0
 18 34  1  0  0  0
 18 35  1  0  0  0
 19 36  1  0  0  0
 19 37  1  0  0  0
 19 38  1  0  0  0
M  END
> <i_i_glide_confnum>
1

> <i_i_glide_lignum>
4728

> <i_i_glide_posenum>
314

> <i_i_glide_rotatable_bonds>
5

> <i_m_Source_File_Index>
3253

> <b_m_subgroup_collapsed>
0

> <r_i_docking_score>
-4.48782

> <r_i_glide_ecoul>
1.33201

> <r_i_glide_eff_state_penalty>
0

> <r_i_glide_einternal>
1.70354

> <r_i_glide_emodel>
-40.4012

> <r_i_glide_energy>
-31.2232

> <r_i_glide_erotb>
0.668372

> <r_i_glide_esite>
0

> <r_i_glide_evdw>
-32.5552

> <r_i_glide_gscore>
-4.48782

> <r_i_glide_hbond>
0

> <r_i_glide_ligand_efficiency>
-0.236201

> <r_i_glide_ligand_efficiency_ln>
-1.13776

> <r_i_glide_ligand_efficiency_sa>
-0.63028

> <r_i_glide_lipo>
-1.74208

> <r_i_glide_metal>
0

> <r_i_glide_rewards>
-1.98616

> <s_i_glide_gridfile>
wee1_glide-grid

> <s_m_Source_File>
wee1_decoys_glide_SP.sdf

> <s_m_Source_Path>
/Users/zhangxujun/Desktop

> <s_m_entry_id>
3528

> <s_m_entry_name>
wee1_decoys_glide_SP.3253

> <s_m_subgroup_title>
wee1_decoys_glide_SP

> <s_m_subgroupid>
wee1_decoys_glide_SP


$$$$
