ZINC21812628_1668
                    3D
 Schrodinger Suite 2024-2.
 32 33  0  0  1  0            999 V2000
    6.7514   55.1272   23.5703 C   0  0  0  0  0  0
    6.2289   54.7083   24.9217 C   0  0  0  0  0  0
    5.0172   54.0946   25.2315 C   0  0  0  0  0  0
    5.0402   53.8027   26.5833 C   0  0  0  0  0  0
    6.2734   54.2499   26.9862 N   0  0  0  0  0  0
    6.9659   54.8381   25.9992 N   0  0  0  0  0  0
    6.9041   54.0549   28.2808 C   0  0  0  0  0  0
    4.2163   53.0840   27.4091 N   0  0  0  0  0  0
    2.5593   53.4828   27.8585 S   0  0  0  0  0  0
    2.2916   52.7197   29.0825 O   0  0  0  0  0  0
    2.4328   54.9420   27.8441 O   0  0  0  0  0  0
    1.5121   52.8088   26.5587 C   0  0  0  0  0  0
    0.6961   51.6980   26.8190 C   0  0  0  0  0  0
   -0.1201   51.1683   25.8134 C   0  0  0  0  0  0
   -0.1044   51.7380   24.5347 C   0  0  0  0  0  0
    0.7078   52.8366   24.2732 C   0  0  0  0  0  0
    1.5006   53.3767   25.2802 C   0  0  0  0  0  0
    2.2005   54.4924   25.0009 F   0  0  0  0  0  0
   -0.8813   51.2400   23.5425 F   0  0  0  0  0  0
   -0.9531   50.0812   26.0824 N   0  0  0  0  0  0
    5.9620   55.1816   22.8201 H   0  0  0  0  0  0
    7.5003   54.4259   23.1992 H   0  0  0  0  0  0
    7.2360   56.0977   23.6026 H   0  0  0  0  0  0
    4.2702   53.8107   24.5120 H   0  0  0  0  0  0
    6.2860   54.4973   29.0621 H   0  0  0  0  0  0
    7.0020   52.9862   28.4656 H   0  0  0  0  0  0
    7.9007   54.4927   28.2957 H   0  0  0  0  0  0
    4.4625   52.1364   27.6520 H   0  0  0  0  0  0
    0.6845   51.2483   27.8023 H   0  0  0  0  0  0
    0.7072   53.2845   23.2910 H   0  0  0  0  0  0
   -1.4945   49.6830   25.3304 H   0  0  0  0  0  0
   -0.9472   49.6142   26.9914 H   0  0  0  0  0  0
  1  2  1  0  0  0
  1 21  1  0  0  0
  1 22  1  0  0  0
  1 23  1  0  0  0
  2  6  2  0  0  0
  2  3  1  0  0  0
  3  4  2  0  0  0
  3 24  1  0  0  0
  4  5  1  0  0  0
  4  8  1  0  0  0
  5  6  1  0  0  0
  5  7  1  0  0  0
  7 25  1  0  0  0
  7 26  1  0  0  0
  7 27  1  0  0  0
  8  9  1  0  0  0
  8 28  1  0  0  0
  9 10  2  0  0  0
  9 11  2  0  0  0
  9 12  1  0  0  0
 12 17  2  0  0  0
 12 13  1  0  0  0
 13 14  2  0  0  0
 13 29  1  0  0  0
 14 15  1  0  0  0
 14 20  1  0  0  0
 15 16  2  0  0  0
 15 19  1  0  0  0
 16 17  1  0  0  0
 16 30  1  0  0  0
 17 18  1  0  0  0
 20 31  1  0  0  0
 20 32  1  0  0  0
M  END
> <i_i_glide_confnum>
4

> <i_i_glide_lignum>
1669

> <i_i_glide_posenum>
30

> <i_i_glide_rotatable_bonds>
3

> <i_m_Source_File_Index>
1417

> <b_m_subgroup_collapsed>
0

> <r_i_docking_score>
-6.68864

> <r_i_glide_ecoul>
-5.96001

> <r_i_glide_eff_state_penalty>
0

> <r_i_glide_einternal>
0.835555

> <r_i_glide_emodel>
-47.7907

> <r_i_glide_energy>
-33.682

> <r_i_glide_erotb>
0.60436

> <r_i_glide_esite>
-0.088739

> <r_i_glide_evdw>
-27.722

> <r_i_glide_gscore>
-6.68864

> <r_i_glide_hbond>
-0.456

> <r_i_glide_ligand_efficiency>
-0.334432

> <r_i_glide_ligand_efficiency_ln>
-1.67395

> <r_i_glide_ligand_efficiency_sa>
-0.907788

> <r_i_glide_lipo>
-1.75691

> <r_i_glide_metal>
0

> <r_i_glide_rewards>
-2.71125

> <s_i_glide_gridfile>
wee1_glide-grid

> <s_m_Source_File>
wee1_decoys_glide_SP.sdf

> <s_m_Source_Path>
/Users/zhangxujun/Desktop

> <s_m_entry_id>
1692

> <s_m_entry_name>
wee1_decoys_glide_SP.1417

> <s_m_subgroup_title>
wee1_decoys_glide_SP

> <s_m_subgroupid>
wee1_decoys_glide_SP


$$$$
