ZINC37063573_1628
                    3D
 Schrodinger Suite 2024-2.
 27 28  0  0  1  0            999 V2000
    6.3266   54.8966   26.7069 C   0  0  0  0  0  0
    5.3720   54.1130   27.5706 C   0  0  0  0  0  0
    3.9851   54.1165   27.5676 C   0  0  0  0  0  0
    3.5761   53.1447   28.4597 C   0  0  0  0  0  0
    4.7107   52.6586   29.0236 O   0  0  0  0  0  0
    5.8315   53.2955   28.4814 N   0  0  0  0  0  0
    2.4052   52.6256   28.8544 N   0  5  0  0  0  0
    1.0208   53.1890   28.3994 S   0  0  0  0  0  0
   -0.0845   52.7337   29.2481 O   0  0  0  0  0  0
    1.0605   54.6200   28.0818 O   0  0  0  0  0  0
    0.7884   52.3050   26.8331 C   0  0  0  0  0  0
    0.1932   51.0330   26.8523 C   0  0  0  0  0  0
   -0.0098   50.3214   25.6655 C   0  0  0  0  0  0
    0.3933   50.8692   24.4507 C   0  0  0  0  0  0
    0.9738   52.1350   24.4140 C   0  0  0  0  0  0
    1.1645   52.8563   25.5963 C   0  0  0  0  0  0
    1.6986   54.0925   25.5111 F   0  0  0  0  0  0
    1.4439   52.8070   22.8923 Cl  0  0  0  0  0  0
   -0.6173   49.0674   25.6818 N   0  0  0  0  0  0
    5.8095   55.4090   25.8960 H   0  0  0  0  0  0
    7.0801   54.2540   26.2509 H   0  0  0  0  0  0
    6.8517   55.6573   27.2818 H   0  0  0  0  0  0
    3.3570   54.7386   26.9560 H   0  0  0  0  0  0
   -0.1178   50.5959   27.7916 H   0  0  0  0  0  0
    0.2439   50.3220   23.5317 H   0  0  0  0  0  0
   -0.8893   48.7060   26.6016 H   0  0  0  0  0  0
   -0.3289   48.4058   24.9792 H   0  0  0  0  0  0
  1  2  1  0  0  0
  1 20  1  0  0  0
  1 21  1  0  0  0
  1 22  1  0  0  0
  2  6  2  0  0  0
  2  3  1  0  0  0
  3  4  2  0  0  0
  3 23  1  0  0  0
  4  5  1  0  0  0
  4  7  1  0  0  0
  5  6  1  0  0  0
  7  8  1  0  0  0
  8  9  2  0  0  0
  8 10  2  0  0  0
  8 11  1  0  0  0
 11 16  2  0  0  0
 11 12  1  0  0  0
 12 13  2  0  0  0
 12 24  1  0  0  0
 13 14  1  0  0  0
 13 19  1  0  0  0
 14 15  2  0  0  0
 14 25  1  0  0  0
 15 16  1  0  0  0
 15 18  1  0  0  0
 16 17  1  0  0  0
 19 26  1  0  0  0
 19 27  1  0  0  0
M  CHG  1   7  -1
M  END
> <i_i_glide_confnum>
10

> <i_i_glide_lignum>
1629

> <i_i_glide_posenum>
260

> <i_i_glide_rotatable_bonds>
3

> <i_m_Source_File_Index>
4352

> <b_m_subgroup_collapsed>
0

> <r_i_docking_score>
-5.07245

> <r_i_glide_ecoul>
-3.88111

> <r_i_glide_eff_state_penalty>
0

> <r_i_glide_einternal>
0.206422

> <r_i_glide_emodel>
-46.4848

> <r_i_glide_energy>
-34.1132

> <r_i_glide_erotb>
0.596028

> <r_i_glide_esite>
-0.1

> <r_i_glide_evdw>
-30.2321

> <r_i_glide_gscore>
-5.07245

> <r_i_glide_hbond>
-0.16

> <r_i_glide_ligand_efficiency>
-0.266971

> <r_i_glide_ligand_efficiency_ln>
-1.28597

> <r_i_glide_ligand_efficiency_sa>
-0.712385

> <r_i_glide_lipo>
-1.61222

> <r_i_glide_metal>
0

> <r_i_glide_rewards>
-1.70248

> <s_i_glide_gridfile>
wee1_glide-grid

> <s_m_Source_File>
wee1_decoys_glide_SP.sdf

> <s_m_Source_Path>
/Users/zhangxujun/Desktop

> <s_m_entry_id>
4627

> <s_m_entry_name>
wee1_decoys_glide_SP.4352

> <s_m_subgroup_title>
wee1_decoys_glide_SP

> <s_m_subgroupid>
wee1_decoys_glide_SP


$$$$
