ZINC57316268_2126
                    3D
 Schrodinger Suite 2024-2.
 44 47  0  0  1  0            999 V2000
    6.5424   53.7785   27.9730 C   0  0  0  0  0  0
    5.4865   54.5279   28.8023 C   0  0  0  0  0  0
    4.2173   53.7339   29.0322 C   0  0  0  0  0  0
    3.8176   53.1302   30.1327 N   0  0  0  0  0  0
    2.5951   52.4979   29.8911 N   0  0  0  0  0  0
    2.3165   52.7340   28.6314 C   0  0  0  0  0  0
    3.2841   53.5033   28.0500 N   0  0  0  0  0  0
    3.1709   53.8363   26.7458 N   0  0  0  0  0  0
    2.1108   53.2472   26.2552 C   0  0  0  0  0  0
    1.1044   52.3584   27.4229 S   0  0  0  0  0  0
    1.8801   53.1789   24.7743 C   0  0  0  0  0  0
    0.8441   52.4416   24.1920 C   0  0  0  0  0  0
    0.7786   52.2935   22.8043 C   0  0  0  0  0  0
    1.7657   52.8542   21.9907 C   0  0  0  0  0  0
    2.8148   53.5863   22.5511 C   0  0  0  0  0  0
    2.8167   53.7942   23.9325 C   0  0  0  0  0  0
    3.8033   54.0960   21.6801 N   0  0  0  0  0  0
    5.1273   54.4242   21.8383 C   0  0  0  0  0  0
    6.0469   54.0967   23.2180 S   0  0  0  0  0  0
    5.5801   55.0469   20.7009 N   0  0  0  0  0  0
    6.7330   55.7036   20.3947 C   0  0  0  0  0  0
    7.7592   55.6965   21.0779 O   0  0  0  0  0  0
    6.7101   56.5019   19.1066 C   0  0  0  0  0  0
    7.9148   56.9403   18.5292 C   0  0  0  0  0  0
    7.9106   57.7298   17.3776 C   0  0  0  0  0  0
    6.7039   58.0963   16.7849 C   0  0  0  0  0  0
    5.5010   57.6611   17.3345 C   0  0  0  0  0  0
    5.5039   56.8669   18.4805 C   0  0  0  0  0  0
    3.8462   58.1645   16.5428 Br  0  0  0  0  0  0
    7.3997   54.4221   27.7709 H   0  0  0  0  0  0
    6.9151   52.8962   28.4818 H   0  0  0  0  0  0
    6.1402   53.4543   27.0090 H   0  0  0  0  0  0
    5.2326   55.4108   28.2277 H   0  0  0  0  0  0
    5.9049   54.8968   29.7361 H   0  0  0  0  0  0
    0.1007   51.9550   24.8065 H   0  0  0  0  0  0
   -0.0182   51.7156   22.3622 H   0  0  0  0  0  0
    1.7183   52.7043   20.9207 H   0  0  0  0  0  0
    3.5790   54.4135   24.3724 H   0  0  0  0  0  0
    3.4540   54.1850   20.7382 H   0  0  0  0  0  0
    4.8921   55.1058   19.9666 H   0  0  0  0  0  0
    8.8668   56.6843   18.9749 H   0  0  0  0  0  0
    8.8420   58.0689   16.9490 H   0  0  0  0  0  0
    6.6975   58.7250   15.9052 H   0  0  0  0  0  0
    4.5456   56.5718   18.8816 H   0  0  0  0  0  0
  1  2  1  0  0  0
  1 30  1  0  0  0
  1 31  1  0  0  0
  1 32  1  0  0  0
  2  3  1  0  0  0
  2 33  1  0  0  0
  2 34  1  0  0  0
  3  7  1  0  0  0
  3  4  2  0  0  0
  4  5  1  0  0  0
  5  6  2  0  0  0
  6 10  1  0  0  0
  6  7  1  0  0  0
  7  8  1  0  0  0
  8  9  2  0  0  0
  9 10  1  0  0  0
  9 11  1  0  0  0
 11 16  2  0  0  0
 11 12  1  0  0  0
 12 13  2  0  0  0
 12 35  1  0  0  0
 13 14  1  0  0  0
 13 36  1  0  0  0
 14 15  2  0  0  0
 14 37  1  0  0  0
 15 16  1  0  0  0
 15 17  1  0  0  0
 16 38  1  0  0  0
 17 18  1  0  0  0
 17 39  1  0  0  0
 18 19  2  0  0  0
 18 20  1  0  0  0
 20 21  1  0  0  0
 20 40  1  0  0  0
 21 22  2  0  0  0
 21 23  1  0  0  0
 23 28  2  0  0  0
 23 24  1  0  0  0
 24 25  2  0  0  0
 24 41  1  0  0  0
 25 26  1  0  0  0
 25 42  1  0  0  0
 26 27  2  0  0  0
 26 43  1  0  0  0
 27 28  1  0  0  0
 27 29  1  0  0  0
 28 44  1  0  0  0
M  END
> <i_i_glide_confnum>
1

> <i_i_glide_lignum>
2127

> <i_i_glide_posenum>
391

> <i_i_glide_rotatable_bonds>
7

> <i_m_Source_File_Index>
745

> <b_m_subgroup_collapsed>
0

> <r_i_docking_score>
-6.1222

> <r_i_glide_ecoul>
-4.75165

> <r_i_glide_eff_state_penalty>
0

> <r_i_glide_einternal>
1.74413

> <r_i_glide_emodel>
-70.9391

> <r_i_glide_energy>
-53.2556

> <r_i_glide_erotb>
0.427878

> <r_i_glide_esite>
0

> <r_i_glide_evdw>
-48.504

> <r_i_glide_gscore>
-6.1222

> <r_i_glide_hbond>
-0.0167232

> <r_i_glide_ligand_efficiency>
-0.21111

> <r_i_glide_ligand_efficiency_ln>
-1.40183

> <r_i_glide_ligand_efficiency_sa>
-0.648598

> <r_i_glide_lipo>
-1.58698

> <r_i_glide_metal>
0

> <r_i_glide_rewards>
-1.80843

> <s_i_glide_gridfile>
wee1_glide-grid

> <s_m_Source_File>
wee1_decoys_glide_SP.sdf

> <s_m_Source_Path>
/Users/zhangxujun/Desktop

> <s_m_entry_id>
1020

> <s_m_entry_name>
wee1_decoys_glide_SP.745

> <s_m_subgroup_title>
wee1_decoys_glide_SP

> <s_m_subgroupid>
wee1_decoys_glide_SP


$$$$
