ZINC13426640_1944
                    3D
 Schrodinger Suite 2024-2.
 49 52  0  0  1  0            999 V2000
    6.4665   54.6956   26.9094 C   0  0  0  0  0  0
    5.8828   54.8096   25.6532 C   0  0  0  0  0  0
    4.5447   54.4712   25.4664 C   0  0  0  0  0  0
    3.7658   54.0059   26.5568 C   0  0  0  0  0  0
    2.4141   53.6279   26.4002 C   0  0  0  0  0  0
    1.6617   53.1733   27.4873 C   0  0  0  0  0  0
    2.2265   53.1196   28.7805 C   0  0  0  0  0  0
    3.5779   53.4630   28.9372 C   0  0  0  0  0  0
    4.3633   53.9042   27.8465 C   0  0  0  0  0  0
    5.7266   54.2546   28.0017 C   0  0  0  0  0  0
    1.4433   52.7335   29.9999 C   0  0  0  0  0  0
    0.2552   53.1225   30.0754 O   0  0  0  0  0  0
    0.3385   52.8028   27.2013 N   0  0  0  0  0  0
   -0.0245   51.5750   26.7793 C   0  0  0  0  0  0
    0.7054   50.5899   26.8687 O   0  0  0  0  0  0
   -1.4070   51.4421   26.1084 C   0  0  2  0  0  0
   -1.5488   52.3818   25.5780 H   0  0  0  0  0  0
   -2.5214   51.2564   27.1785 C   0  0  0  0  0  0
   -3.8768   50.7861   26.5802 C   0  0  0  0  0  0
   -3.6944   49.6482   25.5555 C   0  0  0  0  0  0
   -2.7361   50.0553   24.5003 N   0  0  0  0  0  0
   -1.3858   50.2830   25.0682 C   0  0  0  0  0  0
   -3.3510   51.2413   23.3252 S   0  0  0  0  0  0
   -4.7319   50.8799   22.9789 O   0  0  0  0  0  0
   -3.0039   52.6129   23.7213 O   0  0  0  0  0  0
   -2.3345   50.8385   21.8888 C   0  0  0  0  0  0
   -2.6105   49.8301   20.9750 C   0  0  0  0  0  0
   -1.6337   49.7288   19.9776 C   0  0  0  0  0  0
   -0.6224   50.6719   20.1239 C   0  0  0  0  0  0
   -0.8711   51.6949   21.5052 S   0  0  0  0  0  0
    7.5002   54.9557   27.0540 H   0  0  0  0  0  0
    6.4720   55.1567   24.8159 H   0  0  0  0  0  0
    4.0971   54.5499   24.4859 H   0  0  0  0  0  0
    1.9724   53.6855   25.4153 H   0  0  0  0  0  0
    4.0439   53.4079   29.9121 H   0  0  0  0  0  0
    6.1919   54.1839   28.9738 H   0  0  0  0  0  0
   -0.3625   53.5221   27.2742 H   0  0  0  0  0  0
   -2.2386   50.4847   27.8936 H   0  0  0  0  0  0
   -2.7181   52.1919   27.6836 H   0  0  0  0  0  0
   -4.5363   50.4536   27.3849 H   0  0  0  0  0  0
   -4.3888   51.6249   26.1058 H   0  0  0  0  0  0
   -3.2456   48.8154   26.1003 H   0  0  0  0  0  0
   -4.5971   49.2373   25.1057 H   0  0  0  0  0  0
   -0.6621   50.3603   24.2567 H   0  0  0  0  0  0
   -1.1622   49.3651   25.6179 H   0  0  0  0  0  0
   -3.4752   49.1841   21.0359 H   0  0  0  0  0  0
   -1.6677   48.9906   19.1885 H   0  0  0  0  0  0
    0.2508   50.8075   19.4975 H   0  0  0  0  0  0
    2.0554   52.0996   30.8926 O   0  5  0  0  0  0
  1 10  2  0  0  0
  1  2  1  0  0  0
  1 31  1  0  0  0
  2  3  2  0  0  0
  2 32  1  0  0  0
  3  4  1  0  0  0
  3 33  1  0  0  0
  4  9  2  0  0  0
  4  5  1  0  0  0
  5  6  2  0  0  0
  5 34  1  0  0  0
  6  7  1  0  0  0
  6 13  1  0  0  0
  7  8  2  0  0  0
  7 11  1  0  0  0
  8  9  1  0  0  0
  8 35  1  0  0  0
  9 10  1  0  0  0
 10 36  1  0  0  0
 11 12  2  0  0  0
 11 49  1  0  0  0
 13 14  1  0  0  0
 13 37  1  0  0  0
 14 15  2  0  0  0
 14 16  1  0  0  0
 16 17  1  0  0  0
 16 22  1  0  0  0
 16 18  1  0  0  0
 18 19  1  0  0  0
 18 38  1  0  0  0
 18 39  1  0  0  0
 19 20  1  0  0  0
 19 40  1  0  0  0
 19 41  1  0  0  0
 20 21  1  0  0  0
 20 42  1  0  0  0
 20 43  1  0  0  0
 21 22  1  0  0  0
 21 23  1  0  0  0
 22 44  1  0  0  0
 22 45  1  0  0  0
 23 24  2  0  0  0
 23 25  2  0  0  0
 23 26  1  0  0  0
 26 30  1  0  0  0
 26 27  2  0  0  0
 27 28  1  0  0  0
 27 46  1  0  0  0
 28 29  2  0  0  0
 28 47  1  0  0  0
 29 30  1  0  0  0
 29 48  1  0  0  0
M  CHG  1  49  -1
M  END
> <i_i_glide_confnum>
10

> <i_i_glide_lignum>
1945

> <i_i_glide_posenum>
354

> <i_i_glide_rotatable_bonds>
6

> <i_m_Source_File_Index>
3943

> <b_m_subgroup_collapsed>
0

> <r_i_docking_score>
-3.93892

> <r_i_glide_ecoul>
-2.2459

> <r_i_glide_eff_state_penalty>
0

> <r_i_glide_einternal>
7.15626

> <r_i_glide_emodel>
-47.0914

> <r_i_glide_energy>
-39.8698

> <r_i_glide_erotb>
0.508172

> <r_i_glide_esite>
-0.0313363

> <r_i_glide_evdw>
-37.6239

> <r_i_glide_gscore>
-3.93892

> <r_i_glide_hbond>
-0.129515

> <r_i_glide_ligand_efficiency>
-0.131297

> <r_i_glide_ligand_efficiency_ln>
-0.894964

> <r_i_glide_ligand_efficiency_sa>
-0.407971

> <r_i_glide_lipo>
-2.46215

> <r_i_glide_metal>
0

> <r_i_glide_rewards>
0.39399

> <s_i_glide_gridfile>
wee1_glide-grid

> <s_m_Source_File>
wee1_decoys_glide_SP.sdf

> <s_m_Source_Path>
/Users/zhangxujun/Desktop

> <s_m_entry_id>
4218

> <s_m_entry_name>
wee1_decoys_glide_SP.3943

> <s_m_subgroup_title>
wee1_decoys_glide_SP

> <s_m_subgroupid>
wee1_decoys_glide_SP


$$$$
