ZINC39695997_183
                    3D
 Schrodinger Suite 2024-2.
 73 76  0  0  1  0            999 V2000
   -6.0034   54.2796   26.3940 C   0  0  0  0  0  0
   -5.8904   53.4496   25.1067 C   0  0  0  0  0  0
   -4.5973   52.6533   25.0377 C   0  0  0  0  0  0
   -3.4605   53.2289   24.4741 C   0  0  0  0  0  0
   -2.2744   52.5051   24.4114 C   0  0  0  0  0  0
   -2.2142   51.1925   24.8987 C   0  0  0  0  0  0
   -3.3572   50.6240   25.4699 C   0  0  0  0  0  0
   -4.5448   51.3504   25.5425 C   0  0  0  0  0  0
   -0.9340   50.3487   24.7760 C   0  0  2  0  0  0
   -1.2289   49.3068   24.6286 H   0  0  0  0  0  0
   -0.1115   50.4073   26.0693 C   0  0  0  0  0  0
   -0.0929   50.7513   23.6435 N   0  0  0  0  0  0
   -0.2335   50.3588   22.3645 C   0  0  0  0  0  0
   -0.9514   49.4188   22.0254 O   0  0  0  0  0  0
    0.5665   51.1377   21.2818 C   0  0  1  0  0  0
    0.0286   50.9905   20.3464 H   0  0  0  0  0  0
    0.6308   52.6393   21.5820 C   0  0  0  0  0  0
    1.8823   52.7922   22.3441 N   0  0  0  0  0  0
    2.7468   51.6212   22.2108 C   0  0  0  0  0  0
    2.0559   50.7314   21.1588 C   0  0  0  0  0  0
    2.6819   51.1283   19.7846 C   0  0  0  0  0  0
    2.0922   50.3289   18.6083 C   0  0  0  0  0  0
    2.3055   48.8261   18.8818 N   0  3  0  0  0  0
    1.8201   48.3457   20.2682 C   0  0  0  0  0  0
    2.4274   49.2553   21.3565 C   0  0  0  0  0  0
    2.0093   53.7235   23.3178 C   0  0  0  0  0  0
    1.1005   54.4939   23.5963 O   0  0  0  0  0  0
    3.2935   53.8536   24.0943 C   0  0  0  0  0  0
    4.4952   54.0959   23.4166 C   0  0  0  0  0  0
    5.6684   54.3369   24.1260 C   0  0  0  0  0  0
    5.6685   54.3399   25.5199 C   0  0  0  0  0  0
    4.4657   54.0962   26.1969 C   0  0  0  0  0  0
    3.2716   53.8497   25.5022 C   0  0  0  0  0  0
    2.0686   53.5951   26.1425 O   0  0  0  0  0  0
    1.9887   53.6370   27.5624 C   0  0  0  0  0  0
    6.8728   54.5873   26.1434 O   0  0  0  0  0  0
    6.9373   54.4952   27.5635 C   0  0  0  0  0  0
   -6.9258   54.8611   26.4043 H   0  0  0  0  0  0
   -5.1691   54.9758   26.4913 H   0  0  0  0  0  0
   -6.0058   53.6374   27.2761 H   0  0  0  0  0  0
   -6.7407   52.7709   25.0196 H   0  0  0  0  0  0
   -5.9565   54.1010   24.2329 H   0  0  0  0  0  0
   -3.4933   54.2351   24.0822 H   0  0  0  0  0  0
   -1.4011   52.9755   23.9864 H   0  0  0  0  0  0
   -3.3283   49.6152   25.8580 H   0  0  0  0  0  0
   -5.4188   50.8976   25.9834 H   0  0  0  0  0  0
   -0.7067   50.0966   26.9276 H   0  0  0  0  0  0
    0.7485   49.7388   26.0181 H   0  0  0  0  0  0
    0.2588   51.4144   26.2664 H   0  0  0  0  0  0
    0.5492   51.5075   23.8290 H   0  0  0  0  0  0
    0.7044   53.1444   20.6184 H   0  0  0  0  0  0
   -0.2888   52.8967   22.1008 H   0  0  0  0  0  0
    2.6943   51.0842   23.1590 H   0  0  0  0  0  0
    3.8053   51.8054   22.0271 H   0  0  0  0  0  0
    2.5346   52.1904   19.5841 H   0  0  0  0  0  0
    3.7684   51.0065   19.7936 H   0  0  0  0  0  0
    1.0248   50.4812   18.4508 H   0  0  0  0  0  0
    2.6260   50.5282   17.6752 H   0  0  0  0  0  0
    1.8710   48.2885   18.1426 H   0  0  0  0  0  0
    0.7299   48.3812   20.2445 H   0  0  0  0  0  0
    2.1471   47.3101   20.3620 H   0  0  0  0  0  0
    3.5044   49.2148   21.3654 H   0  0  0  0  0  0
    2.1190   48.8967   22.3404 H   0  0  0  0  0  0
    4.5178   54.1342   22.3369 H   0  0  0  0  0  0
    6.5880   54.5302   23.5921 H   0  0  0  0  0  0
    4.4576   54.0971   27.2737 H   0  0  0  0  0  0
    0.9633   53.4340   27.8701 H   0  0  0  0  0  0
    2.6258   52.8800   28.0227 H   0  0  0  0  0  0
    2.2577   54.6226   27.9480 H   0  0  0  0  0  0
    7.9579   54.6710   27.8878 H   0  0  0  0  0  0
    6.3037   55.2417   28.0437 H   0  0  0  0  0  0
    6.6518   53.5021   27.9143 H   0  0  0  0  0  0
    3.3007   48.6535   18.7813 H   0  0  0  0  0  0
  1  2  1  0  0  0
  1 38  1  0  0  0
  1 39  1  0  0  0
  1 40  1  0  0  0
  2  3  1  0  0  0
  2 41  1  0  0  0
  2 42  1  0  0  0
  3  8  2  0  0  0
  3  4  1  0  0  0
  4  5  2  0  0  0
  4 43  1  0  0  0
  5  6  1  0  0  0
  5 44  1  0  0  0
  6  7  2  0  0  0
  6  9  1  0  0  0
  7  8  1  0  0  0
  7 45  1  0  0  0
  8 46  1  0  0  0
  9 10  1  0  0  0
  9 11  1  0  0  0
  9 12  1  0  0  0
 11 47  1  0  0  0
 11 48  1  0  0  0
 11 49  1  0  0  0
 12 13  1  0  0  0
 12 50  1  0  0  0
 13 14  2  0  0  0
 13 15  1  0  0  0
 15 16  1  0  0  0
 15 20  1  0  0  0
 15 17  1  0  0  0
 17 18  1  0  0  0
 17 51  1  0  0  0
 17 52  1  0  0  0
 18 19  1  0  0  0
 18 26  1  0  0  0
 19 20  1  0  0  0
 19 53  1  0  0  0
 19 54  1  0  0  0
 20 25  1  0  0  0
 20 21  1  0  0  0
 21 22  1  0  0  0
 21 55  1  0  0  0
 21 56  1  0  0  0
 22 23  1  0  0  0
 22 57  1  0  0  0
 22 58  1  0  0  0
 23 24  1  0  0  0
 23 59  1  0  0  0
 23 73  1  0  0  0
 24 25  1  0  0  0
 24 60  1  0  0  0
 24 61  1  0  0  0
 25 62  1  0  0  0
 25 63  1  0  0  0
 26 27  2  0  0  0
 26 28  1  0  0  0
 28 33  2  0  0  0
 28 29  1  0  0  0
 29 30  2  0  0  0
 29 64  1  0  0  0
 30 31  1  0  0  0
 30 65  1  0  0  0
 31 32  2  0  0  0
 31 36  1  0  0  0
 32 33  1  0  0  0
 32 66  1  0  0  0
 33 34  1  0  0  0
 34 35  1  0  0  0
 35 67  1  0  0  0
 35 68  1  0  0  0
 35 69  1  0  0  0
 36 37  1  0  0  0
 37 70  1  0  0  0
 37 71  1  0  0  0
 37 72  1  0  0  0
M  CHG  1  23   1
M  END
> <i_i_glide_confnum>
231

> <i_i_glide_lignum>
184

> <i_i_glide_posenum>
166

> <i_i_glide_rotatable_bonds>
9

> <i_m_Source_File_Index>
5879

> <b_m_subgroup_collapsed>
0

> <r_i_docking_score>
-5.34555

> <r_i_glide_ecoul>
-4.61124

> <r_i_glide_eff_state_penalty>
0

> <r_i_glide_einternal>
11.8606

> <r_i_glide_emodel>
-54.3075

> <r_i_glide_energy>
-43.0415

> <r_i_glide_erotb>
0.526775

> <r_i_glide_esite>
-0.0974129

> <r_i_glide_evdw>
-38.4302

> <r_i_glide_gscore>
-5.34555

> <r_i_glide_hbond>
-0.265285

> <r_i_glide_ligand_efficiency>
-0.15273

> <r_i_glide_ligand_efficiency_ln>
-1.17347

> <r_i_glide_ligand_efficiency_sa>
-0.49959

> <r_i_glide_lipo>
-2.33978

> <r_i_glide_metal>
0

> <r_i_glide_rewards>
-0.556655

> <s_i_glide_gridfile>
wee1_glide-grid

> <s_m_Source_File>
wee1_decoys_glide_SP.sdf

> <s_m_Source_Path>
/Users/zhangxujun/Desktop

> <s_m_entry_id>
6154

> <s_m_entry_name>
wee1_decoys_glide_SP.5879

> <s_m_subgroup_title>
wee1_decoys_glide_SP

> <s_m_subgroupid>
wee1_decoys_glide_SP


$$$$
