ZINC14553659_3921
                    3D
 Schrodinger Suite 2024-2.
 57 62  0  0  1  0            999 V2000
   -8.8357   49.9101   27.9509 C   0  0  0  0  0  0
   -7.4105   49.6926   28.4261 C   0  0  0  0  0  0
   -7.1314   48.7317   29.3993 C   0  0  0  0  0  0
   -5.8240   48.5447   29.8405 C   0  0  0  0  0  0
   -4.7907   49.3184   29.3124 C   0  0  0  0  0  0
   -5.0475   50.2982   28.3335 C   0  0  0  0  0  0
   -6.3725   50.4694   27.9033 C   0  0  0  0  0  0
   -3.9471   51.1701   27.7595 C   0  0  0  0  0  0
   -4.2110   52.0839   26.9689 O   0  0  0  0  0  0
   -2.6983   50.8968   28.1856 N   0  0  0  0  0  0
   -1.5261   51.5569   27.8191 C   0  0  0  0  0  0
   -1.1458   51.6770   26.4827 C   0  0  0  0  0  0
    0.0655   52.2826   26.1695 C   0  0  0  0  0  0
    0.8710   52.8103   27.1803 C   0  0  0  0  0  0
    0.5108   52.6809   28.5374 C   0  0  0  0  0  0
   -0.6887   52.0243   28.8332 C   0  0  0  0  0  0
    1.3912   53.2451   29.6559 C   0  0  2  0  0  0
    1.6758   52.4109   30.2995 H   0  0  0  0  0  0
    0.7079   54.3514   30.4403 C   0  0  0  0  0  0
    1.1992   55.5625   30.1272 C   0  0  0  0  0  0
    2.3304   55.4611   29.1300 C   0  0  0  0  0  0
    2.6485   53.9563   29.1262 C   0  0  2  0  0  0
    3.4335   53.8023   29.8689 H   0  0  0  0  0  0
    3.1730   53.3666   27.7899 C   0  0  1  0  0  0
    3.4049   52.3141   27.9685 H   0  0  0  0  0  0
    2.1014   53.3663   26.8007 N   0  0  0  0  0  0
    4.4581   54.0075   27.2823 C   0  0  0  0  0  0
    5.5243   54.4209   28.0608 C   0  0  0  0  0  0
    6.5411   54.8965   27.2830 N   0  0  0  0  0  0
    7.3926   55.2515   27.6979 H   0  0  0  0  0  0
    6.1921   54.8096   25.9609 C   0  0  0  0  0  0
    4.8720   54.2665   25.9140 C   0  0  0  0  0  0
    4.2840   54.0895   24.6456 C   0  0  0  0  0  0
    5.0197   54.3793   23.4986 C   0  0  0  0  0  0
    6.3062   54.8964   23.5867 C   0  0  0  0  0  0
    6.9097   55.1502   24.8169 C   0  0  0  0  0  0
   -9.0259   50.9681   27.7641 H   0  0  0  0  0  0
   -9.0219   49.3594   27.0285 H   0  0  0  0  0  0
   -9.5598   49.5938   28.7020 H   0  0  0  0  0  0
   -7.9258   48.1259   29.8120 H   0  0  0  0  0  0
   -5.6056   47.8023   30.5960 H   0  0  0  0  0  0
   -3.7909   49.1392   29.6844 H   0  0  0  0  0  0
   -6.6051   51.2153   27.1560 H   0  0  0  0  0  0
   -2.5571   50.0665   28.7530 H   0  0  0  0  0  0
   -1.7688   51.2822   25.6929 H   0  0  0  0  0  0
    0.3692   52.3536   25.1353 H   0  0  0  0  0  0
   -0.9793   51.8982   29.8670 H   0  0  0  0  0  0
   -0.0989   54.1495   31.1287 H   0  0  0  0  0  0
    0.8627   56.5128   30.5214 H   0  0  0  0  0  0
    3.1893   56.0461   29.4571 H   0  0  0  0  0  0
    2.0285   55.8285   28.1479 H   0  0  0  0  0  0
    2.4251   53.2463   25.8555 H   0  0  0  0  0  0
    5.6547   54.4089   29.1330 H   0  0  0  0  0  0
    3.2890   53.6928   24.5330 H   0  0  0  0  0  0
    4.5818   54.2120   22.5244 H   0  0  0  0  0  0
    6.8497   55.1150   22.6785 H   0  0  0  0  0  0
    7.9040   55.5626   24.8811 H   0  0  0  0  0  0
  1  2  1  0  0  0
  1 37  1  0  0  0
  1 38  1  0  0  0
  1 39  1  0  0  0
  2  7  2  0  0  0
  2  3  1  0  0  0
  3  4  2  0  0  0
  3 40  1  0  0  0
  4  5  1  0  0  0
  4 41  1  0  0  0
  5  6  2  0  0  0
  5 42  1  0  0  0
  6  7  1  0  0  0
  6  8  1  0  0  0
  7 43  1  0  0  0
  8  9  2  0  0  0
  8 10  1  0  0  0
 10 11  1  0  0  0
 10 44  1  0  0  0
 11 16  2  0  0  0
 11 12  1  0  0  0
 12 13  2  0  0  0
 12 45  1  0  0  0
 13 14  1  0  0  0
 13 46  1  0  0  0
 14 26  1  0  0  0
 14 15  2  0  0  0
 15 16  1  0  0  0
 15 17  1  0  0  0
 16 47  1  0  0  0
 17 18  1  0  0  0
 17 22  1  0  0  0
 17 19  1  0  0  0
 19 20  2  0  0  0
 19 48  1  0  0  0
 20 21  1  0  0  0
 20 49  1  0  0  0
 21 22  1  0  0  0
 21 50  1  0  0  0
 21 51  1  0  0  0
 22 23  1  0  0  0
 22 24  1  0  0  0
 24 25  1  0  0  0
 24 26  1  0  0  0
 24 27  1  0  0  0
 26 52  1  0  0  0
 27 32  1  0  0  0
 27 28  2  0  0  0
 28 29  1  0  0  0
 28 53  1  0  0  0
 29 30  1  0  0  0
 29 31  1  0  0  0
 31 36  2  0  0  0
 31 32  1  0  0  0
 32 33  2  0  0  0
 33 34  1  0  0  0
 33 54  1  0  0  0
 34 35  2  0  0  0
 34 55  1  0  0  0
 35 36  1  0  0  0
 35 56  1  0  0  0
 36 57  1  0  0  0
M  END
> <i_i_glide_confnum>
35

> <i_i_glide_lignum>
3922

> <i_i_glide_posenum>
165

> <i_i_glide_rotatable_bonds>
4

> <i_m_Source_File_Index>
359

> <b_m_subgroup_collapsed>
0

> <r_i_docking_score>
-6.28042

> <r_i_glide_ecoul>
-3.52101

> <r_i_glide_eff_state_penalty>
0

> <r_i_glide_einternal>
3.37208

> <r_i_glide_emodel>
-58.3438

> <r_i_glide_energy>
-44.794

> <r_i_glide_erotb>
0.449651

> <r_i_glide_esite>
-0.145516

> <r_i_glide_evdw>
-41.273

> <r_i_glide_gscore>
-6.28042

> <r_i_glide_hbond>
-0.254765

> <r_i_glide_ligand_efficiency>
-0.196263

> <r_i_glide_ligand_efficiency_ln>
-1.40636

> <r_i_glide_ligand_efficiency_sa>
-0.623097

> <r_i_glide_lipo>
-3.6739

> <r_i_glide_metal>
0

> <r_i_glide_rewards>
-0.0640907

> <s_i_glide_gridfile>
wee1_glide-grid

> <s_m_Source_File>
wee1_decoys_glide_SP.sdf

> <s_m_Source_Path>
/Users/zhangxujun/Desktop

> <s_m_entry_id>
634

> <s_m_entry_name>
wee1_decoys_glide_SP.359

> <s_m_subgroup_title>
wee1_decoys_glide_SP

> <s_m_subgroupid>
wee1_decoys_glide_SP


$$$$
