ZINC36286258_445
                    3D
 Schrodinger Suite 2024-2.
 65 69  0  0  1  0            999 V2000
    0.7021   54.4968   29.7394 C   0  0  0  0  0  0
    1.3643   53.1180   29.5306 C   0  0  0  0  0  0
    2.6035   53.1492   28.6240 C   0  0  1  0  0  0
    3.2752   52.3447   28.9312 H   0  0  0  0  0  0
    2.0567   52.7441   27.2718 C   0  0  0  0  0  0
    0.7919   52.0723   27.5078 N   0  0  0  0  0  0
    0.3352   52.2345   28.7766 C   0  0  0  0  0  0
   -0.6922   51.7907   29.2840 O   0  0  0  0  0  0
    0.2439   51.1497   26.4799 C   0  0  2  0  0  0
    0.6920   51.4130   24.9929 C   0  0  2  0  0  0
    1.7507   51.6639   24.9269 H   0  0  0  0  0  0
   -0.0826   52.5999   24.3579 C   0  0  0  0  0  0
   -1.5988   52.2936   24.3759 C   0  0  2  0  0  0
   -2.0603   52.0742   25.8386 C   0  0  0  0  0  0
   -1.2952   50.8717   26.4453 C   0  0  1  0  0  0
   -1.6831   50.6543   27.4388 H   0  0  0  0  0  0
   -1.5624   49.6003   25.5984 C   0  0  0  0  0  0
   -1.0882   49.7854   24.1140 C   0  0  2  0  0  0
    0.4386   50.1331   24.1515 C   0  0  0  0  0  0
   -1.8688   51.0157   23.5338 C   0  0  0  0  0  0
   -1.3332   48.5140   23.2277 C   0  0  0  0  0  0
   -1.8850   47.4904   23.7660 N   0  0  0  0  0  0
   -2.0968   46.3932   22.9016 O   0  0  0  0  0  0
   -0.9011   48.6756   21.9180 N   0  0  0  0  0  0
    3.4596   54.4499   28.6125 C   0  0  0  0  0  0
    4.7586   54.3016   28.0138 O   0  0  0  0  0  0
    4.9251   54.3560   26.6405 C   0  0  0  0  0  0
    6.1951   54.1419   26.1002 C   0  0  0  0  0  0
    6.3384   54.0968   24.7090 C   0  0  0  0  0  0
    5.2108   54.2336   23.8889 C   0  0  0  0  0  0
    3.9855   54.4965   24.5054 C   0  0  0  0  0  0
    3.8435   54.5876   25.8475 N   0  0  0  0  0  0
    5.3098   54.0967   22.3754 C   0  0  0  0  0  0
    6.3254   54.8251   21.9121 F   0  0  0  0  0  0
    5.5049   52.8139   22.0812 F   0  0  0  0  0  0
    4.1940   54.4924   21.7593 F   0  0  0  0  0  0
    1.6834   52.4577   30.8921 C   0  0  0  0  0  0
    1.3777   55.2245   30.1859 H   0  0  0  0  0  0
    0.3422   54.8971   28.7919 H   0  0  0  0  0  0
   -0.1613   54.4333   30.4041 H   0  0  0  0  0  0
    2.7532   52.1013   26.7337 H   0  0  0  0  0  0
    1.7805   53.6161   26.6792 H   0  0  0  0  0  0
    0.7129   50.2130   26.7859 H   0  0  0  0  0  0
    0.1399   53.5302   24.8813 H   0  0  0  0  0  0
    0.2545   52.7596   23.3311 H   0  0  0  0  0  0
   -2.1444   53.1367   23.9476 H   0  0  0  0  0  0
   -3.1340   51.8899   25.8708 H   0  0  0  0  0  0
   -1.8857   52.9683   26.4391 H   0  0  0  0  0  0
   -2.6283   49.3612   25.6363 H   0  0  0  0  0  0
   -1.0575   48.7498   26.0632 H   0  0  0  0  0  0
    1.0118   49.3016   24.5696 H   0  0  0  0  0  0
    0.8353   50.2869   23.1468 H   0  0  0  0  0  0
   -1.5834   51.2104   22.4994 H   0  0  0  0  0  0
   -2.9397   50.8095   23.5128 H   0  0  0  0  0  0
   -1.7571   46.7181   22.0670 H   0  0  0  0  0  0
   -0.9812   47.9575   21.2149 H   0  0  0  0  0  0
   -0.4277   49.5300   21.6613 H   0  0  0  0  0  0
    2.9128   55.2900   28.1781 H   0  0  0  0  0  0
    3.6566   54.7409   29.6442 H   0  0  0  0  0  0
    7.0402   53.9770   26.7514 H   0  0  0  0  0  0
    7.3080   53.9051   24.2716 H   0  0  0  0  0  0
    3.0814   54.6361   23.9295 H   0  0  0  0  0  0
    2.5592   52.8970   31.3599 H   0  0  0  0  0  0
    0.8521   52.5362   31.5947 H   0  0  0  0  0  0
    1.9029   51.3986   30.7804 H   0  0  0  0  0  0
  1  2  1  0  0  0
  1 38  1  0  0  0
  1 39  1  0  0  0
  1 40  1  0  0  0
  2  7  1  0  0  0
  2  3  1  0  0  0
  2 37  1  0  0  0
  3  4  1  0  0  0
  3  5  1  0  0  0
  3 25  1  0  0  0
  5  6  1  0  0  0
  5 41  1  0  0  0
  5 42  1  0  0  0
  6  7  1  0  0  0
  6  9  1  0  0  0
  7  8  2  0  0  0
  9 15  1  0  0  0
  9 10  1  0  0  0
  9 43  1  0  0  0
 10 11  1  0  0  0
 10 19  1  0  0  0
 10 12  1  0  0  0
 12 13  1  0  0  0
 12 44  1  0  0  0
 12 45  1  0  0  0
 13 20  1  0  0  0
 13 14  1  0  0  0
 13 46  1  0  0  0
 14 15  1  0  0  0
 14 47  1  0  0  0
 14 48  1  0  0  0
 15 16  1  0  0  0
 15 17  1  0  0  0
 17 18  1  0  0  0
 17 49  1  0  0  0
 17 50  1  0  0  0
 18 19  1  0  0  0
 18 20  1  0  0  0
 18 21  1  0  0  0
 19 51  1  0  0  0
 19 52  1  0  0  0
 20 53  1  0  0  0
 20 54  1  0  0  0
 21 22  2  0  0  0
 21 24  1  0  0  0
 22 23  1  0  0  0
 23 55  1  0  0  0
 24 56  1  0  0  0
 24 57  1  0  0  0
 25 26  1  0  0  0
 25 58  1  0  0  0
 25 59  1  0  0  0
 26 27  1  0  0  0
 27 32  2  0  0  0
 27 28  1  0  0  0
 28 29  2  0  0  0
 28 60  1  0  0  0
 29 30  1  0  0  0
 29 61  1  0  0  0
 30 31  2  0  0  0
 30 33  1  0  0  0
 31 32  1  0  0  0
 31 62  1  0  0  0
 33 34  1  0  0  0
 33 35  1  0  0  0
 33 36  1  0  0  0
 37 63  1  0  0  0
 37 64  1  0  0  0
 37 65  1  0  0  0
M  END
> <i_i_glide_confnum>
10

> <i_i_glide_lignum>
446

> <i_i_glide_posenum>
168

> <i_i_glide_rotatable_bonds>
7

> <i_m_Source_File_Index>
5468

> <b_m_subgroup_collapsed>
0

> <r_i_docking_score>
-5.74706

> <r_i_glide_ecoul>
1.13234

> <r_i_glide_eff_state_penalty>
0

> <r_i_glide_einternal>
2.82974

> <r_i_glide_emodel>
-59.6964

> <r_i_glide_energy>
-47.3411

> <r_i_glide_erotb>
0.526967

> <r_i_glide_esite>
-0.0544464

> <r_i_glide_evdw>
-48.4734

> <r_i_glide_gscore>
-5.74706

> <r_i_glide_hbond>
0

> <r_i_glide_ligand_efficiency>
-0.169031

> <r_i_glide_ligand_efficiency_ln>
-1.26969

> <r_i_glide_ligand_efficiency_sa>
-0.547595

> <r_i_glide_lipo>
-2.81064

> <r_i_glide_metal>
0

> <r_i_glide_rewards>
-1.15511

> <s_i_glide_gridfile>
wee1_glide-grid

> <s_m_Source_File>
wee1_decoys_glide_SP.sdf

> <s_m_Source_Path>
/Users/zhangxujun/Desktop

> <s_m_entry_id>
5743

> <s_m_entry_name>
wee1_decoys_glide_SP.5468

> <s_m_subgroup_title>
wee1_decoys_glide_SP

> <s_m_subgroupid>
wee1_decoys_glide_SP


$$$$
