ZINC35723136_3624
                    3D
 Schrodinger Suite 2024-2.
 58 62  0  0  1  0            999 V2000
   -0.1713   52.9021   29.9703 C   0  0  0  0  0  0
    0.2294   51.7453   29.3164 C   0  0  0  0  0  0
    1.5060   51.6725   28.7811 C   0  0  0  0  0  0
    2.3678   52.7683   28.8346 C   0  0  0  0  0  0
    1.9240   53.9783   29.4000 C   0  0  0  0  0  0
    0.6623   54.0192   30.0043 C   0  0  0  0  0  0
    2.8088   55.2166   29.2802 C   0  0  0  0  0  0
    4.2950   54.8273   29.0621 C   0  0  0  0  0  0
    4.3903   53.9322   27.9041 N   0  0  0  0  0  0
    3.7679   52.6610   28.2558 C   0  0  0  0  0  0
    4.8842   54.2351   26.6320 C   0  0  0  0  0  0
    6.2264   54.6253   26.5625 C   0  0  0  0  0  0
    6.8485   54.8573   25.3372 C   0  0  0  0  0  0
    6.1388   54.7767   24.1492 C   0  0  0  0  0  0
    4.7911   54.4089   24.1932 C   0  0  0  0  0  0
    4.1554   54.0979   25.4118 C   0  0  0  0  0  0
    2.6902   53.7094   25.3674 C   0  0  0  0  0  0
    1.9060   54.0937   26.2293 O   0  0  0  0  0  0
    2.3048   52.9316   24.3393 N   0  0  0  0  0  0
    0.9342   52.4948   24.1012 C   0  0  0  0  0  0
    0.6970   51.0441   23.7569 C   0  0  0  0  0  0
    0.2650   51.5780   25.1020 C   0  0  0  0  0  0
    6.8685   55.1041   22.9946 N   0  0  0  0  0  0
    6.4781   55.2339   21.7149 C   0  0  0  0  0  0
    5.3576   54.9763   21.2806 O   0  0  0  0  0  0
    7.5044   55.6966   20.9770 N   0  0  0  0  0  0
    7.4860   56.0982   19.6323 C   0  0  0  0  0  0
    6.3650   56.6738   19.0161 C   0  0  0  0  0  0
    6.4362   57.1085   17.6917 C   0  0  0  0  0  0
    7.6268   56.9757   16.9771 C   0  0  0  0  0  0
    8.7476   56.4094   17.5870 C   0  0  0  0  0  0
    8.6761   55.9758   18.9112 C   0  0  0  0  0  0
    9.9065   56.2797   16.9017 F   0  0  0  0  0  0
    7.6937   57.3994   15.6958 F   0  0  0  0  0  0
   -1.1485   52.9196   30.4234 H   0  0  0  0  0  0
   -0.4369   50.8964   29.2655 H   0  0  0  0  0  0
    1.8293   50.7554   28.3116 H   0  0  0  0  0  0
    0.3151   54.9286   30.4705 H   0  0  0  0  0  0
    2.4693   55.8010   28.4247 H   0  0  0  0  0  0
    2.6795   55.8641   30.1438 H   0  0  0  0  0  0
    4.6865   54.3375   29.9558 H   0  0  0  0  0  0
    4.9363   55.6936   28.9395 H   0  0  0  0  0  0
    4.4182   52.0923   28.9215 H   0  0  0  0  0  0
    3.6771   52.0967   27.3347 H   0  0  0  0  0  0
    6.8089   54.7044   27.4707 H   0  0  0  0  0  0
    7.9030   55.0899   25.2820 H   0  0  0  0  0  0
    4.2247   54.3605   23.2759 H   0  0  0  0  0  0
    2.9517   52.8033   23.5776 H   0  0  0  0  0  0
    0.3128   53.2524   23.6197 H   0  0  0  0  0  0
   -0.0614   50.8056   23.0113 H   0  0  0  0  0  0
    1.5528   50.3695   23.7028 H   0  0  0  0  0  0
    0.8164   51.2840   25.9947 H   0  0  0  0  0  0
   -0.7961   51.7266   25.3083 H   0  0  0  0  0  0
    7.8425   55.2975   23.1785 H   0  0  0  0  0  0
    8.4187   55.6808   21.4044 H   0  0  0  0  0  0
    5.4426   56.8084   19.5585 H   0  0  0  0  0  0
    5.5739   57.5574   17.2211 H   0  0  0  0  0  0
    9.5519   55.5436   19.3706 H   0  0  0  0  0  0
  1  6  2  0  0  0
  1  2  1  0  0  0
  1 35  1  0  0  0
  2  3  2  0  0  0
  2 36  1  0  0  0
  3  4  1  0  0  0
  3 37  1  0  0  0
  4 10  1  0  0  0
  4  5  2  0  0  0
  5  6  1  0  0  0
  5  7  1  0  0  0
  6 38  1  0  0  0
  7  8  1  0  0  0
  7 39  1  0  0  0
  7 40  1  0  0  0
  8  9  1  0  0  0
  8 41  1  0  0  0
  8 42  1  0  0  0
  9 10  1  0  0  0
  9 11  1  0  0  0
 10 43  1  0  0  0
 10 44  1  0  0  0
 11 16  2  0  0  0
 11 12  1  0  0  0
 12 13  2  0  0  0
 12 45  1  0  0  0
 13 14  1  0  0  0
 13 46  1  0  0  0
 14 15  2  0  0  0
 14 23  1  0  0  0
 15 16  1  0  0  0
 15 47  1  0  0  0
 16 17  1  0  0  0
 17 18  2  0  0  0
 17 19  1  0  0  0
 19 20  1  0  0  0
 19 48  1  0  0  0
 20 22  1  0  0  0
 20 21  1  0  0  0
 20 49  1  0  0  0
 21 22  1  0  0  0
 21 50  1  0  0  0
 21 51  1  0  0  0
 22 52  1  0  0  0
 22 53  1  0  0  0
 23 24  1  0  0  0
 23 54  1  0  0  0
 24 25  2  0  0  0
 24 26  1  0  0  0
 26 27  1  0  0  0
 26 55  1  0  0  0
 27 32  2  0  0  0
 27 28  1  0  0  0
 28 29  2  0  0  0
 28 56  1  0  0  0
 29 30  1  0  0  0
 29 57  1  0  0  0
 30 31  2  0  0  0
 30 34  1  0  0  0
 31 32  1  0  0  0
 31 33  1  0  0  0
 32 58  1  0  0  0
M  END
> <i_i_glide_confnum>
231

> <i_i_glide_lignum>
3625

> <i_i_glide_posenum>
41

> <i_i_glide_rotatable_bonds>
8

> <i_m_Source_File_Index>
402

> <b_m_subgroup_collapsed>
0

> <r_i_docking_score>
-6.67625

> <r_i_glide_ecoul>
-2.08998

> <r_i_glide_eff_state_penalty>
0

> <r_i_glide_einternal>
11.1666

> <r_i_glide_emodel>
-56.1415

> <r_i_glide_energy>
-44.934

> <r_i_glide_erotb>
0.659242

> <r_i_glide_esite>
-0.000776086

> <r_i_glide_evdw>
-42.844

> <r_i_glide_gscore>
-6.67625

> <r_i_glide_hbond>
-0.32

> <r_i_glide_ligand_efficiency>
-0.19636

> <r_i_glide_ligand_efficiency_ln>
-1.47497

> <r_i_glide_ligand_efficiency_sa>
-0.636131

> <r_i_glide_lipo>
-3.34587

> <r_i_glide_metal>
0

> <r_i_glide_rewards>
-1.21315

> <s_i_glide_gridfile>
wee1_glide-grid

> <s_m_Source_File>
wee1_decoys_glide_SP.sdf

> <s_m_Source_Path>
/Users/zhangxujun/Desktop

> <s_m_entry_id>
677

> <s_m_entry_name>
wee1_decoys_glide_SP.402

> <s_m_subgroup_title>
wee1_decoys_glide_SP

> <s_m_subgroupid>
wee1_decoys_glide_SP


$$$$
