ZINC33688976_5747
                    3D
 Schrodinger Suite 2024-2.
 80 82  0  0  1  0            999 V2000
   -3.6581   52.5101   23.7818 C   0  0  0  0  0  0
   -2.8746   52.0743   25.0031 C   0  0  0  0  0  0
   -3.4782   51.2808   25.9836 C   0  0  0  0  0  0
   -2.7593   50.8970   27.1155 C   0  0  0  0  0  0
   -1.4345   51.2968   27.2715 C   0  0  0  0  0  0
   -0.8109   52.0863   26.2930 C   0  0  0  0  0  0
   -1.5487   52.4814   25.1631 C   0  0  0  0  0  0
    0.5361   52.4985   26.4619 N   0  0  0  0  0  0
    1.5046   52.7695   25.5113 C   0  0  0  0  0  0
    2.5654   53.2970   26.2290 C   0  0  0  0  0  0
    2.1785   53.3294   27.5731 C   0  0  0  0  0  0
    0.9644   52.8340   27.6961 N   0  0  0  0  0  0
    2.9367   53.8511   28.8010 C   0  0  0  0  0  0
    4.3668   54.3013   28.4153 C   0  0  0  0  0  0
    3.0531   52.7356   29.8689 C   0  0  0  0  0  0
    2.1750   55.0636   29.3891 C   0  0  0  0  0  0
    1.3518   52.4837   24.1656 N   0  0  0  0  0  0
    2.1114   52.9714   23.1663 C   0  0  0  0  0  0
    2.9945   53.8178   23.3115 O   0  0  0  0  0  0
    1.7292   52.4886   21.7527 C   0  0  0  0  0  0
    2.8514   51.8198   21.0556 N   0  0  0  0  0  0
    2.6290   50.4166   20.6780 C   0  0  0  0  0  0
    2.1542   50.2559   19.2130 C   0  0  0  0  0  0
    1.4205   48.9265   18.9157 C   0  0  0  0  0  0
    0.8727   48.9045   17.4782 C   0  0  0  0  0  0
    2.3034   47.6969   19.1783 C   0  0  0  0  0  0
    3.9671   52.4611   20.6028 C   0  0  0  0  0  0
    5.0816   51.9397   20.6254 O   0  0  0  0  0  0
    3.7317   53.6912   20.1060 N   0  0  0  0  0  0
    4.6607   54.6107   19.6010 C   0  0  0  0  0  0
    4.2862   55.3701   18.4867 C   0  0  0  0  0  0
    5.0878   56.4176   18.0292 C   0  0  0  0  0  0
    6.3130   56.6540   18.6724 C   0  0  0  0  0  0
    6.7133   55.8814   19.7708 C   0  0  0  0  0  0
    5.8735   54.8781   20.2436 C   0  0  0  0  0  0
    7.8867   56.0955   20.4574 O   0  0  0  0  0  0
    9.0359   56.4039   19.6807 C   0  0  0  0  0  0
    4.5940   57.1729   16.9810 O   0  0  0  0  0  0
    5.2921   58.3602   16.5991 C   0  0  0  0  0  0
   -4.7224   52.5813   24.0072 H   0  0  0  0  0  0
   -3.5115   51.7980   22.9670 H   0  0  0  0  0  0
   -3.3371   53.5006   23.4501 H   0  0  0  0  0  0
   -4.5014   50.9513   25.8660 H   0  0  0  0  0  0
   -3.2129   50.2604   27.8596 H   0  0  0  0  0  0
   -0.8960   50.9617   28.1494 H   0  0  0  0  0  0
   -1.1106   53.1280   24.4182 H   0  0  0  0  0  0
    3.5156   53.6201   25.8256 H   0  0  0  0  0  0
    4.3503   55.0848   27.6576 H   0  0  0  0  0  0
    4.9192   54.6918   29.2709 H   0  0  0  0  0  0
    4.9459   53.4756   28.0027 H   0  0  0  0  0  0
    2.0733   52.4267   30.2371 H   0  0  0  0  0  0
    3.5312   51.8468   29.4553 H   0  0  0  0  0  0
    3.6439   53.0526   30.7289 H   0  0  0  0  0  0
    1.1780   54.7844   29.7326 H   0  0  0  0  0  0
    2.6967   55.5075   30.2345 H   0  0  0  0  0  0
    2.0425   55.8486   28.6422 H   0  0  0  0  0  0
    0.6066   51.8466   23.9255 H   0  0  0  0  0  0
    0.9031   51.7816   21.8457 H   0  0  0  0  0  0
    1.2951   53.2985   21.1763 H   0  0  0  0  0  0
    3.5053   49.8031   20.8749 H   0  0  0  0  0  0
    1.8537   50.0086   21.3281 H   0  0  0  0  0  0
    1.4876   51.0786   18.9603 H   0  0  0  0  0  0
    3.0138   50.3543   18.5456 H   0  0  0  0  0  0
    0.5608   48.8615   19.5874 H   0  0  0  0  0  0
    1.6815   48.9699   16.7487 H   0  0  0  0  0  0
    0.3181   47.9876   17.2765 H   0  0  0  0  0  0
    0.1964   49.7391   17.2956 H   0  0  0  0  0  0
    3.1770   47.6985   18.5222 H   0  0  0  0  0  0
    2.6617   47.6938   20.2092 H   0  0  0  0  0  0
    1.7567   46.7654   19.0039 H   0  0  0  0  0  0
    2.7700   53.9953   20.0539 H   0  0  0  0  0  0
    3.3339   55.1956   18.0061 H   0  0  0  0  0  0
    6.9368   57.4644   18.3405 H   0  0  0  0  0  0
    6.1596   54.3253   21.1269 H   0  0  0  0  0  0
    9.8826   56.4994   20.3537 H   0  0  0  0  0  0
    9.2586   55.5990   18.9730 H   0  0  0  0  0  0
    8.9526   57.3449   19.1312 H   0  0  0  0  0  0
    4.7248   58.8863   15.8318 H   0  0  0  0  0  0
    5.4097   59.0454   17.4408 H   0  0  0  0  0  0
    6.2762   58.1334   16.1858 H   0  0  0  0  0  0
  1  2  1  0  0  0
  1 40  1  0  0  0
  1 41  1  0  0  0
  1 42  1  0  0  0
  2  7  2  0  0  0
  2  3  1  0  0  0
  3  4  2  0  0  0
  3 43  1  0  0  0
  4  5  1  0  0  0
  4 44  1  0  0  0
  5  6  2  0  0  0
  5 45  1  0  0  0
  6  7  1  0  0  0
  6  8  1  0  0  0
  7 46  1  0  0  0
  8 12  1  0  0  0
  8  9  1  0  0  0
  9 10  2  0  0  0
  9 17  1  0  0  0
 10 11  1  0  0  0
 10 47  1  0  0  0
 11 12  2  0  0  0
 11 13  1  0  0  0
 13 14  1  0  0  0
 13 15  1  0  0  0
 13 16  1  0  0  0
 14 48  1  0  0  0
 14 49  1  0  0  0
 14 50  1  0  0  0
 15 51  1  0  0  0
 15 52  1  0  0  0
 15 53  1  0  0  0
 16 54  1  0  0  0
 16 55  1  0  0  0
 16 56  1  0  0  0
 17 18  1  0  0  0
 17 57  1  0  0  0
 18 19  2  0  0  0
 18 20  1  0  0  0
 20 21  1  0  0  0
 20 58  1  0  0  0
 20 59  1  0  0  0
 21 22  1  0  0  0
 21 27  1  0  0  0
 22 23  1  0  0  0
 22 60  1  0  0  0
 22 61  1  0  0  0
 23 24  1  0  0  0
 23 62  1  0  0  0
 23 63  1  0  0  0
 24 25  1  0  0  0
 24 26  1  0  0  0
 24 64  1  0  0  0
 25 65  1  0  0  0
 25 66  1  0  0  0
 25 67  1  0  0  0
 26 68  1  0  0  0
 26 69  1  0  0  0
 26 70  1  0  0  0
 27 28  2  0  0  0
 27 29  1  0  0  0
 29 30  1  0  0  0
 29 71  1  0  0  0
 30 35  2  0  0  0
 30 31  1  0  0  0
 31 32  2  0  0  0
 31 72  1  0  0  0
 32 33  1  0  0  0
 32 38  1  0  0  0
 33 34  2  0  0  0
 33 73  1  0  0  0
 34 35  1  0  0  0
 34 36  1  0  0  0
 35 74  1  0  0  0
 36 37  1  0  0  0
 37 75  1  0  0  0
 37 76  1  0  0  0
 37 77  1  0  0  0
 38 39  1  0  0  0
 39 78  1  0  0  0
 39 79  1  0  0  0
 39 80  1  0  0  0
M  END
> <i_i_glide_confnum>
3

> <i_i_glide_lignum>
5748

> <i_i_glide_posenum>
352

> <i_i_glide_rotatable_bonds>
14

> <i_m_Source_File_Index>
2970

> <b_m_subgroup_collapsed>
0

> <r_i_docking_score>
-4.7364

> <r_i_glide_ecoul>
-7.12139

> <r_i_glide_eff_state_penalty>
0

> <r_i_glide_einternal>
22.3238

> <r_i_glide_emodel>
-56.6309

> <r_i_glide_energy>
-52.9699

> <r_i_glide_erotb>
0.719491

> <r_i_glide_esite>
-0.0304832

> <r_i_glide_evdw>
-45.8485

> <r_i_glide_gscore>
-4.7364

> <r_i_glide_hbond>
-0.393968

> <r_i_glide_ligand_efficiency>
-0.121446

> <r_i_glide_ligand_efficiency_ln>
-1.01562

> <r_i_glide_ligand_efficiency_sa>
-0.41185

> <r_i_glide_lipo>
-1.90694

> <r_i_glide_metal>
0

> <r_i_glide_rewards>
0.236135

> <s_i_glide_gridfile>
wee1_glide-grid

> <s_m_Source_File>
wee1_decoys_glide_SP.sdf

> <s_m_Source_Path>
/Users/zhangxujun/Desktop

> <s_m_entry_id>
3245

> <s_m_entry_name>
wee1_decoys_glide_SP.2970

> <s_m_subgroup_title>
wee1_decoys_glide_SP

> <s_m_subgroupid>
wee1_decoys_glide_SP


$$$$
