ZINC25591915_2000
                    3D
 Schrodinger Suite 2024-2.
 54 57  0  0  1  0            999 V2000
   -4.9234   50.0395   31.7695 C   0  0  0  0  0  0
   -4.9035   50.7425   30.4215 C   0  0  0  0  0  0
   -5.6921   51.6710   30.2162 O   0  0  0  0  0  0
   -3.9556   50.3243   29.5585 N   0  0  0  0  0  0
   -3.6859   50.8950   28.3052 C   0  0  0  0  0  0
   -2.3660   51.2967   28.0771 C   0  0  0  0  0  0
   -2.0072   51.9186   26.8728 C   0  0  0  0  0  0
   -2.9749   52.0817   25.8812 C   0  0  0  0  0  0
   -4.2838   51.6489   26.0865 C   0  0  0  0  0  0
   -4.6621   51.0449   27.2988 C   0  0  0  0  0  0
   -5.9381   50.5672   27.5406 O   0  0  0  0  0  0
   -6.9442   50.6949   26.5395 C   0  0  0  0  0  0
   -0.7247   52.4036   26.5607 N   0  0  0  0  0  0
    0.4085   52.4819   27.2880 C   0  0  0  0  0  0
    0.4715   52.1653   28.4791 O   0  0  0  0  0  0
    1.6450   53.0306   26.5696 C   0  0  0  0  0  0
    2.7727   53.2975   27.3690 C   0  0  0  0  0  0
    3.9733   53.8128   26.8343 C   0  0  0  0  0  0
    5.1210   54.0455   27.6370 C   0  0  0  0  0  0
    6.2945   54.5320   27.0635 C   0  0  0  0  0  0
    6.3516   54.8101   25.7016 C   0  0  0  0  0  0
    5.2387   54.6014   24.8909 C   0  0  0  0  0  0
    4.0349   54.0973   25.4456 C   0  0  0  0  0  0
    2.8991   53.8510   24.6514 C   0  0  0  0  0  0
    1.7228   53.2962   25.1693 C   0  0  0  0  0  0
    0.7196   53.1320   24.2435 N   0  5  0  0  0  0
    0.4044   51.7123   23.6505 S   0  0  0  0  0  0
    0.7341   50.6031   24.5498 O   0  0  0  0  0  0
   -0.9114   51.6785   23.0062 O   0  0  0  0  0  0
    1.5458   51.4920   22.2658 C   0  0  0  0  0  0
    2.0663   52.5024   21.4713 C   0  0  0  0  0  0
    2.8796   52.0238   20.4410 C   0  0  0  0  0  0
    2.9618   50.6382   20.4370 C   0  0  0  0  0  0
    2.0500   49.9200   21.7268 S   0  0  0  0  0  0
   -5.2178   48.9950   31.6519 H   0  0  0  0  0  0
   -5.6252   50.5223   32.4513 H   0  0  0  0  0  0
   -3.9310   50.0946   32.2249 H   0  0  0  0  0  0
   -3.2568   49.6678   29.9001 H   0  0  0  0  0  0
   -1.6371   51.1273   28.8549 H   0  0  0  0  0  0
   -2.7142   52.5371   24.9354 H   0  0  0  0  0  0
   -4.9906   51.7856   25.2812 H   0  0  0  0  0  0
   -7.8741   50.2759   26.9197 H   0  0  0  0  0  0
   -7.1296   51.7420   26.2901 H   0  0  0  0  0  0
   -6.6760   50.1455   25.6341 H   0  0  0  0  0  0
   -0.6004   52.7143   25.6022 H   0  0  0  0  0  0
    2.7525   53.1003   28.4313 H   0  0  0  0  0  0
    5.0859   53.8316   28.6966 H   0  0  0  0  0  0
    7.1624   54.6995   27.6833 H   0  0  0  0  0  0
    7.2627   55.1856   25.2602 H   0  0  0  0  0  0
    5.2905   54.8157   23.8334 H   0  0  0  0  0  0
    2.9639   54.0839   23.5983 H   0  0  0  0  0  0
    1.8560   53.5489   21.6349 H   0  0  0  0  0  0
    3.3720   52.6569   19.7176 H   0  0  0  0  0  0
    3.5043   50.0230   19.7315 H   0  0  0  0  0  0
  1  2  1  0  0  0
  1 35  1  0  0  0
  1 36  1  0  0  0
  1 37  1  0  0  0
  2  3  2  0  0  0
  2  4  1  0  0  0
  4  5  1  0  0  0
  4 38  1  0  0  0
  5 10  2  0  0  0
  5  6  1  0  0  0
  6  7  2  0  0  0
  6 39  1  0  0  0
  7  8  1  0  0  0
  7 13  1  0  0  0
  8  9  2  0  0  0
  8 40  1  0  0  0
  9 10  1  0  0  0
  9 41  1  0  0  0
 10 11  1  0  0  0
 11 12  1  0  0  0
 12 42  1  0  0  0
 12 43  1  0  0  0
 12 44  1  0  0  0
 13 14  1  0  0  0
 13 45  1  0  0  0
 14 15  2  0  0  0
 14 16  1  0  0  0
 16 25  2  0  0  0
 16 17  1  0  0  0
 17 18  2  0  0  0
 17 46  1  0  0  0
 18 23  1  0  0  0
 18 19  1  0  0  0
 19 20  2  0  0  0
 19 47  1  0  0  0
 20 21  1  0  0  0
 20 48  1  0  0  0
 21 22  2  0  0  0
 21 49  1  0  0  0
 22 23  1  0  0  0
 22 50  1  0  0  0
 23 24  2  0  0  0
 24 25  1  0  0  0
 24 51  1  0  0  0
 25 26  1  0  0  0
 26 27  1  0  0  0
 27 28  2  0  0  0
 27 29  2  0  0  0
 27 30  1  0  0  0
 30 34  1  0  0  0
 30 31  2  0  0  0
 31 32  1  0  0  0
 31 52  1  0  0  0
 32 33  2  0  0  0
 32 53  1  0  0  0
 33 34  1  0  0  0
 33 54  1  0  0  0
M  CHG  1  26  -1
M  END
> <i_i_glide_confnum>
35

> <i_i_glide_lignum>
2001

> <i_i_glide_posenum>
230

> <i_i_glide_rotatable_bonds>
9

> <i_m_Source_File_Index>
1978

> <b_m_subgroup_collapsed>
0

> <r_i_docking_score>
-5.34296

> <r_i_glide_ecoul>
-4.90774

> <r_i_glide_eff_state_penalty>
0

> <r_i_glide_einternal>
10.4003

> <r_i_glide_emodel>
-61.8815

> <r_i_glide_energy>
-49.7843

> <r_i_glide_erotb>
0.583233

> <r_i_glide_esite>
-0.177304

> <r_i_glide_evdw>
-44.8765

> <r_i_glide_gscore>
-5.34296

> <r_i_glide_hbond>
-0.20045

> <r_i_glide_ligand_efficiency>
-0.157146

> <r_i_glide_ligand_efficiency_ln>
-1.18041

> <r_i_glide_ligand_efficiency_sa>
-0.509092

> <r_i_glide_lipo>
-2.75184

> <r_i_glide_metal>
0

> <r_i_glide_rewards>
0.183385

> <s_i_glide_gridfile>
wee1_glide-grid

> <s_m_Source_File>
wee1_decoys_glide_SP.sdf

> <s_m_Source_Path>
/Users/zhangxujun/Desktop

> <s_m_entry_id>
2253

> <s_m_entry_name>
wee1_decoys_glide_SP.1978

> <s_m_subgroup_title>
wee1_decoys_glide_SP

> <s_m_subgroupid>
wee1_decoys_glide_SP


$$$$
