ZINC30826958_2972
                    3D
 Schrodinger Suite 2024-2.
 49 51  0  0  1  0            999 V2000
    4.4981   54.6042   24.5047 C   0  0  0  0  0  0
    3.9366   54.4949   25.7669 C   0  0  0  0  0  0
    4.7481   54.4580   26.9043 C   0  0  0  0  0  0
    6.1403   54.4790   26.7431 C   0  0  0  0  0  0
    6.7042   54.5802   25.4722 C   0  0  0  0  0  0
    5.8877   54.6620   24.3488 C   0  0  0  0  0  0
    6.5090   54.9030   23.1065 N   0  0  0  0  0  0
    6.0271   54.7395   21.8410 C   0  0  0  0  0  0
    6.7064   55.6965   20.6499 S   0  0  0  0  0  0
    5.0695   53.7654   21.7090 N   0  0  0  0  0  0
    4.4007   53.2475   20.6533 C   0  0  0  0  0  0
    4.6473   53.4526   19.4644 O   0  0  0  0  0  0
    3.3104   52.2914   21.0639 C   0  0  0  0  0  0
    3.2161   51.0314   20.4641 C   0  0  0  0  0  0
    2.2513   50.1154   20.8819 C   0  0  0  0  0  0
    1.3544   50.4516   21.8968 C   0  0  0  0  0  0
    1.4163   51.7220   22.4840 C   0  0  0  0  0  0
    2.3853   52.6327   22.0625 C   0  0  0  0  0  0
    0.3156   52.2003   23.7302 Cl  0  0  0  0  0  0
    0.1819   49.2839   22.3986 Cl  0  0  0  0  0  0
    4.1910   54.4126   28.1773 N   0  0  0  0  0  0
    2.8165   54.8711   28.4553 C   0  0  0  0  0  0
    1.7801   53.7241   28.5192 C   0  0  0  0  0  0
    2.2653   52.7599   29.5152 N   0  0  0  0  0  0
    3.5744   52.1825   29.1916 C   0  0  0  0  0  0
    4.5947   53.3401   29.0966 C   0  0  0  0  0  0
    1.8338   52.7467   30.8054 C   0  0  0  0  0  0
    2.4288   52.0966   31.6696 O   0  0  0  0  0  0
    0.5085   53.4424   31.1877 C   0  0  0  0  0  0
    0.5568   54.7407   30.8802 F   0  0  0  0  0  0
    0.3043   53.3527   32.5003 F   0  0  0  0  0  0
   -0.4952   52.8695   30.5247 F   0  0  0  0  0  0
    3.8297   54.7339   23.6710 H   0  0  0  0  0  0
    2.8609   54.4695   25.8475 H   0  0  0  0  0  0
    6.7870   54.4529   27.6087 H   0  0  0  0  0  0
    7.7742   54.6234   25.3534 H   0  0  0  0  0  0
    7.3572   55.4491   23.1775 H   0  0  0  0  0  0
    4.7585   53.3869   22.5903 H   0  0  0  0  0  0
    3.9037   50.7469   19.6813 H   0  0  0  0  0  0
    2.2075   49.1413   20.4163 H   0  0  0  0  0  0
    2.3963   53.6144   22.5105 H   0  0  0  0  0  0
    2.8422   55.3892   29.4154 H   0  0  0  0  0  0
    2.5019   55.6137   27.7222 H   0  0  0  0  0  0
    1.7527   53.2352   27.5440 H   0  0  0  0  0  0
    0.7576   54.0613   28.6858 H   0  0  0  0  0  0
    3.8914   51.3982   29.8801 H   0  0  0  0  0  0
    3.5038   51.7114   28.2126 H   0  0  0  0  0  0
    4.7042   53.8022   30.0793 H   0  0  0  0  0  0
    5.5658   52.9274   28.8218 H   0  0  0  0  0  0
  1  6  2  0  0  0
  1  2  1  0  0  0
  1 33  1  0  0  0
  2  3  2  0  0  0
  2 34  1  0  0  0
  3  4  1  0  0  0
  3 21  1  0  0  0
  4  5  2  0  0  0
  4 35  1  0  0  0
  5  6  1  0  0  0
  5 36  1  0  0  0
  6  7  1  0  0  0
  7  8  1  0  0  0
  7 37  1  0  0  0
  8  9  2  0  0  0
  8 10  1  0  0  0
 10 11  1  0  0  0
 10 38  1  0  0  0
 11 12  2  0  0  0
 11 13  1  0  0  0
 13 18  2  0  0  0
 13 14  1  0  0  0
 14 15  2  0  0  0
 14 39  1  0  0  0
 15 16  1  0  0  0
 15 40  1  0  0  0
 16 17  2  0  0  0
 16 20  1  0  0  0
 17 18  1  0  0  0
 17 19  1  0  0  0
 18 41  1  0  0  0
 21 26  1  0  0  0
 21 22  1  0  0  0
 22 23  1  0  0  0
 22 42  1  0  0  0
 22 43  1  0  0  0
 23 24  1  0  0  0
 23 44  1  0  0  0
 23 45  1  0  0  0
 24 25  1  0  0  0
 24 27  1  0  0  0
 25 26  1  0  0  0
 25 46  1  0  0  0
 25 47  1  0  0  0
 26 48  1  0  0  0
 26 49  1  0  0  0
 27 28  2  0  0  0
 27 29  1  0  0  0
 29 30  1  0  0  0
 29 31  1  0  0  0
 29 32  1  0  0  0
M  END
> <i_i_glide_confnum>
260

> <i_i_glide_lignum>
2973

> <i_i_glide_posenum>
341

> <i_i_glide_rotatable_bonds>
8

> <i_m_Source_File_Index>
5224

> <b_m_subgroup_collapsed>
0

> <r_i_docking_score>
-7.1307

> <r_i_glide_ecoul>
-0.270509

> <r_i_glide_eff_state_penalty>
0

> <r_i_glide_einternal>
8.39757

> <r_i_glide_emodel>
-69.6241

> <r_i_glide_energy>
-52.4215

> <r_i_glide_erotb>
0.480543

> <r_i_glide_esite>
-0.218328

> <r_i_glide_evdw>
-52.151

> <r_i_glide_gscore>
-7.1307

> <r_i_glide_hbond>
-0.240063

> <r_i_glide_ligand_efficiency>
-0.222834

> <r_i_glide_ligand_efficiency_ln>
-1.59676

> <r_i_glide_ligand_efficiency_sa>
-0.707455

> <r_i_glide_lipo>
-2.94121

> <r_i_glide_metal>
0

> <r_i_glide_rewards>
-1.56351

> <s_i_glide_gridfile>
wee1_glide-grid

> <s_m_Source_File>
wee1_decoys_glide_SP.sdf

> <s_m_Source_Path>
/Users/zhangxujun/Desktop

> <s_m_entry_id>
5499

> <s_m_entry_name>
wee1_decoys_glide_SP.5224

> <s_m_subgroup_title>
wee1_decoys_glide_SP

> <s_m_subgroupid>
wee1_decoys_glide_SP


$$$$
