ZINC40947240_3743
                    3D
 Schrodinger Suite 2024-2.
 44 46  0  0  1  0            999 V2000
    4.2697   54.5230   26.2779 C   0  0  0  0  0  0
    4.2900   54.4942   24.8866 C   0  0  0  0  0  0
    5.4890   54.2640   24.2186 C   0  0  0  0  0  0
    6.6733   54.0967   24.9297 C   0  0  0  0  0  0
    6.6481   54.1060   26.3223 C   0  0  0  0  0  0
    5.4479   54.3080   27.0057 C   0  0  0  0  0  0
    5.4826   54.2621   28.5371 C   0  0  0  0  0  0
    4.2991   54.7658   29.1642 O   0  0  0  0  0  0
    3.1569   53.9931   29.2351 C   0  0  0  0  0  0
    3.0787   52.6505   28.8382 C   0  0  0  0  0  0
    1.8525   51.9946   28.8366 C   0  0  0  0  0  0
    0.6941   52.6670   29.2385 C   0  0  0  0  0  0
    0.7871   53.9788   29.7068 C   0  0  0  0  0  0
    2.0098   54.6408   29.6873 C   0  0  0  0  0  0
   -0.6329   52.0463   29.1069 C   0  0  0  0  0  0
   -1.2188   51.6965   28.0226 N   0  0  0  0  0  0
   -0.5049   51.8532   26.8827 N   0  0  0  0  0  0
   -1.0062   51.6471   25.6501 C   0  0  0  0  0  0
   -2.1986   51.4531   25.4021 O   0  0  0  0  0  0
    0.0063   51.6717   24.5025 C   0  0  0  0  0  0
    0.3298   49.9932   23.8785 S   0  0  0  0  0  0
    1.4413   50.2949   22.5381 C   0  0  0  0  0  0
    1.8114   49.3468   21.7104 N   0  0  0  0  0  0
    2.7037   49.7769   20.7393 N   0  0  0  0  0  0
    3.0129   51.0372   20.8708 C   0  0  0  0  0  0
    2.1910   51.8358   22.1767 S   0  0  0  0  0  0
    3.9044   51.6967   20.0817 N   0  0  0  0  0  0
    5.5029   54.1351   22.3214 Br  0  0  0  0  0  0
    3.3285   54.7030   26.7717 H   0  0  0  0  0  0
    3.3768   54.6341   24.3272 H   0  0  0  0  0  0
    7.5977   53.9226   24.3998 H   0  0  0  0  0  0
    7.5559   53.9350   26.8800 H   0  0  0  0  0  0
    6.3013   54.8963   28.8703 H   0  0  0  0  0  0
    5.7368   53.2591   28.8814 H   0  0  0  0  0  0
    3.9432   52.1140   28.4800 H   0  0  0  0  0  0
    1.8012   50.9722   28.4861 H   0  0  0  0  0  0
   -0.0946   54.5115   30.0327 H   0  0  0  0  0  0
    2.0634   55.6748   29.9972 H   0  0  0  0  0  0
   -1.1418   51.9054   30.0574 H   0  0  0  0  0  0
    0.4635   52.0999   27.0211 H   0  0  0  0  0  0
    0.9445   52.1298   24.8191 H   0  0  0  0  0  0
   -0.4020   52.2833   23.6972 H   0  0  0  0  0  0
    4.3938   51.2156   19.3209 H   0  0  0  0  0  0
    4.0541   52.6923   20.1545 H   0  0  0  0  0  0
  1  6  2  0  0  0
  1  2  1  0  0  0
  1 29  1  0  0  0
  2  3  2  0  0  0
  2 30  1  0  0  0
  3  4  1  0  0  0
  3 28  1  0  0  0
  4  5  2  0  0  0
  4 31  1  0  0  0
  5  6  1  0  0  0
  5 32  1  0  0  0
  6  7  1  0  0  0
  7  8  1  0  0  0
  7 33  1  0  0  0
  7 34  1  0  0  0
  8  9  1  0  0  0
  9 14  2  0  0  0
  9 10  1  0  0  0
 10 11  2  0  0  0
 10 35  1  0  0  0
 11 12  1  0  0  0
 11 36  1  0  0  0
 12 13  2  0  0  0
 12 15  1  0  0  0
 13 14  1  0  0  0
 13 37  1  0  0  0
 14 38  1  0  0  0
 15 16  2  0  0  0
 15 39  1  0  0  0
 16 17  1  0  0  0
 17 18  1  0  0  0
 17 40  1  0  0  0
 18 19  2  0  0  0
 18 20  1  0  0  0
 20 21  1  0  0  0
 20 41  1  0  0  0
 20 42  1  0  0  0
 21 22  1  0  0  0
 22 26  1  0  0  0
 22 23  2  0  0  0
 23 24  1  0  0  0
 24 25  2  0  0  0
 25 26  1  0  0  0
 25 27  1  0  0  0
 27 43  1  0  0  0
 27 44  1  0  0  0
M  END
> <i_i_glide_confnum>
133

> <i_i_glide_lignum>
3744

> <i_i_glide_posenum>
248

> <i_i_glide_rotatable_bonds>
9

> <i_m_Source_File_Index>
3066

> <b_m_subgroup_collapsed>
0

> <r_i_docking_score>
-6.02287

> <r_i_glide_ecoul>
-2.54077

> <r_i_glide_eff_state_penalty>
0

> <r_i_glide_einternal>
11.3044

> <r_i_glide_emodel>
-64.9657

> <r_i_glide_energy>
-50.9559

> <r_i_glide_erotb>
0.79691

> <r_i_glide_esite>
-0.165179

> <r_i_glide_evdw>
-48.4152

> <r_i_glide_gscore>
-6.02287

> <r_i_glide_hbond>
-0.16

> <r_i_glide_ligand_efficiency>
-0.215103

> <r_i_glide_ligand_efficiency_ln>
-1.39026

> <r_i_glide_ligand_efficiency_sa>
-0.653178

> <r_i_glide_lipo>
-3.44616

> <r_i_glide_metal>
0

> <r_i_glide_rewards>
-0.246573

> <s_i_glide_gridfile>
wee1_glide-grid

> <s_m_Source_File>
wee1_decoys_glide_SP.sdf

> <s_m_Source_Path>
/Users/zhangxujun/Desktop

> <s_m_entry_id>
3341

> <s_m_entry_name>
wee1_decoys_glide_SP.3066

> <s_m_subgroup_title>
wee1_decoys_glide_SP

> <s_m_subgroupid>
wee1_decoys_glide_SP


$$$$
