ZINC58867739_3640
                    3D
 Schrodinger Suite 2024-2.
 53 56  0  0  1  0            999 V2000
    1.8162   52.4981   30.6051 C   0  0  0  0  0  0
    2.4192   52.2729   29.3705 C   0  0  0  0  0  0
    1.6267   52.0073   28.2576 C   0  0  0  0  0  0
    0.2264   51.9441   28.3721 C   0  0  0  0  0  0
   -0.3560   52.1716   29.6255 C   0  0  0  0  0  0
    0.4307   52.4719   30.7319 C   0  0  0  0  0  0
   -0.6672   51.6479   27.1806 C   0  0  0  0  0  0
   -1.8970   51.6958   27.2492 O   0  0  0  0  0  0
   -0.0324   51.4308   25.9738 N   0  0  0  0  0  0
    0.1769   50.2497   25.5411 C   0  0  0  0  0  0
    1.0183   50.1071   24.2537 C   0  0  2  0  0  0
    1.7685   49.3461   24.4819 H   0  0  0  0  0  0
    1.8114   51.3048   23.6805 C   0  0  1  0  0  0
    2.7037   51.4657   24.2733 H   0  0  0  0  0  0
    2.1674   50.7365   22.4036 N   0  0  0  0  0  0
    1.0174   50.0542   21.9585 N   0  0  0  0  0  0
    0.3387   49.5160   23.0108 C   0  0  0  0  0  0
   -0.5926   48.7084   23.0096 O   0  0  0  0  0  0
    0.7442   49.9186   20.5694 C   0  0  0  0  0  0
   -0.5267   49.5365   20.1037 C   0  0  0  0  0  0
   -0.7767   49.4103   18.7409 C   0  0  0  0  0  0
    0.2413   49.6601   17.8260 C   0  0  0  0  0  0
    1.5051   50.0400   18.2621 C   0  0  0  0  0  0
    1.7557   50.1732   19.6241 C   0  0  0  0  0  0
    1.1583   52.7064   23.5080 C   0  0  0  0  0  0
    2.3220   53.9534   22.8817 S   0  0  0  0  0  0
    3.6576   54.0962   24.0324 C   0  0  0  0  0  0
    4.9580   54.2215   23.5424 C   0  0  0  0  0  0
    6.0241   54.3635   24.4284 C   0  0  0  0  0  0
    5.7827   54.3651   25.8020 C   0  0  0  0  0  0
    4.4839   54.2309   26.2952 C   0  0  0  0  0  0
    3.4174   54.0968   25.4086 C   0  0  0  0  0  0
    7.1041   54.5219   26.8995 Cl  0  0  0  0  0  0
   -0.1815   49.0267   26.0817 N   0  0  0  0  0  0
    2.4248   52.6851   31.4765 H   0  0  0  0  0  0
    3.4952   52.3043   29.2726 H   0  0  0  0  0  0
    2.1184   51.8427   27.3087 H   0  0  0  0  0  0
   -1.4265   52.0978   29.7486 H   0  0  0  0  0  0
   -0.0420   52.6321   31.6908 H   0  0  0  0  0  0
    2.3031   51.4922   21.7443 H   0  0  0  0  0  0
   -1.3422   49.3442   20.7849 H   0  0  0  0  0  0
   -1.7569   49.1173   18.3951 H   0  0  0  0  0  0
    0.0501   49.5581   16.7677 H   0  0  0  0  0  0
    2.2999   50.2181   17.5497 H   0  0  0  0  0  0
    2.7541   50.4554   19.9267 H   0  0  0  0  0  0
    0.2994   52.6582   22.8373 H   0  0  0  0  0  0
    0.7857   53.1166   24.4410 H   0  0  0  0  0  0
    5.1384   54.2175   22.4773 H   0  0  0  0  0  0
    7.0316   54.4652   24.0511 H   0  0  0  0  0  0
    4.3052   54.2314   27.3604 H   0  0  0  0  0  0
    2.4142   53.9999   25.7947 H   0  0  0  0  0  0
   -0.7088   48.9519   26.9592 H   0  0  0  0  0  0
    0.1884   48.1655   25.7069 H   0  0  0  0  0  0
  1  6  2  0  0  0
  1  2  1  0  0  0
  1 35  1  0  0  0
  2  3  2  0  0  0
  2 36  1  0  0  0
  3  4  1  0  0  0
  3 37  1  0  0  0
  4  5  2  0  0  0
  4  7  1  0  0  0
  5  6  1  0  0  0
  5 38  1  0  0  0
  6 39  1  0  0  0
  7  8  2  0  0  0
  7  9  1  0  0  0
  9 10  2  0  0  0
 10 11  1  0  0  0
 10 34  1  0  0  0
 11 12  1  0  0  0
 11 17  1  0  0  0
 11 13  1  0  0  0
 13 14  1  0  0  0
 13 15  1  0  0  0
 13 25  1  0  0  0
 15 16  1  0  0  0
 15 40  1  0  0  0
 16 17  1  0  0  0
 16 19  1  0  0  0
 17 18  2  0  0  0
 19 24  2  0  0  0
 19 20  1  0  0  0
 20 21  2  0  0  0
 20 41  1  0  0  0
 21 22  1  0  0  0
 21 42  1  0  0  0
 22 23  2  0  0  0
 22 43  1  0  0  0
 23 24  1  0  0  0
 23 44  1  0  0  0
 24 45  1  0  0  0
 25 26  1  0  0  0
 25 46  1  0  0  0
 25 47  1  0  0  0
 26 27  1  0  0  0
 27 32  2  0  0  0
 27 28  1  0  0  0
 28 29  2  0  0  0
 28 48  1  0  0  0
 29 30  1  0  0  0
 29 49  1  0  0  0
 30 31  2  0  0  0
 30 33  1  0  0  0
 31 32  1  0  0  0
 31 50  1  0  0  0
 32 51  1  0  0  0
 34 52  1  0  0  0
 34 53  1  0  0  0
M  END
> <i_i_glide_confnum>
92

> <i_i_glide_lignum>
3641

> <i_i_glide_posenum>
246

> <i_i_glide_rotatable_bonds>
7

> <i_m_Source_File_Index>
1602

> <b_m_subgroup_collapsed>
0

> <r_i_docking_score>
-6.02673

> <r_i_glide_ecoul>
-7.50109

> <r_i_glide_eff_state_penalty>
0

> <r_i_glide_einternal>
6.18745

> <r_i_glide_emodel>
-67.4592

> <r_i_glide_energy>
-50.8798

> <r_i_glide_erotb>
0.559591

> <r_i_glide_esite>
-0.178382

> <r_i_glide_evdw>
-43.3787

> <r_i_glide_gscore>
-6.02673

> <r_i_glide_hbond>
-0.232925

> <r_i_glide_ligand_efficiency>
-0.188335

> <r_i_glide_ligand_efficiency_ln>
-1.34955

> <r_i_glide_ligand_efficiency_sa>
-0.597928

> <r_i_glide_lipo>
-2.34385

> <r_i_glide_metal>
0

> <r_i_glide_rewards>
-0.537067

> <s_i_glide_gridfile>
wee1_glide-grid

> <s_m_Source_File>
wee1_decoys_glide_SP.sdf

> <s_m_Source_Path>
/Users/zhangxujun/Desktop

> <s_m_entry_id>
1877

> <s_m_entry_name>
wee1_decoys_glide_SP.1602

> <s_m_subgroup_title>
wee1_decoys_glide_SP

> <s_m_subgroupid>
wee1_decoys_glide_SP


$$$$
