ZINC13247345_3301
                    3D
 Schrodinger Suite 2024-2.
 55 57  0  0  1  0            999 V2000
   -4.5697   51.6897   24.0842 C   0  0  0  0  0  0
   -3.5540   50.7911   24.6264 N   0  0  0  0  0  0
   -3.9531   49.8837   25.7016 C   0  0  0  0  0  0
   -2.2924   50.6409   23.9894 C   0  0  0  0  0  0
   -2.2188   50.8198   22.5978 C   0  0  0  0  0  0
   -1.0277   50.6382   21.9037 C   0  0  0  0  0  0
    0.1270   50.2667   22.5871 C   0  0  0  0  0  0
    0.0822   50.0653   23.9692 C   0  0  0  0  0  0
   -1.1008   50.2890   24.6811 C   0  0  0  0  0  0
   -1.0192   50.2314   26.0812 N   0  0  0  0  0  0
   -1.1367   51.6998   27.0624 S   0  0  0  0  0  0
   -1.5027   51.2968   28.4230 O   0  0  0  0  0  0
   -1.9467   52.6748   26.3265 O   0  0  0  0  0  0
    0.5323   52.3417   27.1231 C   0  0  0  0  0  0
    1.1042   52.8965   25.9764 C   0  0  0  0  0  0
    2.3806   53.4532   26.0363 C   0  0  0  0  0  0
    3.0921   53.4615   27.2372 C   0  0  0  0  0  0
    2.5271   52.8980   28.3937 C   0  0  0  0  0  0
    1.2534   52.3171   28.3197 C   0  0  0  0  0  0
    3.2630   52.8964   29.6855 C   0  0  0  0  0  0
    3.7147   53.9931   30.0817 O   0  0  0  0  0  0
    4.3310   54.0098   27.2495 F   0  0  0  0  0  0
    1.6592   50.1246   21.6747 S   0  0  0  0  0  0
    2.7005   49.6974   22.6111 O   0  0  0  0  0  0
    1.3651   49.3296   20.4767 O   0  0  0  0  0  0
    2.0312   51.7878   21.1799 N   0  0  0  0  0  0
    2.3520   52.8184   22.1959 C   0  0  0  0  0  0
    3.8174   53.2859   22.0775 C   0  0  0  0  0  0
    4.1923   53.6624   20.6273 C   0  0  0  0  0  0
    3.8032   52.5628   19.6139 C   0  0  0  0  0  0
    2.3325   52.1240   19.7685 C   0  0  0  0  0  0
   -4.1134   52.5946   23.6816 H   0  0  0  0  0  0
   -5.1274   51.2010   23.2839 H   0  0  0  0  0  0
   -5.2745   51.9892   24.8605 H   0  0  0  0  0  0
   -3.3560   48.9716   25.7183 H   0  0  0  0  0  0
   -3.8380   50.3784   26.6662 H   0  0  0  0  0  0
   -5.0008   49.5953   25.5977 H   0  0  0  0  0  0
   -3.0983   51.0830   22.0295 H   0  0  0  0  0  0
   -1.0005   50.7876   20.8338 H   0  0  0  0  0  0
    0.9862   49.7976   24.5004 H   0  0  0  0  0  0
   -0.7076   49.3938   26.5610 H   0  0  0  0  0  0
    0.5511   52.9145   25.0477 H   0  0  0  0  0  0
    2.8237   53.8855   25.1521 H   0  0  0  0  0  0
    0.8100   51.8768   29.2030 H   0  0  0  0  0  0
    1.6509   53.6462   22.0790 H   0  0  0  0  0  0
    2.1771   52.3983   23.1861 H   0  0  0  0  0  0
    3.9914   54.1338   22.7404 H   0  0  0  0  0  0
    4.4811   52.4965   22.4288 H   0  0  0  0  0  0
    5.2603   53.8710   20.5605 H   0  0  0  0  0  0
    3.6859   54.5873   20.3550 H   0  0  0  0  0  0
    4.4512   51.6970   19.7444 H   0  0  0  0  0  0
    3.9834   52.9084   18.5951 H   0  0  0  0  0  0
    2.1448   51.2502   19.1427 H   0  0  0  0  0  0
    1.6375   52.8965   19.4394 H   0  0  0  0  0  0
    3.3237   51.8128   30.3135 O   0  5  0  0  0  0
  1  2  1  0  0  0
  1 32  1  0  0  0
  1 33  1  0  0  0
  1 34  1  0  0  0
  2  3  1  0  0  0
  2  4  1  0  0  0
  3 35  1  0  0  0
  3 36  1  0  0  0
  3 37  1  0  0  0
  4  9  2  0  0  0
  4  5  1  0  0  0
  5  6  2  0  0  0
  5 38  1  0  0  0
  6  7  1  0  0  0
  6 39  1  0  0  0
  7  8  2  0  0  0
  7 23  1  0  0  0
  8  9  1  0  0  0
  8 40  1  0  0  0
  9 10  1  0  0  0
 10 11  1  0  0  0
 10 41  1  0  0  0
 11 12  2  0  0  0
 11 13  2  0  0  0
 11 14  1  0  0  0
 14 19  2  0  0  0
 14 15  1  0  0  0
 15 16  2  0  0  0
 15 42  1  0  0  0
 16 17  1  0  0  0
 16 43  1  0  0  0
 17 18  2  0  0  0
 17 22  1  0  0  0
 18 19  1  0  0  0
 18 20  1  0  0  0
 19 44  1  0  0  0
 20 21  2  0  0  0
 20 55  1  0  0  0
 23 24  2  0  0  0
 23 25  2  0  0  0
 23 26  1  0  0  0
 26 31  1  0  0  0
 26 27  1  0  0  0
 27 28  1  0  0  0
 27 45  1  0  0  0
 27 46  1  0  0  0
 28 29  1  0  0  0
 28 47  1  0  0  0
 28 48  1  0  0  0
 29 30  1  0  0  0
 29 49  1  0  0  0
 29 50  1  0  0  0
 30 31  1  0  0  0
 30 51  1  0  0  0
 30 52  1  0  0  0
 31 53  1  0  0  0
 31 54  1  0  0  0
M  CHG  1  55  -1
M  END
> <i_i_glide_confnum>
199

> <i_i_glide_lignum>
3302

> <i_i_glide_posenum>
79

> <i_i_glide_rotatable_bonds>
7

> <i_m_Source_File_Index>
4088

> <b_m_subgroup_collapsed>
0

> <r_i_docking_score>
-3.95308

> <r_i_glide_ecoul>
-6.65176

> <r_i_glide_eff_state_penalty>
0

> <r_i_glide_einternal>
8.95787

> <r_i_glide_emodel>
-45.3175

> <r_i_glide_energy>
-41.2321

> <r_i_glide_erotb>
0.4325

> <r_i_glide_esite>
-0.234846

> <r_i_glide_evdw>
-34.5803

> <r_i_glide_gscore>
-3.95308

> <r_i_glide_hbond>
-0.373819

> <r_i_glide_ligand_efficiency>
-0.123534

> <r_i_glide_ligand_efficiency_ln>
-0.885203

> <r_i_glide_ligand_efficiency_sa>
-0.392196

> <r_i_glide_lipo>
-1.18415

> <r_i_glide_metal>
0

> <r_i_glide_rewards>
0.13401

> <s_i_glide_gridfile>
wee1_glide-grid

> <s_m_Source_File>
wee1_decoys_glide_SP.sdf

> <s_m_Source_Path>
/Users/zhangxujun/Desktop

> <s_m_entry_id>
4363

> <s_m_entry_name>
wee1_decoys_glide_SP.4088

> <s_m_subgroup_title>
wee1_decoys_glide_SP

> <s_m_subgroupid>
wee1_decoys_glide_SP


$$$$
