ZINC13181514_3296
                    3D
 Schrodinger Suite 2024-2.
 62 65  0  0  1  0            999 V2000
    5.5444   54.6302   19.6378 C   0  0  0  0  0  0
    4.7125   53.5068   20.2881 C   0  0  1  0  0  0
    5.2996   52.5912   20.2116 H   0  0  0  0  0  0
    4.4707   53.7797   21.7958 C   0  0  0  0  0  0
    3.1980   53.8601   22.3755 C   0  0  0  0  0  0
    3.0509   54.0212   23.7514 C   0  0  0  0  0  0
    4.1617   54.1102   24.5958 C   0  0  0  0  0  0
    5.4512   54.1161   24.0196 C   0  0  0  0  0  0
    5.5746   53.9537   22.6367 C   0  0  0  0  0  0
    6.7038   54.3341   24.8702 C   0  0  0  0  0  0
    6.4967   53.9776   26.3517 C   0  0  0  0  0  0
    5.2116   54.6212   26.8784 C   0  0  0  0  0  0
    3.9752   54.1160   26.1143 C   0  0  0  0  0  0
    3.5044   53.2956   19.4845 N   0  0  0  0  0  0
    2.5645   52.2506   19.5837 C   0  0  0  0  0  0
    2.7260   51.2230   20.5251 C   0  0  0  0  0  0
    1.7448   50.2510   20.7077 C   0  0  0  0  0  0
    0.5783   50.2948   19.9458 C   0  0  0  0  0  0
    0.4311   51.2768   18.9690 C   0  0  0  0  0  0
    1.4138   52.2580   18.7550 C   0  0  0  0  0  0
    1.1730   53.2735   17.6867 N   0  3  0  0  0  0
    0.0378   53.3669   17.2253 O   0  0  0  0  0  0
    2.0933   53.9765   17.2810 O   0  5  0  0  0  0
   -0.7506   49.1198   20.2107 S   0  0  0  0  0  0
   -1.9995   49.8634   20.0009 O   0  0  0  0  0  0
   -0.4961   48.4516   21.4920 O   0  0  0  0  0  0
   -0.5834   47.9188   18.9094 N   0  0  0  0  0  0
   -1.8143   47.4649   18.1893 C   0  0  0  0  0  0
   -2.3708   46.1470   18.7873 C   0  0  0  0  0  0
   -1.2495   45.0735   18.7504 C   0  0  0  0  0  0
   -0.1000   45.5818   19.6555 C   0  0  0  0  0  0
    0.4794   46.8900   19.0679 C   0  0  0  0  0  0
   -1.7437   43.6834   19.2382 C   0  0  0  0  0  0
   -0.8962   42.8964   19.7254 O   0  0  0  0  0  0
    6.5152   54.7567   20.1147 H   0  0  0  0  0  0
    5.7393   54.4138   18.5859 H   0  0  0  0  0  0
    5.0294   55.5896   19.6815 H   0  0  0  0  0  0
    2.3084   53.7737   21.7701 H   0  0  0  0  0  0
    2.0559   54.0349   24.1717 H   0  0  0  0  0  0
    6.5659   53.9923   22.2161 H   0  0  0  0  0  0
    7.5365   53.7626   24.4620 H   0  0  0  0  0  0
    6.9819   55.3877   24.7931 H   0  0  0  0  0  0
    7.3523   54.3076   26.9438 H   0  0  0  0  0  0
    6.4402   52.8982   26.4811 H   0  0  0  0  0  0
    5.2879   55.6961   26.7694 H   0  0  0  0  0  0
    5.1028   54.4259   27.9466 H   0  0  0  0  0  0
    3.0990   54.7041   26.3899 H   0  0  0  0  0  0
    3.7686   53.0942   26.4333 H   0  0  0  0  0  0
    3.3660   53.9276   18.7053 H   0  0  0  0  0  0
    3.6057   51.1872   21.1499 H   0  0  0  0  0  0
    1.8834   49.4876   21.4617 H   0  0  0  0  0  0
   -0.4701   51.2754   18.3716 H   0  0  0  0  0  0
   -1.5529   47.3169   17.1403 H   0  0  0  0  0  0
   -2.5625   48.2588   18.2140 H   0  0  0  0  0  0
   -3.2414   45.8347   18.2066 H   0  0  0  0  0  0
   -2.7083   46.3407   19.8076 H   0  0  0  0  0  0
   -0.8944   44.9322   17.7278 H   0  0  0  0  0  0
   -0.4901   45.7623   20.6633 H   0  0  0  0  0  0
    0.7025   44.8440   19.6811 H   0  0  0  0  0  0
    0.9210   46.7086   18.0871 H   0  0  0  0  0  0
    1.2682   47.2920   19.7061 H   0  0  0  0  0  0
   -2.9272   43.3509   18.9967 O   0  5  0  0  0  0
  1  2  1  0  0  0
  1 35  1  0  0  0
  1 36  1  0  0  0
  1 37  1  0  0  0
  2  3  1  0  0  0
  2  4  1  0  0  0
  2 14  1  0  0  0
  4  9  2  0  0  0
  4  5  1  0  0  0
  5  6  2  0  0  0
  5 38  1  0  0  0
  6  7  1  0  0  0
  6 39  1  0  0  0
  7 13  1  0  0  0
  7  8  2  0  0  0
  8  9  1  0  0  0
  8 10  1  0  0  0
  9 40  1  0  0  0
 10 11  1  0  0  0
 10 41  1  0  0  0
 10 42  1  0  0  0
 11 12  1  0  0  0
 11 43  1  0  0  0
 11 44  1  0  0  0
 12 13  1  0  0  0
 12 45  1  0  0  0
 12 46  1  0  0  0
 13 47  1  0  0  0
 13 48  1  0  0  0
 14 15  1  0  0  0
 14 49  1  0  0  0
 15 20  2  0  0  0
 15 16  1  0  0  0
 16 17  2  0  0  0
 16 50  1  0  0  0
 17 18  1  0  0  0
 17 51  1  0  0  0
 18 19  2  0  0  0
 18 24  1  0  0  0
 19 20  1  0  0  0
 19 52  1  0  0  0
 20 21  1  0  0  0
 21 22  2  0  0  0
 21 23  1  0  0  0
 24 25  2  0  0  0
 24 26  2  0  0  0
 24 27  1  0  0  0
 27 32  1  0  0  0
 27 28  1  0  0  0
 28 29  1  0  0  0
 28 53  1  0  0  0
 28 54  1  0  0  0
 29 30  1  0  0  0
 29 55  1  0  0  0
 29 56  1  0  0  0
 30 31  1  0  0  0
 30 33  1  0  0  0
 30 57  1  0  0  0
 31 32  1  0  0  0
 31 58  1  0  0  0
 31 59  1  0  0  0
 32 60  1  0  0  0
 32 61  1  0  0  0
 33 34  2  0  0  0
 33 62  1  0  0  0
M  CHG  3  21   1  23  -1  62  -1
M  END
> <i_i_glide_confnum>
52

> <i_i_glide_lignum>
3297

> <i_i_glide_posenum>
179

> <i_i_glide_rotatable_bonds>
7

> <i_m_Source_File_Index>
4047

> <b_m_subgroup_collapsed>
0

> <r_i_docking_score>
-3.88363

> <r_i_glide_ecoul>
-1.78203

> <r_i_glide_eff_state_penalty>
0

> <r_i_glide_einternal>
3.66448

> <r_i_glide_emodel>
-41.0154

> <r_i_glide_energy>
-33.6397

> <r_i_glide_erotb>
0.429225

> <r_i_glide_esite>
-0.0760945

> <r_i_glide_evdw>
-31.8576

> <r_i_glide_gscore>
-3.88363

> <r_i_glide_hbond>
-0.152618

> <r_i_glide_ligand_efficiency>
-0.114224

> <r_i_glide_ligand_efficiency_ln>
-0.858003

> <r_i_glide_ligand_efficiency_sa>
-0.370043

> <r_i_glide_lipo>
-2.48888

> <r_i_glide_metal>
0

> <r_i_glide_rewards>
0.264926

> <s_i_glide_gridfile>
wee1_glide-grid

> <s_m_Source_File>
wee1_decoys_glide_SP.sdf

> <s_m_Source_Path>
/Users/zhangxujun/Desktop

> <s_m_entry_id>
4322

> <s_m_entry_name>
wee1_decoys_glide_SP.4047

> <s_m_subgroup_title>
wee1_decoys_glide_SP

> <s_m_subgroupid>
wee1_decoys_glide_SP


$$$$
