ZINC13340736_1993
                    3D
 Schrodinger Suite 2024-2.
 44 46  0  0  1  0            999 V2000
    6.5828   54.0967   27.3829 C   0  0  0  0  0  0
    6.4107   54.1102   26.0069 C   0  0  0  0  0  0
    5.1291   54.0975   25.4699 C   0  0  0  0  0  0
    3.9932   54.0570   26.2923 C   0  0  0  0  0  0
    4.1593   54.0899   27.7085 C   0  0  0  0  0  0
    5.4711   54.0949   28.2175 C   0  0  0  0  0  0
    3.0065   54.1510   28.6926 C   0  0  0  0  0  0
    3.2680   54.0972   29.9209 O   0  0  0  0  0  0
    2.7049   54.0967   25.7261 N   0  0  0  0  0  0
    2.1446   53.5552   24.1221 S   0  0  0  0  0  0
    1.1045   54.4966   23.7076 O   0  0  0  0  0  0
    3.2854   53.2898   23.2418 O   0  0  0  0  0  0
    1.2934   52.0206   24.4469 C   0  0  0  0  0  0
    1.5045   50.8916   23.6535 C   0  0  0  0  0  0
    0.8528   49.6960   23.9570 C   0  0  0  0  0  0
   -0.0182   49.6261   25.0454 C   0  0  0  0  0  0
   -0.2698   50.7674   25.8081 C   0  0  0  0  0  0
    0.3862   51.9624   25.5089 C   0  0  0  0  0  0
   -1.1575   50.7078   26.8823 N   0  0  0  0  0  0
   -2.7639   51.4203   26.7408 S   0  0  0  0  0  0
   -3.3978   51.2967   28.0575 O   0  0  0  0  0  0
   -2.6268   52.7231   26.0781 O   0  0  0  0  0  0
   -3.6254   50.3113   25.6367 C   0  0  0  0  0  0
   -4.0467   49.0653   26.1106 C   0  0  0  0  0  0
   -4.6972   48.1773   25.2534 C   0  0  0  0  0  0
   -4.9184   48.5294   23.9205 C   0  0  0  0  0  0
   -4.4862   49.7673   23.4431 C   0  0  0  0  0  0
   -3.8384   50.6586   24.2987 C   0  0  0  0  0  0
   -4.6929   50.1011   22.1494 F   0  0  0  0  0  0
    7.5732   54.1121   27.8113 H   0  0  0  0  0  0
    7.2661   54.1377   25.3487 H   0  0  0  0  0  0
    5.0550   54.1518   24.3984 H   0  0  0  0  0  0
    5.6476   54.1226   29.2818 H   0  0  0  0  0  0
    1.9791   54.3231   26.4009 H   0  0  0  0  0  0
    2.1923   50.9314   22.8206 H   0  0  0  0  0  0
    1.0436   48.8155   23.3622 H   0  0  0  0  0  0
   -0.5039   48.6916   25.2903 H   0  0  0  0  0  0
    0.2015   52.8383   26.1161 H   0  0  0  0  0  0
   -1.1708   49.8536   27.4376 H   0  0  0  0  0  0
   -3.8606   48.7848   27.1398 H   0  0  0  0  0  0
   -5.0257   47.2169   25.6228 H   0  0  0  0  0  0
   -5.4211   47.8437   23.2550 H   0  0  0  0  0  0
   -3.5017   51.6121   23.9185 H   0  0  0  0  0  0
    1.8411   54.2747   28.2461 O   0  5  0  0  0  0
  1  6  2  0  0  0
  1  2  1  0  0  0
  1 30  1  0  0  0
  2  3  2  0  0  0
  2 31  1  0  0  0
  3  4  1  0  0  0
  3 32  1  0  0  0
  4  5  2  0  0  0
  4  9  1  0  0  0
  5  6  1  0  0  0
  5  7  1  0  0  0
  6 33  1  0  0  0
  7  8  2  0  0  0
  7 44  1  0  0  0
  9 10  1  0  0  0
  9 34  1  0  0  0
 10 11  2  0  0  0
 10 12  2  0  0  0
 10 13  1  0  0  0
 13 18  2  0  0  0
 13 14  1  0  0  0
 14 15  2  0  0  0
 14 35  1  0  0  0
 15 16  1  0  0  0
 15 36  1  0  0  0
 16 17  2  0  0  0
 16 37  1  0  0  0
 17 18  1  0  0  0
 17 19  1  0  0  0
 18 38  1  0  0  0
 19 20  1  0  0  0
 19 39  1  0  0  0
 20 21  2  0  0  0
 20 22  2  0  0  0
 20 23  1  0  0  0
 23 28  2  0  0  0
 23 24  1  0  0  0
 24 25  2  0  0  0
 24 40  1  0  0  0
 25 26  1  0  0  0
 25 41  1  0  0  0
 26 27  2  0  0  0
 26 42  1  0  0  0
 27 28  1  0  0  0
 27 29  1  0  0  0
 28 43  1  0  0  0
M  CHG  1  44  -1
M  END
> <i_i_glide_confnum>
1

> <i_i_glide_lignum>
1994

> <i_i_glide_posenum>
384

> <i_i_glide_rotatable_bonds>
7

> <i_m_Source_File_Index>
2360

> <b_m_subgroup_collapsed>
0

> <r_i_docking_score>
-5.23174

> <r_i_glide_ecoul>
-8.709

> <r_i_glide_eff_state_penalty>
0

> <r_i_glide_einternal>
9.76764

> <r_i_glide_emodel>
-54.0675

> <r_i_glide_energy>
-44.7786

> <r_i_glide_erotb>
0.59525

> <r_i_glide_esite>
-0.207262

> <r_i_glide_evdw>
-36.0696

> <r_i_glide_gscore>
-5.23174

> <r_i_glide_hbond>
-0.32

> <r_i_glide_ligand_efficiency>
-0.174391

> <r_i_glide_ligand_efficiency_ln>
-1.18871

> <r_i_glide_ligand_efficiency_sa>
-0.541874

> <r_i_glide_lipo>
-1.9662

> <r_i_glide_metal>
0

> <r_i_glide_rewards>
-0.223698

> <s_i_glide_gridfile>
wee1_glide-grid

> <s_m_Source_File>
wee1_decoys_glide_SP.sdf

> <s_m_Source_Path>
/Users/zhangxujun/Desktop

> <s_m_entry_id>
2635

> <s_m_entry_name>
wee1_decoys_glide_SP.2360

> <s_m_subgroup_title>
wee1_decoys_glide_SP

> <s_m_subgroupid>
wee1_decoys_glide_SP


$$$$
