ZINC08920701_884
                    3D
 Schrodinger Suite 2024-2.
 67 70  0  0  1  0            999 V2000
   10.0990   56.4208   14.7885 C   0  0  0  0  0  0
    9.4653   55.9171   16.0908 C   0  0  0  0  0  0
    7.9306   55.8381   15.9950 C   0  0  0  0  0  0
    7.3165   55.1477   17.2407 N   0  3  2  0  0  0
    5.8097   54.8901   16.9969 C   0  0  0  0  0  0
    5.2818   53.9386   18.0959 C   0  0  0  0  0  0
    5.7549   54.3608   19.4923 C   0  0  0  0  0  0
    6.7743   55.3158   19.6369 C   0  0  0  0  0  0
    7.1076   55.6960   21.2839 S   0  0  0  0  0  0
    5.8995   54.5642   21.8183 C   0  0  0  0  0  0
    5.2475   53.9105   20.7490 C   0  0  0  0  0  0
    4.1546   52.9538   20.9542 C   0  0  0  0  0  0
    3.5170   52.9290   22.0095 O   0  0  0  0  0  0
    3.9100   52.0964   19.9502 N   0  0  0  0  0  0
    2.8519   51.0974   19.9636 C   0  0  0  0  0  0
    5.6164   54.3549   23.1628 N   0  0  0  0  0  0
    6.1474   54.8968   24.2806 C   0  0  0  0  0  0
    7.1043   55.6652   24.3231 O   0  0  0  0  0  0
    5.4457   54.4818   25.5470 C   0  0  0  0  0  0
    4.0985   54.0971   25.5103 C   0  0  0  0  0  0
    3.4557   53.6963   26.6654 C   0  0  0  0  0  0
    4.1303   53.6971   27.8789 C   0  0  0  0  0  0
    5.4646   54.1043   27.9405 C   0  0  0  0  0  0
    6.1211   54.4904   26.7769 C   0  0  0  0  0  0
    3.2614   53.1595   29.3377 S   0  0  0  0  0  0
    3.1548   51.6972   29.2830 O   0  0  0  0  0  0
    3.9032   53.8195   30.4770 O   0  0  0  0  0  0
    1.6095   53.8274   29.2013 N   0  0  0  0  0  0
    1.4039   55.2678   29.2283 C   0  0  0  0  0  0
    0.4986   53.0021   28.9820 C   0  0  0  0  0  0
   -0.0952   52.3530   30.0624 C   0  0  0  0  0  0
   -1.1647   51.4942   29.8403 C   0  0  0  0  0  0
   -1.6493   51.2968   28.5501 C   0  0  0  0  0  0
   -1.0678   51.9462   27.4688 C   0  0  0  0  0  0
    0.0004   52.8061   27.6888 C   0  0  0  0  0  0
    7.4859   56.0324   18.5021 C   0  0  0  0  0  0
   11.1822   56.4882   14.8818 H   0  0  0  0  0  0
    9.7331   57.4116   14.5192 H   0  0  0  0  0  0
    9.8844   55.7495   13.9562 H   0  0  0  0  0  0
    9.8749   54.9397   16.3420 H   0  0  0  0  0  0
    9.7620   56.5921   16.8928 H   0  0  0  0  0  0
    7.4533   56.8158   15.8990 H   0  0  0  0  0  0
    7.6428   55.2126   15.1467 H   0  0  0  0  0  0
    5.3101   55.8617   16.9934 H   0  0  0  0  0  0
    5.6974   54.4202   16.0177 H   0  0  0  0  0  0
    4.1939   53.9018   18.0356 H   0  0  0  0  0  0
    5.6366   52.9252   17.8954 H   0  0  0  0  0  0
    4.6099   51.9524   19.2284 H   0  0  0  0  0  0
    2.8732   50.5282   19.0330 H   0  0  0  0  0  0
    2.9885   50.4011   20.7929 H   0  0  0  0  0  0
    1.8739   51.5692   20.0618 H   0  0  0  0  0  0
    4.8745   53.6828   23.3099 H   0  0  0  0  0  0
    3.5266   54.0890   24.5927 H   0  0  0  0  0  0
    2.4419   53.3524   26.6065 H   0  0  0  0  0  0
    5.9934   54.1108   28.8819 H   0  0  0  0  0  0
    7.1579   54.7921   26.8371 H   0  0  0  0  0  0
    0.7832   55.5893   28.3916 H   0  0  0  0  0  0
    0.9019   55.5571   30.1527 H   0  0  0  0  0  0
    2.3522   55.8070   29.1760 H   0  0  0  0  0  0
    0.2773   52.4846   31.0689 H   0  0  0  0  0  0
   -1.6122   50.9578   30.6676 H   0  0  0  0  0  0
   -2.4644   50.6069   28.3908 H   0  0  0  0  0  0
   -1.4421   51.7770   26.4697 H   0  0  0  0  0  0
    0.4335   53.2967   26.8363 H   0  0  0  0  0  0
    8.5559   56.1189   18.6816 H   0  0  0  0  0  0
    7.0550   57.0122   18.2904 H   0  0  0  0  0  0
    7.7795   54.2552   17.3587 H   0  0  0  0  0  0
  1  2  1  0  0  0
  1 37  1  0  0  0
  1 38  1  0  0  0
  1 39  1  0  0  0
  2  3  1  0  0  0
  2 40  1  0  0  0
  2 41  1  0  0  0
  3  4  1  0  0  0
  3 42  1  0  0  0
  3 43  1  0  0  0
  4 36  1  0  0  0
  4  5  1  0  0  0
  4 67  1  0  0  0
  5  6  1  0  0  0
  5 44  1  0  0  0
  5 45  1  0  0  0
  6  7  1  0  0  0
  6 46  1  0  0  0
  6 47  1  0  0  0
  7 11  1  0  0  0
  7  8  2  0  0  0
  8  9  1  0  0  0
  8 36  1  0  0  0
  9 10  1  0  0  0
 10 11  2  0  0  0
 10 16  1  0  0  0
 11 12  1  0  0  0
 12 13  2  0  0  0
 12 14  1  0  0  0
 14 15  1  0  0  0
 14 48  1  0  0  0
 15 49  1  0  0  0
 15 50  1  0  0  0
 15 51  1  0  0  0
 16 17  1  0  0  0
 16 52  1  0  0  0
 17 18  2  0  0  0
 17 19  1  0  0  0
 19 24  2  0  0  0
 19 20  1  0  0  0
 20 21  2  0  0  0
 20 53  1  0  0  0
 21 22  1  0  0  0
 21 54  1  0  0  0
 22 23  2  0  0  0
 22 25  1  0  0  0
 23 24  1  0  0  0
 23 55  1  0  0  0
 24 56  1  0  0  0
 25 26  2  0  0  0
 25 27  2  0  0  0
 25 28  1  0  0  0
 28 29  1  0  0  0
 28 30  1  0  0  0
 29 57  1  0  0  0
 29 58  1  0  0  0
 29 59  1  0  0  0
 30 35  2  0  0  0
 30 31  1  0  0  0
 31 32  2  0  0  0
 31 60  1  0  0  0
 32 33  1  0  0  0
 32 61  1  0  0  0
 33 34  2  0  0  0
 33 62  1  0  0  0
 34 35  1  0  0  0
 34 63  1  0  0  0
 35 64  1  0  0  0
 36 65  1  0  0  0
 36 66  1  0  0  0
M  CHG  1   4   1
M  END
> <i_i_glide_confnum>
201

> <i_i_glide_lignum>
885

> <i_i_glide_posenum>
159

> <i_i_glide_rotatable_bonds>
10

> <i_m_Source_File_Index>
6004

> <b_m_subgroup_collapsed>
0

> <r_i_docking_score>
-4.8157

> <r_i_glide_ecoul>
-9.52624

> <r_i_glide_eff_state_penalty>
0

> <r_i_glide_einternal>
7.50537

> <r_i_glide_emodel>
-64.8608

> <r_i_glide_energy>
-57.2647

> <r_i_glide_erotb>
0.591761

> <r_i_glide_esite>
-0.0907078

> <r_i_glide_evdw>
-47.7384

> <r_i_glide_gscore>
-4.8157

> <r_i_glide_hbond>
-0.146136

> <r_i_glide_ligand_efficiency>
-0.133769

> <r_i_glide_ligand_efficiency_ln>
-1.05066

> <r_i_glide_ligand_efficiency_sa>
-0.441697

> <r_i_glide_lipo>
-2.71234

> <r_i_glide_metal>
0

> <r_i_glide_rewards>
1.35759

> <s_i_glide_gridfile>
wee1_glide-grid

> <s_m_Source_File>
wee1_decoys_glide_SP.sdf

> <s_m_Source_Path>
/Users/zhangxujun/Desktop

> <s_m_entry_id>
6279

> <s_m_entry_name>
wee1_decoys_glide_SP.6004

> <s_m_subgroup_title>
wee1_decoys_glide_SP

> <s_m_subgroupid>
wee1_decoys_glide_SP


$$$$
