ZINC12228924_2087
                    3D
 Schrodinger Suite 2024-2.
 57 60  0  0  1  0            999 V2000
    2.6364   51.1229   21.3921 C   0  0  0  0  0  0
    3.6108   52.0949   21.1782 C   0  0  0  0  0  0
    3.7379   53.1517   22.0769 C   0  0  0  0  0  0
    2.8991   53.2322   23.1935 C   0  0  0  0  0  0
    1.9050   52.2640   23.3851 C   0  0  0  0  0  0
    1.7813   51.2042   22.4886 C   0  0  0  0  0  0
    3.0425   54.3920   24.1709 C   0  0  0  0  0  0
    4.2828   54.3475   25.0779 C   0  0  0  0  0  0
    5.4985   54.8029   24.5520 C   0  0  0  0  0  0
    6.6511   54.8464   25.3286 C   0  0  0  0  0  0
    6.6048   54.4387   26.6578 C   0  0  0  0  0  0
    5.4064   53.9837   27.2041 C   0  0  0  0  0  0
    4.2316   53.9399   26.4295 C   0  0  0  0  0  0
    3.0098   53.4582   26.9423 N   0  0  0  0  0  0
    2.5764   53.4051   28.2231 C   0  0  0  0  0  0
    3.2145   53.8320   29.1905 O   0  0  0  0  0  0
    1.2120   52.7803   28.4393 C   0  0  0  0  0  0
    0.7741   52.5047   29.7439 C   0  0  0  0  0  0
   -0.4919   51.9724   29.9760 C   0  0  0  0  0  0
   -1.3354   51.6967   28.9089 C   0  0  0  0  0  0
   -0.9377   51.9704   27.6025 C   0  0  0  0  0  0
    0.3374   52.4965   27.3721 C   0  0  0  0  0  0
   -2.0922   51.7501   26.2410 S   0  0  0  0  0  0
   -3.1968   52.6857   26.4780 O   0  0  0  0  0  0
   -1.3052   51.8352   25.0055 O   0  0  0  0  0  0
   -2.7151   50.0970   26.3356 N   0  0  0  0  0  0
   -3.7263   49.6386   27.3221 C   0  0  1  0  0  0
   -3.2646   49.6962   28.3049 H   0  0  0  0  0  0
   -5.0492   50.4384   27.2855 C   0  0  0  0  0  0
   -6.1095   49.6583   28.0835 C   0  0  0  0  0  0
   -5.7819   47.8526   27.7032 S   0  0  0  0  0  0
   -5.6951   47.1002   28.9568 O   0  0  0  0  0  0
   -6.6531   47.3958   26.6155 O   0  0  0  0  0  0
   -4.0735   48.1712   27.0118 C   0  0  0  0  0  0
    2.5380   50.3032   20.6931 H   0  0  0  0  0  0
    4.2591   52.0353   20.3161 H   0  0  0  0  0  0
    4.4943   53.9019   21.9003 H   0  0  0  0  0  0
    1.2315   52.3225   24.2244 H   0  0  0  0  0  0
    1.0206   50.4513   22.6445 H   0  0  0  0  0  0
    3.0932   55.2968   23.5689 H   0  0  0  0  0  0
    2.1278   54.4966   24.7542 H   0  0  0  0  0  0
    5.5609   55.1281   23.5257 H   0  0  0  0  0  0
    7.5734   55.1872   24.8837 H   0  0  0  0  0  0
    7.4946   54.4596   27.2707 H   0  0  0  0  0  0
    5.4186   53.6489   28.2291 H   0  0  0  0  0  0
    2.3704   53.1358   26.2366 H   0  0  0  0  0  0
    1.4062   52.7093   30.5965 H   0  0  0  0  0  0
   -0.8230   51.7653   30.9820 H   0  0  0  0  0  0
   -2.3190   51.3123   29.1229 H   0  0  0  0  0  0
    0.6128   52.7239   26.3546 H   0  0  0  0  0  0
   -2.0182   49.3835   26.1065 H   0  0  0  0  0  0
   -4.9310   51.4370   27.7063 H   0  0  0  0  0  0
   -5.3834   50.5609   26.2543 H   0  0  0  0  0  0
   -5.8892   49.7930   29.1441 H   0  0  0  0  0  0
   -7.1600   49.9019   27.9265 H   0  0  0  0  0  0
   -4.1967   48.0895   25.9332 H   0  0  0  0  0  0
   -3.3389   47.4112   27.2776 H   0  0  0  0  0  0
  1  6  2  0  0  0
  1  2  1  0  0  0
  1 35  1  0  0  0
  2  3  2  0  0  0
  2 36  1  0  0  0
  3  4  1  0  0  0
  3 37  1  0  0  0
  4  5  2  0  0  0
  4  7  1  0  0  0
  5  6  1  0  0  0
  5 38  1  0  0  0
  6 39  1  0  0  0
  7  8  1  0  0  0
  7 40  1  0  0  0
  7 41  1  0  0  0
  8 13  2  0  0  0
  8  9  1  0  0  0
  9 10  2  0  0  0
  9 42  1  0  0  0
 10 11  1  0  0  0
 10 43  1  0  0  0
 11 12  2  0  0  0
 11 44  1  0  0  0
 12 13  1  0  0  0
 12 45  1  0  0  0
 13 14  1  0  0  0
 14 15  1  0  0  0
 14 46  1  0  0  0
 15 16  2  0  0  0
 15 17  1  0  0  0
 17 22  2  0  0  0
 17 18  1  0  0  0
 18 19  2  0  0  0
 18 47  1  0  0  0
 19 20  1  0  0  0
 19 48  1  0  0  0
 20 21  2  0  0  0
 20 49  1  0  0  0
 21 22  1  0  0  0
 21 23  1  0  0  0
 22 50  1  0  0  0
 23 24  2  0  0  0
 23 25  2  0  0  0
 23 26  1  0  0  0
 26 27  1  0  0  0
 26 51  1  0  0  0
 27 28  1  0  0  0
 27 34  1  0  0  0
 27 29  1  0  0  0
 29 30  1  0  0  0
 29 52  1  0  0  0
 29 53  1  0  0  0
 30 31  1  0  0  0
 30 54  1  0  0  0
 30 55  1  0  0  0
 31 32  2  0  0  0
 31 33  2  0  0  0
 31 34  1  0  0  0
 34 56  1  0  0  0
 34 57  1  0  0  0
M  END
> <i_i_glide_confnum>
227

> <i_i_glide_lignum>
2088

> <i_i_glide_posenum>
239

> <i_i_glide_rotatable_bonds>
8

> <i_m_Source_File_Index>
3565

> <b_m_subgroup_collapsed>
0

> <r_i_docking_score>
-4.75513

> <r_i_glide_ecoul>
-4.91601

> <r_i_glide_eff_state_penalty>
0

> <r_i_glide_einternal>
4.72303

> <r_i_glide_emodel>
-60.0715

> <r_i_glide_energy>
-47.4169

> <r_i_glide_erotb>
0.69188

> <r_i_glide_esite>
-0.167629

> <r_i_glide_evdw>
-42.5009

> <r_i_glide_gscore>
-4.75513

> <r_i_glide_hbond>
0

> <r_i_glide_ligand_efficiency>
-0.144095

> <r_i_glide_ligand_efficiency_ln>
-1.05752

> <r_i_glide_ligand_efficiency_sa>
-0.462189

> <r_i_glide_lipo>
-2.77518

> <r_i_glide_metal>
0

> <r_i_glide_rewards>
0.358248

> <s_i_glide_gridfile>
wee1_glide-grid

> <s_m_Source_File>
wee1_decoys_glide_SP.sdf

> <s_m_Source_Path>
/Users/zhangxujun/Desktop

> <s_m_entry_id>
3840

> <s_m_entry_name>
wee1_decoys_glide_SP.3565

> <s_m_subgroup_title>
wee1_decoys_glide_SP

> <s_m_subgroupid>
wee1_decoys_glide_SP


$$$$
