ZINC01797646_509
                    3D
 Schrodinger Suite 2024-2.
 49 51  0  0  1  0            999 V2000
    6.8083   55.1455   22.1503 C   0  0  0  0  0  0
    6.1766   54.8563   23.4977 C   0  0  0  0  0  0
    5.0602   54.0257   23.5866 C   0  0  0  0  0  0
    4.5212   53.7197   24.8350 C   0  0  0  0  0  0
    5.0782   54.2569   26.0031 C   0  0  0  0  0  0
    6.1635   55.1309   25.8914 C   0  0  0  0  0  0
    6.7043   55.4330   24.6478 C   0  0  0  0  0  0
    4.6517   53.9031   27.3807 C   0  0  0  0  0  0
    3.4780   53.5539   27.9619 C   0  0  0  0  0  0
    2.1701   53.4639   27.3371 C   0  0  0  0  0  0
    1.9038   53.6966   26.1596 O   0  0  0  0  0  0
    1.2363   53.1103   28.2601 N   0  0  0  0  0  0
    1.6108   53.0547   29.5719 C   0  0  0  0  0  0
    0.7043   52.8966   30.9599 S   0  0  0  0  0  0
    3.3363   53.1952   29.6779 S   0  0  0  0  0  0
   -0.1804   52.8932   27.8752 C   0  0  0  0  0  0
   -0.6434   51.4130   27.8796 C   0  0  0  0  0  0
    0.0311   50.4985   26.8330 C   0  0  0  0  0  0
   -0.5438   50.6168   25.4144 C   0  0  0  0  0  0
   -0.6260   51.7294   24.8945 O   0  0  0  0  0  0
   -0.9201   49.4494   24.8396 N   0  0  0  0  0  0
   -1.4633   49.1818   23.5563 C   0  0  0  0  0  0
   -1.6533   50.1749   22.5767 C   0  0  0  0  0  0
   -2.1998   49.8716   21.3206 C   0  0  0  0  0  0
   -2.5478   48.5440   21.0446 C   0  0  0  0  0  0
   -2.3598   47.5459   21.9964 C   0  0  0  0  0  0
   -1.8269   47.8520   23.2480 C   0  0  0  0  0  0
   -2.4098   50.9330   20.3055 N   0  3  0  0  0  0
   -2.9077   50.6257   19.2260 O   0  0  0  0  0  0
   -2.0958   52.0895   20.5814 O   0  5  0  0  0  0
    7.1501   56.1791   22.0875 H   0  0  0  0  0  0
    7.6745   54.4970   22.0065 H   0  0  0  0  0  0
    6.1008   54.9932   21.3310 H   0  0  0  0  0  0
    4.6371   53.5795   22.6960 H   0  0  0  0  0  0
    3.7162   53.0050   24.8702 H   0  0  0  0  0  0
    6.6119   55.5643   26.7742 H   0  0  0  0  0  0
    7.5516   56.0974   24.5742 H   0  0  0  0  0  0
    5.4823   53.9106   28.0735 H   0  0  0  0  0  0
   -0.3552   53.2952   26.8809 H   0  0  0  0  0  0
   -0.8228   53.4878   28.5221 H   0  0  0  0  0  0
   -1.7268   51.3790   27.7422 H   0  0  0  0  0  0
   -0.4876   50.9855   28.8704 H   0  0  0  0  0  0
   -0.0956   49.4686   27.1564 H   0  0  0  0  0  0
    1.1046   50.6644   26.8020 H   0  0  0  0  0  0
   -0.8364   48.6212   25.4166 H   0  0  0  0  0  0
   -1.3843   51.1996   22.7691 H   0  0  0  0  0  0
   -2.9704   48.2747   20.0862 H   0  0  0  0  0  0
   -2.6347   46.5298   21.7594 H   0  0  0  0  0  0
   -1.6933   46.8908   24.0797 O   0  5  0  0  0  0
  1  2  1  0  0  0
  1 31  1  0  0  0
  1 32  1  0  0  0
  1 33  1  0  0  0
  2  7  2  0  0  0
  2  3  1  0  0  0
  3  4  2  0  0  0
  3 34  1  0  0  0
  4  5  1  0  0  0
  4 35  1  0  0  0
  5  6  2  0  0  0
  5  8  1  0  0  0
  6  7  1  0  0  0
  6 36  1  0  0  0
  7 37  1  0  0  0
  8  9  2  0  0  0
  8 38  1  0  0  0
  9 15  1  0  0  0
  9 10  1  0  0  0
 10 11  2  0  0  0
 10 12  1  0  0  0
 12 13  1  0  0  0
 12 16  1  0  0  0
 13 14  2  0  0  0
 13 15  1  0  0  0
 16 17  1  0  0  0
 16 39  1  0  0  0
 16 40  1  0  0  0
 17 18  1  0  0  0
 17 41  1  0  0  0
 17 42  1  0  0  0
 18 19  1  0  0  0
 18 43  1  0  0  0
 18 44  1  0  0  0
 19 20  2  0  0  0
 19 21  1  0  0  0
 21 22  1  0  0  0
 21 45  1  0  0  0
 22 27  2  0  0  0
 22 23  1  0  0  0
 23 24  2  0  0  0
 23 46  1  0  0  0
 24 25  1  0  0  0
 24 28  1  0  0  0
 25 26  2  0  0  0
 25 47  1  0  0  0
 26 27  1  0  0  0
 26 48  1  0  0  0
 27 49  1  0  0  0
 28 29  2  0  0  0
 28 30  1  0  0  0
M  CHG  3  28   1  30  -1  49  -1
M  END
> <i_i_glide_confnum>
99

> <i_i_glide_lignum>
510

> <i_i_glide_posenum>
121

> <i_i_glide_rotatable_bonds>
8

> <i_m_Source_File_Index>
910

> <b_m_subgroup_collapsed>
0

> <r_i_docking_score>
-5.84295

> <r_i_glide_ecoul>
-5.59382

> <r_i_glide_eff_state_penalty>
0

> <r_i_glide_einternal>
3.87152

> <r_i_glide_emodel>
-62.9966

> <r_i_glide_energy>
-46.0952

> <r_i_glide_erotb>
0.67504

> <r_i_glide_esite>
-0.16524

> <r_i_glide_evdw>
-40.5014

> <r_i_glide_gscore>
-5.84295

> <r_i_glide_hbond>
0

> <r_i_glide_ligand_efficiency>
-0.188482

> <r_i_glide_ligand_efficiency_ln>
-1.31777

> <r_i_glide_ligand_efficiency_sa>
-0.592095

> <r_i_glide_lipo>
-2.40564

> <r_i_glide_metal>
0

> <r_i_glide_rewards>
-1.08298

> <s_i_glide_gridfile>
wee1_glide-grid

> <s_m_Source_File>
wee1_decoys_glide_SP.sdf

> <s_m_Source_Path>
/Users/zhangxujun/Desktop

> <s_m_entry_id>
1185

> <s_m_entry_name>
wee1_decoys_glide_SP.910

> <s_m_subgroup_title>
wee1_decoys_glide_SP

> <s_m_subgroupid>
wee1_decoys_glide_SP


$$$$
