ZINC36065076_4638
                    3D
 Schrodinger Suite 2024-2.
 65 69  0  0  1  0            999 V2000
   -0.7022   52.0399   27.3731 C   0  0  0  0  0  0
    0.3151   52.4415   26.3056 C   0  0  0  0  0  0
    0.1208   52.4932   24.9488 C   0  0  0  0  0  0
    1.2742   52.9783   24.0082 C   0  0  1  0  0  0
    0.9113   53.8617   23.4804 H   0  0  0  0  0  0
    2.4355   53.4723   24.8127 N   0  0  0  0  0  0
    3.5773   54.0971   24.3156 C   0  0  0  0  0  0
    4.4120   54.4842   25.2980 C   0  0  0  0  0  0
    3.8436   54.0946   26.9123 S   0  0  0  0  0  0
    2.3890   53.3691   26.2044 C   0  0  0  0  0  0
    1.4580   52.8725   26.9148 N   0  0  0  0  0  0
    3.9009   54.2860   22.9064 C   0  0  0  0  0  0
    5.1071   54.0767   22.3427 C   0  0  0  0  0  0
    6.2092   53.6963   22.8856 O   0  5  0  0  0  0
    5.2935   54.2374   20.9881 N   0  0  0  0  0  0
    6.3663   54.9630   20.3076 C   0  0  0  0  0  0
    5.9669   56.3903   19.8956 C   0  0  2  0  0  0
    5.5044   56.8978   20.7404 H   0  0  0  0  0  0
    5.2130   56.4866   18.5604 C   0  0  0  0  0  0
    5.7795   57.7083   17.8582 C   0  0  0  0  0  0
    6.8877   58.2046   18.7795 C   0  0  0  0  0  0
    7.1742   57.0947   19.6272 O   0  0  0  0  0  0
    1.6756   51.9545   22.9261 C   0  0  0  0  0  0
    1.9039   50.6069   23.2362 C   0  0  0  0  0  0
    2.2503   49.6966   22.2355 C   0  0  0  0  0  0
    2.3819   50.1267   20.9163 C   0  0  0  0  0  0
    2.1516   51.4625   20.5934 C   0  0  0  0  0  0
    1.7801   52.3595   21.5921 C   0  0  0  0  0  0
    2.3237   51.9122   19.3088 O   0  0  0  0  0  0
    1.3208   51.7065   18.3931 C   0  0  0  0  0  0
    1.6638   51.1635   17.1558 C   0  0  0  0  0  0
    0.6836   50.9494   16.1909 C   0  0  0  0  0  0
   -0.6388   51.2940   16.4646 C   0  0  0  0  0  0
   -0.9881   51.8507   17.6936 C   0  0  0  0  0  0
   -0.0075   52.0591   18.6593 C   0  0  0  0  0  0
   -1.1525   52.0818   24.3086 C   0  0  0  0  0  0
   -2.0328   51.4355   24.8800 O   0  0  0  0  0  0
   -1.2576   52.4737   23.0167 O   0  0  0  0  0  0
   -2.3802   52.0937   22.2381 C   0  0  0  0  0  0
   -1.7044   52.3953   27.1336 H   0  0  0  0  0  0
   -0.7360   50.9520   27.4598 H   0  0  0  0  0  0
   -0.4674   52.4454   28.3603 H   0  0  0  0  0  0
    5.3667   54.9702   25.1597 H   0  0  0  0  0  0
    3.1070   54.6279   22.2640 H   0  0  0  0  0  0
    4.4748   54.1351   20.4086 H   0  0  0  0  0  0
    6.6661   54.3911   19.4283 H   0  0  0  0  0  0
    7.2425   54.9949   20.9571 H   0  0  0  0  0  0
    4.1321   56.5220   18.6943 H   0  0  0  0  0  0
    5.4190   55.6131   17.9393 H   0  0  0  0  0  0
    5.0304   58.4798   17.6817 H   0  0  0  0  0  0
    6.1864   57.4336   16.8838 H   0  0  0  0  0  0
    6.5847   59.0630   19.3812 H   0  0  0  0  0  0
    7.7814   58.5128   18.2378 H   0  0  0  0  0  0
    1.8088   50.2596   24.2535 H   0  0  0  0  0  0
    2.4316   48.6617   22.4821 H   0  0  0  0  0  0
    2.6760   49.4326   20.1433 H   0  0  0  0  0  0
    1.5921   53.3811   21.3137 H   0  0  0  0  0  0
    2.6930   50.8975   16.9534 H   0  0  0  0  0  0
    0.9500   50.5180   15.2379 H   0  0  0  0  0  0
   -1.4000   51.1297   15.7153 H   0  0  0  0  0  0
   -2.0140   52.1202   17.8944 H   0  0  0  0  0  0
   -0.2693   52.4952   19.6107 H   0  0  0  0  0  0
   -2.2904   52.4962   21.2303 H   0  0  0  0  0  0
   -2.4582   51.0076   22.1647 H   0  0  0  0  0  0
   -3.2955   52.4782   22.6852 H   0  0  0  0  0  0
  1  2  1  0  0  0
  1 40  1  0  0  0
  1 41  1  0  0  0
  1 42  1  0  0  0
  2 11  1  0  0  0
  2  3  2  0  0  0
  3  4  1  0  0  0
  3 36  1  0  0  0
  4  5  1  0  0  0
  4  6  1  0  0  0
  4 23  1  0  0  0
  6 10  1  0  0  0
  6  7  1  0  0  0
  7  8  2  0  0  0
  7 12  1  0  0  0
  8  9  1  0  0  0
  8 43  1  0  0  0
  9 10  1  0  0  0
 10 11  2  0  0  0
 12 13  2  0  0  0
 12 44  1  0  0  0
 13 14  1  0  0  0
 13 15  1  0  0  0
 15 16  1  0  0  0
 15 45  1  0  0  0
 16 17  1  0  0  0
 16 46  1  0  0  0
 16 47  1  0  0  0
 17 18  1  0  0  0
 17 22  1  0  0  0
 17 19  1  0  0  0
 19 20  1  0  0  0
 19 48  1  0  0  0
 19 49  1  0  0  0
 20 21  1  0  0  0
 20 50  1  0  0  0
 20 51  1  0  0  0
 21 22  1  0  0  0
 21 52  1  0  0  0
 21 53  1  0  0  0
 23 28  2  0  0  0
 23 24  1  0  0  0
 24 25  2  0  0  0
 24 54  1  0  0  0
 25 26  1  0  0  0
 25 55  1  0  0  0
 26 27  2  0  0  0
 26 56  1  0  0  0
 27 28  1  0  0  0
 27 29  1  0  0  0
 28 57  1  0  0  0
 29 30  1  0  0  0
 30 35  2  0  0  0
 30 31  1  0  0  0
 31 32  2  0  0  0
 31 58  1  0  0  0
 32 33  1  0  0  0
 32 59  1  0  0  0
 33 34  2  0  0  0
 33 60  1  0  0  0
 34 35  1  0  0  0
 34 61  1  0  0  0
 35 62  1  0  0  0
 36 37  2  0  0  0
 36 38  1  0  0  0
 38 39  1  0  0  0
 39 63  1  0  0  0
 39 64  1  0  0  0
 39 65  1  0  0  0
M  CHG  1  14  -1
M  END
> <i_i_glide_confnum>
131

> <i_i_glide_lignum>
4639

> <i_i_glide_posenum>
89

> <i_i_glide_rotatable_bonds>
9

> <i_m_Source_File_Index>
4129

> <b_m_subgroup_collapsed>
0

> <r_i_docking_score>
-4.75881

> <r_i_glide_ecoul>
-2.63166

> <r_i_glide_eff_state_penalty>
0

> <r_i_glide_einternal>
7.1082

> <r_i_glide_emodel>
-55.3037

> <r_i_glide_energy>
-44.4529

> <r_i_glide_erotb>
0.534582

> <r_i_glide_esite>
0

> <r_i_glide_evdw>
-41.8213

> <r_i_glide_gscore>
-4.75881

> <r_i_glide_hbond>
-0.260413

> <r_i_glide_ligand_efficiency>
-0.128616

> <r_i_glide_ligand_efficiency_ln>
-1.03207

> <r_i_glide_ligand_efficiency_sa>
-0.428578

> <r_i_glide_lipo>
-1.99381

> <r_i_glide_metal>
0

> <r_i_glide_rewards>
-0.553353

> <s_i_glide_gridfile>
wee1_glide-grid

> <s_m_Source_File>
wee1_decoys_glide_SP.sdf

> <s_m_Source_Path>
/Users/zhangxujun/Desktop

> <s_m_entry_id>
4404

> <s_m_entry_name>
wee1_decoys_glide_SP.4129

> <s_m_subgroup_title>
wee1_decoys_glide_SP

> <s_m_subgroupid>
wee1_decoys_glide_SP


$$$$
