ZINC43737069_497
                    3D
 Schrodinger Suite 2024-2.
 80 84  0  0  1  0            999 V2000
   -1.9870   48.3416   18.4214 C   0  0  0  0  0  0
   -1.5733   49.2535   19.5806 C   0  0  0  0  0  0
   -2.3301   50.1703   19.9109 O   0  0  0  0  0  0
   -0.1996   49.0261   20.3104 C   0  0  2  0  0  0
   -0.4777   48.9916   21.8469 C   0  0  0  0  0  0
    0.2247   50.1937   22.4709 C   0  0  0  0  0  0
    0.4900   51.1512   21.3041 C   0  0  2  0  0  0
   -0.4600   51.6384   21.0736 H   0  0  0  0  0  0
    0.8220   50.2257   20.0955 C   0  0  1  0  0  0
    2.3095   49.7446   20.2320 C   0  0  0  0  0  0
    3.3283   50.8955   20.3673 C   0  0  0  0  0  0
    3.0169   51.8073   21.5790 C   0  0  2  0  0  0
    3.1047   51.1752   22.4641 H   0  0  0  0  0  0
    1.5293   52.2785   21.5479 C   0  0  2  0  0  0
    1.4050   52.9739   20.7220 H   0  0  0  0  0  0
    1.2428   53.0016   22.8777 C   0  0  0  0  0  0
    2.1022   54.2548   22.9859 C   0  0  0  0  0  0
    3.5773   53.8776   22.9425 C   0  0  0  0  0  0
    4.4260   54.3118   23.8976 C   0  0  0  0  0  0
    5.8528   54.1612   23.9173 C   0  0  0  0  0  0
    6.7006   54.5260   24.8131 N   0  0  0  0  0  0
    6.2896   54.8967   26.1419 O   0  0  0  0  0  0
    5.1862   54.1845   26.7313 C   0  0  0  0  0  0
    5.5858   53.6550   28.1078 C   0  0  0  0  0  0
    6.7547   53.6967   28.4816 O   0  0  0  0  0  0
    4.6272   53.1150   28.8834 N   0  0  0  0  0  0
    3.1713   53.0803   28.6377 C   0  0  1  0  0  0
    3.0172   52.9528   27.5640 H   0  0  0  0  0  0
    2.5801   51.8490   29.3453 C   0  0  0  0  0  0
    1.2342   51.3949   28.7700 C   0  0  0  0  0  0
    0.0813   52.3825   28.9197 C   0  0  0  0  0  0
    0.2823   53.6594   28.1063 C   0  0  0  0  0  0
    1.2447   54.6062   28.6538 N   0  0  0  0  0  0
    2.5164   54.4311   29.0477 C   0  0  0  0  0  0
    3.1046   55.2967   29.6817 O   0  0  0  0  0  0
    6.4247   53.5703   22.6439 C   0  0  0  0  0  0
    5.4831   52.5374   21.9577 C   0  0  0  0  0  0
    4.0235   53.0236   21.7231 C   0  0  1  0  0  0
    4.0751   53.9244   20.4550 C   0  0  0  0  0  0
    0.6658   50.9842   18.7383 C   0  0  0  0  0  0
    0.3068   47.7684   19.8740 O   0  0  0  0  0  0
   -1.2540   48.3979   17.6174 H   0  0  0  0  0  0
   -2.9525   48.6527   18.0218 H   0  0  0  0  0  0
   -2.0726   47.3095   18.7601 H   0  0  0  0  0  0
   -1.5381   49.0109   22.1085 H   0  0  0  0  0  0
   -0.0956   48.0964   22.3206 H   0  0  0  0  0  0
   -0.3358   50.6563   23.2835 H   0  0  0  0  0  0
    1.1688   49.8600   22.9049 H   0  0  0  0  0  0
    2.4199   49.1002   21.1056 H   0  0  0  0  0  0
    2.5869   49.1192   19.3813 H   0  0  0  0  0  0
    3.3570   51.4764   19.4467 H   0  0  0  0  0  0
    4.3366   50.4967   20.4585 H   0  0  0  0  0  0
    0.1935   53.2919   22.9116 H   0  0  0  0  0  0
    1.3766   52.3405   23.7363 H   0  0  0  0  0  0
    1.8462   54.8088   23.8900 H   0  0  0  0  0  0
    1.8809   54.8999   22.1478 H   0  0  0  0  0  0
    3.9744   54.9235   24.6578 H   0  0  0  0  0  0
    4.3468   54.8711   26.8392 H   0  0  0  0  0  0
    4.8669   53.2975   26.1865 H   0  0  0  0  0  0
    4.9124   52.8194   29.8049 H   0  0  0  0  0  0
    3.2773   51.0137   29.2815 H   0  0  0  0  0  0
    2.4735   52.0535   30.4122 H   0  0  0  0  0  0
    0.9247   50.4969   29.2707 H   0  0  0  0  0  0
    1.3558   51.1112   27.7228 H   0  0  0  0  0  0
   -0.0997   52.6163   29.9710 H   0  0  0  0  0  0
   -0.8235   51.8866   28.5653 H   0  0  0  0  0  0
   -0.6705   54.1841   28.0795 H   0  0  0  0  0  0
    0.5477   53.4240   27.0739 H   0  0  0  0  0  0
    0.8807   55.5046   28.9329 H   0  0  0  0  0  0
    6.6692   54.3908   21.9656 H   0  0  0  0  0  0
    7.3664   53.0722   22.8826 H   0  0  0  0  0  0
    5.5059   51.5900   22.4817 H   0  0  0  0  0  0
    5.9006   52.2359   20.9990 H   0  0  0  0  0  0
    4.6585   53.4716   19.6518 H   0  0  0  0  0  0
    3.1046   54.0969   20.0132 H   0  0  0  0  0  0
    4.5220   54.8965   20.6634 H   0  0  0  0  0  0
    1.3808   51.7965   18.6247 H   0  0  0  0  0  0
    0.8102   50.3115   17.8937 H   0  0  0  0  0  0
   -0.3121   51.4509   18.6268 H   0  0  0  0  0  0
    0.7640   47.9011   19.0384 H   0  0  0  0  0  0
  1  2  1  0  0  0
  1 42  1  0  0  0
  1 43  1  0  0  0
  1 44  1  0  0  0
  2  3  2  0  0  0
  2  4  1  0  0  0
  4  9  1  0  0  0
  4  5  1  0  0  0
  4 41  1  0  0  0
  5  6  1  0  0  0
  5 45  1  0  0  0
  5 46  1  0  0  0
  6  7  1  0  0  0
  6 47  1  0  0  0
  6 48  1  0  0  0
  7  8  1  0  0  0
  7 14  1  0  0  0
  7  9  1  0  0  0
  9 10  1  0  0  0
  9 40  1  0  0  0
 10 11  1  0  0  0
 10 49  1  0  0  0
 10 50  1  0  0  0
 11 12  1  0  0  0
 11 51  1  0  0  0
 11 52  1  0  0  0
 12 13  1  0  0  0
 12 38  1  0  0  0
 12 14  1  0  0  0
 14 15  1  0  0  0
 14 16  1  0  0  0
 16 17  1  0  0  0
 16 53  1  0  0  0
 16 54  1  0  0  0
 17 18  1  0  0  0
 17 55  1  0  0  0
 17 56  1  0  0  0
 18 38  1  0  0  0
 18 19  2  0  0  0
 19 20  1  0  0  0
 19 57  1  0  0  0
 20 21  2  0  0  0
 20 36  1  0  0  0
 21 22  1  0  0  0
 22 23  1  0  0  0
 23 24  1  0  0  0
 23 58  1  0  0  0
 23 59  1  0  0  0
 24 25  2  0  0  0
 24 26  1  0  0  0
 26 27  1  0  0  0
 26 60  1  0  0  0
 27 28  1  0  0  0
 27 34  1  0  0  0
 27 29  1  0  0  0
 29 30  1  0  0  0
 29 61  1  0  0  0
 29 62  1  0  0  0
 30 31  1  0  0  0
 30 63  1  0  0  0
 30 64  1  0  0  0
 31 32  1  0  0  0
 31 65  1  0  0  0
 31 66  1  0  0  0
 32 33  1  0  0  0
 32 67  1  0  0  0
 32 68  1  0  0  0
 33 34  1  0  0  0
 33 69  1  0  0  0
 34 35  2  0  0  0
 36 37  1  0  0  0
 36 70  1  0  0  0
 36 71  1  0  0  0
 37 38  1  0  0  0
 37 72  1  0  0  0
 37 73  1  0  0  0
 38 39  1  0  0  0
 39 74  1  0  0  0
 39 75  1  0  0  0
 39 76  1  0  0  0
 40 77  1  0  0  0
 40 78  1  0  0  0
 40 79  1  0  0  0
 41 80  1  0  0  0
M  END
> <i_i_glide_confnum>
102

> <i_i_glide_lignum>
498

> <i_i_glide_posenum>
128

> <i_i_glide_rotatable_bonds>
7

> <i_m_Source_File_Index>
1069

> <b_m_subgroup_collapsed>
0

> <r_i_docking_score>
-0.807385

> <r_i_glide_ecoul>
-2.13296

> <r_i_glide_eff_state_penalty>
0

> <r_i_glide_einternal>
8.29042

> <r_i_glide_emodel>
-27.6483

> <r_i_glide_energy>
-43.1972

> <r_i_glide_erotb>
0.310891

> <r_i_glide_esite>
0

> <r_i_glide_evdw>
-41.0642

> <r_i_glide_gscore>
-0.807385

> <r_i_glide_hbond>
-0.114107

> <r_i_glide_ligand_efficiency>
-0.0218212

> <r_i_glide_ligand_efficiency_ln>
-0.175103

> <r_i_glide_ligand_efficiency_sa>
-0.0727131

> <r_i_glide_lipo>
-1.97243

> <r_i_glide_metal>
0

> <r_i_glide_rewards>
3.34141

> <s_i_glide_gridfile>
wee1_glide-grid

> <s_m_Source_File>
wee1_decoys_glide_SP.sdf

> <s_m_Source_Path>
/Users/zhangxujun/Desktop

> <s_m_entry_id>
1344

> <s_m_entry_name>
wee1_decoys_glide_SP.1069

> <s_m_subgroup_title>
wee1_decoys_glide_SP

> <s_m_subgroupid>
wee1_decoys_glide_SP


$$$$
