ZINC23153778_4433
                    3D
 Schrodinger Suite 2024-2.
 49 52  0  0  1  0            999 V2000
    5.5393   53.7558   28.0582 C   0  0  0  0  0  0
    4.1468   53.8254   28.0114 C   0  0  0  0  0  0
    3.5076   54.0614   26.7964 C   0  0  0  0  0  0
    4.2635   54.2348   25.6337 C   0  0  0  0  0  0
    5.6584   54.1346   25.6839 C   0  0  0  0  0  0
    6.2971   53.9071   26.8989 C   0  0  0  0  0  0
    3.5791   54.4968   24.2980 C   0  0  0  0  0  0
    3.1900   53.2967   23.5607 N   0  0  0  0  0  0
    3.1138   53.5707   22.1225 C   0  0  0  0  0  0
    3.0047   52.2611   21.3014 C   0  0  0  0  0  0
    1.9703   51.3017   21.9063 C   0  0  0  0  0  0
    1.4936   51.5632   23.1951 C   0  0  0  0  0  0
    0.2982   50.4379   23.7046 S   0  0  0  0  0  0
    0.3508   49.6254   22.1605 C   0  0  0  0  0  0
    1.3494   50.1583   21.3063 C   0  0  0  0  0  0
    1.6333   49.6060   19.9741 C   0  0  0  0  0  0
    0.9381   48.7246   19.4710 O   0  0  0  0  0  0
    2.7041   50.0672   19.3257 N   0  0  0  0  0  0
   -0.4955   48.5539   21.8556 N   0  0  0  0  0  0
   -1.4836   47.9905   22.5891 C   0  0  0  0  0  0
   -1.8560   48.4004   23.6886 O   0  0  0  0  0  0
   -2.1644   46.7819   21.9711 C   0  0  0  0  0  0
   -1.6306   46.1190   20.8494 C   0  0  0  0  0  0
   -2.2567   44.9877   20.3297 C   0  0  0  0  0  0
   -3.4225   44.5067   20.9213 C   0  0  0  0  0  0
   -3.9726   45.1555   22.0233 C   0  0  0  0  0  0
   -3.3448   46.2838   22.5456 C   0  0  0  0  0  0
   -4.2649   42.9513   20.2188 Br  0  0  0  0  0  0
    1.9018   52.7686   24.0304 C   0  0  0  0  0  0
    6.0399   53.5738   28.9948 H   0  0  0  0  0  0
    3.5669   53.6951   28.9128 H   0  0  0  0  0  0
    2.4279   54.1158   26.7615 H   0  0  0  0  0  0
    6.2476   54.2393   24.7829 H   0  0  0  0  0  0
    7.3745   53.8342   26.9461 H   0  0  0  0  0  0
    4.3042   55.0455   23.6977 H   0  0  0  0  0  0
    2.7216   55.1591   24.4374 H   0  0  0  0  0  0
    2.3052   54.2695   21.9111 H   0  0  0  0  0  0
    4.0216   54.0746   21.7811 H   0  0  0  0  0  0
    3.9863   51.7884   21.2624 H   0  0  0  0  0  0
    2.7894   52.5321   20.2675 H   0  0  0  0  0  0
    2.9624   49.6962   18.4161 H   0  0  0  0  0  0
    3.3001   50.7693   19.7321 H   0  0  0  0  0  0
   -0.3472   48.1876   20.9247 H   0  0  0  0  0  0
   -0.7213   46.4539   20.3688 H   0  0  0  0  0  0
   -1.8363   44.4876   19.4689 H   0  0  0  0  0  0
   -4.8835   44.7850   22.4723 H   0  0  0  0  0  0
   -3.7864   46.7704   23.4059 H   0  0  0  0  0  0
    1.1207   53.5274   23.9477 H   0  0  0  0  0  0
    1.9893   52.4853   25.0789 H   0  0  0  0  0  0
  1  6  2  0  0  0
  1  2  1  0  0  0
  1 30  1  0  0  0
  2  3  2  0  0  0
  2 31  1  0  0  0
  3  4  1  0  0  0
  3 32  1  0  0  0
  4  5  2  0  0  0
  4  7  1  0  0  0
  5  6  1  0  0  0
  5 33  1  0  0  0
  6 34  1  0  0  0
  7  8  1  0  0  0
  7 35  1  0  0  0
  7 36  1  0  0  0
  8 29  1  0  0  0
  8  9  1  0  0  0
  9 10  1  0  0  0
  9 37  1  0  0  0
  9 38  1  0  0  0
 10 11  1  0  0  0
 10 39  1  0  0  0
 10 40  1  0  0  0
 11 15  1  0  0  0
 11 12  2  0  0  0
 12 13  1  0  0  0
 12 29  1  0  0  0
 13 14  1  0  0  0
 14 15  2  0  0  0
 14 19  1  0  0  0
 15 16  1  0  0  0
 16 17  2  0  0  0
 16 18  1  0  0  0
 18 41  1  0  0  0
 18 42  1  0  0  0
 19 20  1  0  0  0
 19 43  1  0  0  0
 20 21  2  0  0  0
 20 22  1  0  0  0
 22 27  2  0  0  0
 22 23  1  0  0  0
 23 24  2  0  0  0
 23 44  1  0  0  0
 24 25  1  0  0  0
 24 45  1  0  0  0
 25 26  2  0  0  0
 25 28  1  0  0  0
 26 27  1  0  0  0
 26 46  1  0  0  0
 27 47  1  0  0  0
 29 48  1  0  0  0
 29 49  1  0  0  0
M  END
> <i_i_glide_confnum>
88

> <i_i_glide_lignum>
4434

> <i_i_glide_posenum>
236

> <i_i_glide_rotatable_bonds>
6

> <i_m_Source_File_Index>
4012

> <b_m_subgroup_collapsed>
0

> <r_i_docking_score>
-4.31179

> <r_i_glide_ecoul>
-0.872391

> <r_i_glide_eff_state_penalty>
0

> <r_i_glide_einternal>
1.19528

> <r_i_glide_emodel>
-47.0058

> <r_i_glide_energy>
-36.0634

> <r_i_glide_erotb>
0.456581

> <r_i_glide_esite>
-0.118155

> <r_i_glide_evdw>
-35.191

> <r_i_glide_gscore>
-4.31179

> <r_i_glide_hbond>
-0.0898608

> <r_i_glide_ligand_efficiency>
-0.148682

> <r_i_glide_ligand_efficiency_ln>
-0.987289

> <r_i_glide_ligand_efficiency_sa>
-0.456799

> <r_i_glide_lipo>
-2.40013

> <r_i_glide_metal>
0

> <r_i_glide_rewards>
-0.269817

> <s_i_glide_gridfile>
wee1_glide-grid

> <s_m_Source_File>
wee1_decoys_glide_SP.sdf

> <s_m_Source_Path>
/Users/zhangxujun/Desktop

> <s_m_entry_id>
4287

> <s_m_entry_name>
wee1_decoys_glide_SP.4012

> <s_m_subgroup_title>
wee1_decoys_glide_SP

> <s_m_subgroupid>
wee1_decoys_glide_SP


$$$$
