ZINC33312712_5854
                    3D
 Schrodinger Suite 2024-2.
 41 44  0  0  1  0            999 V2000
    7.9531   55.8138   18.5177 C   0  0  0  0  0  0
    6.7534   55.3474   17.9833 C   0  0  0  0  0  0
    5.7487   54.8831   18.8302 C   0  0  0  0  0  0
    5.9565   54.8963   20.1870 N   0  0  0  0  0  0
    7.1486   55.3721   20.7509 C   0  0  0  0  0  0
    8.1679   55.8329   19.8976 C   0  0  0  0  0  0
    7.1074   55.2968   22.1013 N   0  0  0  0  0  0
    5.9499   54.7409   22.4089 C   0  0  0  0  0  0
    5.1829   54.4963   21.2520 C   0  0  0  0  0  0
    3.9045   54.0041   21.1006 N   0  0  0  0  0  0
    3.5647   52.7325   21.3601 C   0  0  0  0  0  0
    4.3516   51.8375   21.6805 O   0  0  0  0  0  0
    2.2312   52.5999   21.2724 N   0  0  0  0  0  0
    1.5048   51.4496   21.5855 C   0  0  0  0  0  0
    0.5132   51.5520   22.5667 C   0  0  0  0  0  0
   -0.2853   50.4501   22.8690 C   0  0  0  0  0  0
   -0.1108   49.2515   22.1789 C   0  0  0  0  0  0
    0.8646   49.1513   21.1878 C   0  0  0  0  0  0
    1.6744   50.2446   20.8840 C   0  0  0  0  0  0
    2.5920   50.1304   19.8958 F   0  0  0  0  0  0
   -0.8961   48.1885   22.4634 F   0  0  0  0  0  0
    5.6049   54.4966   23.8558 C   0  0  0  0  0  0
    4.2734   54.4967   24.2910 C   0  0  0  0  0  0
    3.9670   54.3054   25.6357 C   0  0  0  0  0  0
    4.9918   54.1163   26.5580 C   0  0  0  0  0  0
    6.3199   54.1140   26.1444 C   0  0  0  0  0  0
    6.6233   54.3032   24.7984 C   0  0  0  0  0  0
    4.6959   53.9392   27.8649 F   0  0  0  0  0  0
    8.7311   56.1615   17.8521 H   0  0  0  0  0  0
    6.6082   55.3363   16.9121 H   0  0  0  0  0  0
    4.8064   54.4867   18.4799 H   0  0  0  0  0  0
    9.1049   56.1865   20.3015 H   0  0  0  0  0  0
    3.1886   54.6348   20.7664 H   0  0  0  0  0  0
    1.6944   53.4245   21.0411 H   0  0  0  0  0  0
    0.3631   52.4799   23.0992 H   0  0  0  0  0  0
   -1.0442   50.5223   23.6331 H   0  0  0  0  0  0
    0.9904   48.2280   20.6433 H   0  0  0  0  0  0
    3.4661   54.6638   23.5944 H   0  0  0  0  0  0
    2.9392   54.3061   25.9661 H   0  0  0  0  0  0
    7.1072   53.9571   26.8663 H   0  0  0  0  0  0
    7.6552   54.2931   24.4816 H   0  0  0  0  0  0
  1  6  2  0  0  0
  1  2  1  0  0  0
  1 29  1  0  0  0
  2  3  2  0  0  0
  2 30  1  0  0  0
  3  4  1  0  0  0
  3 31  1  0  0  0
  4  9  1  0  0  0
  4  5  1  0  0  0
  5  6  1  0  0  0
  5  7  2  0  0  0
  6 32  1  0  0  0
  7  8  1  0  0  0
  8  9  2  0  0  0
  8 22  1  0  0  0
  9 10  1  0  0  0
 10 11  1  0  0  0
 10 33  1  0  0  0
 11 12  2  0  0  0
 11 13  1  0  0  0
 13 14  1  0  0  0
 13 34  1  0  0  0
 14 19  2  0  0  0
 14 15  1  0  0  0
 15 16  2  0  0  0
 15 35  1  0  0  0
 16 17  1  0  0  0
 16 36  1  0  0  0
 17 18  2  0  0  0
 17 21  1  0  0  0
 18 19  1  0  0  0
 18 37  1  0  0  0
 19 20  1  0  0  0
 22 27  2  0  0  0
 22 23  1  0  0  0
 23 24  2  0  0  0
 23 38  1  0  0  0
 24 25  1  0  0  0
 24 39  1  0  0  0
 25 26  2  0  0  0
 25 28  1  0  0  0
 26 27  1  0  0  0
 26 40  1  0  0  0
 27 41  1  0  0  0
M  END
> <i_i_glide_confnum>
17

> <i_i_glide_lignum>
5855

> <i_i_glide_posenum>
198

> <i_i_glide_rotatable_bonds>
5

> <i_m_Source_File_Index>
5998

> <b_m_subgroup_collapsed>
0

> <r_i_docking_score>
-6.72153

> <r_i_glide_ecoul>
-4.5013

> <r_i_glide_eff_state_penalty>
0

> <r_i_glide_einternal>
3.84349

> <r_i_glide_emodel>
-56.3651

> <r_i_glide_energy>
-40.8022

> <r_i_glide_erotb>
0.531405

> <r_i_glide_esite>
-0.0799645

> <r_i_glide_evdw>
-36.3009

> <r_i_glide_gscore>
-6.72153

> <r_i_glide_hbond>
-0.593508

> <r_i_glide_ligand_efficiency>
-0.240055

> <r_i_glide_ligand_efficiency_ln>
-1.55153

> <r_i_glide_ligand_efficiency_sa>
-0.728948

> <r_i_glide_lipo>
-2.34866

> <r_i_glide_metal>
0

> <r_i_glide_rewards>
-1.74057

> <s_i_glide_gridfile>
wee1_glide-grid

> <s_m_Source_File>
wee1_decoys_glide_SP.sdf

> <s_m_Source_Path>
/Users/zhangxujun/Desktop

> <s_m_entry_id>
6273

> <s_m_entry_name>
wee1_decoys_glide_SP.5998

> <s_m_subgroup_title>
wee1_decoys_glide_SP

> <s_m_subgroupid>
wee1_decoys_glide_SP


$$$$
