ZINC39665744_3068
                    3D
 Schrodinger Suite 2024-2.
 76 79  0  0  1  0            999 V2000
   -0.0275   49.1372   25.9139 C   0  0  0  0  0  0
    0.4225   49.9981   24.7270 C   0  0  0  0  0  0
    0.0784   51.5204   24.7877 C   0  0  1  0  0  0
   -0.9908   51.6220   24.5982 H   0  0  0  0  0  0
    0.3097   52.0494   26.2267 C   0  0  0  0  0  0
   -0.7215   51.9469   27.1680 C   0  0  0  0  0  0
   -0.4952   52.2647   28.5042 C   0  0  0  0  0  0
    0.7558   52.7256   28.9041 C   0  0  0  0  0  0
    1.7882   52.8481   27.9809 C   0  0  0  0  0  0
    1.5693   52.4994   26.6512 C   0  0  0  0  0  0
    0.7403   52.4125   23.6746 C   0  0  0  0  0  0
    0.9521   53.6009   23.9367 O   0  0  0  0  0  0
    1.0926   51.9283   22.4491 N   0  0  0  0  0  0
    0.7066   50.6508   21.8464 C   0  0  0  0  0  0
    1.0761   50.7942   20.3506 C   0  0  1  0  0  0
    0.2306   51.2129   19.8037 H   0  0  0  0  0  0
    2.2619   51.7937   20.3555 C   0  0  0  0  0  0
    1.7889   52.7567   21.4651 C   0  0  0  0  0  0
    2.4786   52.4675   18.9726 C   0  0  0  0  0  0
    3.6297   53.5005   18.9654 C   0  0  0  0  0  0
    4.9148   52.7871   19.4201 N   0  3  0  0  0  0
    4.7734   52.1727   20.8276 C   0  0  0  0  0  0
    3.6306   51.1436   20.7435 C   0  0  0  0  0  0
    1.3937   49.3934   19.7636 C   0  0  0  0  0  0
    1.8258   48.4902   20.4811 O   0  0  0  0  0  0
    1.1041   49.2085   18.4650 N   0  0  0  0  0  0
    1.3147   47.9600   17.7229 C   0  0  0  0  0  0
    0.0325   47.4471   17.0183 C   0  0  1  0  0  0
   -0.8285   47.5338   17.6811 H   0  0  0  0  0  0
   -0.3146   48.2694   15.7675 C   0  0  0  0  0  0
    0.2023   46.0972   16.5787 O   0  0  0  0  0  0
    0.2421   45.0625   17.4946 C   0  0  0  0  0  0
    0.7668   43.8551   17.0402 C   0  0  0  0  0  0
    0.9070   42.7731   17.9045 C   0  0  0  0  0  0
    0.5088   42.8879   19.2343 C   0  0  0  0  0  0
   -0.0962   44.0663   19.6797 C   0  0  0  0  0  0
   -0.2094   45.1561   18.8214 C   0  0  0  0  0  0
    0.7047   41.7952   20.0512 O   0  0  0  0  0  0
    1.2470   42.0468   21.3427 C   0  0  0  0  0  0
    0.1790   48.0977   25.6828 H   0  0  0  0  0  0
    0.4930   49.3776   26.8451 H   0  0  0  0  0  0
   -1.1019   49.2232   26.0838 H   0  0  0  0  0  0
   -0.0963   49.5365   23.8893 H   0  0  0  0  0  0
    1.4933   49.8459   24.5667 H   0  0  0  0  0  0
   -1.6901   51.5632   26.8790 H   0  0  0  0  0  0
   -1.2833   52.1374   29.2330 H   0  0  0  0  0  0
    0.9262   52.9751   29.9433 H   0  0  0  0  0  0
    2.7652   53.1866   28.2955 H   0  0  0  0  0  0
    2.3938   52.5583   25.9564 H   0  0  0  0  0  0
    1.3526   49.9034   22.3106 H   0  0  0  0  0  0
   -0.3575   50.4308   21.9423 H   0  0  0  0  0  0
    1.0033   53.3849   21.0529 H   0  0  0  0  0  0
    2.5518   53.4310   21.8570 H   0  0  0  0  0  0
    2.6596   51.7100   18.2055 H   0  0  0  0  0  0
    1.5639   52.9736   18.6641 H   0  0  0  0  0  0
    3.8264   53.8887   17.9648 H   0  0  0  0  0  0
    3.5040   54.3370   19.6541 H   0  0  0  0  0  0
    5.1056   52.0082   18.7832 H   0  0  0  0  0  0
    5.7238   51.6970   21.0587 H   0  0  0  0  0  0
    4.6059   52.9839   21.5360 H   0  0  0  0  0  0
    3.5401   50.6403   21.7070 H   0  0  0  0  0  0
    3.9038   50.3597   20.0366 H   0  0  0  0  0  0
    0.8255   50.0074   17.9191 H   0  0  0  0  0  0
    2.1030   48.1229   16.9869 H   0  0  0  0  0  0
    1.7191   47.1772   18.3656 H   0  0  0  0  0  0
   -0.4791   49.3190   16.0122 H   0  0  0  0  0  0
    0.4863   48.2199   15.0274 H   0  0  0  0  0  0
   -1.2240   47.8941   15.2956 H   0  0  0  0  0  0
    1.1026   43.7696   16.0166 H   0  0  0  0  0  0
    1.3478   41.8545   17.5486 H   0  0  0  0  0  0
   -0.4509   44.1621   20.6940 H   0  0  0  0  0  0
   -0.6455   46.0645   19.2091 H   0  0  0  0  0  0
    1.4044   41.0957   21.8520 H   0  0  0  0  0  0
    2.2154   42.5451   21.2825 H   0  0  0  0  0  0
    0.5832   42.6397   21.9696 H   0  0  0  0  0  0
    5.7055   53.4138   19.3752 H   0  0  0  0  0  0
  1  2  1  0  0  0
  1 40  1  0  0  0
  1 41  1  0  0  0
  1 42  1  0  0  0
  2  3  1  0  0  0
  2 43  1  0  0  0
  2 44  1  0  0  0
  3  4  1  0  0  0
  3  5  1  0  0  0
  3 11  1  0  0  0
  5 10  2  0  0  0
  5  6  1  0  0  0
  6  7  2  0  0  0
  6 45  1  0  0  0
  7  8  1  0  0  0
  7 46  1  0  0  0
  8  9  2  0  0  0
  8 47  1  0  0  0
  9 10  1  0  0  0
  9 48  1  0  0  0
 10 49  1  0  0  0
 11 12  2  0  0  0
 11 13  1  0  0  0
 13 18  1  0  0  0
 13 14  1  0  0  0
 14 15  1  0  0  0
 14 50  1  0  0  0
 14 51  1  0  0  0
 15 16  1  0  0  0
 15 17  1  0  0  0
 15 24  1  0  0  0
 17 23  1  0  0  0
 17 18  1  0  0  0
 17 19  1  0  0  0
 18 52  1  0  0  0
 18 53  1  0  0  0
 19 20  1  0  0  0
 19 54  1  0  0  0
 19 55  1  0  0  0
 20 21  1  0  0  0
 20 56  1  0  0  0
 20 57  1  0  0  0
 21 22  1  0  0  0
 21 58  1  0  0  0
 21 76  1  0  0  0
 22 23  1  0  0  0
 22 59  1  0  0  0
 22 60  1  0  0  0
 23 61  1  0  0  0
 23 62  1  0  0  0
 24 25  2  0  0  0
 24 26  1  0  0  0
 26 27  1  0  0  0
 26 63  1  0  0  0
 27 28  1  0  0  0
 27 64  1  0  0  0
 27 65  1  0  0  0
 28 29  1  0  0  0
 28 30  1  0  0  0
 28 31  1  0  0  0
 30 66  1  0  0  0
 30 67  1  0  0  0
 30 68  1  0  0  0
 31 32  1  0  0  0
 32 37  2  0  0  0
 32 33  1  0  0  0
 33 34  2  0  0  0
 33 69  1  0  0  0
 34 35  1  0  0  0
 34 70  1  0  0  0
 35 36  2  0  0  0
 35 38  1  0  0  0
 36 37  1  0  0  0
 36 71  1  0  0  0
 37 72  1  0  0  0
 38 39  1  0  0  0
 39 73  1  0  0  0
 39 74  1  0  0  0
 39 75  1  0  0  0
M  CHG  1  21   1
M  END
> <i_i_glide_confnum>
231

> <i_i_glide_lignum>
3069

> <i_i_glide_posenum>
56

> <i_i_glide_rotatable_bonds>
11

> <i_m_Source_File_Index>
5271

> <b_m_subgroup_collapsed>
0

> <r_i_docking_score>
-3.19616

> <r_i_glide_ecoul>
-7.00784

> <r_i_glide_eff_state_penalty>
0

> <r_i_glide_einternal>
14.8659

> <r_i_glide_emodel>
-44.0432

> <r_i_glide_energy>
-42.4729

> <r_i_glide_erotb>
0.749646

> <r_i_glide_esite>
-0.145707

> <r_i_glide_evdw>
-35.465

> <r_i_glide_gscore>
-3.19616

> <r_i_glide_hbond>
-0.428902

> <r_i_glide_ligand_efficiency>
-0.0887821

> <r_i_glide_ligand_efficiency_ln>
-0.697315

> <r_i_glide_ligand_efficiency_sa>
-0.293152

> <r_i_glide_lipo>
-0.802669

> <r_i_glide_metal>
0

> <r_i_glide_rewards>
0.255903

> <s_i_glide_gridfile>
wee1_glide-grid

> <s_m_Source_File>
wee1_decoys_glide_SP.sdf

> <s_m_Source_Path>
/Users/zhangxujun/Desktop

> <s_m_entry_id>
5546

> <s_m_entry_name>
wee1_decoys_glide_SP.5271

> <s_m_subgroup_title>
wee1_decoys_glide_SP

> <s_m_subgroupid>
wee1_decoys_glide_SP


$$$$
