ZINC12191054_1069
                    3D
 Schrodinger Suite 2024-2.
 72 76  0  0  1  0            999 V2000
    9.2721   49.7460   13.8258 C   0  0  0  0  0  0
    9.2467   51.2063   13.3469 C   0  0  0  0  0  0
    8.2527   52.0646   14.1174 C   0  0  0  0  0  0
    8.6222   52.6184   15.3447 C   0  0  0  0  0  0
    7.7066   53.3746   16.0703 C   0  0  0  0  0  0
    6.4143   53.5725   15.5771 C   0  0  0  0  0  0
    6.0542   53.0474   14.3338 C   0  0  0  0  0  0
    6.9712   52.2899   13.6074 C   0  0  0  0  0  0
    5.3903   54.3006   16.4354 C   0  0  0  0  0  0
    3.6611   52.4142   16.8241 C   0  0  0  0  0  0
    2.9156   51.8362   18.0410 C   0  0  1  0  0  0
    2.9680   50.7450   18.0616 H   0  0  0  0  0  0
    3.5748   52.4403   19.2869 C   0  0  0  0  0  0
    4.2718   53.7425   18.8270 C   0  0  1  0  0  0
    3.6150   54.6005   18.6680 H   0  0  0  0  0  0
    5.4979   54.1377   19.7120 C   0  0  0  0  0  0
    6.6269   54.0981   19.2151 O   0  0  0  0  0  0
    5.3101   54.6297   20.9686 N   0  0  0  0  0  0
    6.4604   55.1093   21.7619 C   0  0  0  0  0  0
    6.5641   54.3236   23.0924 C   0  0  0  0  0  0
    5.2944   54.0984   23.8060 N   0  0  0  0  0  0
    4.2406   53.6187   22.8936 C   0  0  0  0  0  0
    4.0336   54.5535   21.6940 C   0  0  0  0  0  0
    5.1499   54.1965   25.1929 C   0  0  0  0  0  0
    3.8889   54.4073   25.7717 C   0  0  0  0  0  0
    3.7391   54.4912   27.1537 C   0  0  0  0  0  0
    4.8534   54.3803   27.9777 C   0  0  0  0  0  0
    6.1167   54.1866   27.4294 C   0  0  0  0  0  0
    6.2602   54.0971   26.0464 C   0  0  0  0  0  0
    4.7052   54.4711   29.3179 F   0  0  0  0  0  0
    1.4741   52.1021   18.0486 N   0  0  0  0  0  0
    0.4752   51.3000   18.5359 C   0  0  0  0  0  0
   -0.6866   52.0635   18.4447 C   0  0  0  0  0  0
   -0.3847   53.2362   17.9086 N   0  0  0  0  0  0
    0.9765   53.2876   17.6776 N   0  0  0  0  0  0
   -2.0329   51.7046   18.8795 C   0  0  0  0  0  0
   -2.9777   52.4969   18.8772 O   0  0  0  0  0  0
   -2.0941   50.4186   19.2964 O   0  0  0  0  0  0
   -3.3147   49.8754   19.7812 C   0  0  0  0  0  0
   10.0184   49.1729   13.2740 H   0  0  0  0  0  0
    9.5232   49.6752   14.8851 H   0  0  0  0  0  0
    8.3063   49.2606   13.6801 H   0  0  0  0  0  0
    9.0196   51.2448   12.2800 H   0  0  0  0  0  0
   10.2431   51.6428   13.4415 H   0  0  0  0  0  0
    9.6113   52.4489   15.7460 H   0  0  0  0  0  0
    7.9967   53.7754   17.0311 H   0  0  0  0  0  0
    5.0578   53.1944   13.9424 H   0  0  0  0  0  0
    6.6800   51.8653   12.6575 H   0  0  0  0  0  0
    4.5712   54.7402   15.8636 H   0  0  0  0  0  0
    5.8575   55.0908   17.0244 H   0  0  0  0  0  0
    4.1674   51.6818   16.1978 H   0  0  0  0  0  0
    3.0482   53.0595   16.1932 H   0  0  0  0  0  0
    4.3109   51.7221   19.6562 H   0  0  0  0  0  0
    2.8660   52.5553   20.1049 H   0  0  0  0  0  0
    6.3041   56.1625   21.9903 H   0  0  0  0  0  0
    7.4156   55.0450   21.2376 H   0  0  0  0  0  0
    7.2943   54.8217   23.7289 H   0  0  0  0  0  0
    6.9458   53.3236   22.8832 H   0  0  0  0  0  0
    4.5348   52.6327   22.5265 H   0  0  0  0  0  0
    3.2921   53.4530   23.4011 H   0  0  0  0  0  0
    3.1931   54.2534   21.0795 H   0  0  0  0  0  0
    3.7392   55.5223   22.0817 H   0  0  0  0  0  0
    3.0061   54.5187   25.1618 H   0  0  0  0  0  0
    2.7633   54.6506   27.5875 H   0  0  0  0  0  0
    6.9774   54.1044   28.0778 H   0  0  0  0  0  0
    7.2439   53.9186   25.6469 H   0  0  0  0  0  0
    0.6776   50.3115   18.9222 H   0  0  0  0  0  0
   -3.1849   48.8175   20.0074 H   0  0  0  0  0  0
   -3.6321   50.3818   20.6931 H   0  0  0  0  0  0
   -4.1089   49.9672   19.0394 H   0  0  0  0  0  0
    4.7704   53.2955   17.4302 N   0  3  2  0  0  0
    5.5132   52.6385   17.6468 H   0  0  0  0  0  0
  1  2  1  0  0  0
  1 40  1  0  0  0
  1 41  1  0  0  0
  1 42  1  0  0  0
  2  3  1  0  0  0
  2 43  1  0  0  0
  2 44  1  0  0  0
  3  8  2  0  0  0
  3  4  1  0  0  0
  4  5  2  0  0  0
  4 45  1  0  0  0
  5  6  1  0  0  0
  5 46  1  0  0  0
  6  7  2  0  0  0
  6  9  1  0  0  0
  7  8  1  0  0  0
  7 47  1  0  0  0
  8 48  1  0  0  0
  9 49  1  0  0  0
  9 50  1  0  0  0
  9 71  1  0  0  0
 10 11  1  0  0  0
 10 51  1  0  0  0
 10 52  1  0  0  0
 10 71  1  0  0  0
 11 12  1  0  0  0
 11 13  1  0  0  0
 11 31  1  0  0  0
 13 14  1  0  0  0
 13 53  1  0  0  0
 13 54  1  0  0  0
 14 15  1  0  0  0
 14 16  1  0  0  0
 14 71  1  0  0  0
 16 17  2  0  0  0
 16 18  1  0  0  0
 18 23  1  0  0  0
 18 19  1  0  0  0
 19 20  1  0  0  0
 19 55  1  0  0  0
 19 56  1  0  0  0
 20 21  1  0  0  0
 20 57  1  0  0  0
 20 58  1  0  0  0
 21 22  1  0  0  0
 21 24  1  0  0  0
 22 23  1  0  0  0
 22 59  1  0  0  0
 22 60  1  0  0  0
 23 61  1  0  0  0
 23 62  1  0  0  0
 24 29  2  0  0  0
 24 25  1  0  0  0
 25 26  2  0  0  0
 25 63  1  0  0  0
 26 27  1  0  0  0
 26 64  1  0  0  0
 27 28  2  0  0  0
 27 30  1  0  0  0
 28 29  1  0  0  0
 28 65  1  0  0  0
 29 66  1  0  0  0
 31 35  1  0  0  0
 31 32  1  0  0  0
 32 33  2  0  0  0
 32 67  1  0  0  0
 33 34  1  0  0  0
 33 36  1  0  0  0
 34 35  2  0  0  0
 36 37  2  0  0  0
 36 38  1  0  0  0
 38 39  1  0  0  0
 39 68  1  0  0  0
 39 69  1  0  0  0
 39 70  1  0  0  0
 71 72  1  0  0  0
M  CHG  1  71   1
M  END
> <i_i_glide_confnum>
86

> <i_i_glide_lignum>
1070

> <i_i_glide_posenum>
239

> <i_i_glide_rotatable_bonds>
9

> <i_m_Source_File_Index>
3205

> <b_m_subgroup_collapsed>
0

> <r_i_docking_score>
-6.32427

> <r_i_glide_ecoul>
-7.28548

> <r_i_glide_eff_state_penalty>
0

> <r_i_glide_einternal>
6.13162

> <r_i_glide_emodel>
-63.6918

> <r_i_glide_energy>
-45.206

> <r_i_glide_erotb>
0.528939

> <r_i_glide_esite>
-0.1501

> <r_i_glide_evdw>
-37.9205

> <r_i_glide_gscore>
-6.32427

> <r_i_glide_hbond>
-0.357183

> <r_i_glide_ligand_efficiency>
-0.166428

> <r_i_glide_ligand_efficiency_ln>
-1.3637

> <r_i_glide_ligand_efficiency_sa>
-0.559528

> <r_i_glide_lipo>
-2.50959

> <r_i_glide_metal>
0

> <r_i_glide_rewards>
-0.847493

> <s_i_glide_gridfile>
wee1_glide-grid

> <s_m_Source_File>
wee1_decoys_glide_SP.sdf

> <s_m_Source_Path>
/Users/zhangxujun/Desktop

> <s_m_entry_id>
3480

> <s_m_entry_name>
wee1_decoys_glide_SP.3205

> <s_m_subgroup_title>
wee1_decoys_glide_SP

> <s_m_subgroupid>
wee1_decoys_glide_SP


$$$$
