ZINC20181690_5987
                    3D
 Schrodinger Suite 2024-2.
 59 63  0  0  1  0            999 V2000
    5.1860   54.4565   23.5579 C   0  0  0  0  0  0
    5.3475   54.4741   25.0656 C   0  0  0  0  0  0
    6.6241   54.4768   25.6305 C   0  0  0  0  0  0
    6.7728   54.4753   27.0171 C   0  0  0  0  0  0
    5.6530   54.4864   27.8443 C   0  0  0  0  0  0
    4.3713   54.4981   27.2892 C   0  0  0  0  0  0
    4.2242   54.4961   25.8969 C   0  0  0  0  0  0
    3.1584   54.5996   28.2002 C   0  0  0  0  0  0
    2.7032   52.9912   28.9222 S   0  0  0  0  0  0
    1.6276   52.3379   27.6816 C   0  0  0  0  0  0
    0.9651   51.2130   27.8974 N   0  0  0  0  0  0
    0.3040   51.0420   26.7844 C   0  0  0  0  0  0
    0.5724   52.0643   25.9132 N   0  0  0  0  0  0
    1.4245   52.9033   26.5062 N   0  0  0  0  0  0
    0.0373   52.2257   24.5582 C   0  0  2  0  0  0
   -0.2410   53.2786   24.4664 H   0  0  0  0  0  0
   -1.2205   51.3252   24.4449 C   0  0  0  0  0  0
   -1.4869   50.3406   25.3599 C   0  0  0  0  0  0
   -0.6950   50.1392   26.4817 N   0  0  0  0  0  0
   -2.6540   49.3574   25.3423 C   0  0  0  0  0  0
   -1.9953   51.5689   23.2410 C   0  0  0  0  0  0
   -2.2725   52.7148   22.8822 O   0  0  0  0  0  0
   -2.2797   50.4683   22.5139 N   0  0  0  0  0  0
   -2.8871   50.4448   21.2514 C   0  0  0  0  0  0
   -2.4964   51.3174   20.2266 C   0  0  0  0  0  0
   -3.1159   51.2463   18.9819 C   0  0  0  0  0  0
   -4.1134   50.2985   18.7626 C   0  0  0  0  0  0
   -4.4898   49.4142   19.7723 C   0  0  0  0  0  0
   -3.8693   49.4812   21.0174 C   0  0  0  0  0  0
    1.1033   51.9780   23.4739 C   0  0  0  0  0  0
    1.6621   53.0656   22.7890 C   0  0  0  0  0  0
    2.5830   52.8597   21.7614 C   0  0  0  0  0  0
    2.9582   51.5663   21.4036 C   0  0  0  0  0  0
    2.4175   50.4770   22.0840 C   0  0  0  0  0  0
    1.5032   50.6779   23.1184 C   0  0  0  0  0  0
    0.9961   49.5983   23.7541 F   0  0  0  0  0  0
    5.9734   55.0385   23.0778 H   0  0  0  0  0  0
    5.2377   53.4341   23.1825 H   0  0  0  0  0  0
    4.2349   54.8962   23.2556 H   0  0  0  0  0  0
    7.4960   54.4674   24.9921 H   0  0  0  0  0  0
    7.7569   54.4711   27.4608 H   0  0  0  0  0  0
    5.7871   54.5033   28.9167 H   0  0  0  0  0  0
    3.2389   54.5182   25.4558 H   0  0  0  0  0  0
    2.3134   55.0529   27.6815 H   0  0  0  0  0  0
    3.3725   55.2891   29.0172 H   0  0  0  0  0  0
   -0.9992   49.4636   27.1896 H   0  0  0  0  0  0
   -3.4521   49.6421   24.6588 H   0  0  0  0  0  0
   -2.3015   48.3611   25.0739 H   0  0  0  0  0  0
   -3.1123   49.2899   26.3314 H   0  0  0  0  0  0
   -2.1220   49.5769   22.9575 H   0  0  0  0  0  0
   -1.7102   52.0405   20.3894 H   0  0  0  0  0  0
   -2.8182   51.9145   18.1874 H   0  0  0  0  0  0
   -4.5933   50.2415   17.7964 H   0  0  0  0  0  0
   -5.2583   48.6776   19.5891 H   0  0  0  0  0  0
   -4.1647   48.7941   21.7973 H   0  0  0  0  0  0
    1.3748   54.0777   23.0359 H   0  0  0  0  0  0
    2.9950   53.7055   21.2299 H   0  0  0  0  0  0
    3.6626   51.4076   20.5989 H   0  0  0  0  0  0
    2.7059   49.4719   21.8136 H   0  0  0  0  0  0
  1  2  1  0  0  0
  1 37  1  0  0  0
  1 38  1  0  0  0
  1 39  1  0  0  0
  2  7  2  0  0  0
  2  3  1  0  0  0
  3  4  2  0  0  0
  3 40  1  0  0  0
  4  5  1  0  0  0
  4 41  1  0  0  0
  5  6  2  0  0  0
  5 42  1  0  0  0
  6  7  1  0  0  0
  6  8  1  0  0  0
  7 43  1  0  0  0
  8  9  1  0  0  0
  8 44  1  0  0  0
  8 45  1  0  0  0
  9 10  1  0  0  0
 10 14  2  0  0  0
 10 11  1  0  0  0
 11 12  2  0  0  0
 12 19  1  0  0  0
 12 13  1  0  0  0
 13 14  1  0  0  0
 13 15  1  0  0  0
 15 16  1  0  0  0
 15 17  1  0  0  0
 15 30  1  0  0  0
 17 18  2  0  0  0
 17 21  1  0  0  0
 18 19  1  0  0  0
 18 20  1  0  0  0
 19 46  1  0  0  0
 20 47  1  0  0  0
 20 48  1  0  0  0
 20 49  1  0  0  0
 21 22  2  0  0  0
 21 23  1  0  0  0
 23 24  1  0  0  0
 23 50  1  0  0  0
 24 29  2  0  0  0
 24 25  1  0  0  0
 25 26  2  0  0  0
 25 51  1  0  0  0
 26 27  1  0  0  0
 26 52  1  0  0  0
 27 28  2  0  0  0
 27 53  1  0  0  0
 28 29  1  0  0  0
 28 54  1  0  0  0
 29 55  1  0  0  0
 30 35  2  0  0  0
 30 31  1  0  0  0
 31 32  2  0  0  0
 31 56  1  0  0  0
 32 33  1  0  0  0
 32 57  1  0  0  0
 33 34  2  0  0  0
 33 58  1  0  0  0
 34 35  1  0  0  0
 34 59  1  0  0  0
 35 36  1  0  0  0
M  END
> <i_i_glide_confnum>
41

> <i_i_glide_lignum>
5988

> <i_i_glide_posenum>
350

> <i_i_glide_rotatable_bonds>
7

> <i_m_Source_File_Index>
3909

> <b_m_subgroup_collapsed>
0

> <r_i_docking_score>
-6.21326

> <r_i_glide_ecoul>
-6.68912

> <r_i_glide_eff_state_penalty>
0

> <r_i_glide_einternal>
6.72656

> <r_i_glide_emodel>
-68.4323

> <r_i_glide_energy>
-51.5753

> <r_i_glide_erotb>
0.603146

> <r_i_glide_esite>
-0.142768

> <r_i_glide_evdw>
-44.8861

> <r_i_glide_gscore>
-6.21326

> <r_i_glide_hbond>
-0.16

> <r_i_glide_ligand_efficiency>
-0.177522

> <r_i_glide_ligand_efficiency_ln>
-1.36395

> <r_i_glide_ligand_efficiency_sa>
-0.580685

> <r_i_glide_lipo>
-2.9612

> <r_i_glide_metal>
0

> <r_i_glide_rewards>
-0.304762

> <s_i_glide_gridfile>
wee1_glide-grid

> <s_m_Source_File>
wee1_decoys_glide_SP.sdf

> <s_m_Source_Path>
/Users/zhangxujun/Desktop

> <s_m_entry_id>
4184

> <s_m_entry_name>
wee1_decoys_glide_SP.3909

> <s_m_subgroup_title>
wee1_decoys_glide_SP

> <s_m_subgroupid>
wee1_decoys_glide_SP


$$$$
