ZINC23357841_4577
                    3D
 Schrodinger Suite 2024-2.
 47 49  0  0  1  0            999 V2000
   -0.2906   45.3621   16.9560 C   0  0  0  0  0  0
    0.2597   46.3911   17.9244 C   0  0  0  0  0  0
   -0.4582   46.7251   19.0744 C   0  0  0  0  0  0
    0.0437   47.6833   19.9521 C   0  0  0  0  0  0
    1.2635   48.3128   19.6852 C   0  0  0  0  0  0
    1.9717   47.9772   18.5312 C   0  0  0  0  0  0
    1.4737   47.0250   17.6482 C   0  0  0  0  0  0
    1.8046   49.3234   20.6462 C   0  0  0  0  0  0
    1.7064   49.2041   21.9462 N   0  0  0  0  0  0
    2.3047   50.3113   22.5207 N   0  0  0  0  0  0
    2.6996   51.0939   21.5493 C   0  0  0  0  0  0
    2.4432   50.5039   20.3270 N   0  0  0  0  0  0
    2.7043   51.0200   19.0680 N   0  0  0  0  0  0
    3.2858   52.7437   21.7844 S   0  0  0  0  0  0
    1.9920   53.4483   22.8972 C   0  0  1  0  0  0
    1.9416   54.4960   22.5962 H   0  0  0  0  0  0
    0.5531   52.8969   22.7120 C   0  0  0  0  0  0
    2.4258   53.4506   24.3813 C   0  0  0  0  0  0
    1.7451   52.8658   25.2247 O   0  0  0  0  0  0
    3.5781   54.0965   24.6681 N   0  0  0  0  0  0
    4.2289   54.2210   25.9143 C   0  0  0  0  0  0
    3.5394   54.1749   27.1415 C   0  0  0  0  0  0
    4.2267   54.2723   28.3483 C   0  0  0  0  0  0
    5.6087   54.4236   28.3469 C   0  0  0  0  0  0
    6.3048   54.4924   27.1425 C   0  0  0  0  0  0
    5.6270   54.4009   25.9213 C   0  0  0  0  0  0
    6.4330   54.4660   24.6305 C   0  0  0  0  0  0
    3.5560   54.2270   29.5218 F   0  0  0  0  0  0
   -1.3794   45.3248   16.9957 H   0  0  0  0  0  0
   -0.0263   45.6165   15.9294 H   0  0  0  0  0  0
    0.1072   44.3722   17.1808 H   0  0  0  0  0  0
   -1.4012   46.2484   19.2909 H   0  0  0  0  0  0
   -0.5140   47.9380   20.8410 H   0  0  0  0  0  0
    2.9230   48.4438   18.3224 H   0  0  0  0  0  0
    2.0379   46.7848   16.7590 H   0  0  0  0  0  0
    2.3578   51.9626   18.9581 H   0  0  0  0  0  0
    3.6794   50.9001   18.7906 H   0  0  0  0  0  0
   -0.1647   53.4862   23.2849 H   0  0  0  0  0  0
    0.2617   52.8967   21.6611 H   0  0  0  0  0  0
    0.4347   51.8810   23.0798 H   0  0  0  0  0  0
    4.1196   54.4045   23.8737 H   0  0  0  0  0  0
    2.4661   54.0685   27.1818 H   0  0  0  0  0  0
    6.1451   54.4973   29.2812 H   0  0  0  0  0  0
    7.3786   54.6104   27.1704 H   0  0  0  0  0  0
    6.1500   55.3425   24.0493 H   0  0  0  0  0  0
    7.5090   54.5056   24.8139 H   0  0  0  0  0  0
    6.2375   53.5846   24.0149 H   0  0  0  0  0  0
  1  2  1  0  0  0
  1 29  1  0  0  0
  1 30  1  0  0  0
  1 31  1  0  0  0
  2  7  2  0  0  0
  2  3  1  0  0  0
  3  4  2  0  0  0
  3 32  1  0  0  0
  4  5  1  0  0  0
  4 33  1  0  0  0
  5  6  2  0  0  0
  5  8  1  0  0  0
  6  7  1  0  0  0
  6 34  1  0  0  0
  7 35  1  0  0  0
  8 12  1  0  0  0
  8  9  2  0  0  0
  9 10  1  0  0  0
 10 11  2  0  0  0
 11 12  1  0  0  0
 11 14  1  0  0  0
 12 13  1  0  0  0
 13 36  1  0  0  0
 13 37  1  0  0  0
 14 15  1  0  0  0
 15 16  1  0  0  0
 15 17  1  0  0  0
 15 18  1  0  0  0
 17 38  1  0  0  0
 17 39  1  0  0  0
 17 40  1  0  0  0
 18 19  2  0  0  0
 18 20  1  0  0  0
 20 21  1  0  0  0
 20 41  1  0  0  0
 21 26  2  0  0  0
 21 22  1  0  0  0
 22 23  2  0  0  0
 22 42  1  0  0  0
 23 24  1  0  0  0
 23 28  1  0  0  0
 24 25  2  0  0  0
 24 43  1  0  0  0
 25 26  1  0  0  0
 25 44  1  0  0  0
 26 27  1  0  0  0
 27 45  1  0  0  0
 27 46  1  0  0  0
 27 47  1  0  0  0
M  END
> <i_i_glide_confnum>
51

> <i_i_glide_lignum>
4578

> <i_i_glide_posenum>
188

> <i_i_glide_rotatable_bonds>
6

> <i_m_Source_File_Index>
1657

> <b_m_subgroup_collapsed>
0

> <r_i_docking_score>
-5.61361

> <r_i_glide_ecoul>
-4.23784

> <r_i_glide_eff_state_penalty>
0

> <r_i_glide_einternal>
3.70912

> <r_i_glide_emodel>
-57.1667

> <r_i_glide_energy>
-43.0161

> <r_i_glide_erotb>
0.785572

> <r_i_glide_esite>
-0.117528

> <r_i_glide_evdw>
-38.7783

> <r_i_glide_gscore>
-5.61361

> <r_i_glide_hbond>
-0.16

> <r_i_glide_ligand_efficiency>
-0.207911

> <r_i_glide_ligand_efficiency_ln>
-1.30675

> <r_i_glide_ligand_efficiency_sa>
-0.623734

> <r_i_glide_lipo>
-2.18162

> <r_i_glide_metal>
0

> <r_i_glide_rewards>
-1.36544

> <s_i_glide_gridfile>
wee1_glide-grid

> <s_m_Source_File>
wee1_decoys_glide_SP.sdf

> <s_m_Source_Path>
/Users/zhangxujun/Desktop

> <s_m_entry_id>
1932

> <s_m_entry_name>
wee1_decoys_glide_SP.1657

> <s_m_subgroup_title>
wee1_decoys_glide_SP

> <s_m_subgroupid>
wee1_decoys_glide_SP


$$$$
