ZINC12850555_1062
                    3D
 Schrodinger Suite 2024-2.
 61 64  0  0  1  0            999 V2000
   -0.1528   44.3944   12.9349 C   0  0  0  0  0  0
    1.0390   45.2832   12.5425 C   0  0  0  0  0  0
    0.9567   46.6829   13.1524 C   0  0  0  0  0  0
    0.5002   47.7588   12.3733 C   0  0  0  0  0  0
    0.4975   49.2321   13.2640 S   0  0  0  0  0  0
    1.0823   48.4394   14.6902 C   0  0  0  0  0  0
    1.3026   47.0565   14.5016 C   0  0  0  0  0  0
    1.8114   46.1734   15.5875 C   0  0  0  0  0  0
    2.0024   46.5545   16.7457 O   0  0  0  0  0  0
    2.0391   44.9102   15.1795 O   0  0  0  0  0  0
    2.5319   43.9276   16.0811 C   0  0  0  0  0  0
    1.3154   49.1449   15.8717 N   0  0  0  0  0  0
    1.1415   50.4552   16.1608 C   0  0  0  0  0  0
    0.7129   51.3163   15.3869 O   0  0  0  0  0  0
    1.5235   50.8078   17.5141 C   0  0  0  0  0  0
    1.9159   52.0914   17.9310 C   0  0  0  0  0  0
    2.1942   52.0002   19.2807 C   0  0  0  0  0  0
    1.9285   50.6851   19.6125 N   0  0  0  0  0  0
    1.5043   49.9856   18.5497 N   0  0  0  0  0  0
    1.9365   50.1072   20.9562 C   0  0  1  0  0  0
    2.3734   49.1092   20.8798 H   0  0  0  0  0  0
    2.8599   51.0001   21.8210 C   0  0  0  0  0  0
    2.6597   52.5268   21.6228 C   0  0  2  0  0  0
    1.6654   52.8087   21.9706 H   0  0  0  0  0  0
    2.7044   52.8960   20.2018 N   0  0  0  0  0  0
    3.6349   53.2991   22.5132 C   0  0  0  0  0  0
    4.9536   53.5365   22.1055 C   0  0  0  0  0  0
    5.8673   54.1097   22.9895 C   0  0  0  0  0  0
    5.4842   54.4460   24.2876 C   0  0  0  0  0  0
    4.1470   54.2622   24.6744 C   0  0  0  0  0  0
    3.2305   53.6974   23.7909 C   0  0  0  0  0  0
    6.4719   54.9322   25.1232 O   0  0  0  0  0  0
    6.2126   54.9866   26.5220 C   0  0  0  0  0  0
    0.5140   49.9266   21.5519 C   0  0  0  0  0  0
   -0.2246   49.0896   20.8226 F   0  0  0  0  0  0
    0.5742   49.4162   22.7818 F   0  0  0  0  0  0
   -0.1485   51.0805   21.6368 F   0  0  0  0  0  0
    0.0439   47.7791   10.9290 C   0  0  0  0  0  0
   -0.0687   43.4055   12.4789 H   0  0  0  0  0  0
   -0.2185   44.2556   14.0145 H   0  0  0  0  0  0
   -1.0958   44.8328   12.6063 H   0  0  0  0  0  0
    1.0728   45.3371   11.4536 H   0  0  0  0  0  0
    1.9806   44.7899   12.7754 H   0  0  0  0  0  0
    2.6400   42.9730   15.5641 H   0  0  0  0  0  0
    1.8463   43.7842   16.9143 H   0  0  0  0  0  0
    3.5042   44.2107   16.4795 H   0  0  0  0  0  0
    1.7293   48.5882   16.6107 H   0  0  0  0  0  0
    2.0216   52.9678   17.3097 H   0  0  0  0  0  0
    2.7053   50.7505   22.8714 H   0  0  0  0  0  0
    3.9000   50.7335   21.6247 H   0  0  0  0  0  0
    2.4438   53.8736   20.0863 H   0  0  0  0  0  0
    5.2771   53.2357   21.1204 H   0  0  0  0  0  0
    6.8926   54.2559   22.6815 H   0  0  0  0  0  0
    3.8067   54.5249   25.6633 H   0  0  0  0  0  0
    2.2148   53.5242   24.1204 H   0  0  0  0  0  0
    7.1060   55.3139   27.0542 H   0  0  0  0  0  0
    5.4164   55.6962   26.7502 H   0  0  0  0  0  0
    5.9379   54.0056   26.9193 H   0  0  0  0  0  0
   -0.5150   46.8809   10.6591 H   0  0  0  0  0  0
   -0.6120   48.6237   10.7125 H   0  0  0  0  0  0
    0.8909   47.8508   10.2425 H   0  0  0  0  0  0
  1  2  1  0  0  0
  1 39  1  0  0  0
  1 40  1  0  0  0
  1 41  1  0  0  0
  2  3  1  0  0  0
  2 42  1  0  0  0
  2 43  1  0  0  0
  3  7  1  0  0  0
  3  4  2  0  0  0
  4  5  1  0  0  0
  4 38  1  0  0  0
  5  6  1  0  0  0
  6  7  2  0  0  0
  6 12  1  0  0  0
  7  8  1  0  0  0
  8  9  2  0  0  0
  8 10  1  0  0  0
 10 11  1  0  0  0
 11 44  1  0  0  0
 11 45  1  0  0  0
 11 46  1  0  0  0
 12 13  1  0  0  0
 12 47  1  0  0  0
 13 14  2  0  0  0
 13 15  1  0  0  0
 15 19  2  0  0  0
 15 16  1  0  0  0
 16 17  2  0  0  0
 16 48  1  0  0  0
 17 25  1  0  0  0
 17 18  1  0  0  0
 18 19  1  0  0  0
 18 20  1  0  0  0
 20 21  1  0  0  0
 20 22  1  0  0  0
 20 34  1  0  0  0
 22 23  1  0  0  0
 22 49  1  0  0  0
 22 50  1  0  0  0
 23 24  1  0  0  0
 23 25  1  0  0  0
 23 26  1  0  0  0
 25 51  1  0  0  0
 26 31  2  0  0  0
 26 27  1  0  0  0
 27 28  2  0  0  0
 27 52  1  0  0  0
 28 29  1  0  0  0
 28 53  1  0  0  0
 29 30  2  0  0  0
 29 32  1  0  0  0
 30 31  1  0  0  0
 30 54  1  0  0  0
 31 55  1  0  0  0
 32 33  1  0  0  0
 33 56  1  0  0  0
 33 57  1  0  0  0
 33 58  1  0  0  0
 34 35  1  0  0  0
 34 36  1  0  0  0
 34 37  1  0  0  0
 38 59  1  0  0  0
 38 60  1  0  0  0
 38 61  1  0  0  0
M  END
> <i_i_glide_confnum>
10

> <i_i_glide_lignum>
1063

> <i_i_glide_posenum>
115

> <i_i_glide_rotatable_bonds>
9

> <i_m_Source_File_Index>
1182

> <b_m_subgroup_collapsed>
0

> <r_i_docking_score>
-4.26401

> <r_i_glide_ecoul>
-3.25993

> <r_i_glide_eff_state_penalty>
0

> <r_i_glide_einternal>
1.72038

> <r_i_glide_emodel>
-44.5693

> <r_i_glide_energy>
-34.1535

> <r_i_glide_erotb>
0.376572

> <r_i_glide_esite>
-0.233671

> <r_i_glide_evdw>
-30.8936

> <r_i_glide_gscore>
-4.26401

> <r_i_glide_hbond>
-0.32

> <r_i_glide_ligand_efficiency>
-0.118445

> <r_i_glide_ligand_efficiency_ln>
-0.930291

> <r_i_glide_ligand_efficiency_sa>
-0.391095

> <r_i_glide_lipo>
-1.99853

> <r_i_glide_metal>
0

> <r_i_glide_rewards>
-0.0547081

> <s_i_glide_gridfile>
wee1_glide-grid

> <s_m_Source_File>
wee1_decoys_glide_SP.sdf

> <s_m_Source_Path>
/Users/zhangxujun/Desktop

> <s_m_entry_id>
1457

> <s_m_entry_name>
wee1_decoys_glide_SP.1182

> <s_m_subgroup_title>
wee1_decoys_glide_SP

> <s_m_subgroupid>
wee1_decoys_glide_SP


$$$$
