ZINC09925431_6089
                    3D
 Schrodinger Suite 2024-2.
 55 58  0  0  1  0            999 V2000
    0.1691   48.1301   20.0817 C   0  0  0  0  0  0
    1.3440   47.8875   19.3765 C   0  0  0  0  0  0
    2.3042   48.8890   19.2766 C   0  0  0  0  0  0
    2.1018   50.1311   19.8812 C   0  0  0  0  0  0
    0.9125   50.3677   20.5869 C   0  0  0  0  0  0
   -0.0498   49.3649   20.6902 C   0  0  0  0  0  0
    3.1043   51.1023   19.6818 N   0  0  0  0  0  0
    3.3071   52.2506   20.3692 C   0  0  0  0  0  0
    2.7599   52.5110   21.4437 O   0  0  0  0  0  0
    4.3006   53.2305   19.7580 C   0  0  0  0  0  0
    4.4243   53.2973   18.3595 C   0  0  0  0  0  0
    5.3001   54.1886   17.7473 C   0  0  0  0  0  0
    6.0709   55.0441   18.5213 C   0  0  0  0  0  0
    5.9717   55.0029   19.9082 C   0  0  0  0  0  0
    5.1045   54.0977   20.5458 C   0  0  0  0  0  0
    4.9950   54.0546   21.9540 N   0  0  0  0  0  0
    5.8386   54.4964   22.9108 C   0  0  0  0  0  0
    6.9518   54.9729   22.6936 O   0  0  0  0  0  0
    5.3455   54.3375   24.3305 C   0  0  0  0  0  0
    3.9749   54.3421   24.6413 C   0  0  0  0  0  0
    3.5439   54.1877   25.9593 C   0  0  0  0  0  0
    4.4735   54.0136   26.9906 C   0  0  0  0  0  0
    5.8345   54.0003   26.6868 C   0  0  0  0  0  0
    6.2673   54.1802   25.3739 C   0  0  0  0  0  0
    7.1044   53.6984   28.0707 Br  0  0  0  0  0  0
    4.1036   53.8391   28.3047 O   0  0  0  0  0  0
    3.0861   54.6810   28.8376 C   0  0  0  0  0  0
    1.9069   53.8312   29.3352 C   0  0  1  0  0  0
    1.3394   53.4786   28.4713 H   0  0  0  0  0  0
    2.2779   52.6691   30.2593 C   0  0  0  0  0  0
    1.1036   52.5531   31.2104 C   0  0  0  0  0  0
    0.3044   53.8348   31.0001 C   0  0  0  0  0  0
    1.1084   54.6629   30.1686 O   0  0  0  0  0  0
   -0.5814   47.3584   20.1582 H   0  0  0  0  0  0
    1.5074   46.9314   18.9038 H   0  0  0  0  0  0
    3.2054   48.6903   18.7168 H   0  0  0  0  0  0
    0.7043   51.3222   21.0446 H   0  0  0  0  0  0
   -0.9670   49.5499   21.2304 H   0  0  0  0  0  0
    3.7536   50.9012   18.9243 H   0  0  0  0  0  0
    3.8376   52.6537   17.7176 H   0  0  0  0  0  0
    5.3766   54.2153   16.6696 H   0  0  0  0  0  0
    6.7464   55.7423   18.0473 H   0  0  0  0  0  0
    6.5751   55.7003   20.4660 H   0  0  0  0  0  0
    4.1623   53.5735   22.2705 H   0  0  0  0  0  0
    3.2268   54.4692   23.8716 H   0  0  0  0  0  0
    2.4851   54.1752   26.1719 H   0  0  0  0  0  0
    7.3269   54.1641   25.1649 H   0  0  0  0  0  0
    3.5422   55.2011   29.6812 H   0  0  0  0  0  0
    2.7400   55.4598   28.1557 H   0  0  0  0  0  0
    2.5049   51.7605   29.6990 H   0  0  0  0  0  0
    3.1881   52.8997   30.8151 H   0  0  0  0  0  0
    0.4737   51.6967   30.9707 H   0  0  0  0  0  0
    1.4299   52.4471   32.2459 H   0  0  0  0  0  0
   -0.6326   53.6338   30.4831 H   0  0  0  0  0  0
    0.0609   54.3410   31.9362 H   0  0  0  0  0  0
  1  6  2  0  0  0
  1  2  1  0  0  0
  1 34  1  0  0  0
  2  3  2  0  0  0
  2 35  1  0  0  0
  3  4  1  0  0  0
  3 36  1  0  0  0
  4  5  2  0  0  0
  4  7  1  0  0  0
  5  6  1  0  0  0
  5 37  1  0  0  0
  6 38  1  0  0  0
  7  8  1  0  0  0
  7 39  1  0  0  0
  8  9  2  0  0  0
  8 10  1  0  0  0
 10 15  2  0  0  0
 10 11  1  0  0  0
 11 12  2  0  0  0
 11 40  1  0  0  0
 12 13  1  0  0  0
 12 41  1  0  0  0
 13 14  2  0  0  0
 13 42  1  0  0  0
 14 15  1  0  0  0
 14 43  1  0  0  0
 15 16  1  0  0  0
 16 17  1  0  0  0
 16 44  1  0  0  0
 17 18  2  0  0  0
 17 19  1  0  0  0
 19 24  2  0  0  0
 19 20  1  0  0  0
 20 21  2  0  0  0
 20 45  1  0  0  0
 21 22  1  0  0  0
 21 46  1  0  0  0
 22 23  2  0  0  0
 22 26  1  0  0  0
 23 24  1  0  0  0
 23 25  1  0  0  0
 24 47  1  0  0  0
 26 27  1  0  0  0
 27 28  1  0  0  0
 27 48  1  0  0  0
 27 49  1  0  0  0
 28 29  1  0  0  0
 28 33  1  0  0  0
 28 30  1  0  0  0
 30 31  1  0  0  0
 30 50  1  0  0  0
 30 51  1  0  0  0
 31 32  1  0  0  0
 31 52  1  0  0  0
 31 53  1  0  0  0
 32 33  1  0  0  0
 32 54  1  0  0  0
 32 55  1  0  0  0
M  END
> <i_i_glide_confnum>
287

> <i_i_glide_lignum>
6090

> <i_i_glide_posenum>
358

> <i_i_glide_rotatable_bonds>
9

> <i_m_Source_File_Index>
5625

> <b_m_subgroup_collapsed>
0

> <r_i_docking_score>
-5.45807

> <r_i_glide_ecoul>
-2.5081

> <r_i_glide_eff_state_penalty>
0

> <r_i_glide_einternal>
13.2682

> <r_i_glide_emodel>
-65.9092

> <r_i_glide_energy>
-53.8171

> <r_i_glide_erotb>
0.747652

> <r_i_glide_esite>
-0.106166

> <r_i_glide_evdw>
-51.309

> <r_i_glide_gscore>
-5.45807

> <r_i_glide_hbond>
-0.16

> <r_i_glide_ligand_efficiency>
-0.170565

> <r_i_glide_ligand_efficiency_ln>
-1.22221

> <r_i_glide_ligand_efficiency_sa>
-0.541509

> <r_i_glide_lipo>
-2.5753

> <r_i_glide_metal>
0

> <r_i_glide_rewards>
-0.422593

> <s_i_glide_gridfile>
wee1_glide-grid

> <s_m_Source_File>
wee1_decoys_glide_SP.sdf

> <s_m_Source_Path>
/Users/zhangxujun/Desktop

> <s_m_entry_id>
5900

> <s_m_entry_name>
wee1_decoys_glide_SP.5625

> <s_m_subgroup_title>
wee1_decoys_glide_SP

> <s_m_subgroupid>
wee1_decoys_glide_SP


$$$$
