ZINC39690759_1247
                    3D
 Schrodinger Suite 2024-2.
 69 72  0  0  1  0            999 V2000
    2.2189   55.1249   28.4803 C   0  0  0  0  0  0
    3.3293   54.1909   27.9534 C   0  0  0  0  0  0
    3.9257   53.3479   29.1012 C   0  0  0  0  0  0
    2.9536   53.3192   26.7012 C   0  0  1  0  0  0
    3.7049   52.5388   26.6013 H   0  0  0  0  0  0
    1.6228   52.4977   26.7825 C   0  0  0  0  0  0
    1.1595   52.2514   27.8977 O   0  0  0  0  0  0
    1.0163   52.0053   25.6632 N   0  0  0  0  0  0
   -0.1615   51.1391   25.7572 C   0  0  0  0  0  0
   -0.7447   51.1794   24.3363 C   0  0  1  0  0  0
   -1.3613   52.0724   24.2800 H   0  0  0  0  0  0
    0.4889   51.3262   23.3932 C   0  0  0  0  0  0
    1.4209   52.2134   24.2632 C   0  0  0  0  0  0
    0.0790   51.9522   22.0348 C   0  0  0  0  0  0
    1.2864   52.2549   21.1268 C   0  0  0  0  0  0
    1.9865   50.9153   20.8104 N   0  3  0  0  0  0
    2.4114   50.1397   22.0770 C   0  0  0  0  0  0
    1.1906   49.9748   23.0226 C   0  0  0  0  0  0
   -1.6244   49.9130   24.1403 C   0  0  0  0  0  0
   -1.2191   48.8059   24.4870 O   0  0  0  0  0  0
   -2.8688   50.0165   23.6462 N   0  0  0  0  0  0
   -3.5994   51.2120   23.2253 C   0  0  0  0  0  0
   -4.2711   51.9819   24.3614 C   0  0  0  0  0  0
   -3.8616   53.2921   24.6428 C   0  0  0  0  0  0
   -4.4954   54.0363   25.6381 C   0  0  0  0  0  0
   -5.5522   53.4806   26.3561 C   0  0  0  0  0  0
   -5.9698   52.1794   26.0822 C   0  0  0  0  0  0
   -5.3403   51.4301   25.0865 C   0  0  0  0  0  0
   -5.9862   49.6689   24.7364 Br  0  0  0  0  0  0
    2.9584   54.1293   25.5172 O   0  0  0  0  0  0
    4.0987   54.2060   24.7359 C   0  0  0  0  0  0
    5.4071   54.0997   25.2343 C   0  0  0  0  0  0
    6.4980   54.2127   24.3738 C   0  0  0  0  0  0
    6.2866   54.4096   23.0126 C   0  0  0  0  0  0
    4.9935   54.4958   22.5023 C   0  0  0  0  0  0
    3.9058   54.4143   23.3689 C   0  0  0  0  0  0
    1.3847   54.5809   28.9235 H   0  0  0  0  0  0
    2.6052   55.8012   29.2434 H   0  0  0  0  0  0
    1.8202   55.7424   27.6823 H   0  0  0  0  0  0
    4.1273   54.8633   27.6397 H   0  0  0  0  0  0
    3.1852   52.6752   29.5358 H   0  0  0  0  0  0
    4.7623   52.7368   28.7555 H   0  0  0  0  0  0
    4.3054   53.9838   29.9029 H   0  0  0  0  0  0
    0.2155   50.1436   26.0041 H   0  0  0  0  0  0
   -0.8919   51.4554   26.5057 H   0  0  0  0  0  0
    1.1747   53.2519   24.0356 H   0  0  0  0  0  0
    2.4766   52.0546   24.0496 H   0  0  0  0  0  0
   -0.6546   51.3277   21.5196 H   0  0  0  0  0  0
   -0.4297   52.8955   22.2259 H   0  0  0  0  0  0
    0.9910   52.6881   20.1680 H   0  0  0  0  0  0
    2.0314   52.9040   21.5889 H   0  0  0  0  0  0
    1.3594   50.3367   20.2667 H   0  0  0  0  0  0
    2.7960   49.1766   21.7355 H   0  0  0  0  0  0
    3.2396   50.7170   22.4812 H   0  0  0  0  0  0
    1.5114   49.4640   23.9336 H   0  0  0  0  0  0
    0.4901   49.2839   22.5518 H   0  0  0  0  0  0
   -3.3948   49.1553   23.6281 H   0  0  0  0  0  0
   -2.9586   51.8697   22.6355 H   0  0  0  0  0  0
   -4.3844   50.8922   22.5384 H   0  0  0  0  0  0
   -3.0547   53.7454   24.0870 H   0  0  0  0  0  0
   -4.1646   55.0423   25.8522 H   0  0  0  0  0  0
   -6.0476   54.0552   27.1248 H   0  0  0  0  0  0
   -6.7891   51.7493   26.6387 H   0  0  0  0  0  0
    5.5950   53.9362   26.2830 H   0  0  0  0  0  0
    7.5063   54.1456   24.7558 H   0  0  0  0  0  0
    7.1335   54.5043   22.3482 H   0  0  0  0  0  0
    4.8334   54.6574   21.4461 H   0  0  0  0  0  0
    2.9046   54.5216   22.9809 H   0  0  0  0  0  0
    2.7933   51.0798   20.2200 H   0  0  0  0  0  0
  1  2  1  0  0  0
  1 37  1  0  0  0
  1 38  1  0  0  0
  1 39  1  0  0  0
  2  3  1  0  0  0
  2  4  1  0  0  0
  2 40  1  0  0  0
  3 41  1  0  0  0
  3 42  1  0  0  0
  3 43  1  0  0  0
  4  5  1  0  0  0
  4  6  1  0  0  0
  4 30  1  0  0  0
  6  7  2  0  0  0
  6  8  1  0  0  0
  8 13  1  0  0  0
  8  9  1  0  0  0
  9 10  1  0  0  0
  9 44  1  0  0  0
  9 45  1  0  0  0
 10 11  1  0  0  0
 10 12  1  0  0  0
 10 19  1  0  0  0
 12 18  1  0  0  0
 12 13  1  0  0  0
 12 14  1  0  0  0
 13 46  1  0  0  0
 13 47  1  0  0  0
 14 15  1  0  0  0
 14 48  1  0  0  0
 14 49  1  0  0  0
 15 16  1  0  0  0
 15 50  1  0  0  0
 15 51  1  0  0  0
 16 17  1  0  0  0
 16 52  1  0  0  0
 16 69  1  0  0  0
 17 18  1  0  0  0
 17 53  1  0  0  0
 17 54  1  0  0  0
 18 55  1  0  0  0
 18 56  1  0  0  0
 19 20  2  0  0  0
 19 21  1  0  0  0
 21 22  1  0  0  0
 21 57  1  0  0  0
 22 23  1  0  0  0
 22 58  1  0  0  0
 22 59  1  0  0  0
 23 28  2  0  0  0
 23 24  1  0  0  0
 24 25  2  0  0  0
 24 60  1  0  0  0
 25 26  1  0  0  0
 25 61  1  0  0  0
 26 27  2  0  0  0
 26 62  1  0  0  0
 27 28  1  0  0  0
 27 63  1  0  0  0
 28 29  1  0  0  0
 30 31  1  0  0  0
 31 36  2  0  0  0
 31 32  1  0  0  0
 32 33  2  0  0  0
 32 64  1  0  0  0
 33 34  1  0  0  0
 33 65  1  0  0  0
 34 35  2  0  0  0
 34 66  1  0  0  0
 35 36  1  0  0  0
 35 67  1  0  0  0
 36 68  1  0  0  0
M  CHG  1  16   1
M  END
> <i_i_glide_confnum>
297

> <i_i_glide_lignum>
1248

> <i_i_glide_posenum>
101

> <i_i_glide_rotatable_bonds>
9

> <i_m_Source_File_Index>
5660

> <b_m_subgroup_collapsed>
0

> <r_i_docking_score>
-3.17684

> <r_i_glide_ecoul>
1.2357

> <r_i_glide_eff_state_penalty>
0

> <r_i_glide_einternal>
24.4917

> <r_i_glide_emodel>
-24.2661

> <r_i_glide_energy>
-33.8492

> <r_i_glide_erotb>
0.441034

> <r_i_glide_esite>
-0.0110275

> <r_i_glide_evdw>
-35.0849

> <r_i_glide_gscore>
-3.17684

> <r_i_glide_hbond>
0

> <r_i_glide_ligand_efficiency>
-0.0934366

> <r_i_glide_ligand_efficiency_ln>
-0.701854

> <r_i_glide_ligand_efficiency_sa>
-0.302698

> <r_i_glide_lipo>
-3.26902

> <r_i_glide_metal>
0

> <r_i_glide_rewards>
1.23106

> <s_i_glide_gridfile>
wee1_glide-grid

> <s_m_Source_File>
wee1_decoys_glide_SP.sdf

> <s_m_Source_Path>
/Users/zhangxujun/Desktop

> <s_m_entry_id>
5935

> <s_m_entry_name>
wee1_decoys_glide_SP.5660

> <s_m_subgroup_title>
wee1_decoys_glide_SP

> <s_m_subgroupid>
wee1_decoys_glide_SP


$$$$
