ZINC65752271_246
                    3D
 Schrodinger Suite 2024-2.
 47 48  0  0  1  0            999 V2000
   -2.4934   52.6225   23.3275 C   0  0  0  0  0  0
   -1.8440   52.3043   24.6691 C   0  0  0  0  0  0
   -2.6495   51.8121   25.6976 C   0  0  0  0  0  0
   -2.1067   51.5140   26.9405 C   0  0  0  0  0  0
   -0.7486   51.6993   27.1695 C   0  0  0  0  0  0
    0.0927   52.2004   26.1609 C   0  0  0  0  0  0
   -0.4651   52.4842   24.8919 C   0  0  0  0  0  0
    0.3104   53.0198   23.8432 N   0  0  0  0  0  0
    1.4180   52.4672   23.3224 C   0  0  0  0  0  0
    1.9041   51.3954   23.6820 O   0  0  0  0  0  0
    1.9648   53.2419   22.3717 N   0  0  0  0  0  0
    3.3059   53.0527   21.8094 C   0  0  0  0  0  0
    4.1844   54.3332   21.8712 C   0  0  2  0  0  0
    5.1039   54.4989   20.6653 C   0  0  0  0  0  0
    5.3722   53.7452   19.5265 C   0  0  0  0  0  0
    6.3373   54.4311   18.7925 C   0  0  0  0  0  0
    6.6233   55.5817   19.5075 C   0  0  0  0  0  0
    5.8797   55.6220   20.6421 O   0  0  0  0  0  0
    5.0360   54.3951   23.1753 N   0  3  0  0  0  0
    4.2187   54.2685   24.4817 C   0  0  0  0  0  0
    6.2911   53.4948   23.1900 C   0  0  0  0  0  0
    1.4283   52.4967   26.3764 O   0  0  0  0  0  0
    2.0139   52.2237   27.6455 C   0  0  0  0  0  0
   -3.2352   50.8972   28.3443 Br  0  0  0  0  0  0
   -1.9507   52.1364   22.5171 H   0  0  0  0  0  0
   -3.5287   52.2827   23.2800 H   0  0  0  0  0  0
   -2.4692   53.6951   23.1463 H   0  0  0  0  0  0
   -3.7094   51.6636   25.5396 H   0  0  0  0  0  0
   -0.3740   51.4692   28.1539 H   0  0  0  0  0  0
   -0.0933   53.7986   23.3546 H   0  0  0  0  0  0
    1.3861   53.9175   21.8917 H   0  0  0  0  0  0
    3.8257   52.2132   22.2684 H   0  0  0  0  0  0
    3.1510   52.7320   20.7761 H   0  0  0  0  0  0
    3.5439   55.2108   21.9918 H   0  0  0  0  0  0
    4.9279   52.7961   19.2538 H   0  0  0  0  0  0
    6.7695   54.1257   17.8497 H   0  0  0  0  0  0
    7.2960   56.4139   19.3400 H   0  0  0  0  0  0
    3.8962   53.2316   24.5895 H   0  0  0  0  0  0
    4.8664   54.5571   25.3104 H   0  0  0  0  0  0
    3.3598   54.9385   24.4069 H   0  0  0  0  0  0
    5.9876   52.4973   22.8826 H   0  0  0  0  0  0
    6.9974   53.9321   22.4830 H   0  0  0  0  0  0
    6.7180   53.5079   24.1942 H   0  0  0  0  0  0
    3.0708   52.4912   27.6177 H   0  0  0  0  0  0
    1.5478   52.8139   28.4362 H   0  0  0  0  0  0
    1.9422   51.1626   27.8978 H   0  0  0  0  0  0
    5.4048   55.3378   23.1800 H   0  0  0  0  0  0
  1  2  1  0  0  0
  1 25  1  0  0  0
  1 26  1  0  0  0
  1 27  1  0  0  0
  2  7  2  0  0  0
  2  3  1  0  0  0
  3  4  2  0  0  0
  3 28  1  0  0  0
  4  5  1  0  0  0
  4 24  1  0  0  0
  5  6  2  0  0  0
  5 29  1  0  0  0
  6  7  1  0  0  0
  6 22  1  0  0  0
  7  8  1  0  0  0
  8  9  1  0  0  0
  8 30  1  0  0  0
  9 10  2  0  0  0
  9 11  1  0  0  0
 11 12  1  0  0  0
 11 31  1  0  0  0
 12 13  1  0  0  0
 12 32  1  0  0  0
 12 33  1  0  0  0
 13 14  1  0  0  0
 13 19  1  0  0  0
 13 34  1  0  0  0
 14 18  1  0  0  0
 14 15  2  0  0  0
 15 16  1  0  0  0
 15 35  1  0  0  0
 16 17  2  0  0  0
 16 36  1  0  0  0
 17 18  1  0  0  0
 17 37  1  0  0  0
 19 20  1  0  0  0
 19 21  1  0  0  0
 19 47  1  0  0  0
 20 38  1  0  0  0
 20 39  1  0  0  0
 20 40  1  0  0  0
 21 41  1  0  0  0
 21 42  1  0  0  0
 21 43  1  0  0  0
 22 23  1  0  0  0
 23 44  1  0  0  0
 23 45  1  0  0  0
 23 46  1  0  0  0
M  CHG  1  19   1
M  END
> <i_i_glide_confnum>
1

> <i_i_glide_lignum>
247

> <i_i_glide_posenum>
278

> <i_i_glide_rotatable_bonds>
8

> <i_m_Source_File_Index>
3654

> <b_m_subgroup_collapsed>
0

> <r_i_docking_score>
-2.91114

> <r_i_glide_ecoul>
0.762223

> <r_i_glide_eff_state_penalty>
0

> <r_i_glide_einternal>
4.27664

> <r_i_glide_emodel>
-35.7552

> <r_i_glide_energy>
-29.7865

> <r_i_glide_erotb>
0.620048

> <r_i_glide_esite>
0

> <r_i_glide_evdw>
-30.5487

> <r_i_glide_gscore>
-2.91114

> <r_i_glide_hbond>
-0.161698

> <r_i_glide_ligand_efficiency>
-0.121297

> <r_i_glide_ligand_efficiency_ln>
-0.696769

> <r_i_glide_ligand_efficiency_sa>
-0.349882

> <r_i_glide_lipo>
-1.06135

> <r_i_glide_metal>
0

> <r_i_glide_rewards>
-0.895031

> <s_i_glide_gridfile>
wee1_glide-grid

> <s_m_Source_File>
wee1_decoys_glide_SP.sdf

> <s_m_Source_Path>
/Users/zhangxujun/Desktop

> <s_m_entry_id>
3929

> <s_m_entry_name>
wee1_decoys_glide_SP.3654

> <s_m_subgroup_title>
wee1_decoys_glide_SP

> <s_m_subgroupid>
wee1_decoys_glide_SP


$$$$
