ZINC45534277_6198
                    3D
 Schrodinger Suite 2024-2.
 60 61  0  0  1  0            999 V2000
    1.8764   51.7125   24.3062 C   0  0  0  0  0  0
    1.9419   52.7159   23.1469 C   0  0  0  0  0  0
    1.1301   53.9743   23.5373 C   0  0  0  0  0  0
    3.3914   52.8936   22.5414 C   0  0  1  0  0  0
    3.7412   51.8857   22.3181 H   0  0  0  0  0  0
    3.4878   53.7002   21.2325 C   0  0  0  0  0  0
    3.5097   52.8909   20.0041 N   0  0  0  0  0  0
    2.4755   52.2262   19.4571 C   0  0  0  0  0  0
    1.3577   52.1405   19.9696 O   0  0  0  0  0  0
    2.8123   51.6967   18.2675 N   0  0  0  0  0  0
    1.9044   50.8880   17.5455 N   0  0  0  0  0  0
    1.3481   51.5350   16.3526 C   0  0  2  0  0  0
    0.5718   52.8333   16.7254 C   0  0  0  0  0  0
   -0.3366   53.2423   15.5566 C   0  0  0  0  0  0
   -0.9601   51.6190   14.8687 S   0  0  0  0  0  0
   -2.2920   51.3231   15.4055 O   0  0  0  0  0  0
   -0.7154   51.5903   13.4238 O   0  0  0  0  0  0
    0.3060   50.5612   15.7628 C   0  0  0  0  0  0
    2.4757   51.8062   15.3269 C   0  0  0  0  0  0
    4.4381   53.4153   23.5670 N   0  3  0  0  0  0
    4.1825   54.8233   24.0950 C   0  0  0  0  0  0
    4.2558   54.8648   25.6193 C   0  0  0  0  0  0
    5.7038   54.9730   26.1136 C   0  0  0  0  0  0
    6.5950   53.7934   25.6960 C   0  0  0  0  0  0
    6.9774   53.6967   24.1860 C   0  0  0  0  0  0
    5.9222   53.1992   23.1438 C   0  0  0  0  0  0
    2.3837   52.0967   25.1894 H   0  0  0  0  0  0
    0.8436   51.5135   24.5968 H   0  0  0  0  0  0
    2.3044   50.7492   24.0304 H   0  0  0  0  0  0
    1.3563   52.2426   22.3628 H   0  0  0  0  0  0
    1.4602   54.4059   24.4817 H   0  0  0  0  0  0
    1.1528   54.7519   22.7768 H   0  0  0  0  0  0
    0.0798   53.7168   23.6817 H   0  0  0  0  0  0
    2.7044   54.4293   21.2817 H   0  0  0  0  0  0
    4.3632   54.3426   21.1860 H   0  0  0  0  0  0
    4.3925   52.8439   19.5160 H   0  0  0  0  0  0
    3.7791   51.4861   18.0412 H   0  0  0  0  0  0
    2.4222   50.0513   17.2817 H   0  0  0  0  0  0
   -0.0495   52.6515   17.6050 H   0  0  0  0  0  0
    1.2482   53.6473   16.9922 H   0  0  0  0  0  0
   -1.1646   53.9187   15.7622 H   0  0  0  0  0  0
    0.2834   53.6982   14.7853 H   0  0  0  0  0  0
    0.6628   49.7497   15.1307 H   0  0  0  0  0  0
   -0.2526   50.1065   16.5818 H   0  0  0  0  0  0
    2.0866   52.1539   14.3699 H   0  0  0  0  0  0
    3.1819   52.5537   15.6895 H   0  0  0  0  0  0
    3.0533   50.9016   15.1283 H   0  0  0  0  0  0
    5.0360   55.2967   23.6546 H   0  0  0  0  0  0
    3.2870   55.2475   23.6529 H   0  0  0  0  0  0
    3.7846   53.9765   26.0428 H   0  0  0  0  0  0
    3.6684   55.6968   25.9960 H   0  0  0  0  0  0
    5.6944   55.0415   27.2035 H   0  0  0  0  0  0
    6.1488   55.9071   25.7661 H   0  0  0  0  0  0
    7.5044   53.8689   26.2876 H   0  0  0  0  0  0
    6.1114   52.8967   26.0602 H   0  0  0  0  0  0
    7.3387   54.6756   23.8670 H   0  0  0  0  0  0
    7.8584   53.0589   24.0864 H   0  0  0  0  0  0
    6.0771   53.7347   22.2095 H   0  0  0  0  0  0
    5.9923   52.1427   22.8817 H   0  0  0  0  0  0
    4.3119   52.8223   24.3763 H   0  0  0  0  0  0
  1  2  1  0  0  0
  1 27  1  0  0  0
  1 28  1  0  0  0
  1 29  1  0  0  0
  2  3  1  0  0  0
  2  4  1  0  0  0
  2 30  1  0  0  0
  3 31  1  0  0  0
  3 32  1  0  0  0
  3 33  1  0  0  0
  4  5  1  0  0  0
  4  6  1  0  0  0
  4 20  1  0  0  0
  6  7  1  0  0  0
  6 34  1  0  0  0
  6 35  1  0  0  0
  7  8  1  0  0  0
  7 36  1  0  0  0
  8  9  2  0  0  0
  8 10  1  0  0  0
 10 11  1  0  0  0
 10 37  1  0  0  0
 11 12  1  0  0  0
 11 38  1  0  0  0
 12 18  1  0  0  0
 12 13  1  0  0  0
 12 19  1  0  0  0
 13 14  1  0  0  0
 13 39  1  0  0  0
 13 40  1  0  0  0
 14 15  1  0  0  0
 14 41  1  0  0  0
 14 42  1  0  0  0
 15 16  2  0  0  0
 15 17  2  0  0  0
 15 18  1  0  0  0
 18 43  1  0  0  0
 18 44  1  0  0  0
 19 45  1  0  0  0
 19 46  1  0  0  0
 19 47  1  0  0  0
 20 26  1  0  0  0
 20 21  1  0  0  0
 20 60  1  0  0  0
 21 22  1  0  0  0
 21 48  1  0  0  0
 21 49  1  0  0  0
 22 23  1  0  0  0
 22 50  1  0  0  0
 22 51  1  0  0  0
 23 24  1  0  0  0
 23 52  1  0  0  0
 23 53  1  0  0  0
 24 25  1  0  0  0
 24 54  1  0  0  0
 24 55  1  0  0  0
 25 26  1  0  0  0
 25 56  1  0  0  0
 25 57  1  0  0  0
 26 58  1  0  0  0
 26 59  1  0  0  0
M  CHG  1  20   1
M  END
> <i_i_glide_confnum>
607

> <i_i_glide_lignum>
6199

> <i_i_glide_posenum>
367

> <i_i_glide_rotatable_bonds>
8

> <i_m_Source_File_Index>
241

> <b_m_subgroup_collapsed>
0

> <r_i_docking_score>
-3.49674

> <r_i_glide_ecoul>
-4.17488

> <r_i_glide_eff_state_penalty>
0

> <r_i_glide_einternal>
9.90808

> <r_i_glide_emodel>
-20.7114

> <r_i_glide_energy>
-17.3093

> <r_i_glide_erotb>
0.685915

> <r_i_glide_esite>
-0.115125

> <r_i_glide_evdw>
-13.1344

> <r_i_glide_gscore>
-3.49674

> <r_i_glide_hbond>
-0.288545

> <r_i_glide_ligand_efficiency>
-0.13987

> <r_i_glide_ligand_efficiency_ln>
-0.828833

> <r_i_glide_ligand_efficiency_sa>
-0.408982

> <r_i_glide_lipo>
-1.64766

> <r_i_glide_metal>
0

> <r_i_glide_rewards>
-0.848382

> <s_i_glide_gridfile>
wee1_glide-grid

> <s_m_Source_File>
wee1_decoys_glide_SP.sdf

> <s_m_Source_Path>
/Users/zhangxujun/Desktop

> <s_m_entry_id>
516

> <s_m_entry_name>
wee1_decoys_glide_SP.241

> <s_m_subgroup_title>
wee1_decoys_glide_SP

> <s_m_subgroupid>
wee1_decoys_glide_SP


$$$$
