ZINC04233954_1370
                    3D
 Schrodinger Suite 2024-2.
 41 42  0  0  1  0            999 V2000
    1.3450   52.6834   30.8218 C   0  0  0  0  0  0
    2.4104   52.9231   29.7268 C   0  0  0  0  0  0
    3.8349   52.6484   30.2533 C   0  0  0  0  0  0
    2.2887   54.3274   29.0716 C   0  0  0  0  0  0
    1.6165   55.2262   29.5775 O   0  0  0  0  0  0
    3.0807   54.5824   27.9684 N   0  0  0  0  0  0
    2.8236   54.0716   26.8215 C   0  0  0  0  0  0
    3.5046   54.3365   25.6282 N   0  0  0  0  0  0
    3.0405   53.6969   24.4644 C   0  0  0  0  0  0
    3.5456   53.7847   23.1581 C   0  0  0  0  0  0
    2.9456   53.0674   22.1238 C   0  0  0  0  0  0
    1.8391   52.2563   22.3848 C   0  0  0  0  0  0
    1.3246   52.1720   23.6807 C   0  0  0  0  0  0
    1.9330   52.8946   24.7064 C   0  0  0  0  0  0
    1.4993   52.9038   26.3945 S   0  0  0  0  0  0
    1.1250   51.3081   21.0533 S   0  0  0  0  0  0
    2.2360   50.7016   20.3185 O   0  0  0  0  0  0
    0.0415   50.4856   21.5975 O   0  0  0  0  0  0
    0.4009   52.4872   19.9985 N   0  0  0  0  0  0
    4.7243   55.1675   25.5552 C   0  0  0  0  0  0
    6.0238   54.5860   26.1347 C   0  0  0  0  0  0
    7.1043   54.9638   25.6830 O   0  0  0  0  0  0
    5.8658   53.8105   27.2201 O   0  0  0  0  0  0
    6.9918   53.3620   27.9520 C   0  0  0  0  0  0
    0.3322   52.7675   30.4240 H   0  0  0  0  0  0
    1.4384   51.6955   31.2588 H   0  0  0  0  0  0
    1.4268   53.3855   31.6481 H   0  0  0  0  0  0
    2.2125   52.1764   28.9596 H   0  0  0  0  0  0
    4.5474   52.5986   29.4312 H   0  0  0  0  0  0
    4.1771   53.4281   30.9327 H   0  0  0  0  0  0
    3.8940   51.6985   30.7847 H   0  0  0  0  0  0
    4.4031   54.3902   22.9118 H   0  0  0  0  0  0
    3.3470   53.1349   21.1215 H   0  0  0  0  0  0
    0.4750   51.5368   23.8891 H   0  0  0  0  0  0
    1.1085   53.1047   19.5893 H   0  0  0  0  0  0
   -0.0981   52.0330   19.2311 H   0  0  0  0  0  0
    4.5208   56.0955   26.0809 H   0  0  0  0  0  0
    4.9562   55.4909   24.5446 H   0  0  0  0  0  0
    6.6516   52.8995   28.8741 H   0  0  0  0  0  0
    7.6484   54.1908   28.2209 H   0  0  0  0  0  0
    7.5628   52.6296   27.3831 H   0  0  0  0  0  0
  1  2  1  0  0  0
  1 25  1  0  0  0
  1 26  1  0  0  0
  1 27  1  0  0  0
  2  3  1  0  0  0
  2  4  1  0  0  0
  2 28  1  0  0  0
  3 29  1  0  0  0
  3 30  1  0  0  0
  3 31  1  0  0  0
  4  5  2  0  0  0
  4  6  1  0  0  0
  6  7  2  0  0  0
  7 15  1  0  0  0
  7  8  1  0  0  0
  8  9  1  0  0  0
  8 20  1  0  0  0
  9 14  2  0  0  0
  9 10  1  0  0  0
 10 11  2  0  0  0
 10 32  1  0  0  0
 11 12  1  0  0  0
 11 33  1  0  0  0
 12 13  2  0  0  0
 12 16  1  0  0  0
 13 14  1  0  0  0
 13 34  1  0  0  0
 14 15  1  0  0  0
 16 17  2  0  0  0
 16 18  2  0  0  0
 16 19  1  0  0  0
 19 35  1  0  0  0
 19 36  1  0  0  0
 20 21  1  0  0  0
 20 37  1  0  0  0
 20 38  1  0  0  0
 21 22  2  0  0  0
 21 23  1  0  0  0
 23 24  1  0  0  0
 24 39  1  0  0  0
 24 40  1  0  0  0
 24 41  1  0  0  0
M  END
> <i_i_glide_confnum>
2

> <i_i_glide_lignum>
1371

> <i_i_glide_posenum>
16

> <i_i_glide_rotatable_bonds>
6

> <i_m_Source_File_Index>
2890

> <b_m_subgroup_collapsed>
0

> <r_i_docking_score>
-6.64472

> <r_i_glide_ecoul>
-3.83346

> <r_i_glide_eff_state_penalty>
0

> <r_i_glide_einternal>
2.95478

> <r_i_glide_emodel>
-58.5541

> <r_i_glide_energy>
-42.8352

> <r_i_glide_erotb>
0.419745

> <r_i_glide_esite>
-0.0572522

> <r_i_glide_evdw>
-39.0017

> <r_i_glide_gscore>
-6.64472

> <r_i_glide_hbond>
-0.414341

> <r_i_glide_ligand_efficiency>
-0.276863

> <r_i_glide_ligand_efficiency_ln>
-1.59039

> <r_i_glide_ligand_efficiency_sa>
-0.798612

> <r_i_glide_lipo>
-2.06212

> <r_i_glide_metal>
0

> <r_i_glide_rewards>
-2.00564

> <s_i_glide_gridfile>
wee1_glide-grid

> <s_m_Source_File>
wee1_decoys_glide_SP.sdf

> <s_m_Source_Path>
/Users/zhangxujun/Desktop

> <s_m_entry_id>
3165

> <s_m_entry_name>
wee1_decoys_glide_SP.2890

> <s_m_subgroup_title>
wee1_decoys_glide_SP

> <s_m_subgroupid>
wee1_decoys_glide_SP


$$$$
