ZINC36861250_4782
                    3D
 Schrodinger Suite 2024-2.
 32 33  0  0  1  0            999 V2000
   -0.0209   52.2121   25.2216 C   0  0  0  0  0  0
    1.0377   51.7131   26.2181 C   0  0  0  0  0  0
    0.6903   52.0346   27.6081 N   0  0  0  0  0  0
   -0.3759   51.4337   28.2324 C   0  0  0  0  0  0
   -0.4414   51.7929   29.5537 C   0  0  0  0  0  0
    0.5885   52.7076   29.7350 C   0  0  0  0  0  0
    1.3114   52.8648   28.5485 C   0  0  0  0  0  0
    2.5592   53.5988   28.4405 C   0  0  0  0  0  0
    3.2107   53.8491   29.4571 O   0  0  0  0  0  0
    2.9264   53.9356   27.1894 N   0  0  0  0  0  0
    4.2001   54.2530   26.6775 C   0  0  0  0  0  0
    5.3774   54.2629   27.4481 C   0  0  0  0  0  0
    6.6137   54.5002   26.8491 C   0  0  0  0  0  0
    6.6929   54.7294   25.4765 C   0  0  0  0  0  0
    5.5342   54.7289   24.7057 C   0  0  0  0  0  0
    4.2915   54.4967   25.2961 C   0  0  0  0  0  0
    2.7479   54.4967   24.1688 Br  0  0  0  0  0  0
   -1.2956   51.2967   30.4817 N   0  0  0  0  0  0
    0.2145   51.8749   24.2117 H   0  0  0  0  0  0
   -1.0183   51.8427   25.4633 H   0  0  0  0  0  0
   -0.0604   53.2967   25.1941 H   0  0  0  0  0  0
    2.0134   52.0967   25.9452 H   0  0  0  0  0  0
    1.1044   50.6263   26.1544 H   0  0  0  0  0  0
   -0.9791   50.7132   27.6967 H   0  0  0  0  0  0
    0.8254   53.1720   30.6811 H   0  0  0  0  0  0
    2.2283   53.7974   26.4760 H   0  0  0  0  0  0
    5.3691   54.0680   28.5085 H   0  0  0  0  0  0
    7.5064   54.4947   27.4567 H   0  0  0  0  0  0
    7.6451   54.8967   24.9967 H   0  0  0  0  0  0
    5.5999   54.8972   23.6407 H   0  0  0  0  0  0
   -1.6956   50.3633   30.3675 H   0  0  0  0  0  0
   -1.2957   51.6107   31.4602 H   0  0  0  0  0  0
  1  2  1  0  0  0
  1 19  1  0  0  0
  1 20  1  0  0  0
  1 21  1  0  0  0
  2  3  1  0  0  0
  2 22  1  0  0  0
  2 23  1  0  0  0
  3  7  1  0  0  0
  3  4  1  0  0  0
  4  5  2  0  0  0
  4 24  1  0  0  0
  5  6  1  0  0  0
  5 18  1  0  0  0
  6  7  2  0  0  0
  6 25  1  0  0  0
  7  8  1  0  0  0
  8  9  2  0  0  0
  8 10  1  0  0  0
 10 11  1  0  0  0
 10 26  1  0  0  0
 11 16  2  0  0  0
 11 12  1  0  0  0
 12 13  2  0  0  0
 12 27  1  0  0  0
 13 14  1  0  0  0
 13 28  1  0  0  0
 14 15  2  0  0  0
 14 29  1  0  0  0
 15 16  1  0  0  0
 15 30  1  0  0  0
 16 17  1  0  0  0
 18 31  1  0  0  0
 18 32  1  0  0  0
M  END
> <i_i_glide_confnum>
17

> <i_i_glide_lignum>
4783

> <i_i_glide_posenum>
372

> <i_i_glide_rotatable_bonds>
4

> <i_m_Source_File_Index>
3528

> <b_m_subgroup_collapsed>
0

> <r_i_docking_score>
-6.29505

> <r_i_glide_ecoul>
-8.19762

> <r_i_glide_eff_state_penalty>
0

> <r_i_glide_einternal>
5.14406

> <r_i_glide_emodel>
-45.019

> <r_i_glide_energy>
-34.4421

> <r_i_glide_erotb>
0.584314

> <r_i_glide_esite>
-0.1

> <r_i_glide_evdw>
-26.2445

> <r_i_glide_gscore>
-6.29505

> <r_i_glide_hbond>
-0.304

> <r_i_glide_ligand_efficiency>
-0.349725

> <r_i_glide_ligand_efficiency_ln>
-1.61811

> <r_i_glide_ligand_efficiency_sa>
-0.916538

> <r_i_glide_lipo>
-2.26344

> <r_i_glide_metal>
0

> <r_i_glide_rewards>
-1.67005

> <s_i_glide_gridfile>
wee1_glide-grid

> <s_m_Source_File>
wee1_decoys_glide_SP.sdf

> <s_m_Source_Path>
/Users/zhangxujun/Desktop

> <s_m_entry_id>
3803

> <s_m_entry_name>
wee1_decoys_glide_SP.3528

> <s_m_subgroup_title>
wee1_decoys_glide_SP

> <s_m_subgroupid>
wee1_decoys_glide_SP


$$$$
