ZINC35778135_5690
                    3D
 Schrodinger Suite 2024-2.
 70 73  0  0  1  0            999 V2000
   -0.9215   51.2115   27.4092 C   0  0  0  0  0  0
   -0.1159   51.8826   26.4004 N   0  0  0  0  0  0
   -0.3517   52.0209   25.0626 C   0  0  0  0  0  0
    0.7411   52.6973   24.5171 C   0  0  0  0  0  0
    1.5530   52.9844   25.6659 C   0  0  0  0  0  0
    1.0020   52.4947   26.7637 N   0  0  0  0  0  0
    2.8935   53.6871   25.8194 C   0  0  0  0  0  0
    3.5513   53.6953   27.0652 C   0  0  0  0  0  0
    4.8144   54.2580   27.2161 C   0  0  0  0  0  0
    5.4470   54.8256   26.1184 C   0  0  0  0  0  0
    4.8114   54.8482   24.8816 C   0  0  0  0  0  0
    3.5344   54.3055   24.7418 C   0  0  0  0  0  0
    0.8994   53.0276   23.0277 C   0  0  0  0  0  0
    1.8145   52.0621   22.1973 N   0  3  2  0  0  0
    1.9601   50.6234   22.7752 C   0  0  0  0  0  0
    0.6658   49.8169   22.5269 C   0  0  0  0  0  0
    0.6048   48.6113   23.2817 O   0  0  0  0  0  0
    0.3039   48.7090   24.6666 C   0  0  0  0  0  0
    3.1452   52.7158   21.7147 C   0  0  0  0  0  0
    3.5887   52.2733   20.2921 C   0  0  1  0  0  0
    2.7829   52.4706   19.5821 H   0  0  0  0  0  0
    4.8415   53.0380   19.8149 C   0  0  0  0  0  0
    4.5172   54.3743   19.4536 O   0  0  0  0  0  0
    5.6435   55.1391   19.0278 C   0  0  0  0  0  0
    5.1867   56.3121   18.1920 C   0  0  0  0  0  0
    4.0504   56.5840   17.4401 C   0  0  0  0  0  0
    4.2299   57.8473   16.8736 C   0  0  0  0  0  0
    5.4803   58.2824   17.2814 C   0  0  0  0  0  0
    6.0578   57.3506   18.0831 O   0  0  0  0  0  0
    3.9041   50.8970   20.2370 O   0  0  0  0  0  0
   -1.4437   51.4758   24.4364 O   0  0  0  0  0  0
   -2.6727   52.0293   24.6816 C   0  0  0  0  0  0
   -3.6277   51.3127   25.4015 C   0  0  0  0  0  0
   -4.8614   51.8922   25.6856 C   0  0  0  0  0  0
   -5.1400   53.1814   25.2353 C   0  0  0  0  0  0
   -4.2021   53.8835   24.4817 C   0  0  0  0  0  0
   -2.9738   53.2967   24.1894 C   0  0  0  0  0  0
   -6.6551   53.9199   25.6074 Cl  0  0  0  0  0  0
   -1.7139   51.8790   27.7431 H   0  0  0  0  0  0
   -1.3572   50.3084   26.9825 H   0  0  0  0  0  0
   -0.3105   50.9182   28.2636 H   0  0  0  0  0  0
    3.1020   53.2389   27.9346 H   0  0  0  0  0  0
    5.3087   54.2413   28.1781 H   0  0  0  0  0  0
    6.4299   55.2562   26.2282 H   0  0  0  0  0  0
    5.3077   55.2957   24.0350 H   0  0  0  0  0  0
    3.0628   54.3751   23.7845 H   0  0  0  0  0  0
    1.1682   54.0620   22.8220 H   0  0  0  0  0  0
   -0.0550   52.8873   22.5179 H   0  0  0  0  0  0
    2.7957   50.1371   22.2748 H   0  0  0  0  0  0
    2.2318   50.7269   23.8235 H   0  0  0  0  0  0
   -0.2379   50.3992   22.6821 H   0  0  0  0  0  0
    0.6432   49.5300   21.4748 H   0  0  0  0  0  0
    0.3205   47.7059   25.0948 H   0  0  0  0  0  0
    1.0311   49.3105   25.2123 H   0  0  0  0  0  0
   -0.6959   49.1097   24.8312 H   0  0  0  0  0  0
    3.8996   52.5363   22.4811 H   0  0  0  0  0  0
    2.9512   53.7879   21.6603 H   0  0  0  0  0  0
    5.2712   52.5438   18.9401 H   0  0  0  0  0  0
    5.6021   53.0263   20.5952 H   0  0  0  0  0  0
    6.3346   54.5314   18.4380 H   0  0  0  0  0  0
    6.2024   55.4779   19.9014 H   0  0  0  0  0  0
    3.1908   55.9389   17.3318 H   0  0  0  0  0  0
    3.5350   58.3880   16.2465 H   0  0  0  0  0  0
    6.0369   59.1949   17.1095 H   0  0  0  0  0  0
    4.3553   50.7149   19.3871 H   0  0  0  0  0  0
   -3.4062   50.3173   25.7571 H   0  0  0  0  0  0
   -5.5965   51.3455   26.2585 H   0  0  0  0  0  0
   -4.4229   54.8771   24.1217 H   0  0  0  0  0  0
   -2.2402   53.8403   23.6141 H   0  0  0  0  0  0
    1.3159   51.9270   21.3270 H   0  0  0  0  0  0
  1  2  1  0  0  0
  1 39  1  0  0  0
  1 40  1  0  0  0
  1 41  1  0  0  0
  2  6  1  0  0  0
  2  3  1  0  0  0
  3  4  2  0  0  0
  3 31  1  0  0  0
  4  5  1  0  0  0
  4 13  1  0  0  0
  5  6  2  0  0  0
  5  7  1  0  0  0
  7 12  2  0  0  0
  7  8  1  0  0  0
  8  9  2  0  0  0
  8 42  1  0  0  0
  9 10  1  0  0  0
  9 43  1  0  0  0
 10 11  2  0  0  0
 10 44  1  0  0  0
 11 12  1  0  0  0
 11 45  1  0  0  0
 12 46  1  0  0  0
 13 14  1  0  0  0
 13 47  1  0  0  0
 13 48  1  0  0  0
 14 15  1  0  0  0
 14 19  1  0  0  0
 14 70  1  0  0  0
 15 16  1  0  0  0
 15 49  1  0  0  0
 15 50  1  0  0  0
 16 17  1  0  0  0
 16 51  1  0  0  0
 16 52  1  0  0  0
 17 18  1  0  0  0
 18 53  1  0  0  0
 18 54  1  0  0  0
 18 55  1  0  0  0
 19 20  1  0  0  0
 19 56  1  0  0  0
 19 57  1  0  0  0
 20 21  1  0  0  0
 20 22  1  0  0  0
 20 30  1  0  0  0
 22 23  1  0  0  0
 22 58  1  0  0  0
 22 59  1  0  0  0
 23 24  1  0  0  0
 24 25  1  0  0  0
 24 60  1  0  0  0
 24 61  1  0  0  0
 25 29  1  0  0  0
 25 26  2  0  0  0
 26 27  1  0  0  0
 26 62  1  0  0  0
 27 28  2  0  0  0
 27 63  1  0  0  0
 28 29  1  0  0  0
 28 64  1  0  0  0
 30 65  1  0  0  0
 31 32  1  0  0  0
 32 37  2  0  0  0
 32 33  1  0  0  0
 33 34  2  0  0  0
 33 66  1  0  0  0
 34 35  1  0  0  0
 34 67  1  0  0  0
 35 36  2  0  0  0
 35 38  1  0  0  0
 36 37  1  0  0  0
 36 68  1  0  0  0
 37 69  1  0  0  0
M  CHG  1  14   1
M  END
> <i_i_glide_confnum>
354

> <i_i_glide_lignum>
5691

> <i_i_glide_posenum>
120

> <i_i_glide_rotatable_bonds>
15

> <i_m_Source_File_Index>
5589

> <b_m_subgroup_collapsed>
0

> <r_i_docking_score>
-5.05228

> <r_i_glide_ecoul>
-6.28773

> <r_i_glide_eff_state_penalty>
0

> <r_i_glide_einternal>
14.1411

> <r_i_glide_emodel>
-53.1384

> <r_i_glide_energy>
-45.0076

> <r_i_glide_erotb>
0.889655

> <r_i_glide_esite>
-0.00450512

> <r_i_glide_evdw>
-38.7199

> <r_i_glide_gscore>
-5.05228

> <r_i_glide_hbond>
-0.268675

> <r_i_glide_ligand_efficiency>
-0.136548

> <r_i_glide_ligand_efficiency_ln>
-1.09572

> <r_i_glide_ligand_efficiency_sa>
-0.455008

> <r_i_glide_lipo>
-2.73126

> <r_i_glide_metal>
0

> <r_i_glide_rewards>
-0.0583333

> <s_i_glide_gridfile>
wee1_glide-grid

> <s_m_Source_File>
wee1_decoys_glide_SP.sdf

> <s_m_Source_Path>
/Users/zhangxujun/Desktop

> <s_m_entry_id>
5864

> <s_m_entry_name>
wee1_decoys_glide_SP.5589

> <s_m_subgroup_title>
wee1_decoys_glide_SP

> <s_m_subgroupid>
wee1_decoys_glide_SP


$$$$
