ZINC39677104_3691
                    3D
 Schrodinger Suite 2024-2.
 65 68  0  0  1  0            999 V2000
    1.4220   53.4523   24.3145 C   0  0  0  0  0  0
    2.8575   53.8799   24.5609 C   0  0  0  0  0  0
    3.3101   54.0968   25.8605 C   0  0  0  0  0  0
    4.6245   54.4958   26.0824 C   0  0  0  0  0  0
    5.5050   54.6777   25.0110 C   0  0  0  0  0  0
    5.0667   54.4471   23.6902 C   0  0  0  0  0  0
    3.7346   54.0433   23.4874 C   0  0  0  0  0  0
    6.0293   54.6773   22.5093 C   0  0  0  0  0  0
    5.4467   54.4616   21.0895 C   0  0  0  0  0  0
    6.2824   54.8567   19.9509 N   0  0  0  0  0  0
    6.7601   56.0848   19.6827 C   0  0  0  0  0  0
    6.7041   57.0189   20.4837 O   0  0  0  0  0  0
    7.4255   56.2639   18.2963 C   0  0  2  0  0  0
    7.8305   55.3032   17.9715 H   0  0  0  0  0  0
    8.5801   57.2886   18.3981 C   0  0  0  0  0  0
    8.6695   57.8159   17.0337 N   0  0  0  0  0  0
    7.5115   57.4498   16.2183 C   0  0  0  0  0  0
    6.4805   56.8469   17.1987 C   0  0  0  0  0  0
    5.5521   55.7850   16.5587 C   0  0  0  0  0  0
    4.8030   56.3590   15.3365 C   0  0  0  0  0  0
    3.9412   57.5565   15.8052 N   0  3  0  0  0  0
    4.7018   58.6365   16.6060 C   0  0  0  0  0  0
    5.5081   57.9484   17.7282 C   0  0  0  0  0  0
    9.7484   58.4245   16.4840 C   0  0  0  0  0  0
    9.8002   58.7420   15.2945 O   0  0  0  0  0  0
   10.9482   58.6947   17.3551 C   0  0  0  0  0  0
   12.1837   58.1113   17.0339 C   0  0  0  0  0  0
   13.3137   58.3931   17.7961 C   0  0  0  0  0  0
   13.2287   59.2599   18.8819 C   0  0  0  0  0  0
   12.0066   59.8409   19.2184 C   0  0  0  0  0  0
   10.8664   59.5682   18.4530 C   0  0  0  0  0  0
    9.6984   60.1777   18.7739 F   0  0  0  0  0  0
   11.9154   60.8998   20.5805 Cl  0  0  0  0  0  0
   12.3060   57.2642   15.9836 F   0  0  0  0  0  0
    6.9236   55.1253   25.3097 C   0  0  0  0  0  0
    0.9970   52.9598   25.1903 H   0  0  0  0  0  0
    1.3676   52.7343   23.4943 H   0  0  0  0  0  0
    0.8085   54.3166   24.0576 H   0  0  0  0  0  0
    2.6442   53.9635   26.7014 H   0  0  0  0  0  0
    4.9562   54.6645   27.0961 H   0  0  0  0  0  0
    3.3511   53.8607   22.4959 H   0  0  0  0  0  0
    6.3843   55.7011   22.5965 H   0  0  0  0  0  0
    6.9123   54.0513   22.6350 H   0  0  0  0  0  0
    5.1367   53.4217   20.9832 H   0  0  0  0  0  0
    4.5041   54.9990   20.9994 H   0  0  0  0  0  0
    6.4337   54.1390   19.2578 H   0  0  0  0  0  0
    8.2744   58.1354   19.0143 H   0  0  0  0  0  0
    9.4928   56.8093   18.7596 H   0  0  0  0  0  0
    7.8493   56.6487   15.5593 H   0  0  0  0  0  0
    7.1324   58.2306   15.5575 H   0  0  0  0  0  0
    6.1575   54.9516   16.1996 H   0  0  0  0  0  0
    4.8692   55.3516   17.2914 H   0  0  0  0  0  0
    5.4669   56.7368   14.5559 H   0  0  0  0  0  0
    4.1122   55.6365   14.8951 H   0  0  0  0  0  0
    3.4913   57.9943   15.0103 H   0  0  0  0  0  0
    5.3062   59.2120   15.9029 H   0  0  0  0  0  0
    3.9323   59.2967   17.0064 H   0  0  0  0  0  0
    4.8309   57.5463   18.4810 H   0  0  0  0  0  0
    6.0777   58.7315   18.2324 H   0  0  0  0  0  0
   14.2606   57.9378   17.5405 H   0  0  0  0  0  0
   14.1116   59.4765   19.4643 H   0  0  0  0  0  0
    7.1229   56.0968   24.8606 H   0  0  0  0  0  0
    7.1053   55.1913   26.3832 H   0  0  0  0  0  0
    7.6297   54.4151   24.8821 H   0  0  0  0  0  0
    3.1956   57.2039   16.3875 H   0  0  0  0  0  0
  1  2  1  0  0  0
  1 36  1  0  0  0
  1 37  1  0  0  0
  1 38  1  0  0  0
  2  7  2  0  0  0
  2  3  1  0  0  0
  3  4  2  0  0  0
  3 39  1  0  0  0
  4  5  1  0  0  0
  4 40  1  0  0  0
  5  6  2  0  0  0
  5 35  1  0  0  0
  6  7  1  0  0  0
  6  8  1  0  0  0
  7 41  1  0  0  0
  8  9  1  0  0  0
  8 42  1  0  0  0
  8 43  1  0  0  0
  9 10  1  0  0  0
  9 44  1  0  0  0
  9 45  1  0  0  0
 10 11  1  0  0  0
 10 46  1  0  0  0
 11 12  2  0  0  0
 11 13  1  0  0  0
 13 14  1  0  0  0
 13 18  1  0  0  0
 13 15  1  0  0  0
 15 16  1  0  0  0
 15 47  1  0  0  0
 15 48  1  0  0  0
 16 17  1  0  0  0
 16 24  1  0  0  0
 17 18  1  0  0  0
 17 49  1  0  0  0
 17 50  1  0  0  0
 18 23  1  0  0  0
 18 19  1  0  0  0
 19 20  1  0  0  0
 19 51  1  0  0  0
 19 52  1  0  0  0
 20 21  1  0  0  0
 20 53  1  0  0  0
 20 54  1  0  0  0
 21 22  1  0  0  0
 21 55  1  0  0  0
 21 65  1  0  0  0
 22 23  1  0  0  0
 22 56  1  0  0  0
 22 57  1  0  0  0
 23 58  1  0  0  0
 23 59  1  0  0  0
 24 25  2  0  0  0
 24 26  1  0  0  0
 26 31  2  0  0  0
 26 27  1  0  0  0
 27 28  2  0  0  0
 27 34  1  0  0  0
 28 29  1  0  0  0
 28 60  1  0  0  0
 29 30  2  0  0  0
 29 61  1  0  0  0
 30 31  1  0  0  0
 30 33  1  0  0  0
 31 32  1  0  0  0
 35 62  1  0  0  0
 35 63  1  0  0  0
 35 64  1  0  0  0
M  CHG  1  21   1
M  END
> <i_i_glide_confnum>
373

> <i_i_glide_lignum>
3692

> <i_i_glide_posenum>
12

> <i_i_glide_rotatable_bonds>
7

> <i_m_Source_File_Index>
4826

> <b_m_subgroup_collapsed>
0

> <r_i_docking_score>
-4.97793

> <r_i_glide_ecoul>
-7.33011

> <r_i_glide_eff_state_penalty>
0

> <r_i_glide_einternal>
5.05767

> <r_i_glide_emodel>
-52.8702

> <r_i_glide_energy>
-39.968

> <r_i_glide_erotb>
0.591026

> <r_i_glide_esite>
-0.0981847

> <r_i_glide_evdw>
-32.6379

> <r_i_glide_gscore>
-4.97793

> <r_i_glide_hbond>
-0.32

> <r_i_glide_ligand_efficiency>
-0.14641

> <r_i_glide_ligand_efficiency_ln>
-1.09976

> <r_i_glide_ligand_efficiency_sa>
-0.474311

> <r_i_glide_lipo>
-2.19547

> <r_i_glide_metal>
0

> <r_i_glide_rewards>
-0.223893

> <s_i_glide_gridfile>
wee1_glide-grid

> <s_m_Source_File>
wee1_decoys_glide_SP.sdf

> <s_m_Source_Path>
/Users/zhangxujun/Desktop

> <s_m_entry_id>
5101

> <s_m_entry_name>
wee1_decoys_glide_SP.4826

> <s_m_subgroup_title>
wee1_decoys_glide_SP

> <s_m_subgroupid>
wee1_decoys_glide_SP


$$$$
