ZINC13131792_4016
                    3D
 Schrodinger Suite 2024-2.
 58 62  0  0  1  0            999 V2000
    1.1045   52.8874   30.7519 C   0  0  0  0  0  0
    1.9176   53.1977   29.5171 C   0  0  0  0  0  0
    3.1549   53.6117   29.5949 N   0  0  0  0  0  0
    3.6999   53.8248   28.3650 C   0  0  0  0  0  0
    5.0098   54.2650   28.1333 C   0  0  0  0  0  0
    5.4320   54.4330   26.8129 C   0  0  0  0  0  0
    4.5905   54.1768   25.7229 C   0  0  0  0  0  0
    3.2668   53.7540   25.9431 C   0  0  0  0  0  0
    2.8374   53.5751   27.2678 C   0  0  0  0  0  0
    1.2826   53.0405   27.8891 S   0  0  0  0  0  0
    5.1613   54.3780   24.4444 N   0  0  0  0  0  0
    4.6703   54.0967   23.2121 C   0  0  0  0  0  0
    3.5896   53.5421   23.0132 O   0  0  0  0  0  0
    5.5284   54.5161   22.0311 C   0  0  0  0  0  0
    6.7499   55.1994   22.1982 C   0  0  0  0  0  0
    7.5024   55.6072   21.0959 C   0  0  0  0  0  0
    7.0491   55.3488   19.8049 C   0  0  0  0  0  0
    5.8476   54.6652   19.6140 C   0  0  0  0  0  0
    5.0926   54.2569   20.7185 C   0  0  0  0  0  0
    5.2855   54.2992   17.9492 S   0  0  0  0  0  0
    6.4722   54.3238   17.0837 O   0  0  0  0  0  0
    4.4279   53.1135   18.0317 O   0  0  0  0  0  0
    4.2604   55.6634   17.4843 N   0  0  0  0  0  0
    2.8121   55.5417   17.2810 C   0  0  0  0  0  0
    2.4671   56.0423   15.8626 C   0  0  0  0  0  0
    2.9548   57.4242   15.6203 N   0  0  0  0  0  0
    4.4063   57.5564   15.9151 C   0  0  0  0  0  0
    4.7668   57.0316   17.3214 C   0  0  0  0  0  0
    2.1413   58.4838   15.2117 C   0  0  0  0  0  0
    2.6864   59.6147   14.5819 C   0  0  0  0  0  0
    1.8773   60.6838   14.1993 C   0  0  0  0  0  0
    0.5081   60.6326   14.4365 C   0  0  0  0  0  0
   -0.0576   59.5182   15.0446 C   0  0  0  0  0  0
    0.7538   58.4522   15.4268 C   0  0  0  0  0  0
   -0.2786   61.6733   14.0778 F   0  0  0  0  0  0
    0.9691   53.7714   31.3745 H   0  0  0  0  0  0
    1.5769   52.1236   31.3709 H   0  0  0  0  0  0
    0.1063   52.5200   30.5096 H   0  0  0  0  0  0
    5.6789   54.4700   28.9566 H   0  0  0  0  0  0
    6.4455   54.7646   26.6455 H   0  0  0  0  0  0
    2.5815   53.5577   25.1333 H   0  0  0  0  0  0
    6.0882   54.7731   24.4588 H   0  0  0  0  0  0
    7.1476   55.4246   23.1770 H   0  0  0  0  0  0
    8.4541   56.0980   21.2448 H   0  0  0  0  0  0
    7.6449   55.6590   18.9576 H   0  0  0  0  0  0
    4.1598   53.7345   20.5442 H   0  0  0  0  0  0
    2.5321   54.4929   17.3745 H   0  0  0  0  0  0
    2.2843   56.0958   18.0524 H   0  0  0  0  0  0
    3.0118   55.4569   15.1200 H   0  0  0  0  0  0
    1.4105   55.8957   15.6459 H   0  0  0  0  0  0
    4.7737   58.5761   15.8114 H   0  0  0  0  0  0
    4.8831   56.9406   15.1487 H   0  0  0  0  0  0
    4.3248   57.6676   18.0816 H   0  0  0  0  0  0
    5.8463   57.0261   17.4683 H   0  0  0  0  0  0
    3.7446   59.6867   14.3852 H   0  0  0  0  0  0
    2.3129   61.5535   13.7301 H   0  0  0  0  0  0
   -1.1199   59.4883   15.2341 H   0  0  0  0  0  0
    0.2871   57.6193   15.9275 H   0  0  0  0  0  0
  1  2  1  0  0  0
  1 36  1  0  0  0
  1 37  1  0  0  0
  1 38  1  0  0  0
  2 10  1  0  0  0
  2  3  2  0  0  0
  3  4  1  0  0  0
  4  9  2  0  0  0
  4  5  1  0  0  0
  5  6  2  0  0  0
  5 39  1  0  0  0
  6  7  1  0  0  0
  6 40  1  0  0  0
  7  8  2  0  0  0
  7 11  1  0  0  0
  8  9  1  0  0  0
  8 41  1  0  0  0
  9 10  1  0  0  0
 11 12  1  0  0  0
 11 42  1  0  0  0
 12 13  2  0  0  0
 12 14  1  0  0  0
 14 19  2  0  0  0
 14 15  1  0  0  0
 15 16  2  0  0  0
 15 43  1  0  0  0
 16 17  1  0  0  0
 16 44  1  0  0  0
 17 18  2  0  0  0
 17 45  1  0  0  0
 18 19  1  0  0  0
 18 20  1  0  0  0
 19 46  1  0  0  0
 20 21  2  0  0  0
 20 22  2  0  0  0
 20 23  1  0  0  0
 23 28  1  0  0  0
 23 24  1  0  0  0
 24 25  1  0  0  0
 24 47  1  0  0  0
 24 48  1  0  0  0
 25 26  1  0  0  0
 25 49  1  0  0  0
 25 50  1  0  0  0
 26 27  1  0  0  0
 26 29  1  0  0  0
 27 28  1  0  0  0
 27 51  1  0  0  0
 27 52  1  0  0  0
 28 53  1  0  0  0
 28 54  1  0  0  0
 29 34  2  0  0  0
 29 30  1  0  0  0
 30 31  2  0  0  0
 30 55  1  0  0  0
 31 32  1  0  0  0
 31 56  1  0  0  0
 32 33  2  0  0  0
 32 35  1  0  0  0
 33 34  1  0  0  0
 33 57  1  0  0  0
 34 58  1  0  0  0
M  END
> <i_i_glide_confnum>
174

> <i_i_glide_lignum>
4017

> <i_i_glide_posenum>
130

> <i_i_glide_rotatable_bonds>
6

> <i_m_Source_File_Index>
4377

> <b_m_subgroup_collapsed>
0

> <r_i_docking_score>
-5.05402

> <r_i_glide_ecoul>
-0.261772

> <r_i_glide_eff_state_penalty>
0

> <r_i_glide_einternal>
2.13284

> <r_i_glide_emodel>
-60.6316

> <r_i_glide_energy>
-46.0475

> <r_i_glide_erotb>
0.471488

> <r_i_glide_esite>
-0.118002

> <r_i_glide_evdw>
-45.7858

> <r_i_glide_gscore>
-5.05402

> <r_i_glide_hbond>
-0.0445963

> <r_i_glide_ligand_efficiency>
-0.144401

> <r_i_glide_ligand_efficiency_ln>
-1.10947

> <r_i_glide_ligand_efficiency_sa>
-0.472344

> <r_i_glide_lipo>
-2.66198

> <r_i_glide_metal>
0

> <r_i_glide_rewards>
-0.37238

> <s_i_glide_gridfile>
wee1_glide-grid

> <s_m_Source_File>
wee1_decoys_glide_SP.sdf

> <s_m_Source_Path>
/Users/zhangxujun/Desktop

> <s_m_entry_id>
4652

> <s_m_entry_name>
wee1_decoys_glide_SP.4377

> <s_m_subgroup_title>
wee1_decoys_glide_SP

> <s_m_subgroupid>
wee1_decoys_glide_SP


$$$$
