ZINC12180488_4320
                    3D
 Schrodinger Suite 2024-2.
 53 57  0  0  1  0            999 V2000
    2.2912   58.0982   15.7058 C   0  0  0  0  0  0
    3.1651   57.2060   16.3271 C   0  0  0  0  0  0
    2.6823   56.0330   16.9176 C   0  0  0  0  0  0
    1.3025   55.7678   16.8817 C   0  0  0  0  0  0
    0.4276   56.6705   16.2751 C   0  0  0  0  0  0
    0.9228   57.8307   15.6812 C   0  0  0  0  0  0
   -1.2713   56.3622   16.2836 Cl  0  0  0  0  0  0
    3.6358   55.2239   17.5620 N   0  0  0  0  0  0
    3.5183   53.9776   18.0723 C   0  0  0  0  0  0
    2.5055   53.2845   17.9961 O   0  0  0  0  0  0
    4.7522   53.3888   18.7735 C   0  0  0  0  0  0
    6.0380   54.6001   19.2808 S   0  0  0  0  0  0
    5.9050   54.6914   21.0444 C   0  0  0  0  0  0
    6.8184   55.2851   21.7812 N   0  0  0  0  0  0
    6.6163   55.1396   23.1489 N   0  0  0  0  0  0
    5.5005   54.4964   23.4141 C   0  0  0  0  0  0
    4.6335   53.9739   22.0005 S   0  0  0  0  0  0
    4.9193   54.2559   24.6493 N   0  0  0  0  0  0
    5.4526   54.4968   25.8694 C   0  0  0  0  0  0
    6.6107   54.8947   26.0388 O   0  0  0  0  0  0
    4.5042   54.2548   27.0937 C   0  0  0  0  0  0
    4.1894   52.7725   27.2772 C   0  0  0  0  0  0
    3.2357   52.4981   28.4846 C   0  0  2  0  0  0
    1.8953   53.2507   28.2831 C   0  0  0  0  0  0
    2.1903   54.7593   28.0888 C   0  0  2  0  0  0
    3.1044   54.8965   26.8442 C   0  0  0  0  0  0
    2.9029   55.3117   29.3507 C   0  0  0  0  0  0
    4.2177   54.5230   29.6028 C   0  0  1  0  0  0
    3.8987   53.0155   29.7790 C   0  0  0  0  0  0
    5.1894   54.6950   28.4163 C   0  0  0  0  0  0
    2.6729   59.0075   15.2627 H   0  0  0  0  0  0
    4.2194   57.4445   16.3517 H   0  0  0  0  0  0
    0.8837   54.8937   17.3547 H   0  0  0  0  0  0
    0.2473   58.5337   15.2169 H   0  0  0  0  0  0
    4.5529   55.6377   17.6450 H   0  0  0  0  0  0
    4.4422   52.7424   19.5915 H   0  0  0  0  0  0
    5.2129   52.7104   18.0533 H   0  0  0  0  0  0
    4.0006   53.8415   24.6284 H   0  0  0  0  0  0
    3.6821   52.4967   26.3597 H   0  0  0  0  0  0
    5.1155   52.2067   27.3739 H   0  0  0  0  0  0
    3.0361   51.4301   28.5733 H   0  0  0  0  0  0
    1.2334   53.0955   29.1370 H   0  0  0  0  0  0
    1.3638   52.8505   27.4180 H   0  0  0  0  0  0
    1.2543   55.2962   27.9276 H   0  0  0  0  0  0
    3.1601   55.9026   26.4817 H   0  0  0  0  0  0
    2.6014   54.3968   26.0123 H   0  0  0  0  0  0
    3.1041   56.3778   29.2459 H   0  0  0  0  0  0
    2.2407   55.2251   30.2131 H   0  0  0  0  0  0
    4.7187   54.8967   30.4817 H   0  0  0  0  0  0
    3.2450   52.8574   30.6376 H   0  0  0  0  0  0
    4.8025   52.4411   29.9787 H   0  0  0  0  0  0
    6.0831   54.0928   28.5993 H   0  0  0  0  0  0
    5.5787   55.6967   28.3500 H   0  0  0  0  0  0
  1  6  2  0  0  0
  1  2  1  0  0  0
  1 31  1  0  0  0
  2  3  2  0  0  0
  2 32  1  0  0  0
  3  4  1  0  0  0
  3  8  1  0  0  0
  4  5  2  0  0  0
  4 33  1  0  0  0
  5  6  1  0  0  0
  5  7  1  0  0  0
  6 34  1  0  0  0
  8  9  1  0  0  0
  8 35  1  0  0  0
  9 10  2  0  0  0
  9 11  1  0  0  0
 11 12  1  0  0  0
 11 36  1  0  0  0
 11 37  1  0  0  0
 12 13  1  0  0  0
 13 17  1  0  0  0
 13 14  2  0  0  0
 14 15  1  0  0  0
 15 16  2  0  0  0
 16 17  1  0  0  0
 16 18  1  0  0  0
 18 19  1  0  0  0
 18 38  1  0  0  0
 19 20  2  0  0  0
 19 21  1  0  0  0
 21 26  1  0  0  0
 21 30  1  0  0  0
 21 22  1  0  0  0
 22 23  1  0  0  0
 22 39  1  0  0  0
 22 40  1  0  0  0
 23 29  1  0  0  0
 23 24  1  0  0  0
 23 41  1  0  0  0
 24 25  1  0  0  0
 24 42  1  0  0  0
 24 43  1  0  0  0
 25 26  1  0  0  0
 25 27  1  0  0  0
 25 44  1  0  0  0
 26 45  1  0  0  0
 26 46  1  0  0  0
 27 28  1  0  0  0
 27 47  1  0  0  0
 27 48  1  0  0  0
 28 29  1  0  0  0
 28 30  1  0  0  0
 28 49  1  0  0  0
 29 50  1  0  0  0
 29 51  1  0  0  0
 30 52  1  0  0  0
 30 53  1  0  0  0
M  END
> <i_i_glide_confnum>
150

> <i_i_glide_lignum>
4321

> <i_i_glide_posenum>
366

> <i_i_glide_rotatable_bonds>
8

> <i_m_Source_File_Index>
2786

> <b_m_subgroup_collapsed>
0

> <r_i_docking_score>
-4.64584

> <r_i_glide_ecoul>
-3.29856

> <r_i_glide_eff_state_penalty>
0

> <r_i_glide_einternal>
9.68864

> <r_i_glide_emodel>
-42.8844

> <r_i_glide_energy>
-34.0504

> <r_i_glide_erotb>
0.657877

> <r_i_glide_esite>
-0.00486675

> <r_i_glide_evdw>
-30.7518

> <r_i_glide_gscore>
-4.64584

> <r_i_glide_hbond>
-0.18279

> <r_i_glide_ligand_efficiency>
-0.154861

> <r_i_glide_ligand_efficiency_ln>
-1.05558

> <r_i_glide_ligand_efficiency_sa>
-0.48119

> <r_i_glide_lipo>
-2.38578

> <r_i_glide_metal>
0

> <r_i_glide_rewards>
-0.697904

> <s_i_glide_gridfile>
wee1_glide-grid

> <s_m_Source_File>
wee1_decoys_glide_SP.sdf

> <s_m_Source_Path>
/Users/zhangxujun/Desktop

> <s_m_entry_id>
3061

> <s_m_entry_name>
wee1_decoys_glide_SP.2786

> <s_m_subgroup_title>
wee1_decoys_glide_SP

> <s_m_subgroupid>
wee1_decoys_glide_SP


$$$$
