ZINC21228572_2305
                    3D
 Schrodinger Suite 2024-2.
 61 64  0  0  1  0            999 V2000
    5.6258   54.2349   28.9013 C   0  0  0  0  0  0
    5.1361   53.8762   27.4984 C   0  0  1  0  0  0
    5.2936   52.8026   27.3722 H   0  0  0  0  0  0
    3.6438   54.2257   27.3373 C   0  0  0  0  0  0
    3.0621   53.7020   26.0133 C   0  0  0  0  0  0
    4.0462   53.9674   24.8716 C   0  0  0  0  0  0
    5.3688   54.3713   25.0776 C   0  0  0  0  0  0
    6.2985   54.5516   23.6070 S   0  0  0  0  0  0
    4.9299   53.9880   22.6734 C   0  0  0  0  0  0
    3.7962   53.6990   23.4909 C   0  0  0  0  0  0
    2.6820   53.1665   22.8019 C   0  0  0  0  0  0
    2.7304   52.9168   21.4752 N   0  0  0  0  0  0
    3.8657   53.2529   20.8167 C   0  0  0  0  0  0
    4.9815   53.8089   21.3517 N   0  0  0  0  0  0
    3.9314   52.8968   19.0948 S   0  0  0  0  0  0
    2.6956   51.5960   18.7663 C   0  0  0  0  0  0
    1.3812   52.1554   18.2080 C   0  0  0  0  0  0
    0.4106   52.1776   18.9690 O   0  0  0  0  0  0
    1.3127   52.5768   16.9122 N   0  0  0  0  0  0
    0.0512   53.1277   16.3602 C   0  0  0  0  0  0
   -0.5092   54.4146   17.0328 C   0  0  0  0  0  0
    0.5054   55.5711   17.1191 C   0  0  0  0  0  0
   -1.7982   54.8731   16.3298 C   0  0  0  0  0  0
    2.4386   52.3959   15.9629 C   0  0  2  0  0  0
    3.3536   52.0276   16.4276 H   0  0  0  0  0  0
    2.9143   53.7209   15.3023 C   0  0  0  0  0  0
    3.5918   53.4250   13.9574 C   0  0  0  0  0  0
    2.4484   52.1615   13.2062 S   0  0  0  0  0  0
    3.1914   51.2408   12.3410 O   0  0  0  0  0  0
    1.2399   52.8361   12.7223 O   0  0  0  0  0  0
    2.0869   51.3677   14.8577 C   0  0  0  0  0  0
    1.4898   52.8240   23.4393 N   0  0  0  0  0  0
    5.9804   54.6281   26.4447 C   0  0  0  0  0  0
    5.5054   55.2968   29.1142 H   0  0  0  0  0  0
    5.0628   53.6879   29.6591 H   0  0  0  0  0  0
    6.6823   53.9921   29.0250 H   0  0  0  0  0  0
    3.0734   53.7963   28.1623 H   0  0  0  0  0  0
    3.4927   55.2968   27.4431 H   0  0  0  0  0  0
    2.0955   54.1687   25.8287 H   0  0  0  0  0  0
    2.8704   52.6323   26.0983 H   0  0  0  0  0  0
    2.4947   51.0301   19.6752 H   0  0  0  0  0  0
    3.1043   50.8498   18.0874 H   0  0  0  0  0  0
    0.1759   53.3226   15.2947 H   0  0  0  0  0  0
   -0.7031   52.3407   16.4077 H   0  0  0  0  0  0
   -0.7973   54.1652   18.0537 H   0  0  0  0  0  0
    0.7766   55.9461   16.1323 H   0  0  0  0  0  0
    0.0951   56.4107   17.6813 H   0  0  0  0  0  0
    1.4209   55.2650   17.6269 H   0  0  0  0  0  0
   -1.6082   55.1524   15.2924 H   0  0  0  0  0  0
   -2.5505   54.0835   16.3271 H   0  0  0  0  0  0
   -2.2372   55.7378   16.8290 H   0  0  0  0  0  0
    3.5519   54.2892   15.9818 H   0  0  0  0  0  0
    2.0697   54.3771   15.1010 H   0  0  0  0  0  0
    4.5494   52.9371   14.1390 H   0  0  0  0  0  0
    3.7456   54.2590   13.2744 H   0  0  0  0  0  0
    1.1626   50.7948   14.9049 H   0  0  0  0  0  0
    2.8712   50.6126   14.9375 H   0  0  0  0  0  0
    1.3953   52.9498   24.4360 H   0  0  0  0  0  0
    0.7458   52.4225   22.8866 H   0  0  0  0  0  0
    7.0170   54.2901   26.4769 H   0  0  0  0  0  0
    5.9893   55.6965   26.6496 H   0  0  0  0  0  0
  1  2  1  0  0  0
  1 34  1  0  0  0
  1 35  1  0  0  0
  1 36  1  0  0  0
  2  3  1  0  0  0
  2 33  1  0  0  0
  2  4  1  0  0  0
  4  5  1  0  0  0
  4 37  1  0  0  0
  4 38  1  0  0  0
  5  6  1  0  0  0
  5 39  1  0  0  0
  5 40  1  0  0  0
  6 10  1  0  0  0
  6  7  2  0  0  0
  7  8  1  0  0  0
  7 33  1  0  0  0
  8  9  1  0  0  0
  9 14  2  0  0  0
  9 10  1  0  0  0
 10 11  2  0  0  0
 11 12  1  0  0  0
 11 32  1  0  0  0
 12 13  2  0  0  0
 13 14  1  0  0  0
 13 15  1  0  0  0
 15 16  1  0  0  0
 16 17  1  0  0  0
 16 41  1  0  0  0
 16 42  1  0  0  0
 17 18  2  0  0  0
 17 19  1  0  0  0
 19 20  1  0  0  0
 19 24  1  0  0  0
 20 21  1  0  0  0
 20 43  1  0  0  0
 20 44  1  0  0  0
 21 22  1  0  0  0
 21 23  1  0  0  0
 21 45  1  0  0  0
 22 46  1  0  0  0
 22 47  1  0  0  0
 22 48  1  0  0  0
 23 49  1  0  0  0
 23 50  1  0  0  0
 23 51  1  0  0  0
 24 25  1  0  0  0
 24 31  1  0  0  0
 24 26  1  0  0  0
 26 27  1  0  0  0
 26 52  1  0  0  0
 26 53  1  0  0  0
 27 28  1  0  0  0
 27 54  1  0  0  0
 27 55  1  0  0  0
 28 29  2  0  0  0
 28 30  2  0  0  0
 28 31  1  0  0  0
 31 56  1  0  0  0
 31 57  1  0  0  0
 32 58  1  0  0  0
 32 59  1  0  0  0
 33 60  1  0  0  0
 33 61  1  0  0  0
M  END
> <i_i_glide_confnum>
35

> <i_i_glide_lignum>
2306

> <i_i_glide_posenum>
264

> <i_i_glide_rotatable_bonds>
7

> <i_m_Source_File_Index>
571

> <b_m_subgroup_collapsed>
0

> <r_i_docking_score>
-4.36834

> <r_i_glide_ecoul>
-1.50167

> <r_i_glide_eff_state_penalty>
0

> <r_i_glide_einternal>
4.55813

> <r_i_glide_emodel>
-45.986

> <r_i_glide_energy>
-35.9668

> <r_i_glide_erotb>
0.435549

> <r_i_glide_esite>
-0.0325147

> <r_i_glide_evdw>
-34.4652

> <r_i_glide_gscore>
-4.36834

> <r_i_glide_hbond>
0

> <r_i_glide_ligand_efficiency>
-0.140914

> <r_i_glide_ligand_efficiency_ln>
-0.985195

> <r_i_glide_ligand_efficiency_sa>
-0.442665

> <r_i_glide_lipo>
-2.58152

> <r_i_glide_metal>
0

> <r_i_glide_rewards>
-0.241347

> <s_i_glide_gridfile>
wee1_glide-grid

> <s_m_Source_File>
wee1_decoys_glide_SP.sdf

> <s_m_Source_Path>
/Users/zhangxujun/Desktop

> <s_m_entry_id>
846

> <s_m_entry_name>
wee1_decoys_glide_SP.571

> <s_m_subgroup_title>
wee1_decoys_glide_SP

> <s_m_subgroupid>
wee1_decoys_glide_SP


$$$$
