ZINC15675832_5008
                    3D
 Schrodinger Suite 2024-2.
 58 62  0  0  1  0            999 V2000
   -0.1947   51.3294   26.5561 C   0  0  0  0  0  0
    0.1581   51.2972   27.8998 C   0  0  0  0  0  0
    1.2223   52.0721   28.3621 C   0  0  0  0  0  0
    1.9433   52.8723   27.4776 C   0  0  0  0  0  0
    1.5987   52.8967   26.1284 C   0  0  0  0  0  0
    0.5284   52.1243   25.6612 C   0  0  0  0  0  0
    0.1721   52.1281   24.2127 C   0  0  0  0  0  0
    1.0989   52.1475   23.2762 N   0  0  0  0  0  0
    0.3936   52.0967   22.1787 C   0  0  0  0  0  0
   -0.9445   52.0966   22.4092 O   0  0  0  0  0  0
   -1.0765   52.0978   23.7951 N   0  0  0  0  0  0
    0.8805   52.0967   20.7255 C   0  0  2  0  0  0
    0.9942   53.1373   20.4248 H   0  0  0  0  0  0
   -0.2394   51.5636   19.7464 C   0  0  0  0  0  0
    0.3607   51.0080   18.4860 C   0  0  0  0  0  0
    1.5947   50.4204   18.4778 C   0  0  0  0  0  0
    1.9044   50.0896   17.1755 N   0  3  0  0  0  0
    0.8653   50.4864   16.3615 C   0  0  0  0  0  0
   -0.0868   51.0699   17.1757 N   0  0  0  0  0  0
   -0.9528   51.4900   16.8686 H   0  0  0  0  0  0
    2.4172   50.2394   19.7193 C   0  0  0  0  0  0
    2.2530   51.4729   20.5313 N   0  0  0  0  0  0
    3.4011   52.0092   21.0542 C   0  0  0  0  0  0
    4.4522   51.3726   21.1645 O   0  0  0  0  0  0
    3.3171   53.2964   21.4446 N   0  0  0  0  0  0
    4.4326   54.1764   21.7939 C   0  0  0  0  0  0
    5.3183   53.7516   22.9938 C   0  0  0  0  0  0
    6.3824   54.8019   23.3693 C   0  0  0  0  0  0
    7.1880   55.2936   22.1524 C   0  0  0  0  0  0
    6.3043   55.7532   20.9869 C   0  0  0  0  0  0
    5.2592   54.6918   20.5906 C   0  0  0  0  0  0
    1.5939   52.0155   29.6815 O   0  0  0  0  0  0
    0.7994   52.7909   30.5744 C   0  0  0  0  0  0
    0.9888   54.0965   30.3733 F   0  0  0  0  0  0
   -0.4956   52.4956   30.4817 F   0  0  0  0  0  0
    1.1959   52.4970   31.8097 F   0  0  0  0  0  0
   -1.0148   50.7135   26.2144 H   0  0  0  0  0  0
   -0.3940   50.6629   28.5783 H   0  0  0  0  0  0
    2.7768   53.4586   27.8352 H   0  0  0  0  0  0
    2.1693   53.5097   25.4453 H   0  0  0  0  0  0
   -0.9643   52.3502   19.5377 H   0  0  0  0  0  0
   -0.7980   50.7570   20.2239 H   0  0  0  0  0  0
    0.8342   50.4027   15.2834 H   0  0  0  0  0  0
    3.4620   50.1136   19.4198 H   0  0  0  0  0  0
    2.1760   49.3365   20.2808 H   0  0  0  0  0  0
    2.4775   53.7837   21.1654 H   0  0  0  0  0  0
    3.8953   55.0507   22.1625 H   0  0  0  0  0  0
    5.8421   52.8274   22.7482 H   0  0  0  0  0  0
    4.6961   53.5350   23.8635 H   0  0  0  0  0  0
    7.0640   54.3831   24.1115 H   0  0  0  0  0  0
    5.9044   55.6500   23.8595 H   0  0  0  0  0  0
    7.8485   54.4967   21.8170 H   0  0  0  0  0  0
    7.8573   56.0967   22.4584 H   0  0  0  0  0  0
    6.9245   56.0033   20.1250 H   0  0  0  0  0  0
    5.8012   56.6759   21.2770 H   0  0  0  0  0  0
    4.5995   55.1009   19.8237 H   0  0  0  0  0  0
    5.7755   53.8482   20.1289 H   0  0  0  0  0  0
    2.8237   49.6968   16.8817 H   0  0  0  0  0  0
  1  6  2  0  0  0
  1  2  1  0  0  0
  1 37  1  0  0  0
  2  3  2  0  0  0
  2 38  1  0  0  0
  3  4  1  0  0  0
  3 32  1  0  0  0
  4  5  2  0  0  0
  4 39  1  0  0  0
  5  6  1  0  0  0
  5 40  1  0  0  0
  6  7  1  0  0  0
  7 11  2  0  0  0
  7  8  1  0  0  0
  8  9  2  0  0  0
  9 10  1  0  0  0
  9 12  1  0  0  0
 10 11  1  0  0  0
 12 13  1  0  0  0
 12 22  1  0  0  0
 12 14  1  0  0  0
 14 15  1  0  0  0
 14 41  1  0  0  0
 14 42  1  0  0  0
 15 19  1  0  0  0
 15 16  2  0  0  0
 16 17  1  0  0  0
 16 21  1  0  0  0
 17 18  2  0  0  0
 17 58  1  0  0  0
 18 19  1  0  0  0
 18 43  1  0  0  0
 19 20  1  0  0  0
 21 22  1  0  0  0
 21 44  1  0  0  0
 21 45  1  0  0  0
 22 23  1  0  0  0
 23 24  2  0  0  0
 23 25  1  0  0  0
 25 26  1  0  0  0
 25 46  1  0  0  0
 26 31  1  0  0  0
 26 27  1  0  0  0
 26 47  1  0  0  0
 27 28  1  0  0  0
 27 48  1  0  0  0
 27 49  1  0  0  0
 28 29  1  0  0  0
 28 50  1  0  0  0
 28 51  1  0  0  0
 29 30  1  0  0  0
 29 52  1  0  0  0
 29 53  1  0  0  0
 30 31  1  0  0  0
 30 54  1  0  0  0
 30 55  1  0  0  0
 31 56  1  0  0  0
 31 57  1  0  0  0
 32 33  1  0  0  0
 33 34  1  0  0  0
 33 35  1  0  0  0
 33 36  1  0  0  0
M  CHG  1  17   1
M  END
> <i_i_glide_confnum>
123

> <i_i_glide_lignum>
5009

> <i_i_glide_posenum>
52

> <i_i_glide_rotatable_bonds>
7

> <i_m_Source_File_Index>
2885

> <b_m_subgroup_collapsed>
0

> <r_i_docking_score>
-4.20058

> <r_i_glide_ecoul>
-11.4741

> <r_i_glide_eff_state_penalty>
0

> <r_i_glide_einternal>
12.9579

> <r_i_glide_emodel>
-53.0652

> <r_i_glide_energy>
-51.4183

> <r_i_glide_erotb>
0.533162

> <r_i_glide_esite>
-0.347033

> <r_i_glide_evdw>
-39.9442

> <r_i_glide_gscore>
-4.20058

> <r_i_glide_hbond>
-0.44041

> <r_i_glide_ligand_efficiency>
-0.123546

> <r_i_glide_ligand_efficiency_ln>
-0.928026

> <r_i_glide_ligand_efficiency_sa>
-0.400243

> <r_i_glide_lipo>
-1.68776

> <r_i_glide_metal>
0

> <r_i_glide_rewards>
1.45979

> <s_i_glide_gridfile>
wee1_glide-grid

> <s_m_Source_File>
wee1_decoys_glide_SP.sdf

> <s_m_Source_Path>
/Users/zhangxujun/Desktop

> <s_m_entry_id>
3160

> <s_m_entry_name>
wee1_decoys_glide_SP.2885

> <s_m_subgroup_title>
wee1_decoys_glide_SP

> <s_m_subgroupid>
wee1_decoys_glide_SP


$$$$
