ZINC12206295_564
                    3D
 Schrodinger Suite 2024-2.
 76 80  0  0  1  0            999 V2000
    6.7044   55.2964   24.3571 C   0  0  0  0  0  0
    5.8857   55.0554   25.4508 C   0  0  0  0  0  0
    4.6506   54.4164   25.2744 C   0  0  0  0  0  0
    4.2502   54.0596   23.9782 C   0  0  0  0  0  0
    5.0801   54.2803   22.8659 C   0  0  0  0  0  0
    6.3199   54.8957   23.0850 C   0  0  0  0  0  0
    4.6518   53.9568   21.5790 N   0  0  0  0  0  0
    5.2919   54.5664   20.3960 C   0  0  0  0  0  0
    4.4304   54.4845   19.1249 C   0  0  0  0  0  0
    4.0212   53.0455   18.7801 C   0  0  0  0  0  0
    3.3868   52.4231   20.0389 C   0  0  0  0  0  0
    4.2728   52.5618   21.2899 C   0  0  0  0  0  0
    2.4876   51.8372   17.0416 C   0  0  0  0  0  0
    0.9797   51.9188   16.7237 C   0  0  2  0  0  0
    0.6809   50.9255   16.3794 H   0  0  0  0  0  0
    0.5952   52.8720   15.5829 C   0  0  0  0  0  0
   -0.9053   52.7182   15.2919 C   0  0  0  0  0  0
   -1.7812   52.8389   16.5647 C   0  0  0  0  0  0
   -1.3309   51.9870   17.6907 N   0  0  0  0  0  0
    0.0981   52.2557   17.9537 C   0  0  0  0  0  0
   -2.2087   51.5141   18.6730 C   0  0  0  0  0  0
   -1.6737   51.0198   19.8266 N   0  0  0  0  0  0
   -2.5269   50.4555   20.7187 C   0  0  0  0  0  0
   -3.8971   50.3586   20.4819 C   0  0  0  0  0  0
   -4.3659   50.8901   19.2805 C   0  0  0  0  0  0
   -3.5398   51.4711   18.3716 N   0  0  0  0  0  0
    3.7613   54.1469   26.3323 N   0  0  0  0  0  0
    4.0110   54.0995   27.6605 C   0  0  0  0  0  0
    5.1252   54.2254   28.1639 O   0  0  0  0  0  0
    2.8243   53.8767   28.6143 C   0  0  0  0  0  0
    1.4760   53.4445   27.9850 C   0  0  0  0  0  0
    1.5176   52.0886   27.2514 C   0  0  0  0  0  0
    0.1536   51.4184   27.4736 C   0  0  0  0  0  0
   -0.6729   52.3864   28.3133 C   0  0  0  0  0  0
    0.3584   53.2634   29.0189 C   0  0  0  0  0  0
    7.6457   55.8053   24.4868 H   0  0  0  0  0  0
    6.2212   55.3899   26.4207 H   0  0  0  0  0  0
    3.2824   53.6048   23.8285 H   0  0  0  0  0  0
    6.9981   55.0940   22.2694 H   0  0  0  0  0  0
    5.4828   55.6223   20.5962 H   0  0  0  0  0  0
    6.2618   54.0995   20.2259 H   0  0  0  0  0  0
    3.5523   55.1144   19.2827 H   0  0  0  0  0  0
    4.9320   54.9481   18.2746 H   0  0  0  0  0  0
    4.9068   52.4972   18.4515 H   0  0  0  0  0  0
    3.1301   51.3776   19.8640 H   0  0  0  0  0  0
    2.4260   52.8932   20.2594 H   0  0  0  0  0  0
    5.1795   51.9654   21.1854 H   0  0  0  0  0  0
    3.7149   52.1360   22.1197 H   0  0  0  0  0  0
    3.1161   51.6898   16.1607 H   0  0  0  0  0  0
    2.7092   51.0175   17.7281 H   0  0  0  0  0  0
    0.8544   53.9019   15.8309 H   0  0  0  0  0  0
    1.1736   52.6397   14.6866 H   0  0  0  0  0  0
   -1.2127   53.4781   14.5714 H   0  0  0  0  0  0
   -1.1125   51.7670   14.7975 H   0  0  0  0  0  0
   -1.8454   53.8764   16.8978 H   0  0  0  0  0  0
   -2.7896   52.5493   16.2699 H   0  0  0  0  0  0
    0.4465   51.5961   18.7486 H   0  0  0  0  0  0
    0.2572   53.2695   18.3317 H   0  0  0  0  0  0
   -2.0882   50.0650   21.6258 H   0  0  0  0  0  0
   -4.5647   49.8976   21.1962 H   0  0  0  0  0  0
   -5.4160   50.8509   19.0273 H   0  0  0  0  0  0
    2.8185   53.9235   26.0553 H   0  0  0  0  0  0
    2.6799   54.8068   29.1670 H   0  0  0  0  0  0
    3.1318   53.1308   29.3498 H   0  0  0  0  0  0
    1.1130   54.1975   27.2834 H   0  0  0  0  0  0
    2.2651   51.4366   27.7100 H   0  0  0  0  0  0
    1.7573   52.1905   26.1914 H   0  0  0  0  0  0
    0.2806   50.4965   28.0315 H   0  0  0  0  0  0
   -0.3447   51.1613   26.5386 H   0  0  0  0  0  0
   -1.3300   51.8697   29.0135 H   0  0  0  0  0  0
   -1.2953   52.9887   27.6533 H   0  0  0  0  0  0
   -0.0358   54.2054   29.3986 H   0  0  0  0  0  0
    0.7353   52.7102   29.8826 H   0  0  0  0  0  0
    2.9545   53.1582   17.6808 N   0  3  0  0  0  0
    2.1580   53.6064   18.1109 H   0  0  0  0  0  0
    3.2665   53.8046   16.9691 H   0  0  0  0  0  0
  1  6  2  0  0  0
  1  2  1  0  0  0
  1 36  1  0  0  0
  2  3  2  0  0  0
  2 37  1  0  0  0
  3  4  1  0  0  0
  3 27  1  0  0  0
  4  5  2  0  0  0
  4 38  1  0  0  0
  5  6  1  0  0  0
  5  7  1  0  0  0
  6 39  1  0  0  0
  7 12  1  0  0  0
  7  8  1  0  0  0
  8  9  1  0  0  0
  8 40  1  0  0  0
  8 41  1  0  0  0
  9 10  1  0  0  0
  9 42  1  0  0  0
  9 43  1  0  0  0
 10 11  1  0  0  0
 10 44  1  0  0  0
 10 74  1  0  0  0
 11 12  1  0  0  0
 11 45  1  0  0  0
 11 46  1  0  0  0
 12 47  1  0  0  0
 12 48  1  0  0  0
 13 14  1  0  0  0
 13 49  1  0  0  0
 13 50  1  0  0  0
 13 74  1  0  0  0
 14 15  1  0  0  0
 14 20  1  0  0  0
 14 16  1  0  0  0
 16 17  1  0  0  0
 16 51  1  0  0  0
 16 52  1  0  0  0
 17 18  1  0  0  0
 17 53  1  0  0  0
 17 54  1  0  0  0
 18 19  1  0  0  0
 18 55  1  0  0  0
 18 56  1  0  0  0
 19 20  1  0  0  0
 19 21  1  0  0  0
 20 57  1  0  0  0
 20 58  1  0  0  0
 21 26  2  0  0  0
 21 22  1  0  0  0
 22 23  2  0  0  0
 23 24  1  0  0  0
 23 59  1  0  0  0
 24 25  2  0  0  0
 24 60  1  0  0  0
 25 26  1  0  0  0
 25 61  1  0  0  0
 27 28  1  0  0  0
 27 62  1  0  0  0
 28 29  2  0  0  0
 28 30  1  0  0  0
 30 31  1  0  0  0
 30 63  1  0  0  0
 30 64  1  0  0  0
 31 35  1  0  0  0
 31 32  1  0  0  0
 31 65  1  0  0  0
 32 33  1  0  0  0
 32 66  1  0  0  0
 32 67  1  0  0  0
 33 34  1  0  0  0
 33 68  1  0  0  0
 33 69  1  0  0  0
 34 35  1  0  0  0
 34 70  1  0  0  0
 34 71  1  0  0  0
 35 72  1  0  0  0
 35 73  1  0  0  0
 74 75  1  0  0  0
 74 76  1  0  0  0
M  CHG  1  74   1
M  END
> <i_i_glide_confnum>
450

> <i_i_glide_lignum>
565

> <i_i_glide_posenum>
108

> <i_i_glide_rotatable_bonds>
9

> <i_m_Source_File_Index>
4618

> <b_m_subgroup_collapsed>
0

> <r_i_docking_score>
-4.39689

> <r_i_glide_ecoul>
-1.30612

> <r_i_glide_eff_state_penalty>
0

> <r_i_glide_einternal>
7.67876

> <r_i_glide_emodel>
-49.5425

> <r_i_glide_energy>
-38.7537

> <r_i_glide_erotb>
0.710325

> <r_i_glide_esite>
-0.0446361

> <r_i_glide_evdw>
-37.4475

> <r_i_glide_gscore>
-4.39689

> <r_i_glide_hbond>
0

> <r_i_glide_ligand_efficiency>
-0.125625

> <r_i_glide_ligand_efficiency_ln>
-0.965214

> <r_i_glide_ligand_efficiency_sa>
-0.410929

> <r_i_glide_lipo>
-2.32776

> <r_i_glide_metal>
0

> <r_i_glide_rewards>
-0.666516

> <s_i_glide_gridfile>
wee1_glide-grid

> <s_m_Source_File>
wee1_decoys_glide_SP.sdf

> <s_m_Source_Path>
/Users/zhangxujun/Desktop

> <s_m_entry_id>
4893

> <s_m_entry_name>
wee1_decoys_glide_SP.4618

> <s_m_subgroup_title>
wee1_decoys_glide_SP

> <s_m_subgroupid>
wee1_decoys_glide_SP


$$$$
