ZINC65301166_5371
                    3D
 Schrodinger Suite 2024-2.
 72 76  0  0  1  0            999 V2000
   -1.3603   52.6001   12.9577 C   0  0  0  0  0  0
   -0.8469   53.8905   13.6153 C   0  0  0  0  0  0
    0.0821   53.6237   14.7902 C   0  0  0  0  0  0
    1.4399   53.3829   14.5645 C   0  0  0  0  0  0
    2.2892   53.1348   15.6389 C   0  0  0  0  0  0
    1.7907   53.1259   16.9429 C   0  0  0  0  0  0
    0.4284   53.3796   17.1685 C   0  0  0  0  0  0
   -0.4217   53.6186   16.0932 C   0  0  0  0  0  0
    2.7249   52.8999   17.9680 N   0  0  0  0  0  0
    2.5039   52.4816   19.2343 C   0  0  0  0  0  0
    1.4043   52.0979   19.6481 O   0  0  0  0  0  0
    3.7580   52.4288   20.1520 C   0  0  0  0  0  0
    4.0816   53.8621   20.6604 C   0  0  0  0  0  0
    3.3516   54.3032   21.9606 C   0  0  0  0  0  0
    3.4124   53.2871   23.0174 N   0  0  0  0  0  0
    2.7750   52.0554   22.4898 C   0  0  0  0  0  0
    3.5584   51.4361   21.3179 C   0  0  0  0  0  0
    3.3141   53.6243   24.3742 C   0  0  0  0  0  0
    2.1522   53.4285   25.1858 C   0  0  0  0  0  0
    2.2084   53.7095   26.5557 C   0  0  0  0  0  0
    3.3363   54.1498   27.1253 N   0  3  0  0  0  0
    4.4601   54.3534   26.4152 C   0  0  0  0  0  0
    4.4980   54.1098   25.0175 C   0  0  0  0  0  0
    5.8398   54.3881   24.5742 C   0  0  0  0  0  0
    6.6892   54.8297   25.4699 N   0  0  0  0  0  0
    6.0093   54.8674   27.0403 S   0  0  0  0  0  0
    6.4171   54.2315   23.1864 C   0  0  0  0  0  0
    0.8149   53.0155   24.6052 C   0  0  0  0  0  0
    0.3775   53.6974   23.6823 O   0  0  0  0  0  0
    0.1428   51.9244   25.0785 N   0  0  0  0  0  0
   -1.1353   51.5212   24.4438 C   0  0  0  0  0  0
   -2.2548   51.7276   25.4889 C   0  0  0  0  0  0
   -1.9815   50.9047   26.7648 C   0  0  0  0  0  0
   -0.6069   51.3307   27.3190 C   0  0  0  0  0  0
    0.5099   51.1212   26.2672 C   0  0  0  0  0  0
   -3.1093   51.0496   27.7999 C   0  0  0  0  0  0
   -2.0247   52.8285   12.1226 H   0  0  0  0  0  0
   -1.9175   51.9853   13.6687 H   0  0  0  0  0  0
   -0.5366   51.9985   12.5724 H   0  0  0  0  0  0
   -0.3228   54.5006   12.8774 H   0  0  0  0  0  0
   -1.6905   54.4989   13.9465 H   0  0  0  0  0  0
    1.8376   53.3878   13.5597 H   0  0  0  0  0  0
    3.3380   52.9486   15.4498 H   0  0  0  0  0  0
    0.0193   53.4155   18.1654 H   0  0  0  0  0  0
   -1.4712   53.8049   16.2751 H   0  0  0  0  0  0
    3.6911   52.9952   17.6957 H   0  0  0  0  0  0
    4.5314   52.0966   19.4588 H   0  0  0  0  0  0
    5.1628   53.9683   20.7309 H   0  0  0  0  0  0
    3.9345   54.5975   19.8661 H   0  0  0  0  0  0
    3.7850   55.2372   22.3127 H   0  0  0  0  0  0
    2.3036   54.4986   21.7677 H   0  0  0  0  0  0
    2.6837   51.3076   23.2780 H   0  0  0  0  0  0
    1.7570   52.2665   22.1635 H   0  0  0  0  0  0
    3.0714   50.5305   20.9480 H   0  0  0  0  0  0
    4.4931   50.9546   21.6138 H   0  0  0  0  0  0
    1.3659   53.6209   27.2282 H   0  0  0  0  0  0
    6.1453   53.2696   22.7527 H   0  0  0  0  0  0
    6.0671   55.0200   22.5236 H   0  0  0  0  0  0
    7.5060   54.2780   23.1628 H   0  0  0  0  0  0
   -1.3364   52.0180   23.4923 H   0  0  0  0  0  0
   -1.0541   50.4602   24.1991 H   0  0  0  0  0  0
   -2.3713   52.7878   25.7221 H   0  0  0  0  0  0
   -3.2166   51.4364   25.0651 H   0  0  0  0  0  0
   -1.9071   49.8500   26.4839 H   0  0  0  0  0  0
   -0.3859   50.7502   28.2158 H   0  0  0  0  0  0
   -0.6351   52.3669   27.6617 H   0  0  0  0  0  0
    0.5243   50.0747   25.9572 H   0  0  0  0  0  0
    1.5047   51.3052   26.6557 H   0  0  0  0  0  0
   -3.2661   52.0903   28.0825 H   0  0  0  0  0  0
   -4.0512   50.6729   27.4022 H   0  0  0  0  0  0
   -2.8916   50.4776   28.7040 H   0  0  0  0  0  0
    3.3320   54.3282   28.1197 H   0  0  0  0  0  0
  1  2  1  0  0  0
  1 37  1  0  0  0
  1 38  1  0  0  0
  1 39  1  0  0  0
  2  3  1  0  0  0
  2 40  1  0  0  0
  2 41  1  0  0  0
  3  8  2  0  0  0
  3  4  1  0  0  0
  4  5  2  0  0  0
  4 42  1  0  0  0
  5  6  1  0  0  0
  5 43  1  0  0  0
  6  7  2  0  0  0
  6  9  1  0  0  0
  7  8  1  0  0  0
  7 44  1  0  0  0
  8 45  1  0  0  0
  9 10  1  0  0  0
  9 46  1  0  0  0
 10 11  2  0  0  0
 10 12  1  0  0  0
 12 17  1  0  0  0
 12 13  1  0  0  0
 12 47  1  0  0  0
 13 14  1  0  0  0
 13 48  1  0  0  0
 13 49  1  0  0  0
 14 15  1  0  0  0
 14 50  1  0  0  0
 14 51  1  0  0  0
 15 16  1  0  0  0
 15 18  1  0  0  0
 16 17  1  0  0  0
 16 52  1  0  0  0
 16 53  1  0  0  0
 17 54  1  0  0  0
 17 55  1  0  0  0
 18 23  2  0  0  0
 18 19  1  0  0  0
 19 20  2  0  0  0
 19 28  1  0  0  0
 20 21  1  0  0  0
 20 56  1  0  0  0
 21 22  2  0  0  0
 21 72  1  0  0  0
 22 26  1  0  0  0
 22 23  1  0  0  0
 23 24  1  0  0  0
 24 25  2  0  0  0
 24 27  1  0  0  0
 25 26  1  0  0  0
 27 57  1  0  0  0
 27 58  1  0  0  0
 27 59  1  0  0  0
 28 29  2  0  0  0
 28 30  1  0  0  0
 30 35  1  0  0  0
 30 31  1  0  0  0
 31 32  1  0  0  0
 31 60  1  0  0  0
 31 61  1  0  0  0
 32 33  1  0  0  0
 32 62  1  0  0  0
 32 63  1  0  0  0
 33 34  1  0  0  0
 33 36  1  0  0  0
 33 64  1  0  0  0
 34 35  1  0  0  0
 34 65  1  0  0  0
 34 66  1  0  0  0
 35 67  1  0  0  0
 35 68  1  0  0  0
 36 69  1  0  0  0
 36 70  1  0  0  0
 36 71  1  0  0  0
M  CHG  1  21   1
M  END
> <i_i_glide_confnum>
73

> <i_i_glide_lignum>
5372

> <i_i_glide_posenum>
203

> <i_i_glide_rotatable_bonds>
7

> <i_m_Source_File_Index>
480

> <b_m_subgroup_collapsed>
0

> <r_i_docking_score>
-4.60977

> <r_i_glide_ecoul>
-1.62171

> <r_i_glide_eff_state_penalty>
0

> <r_i_glide_einternal>
1.12205

> <r_i_glide_emodel>
-52.2314

> <r_i_glide_energy>
-38.3677

> <r_i_glide_erotb>
0.478209

> <r_i_glide_esite>
-0.0438608

> <r_i_glide_evdw>
-36.746

> <r_i_glide_gscore>
-4.60977

> <r_i_glide_hbond>
-0.134489

> <r_i_glide_ligand_efficiency>
-0.128049

> <r_i_glide_ligand_efficiency_ln>
-1.00573

> <r_i_glide_ligand_efficiency_sa>
-0.422809

> <r_i_glide_lipo>
-2.09878

> <r_i_glide_metal>
0

> <r_i_glide_rewards>
-0.730297

> <s_i_glide_gridfile>
wee1_glide-grid

> <s_m_Source_File>
wee1_decoys_glide_SP.sdf

> <s_m_Source_Path>
/Users/zhangxujun/Desktop

> <s_m_entry_id>
755

> <s_m_entry_name>
wee1_decoys_glide_SP.480

> <s_m_subgroup_title>
wee1_decoys_glide_SP

> <s_m_subgroupid>
wee1_decoys_glide_SP


$$$$
