ZINC25577882_686
                    3D
 Schrodinger Suite 2024-2.
 57 60  0  0  1  0            999 V2000
    2.7048   55.0775   28.9384 C   0  0  0  0  0  0
    3.0109   53.9100   27.9799 C   0  0  2  0  0  0
    3.2314   53.0213   28.5747 H   0  0  0  0  0  0
    4.1587   54.1789   27.0575 C   0  0  0  0  0  0
    5.4864   54.4965   27.3332 C   0  0  0  0  0  0
    6.3703   54.6960   26.2759 C   0  0  0  0  0  0
    5.9328   54.5863   24.9523 C   0  0  0  0  0  0
    4.6013   54.2430   24.6488 C   0  0  0  0  0  0
    3.7321   54.0521   25.7419 C   0  0  0  0  0  0
    2.4109   53.6770   25.6607 O   0  0  0  0  0  0
    1.8632   53.6229   26.9858 C   0  0  1  0  0  0
    1.1070   54.4038   27.0608 H   0  0  0  0  0  0
    1.1839   52.2603   27.1989 C   0  0  0  0  0  0
    4.2170   54.0222   23.1971 C   0  0  0  0  0  0
    4.9088   54.4948   22.2920 O   0  0  0  0  0  0
    3.1672   53.1981   22.9816 N   0  0  0  0  0  0
    2.9334   52.4253   21.8268 C   0  0  0  0  0  0
    3.1041   52.8966   20.5167 C   0  0  0  0  0  0
    2.8514   52.0627   19.4242 C   0  0  0  0  0  0
    2.4393   50.7396   19.6199 C   0  0  0  0  0  0
    2.3295   50.2462   20.9384 C   0  0  0  0  0  0
    2.5357   51.1004   22.0218 C   0  0  0  0  0  0
    2.0071   48.5819   21.2815 Cl  0  0  0  0  0  0
    2.2205   49.9353   18.4824 N   0  0  0  0  0  0
    1.0727   49.2626   18.2377 C   0  0  0  0  0  0
    0.0485   49.3645   18.9164 O   0  0  0  0  0  0
    1.1061   48.3005   17.0849 C   0  0  0  0  0  0
    1.4534   48.7248   15.7944 C   0  0  0  0  0  0
    1.4542   47.8212   14.7318 C   0  0  0  0  0  0
    1.1448   46.4805   14.9535 C   0  0  0  0  0  0
    0.8337   46.0372   16.2424 C   0  0  0  0  0  0
    0.7902   46.9527   17.2995 C   0  0  0  0  0  0
    0.5197   44.2978   16.5231 S   0  0  0  0  0  0
    0.3821   44.0854   17.9682 O   0  0  0  0  0  0
   -0.5532   43.9000   15.6042 O   0  0  0  0  0  0
    2.1065   43.4704   15.9577 C   0  0  0  0  0  0
    3.5592   55.2891   29.5803 H   0  0  0  0  0  0
    1.8581   54.8390   29.5829 H   0  0  0  0  0  0
    2.4609   55.9921   28.3981 H   0  0  0  0  0  0
    5.8415   54.5820   28.3499 H   0  0  0  0  0  0
    7.4026   54.9133   26.4956 H   0  0  0  0  0  0
    6.6559   54.7320   24.1615 H   0  0  0  0  0  0
    0.6089   52.2624   28.1237 H   0  0  0  0  0  0
    0.4946   52.0284   26.3865 H   0  0  0  0  0  0
    1.9052   51.4503   27.2810 H   0  0  0  0  0  0
    2.6903   52.8956   23.8211 H   0  0  0  0  0  0
    3.4154   53.9143   20.3363 H   0  0  0  0  0  0
    2.9721   52.4508   18.4237 H   0  0  0  0  0  0
    2.4290   50.7045   23.0211 H   0  0  0  0  0  0
    3.0023   49.8027   17.8394 H   0  0  0  0  0  0
    1.7186   49.7555   15.6068 H   0  0  0  0  0  0
    1.7070   48.1582   13.7381 H   0  0  0  0  0  0
    1.1523   45.7843   14.1296 H   0  0  0  0  0  0
    0.5354   46.6117   18.2936 H   0  0  0  0  0  0
    2.0449   42.4056   16.1821 H   0  0  0  0  0  0
    2.2174   43.6147   14.8825 H   0  0  0  0  0  0
    2.9541   43.9182   16.4821 H   0  0  0  0  0  0
  1  2  1  0  0  0
  1 37  1  0  0  0
  1 38  1  0  0  0
  1 39  1  0  0  0
  2  3  1  0  0  0
  2 11  1  0  0  0
  2  4  1  0  0  0
  4  9  2  0  0  0
  4  5  1  0  0  0
  5  6  2  0  0  0
  5 40  1  0  0  0
  6  7  1  0  0  0
  6 41  1  0  0  0
  7  8  2  0  0  0
  7 42  1  0  0  0
  8  9  1  0  0  0
  8 14  1  0  0  0
  9 10  1  0  0  0
 10 11  1  0  0  0
 11 12  1  0  0  0
 11 13  1  0  0  0
 13 43  1  0  0  0
 13 44  1  0  0  0
 13 45  1  0  0  0
 14 15  2  0  0  0
 14 16  1  0  0  0
 16 17  1  0  0  0
 16 46  1  0  0  0
 17 22  2  0  0  0
 17 18  1  0  0  0
 18 19  2  0  0  0
 18 47  1  0  0  0
 19 20  1  0  0  0
 19 48  1  0  0  0
 20 21  2  0  0  0
 20 24  1  0  0  0
 21 22  1  0  0  0
 21 23  1  0  0  0
 22 49  1  0  0  0
 24 25  1  0  0  0
 24 50  1  0  0  0
 25 26  2  0  0  0
 25 27  1  0  0  0
 27 32  2  0  0  0
 27 28  1  0  0  0
 28 29  2  0  0  0
 28 51  1  0  0  0
 29 30  1  0  0  0
 29 52  1  0  0  0
 30 31  2  0  0  0
 30 53  1  0  0  0
 31 32  1  0  0  0
 31 33  1  0  0  0
 32 54  1  0  0  0
 33 34  2  0  0  0
 33 35  2  0  0  0
 33 36  1  0  0  0
 36 55  1  0  0  0
 36 56  1  0  0  0
 36 57  1  0  0  0
M  END
> <i_i_glide_confnum>
143

> <i_i_glide_lignum>
687

> <i_i_glide_posenum>
387

> <i_i_glide_rotatable_bonds>
7

> <i_m_Source_File_Index>
5190

> <b_m_subgroup_collapsed>
0

> <r_i_docking_score>
-5.25494

> <r_i_glide_ecoul>
-3.84798

> <r_i_glide_eff_state_penalty>
0

> <r_i_glide_einternal>
17.6191

> <r_i_glide_emodel>
-48.5448

> <r_i_glide_energy>
-43.3011

> <r_i_glide_erotb>
0.491839

> <r_i_glide_esite>
-0.160552

> <r_i_glide_evdw>
-39.4531

> <r_i_glide_gscore>
-5.25494

> <r_i_glide_hbond>
-0.16161

> <r_i_glide_ligand_efficiency>
-0.154557

> <r_i_glide_ligand_efficiency_ln>
-1.16096

> <r_i_glide_ligand_efficiency_sa>
-0.500705

> <r_i_glide_lipo>
-2.79117

> <r_i_glide_metal>
0

> <r_i_glide_rewards>
-0.0835965

> <s_i_glide_gridfile>
wee1_glide-grid

> <s_m_Source_File>
wee1_decoys_glide_SP.sdf

> <s_m_Source_Path>
/Users/zhangxujun/Desktop

> <s_m_entry_id>
5465

> <s_m_entry_name>
wee1_decoys_glide_SP.5190

> <s_m_subgroup_title>
wee1_decoys_glide_SP

> <s_m_subgroupid>
wee1_decoys_glide_SP


$$$$
