ZINC40038330_5513
                    3D
 Schrodinger Suite 2024-2.
 59 63  0  0  1  0            999 V2000
    6.4281   54.0964   28.0822 C   0  0  0  0  0  0
    5.0872   53.9020   27.4081 C   0  0  0  0  0  0
    3.9050   53.4027   28.0500 C   0  0  0  0  0  0
    3.5696   52.9803   29.3467 C   0  0  0  0  0  0
    2.2757   52.5194   29.5940 C   0  0  0  0  0  0
    1.3120   52.4850   28.5837 C   0  0  0  0  0  0
    1.6054   52.9090   27.2842 C   0  0  0  0  0  0
    2.9118   53.3565   27.0477 C   0  0  0  0  0  0
    3.4104   53.7749   25.8519 O   0  0  0  0  0  0
    4.7299   54.0847   26.0622 C   0  0  0  0  0  0
    5.5224   54.4974   24.9205 C   0  0  0  0  0  0
    6.5768   55.1202   25.0679 O   0  0  0  0  0  0
    4.9933   54.0985   23.7406 N   0  0  0  0  0  0
    5.4457   54.3047   22.4346 C   0  0  0  0  0  0
    4.8673   53.7595   21.2639 C   0  0  0  0  0  0
    5.5046   54.2680   20.0842 C   0  0  0  0  0  0
    6.5671   55.1411   20.3867 C   0  0  0  0  0  0
    6.8320   55.2966   22.0815 S   0  0  0  0  0  0
    7.4697   55.8318   19.3705 C   0  0  0  0  0  0
    6.7404   55.8675   18.0108 C   0  0  2  0  0  0
    5.8974   56.5582   18.0777 H   0  0  0  0  0  0
    6.2521   54.4497   17.6642 C   0  0  0  0  0  0
    5.1411   53.9626   18.6175 C   0  0  0  0  0  0
    7.6763   56.4229   16.9207 C   0  0  0  0  0  0
    3.6770   52.9100   21.2980 C   0  0  0  0  0  0
    2.8877   52.9672   22.2438 O   0  0  0  0  0  0
    3.5005   52.0843   20.2474 N   0  0  0  0  0  0
    2.3373   51.2486   19.9234 C   0  0  1  0  0  0
    2.5598   50.6567   19.0316 H   0  0  0  0  0  0
    1.9685   50.2277   21.0360 C   0  0  0  0  0  0
    0.6042   49.6006   20.7083 C   0  0  0  0  0  0
   -0.3918   50.9916   19.9366 S   0  0  0  0  0  0
   -1.2641   51.6296   20.9292 O   0  0  0  0  0  0
   -0.9446   50.5253   18.6616 O   0  0  0  0  0  0
    1.0843   52.0969   19.6343 C   0  0  0  0  0  0
    1.9585   52.0975   30.8370 F   0  0  0  0  0  0
    6.3058   54.4957   29.0911 H   0  0  0  0  0  0
    6.9768   53.1567   28.1653 H   0  0  0  0  0  0
    7.0735   54.8002   27.5562 H   0  0  0  0  0  0
    4.3041   52.9903   30.1373 H   0  0  0  0  0  0
    0.3231   52.1139   28.8192 H   0  0  0  0  0  0
    0.8677   52.8745   26.4959 H   0  0  0  0  0  0
    4.1326   53.5678   23.7965 H   0  0  0  0  0  0
    7.7280   56.8424   19.6889 H   0  0  0  0  0  0
    8.4082   55.2798   19.2857 H   0  0  0  0  0  0
    5.8618   54.4402   16.6464 H   0  0  0  0  0  0
    7.0943   53.7563   17.6323 H   0  0  0  0  0  0
    5.0184   52.8973   18.4289 H   0  0  0  0  0  0
    4.1939   54.4400   18.3641 H   0  0  0  0  0  0
    8.5600   55.7958   16.7903 H   0  0  0  0  0  0
    7.1683   56.4797   15.9572 H   0  0  0  0  0  0
    8.0158   57.4308   17.1638 H   0  0  0  0  0  0
    4.2764   51.9758   19.6071 H   0  0  0  0  0  0
    1.9149   50.7090   22.0111 H   0  0  0  0  0  0
    2.7474   49.4717   21.1423 H   0  0  0  0  0  0
    0.0477   49.1285   21.5164 H   0  0  0  0  0  0
    0.7599   48.8581   19.9252 H   0  0  0  0  0  0
    1.0326   52.6922   18.7259 H   0  0  0  0  0  0
    0.9975   52.8114   20.4530 H   0  0  0  0  0  0
  1  2  1  0  0  0
  1 37  1  0  0  0
  1 38  1  0  0  0
  1 39  1  0  0  0
  2 10  2  0  0  0
  2  3  1  0  0  0
  3  8  2  0  0  0
  3  4  1  0  0  0
  4  5  2  0  0  0
  4 40  1  0  0  0
  5  6  1  0  0  0
  5 36  1  0  0  0
  6  7  2  0  0  0
  6 41  1  0  0  0
  7  8  1  0  0  0
  7 42  1  0  0  0
  8  9  1  0  0  0
  9 10  1  0  0  0
 10 11  1  0  0  0
 11 12  2  0  0  0
 11 13  1  0  0  0
 13 14  1  0  0  0
 13 43  1  0  0  0
 14 18  1  0  0  0
 14 15  2  0  0  0
 15 16  1  0  0  0
 15 25  1  0  0  0
 16 23  1  0  0  0
 16 17  2  0  0  0
 17 18  1  0  0  0
 17 19  1  0  0  0
 19 20  1  0  0  0
 19 44  1  0  0  0
 19 45  1  0  0  0
 20 21  1  0  0  0
 20 22  1  0  0  0
 20 24  1  0  0  0
 22 23  1  0  0  0
 22 46  1  0  0  0
 22 47  1  0  0  0
 23 48  1  0  0  0
 23 49  1  0  0  0
 24 50  1  0  0  0
 24 51  1  0  0  0
 24 52  1  0  0  0
 25 26  2  0  0  0
 25 27  1  0  0  0
 27 28  1  0  0  0
 27 53  1  0  0  0
 28 29  1  0  0  0
 28 35  1  0  0  0
 28 30  1  0  0  0
 30 31  1  0  0  0
 30 54  1  0  0  0
 30 55  1  0  0  0
 31 32  1  0  0  0
 31 56  1  0  0  0
 31 57  1  0  0  0
 32 33  2  0  0  0
 32 34  2  0  0  0
 32 35  1  0  0  0
 35 58  1  0  0  0
 35 59  1  0  0  0
M  END
> <i_i_glide_confnum>
66

> <i_i_glide_lignum>
5514

> <i_i_glide_posenum>
350

> <i_i_glide_rotatable_bonds>
6

> <i_m_Source_File_Index>
3989

> <b_m_subgroup_collapsed>
0

> <r_i_docking_score>
-6.34693

> <r_i_glide_ecoul>
-5.79484

> <r_i_glide_eff_state_penalty>
0

> <r_i_glide_einternal>
6.76221

> <r_i_glide_emodel>
-77.7442

> <r_i_glide_energy>
-58.1715

> <r_i_glide_erotb>
0.481846

> <r_i_glide_esite>
-0.110694

> <r_i_glide_evdw>
-52.3766

> <r_i_glide_gscore>
-6.34693

> <r_i_glide_hbond>
-0.0156215

> <r_i_glide_ligand_efficiency>
-0.186675

> <r_i_glide_ligand_efficiency_ln>
-1.40222

> <r_i_glide_ligand_efficiency_sa>
-0.604753

> <r_i_glide_lipo>
-2.72213

> <r_i_glide_metal>
0

> <r_i_glide_rewards>
-0.492273

> <s_i_glide_gridfile>
wee1_glide-grid

> <s_m_Source_File>
wee1_decoys_glide_SP.sdf

> <s_m_Source_Path>
/Users/zhangxujun/Desktop

> <s_m_entry_id>
4264

> <s_m_entry_name>
wee1_decoys_glide_SP.3989

> <s_m_subgroup_title>
wee1_decoys_glide_SP

> <s_m_subgroupid>
wee1_decoys_glide_SP


$$$$
