ZINC24286608_3265
                    3D
 Schrodinger Suite 2024-2.
 70 75  0  0  1  0            999 V2000
    3.8727   52.2955   29.5992 C   0  0  0  0  0  0
    3.5816   53.2143   28.3867 C   0  0  1  0  0  0
    3.2091   54.1510   28.8072 H   0  0  0  0  0  0
    4.8652   53.6329   27.5891 C   0  0  0  0  0  0
    5.9594   53.3007   28.0536 O   0  0  0  0  0  0
    4.7752   54.3495   26.4309 N   0  0  0  0  0  0
    3.5242   54.8817   25.8902 C   0  0  0  0  0  0
    3.2457   54.1380   24.5742 C   0  0  0  0  0  0
    4.4170   54.2733   23.5730 C   0  0  0  0  0  0
    5.8251   54.1010   24.2037 C   0  0  0  0  0  0
    5.9661   54.7100   25.6296 C   0  0  0  0  0  0
    4.2429   53.4862   22.2505 C   0  0  0  0  0  0
    5.0797   53.6134   21.3543 O   0  0  0  0  0  0
    3.1902   52.6430   22.1826 N   0  0  0  0  0  0
    2.7594   51.8710   21.1014 C   0  0  0  0  0  0
    2.1971   50.6148   21.3996 C   0  0  0  0  0  0
    1.6289   49.8260   20.3897 C   0  0  0  0  0  0
    1.6331   50.3354   19.0970 C   0  0  0  0  0  0
    2.1796   51.5553   18.8016 C   0  0  0  0  0  0
    2.7596   52.3572   19.7789 C   0  0  0  0  0  0
    1.9733   51.8338   17.4867 O   0  0  0  0  0  0
    1.4978   50.6389   16.9253 C   0  0  0  0  0  0
    1.0725   49.8105   17.9768 O   0  0  0  0  0  0
    2.5078   52.6178   27.5660 N   0  0  0  0  0  0
    1.2048   52.5398   27.9073 C   0  0  0  0  0  0
    0.8190   52.9475   29.0048 O   0  0  0  0  0  0
    0.1794   51.9401   26.8801 C   0  0  0  0  0  0
    0.5487   52.3012   25.4068 C   0  0  0  0  0  0
   -0.4901   51.7275   24.4125 C   0  0  1  0  0  0
   -0.5086   50.1835   24.5440 C   0  0  0  0  0  0
   -0.8988   49.7929   25.9920 C   0  0  1  0  0  0
    0.1383   50.3880   26.9916 C   0  0  0  0  0  0
   -2.3111   50.3587   26.3041 C   0  0  0  0  0  0
   -2.2903   51.9015   26.1899 C   0  0  2  0  0  0
   -1.8918   52.2959   24.7430 C   0  0  0  0  0  0
   -1.2614   52.4505   27.2167 C   0  0  0  0  0  0
    4.7037   52.6744   30.1928 H   0  0  0  0  0  0
    3.0127   52.2210   30.2642 H   0  0  0  0  0  0
    4.1390   51.2909   29.2812 H   0  0  0  0  0  0
    2.7091   54.8965   26.6100 H   0  0  0  0  0  0
    3.7010   55.9350   25.6828 H   0  0  0  0  0  0
    3.1418   53.0953   24.8562 H   0  0  0  0  0  0
    2.3239   54.5502   24.1586 H   0  0  0  0  0  0
    4.3942   55.2921   23.2139 H   0  0  0  0  0  0
    6.6040   54.5421   23.5788 H   0  0  0  0  0  0
    6.0206   53.0437   24.3419 H   0  0  0  0  0  0
    5.9880   55.7977   25.5583 H   0  0  0  0  0  0
    6.9026   54.4193   26.1087 H   0  0  0  0  0  0
    2.6670   52.5110   23.0333 H   0  0  0  0  0  0
    2.1828   50.2477   22.4139 H   0  0  0  0  0  0
    1.1821   48.8715   20.6206 H   0  0  0  0  0  0
    3.1461   53.3366   19.5378 H   0  0  0  0  0  0
    2.3038   50.1405   16.3840 H   0  0  0  0  0  0
    0.6809   50.8376   16.2292 H   0  0  0  0  0  0
    2.8068   52.2481   26.6772 H   0  0  0  0  0  0
    1.5053   51.8516   25.1500 H   0  0  0  0  0  0
    0.6407   53.3774   25.2761 H   0  0  0  0  0  0
   -0.2138   52.0013   23.3921 H   0  0  0  0  0  0
   -1.2085   49.7492   23.8291 H   0  0  0  0  0  0
    0.4697   49.7678   24.2920 H   0  0  0  0  0  0
   -0.9131   48.7049   26.0817 H   0  0  0  0  0  0
   -0.1181   50.0994   28.0061 H   0  0  0  0  0  0
    1.1092   49.9384   26.7966 H   0  0  0  0  0  0
   -2.6275   50.0636   27.3052 H   0  0  0  0  0  0
   -3.0483   49.9343   25.6203 H   0  0  0  0  0  0
   -3.2802   52.2980   26.4197 H   0  0  0  0  0  0
   -2.6292   51.9134   24.0363 H   0  0  0  0  0  0
   -1.8982   53.3763   24.6217 H   0  0  0  0  0  0
   -1.2962   53.5364   27.2816 H   0  0  0  0  0  0
   -1.5520   52.0972   28.2103 H   0  0  0  0  0  0
  1  2  1  0  0  0
  1 37  1  0  0  0
  1 38  1  0  0  0
  1 39  1  0  0  0
  2  3  1  0  0  0
  2  4  1  0  0  0
  2 24  1  0  0  0
  4  5  2  0  0  0
  4  6  1  0  0  0
  6 11  1  0  0  0
  6  7  1  0  0  0
  7  8  1  0  0  0
  7 40  1  0  0  0
  7 41  1  0  0  0
  8  9  1  0  0  0
  8 42  1  0  0  0
  8 43  1  0  0  0
  9 10  1  0  0  0
  9 12  1  0  0  0
  9 44  1  0  0  0
 10 11  1  0  0  0
 10 45  1  0  0  0
 10 46  1  0  0  0
 11 47  1  0  0  0
 11 48  1  0  0  0
 12 13  2  0  0  0
 12 14  1  0  0  0
 14 15  1  0  0  0
 14 49  1  0  0  0
 15 20  2  0  0  0
 15 16  1  0  0  0
 16 17  2  0  0  0
 16 50  1  0  0  0
 17 18  1  0  0  0
 17 51  1  0  0  0
 18 23  1  0  0  0
 18 19  2  0  0  0
 19 20  1  0  0  0
 19 21  1  0  0  0
 20 52  1  0  0  0
 21 22  1  0  0  0
 22 23  1  0  0  0
 22 53  1  0  0  0
 22 54  1  0  0  0
 24 25  1  0  0  0
 24 55  1  0  0  0
 25 26  2  0  0  0
 25 27  1  0  0  0
 27 32  1  0  0  0
 27 36  1  0  0  0
 27 28  1  0  0  0
 28 29  1  0  0  0
 28 56  1  0  0  0
 28 57  1  0  0  0
 29 35  1  0  0  0
 29 30  1  0  0  0
 29 58  1  0  0  0
 30 31  1  0  0  0
 30 59  1  0  0  0
 30 60  1  0  0  0
 31 32  1  0  0  0
 31 33  1  0  0  0
 31 61  1  0  0  0
 32 62  1  0  0  0
 32 63  1  0  0  0
 33 34  1  0  0  0
 33 64  1  0  0  0
 33 65  1  0  0  0
 34 35  1  0  0  0
 34 36  1  0  0  0
 34 66  1  0  0  0
 35 67  1  0  0  0
 35 68  1  0  0  0
 36 69  1  0  0  0
 36 70  1  0  0  0
M  END
> <i_i_glide_confnum>
59

> <i_i_glide_lignum>
3266

> <i_i_glide_posenum>
82

> <i_i_glide_rotatable_bonds>
8

> <i_m_Source_File_Index>
2520

> <b_m_subgroup_collapsed>
0

> <r_i_docking_score>
-4.24775

> <r_i_glide_ecoul>
0.0927721

> <r_i_glide_eff_state_penalty>
0

> <r_i_glide_einternal>
8.05229

> <r_i_glide_emodel>
-42.6275

> <r_i_glide_energy>
-35.077

> <r_i_glide_erotb>
0.612322

> <r_i_glide_esite>
-0.0742783

> <r_i_glide_evdw>
-35.1698

> <r_i_glide_gscore>
-4.24775

> <r_i_glide_hbond>
0

> <r_i_glide_ligand_efficiency>
-0.121364

> <r_i_glide_ligand_efficiency_ln>
-0.932476

> <r_i_glide_ligand_efficiency_sa>
-0.396991

> <r_i_glide_lipo>
-1.91532

> <r_i_glide_metal>
0

> <r_i_glide_rewards>
-1.1259

> <s_i_glide_gridfile>
wee1_glide-grid

> <s_m_Source_File>
wee1_decoys_glide_SP.sdf

> <s_m_Source_Path>
/Users/zhangxujun/Desktop

> <s_m_entry_id>
2795

> <s_m_entry_name>
wee1_decoys_glide_SP.2520

> <s_m_subgroup_title>
wee1_decoys_glide_SP

> <s_m_subgroupid>
wee1_decoys_glide_SP


$$$$
