ZINC02772643_4479
                    3D
 Schrodinger Suite 2024-2.
 61 66  0  0  1  0            999 V2000
    6.4974   54.8550   23.0111 C   0  0  0  0  0  0
    6.7040   55.3345   24.2947 C   0  0  0  0  0  0
    5.7540   55.1361   25.2858 C   0  0  0  0  0  0
    4.5511   54.4514   24.9919 C   0  0  0  0  0  0
    4.2978   53.9732   23.6661 C   0  0  0  0  0  0
    5.3267   54.1745   22.6902 C   0  0  0  0  0  0
    3.0436   53.2969   23.4316 C   0  0  0  0  0  0
    2.1680   53.1544   24.5205 C   0  0  0  0  0  0
    2.5263   53.5847   25.7994 C   0  0  0  0  0  0
    3.6837   54.2561   26.0199 N   0  0  0  0  0  0
    1.6915   53.2819   27.0087 C   0  0  0  0  0  0
    0.7923   52.1849   27.0075 C   0  0  0  0  0  0
    0.0388   51.8367   28.1344 C   0  0  0  0  0  0
    0.2119   52.6036   29.2743 C   0  0  0  0  0  0
    1.0624   53.6700   29.3052 C   0  0  0  0  0  0
    1.8081   54.0437   28.1921 C   0  0  0  0  0  0
    1.0129   54.2462   30.5337 O   0  0  0  0  0  0
    0.3045   53.3413   31.3369 C   0  0  0  0  0  0
   -0.3966   52.4846   30.4809 O   0  0  0  0  0  0
    2.6504   52.7156   22.0811 C   0  0  0  0  0  0
    3.1044   53.1727   21.0361 O   0  0  0  0  0  0
    1.7965   51.6661   22.1450 N   0  0  0  0  0  0
    1.1940   50.9359   21.1183 C   0  0  0  0  0  0
    0.2677   49.8839   21.2875 C   0  0  0  0  0  0
   -0.2450   49.4184   20.0375 C   0  0  0  0  0  0
    0.2988   50.1038   18.9424 C   0  0  0  0  0  0
    1.4664   51.2793   19.4356 S   0  0  0  0  0  0
    0.0113   49.8937   17.4682 C   0  0  0  0  0  0
    0.9314   48.8397   16.8245 C   0  0  0  0  0  0
    1.1466   47.5316   17.6231 C   0  0  0  0  0  0
   -0.1447   46.7692   18.0031 C   0  0  0  0  0  0
   -0.6197   46.9341   19.4650 C   0  0  0  0  0  0
   -1.2602   48.2908   19.8320 C   0  0  0  0  0  0
   -0.2107   49.4156   22.5817 C   0  0  0  0  0  0
   -1.3930   49.1762   22.8085 O   0  0  0  0  0  0
    0.7050   49.2957   23.5421 N   0  0  0  0  0  0
    7.2559   55.0021   22.2563 H   0  0  0  0  0  0
    7.6108   55.8738   24.5197 H   0  0  0  0  0  0
    5.9312   55.4968   26.2885 H   0  0  0  0  0  0
    5.2253   53.8099   21.6839 H   0  0  0  0  0  0
    1.2086   52.6794   24.3899 H   0  0  0  0  0  0
    0.6832   51.5597   26.1348 H   0  0  0  0  0  0
   -0.6350   50.9910   28.1142 H   0  0  0  0  0  0
    2.4717   54.8936   28.2452 H   0  0  0  0  0  0
   -0.3824   53.8534   32.0141 H   0  0  0  0  0  0
    0.9939   52.7511   31.9487 H   0  0  0  0  0  0
    1.5373   51.3649   23.0713 H   0  0  0  0  0  0
    0.1105   50.8312   16.9211 H   0  0  0  0  0  0
   -1.0273   49.5946   17.3180 H   0  0  0  0  0  0
    1.9043   49.2971   16.6524 H   0  0  0  0  0  0
    0.5487   48.5983   15.8325 H   0  0  0  0  0  0
    1.7524   47.7287   18.5091 H   0  0  0  0  0  0
    1.7706   46.8797   17.0095 H   0  0  0  0  0  0
    0.0432   45.7072   17.8397 H   0  0  0  0  0  0
   -0.9543   47.0179   17.3132 H   0  0  0  0  0  0
    0.2005   46.7127   20.1478 H   0  0  0  0  0  0
   -1.3658   46.1614   19.6513 H   0  0  0  0  0  0
   -1.9854   48.5606   19.0639 H   0  0  0  0  0  0
   -1.8915   48.1409   20.7023 H   0  0  0  0  0  0
    1.6912   49.2647   23.3192 H   0  0  0  0  0  0
    0.4015   48.9881   24.4556 H   0  0  0  0  0  0
  1  6  2  0  0  0
  1  2  1  0  0  0
  1 37  1  0  0  0
  2  3  2  0  0  0
  2 38  1  0  0  0
  3  4  1  0  0  0
  3 39  1  0  0  0
  4 10  2  0  0  0
  4  5  1  0  0  0
  5  6  1  0  0  0
  5  7  2  0  0  0
  6 40  1  0  0  0
  7  8  1  0  0  0
  7 20  1  0  0  0
  8  9  2  0  0  0
  8 41  1  0  0  0
  9 10  1  0  0  0
  9 11  1  0  0  0
 11 16  2  0  0  0
 11 12  1  0  0  0
 12 13  2  0  0  0
 12 42  1  0  0  0
 13 14  1  0  0  0
 13 43  1  0  0  0
 14 19  1  0  0  0
 14 15  2  0  0  0
 15 16  1  0  0  0
 15 17  1  0  0  0
 16 44  1  0  0  0
 17 18  1  0  0  0
 18 19  1  0  0  0
 18 45  1  0  0  0
 18 46  1  0  0  0
 20 21  2  0  0  0
 20 22  1  0  0  0
 22 23  1  0  0  0
 22 47  1  0  0  0
 23 27  1  0  0  0
 23 24  2  0  0  0
 24 25  1  0  0  0
 24 34  1  0  0  0
 25 33  1  0  0  0
 25 26  2  0  0  0
 26 27  1  0  0  0
 26 28  1  0  0  0
 28 29  1  0  0  0
 28 48  1  0  0  0
 28 49  1  0  0  0
 29 30  1  0  0  0
 29 50  1  0  0  0
 29 51  1  0  0  0
 30 31  1  0  0  0
 30 52  1  0  0  0
 30 53  1  0  0  0
 31 32  1  0  0  0
 31 54  1  0  0  0
 31 55  1  0  0  0
 32 33  1  0  0  0
 32 56  1  0  0  0
 32 57  1  0  0  0
 33 58  1  0  0  0
 33 59  1  0  0  0
 34 35  2  0  0  0
 34 36  1  0  0  0
 36 60  1  0  0  0
 36 61  1  0  0  0
M  END
> <i_i_glide_confnum>
53

> <i_i_glide_lignum>
4480

> <i_i_glide_posenum>
292

> <i_i_glide_rotatable_bonds>
5

> <i_m_Source_File_Index>
4604

> <b_m_subgroup_collapsed>
0

> <r_i_docking_score>
-5.37446

> <r_i_glide_ecoul>
-1.19145

> <r_i_glide_eff_state_penalty>
0

> <r_i_glide_einternal>
3.54299

> <r_i_glide_emodel>
-60.7319

> <r_i_glide_energy>
-47.3531

> <r_i_glide_erotb>
0.327168

> <r_i_glide_esite>
-0.0502273

> <r_i_glide_evdw>
-46.1617

> <r_i_glide_gscore>
-5.37446

> <r_i_glide_hbond>
-0.0191917

> <r_i_glide_ligand_efficiency>
-0.14929

> <r_i_glide_ligand_efficiency_ln>
-1.17256

> <r_i_glide_ligand_efficiency_sa>
-0.492946

> <r_i_glide_lipo>
-2.88745

> <r_i_glide_metal>
0

> <r_i_glide_rewards>
-0.257952

> <s_i_glide_gridfile>
wee1_glide-grid

> <s_m_Source_File>
wee1_decoys_glide_SP.sdf

> <s_m_Source_Path>
/Users/zhangxujun/Desktop

> <s_m_entry_id>
4879

> <s_m_entry_name>
wee1_decoys_glide_SP.4604

> <s_m_subgroup_title>
wee1_decoys_glide_SP

> <s_m_subgroupid>
wee1_decoys_glide_SP


$$$$
