ZINC20753137_4936
                    3D
 Schrodinger Suite 2024-2.
 64 67  0  0  1  0            999 V2000
   -1.2238   49.8347   25.6322 C   0  0  0  0  0  0
   -1.6599   51.2590   26.0584 C   0  0  0  0  0  0
   -2.2567   51.9747   24.8181 C   0  0  0  0  0  0
   -2.7986   51.1218   27.1022 C   0  0  0  0  0  0
   -0.4651   52.0887   26.6655 C   0  0  1  0  0  0
   -0.9057   52.9855   27.1033 H   0  0  0  0  0  0
    0.2749   51.3767   27.8214 C   0  0  0  0  0  0
    1.1785   52.3856   28.5320 C   0  0  0  0  0  0
    2.1963   52.9820   27.5635 C   0  0  0  0  0  0
    1.9058   53.1270   26.1890 C   0  0  0  0  0  0
    2.9034   53.7000   25.3573 C   0  0  0  0  0  0
    4.1666   54.0874   25.9364 C   0  0  0  0  0  0
    5.2477   54.6917   25.2186 C   0  0  0  0  0  0
    6.4609   54.9648   25.8391 C   0  0  0  0  0  0
    6.6437   54.6751   27.1859 C   0  0  0  0  0  0
    5.6115   54.1207   27.9333 C   0  0  0  0  0  0
    4.3672   53.8259   27.3247 C   0  0  0  0  0  0
    3.3980   53.2930   28.1016 N   0  0  0  0  0  0
    2.6319   53.9459   23.8998 C   0  0  0  0  0  0
    1.6182   54.4967   23.4712 O   0  0  0  0  0  0
    3.5927   53.3996   23.1025 O   0  0  0  0  0  0
    3.6455   53.6001   21.6817 C   0  0  0  0  0  0
    3.0119   52.4312   20.9059 C   0  0  0  0  0  0
    3.3337   52.2750   19.7316 O   0  0  0  0  0  0
    2.0817   51.6951   21.5497 N   0  0  0  0  0  0
    1.2956   50.6217   21.0938 C   0  0  0  0  0  0
    0.3308   50.1573   21.9902 C   0  0  0  0  0  0
   -0.5145   49.1031   21.6490 C   0  0  0  0  0  0
   -0.4095   48.5071   20.3938 C   0  0  0  0  0  0
    0.5448   48.9639   19.4819 C   0  0  0  0  0  0
    1.4045   50.0112   19.8315 C   0  0  0  0  0  0
    0.6596   48.2365   17.8520 S   0  0  0  0  0  0
   -0.1863   47.0357   17.8413 O   0  0  0  0  0  0
    0.4635   49.3183   16.8811 O   0  0  0  0  0  0
    2.3043   47.6964   17.7188 N   0  0  0  0  0  0
    0.5958   52.5308   25.6167 C   0  0  0  0  0  0
   -0.8839   49.2431   26.4815 H   0  0  0  0  0  0
   -2.0490   49.2815   25.1783 H   0  0  0  0  0  0
   -0.4071   49.8422   24.9150 H   0  0  0  0  0  0
   -2.5286   53.0065   25.0463 H   0  0  0  0  0  0
   -1.5615   51.9948   23.9784 H   0  0  0  0  0  0
   -3.1593   51.4754   24.4604 H   0  0  0  0  0  0
   -3.1157   52.0940   27.4840 H   0  0  0  0  0  0
   -3.6807   50.6441   26.6744 H   0  0  0  0  0  0
   -2.5095   50.5033   27.9549 H   0  0  0  0  0  0
   -0.4350   50.9980   28.5570 H   0  0  0  0  0  0
    0.8154   50.4965   27.4746 H   0  0  0  0  0  0
    1.6714   51.9103   29.3818 H   0  0  0  0  0  0
    0.5793   53.1956   28.9503 H   0  0  0  0  0  0
    5.1479   54.9338   24.1715 H   0  0  0  0  0  0
    7.2573   55.4058   25.2594 H   0  0  0  0  0  0
    7.5838   54.8965   27.6700 H   0  0  0  0  0  0
    5.7555   53.9140   28.9847 H   0  0  0  0  0  0
    3.1045   54.5017   21.3891 H   0  0  0  0  0  0
    4.6816   53.7474   21.3729 H   0  0  0  0  0  0
    1.8988   51.9823   22.4997 H   0  0  0  0  0  0
    0.2269   50.6195   22.9571 H   0  0  0  0  0  0
   -1.2562   48.7561   22.3519 H   0  0  0  0  0  0
   -1.0774   47.6977   20.1346 H   0  0  0  0  0  0
    2.1333   50.3348   19.1033 H   0  0  0  0  0  0
    2.3935   46.7797   17.2777 H   0  0  0  0  0  0
    2.9550   48.3821   17.2828 H   0  0  0  0  0  0
    0.1245   53.2503   24.9495 H   0  0  0  0  0  0
    0.8791   51.6808   24.9992 H   0  0  0  0  0  0
  1  2  1  0  0  0
  1 37  1  0  0  0
  1 38  1  0  0  0
  1 39  1  0  0  0
  2  3  1  0  0  0
  2  4  1  0  0  0
  2  5  1  0  0  0
  3 40  1  0  0  0
  3 41  1  0  0  0
  3 42  1  0  0  0
  4 43  1  0  0  0
  4 44  1  0  0  0
  4 45  1  0  0  0
  5  6  1  0  0  0
  5 36  1  0  0  0
  5  7  1  0  0  0
  7  8  1  0  0  0
  7 46  1  0  0  0
  7 47  1  0  0  0
  8  9  1  0  0  0
  8 48  1  0  0  0
  8 49  1  0  0  0
  9 18  2  0  0  0
  9 10  1  0  0  0
 10 11  2  0  0  0
 10 36  1  0  0  0
 11 12  1  0  0  0
 11 19  1  0  0  0
 12 17  2  0  0  0
 12 13  1  0  0  0
 13 14  2  0  0  0
 13 50  1  0  0  0
 14 15  1  0  0  0
 14 51  1  0  0  0
 15 16  2  0  0  0
 15 52  1  0  0  0
 16 17  1  0  0  0
 16 53  1  0  0  0
 17 18  1  0  0  0
 19 20  2  0  0  0
 19 21  1  0  0  0
 21 22  1  0  0  0
 22 23  1  0  0  0
 22 54  1  0  0  0
 22 55  1  0  0  0
 23 24  2  0  0  0
 23 25  1  0  0  0
 25 26  1  0  0  0
 25 56  1  0  0  0
 26 31  2  0  0  0
 26 27  1  0  0  0
 27 28  2  0  0  0
 27 57  1  0  0  0
 28 29  1  0  0  0
 28 58  1  0  0  0
 29 30  2  0  0  0
 29 59  1  0  0  0
 30 31  1  0  0  0
 30 32  1  0  0  0
 31 60  1  0  0  0
 32 33  2  0  0  0
 32 34  2  0  0  0
 32 35  1  0  0  0
 35 61  1  0  0  0
 35 62  1  0  0  0
 36 63  1  0  0  0
 36 64  1  0  0  0
M  END
> <i_i_glide_confnum>
59

> <i_i_glide_lignum>
4937

> <i_i_glide_posenum>
239

> <i_i_glide_rotatable_bonds>
8

> <i_m_Source_File_Index>
1250

> <b_m_subgroup_collapsed>
0

> <r_i_docking_score>
-4.82278

> <r_i_glide_ecoul>
-3.91264

> <r_i_glide_eff_state_penalty>
0

> <r_i_glide_einternal>
4.25612

> <r_i_glide_emodel>
-58.7432

> <r_i_glide_energy>
-46.8975

> <r_i_glide_erotb>
0.498018

> <r_i_glide_esite>
-0.169618

> <r_i_glide_evdw>
-42.9849

> <r_i_glide_gscore>
-4.82278

> <r_i_glide_hbond>
-0.16

> <r_i_glide_ligand_efficiency>
-0.137794

> <r_i_glide_ligand_efficiency_ln>
-1.05871

> <r_i_glide_ligand_efficiency_sa>
-0.450732

> <r_i_glide_lipo>
-2.59521

> <r_i_glide_metal>
0

> <r_i_glide_rewards>
0.340176

> <s_i_glide_gridfile>
wee1_glide-grid

> <s_m_Source_File>
wee1_decoys_glide_SP.sdf

> <s_m_Source_Path>
/Users/zhangxujun/Desktop

> <s_m_entry_id>
1525

> <s_m_entry_name>
wee1_decoys_glide_SP.1250

> <s_m_subgroup_title>
wee1_decoys_glide_SP

> <s_m_subgroupid>
wee1_decoys_glide_SP


$$$$
