ZINC02253533_3229
                    3D
 Schrodinger Suite 2024-2.
 60 64  0  0  1  0            999 V2000
   -0.5415   51.4428   16.5593 C   0  0  0  0  0  0
   -1.3440   51.6443   17.7212 O   0  0  0  0  0  0
   -0.9035   51.1639   18.9420 C   0  0  0  0  0  0
    0.2655   50.4065   19.1020 C   0  0  0  0  0  0
    0.6447   49.9516   20.3599 C   0  0  0  0  0  0
   -0.0958   50.2860   21.5000 C   0  0  0  0  0  0
   -1.2839   51.0230   21.3462 C   0  0  0  0  0  0
   -1.6960   51.4331   20.0672 C   0  0  0  0  0  0
   -2.8904   52.0966   19.9108 O   0  0  0  0  0  0
   -3.9609   51.2499   19.5017 C   0  0  0  0  0  0
   -2.0882   51.2612   22.4355 O   0  0  0  0  0  0
   -1.9611   52.5511   23.0130 C   0  0  0  0  0  0
    0.3968   49.8156   22.8792 C   0  0  1  0  0  0
    1.2517   49.1631   22.6961 H   0  0  0  0  0  0
    0.8675   50.9394   23.8309 C   0  0  0  0  0  0
    1.7455   52.0524   23.7630 C   0  0  0  0  0  0
    1.7250   52.7363   24.8978 N   0  0  0  0  0  0
    0.9264   52.0964   25.7721 N   0  0  0  0  0  0
    0.3633   51.0195   25.1200 C   0  0  0  0  0  0
   -0.5186   50.1612   25.7188 O   0  0  0  0  0  0
   -0.9705   49.1595   24.9223 C   0  0  0  0  0  0
   -0.6180   48.9297   23.6334 C   0  0  0  0  0  0
   -1.2119   47.8346   22.9341 C   0  0  0  0  0  0
   -1.7023   46.9353   22.3941 N   0  0  0  0  0  0
   -1.8253   48.4107   25.6817 N   0  0  0  0  0  0
    0.8107   52.5438   27.1297 C   0  0  0  0  0  0
    1.5051   53.6937   27.5599 C   0  0  0  0  0  0
    1.3941   54.1439   28.8739 C   0  0  0  0  0  0
    0.6053   53.4415   29.7804 C   0  0  0  0  0  0
   -0.0721   52.2925   29.3840 C   0  0  0  0  0  0
    0.0295   51.8450   28.0681 C   0  0  0  0  0  0
    2.6551   52.5056   22.6510 C   0  0  0  0  0  0
    3.1032   51.6001   21.6818 C   0  0  0  0  0  0
    3.9810   52.0005   20.6804 C   0  0  0  0  0  0
    4.4497   53.3098   20.6634 C   0  0  0  0  0  0
    4.0429   54.2167   21.6372 C   0  0  0  0  0  0
    3.1365   53.8220   22.6153 C   0  0  0  0  0  0
   -1.0198   51.9225   15.7057 H   0  0  0  0  0  0
   -0.4319   50.3819   16.3225 H   0  0  0  0  0  0
    0.4505   51.8866   16.6740 H   0  0  0  0  0  0
    0.8914   50.1508   18.2607 H   0  0  0  0  0  0
    1.5372   49.3481   20.4330 H   0  0  0  0  0  0
   -4.8423   51.8519   19.2816 H   0  0  0  0  0  0
   -3.7209   50.6864   18.5977 H   0  0  0  0  0  0
   -4.2263   50.5441   20.2900 H   0  0  0  0  0  0
   -2.3268   52.5215   24.0405 H   0  0  0  0  0  0
   -0.9275   52.8967   23.0456 H   0  0  0  0  0  0
   -2.5540   53.2903   22.4816 H   0  0  0  0  0  0
   -2.3340   47.6365   25.2881 H   0  0  0  0  0  0
   -1.7144   48.4205   26.6981 H   0  0  0  0  0  0
    2.1287   54.2582   26.8812 H   0  0  0  0  0  0
    1.9216   55.0323   29.1886 H   0  0  0  0  0  0
    0.5204   53.7851   30.8012 H   0  0  0  0  0  0
   -0.6749   51.7454   30.0966 H   0  0  0  0  0  0
   -0.5139   50.9470   27.8277 H   0  0  0  0  0  0
    2.8133   50.5664   21.7323 H   0  0  0  0  0  0
    4.3044   51.2942   19.9297 H   0  0  0  0  0  0
    5.1407   53.6162   19.8928 H   0  0  0  0  0  0
    4.4195   55.2290   21.6331 H   0  0  0  0  0  0
    2.8261   54.5438   23.3571 H   0  0  0  0  0  0
  1  2  1  0  0  0
  1 38  1  0  0  0
  1 39  1  0  0  0
  1 40  1  0  0  0
  2  3  1  0  0  0
  3  8  2  0  0  0
  3  4  1  0  0  0
  4  5  2  0  0  0
  4 41  1  0  0  0
  5  6  1  0  0  0
  5 42  1  0  0  0
  6  7  2  0  0  0
  6 13  1  0  0  0
  7  8  1  0  0  0
  7 11  1  0  0  0
  8  9  1  0  0  0
  9 10  1  0  0  0
 10 43  1  0  0  0
 10 44  1  0  0  0
 10 45  1  0  0  0
 11 12  1  0  0  0
 12 46  1  0  0  0
 12 47  1  0  0  0
 12 48  1  0  0  0
 13 14  1  0  0  0
 13 22  1  0  0  0
 13 15  1  0  0  0
 15 19  2  0  0  0
 15 16  1  0  0  0
 16 17  2  0  0  0
 16 32  1  0  0  0
 17 18  1  0  0  0
 18 19  1  0  0  0
 18 26  1  0  0  0
 19 20  1  0  0  0
 20 21  1  0  0  0
 21 22  2  0  0  0
 21 25  1  0  0  0
 22 23  1  0  0  0
 23 24  3  0  0  0
 25 49  1  0  0  0
 25 50  1  0  0  0
 26 31  2  0  0  0
 26 27  1  0  0  0
 27 28  2  0  0  0
 27 51  1  0  0  0
 28 29  1  0  0  0
 28 52  1  0  0  0
 29 30  2  0  0  0
 29 53  1  0  0  0
 30 31  1  0  0  0
 30 54  1  0  0  0
 31 55  1  0  0  0
 32 37  2  0  0  0
 32 33  1  0  0  0
 33 34  2  0  0  0
 33 56  1  0  0  0
 34 35  1  0  0  0
 34 57  1  0  0  0
 35 36  2  0  0  0
 35 58  1  0  0  0
 36 37  1  0  0  0
 36 59  1  0  0  0
 37 60  1  0  0  0
M  END
> <i_i_glide_confnum>
7

> <i_i_glide_lignum>
3230

> <i_i_glide_posenum>
303

> <i_i_glide_rotatable_bonds>
7

> <i_m_Source_File_Index>
1477

> <b_m_subgroup_collapsed>
0

> <r_i_docking_score>
-4.75091

> <r_i_glide_ecoul>
-7.57189

> <r_i_glide_eff_state_penalty>
0

> <r_i_glide_einternal>
4.28525

> <r_i_glide_emodel>
-54.9925

> <r_i_glide_energy>
-43.4104

> <r_i_glide_erotb>
0.263492

> <r_i_glide_esite>
-0.103367

> <r_i_glide_evdw>
-35.8385

> <r_i_glide_gscore>
-4.75091

> <r_i_glide_hbond>
-0.456

> <r_i_glide_ligand_efficiency>
-0.13197

> <r_i_glide_ligand_efficiency_ln>
-1.03652

> <r_i_glide_ligand_efficiency_sa>
-0.435754

> <r_i_glide_lipo>
-1.31801

> <r_i_glide_metal>
0

> <r_i_glide_rewards>
-0.20932

> <s_i_glide_gridfile>
wee1_glide-grid

> <s_m_Source_File>
wee1_decoys_glide_SP.sdf

> <s_m_Source_Path>
/Users/zhangxujun/Desktop

> <s_m_entry_id>
1752

> <s_m_entry_name>
wee1_decoys_glide_SP.1477

> <s_m_subgroup_title>
wee1_decoys_glide_SP

> <s_m_subgroupid>
wee1_decoys_glide_SP


$$$$
