ZINC12561594_1138
                    3D
 Schrodinger Suite 2024-2.
 55 59  0  0  1  0            999 V2000
    5.6187   55.1962   19.9708 C   0  0  0  0  0  0
    6.7851   55.5627   20.6381 C   0  0  0  0  0  0
    6.9538   55.2185   21.9775 C   0  0  0  0  0  0
    5.9631   54.4967   22.6536 C   0  0  0  0  0  0
    4.7765   54.1364   21.9898 C   0  0  0  0  0  0
    4.6184   54.4964   20.6457 C   0  0  0  0  0  0
    3.6951   53.4443   22.7249 C   0  0  0  0  0  0
    3.0855   52.2655   22.4301 C   0  0  0  0  0  0
    3.5137   51.4452   21.2037 C   0  0  0  0  0  0
    2.3934   50.5012   20.7451 C   0  0  0  0  0  0
    1.9037   49.6139   21.8984 C   0  0  0  0  0  0
    1.4833   50.4634   23.0987 C   0  0  0  0  0  0
    2.0498   51.6884   23.3228 C   0  0  0  0  0  0
    1.6794   52.3551   24.4831 N   0  3  0  0  0  0
    0.9527   51.8089   25.4596 C   0  0  0  0  0  0
    0.8775   52.2453   26.7098 N   0  0  0  0  0  0
    0.3028   51.2963   27.3440 C   0  0  0  0  0  0
    0.0249   50.2131   26.4822 N   0  0  0  0  0  0
    0.3046   50.6803   25.2429 N   0  0  0  0  0  0
    0.5001   49.8005   24.0908 C   0  0  1  0  0  0
    0.9732   48.8922   24.4682 H   0  0  0  0  0  0
   -0.8534   49.4347   23.4780 C   0  0  0  0  0  0
   -1.2612   48.0964   23.4767 C   0  0  0  0  0  0
   -2.4883   47.7327   22.9249 C   0  0  0  0  0  0
   -3.3187   48.7041   22.3696 C   0  0  0  0  0  0
   -2.9256   50.0415   22.3735 C   0  0  0  0  0  0
   -1.7028   50.4196   22.9384 C   0  0  0  0  0  0
   -1.3116   51.7405   22.9352 O   0  0  0  0  0  0
   -2.0636   52.6327   23.7566 C   0  0  0  0  0  0
   -3.2867   52.8587   23.2855 F   0  0  0  0  0  0
   -2.1164   52.2549   25.0340 F   0  0  0  0  0  0
    6.1948   54.0975   23.9485 O   0  0  0  0  0  0
    6.0367   55.1034   24.9404 C   0  0  0  0  0  0
    4.7986   55.0787   25.4336 F   0  0  0  0  0  0
    6.9079   54.8911   25.9252 F   0  0  0  0  0  0
    5.4812   55.4648   18.9331 H   0  0  0  0  0  0
    7.5640   56.0971   20.1133 H   0  0  0  0  0  0
    7.8719   55.4827   22.4818 H   0  0  0  0  0  0
    3.7020   54.2639   20.1208 H   0  0  0  0  0  0
    3.3856   53.9904   23.6019 H   0  0  0  0  0  0
    3.7592   52.0730   20.3509 H   0  0  0  0  0  0
    4.4289   50.8965   21.4222 H   0  0  0  0  0  0
    1.5586   51.0848   20.3522 H   0  0  0  0  0  0
    2.7463   49.8821   19.9179 H   0  0  0  0  0  0
    1.0803   48.9843   21.5599 H   0  0  0  0  0  0
    2.6910   48.9194   22.1975 H   0  0  0  0  0  0
    0.0367   51.3168   28.3994 H   0  0  0  0  0  0
   -0.7026   49.5118   26.6024 H   0  0  0  0  0  0
   -0.6270   47.3316   23.9017 H   0  0  0  0  0  0
   -2.7954   46.6974   22.9248 H   0  0  0  0  0  0
   -4.2677   48.4220   21.9373 H   0  0  0  0  0  0
   -3.5746   50.7846   21.9353 H   0  0  0  0  0  0
   -1.5614   53.5997   23.7533 H   0  0  0  0  0  0
    6.2410   56.1130   24.5772 H   0  0  0  0  0  0
    2.1341   53.2305   24.6930 H   0  0  0  0  0  0
  1  6  2  0  0  0
  1  2  1  0  0  0
  1 36  1  0  0  0
  2  3  2  0  0  0
  2 37  1  0  0  0
  3  4  1  0  0  0
  3 38  1  0  0  0
  4  5  2  0  0  0
  4 32  1  0  0  0
  5  6  1  0  0  0
  5  7  1  0  0  0
  6 39  1  0  0  0
  7  8  2  0  0  0
  7 40  1  0  0  0
  8 13  1  0  0  0
  8  9  1  0  0  0
  9 10  1  0  0  0
  9 41  1  0  0  0
  9 42  1  0  0  0
 10 11  1  0  0  0
 10 43  1  0  0  0
 10 44  1  0  0  0
 11 12  1  0  0  0
 11 45  1  0  0  0
 11 46  1  0  0  0
 12 20  1  0  0  0
 12 13  2  0  0  0
 13 14  1  0  0  0
 14 15  2  0  0  0
 14 55  1  0  0  0
 15 19  1  0  0  0
 15 16  1  0  0  0
 16 17  2  0  0  0
 17 18  1  0  0  0
 17 47  1  0  0  0
 18 19  1  0  0  0
 18 48  1  0  0  0
 19 20  1  0  0  0
 20 21  1  0  0  0
 20 22  1  0  0  0
 22 27  2  0  0  0
 22 23  1  0  0  0
 23 24  2  0  0  0
 23 49  1  0  0  0
 24 25  1  0  0  0
 24 50  1  0  0  0
 25 26  2  0  0  0
 25 51  1  0  0  0
 26 27  1  0  0  0
 26 52  1  0  0  0
 27 28  1  0  0  0
 28 29  1  0  0  0
 29 30  1  0  0  0
 29 31  1  0  0  0
 29 53  1  0  0  0
 32 33  1  0  0  0
 33 34  1  0  0  0
 33 35  1  0  0  0
 33 54  1  0  0  0
M  CHG  1  14   1
M  END
> <i_i_glide_confnum>
22

> <i_i_glide_lignum>
1139

> <i_i_glide_posenum>
312

> <i_i_glide_rotatable_bonds>
6

> <i_m_Source_File_Index>
1322

> <b_m_subgroup_collapsed>
0

> <r_i_docking_score>
-4.85818

> <r_i_glide_ecoul>
-4.65603

> <r_i_glide_eff_state_penalty>
0

> <r_i_glide_einternal>
2.22297

> <r_i_glide_emodel>
-53.4378

> <r_i_glide_energy>
-40.6114

> <r_i_glide_erotb>
0.360968

> <r_i_glide_esite>
-0.110468

> <r_i_glide_evdw>
-35.9554

> <r_i_glide_gscore>
-4.85818

> <r_i_glide_hbond>
-0.0478332

> <r_i_glide_ligand_efficiency>
-0.142888

> <r_i_glide_ligand_efficiency_ln>
-1.07331

> <r_i_glide_ligand_efficiency_sa>
-0.462901

> <r_i_glide_lipo>
-1.7978

> <r_i_glide_metal>
0

> <r_i_glide_rewards>
-0.766869

> <s_i_glide_gridfile>
wee1_glide-grid

> <s_m_Source_File>
wee1_decoys_glide_SP.sdf

> <s_m_Source_Path>
/Users/zhangxujun/Desktop

> <s_m_entry_id>
1597

> <s_m_entry_name>
wee1_decoys_glide_SP.1322

> <s_m_subgroup_title>
wee1_decoys_glide_SP

> <s_m_subgroupid>
wee1_decoys_glide_SP


$$$$
