ZINC43424145_1686
                    3D
 Schrodinger Suite 2024-2.
 38 40  0  0  1  0            999 V2000
    1.2153   50.7181   23.8115 C   0  0  0  0  0  0
    0.4992   49.5854   24.2013 C   0  0  0  0  0  0
   -0.3359   49.6232   25.3196 C   0  0  0  0  0  0
   -0.4792   50.8206   26.0406 C   0  0  0  0  0  0
    0.1934   51.9655   25.6070 C   0  0  0  0  0  0
    1.0798   51.9141   24.5239 C   0  0  0  0  0  0
    2.0423   53.3694   24.0663 S   0  0  0  0  0  0
    1.1044   54.4886   23.9873 O   0  0  0  0  0  0
    2.8407   53.0055   22.8905 O   0  0  0  0  0  0
    3.1354   53.7170   25.4345 N   0  0  0  0  0  0
    2.6053   53.6967   26.8325 C   0  0  0  0  0  0
    3.4553   54.4967   27.8597 C   0  0  0  0  0  0
    4.8589   54.4734   27.5781 O   0  0  0  0  0  0
    5.1349   54.8967   26.2486 C   0  0  2  0  0  0
    4.6862   55.8767   26.0814 H   0  0  0  0  0  0
    4.6066   53.8434   25.3065 C   0  0  2  0  0  0
    4.9705   52.8967   25.6822 H   0  0  0  0  0  0
    5.3116   54.1273   23.9811 C   0  0  0  0  0  0
    6.7044   54.6225   24.4074 C   0  0  0  0  0  0
    6.6226   54.9616   25.9113 C   0  0  0  0  0  0
   -1.2654   50.8967   27.1973 N   0  0  0  0  0  0
   -1.0006   48.4764   25.6817 O   0  0  0  0  0  0
    1.8833   50.6551   22.9641 H   0  0  0  0  0  0
    0.6181   48.6628   23.6524 H   0  0  0  0  0  0
    0.0415   52.8906   26.1375 H   0  0  0  0  0  0
    2.6438   52.6564   27.1582 H   0  0  0  0  0  0
    1.5813   54.0626   26.8450 H   0  0  0  0  0  0
    3.2882   54.1154   28.8673 H   0  0  0  0  0  0
    3.1055   55.5294   27.8579 H   0  0  0  0  0  0
    4.7790   54.8965   23.4227 H   0  0  0  0  0  0
    5.3728   53.2446   23.3440 H   0  0  0  0  0  0
    7.4594   53.8535   24.2346 H   0  0  0  0  0  0
    7.0021   55.4919   23.8183 H   0  0  0  0  0  0
    7.1885   54.2555   26.5213 H   0  0  0  0  0  0
    7.0162   55.9604   26.0980 H   0  0  0  0  0  0
   -1.4932   50.0187   27.6742 H   0  0  0  0  0  0
   -1.2504   51.7480   27.7370 H   0  0  0  0  0  0
   -1.2883   48.4765   26.6120 H   0  0  0  0  0  0
  1  6  2  0  0  0
  1  2  1  0  0  0
  1 23  1  0  0  0
  2  3  2  0  0  0
  2 24  1  0  0  0
  3  4  1  0  0  0
  3 22  1  0  0  0
  4  5  2  0  0  0
  4 21  1  0  0  0
  5  6  1  0  0  0
  5 25  1  0  0  0
  6  7  1  0  0  0
  7  8  2  0  0  0
  7  9  2  0  0  0
  7 10  1  0  0  0
 10 16  1  0  0  0
 10 11  1  0  0  0
 11 12  1  0  0  0
 11 26  1  0  0  0
 11 27  1  0  0  0
 12 13  1  0  0  0
 12 28  1  0  0  0
 12 29  1  0  0  0
 13 14  1  0  0  0
 14 15  1  0  0  0
 14 20  1  0  0  0
 14 16  1  0  0  0
 16 17  1  0  0  0
 16 18  1  0  0  0
 18 19  1  0  0  0
 18 30  1  0  0  0
 18 31  1  0  0  0
 19 20  1  0  0  0
 19 32  1  0  0  0
 19 33  1  0  0  0
 20 34  1  0  0  0
 20 35  1  0  0  0
 21 36  1  0  0  0
 21 37  1  0  0  0
 22 38  1  0  0  0
M  END
> <i_i_glide_confnum>
3

> <i_i_glide_lignum>
1687

> <i_i_glide_posenum>
395

> <i_i_glide_rotatable_bonds>
3

> <i_m_Source_File_Index>
5412

> <b_m_subgroup_collapsed>
0

> <r_i_docking_score>
-5.26833

> <r_i_glide_ecoul>
-5.94919

> <r_i_glide_eff_state_penalty>
0

> <r_i_glide_einternal>
5.53437

> <r_i_glide_emodel>
-39.0982

> <r_i_glide_energy>
-33.8343

> <r_i_glide_erotb>
0.41227

> <r_i_glide_esite>
-0.1

> <r_i_glide_evdw>
-27.8851

> <r_i_glide_gscore>
-5.26833

> <r_i_glide_hbond>
-0.304

> <r_i_glide_ligand_efficiency>
-0.263416

> <r_i_glide_ligand_efficiency_ln>
-1.31849

> <r_i_glide_ligand_efficiency_sa>
-0.715022

> <r_i_glide_lipo>
-1.96651

> <r_i_glide_metal>
0

> <r_i_glide_rewards>
-1.02345

> <s_i_glide_gridfile>
wee1_glide-grid

> <s_m_Source_File>
wee1_decoys_glide_SP.sdf

> <s_m_Source_Path>
/Users/zhangxujun/Desktop

> <s_m_entry_id>
5687

> <s_m_entry_name>
wee1_decoys_glide_SP.5412

> <s_m_subgroup_title>
wee1_decoys_glide_SP

> <s_m_subgroupid>
wee1_decoys_glide_SP


$$$$
