ZINC38971664_3501
                    3D
 Schrodinger Suite 2024-2.
 53 56  0  0  1  0            999 V2000
   -0.7261   51.1021   27.8574 C   0  0  0  0  0  0
   -0.3084   50.8968   26.4154 C   0  0  0  0  0  0
    0.2682   49.6964   25.9997 C   0  0  0  0  0  0
    0.6613   49.5309   24.6722 C   0  0  0  0  0  0
    0.4826   50.5581   23.7348 C   0  0  0  0  0  0
   -0.1245   51.7580   24.1568 C   0  0  0  0  0  0
   -0.4993   51.9204   25.4923 C   0  0  0  0  0  0
   -0.4151   52.8968   23.2038 C   0  0  0  0  0  0
    1.0255   50.3041   22.0217 S   0  0  0  0  0  0
   -0.1689   50.6471   21.2399 O   0  0  0  0  0  0
    1.4201   48.8967   21.9818 O   0  0  0  0  0  0
    2.3571   51.4525   22.0752 N   0  0  0  0  0  0
    2.7615   51.9764   20.9847 C   0  0  0  0  0  0
    3.8808   53.0673   21.1057 C   0  0  1  0  0  0
    4.7793   52.5508   21.4491 H   0  0  0  0  0  0
    4.2950   53.6569   19.7889 N   0  3  0  0  0  0
    3.7977   53.2803   18.6200 C   0  0  0  0  0  0
    4.2403   53.8626   17.4306 C   0  0  0  0  0  0
    3.7250   53.4281   16.2497 C   0  0  0  0  0  0
    2.7130   52.3718   16.1791 C   0  0  0  0  0  0
    2.2551   51.7971   17.3163 C   0  0  0  0  0  0
    2.7288   52.1801   18.6279 C   0  0  0  0  0  0
    2.2960   51.6366   19.7087 N   0  0  0  0  0  0
    3.5040   54.0971   22.0749 N   0  0  0  0  0  0
    4.0993   54.1110   23.3410 C   0  0  0  0  0  0
    3.2733   54.2214   24.4564 C   0  0  0  0  0  0
    3.8308   54.3182   25.7265 C   0  0  0  0  0  0
    5.2204   54.3412   25.8867 C   0  0  0  0  0  0
    6.0467   54.2195   24.7599 C   0  0  0  0  0  0
    5.4869   54.0964   23.4916 C   0  0  0  0  0  0
    5.8078   54.4967   27.2647 C   0  0  0  0  0  0
    5.1502   54.3427   28.2915 O   0  0  0  0  0  0
    7.1044   54.8965   27.2818 O   0  0  0  0  0  0
   -0.6254   52.1474   28.1539 H   0  0  0  0  0  0
   -1.7624   50.7922   28.0021 H   0  0  0  0  0  0
   -0.0945   50.5220   28.5304 H   0  0  0  0  0  0
    0.3978   48.8835   26.7004 H   0  0  0  0  0  0
    1.1041   48.5896   24.3839 H   0  0  0  0  0  0
   -0.9589   52.8425   25.8180 H   0  0  0  0  0  0
   -0.7398   53.7935   23.7275 H   0  0  0  0  0  0
    0.4683   53.1694   22.6343 H   0  0  0  0  0  0
   -1.1970   52.6093   22.5030 H   0  0  0  0  0  0
    4.9922   54.6401   17.4523 H   0  0  0  0  0  0
    4.0746   53.8760   15.3290 H   0  0  0  0  0  0
    2.3542   52.0300   15.2184 H   0  0  0  0  0  0
    1.5274   51.0032   17.2289 H   0  0  0  0  0  0
    2.5158   54.3108   22.0616 H   0  0  0  0  0  0
    2.1988   54.2377   24.3494 H   0  0  0  0  0  0
    3.1725   54.4024   26.5802 H   0  0  0  0  0  0
    7.1243   54.2216   24.8492 H   0  0  0  0  0  0
    6.1362   54.0318   22.6321 H   0  0  0  0  0  0
    7.3446   55.1112   28.1939 H   0  0  0  0  0  0
    4.9946   54.3918   19.8031 H   0  0  0  0  0  0
  1  2  1  0  0  0
  1 34  1  0  0  0
  1 35  1  0  0  0
  1 36  1  0  0  0
  2  7  2  0  0  0
  2  3  1  0  0  0
  3  4  2  0  0  0
  3 37  1  0  0  0
  4  5  1  0  0  0
  4 38  1  0  0  0
  5  6  2  0  0  0
  5  9  1  0  0  0
  6  7  1  0  0  0
  6  8  1  0  0  0
  7 39  1  0  0  0
  8 40  1  0  0  0
  8 41  1  0  0  0
  8 42  1  0  0  0
  9 10  2  0  0  0
  9 11  2  0  0  0
  9 12  1  0  0  0
 12 13  2  0  0  0
 13 23  1  0  0  0
 13 14  1  0  0  0
 14 15  1  0  0  0
 14 16  1  0  0  0
 14 24  1  0  0  0
 16 17  2  0  0  0
 16 53  1  0  0  0
 17 22  1  0  0  0
 17 18  1  0  0  0
 18 19  2  0  0  0
 18 43  1  0  0  0
 19 20  1  0  0  0
 19 44  1  0  0  0
 20 21  2  0  0  0
 20 45  1  0  0  0
 21 22  1  0  0  0
 21 46  1  0  0  0
 22 23  2  0  0  0
 24 25  1  0  0  0
 24 47  1  0  0  0
 25 30  2  0  0  0
 25 26  1  0  0  0
 26 27  2  0  0  0
 26 48  1  0  0  0
 27 28  1  0  0  0
 27 49  1  0  0  0
 28 29  2  0  0  0
 28 31  1  0  0  0
 29 30  1  0  0  0
 29 50  1  0  0  0
 30 51  1  0  0  0
 31 32  2  0  0  0
 31 33  1  0  0  0
 33 52  1  0  0  0
M  CHG  1  16   1
M  END
> <i_i_glide_confnum>
47

> <i_i_glide_lignum>
3502

> <i_i_glide_posenum>
209

> <i_i_glide_rotatable_bonds>
6

> <i_m_Source_File_Index>
631

> <b_m_subgroup_collapsed>
0

> <r_i_docking_score>
-4.57802

> <r_i_glide_ecoul>
-7.16671

> <r_i_glide_eff_state_penalty>
0

> <r_i_glide_einternal>
15.0046

> <r_i_glide_emodel>
-54.0383

> <r_i_glide_energy>
-48.6507

> <r_i_glide_erotb>
0.495944

> <r_i_glide_esite>
-0.0117459

> <r_i_glide_evdw>
-41.484

> <r_i_glide_gscore>
-4.57802

> <r_i_glide_hbond>
-0.00585931

> <r_i_glide_ligand_efficiency>
-0.143063

> <r_i_glide_ligand_efficiency_ln>
-1.02514

> <r_i_glide_ligand_efficiency_sa>
-0.454197

> <r_i_glide_lipo>
-1.6421

> <r_i_glide_metal>
0

> <r_i_glide_rewards>
-0.265059

> <s_i_glide_gridfile>
wee1_glide-grid

> <s_m_Source_File>
wee1_decoys_glide_SP.sdf

> <s_m_Source_Path>
/Users/zhangxujun/Desktop

> <s_m_entry_id>
906

> <s_m_entry_name>
wee1_decoys_glide_SP.631

> <s_m_subgroup_title>
wee1_decoys_glide_SP

> <s_m_subgroupid>
wee1_decoys_glide_SP


$$$$
