ZINC35425609_1623
                    3D
 Schrodinger Suite 2024-2.
 37 37  0  0  1  0            999 V2000
    5.7097   53.6413   19.5148 C   0  0  0  0  0  0
    4.6865   54.0780   20.5891 C   0  0  2  0  0  0
    4.3191   55.0447   20.2536 H   0  0  0  0  0  0
    5.2942   54.3651   21.9931 C   0  0  0  0  0  0
    6.4049   54.8975   22.0642 O   0  0  0  0  0  0
    4.5147   54.0730   23.0567 N   0  0  0  0  0  0
    4.8239   54.2430   24.3957 C   0  0  0  0  0  0
    6.0275   54.4971   25.0521 C   0  0  0  0  0  0
    5.8744   54.5610   26.4450 C   0  0  0  0  0  0
    4.5577   54.3712   26.8769 C   0  0  0  0  0  0
    3.5062   54.0964   25.5113 S   0  0  0  0  0  0
    3.9993   54.3788   28.2369 C   0  0  0  0  0  0
    4.8111   54.5029   29.1803 O   0  0  0  0  0  0
    2.7579   54.2750   28.3672 O   0  5  0  0  0  0
    3.5042   53.2008   20.5500 N   0  0  0  0  0  0
    3.4673   51.8908   20.8689 C   0  0  0  0  0  0
    4.4650   51.2968   21.2783 O   0  0  0  0  0  0
    2.1256   51.1138   20.7047 C   0  0  0  0  0  0
    0.9139   52.0449   20.4147 C   0  0  0  0  0  0
    1.8330   50.3198   22.0064 C   0  0  0  0  0  0
    2.2784   50.1121   19.5319 C   0  0  0  0  0  0
    6.6452   54.1960   19.5793 H   0  0  0  0  0  0
    5.9370   52.5767   19.5827 H   0  0  0  0  0  0
    5.3109   53.8117   18.5129 H   0  0  0  0  0  0
    3.6176   53.6584   22.8558 H   0  0  0  0  0  0
    6.9776   54.6167   24.5495 H   0  0  0  0  0  0
    6.6907   54.7407   27.1303 H   0  0  0  0  0  0
    2.6549   53.6435   20.2195 H   0  0  0  0  0  0
   -0.0166   51.4794   20.3493 H   0  0  0  0  0  0
    1.0248   52.5765   19.4693 H   0  0  0  0  0  0
    0.7783   52.7954   21.1956 H   0  0  0  0  0  0
    2.6345   49.6188   22.2484 H   0  0  0  0  0  0
    1.7162   50.9846   22.8661 H   0  0  0  0  0  0
    0.9162   49.7361   21.9237 H   0  0  0  0  0  0
    3.1023   49.4131   19.6926 H   0  0  0  0  0  0
    1.3759   49.5128   19.3950 H   0  0  0  0  0  0
    2.4738   50.6186   18.5831 H   0  0  0  0  0  0
  1  2  1  0  0  0
  1 22  1  0  0  0
  1 23  1  0  0  0
  1 24  1  0  0  0
  2  3  1  0  0  0
  2  4  1  0  0  0
  2 15  1  0  0  0
  4  5  2  0  0  0
  4  6  1  0  0  0
  6  7  1  0  0  0
  6 25  1  0  0  0
  7 11  1  0  0  0
  7  8  2  0  0  0
  8  9  1  0  0  0
  8 26  1  0  0  0
  9 10  2  0  0  0
  9 27  1  0  0  0
 10 11  1  0  0  0
 10 12  1  0  0  0
 12 13  2  0  0  0
 12 14  1  0  0  0
 15 16  1  0  0  0
 15 28  1  0  0  0
 16 17  2  0  0  0
 16 18  1  0  0  0
 18 19  1  0  0  0
 18 20  1  0  0  0
 18 21  1  0  0  0
 19 29  1  0  0  0
 19 30  1  0  0  0
 19 31  1  0  0  0
 20 32  1  0  0  0
 20 33  1  0  0  0
 20 34  1  0  0  0
 21 35  1  0  0  0
 21 36  1  0  0  0
 21 37  1  0  0  0
M  CHG  1  14  -1
M  END
> <i_i_glide_confnum>
7

> <i_i_glide_lignum>
1624

> <i_i_glide_posenum>
391

> <i_i_glide_rotatable_bonds>
7

> <i_m_Source_File_Index>
4816

> <b_m_subgroup_collapsed>
0

> <r_i_docking_score>
-5.31853

> <r_i_glide_ecoul>
-5.68844

> <r_i_glide_eff_state_penalty>
0

> <r_i_glide_einternal>
3.15155

> <r_i_glide_emodel>
-49.1047

> <r_i_glide_energy>
-36.8979

> <r_i_glide_erotb>
1.03679

> <r_i_glide_esite>
-0.0244927

> <r_i_glide_evdw>
-31.2095

> <r_i_glide_gscore>
-5.31853

> <r_i_glide_hbond>
-0.316438

> <r_i_glide_ligand_efficiency>
-0.265927

> <r_i_glide_ligand_efficiency_ln>
-1.33105

> <r_i_glide_ligand_efficiency_sa>
-0.721836

> <r_i_glide_lipo>
-1.56877

> <r_i_glide_metal>
0

> <r_i_glide_rewards>
-2.03189

> <s_i_glide_gridfile>
wee1_glide-grid

> <s_m_Source_File>
wee1_decoys_glide_SP.sdf

> <s_m_Source_Path>
/Users/zhangxujun/Desktop

> <s_m_entry_id>
5091

> <s_m_entry_name>
wee1_decoys_glide_SP.4816

> <s_m_subgroup_title>
wee1_decoys_glide_SP

> <s_m_subgroupid>
wee1_decoys_glide_SP


$$$$
