ZINC38547922_171
                    3D
 Schrodinger Suite 2024-2.
 57 61  0  0  1  0            999 V2000
    0.8455   51.2528   20.2558 C   0  0  0  0  0  0
   -0.0168   52.3592   20.8838 C   0  0  0  0  0  0
   -0.4308   52.0557   22.3083 C   0  0  0  0  0  0
    0.3254   51.5075   23.3381 C   0  0  0  0  0  0
   -0.3657   51.2494   24.5285 C   0  0  0  0  0  0
   -1.6711   51.7302   24.4649 C   0  0  0  0  0  0
   -2.0286   52.4120   22.9027 S   0  0  0  0  0  0
   -2.5909   51.6141   25.5016 N   0  0  0  0  0  0
   -3.8326   52.1294   25.5985 C   0  0  0  0  0  0
   -4.3742   52.8620   24.7700 O   0  0  0  0  0  0
   -4.5095   51.7398   26.8132 C   0  0  0  0  0  0
   -4.1466   50.8914   27.8645 C   0  0  0  0  0  0
   -5.2141   50.8739   28.7655 C   0  0  0  0  0  0
   -6.1886   51.6975   28.2255 C   0  0  0  0  0  0
   -5.7595   52.2248   27.0488 O   0  0  0  0  0  0
    0.2323   50.4747   25.6936 C   0  0  1  0  0  0
    1.1362   49.9898   25.3394 H   0  0  0  0  0  0
    0.5920   51.4310   26.8478 C   0  0  0  0  0  0
    0.0144   51.2971   28.1313 C   0  0  0  0  0  0
    0.3255   52.1838   29.1729 C   0  0  0  0  0  0
    1.2158   53.2125   28.8962 C   0  0  0  0  0  0
    1.7779   53.3619   27.6602 C   0  0  0  0  0  0
    1.4961   52.4909   26.6137 C   0  0  0  0  0  0
    2.6210   54.4285   27.6748 O   0  0  0  0  0  0
    2.4116   55.0642   28.9097 C   0  0  0  0  0  0
    1.6923   54.1787   29.7277 O   0  0  0  0  0  0
   -0.5743   49.2990   26.0817 N   0  0  0  0  0  0
   -1.1686   48.3720   25.1793 C   0  0  0  0  0  0
   -0.8976   48.2878   23.8057 C   0  0  0  0  0  0
   -1.6387   47.4138   23.0078 C   0  0  0  0  0  0
   -2.6318   46.6204   23.5896 C   0  0  0  0  0  0
   -2.8514   46.7048   24.9690 C   0  0  0  0  0  0
   -2.1080   47.5627   25.6921 N   0  3  0  0  0  0
   -3.9168   45.9024   25.6927 C   0  0  0  0  0  0
    1.0972   51.4990   19.2241 H   0  0  0  0  0  0
    1.7844   51.1132   20.7943 H   0  0  0  0  0  0
    0.3248   50.2935   20.2498 H   0  0  0  0  0  0
   -0.8957   52.4954   20.2558 H   0  0  0  0  0  0
    0.5447   53.2937   20.8491 H   0  0  0  0  0  0
    1.3569   51.2138   23.1910 H   0  0  0  0  0  0
   -2.2533   51.1065   26.3072 H   0  0  0  0  0  0
   -3.2204   50.3417   27.9714 H   0  0  0  0  0  0
   -5.2705   50.3183   29.6906 H   0  0  0  0  0  0
   -7.1808   51.9825   28.5451 H   0  0  0  0  0  0
   -0.6844   50.5032   28.3424 H   0  0  0  0  0  0
   -0.1173   52.0598   30.1512 H   0  0  0  0  0  0
    1.9557   52.6246   25.6452 H   0  0  0  0  0  0
    1.8246   55.9711   28.7546 H   0  0  0  0  0  0
    3.3689   55.3212   29.3653 H   0  0  0  0  0  0
   -0.8230   49.1816   27.0665 H   0  0  0  0  0  0
   -0.1348   48.8962   23.3532 H   0  0  0  0  0  0
   -1.4429   47.3601   21.9442 H   0  0  0  0  0  0
   -3.2215   45.9632   22.9670 H   0  0  0  0  0  0
   -4.4813   45.2636   25.0130 H   0  0  0  0  0  0
   -3.4773   45.2820   26.4774 H   0  0  0  0  0  0
   -4.6288   46.5780   26.1666 H   0  0  0  0  0  0
   -2.2606   47.6254   26.6950 H   0  0  0  0  0  0
  1  2  1  0  0  0
  1 35  1  0  0  0
  1 36  1  0  0  0
  1 37  1  0  0  0
  2  3  1  0  0  0
  2 38  1  0  0  0
  2 39  1  0  0  0
  3  7  1  0  0  0
  3  4  2  0  0  0
  4  5  1  0  0  0
  4 40  1  0  0  0
  5  6  2  0  0  0
  5 16  1  0  0  0
  6  7  1  0  0  0
  6  8  1  0  0  0
  8  9  1  0  0  0
  8 41  1  0  0  0
  9 10  2  0  0  0
  9 11  1  0  0  0
 11 15  1  0  0  0
 11 12  2  0  0  0
 12 13  1  0  0  0
 12 42  1  0  0  0
 13 14  2  0  0  0
 13 43  1  0  0  0
 14 15  1  0  0  0
 14 44  1  0  0  0
 16 17  1  0  0  0
 16 18  1  0  0  0
 16 27  1  0  0  0
 18 23  2  0  0  0
 18 19  1  0  0  0
 19 20  2  0  0  0
 19 45  1  0  0  0
 20 21  1  0  0  0
 20 46  1  0  0  0
 21 26  1  0  0  0
 21 22  2  0  0  0
 22 23  1  0  0  0
 22 24  1  0  0  0
 23 47  1  0  0  0
 24 25  1  0  0  0
 25 26  1  0  0  0
 25 48  1  0  0  0
 25 49  1  0  0  0
 27 28  1  0  0  0
 27 50  1  0  0  0
 28 33  2  0  0  0
 28 29  1  0  0  0
 29 30  2  0  0  0
 29 51  1  0  0  0
 30 31  1  0  0  0
 30 52  1  0  0  0
 31 32  2  0  0  0
 31 53  1  0  0  0
 32 33  1  0  0  0
 32 34  1  0  0  0
 33 57  1  0  0  0
 34 54  1  0  0  0
 34 55  1  0  0  0
 34 56  1  0  0  0
M  CHG  1  33   1
M  END
> <i_i_glide_confnum>
166

> <i_i_glide_lignum>
172

> <i_i_glide_posenum>
162

> <i_i_glide_rotatable_bonds>
8

> <i_m_Source_File_Index>
2021

> <b_m_subgroup_collapsed>
0

> <r_i_docking_score>
-3.76617

> <r_i_glide_ecoul>
-5.27796

> <r_i_glide_eff_state_penalty>
0

> <r_i_glide_einternal>
6.74779

> <r_i_glide_emodel>
-48.2964

> <r_i_glide_energy>
-38.3599

> <r_i_glide_erotb>
0.659111

> <r_i_glide_esite>
-0.213882

> <r_i_glide_evdw>
-33.082

> <r_i_glide_gscore>
-3.76617

> <r_i_glide_hbond>
-0.37481

> <r_i_glide_ligand_efficiency>
-0.114126

> <r_i_glide_ligand_efficiency_ln>
-0.837578

> <r_i_glide_ligand_efficiency_sa>
-0.366065

> <r_i_glide_lipo>
-0.684576

> <r_i_glide_metal>
0

> <r_i_glide_rewards>
-0.706224

> <s_i_glide_gridfile>
wee1_glide-grid

> <s_m_Source_File>
wee1_decoys_glide_SP.sdf

> <s_m_Source_Path>
/Users/zhangxujun/Desktop

> <s_m_entry_id>
2296

> <s_m_entry_name>
wee1_decoys_glide_SP.2021

> <s_m_subgroup_title>
wee1_decoys_glide_SP

> <s_m_subgroupid>
wee1_decoys_glide_SP


$$$$
