ZINC00718461_4254
                    3D
 Schrodinger Suite 2024-2.
 41 45  0  0  1  0            999 V2000
    2.7875   53.2973   25.3993 C   0  0  0  0  0  0
    1.9056   53.1690   26.4711 C   0  0  0  0  0  0
    2.2451   53.6851   27.7181 C   0  0  0  0  0  0
    3.4786   54.3220   27.8826 C   0  0  0  0  0  0
    4.3329   54.4750   26.7884 C   0  0  0  0  0  0
    4.0036   53.9722   25.5153 C   0  0  0  0  0  0
    4.9704   54.1210   24.3545 C   0  0  0  0  0  0
    4.7904   54.1519   22.9217 C   0  0  0  0  0  0
    6.0454   54.5476   22.4835 C   0  0  0  0  0  0
    6.8750   54.6402   23.5453 N   0  0  0  0  0  0
    7.8550   54.8973   23.5103 H   0  0  0  0  0  0
    6.2369   54.3676   24.6744 N   0  0  0  0  0  0
    6.4586   54.8967   21.2246 O   0  0  0  0  0  0
    5.5656   54.5782   20.2526 C   0  0  0  0  0  0
    4.3043   54.1211   20.4400 C   0  0  0  0  0  0
    3.6718   53.9916   21.8535 C   0  0  1  0  0  0
    3.0695   54.8968   21.9365 H   0  0  0  0  0  0
    2.6848   52.8213   21.9947 C   0  0  0  0  0  0
    1.3855   53.1001   22.4580 C   0  0  0  0  0  0
    0.4956   52.0468   22.6200 C   0  0  0  0  0  0
    0.8403   50.7642   22.3109 C   0  0  0  0  0  0
    2.0926   50.4478   21.8027 C   0  0  0  0  0  0
    3.0173   51.4893   21.6395 C   0  0  0  0  0  0
    4.7043   51.0451   20.8818 Br  0  0  0  0  0  0
   -0.2187   49.9459   22.5452 O   0  0  0  0  0  0
   -1.1437   50.7304   23.2503 C   0  0  0  0  0  0
   -0.7877   52.0756   23.0652 O   0  0  0  0  0  0
    3.5601   53.6962   19.2916 C   0  0  0  0  0  0
    3.0052   53.3182   18.3486 N   0  0  0  0  0  0
    6.2021   54.7395   19.0523 N   0  0  0  0  0  0
    3.9890   54.8968   29.4296 Cl  0  0  0  0  0  0
    1.1417   53.4924   29.0363 Cl  0  0  0  0  0  0
    2.5530   52.7843   24.4970 H   0  0  0  0  0  0
    0.9768   52.6325   26.3406 H   0  0  0  0  0  0
    5.2773   54.9735   26.9505 H   0  0  0  0  0  0
    1.1103   54.1053   22.7336 H   0  0  0  0  0  0
    2.3523   49.4349   21.5313 H   0  0  0  0  0  0
   -1.0863   50.4831   24.3134 H   0  0  0  0  0  0
   -2.1592   50.5425   22.8988 H   0  0  0  0  0  0
    5.7105   54.5547   18.1894 H   0  0  0  0  0  0
    7.2102   54.7604   19.0117 H   0  0  0  0  0  0
  1  6  2  0  0  0
  1  2  1  0  0  0
  1 33  1  0  0  0
  2  3  2  0  0  0
  2 34  1  0  0  0
  3  4  1  0  0  0
  3 32  1  0  0  0
  4  5  2  0  0  0
  4 31  1  0  0  0
  5  6  1  0  0  0
  5 35  1  0  0  0
  6  7  1  0  0  0
  7 12  2  0  0  0
  7  8  1  0  0  0
  8 16  1  0  0  0
  8  9  2  0  0  0
  9 10  1  0  0  0
  9 13  1  0  0  0
 10 11  1  0  0  0
 10 12  1  0  0  0
 13 14  1  0  0  0
 14 15  2  0  0  0
 14 30  1  0  0  0
 15 16  1  0  0  0
 15 28  1  0  0  0
 16 17  1  0  0  0
 16 18  1  0  0  0
 18 23  2  0  0  0
 18 19  1  0  0  0
 19 20  2  0  0  0
 19 36  1  0  0  0
 20 27  1  0  0  0
 20 21  1  0  0  0
 21 22  2  0  0  0
 21 25  1  0  0  0
 22 23  1  0  0  0
 22 37  1  0  0  0
 23 24  1  0  0  0
 25 26  1  0  0  0
 26 27  1  0  0  0
 26 38  1  0  0  0
 26 39  1  0  0  0
 28 29  3  0  0  0
 30 40  1  0  0  0
 30 41  1  0  0  0
M  END
> <i_i_glide_confnum>
1

> <i_i_glide_lignum>
4255

> <i_i_glide_posenum>
130

> <i_i_glide_rotatable_bonds>
3

> <i_m_Source_File_Index>
3112

> <b_m_subgroup_collapsed>
0

> <r_i_docking_score>
-5.52234

> <r_i_glide_ecoul>
-3.9743

> <r_i_glide_eff_state_penalty>
0

> <r_i_glide_einternal>
5.38747

> <r_i_glide_emodel>
-51.966

> <r_i_glide_energy>
-41.2497

> <r_i_glide_erotb>
0.15972

> <r_i_glide_esite>
-0.0218801

> <r_i_glide_evdw>
-37.2754

> <r_i_glide_gscore>
-5.52234

> <r_i_glide_hbond>
-0.32

> <r_i_glide_ligand_efficiency>
-0.184078

> <r_i_glide_ligand_efficiency_ln>
-1.25474

> <r_i_glide_ligand_efficiency_sa>
-0.571973

> <r_i_glide_lipo>
-2.83026

> <r_i_glide_metal>
0

> <r_i_glide_rewards>
-0.05

> <s_i_glide_gridfile>
wee1_glide-grid

> <s_m_Source_File>
wee1_decoys_glide_SP.sdf

> <s_m_Source_Path>
/Users/zhangxujun/Desktop

> <s_m_entry_id>
3387

> <s_m_entry_name>
wee1_decoys_glide_SP.3112

> <s_m_subgroup_title>
wee1_decoys_glide_SP

> <s_m_subgroupid>
wee1_decoys_glide_SP


$$$$
