ZINC20923064_5491
                    3D
 Schrodinger Suite 2024-2.
 47 49  0  0  1  0            999 V2000
    1.5038   55.9547   30.1951 C   0  0  0  0  0  0
    1.7525   56.0878   28.8830 C   0  0  0  0  0  0
    2.0357   54.9655   27.8883 C   0  0  0  0  0  0
    2.4702   53.7089   28.4839 N   0  0  0  0  0  0
    1.7597   52.5458   28.6906 C   0  0  0  0  0  0
    2.4895   51.6967   29.3663 N   0  0  0  0  0  0
    3.7487   52.2502   29.5452 N   0  0  0  0  0  0
    3.7218   53.4298   28.9847 C   0  0  0  0  0  0
    5.1056   54.4968   28.8831 S   0  0  0  0  0  0
    6.0265   53.6956   27.5462 C   0  0  0  0  0  0
    5.9607   54.4958   26.2467 C   0  0  0  0  0  0
    6.7041   55.4673   26.0825 O   0  0  0  0  0  0
    5.0863   54.0338   25.3242 N   0  0  0  0  0  0
    5.0861   54.4967   23.9962 N   0  0  0  0  0  0
    6.1541   54.2769   23.1925 C   0  0  0  0  0  0
    7.1811   53.6967   23.5425 O   0  0  0  0  0  0
    6.0381   54.7937   21.7867 C   0  0  0  0  0  0
    7.1047   55.5062   21.2251 C   0  0  0  0  0  0
    7.0424   55.9243   19.8986 C   0  0  0  0  0  0
    5.9214   55.6192   19.1296 C   0  0  0  0  0  0
    4.8630   54.8965   19.6755 C   0  0  0  0  0  0
    4.9133   54.4940   21.0074 C   0  0  0  0  0  0
    5.8453   56.1368   17.4856 Cl  0  0  0  0  0  0
    0.3835   52.2322   28.2123 C   0  0  0  0  0  0
   -0.5582   51.6968   29.0949 C   0  0  0  0  0  0
   -1.8072   51.2972   28.6246 C   0  0  0  0  0  0
   -2.1282   51.4720   27.2805 C   0  0  0  0  0  0
   -1.2004   52.0195   26.3975 C   0  0  0  0  0  0
    0.0600   52.3863   26.8611 C   0  0  0  0  0  0
   -3.8482   50.9621   26.6458 Br  0  0  0  0  0  0
    1.3194   56.8206   30.8156 H   0  0  0  0  0  0
    1.4772   54.9868   30.6726 H   0  0  0  0  0  0
    1.7499   57.0895   28.4819 H   0  0  0  0  0  0
    2.8121   55.2778   27.1913 H   0  0  0  0  0  0
    1.1304   54.7978   27.3118 H   0  0  0  0  0  0
    7.0717   53.6422   27.8533 H   0  0  0  0  0  0
    5.6981   52.6649   27.4024 H   0  0  0  0  0  0
    4.6062   53.1505   25.4249 H   0  0  0  0  0  0
    4.4753   55.2902   23.8703 H   0  0  0  0  0  0
    7.9920   55.7199   21.8076 H   0  0  0  0  0  0
    7.8679   56.4672   19.4617 H   0  0  0  0  0  0
    3.9989   54.6570   19.0717 H   0  0  0  0  0  0
    4.0871   53.9258   21.4114 H   0  0  0  0  0  0
   -0.3178   51.5597   30.1395 H   0  0  0  0  0  0
   -2.5159   50.8412   29.3019 H   0  0  0  0  0  0
   -1.4510   52.1388   25.3537 H   0  0  0  0  0  0
    0.7893   52.7684   26.1621 H   0  0  0  0  0  0
  1  2  2  0  0  0
  1 31  1  0  0  0
  1 32  1  0  0  0
  2  3  1  0  0  0
  2 33  1  0  0  0
  3  4  1  0  0  0
  3 34  1  0  0  0
  3 35  1  0  0  0
  4  8  1  0  0  0
  4  5  1  0  0  0
  5  6  2  0  0  0
  5 24  1  0  0  0
  6  7  1  0  0  0
  7  8  2  0  0  0
  8  9  1  0  0  0
  9 10  1  0  0  0
 10 11  1  0  0  0
 10 36  1  0  0  0
 10 37  1  0  0  0
 11 12  2  0  0  0
 11 13  1  0  0  0
 13 14  1  0  0  0
 13 38  1  0  0  0
 14 15  1  0  0  0
 14 39  1  0  0  0
 15 16  2  0  0  0
 15 17  1  0  0  0
 17 22  2  0  0  0
 17 18  1  0  0  0
 18 19  2  0  0  0
 18 40  1  0  0  0
 19 20  1  0  0  0
 19 41  1  0  0  0
 20 21  2  0  0  0
 20 23  1  0  0  0
 21 22  1  0  0  0
 21 42  1  0  0  0
 22 43  1  0  0  0
 24 29  2  0  0  0
 24 25  1  0  0  0
 25 26  2  0  0  0
 25 44  1  0  0  0
 26 27  1  0  0  0
 26 45  1  0  0  0
 27 28  2  0  0  0
 27 30  1  0  0  0
 28 29  1  0  0  0
 28 46  1  0  0  0
 29 47  1  0  0  0
M  END
> <i_i_glide_confnum>
79

> <i_i_glide_lignum>
5492

> <i_i_glide_posenum>
37

> <i_i_glide_rotatable_bonds>
10

> <i_m_Source_File_Index>
4923

> <b_m_subgroup_collapsed>
0

> <r_i_docking_score>
-6.81868

> <r_i_glide_ecoul>
-5.35937

> <r_i_glide_eff_state_penalty>
0

> <r_i_glide_einternal>
7.66022

> <r_i_glide_emodel>
-75.9951

> <r_i_glide_energy>
-56.474

> <r_i_glide_erotb>
0.717002

> <r_i_glide_esite>
0

> <r_i_glide_evdw>
-51.1146

> <r_i_glide_gscore>
-6.81868

> <r_i_glide_hbond>
-0.32

> <r_i_glide_ligand_efficiency>
-0.227289

> <r_i_glide_ligand_efficiency_ln>
-1.54928

> <r_i_glide_ligand_efficiency_sa>
-0.70624

> <r_i_glide_lipo>
-2.16861

> <r_i_glide_metal>
0

> <r_i_glide_rewards>
-1.68743

> <s_i_glide_gridfile>
wee1_glide-grid

> <s_m_Source_File>
wee1_decoys_glide_SP.sdf

> <s_m_Source_Path>
/Users/zhangxujun/Desktop

> <s_m_entry_id>
5198

> <s_m_entry_name>
wee1_decoys_glide_SP.4923

> <s_m_subgroup_title>
wee1_decoys_glide_SP

> <s_m_subgroupid>
wee1_decoys_glide_SP


$$$$
