ZINC44162062_4299
                    3D
 Schrodinger Suite 2024-2.
 51 54  0  0  1  0            999 V2000
    2.6564   50.5005   19.8811 C   0  0  0  0  0  0
    1.5430   49.4582   19.8864 C   0  0  0  0  0  0
    1.5045   48.5277   18.8423 C   0  0  0  0  0  0
    0.4905   47.5744   18.7818 C   0  0  0  0  0  0
   -0.5033   47.5543   19.7570 C   0  0  0  0  0  0
   -0.4710   48.4751   20.8036 C   0  0  0  0  0  0
    0.5622   49.4176   20.8970 C   0  0  0  0  0  0
    0.6175   50.3438   21.9547 N   0  0  0  0  0  0
    0.3491   50.1726   23.2952 C   0  0  0  0  0  0
    0.4826   51.1516   24.1531 N   0  0  0  0  0  0
    0.3115   50.7780   25.4096 C   0  0  0  0  0  0
   -0.0301   49.4314   25.5630 C   0  0  0  0  0  0
   -0.0956   48.6528   24.0179 S   0  0  0  0  0  0
    0.4857   51.6994   26.5471 C   0  0  0  0  0  0
   -0.0980   51.5017   27.7796 C   0  0  0  0  0  0
    0.2442   52.5473   28.6406 C   0  0  0  0  0  0
    0.9855   53.4544   27.8891 C   0  0  0  0  0  0
    1.2269   52.8764   26.6427 N   0  0  0  0  0  0
    2.1204   53.4409   25.6165 C   0  0  0  0  0  0
    3.5788   53.6966   26.0206 C   0  0  0  0  0  0
    4.0837   53.3517   27.2862 C   0  0  0  0  0  0
    5.3987   53.6401   27.6274 C   0  0  0  0  0  0
    6.2349   54.2338   26.6935 C   0  0  0  0  0  0
    5.7719   54.5338   25.4148 C   0  0  0  0  0  0
    4.4486   54.2557   25.0776 C   0  0  0  0  0  0
    4.0161   54.4981   23.8198 F   0  0  0  0  0  0
    7.5044   54.4986   27.0345 F   0  0  0  0  0  0
    1.5179   54.8265   28.2977 C   0  0  0  0  0  0
   -0.0956   52.6588   30.0335 C   0  0  0  0  0  0
    0.3045   53.5687   30.7562 O   0  0  0  0  0  0
   -0.8956   51.6967   30.4817 N   0  0  0  0  0  0
    3.1044   50.5950   18.8910 H   0  0  0  0  0  0
    2.2709   51.4885   20.1332 H   0  0  0  0  0  0
    3.4313   50.2419   20.6029 H   0  0  0  0  0  0
    2.2635   48.5463   18.0704 H   0  0  0  0  0  0
    0.4691   46.8638   17.9686 H   0  0  0  0  0  0
   -1.3021   46.8299   19.6998 H   0  0  0  0  0  0
   -1.2638   48.4560   21.5351 H   0  0  0  0  0  0
    1.1433   51.1640   21.6930 H   0  0  0  0  0  0
   -0.2282   48.8738   26.4704 H   0  0  0  0  0  0
   -0.7087   50.6443   28.0312 H   0  0  0  0  0  0
    1.6649   54.3598   25.2494 H   0  0  0  0  0  0
    2.1738   52.7715   24.7649 H   0  0  0  0  0  0
    3.4740   52.8567   28.0256 H   0  0  0  0  0  0
    5.7775   53.3895   28.6073 H   0  0  0  0  0  0
    6.4371   54.9676   24.6835 H   0  0  0  0  0  0
    2.0773   54.7717   29.2314 H   0  0  0  0  0  0
    2.1852   55.2968   27.5835 H   0  0  0  0  0  0
    0.7045   55.5296   28.4668 H   0  0  0  0  0  0
   -1.2065   50.9395   29.8916 H   0  0  0  0  0  0
   -1.1793   51.6967   31.4682 H   0  0  0  0  0  0
  1  2  1  0  0  0
  1 32  1  0  0  0
  1 33  1  0  0  0
  1 34  1  0  0  0
  2  7  2  0  0  0
  2  3  1  0  0  0
  3  4  2  0  0  0
  3 35  1  0  0  0
  4  5  1  0  0  0
  4 36  1  0  0  0
  5  6  2  0  0  0
  5 37  1  0  0  0
  6  7  1  0  0  0
  6 38  1  0  0  0
  7  8  1  0  0  0
  8  9  1  0  0  0
  8 39  1  0  0  0
  9 13  1  0  0  0
  9 10  2  0  0  0
 10 11  1  0  0  0
 11 12  2  0  0  0
 11 14  1  0  0  0
 12 13  1  0  0  0
 12 40  1  0  0  0
 14 18  1  0  0  0
 14 15  2  0  0  0
 15 16  1  0  0  0
 15 41  1  0  0  0
 16 17  2  0  0  0
 16 29  1  0  0  0
 17 18  1  0  0  0
 17 28  1  0  0  0
 18 19  1  0  0  0
 19 20  1  0  0  0
 19 42  1  0  0  0
 19 43  1  0  0  0
 20 25  2  0  0  0
 20 21  1  0  0  0
 21 22  2  0  0  0
 21 44  1  0  0  0
 22 23  1  0  0  0
 22 45  1  0  0  0
 23 24  2  0  0  0
 23 27  1  0  0  0
 24 25  1  0  0  0
 24 46  1  0  0  0
 25 26  1  0  0  0
 28 47  1  0  0  0
 28 48  1  0  0  0
 28 49  1  0  0  0
 29 30  2  0  0  0
 29 31  1  0  0  0
 31 50  1  0  0  0
 31 51  1  0  0  0
M  END
> <i_i_glide_confnum>
12

> <i_i_glide_lignum>
4300

> <i_i_glide_posenum>
296

> <i_i_glide_rotatable_bonds>
6

> <i_m_Source_File_Index>
163

> <b_m_subgroup_collapsed>
0

> <r_i_docking_score>
-6.23642

> <r_i_glide_ecoul>
-8.41897

> <r_i_glide_eff_state_penalty>
0

> <r_i_glide_einternal>
12.1155

> <r_i_glide_emodel>
-61.9947

> <r_i_glide_energy>
-48.6773

> <r_i_glide_erotb>
0.51879

> <r_i_glide_esite>
-0.177791

> <r_i_glide_evdw>
-40.2583

> <r_i_glide_gscore>
-6.23642

> <r_i_glide_hbond>
-0.16

> <r_i_glide_ligand_efficiency>
-0.201175

> <r_i_glide_ligand_efficiency_ln>
-1.4065

> <r_i_glide_ligand_efficiency_sa>
-0.631966

> <r_i_glide_lipo>
-2.29626

> <r_i_glide_metal>
0

> <r_i_glide_rewards>
-0.845391

> <s_i_glide_gridfile>
wee1_glide-grid

> <s_m_Source_File>
wee1_decoys_glide_SP.sdf

> <s_m_Source_Path>
/Users/zhangxujun/Desktop

> <s_m_entry_id>
438

> <s_m_entry_name>
wee1_decoys_glide_SP.163

> <s_m_subgroup_title>
wee1_decoys_glide_SP

> <s_m_subgroupid>
wee1_decoys_glide_SP


$$$$
