ZINC60107790_1306
                    3D
 Schrodinger Suite 2024-2.
 57 59  0  0  1  0            999 V2000
    1.1073   56.3900   29.5906 C   0  0  0  0  0  0
    1.2927   54.9174   30.0121 C   0  0  0  0  0  0
    0.0105   54.1543   30.3750 C   0  0  0  0  0  0
    2.1695   54.0855   29.0426 N   0  3  0  0  0  0
    1.5115   53.8946   27.6666 C   0  0  0  0  0  0
    2.4463   53.0854   26.7573 C   0  0  0  0  0  0
    3.7825   53.6965   26.5926 N   0  0  0  0  0  0
    4.4233   53.8409   27.9155 C   0  0  0  0  0  0
    3.5909   54.6704   28.9030 C   0  0  0  0  0  0
    4.3942   53.9747   25.3610 C   0  0  0  0  0  0
    3.6828   53.8695   24.1537 C   0  0  0  0  0  0
    4.2961   54.1018   22.9279 C   0  0  0  0  0  0
    5.6390   54.4969   22.8689 C   0  0  0  0  0  0
    6.3553   54.6052   24.0644 C   0  0  0  0  0  0
    5.7426   54.3514   25.2846 C   0  0  0  0  0  0
    6.3046   54.9069   21.5734 C   0  0  0  0  0  0
    7.4753   55.2924   21.5721 O   0  0  0  0  0  0
    5.5576   54.8462   20.4541 N   0  0  0  0  0  0
    5.9929   55.1511   19.0857 C   0  0  0  0  0  0
    6.5169   56.5872   18.8455 C   0  0  0  0  0  0
    6.7040   57.3883   19.7650 O   0  0  0  0  0  0
    6.7579   56.8633   17.5473 N   0  0  0  0  0  0
    7.3043   58.0338   16.9942 C   0  0  0  0  0  0
    8.2527   58.8259   17.6623 C   0  0  0  0  0  0
    8.7880   59.9520   17.0378 C   0  0  0  0  0  0
    8.3776   60.3035   15.7526 C   0  0  0  0  0  0
    7.4332   59.5256   15.0826 C   0  0  0  0  0  0
    6.8993   58.3926   15.7007 C   0  0  0  0  0  0
    5.9935   57.6350   15.0342 F   0  0  0  0  0  0
    7.0507   59.8575   13.8283 F   0  0  0  0  0  0
    8.9111   61.3944   15.1546 F   0  0  0  0  0  0
    0.4403   56.8967   30.2893 H   0  0  0  0  0  0
    2.0413   56.9482   29.6275 H   0  0  0  0  0  0
    0.7045   56.4980   28.5873 H   0  0  0  0  0  0
    1.9129   54.9304   30.8847 H   0  0  0  0  0  0
   -0.4951   54.6538   31.2031 H   0  0  0  0  0  0
   -0.6891   54.0968   29.5441 H   0  0  0  0  0  0
    0.2258   53.1368   30.7044 H   0  0  0  0  0  0
    0.5946   53.3296   27.8332 H   0  0  0  0  0  0
    1.2847   54.8839   27.2815 H   0  0  0  0  0  0
    1.9357   52.8758   25.8210 H   0  0  0  0  0  0
    2.6227   52.0992   27.1922 H   0  0  0  0  0  0
    4.5673   52.8230   28.2843 H   0  0  0  0  0  0
    5.4171   54.2764   27.8795 H   0  0  0  0  0  0
    4.0432   54.6257   29.8934 H   0  0  0  0  0  0
    3.5041   55.6967   28.5640 H   0  0  0  0  0  0
    2.6401   53.6060   24.1211 H   0  0  0  0  0  0
    3.6876   54.0137   22.0402 H   0  0  0  0  0  0
    7.3935   54.9104   24.0604 H   0  0  0  0  0  0
    6.3681   54.4472   26.1556 H   0  0  0  0  0  0
    4.6022   54.5423   20.5416 H   0  0  0  0  0  0
    5.1424   54.9623   18.4285 H   0  0  0  0  0  0
    6.7768   54.4395   18.8188 H   0  0  0  0  0  0
    6.4548   56.1785   16.8707 H   0  0  0  0  0  0
    8.5976   58.5629   18.6517 H   0  0  0  0  0  0
    9.5286   60.5521   17.5442 H   0  0  0  0  0  0
    2.2811   53.1570   29.4297 H   0  0  0  0  0  0
  1  2  1  0  0  0
  1 32  1  0  0  0
  1 33  1  0  0  0
  1 34  1  0  0  0
  2  3  1  0  0  0
  2  4  1  0  0  0
  2 35  1  0  0  0
  3 36  1  0  0  0
  3 37  1  0  0  0
  3 38  1  0  0  0
  4  9  1  0  0  0
  4  5  1  0  0  0
  4 57  1  0  0  0
  5  6  1  0  0  0
  5 39  1  0  0  0
  5 40  1  0  0  0
  6  7  1  0  0  0
  6 41  1  0  0  0
  6 42  1  0  0  0
  7  8  1  0  0  0
  7 10  1  0  0  0
  8  9  1  0  0  0
  8 43  1  0  0  0
  8 44  1  0  0  0
  9 45  1  0  0  0
  9 46  1  0  0  0
 10 15  2  0  0  0
 10 11  1  0  0  0
 11 12  2  0  0  0
 11 47  1  0  0  0
 12 13  1  0  0  0
 12 48  1  0  0  0
 13 14  2  0  0  0
 13 16  1  0  0  0
 14 15  1  0  0  0
 14 49  1  0  0  0
 15 50  1  0  0  0
 16 17  2  0  0  0
 16 18  1  0  0  0
 18 19  1  0  0  0
 18 51  1  0  0  0
 19 20  1  0  0  0
 19 52  1  0  0  0
 19 53  1  0  0  0
 20 21  2  0  0  0
 20 22  1  0  0  0
 22 23  1  0  0  0
 22 54  1  0  0  0
 23 28  2  0  0  0
 23 24  1  0  0  0
 24 25  2  0  0  0
 24 55  1  0  0  0
 25 26  1  0  0  0
 25 56  1  0  0  0
 26 27  2  0  0  0
 26 31  1  0  0  0
 27 28  1  0  0  0
 27 30  1  0  0  0
 28 29  1  0  0  0
M  CHG  1   4   1
M  END
> <i_i_glide_confnum>
89

> <i_i_glide_lignum>
1307

> <i_i_glide_posenum>
392

> <i_i_glide_rotatable_bonds>
8

> <i_m_Source_File_Index>
4703

> <b_m_subgroup_collapsed>
0

> <r_i_docking_score>
-6.03049

> <r_i_glide_ecoul>
-1.73088

> <r_i_glide_eff_state_penalty>
0

> <r_i_glide_einternal>
6.87914

> <r_i_glide_emodel>
-50.8598

> <r_i_glide_energy>
-36.6917

> <r_i_glide_erotb>
0.630431

> <r_i_glide_esite>
-0.0379098

> <r_i_glide_evdw>
-34.9608

> <r_i_glide_gscore>
-6.03049

> <r_i_glide_hbond>
-0.32

> <r_i_glide_ligand_efficiency>
-0.194532

> <r_i_glide_ligand_efficiency_ln>
-1.36006

> <r_i_glide_ligand_efficiency_sa>
-0.611099

> <r_i_glide_lipo>
-3.16298

> <r_i_glide_metal>
0

> <r_i_glide_rewards>
-1.13236

> <s_i_glide_gridfile>
wee1_glide-grid

> <s_m_Source_File>
wee1_decoys_glide_SP.sdf

> <s_m_Source_Path>
/Users/zhangxujun/Desktop

> <s_m_entry_id>
4978

> <s_m_entry_name>
wee1_decoys_glide_SP.4703

> <s_m_subgroup_title>
wee1_decoys_glide_SP

> <s_m_subgroupid>
wee1_decoys_glide_SP


$$$$
