ZINC43587435_1596
                    3D
 Schrodinger Suite 2024-2.
 48 49  0  0  1  0            999 V2000
    4.7029   51.4692   21.2866 C   0  0  0  0  0  0
    4.5041   52.9113   21.7991 C   0  0  0  0  0  0
    3.3352   53.6226   21.0920 C   0  0  0  0  0  0
    2.0277   52.7892   21.1249 C   0  0  1  0  0  0
    1.2652   53.2838   20.5229 H   0  0  0  0  0  0
    2.2531   51.3760   20.5290 C   0  0  2  0  0  0
    1.3312   50.7874   20.5207 H   0  0  0  0  0  0
    3.3811   50.6532   21.2769 C   0  0  0  0  0  0
    2.7022   51.5030   19.0557 N   0  3  0  0  0  0
    1.4833   52.7265   22.4873 N   0  0  0  0  0  0
    0.2175   52.4255   22.8390 C   0  0  0  0  0  0
   -0.6104   52.0958   21.9845 O   0  0  0  0  0  0
   -0.0645   52.4737   24.1752 N   0  0  0  0  0  0
   -1.4802   52.3072   24.5886 C   0  0  0  0  0  0
   -1.5351   51.4831   25.8885 C   0  0  0  0  0  0
   -0.6862   52.1163   26.9906 C   0  0  0  0  0  0
    0.7765   52.2289   26.5260 C   0  0  1  0  0  0
    1.1046   51.2085   26.3210 H   0  0  0  0  0  0
    0.9098   52.9977   25.1770 C   0  0  0  0  0  0
    1.7080   52.8255   27.6134 C   0  0  0  0  0  0
    1.8626   51.9432   28.8818 C   0  0  0  0  0  0
    2.8400   52.5247   29.9207 C   0  0  0  0  0  0
    3.5046   51.6969   30.5819 O   0  0  0  0  0  0
    2.8882   53.7662   30.0814 O   0  5  0  0  0  0
    5.4338   50.9852   21.9294 H   0  0  0  0  0  0
    5.1422   51.4883   20.2877 H   0  0  0  0  0  0
    4.3218   52.8973   22.8740 H   0  0  0  0  0  0
    5.4237   53.4820   21.6650 H   0  0  0  0  0  0
    3.6076   53.8609   20.0625 H   0  0  0  0  0  0
    3.1632   54.5898   21.5710 H   0  0  0  0  0  0
    3.0837   50.4606   22.3087 H   0  0  0  0  0  0
    3.5100   49.6968   20.7884 H   0  0  0  0  0  0
    3.5757   52.0070   18.9979 H   0  0  0  0  0  0
    2.8761   50.5926   18.6446 H   0  0  0  0  0  0
    2.1471   52.8830   23.2294 H   0  0  0  0  0  0
   -2.0683   51.7533   23.8548 H   0  0  0  0  0  0
   -1.9127   53.2933   24.7585 H   0  0  0  0  0  0
   -1.2081   50.4574   25.7013 H   0  0  0  0  0  0
   -2.5702   51.4019   26.2245 H   0  0  0  0  0  0
   -0.7587   51.5154   27.8984 H   0  0  0  0  0  0
   -1.0742   53.0977   27.2689 H   0  0  0  0  0  0
    0.7415   54.0684   25.2838 H   0  0  0  0  0  0
    1.9383   52.8056   24.8711 H   0  0  0  0  0  0
    1.3445   53.8174   27.8890 H   0  0  0  0  0  0
    2.6987   52.9796   27.1795 H   0  0  0  0  0  0
    2.2006   50.9455   28.5954 H   0  0  0  0  0  0
    0.9062   51.8203   29.3889 H   0  0  0  0  0  0
    2.0104   51.9830   18.4980 H   0  0  0  0  0  0
  1  8  1  0  0  0
  1  2  1  0  0  0
  1 25  1  0  0  0
  1 26  1  0  0  0
  2  3  1  0  0  0
  2 27  1  0  0  0
  2 28  1  0  0  0
  3  4  1  0  0  0
  3 29  1  0  0  0
  3 30  1  0  0  0
  4  5  1  0  0  0
  4  6  1  0  0  0
  4 10  1  0  0  0
  6  7  1  0  0  0
  6  8  1  0  0  0
  6  9  1  0  0  0
  8 31  1  0  0  0
  8 32  1  0  0  0
  9 33  1  0  0  0
  9 34  1  0  0  0
  9 48  1  0  0  0
 10 11  1  0  0  0
 10 35  1  0  0  0
 11 12  2  0  0  0
 11 13  1  0  0  0
 13 19  1  0  0  0
 13 14  1  0  0  0
 14 15  1  0  0  0
 14 36  1  0  0  0
 14 37  1  0  0  0
 15 16  1  0  0  0
 15 38  1  0  0  0
 15 39  1  0  0  0
 16 17  1  0  0  0
 16 40  1  0  0  0
 16 41  1  0  0  0
 17 18  1  0  0  0
 17 19  1  0  0  0
 17 20  1  0  0  0
 19 42  1  0  0  0
 19 43  1  0  0  0
 20 21  1  0  0  0
 20 44  1  0  0  0
 20 45  1  0  0  0
 21 22  1  0  0  0
 21 46  1  0  0  0
 21 47  1  0  0  0
 22 23  2  0  0  0
 22 24  1  0  0  0
M  CHG  2   9   1  24  -1
M  END
> <i_i_glide_confnum>
74

> <i_i_glide_lignum>
1597

> <i_i_glide_posenum>
52

> <i_i_glide_rotatable_bonds>
6

> <i_m_Source_File_Index>
5997

> <b_m_subgroup_collapsed>
0

> <r_i_docking_score>
-4.40779

> <r_i_glide_ecoul>
-10.3091

> <r_i_glide_eff_state_penalty>
0

> <r_i_glide_einternal>
5.67687

> <r_i_glide_emodel>
-37.5735

> <r_i_glide_energy>
-28.0796

> <r_i_glide_erotb>
1.03654

> <r_i_glide_esite>
-0.0716169

> <r_i_glide_evdw>
-17.7705

> <r_i_glide_gscore>
-4.40779

> <r_i_glide_hbond>
-0.32

> <r_i_glide_ligand_efficiency>
-0.209895

> <r_i_glide_ligand_efficiency_ln>
-1.08982

> <r_i_glide_ligand_efficiency_sa>
-0.579083

> <r_i_glide_lipo>
-0.851397

> <r_i_glide_metal>
0

> <r_i_glide_rewards>
-1.76642

> <s_i_glide_gridfile>
wee1_glide-grid

> <s_m_Source_File>
wee1_decoys_glide_SP.sdf

> <s_m_Source_Path>
/Users/zhangxujun/Desktop

> <s_m_entry_id>
6272

> <s_m_entry_name>
wee1_decoys_glide_SP.5997

> <s_m_subgroup_title>
wee1_decoys_glide_SP

> <s_m_subgroupid>
wee1_decoys_glide_SP


$$$$
