ZINC17020887_4778
                    3D
 Schrodinger Suite 2024-2.
 45 48  0  0  1  0            999 V2000
    0.9505   50.3661   23.4964 C   0  0  0  0  0  0
    0.3080   51.7614   23.2006 C   0  0  1  0  0  0
   -0.0497   52.4957   24.5160 C   0  0  0  0  0  0
    1.2143   52.8414   25.3368 C   0  0  0  0  0  0
    2.2626   53.6513   24.5084 C   0  0  1  0  0  0
    1.7981   54.6243   24.3361 H   0  0  0  0  0  0
    3.5725   53.9868   25.2491 C   0  0  0  0  0  0
    3.6033   54.0991   26.6496 C   0  0  0  0  0  0
    4.7735   54.4062   27.3342 C   0  0  0  0  0  0
    5.9458   54.6062   26.6233 C   0  0  0  0  0  0
    5.9459   54.5108   25.2364 C   0  0  0  0  0  0
    4.7788   54.2004   24.5297 C   0  0  0  0  0  0
    4.8578   54.0302   23.0079 C   0  0  0  0  0  0
    3.4766   53.9818   22.3340 C   0  0  0  0  0  0
    2.5490   53.0284   23.1047 C   0  0  2  0  0  0
    3.0934   52.0967   23.2207 H   0  0  0  0  0  0
    1.2065   52.7191   22.3962 C   0  0  1  0  0  0
    0.7143   53.6949   22.3401 H   0  0  0  0  0  0
    1.1870   52.1543   20.9752 C   0  0  0  0  0  0
   -0.2623   51.6974   20.7908 C   0  0  0  0  0  0
   -0.7968   51.4723   19.6567 N   0  0  0  0  0  0
   -2.1317   51.0358   19.7488 O   0  0  0  0  0  0
   -0.8837   51.6337   22.2157 C   0  0  1  0  0  0
   -1.5056   52.5264   22.3134 H   0  0  0  0  0  0
   -1.7490   50.5248   22.4153 O   0  0  0  0  0  0
    7.1044   54.8966   27.2815 O   0  0  0  0  0  0
    1.8806   50.4272   24.0591 H   0  0  0  0  0  0
    0.2779   49.7465   24.0924 H   0  0  0  0  0  0
    1.1700   49.8086   22.5846 H   0  0  0  0  0  0
   -0.5917   53.4201   24.3037 H   0  0  0  0  0  0
   -0.7325   51.8908   25.1140 H   0  0  0  0  0  0
    0.8729   53.4194   26.1925 H   0  0  0  0  0  0
    1.6581   51.9335   25.7371 H   0  0  0  0  0  0
    2.7094   53.9521   27.2370 H   0  0  0  0  0  0
    4.7622   54.4836   28.4122 H   0  0  0  0  0  0
    6.8721   54.6568   24.7003 H   0  0  0  0  0  0
    5.4621   54.8214   22.5644 H   0  0  0  0  0  0
    5.3833   53.0950   22.8065 H   0  0  0  0  0  0
    3.0221   54.9660   22.2278 H   0  0  0  0  0  0
    3.5998   53.6306   21.3089 H   0  0  0  0  0  0
    1.4749   52.8964   20.2295 H   0  0  0  0  0  0
    1.8686   51.3087   20.8771 H   0  0  0  0  0  0
   -2.2185   50.8487   20.6964 H   0  0  0  0  0  0
   -1.9460   50.4557   23.3563 H   0  0  0  0  0  0
    6.9977   55.1086   28.2169 H   0  0  0  0  0  0
  1  2  1  0  0  0
  1 27  1  0  0  0
  1 28  1  0  0  0
  1 29  1  0  0  0
  2 17  1  0  0  0
  2 23  1  0  0  0
  2  3  1  0  0  0
  3  4  1  0  0  0
  3 30  1  0  0  0
  3 31  1  0  0  0
  4  5  1  0  0  0
  4 32  1  0  0  0
  4 33  1  0  0  0
  5  6  1  0  0  0
  5 15  1  0  0  0
  5  7  1  0  0  0
  7 12  2  0  0  0
  7  8  1  0  0  0
  8  9  2  0  0  0
  8 34  1  0  0  0
  9 10  1  0  0  0
  9 35  1  0  0  0
 10 11  2  0  0  0
 10 26  1  0  0  0
 11 12  1  0  0  0
 11 36  1  0  0  0
 12 13  1  0  0  0
 13 14  1  0  0  0
 13 37  1  0  0  0
 13 38  1  0  0  0
 14 15  1  0  0  0
 14 39  1  0  0  0
 14 40  1  0  0  0
 15 16  1  0  0  0
 15 17  1  0  0  0
 17 18  1  0  0  0
 17 19  1  0  0  0
 19 20  1  0  0  0
 19 41  1  0  0  0
 19 42  1  0  0  0
 20 21  2  0  0  0
 20 23  1  0  0  0
 21 22  1  0  0  0
 22 43  1  0  0  0
 23 24  1  0  0  0
 23 25  1  0  0  0
 25 44  1  0  0  0
 26 45  1  0  0  0
M  END
> <i_i_glide_confnum>
1

> <i_i_glide_lignum>
4779

> <i_i_glide_posenum>
383

> <i_i_glide_rotatable_bonds>
3

> <i_m_Source_File_Index>
574

> <b_m_subgroup_collapsed>
0

> <r_i_docking_score>
-6.84487

> <r_i_glide_ecoul>
-5.53134

> <r_i_glide_eff_state_penalty>
0

> <r_i_glide_einternal>
0.0816088

> <r_i_glide_emodel>
-49.3261

> <r_i_glide_energy>
-34.8927

> <r_i_glide_erotb>
0.202533

> <r_i_glide_esite>
-0.0301712

> <r_i_glide_evdw>
-29.3614

> <r_i_glide_gscore>
-6.84487

> <r_i_glide_hbond>
-0.449567

> <r_i_glide_ligand_efficiency>
-0.31113

> <r_i_glide_ligand_efficiency_ln>
-1.67313

> <r_i_glide_ligand_efficiency_sa>
-0.871799

> <r_i_glide_lipo>
-2.84421

> <r_i_glide_metal>
0

> <r_i_glide_rewards>
-1.42568

> <s_i_glide_gridfile>
wee1_glide-grid

> <s_m_Source_File>
wee1_decoys_glide_SP.sdf

> <s_m_Source_Path>
/Users/zhangxujun/Desktop

> <s_m_entry_id>
849

> <s_m_entry_name>
wee1_decoys_glide_SP.574

> <s_m_subgroup_title>
wee1_decoys_glide_SP

> <s_m_subgroupid>
wee1_decoys_glide_SP


$$$$
