ZINC20008221_5038
                    3D
 Schrodinger Suite 2024-2.
 50 53  0  0  1  0            999 V2000
    2.2637   48.6817   19.4723 C   0  0  0  0  0  0
    1.7827   49.7898   20.3904 C   0  0  0  0  0  0
    2.7110   50.5051   21.1443 C   0  0  0  0  0  0
    2.2924   51.5291   21.9880 C   0  0  0  0  0  0
    0.9345   51.8693   22.0840 C   0  0  0  0  0  0
    0.0064   51.1551   21.3150 C   0  0  0  0  0  0
    0.4275   50.1191   20.4773 C   0  0  0  0  0  0
   -1.8456   51.6103   21.3710 Br  0  0  0  0  0  0
    0.4580   52.8962   22.8786 O   0  0  0  0  0  0
    1.3513   53.9179   23.3370 C   0  0  0  0  0  0
    2.0097   53.5385   24.6738 C   0  0  0  0  0  0
    1.5096   52.6650   25.3825 O   0  0  0  0  0  0
    3.1525   54.2010   24.9575 N   0  0  0  0  0  0
    3.9900   54.0986   26.0946 C   0  0  0  0  0  0
    3.4576   53.7196   27.3416 C   0  0  0  0  0  0
    4.2479   53.7004   28.4863 C   0  0  0  0  0  0
    5.5826   54.0723   28.4078 C   0  0  0  0  0  0
    6.1309   54.4466   27.1905 C   0  0  0  0  0  0
    5.3650   54.4607   26.0145 C   0  0  0  0  0  0
    6.0732   54.8969   24.7446 C   0  0  0  0  0  0
    7.0047   55.6967   24.8240 O   0  0  0  0  0  0
    5.6390   54.3391   23.5936 N   0  0  0  0  0  0
    5.9748   54.6480   22.2621 C   0  0  0  0  0  0
    7.1040   55.4092   21.8721 C   0  0  0  0  0  0
    7.3606   55.6844   20.5210 C   0  0  0  0  0  0
    6.4753   55.1692   19.5821 C   0  0  0  0  0  0
    5.3840   54.4363   19.9493 C   0  0  0  0  0  0
    5.0989   54.1586   21.2794 C   0  0  0  0  0  0
    4.6785   54.0910   18.8421 O   0  0  0  0  0  0
    5.5125   54.4069   17.7609 C   0  0  0  0  0  0
    6.4968   55.2915   18.2292 O   0  0  0  0  0  0
    3.1039   49.0377   18.8752 H   0  0  0  0  0  0
    1.4886   48.3507   18.7805 H   0  0  0  0  0  0
    2.6204   47.8309   20.0535 H   0  0  0  0  0  0
    3.7618   50.2701   21.0749 H   0  0  0  0  0  0
    3.0381   52.0433   22.5684 H   0  0  0  0  0  0
   -0.3005   49.5816   19.8875 H   0  0  0  0  0  0
    2.0850   54.1917   22.5759 H   0  0  0  0  0  0
    0.7509   54.8097   23.5006 H   0  0  0  0  0  0
    3.4813   54.8450   24.2537 H   0  0  0  0  0  0
    2.4155   53.4644   27.4557 H   0  0  0  0  0  0
    3.8200   53.4123   29.4346 H   0  0  0  0  0  0
    6.2103   54.0838   29.2817 H   0  0  0  0  0  0
    7.1748   54.7267   27.1799 H   0  0  0  0  0  0
    4.9164   53.6448   23.7039 H   0  0  0  0  0  0
    7.8058   55.7918   22.5944 H   0  0  0  0  0  0
    8.2295   56.2533   20.2261 H   0  0  0  0  0  0
    4.2214   53.5886   21.5338 H   0  0  0  0  0  0
    4.9393   54.8543   16.9487 H   0  0  0  0  0  0
    5.9852   53.4906   17.3986 H   0  0  0  0  0  0
  1  2  1  0  0  0
  1 32  1  0  0  0
  1 33  1  0  0  0
  1 34  1  0  0  0
  2  7  2  0  0  0
  2  3  1  0  0  0
  3  4  2  0  0  0
  3 35  1  0  0  0
  4  5  1  0  0  0
  4 36  1  0  0  0
  5  6  2  0  0  0
  5  9  1  0  0  0
  6  7  1  0  0  0
  6  8  1  0  0  0
  7 37  1  0  0  0
  9 10  1  0  0  0
 10 11  1  0  0  0
 10 38  1  0  0  0
 10 39  1  0  0  0
 11 12  2  0  0  0
 11 13  1  0  0  0
 13 14  1  0  0  0
 13 40  1  0  0  0
 14 19  2  0  0  0
 14 15  1  0  0  0
 15 16  2  0  0  0
 15 41  1  0  0  0
 16 17  1  0  0  0
 16 42  1  0  0  0
 17 18  2  0  0  0
 17 43  1  0  0  0
 18 19  1  0  0  0
 18 44  1  0  0  0
 19 20  1  0  0  0
 20 21  2  0  0  0
 20 22  1  0  0  0
 22 23  1  0  0  0
 22 45  1  0  0  0
 23 28  2  0  0  0
 23 24  1  0  0  0
 24 25  2  0  0  0
 24 46  1  0  0  0
 25 26  1  0  0  0
 25 47  1  0  0  0
 26 31  1  0  0  0
 26 27  2  0  0  0
 27 28  1  0  0  0
 27 29  1  0  0  0
 28 48  1  0  0  0
 29 30  1  0  0  0
 30 31  1  0  0  0
 30 49  1  0  0  0
 30 50  1  0  0  0
M  END
> <i_i_glide_confnum>
115

> <i_i_glide_lignum>
5039

> <i_i_glide_posenum>
141

> <i_i_glide_rotatable_bonds>
8

> <i_m_Source_File_Index>
553

> <b_m_subgroup_collapsed>
0

> <r_i_docking_score>
-5.89845

> <r_i_glide_ecoul>
-1.57485

> <r_i_glide_eff_state_penalty>
0

> <r_i_glide_einternal>
6.649

> <r_i_glide_emodel>
-64.4262

> <r_i_glide_energy>
-48.7023

> <r_i_glide_erotb>
0.69523

> <r_i_glide_esite>
-0.0128307

> <r_i_glide_evdw>
-47.1274

> <r_i_glide_gscore>
-5.89845

> <r_i_glide_hbond>
-0.269317

> <r_i_glide_ligand_efficiency>
-0.190273

> <r_i_glide_ligand_efficiency_ln>
-1.33028

> <r_i_glide_ligand_efficiency_sa>
-0.597719

> <r_i_glide_lipo>
-2.78435

> <r_i_glide_metal>
0

> <r_i_glide_rewards>
-0.934583

> <s_i_glide_gridfile>
wee1_glide-grid

> <s_m_Source_File>
wee1_decoys_glide_SP.sdf

> <s_m_Source_Path>
/Users/zhangxujun/Desktop

> <s_m_entry_id>
828

> <s_m_entry_name>
wee1_decoys_glide_SP.553

> <s_m_subgroup_title>
wee1_decoys_glide_SP

> <s_m_subgroupid>
wee1_decoys_glide_SP


$$$$
