ZINC13312220_522
                    3D
 Schrodinger Suite 2024-2.
 55 58  0  0  1  0            999 V2000
    5.8772   55.1576   25.6839 C   0  0  0  0  0  0
    4.5462   54.4977   26.0285 C   0  0  0  0  0  0
    4.2082   54.3797   27.3794 C   0  0  0  0  0  0
    3.0071   53.7866   27.7800 C   0  0  0  0  0  0
    2.1538   53.2876   26.7879 C   0  0  0  0  0  0
    2.4809   53.3471   25.4271 C   0  0  0  0  0  0
    3.6770   53.9931   25.0373 C   0  0  0  0  0  0
    4.0266   54.1618   23.5580 C   0  0  0  0  0  0
    1.3160   52.6060   24.2392 S   0  0  0  0  0  0
    2.0844   52.1332   23.0814 O   0  0  0  0  0  0
    0.2484   53.5996   24.0816 O   0  0  0  0  0  0
    0.6134   51.1641   25.0238 N   0  0  0  0  0  0
    1.0447   49.7841   24.6471 C   0  0  0  0  0  0
   -0.1518   48.9362   24.1794 C   0  0  0  0  0  0
   -1.2069   48.9515   25.3180 C   0  0  0  0  0  0
   -1.7161   50.4019   25.5288 C   0  0  0  0  0  0
   -0.5289   51.2829   25.9690 C   0  0  0  0  0  0
   -2.4045   48.0626   24.9311 C   0  0  0  0  0  0
   -2.9384   48.2065   23.8296 O   0  0  0  0  0  0
   -2.8097   47.1849   25.8739 N   0  0  0  0  0  0
   -3.8583   46.2486   25.8181 C   0  0  0  0  0  0
   -4.4953   45.8362   24.6221 C   0  0  0  0  0  0
   -5.5279   44.8892   24.6430 C   0  0  0  0  0  0
   -5.9097   44.3817   25.8772 C   0  0  0  0  0  0
   -5.3050   44.7757   27.0354 C   0  0  0  0  0  0
   -4.2624   45.6969   27.0457 C   0  0  0  0  0  0
   -5.8720   44.1201   28.0815 O   0  0  0  0  0  0
   -6.9549   43.4008   27.5515 C   0  0  0  0  0  0
   -6.8550   43.4458   26.1521 O   0  0  0  0  0  0
    2.6474   53.6775   29.2349 C   0  0  0  0  0  0
    3.4720   54.0968   30.0821 O   0  0  0  0  0  0
    5.7147   56.1123   25.1813 H   0  0  0  0  0  0
    6.4940   55.3306   26.5667 H   0  0  0  0  0  0
    6.4548   54.5191   25.0143 H   0  0  0  0  0  0
    4.8850   54.7688   28.1287 H   0  0  0  0  0  0
    1.2277   52.8276   27.0911 H   0  0  0  0  0  0
    4.8026   54.8967   23.3721 H   0  0  0  0  0  0
    4.3613   53.2178   23.1302 H   0  0  0  0  0  0
    3.1547   54.5019   22.9975 H   0  0  0  0  0  0
    1.5041   49.2991   25.5088 H   0  0  0  0  0  0
    1.8090   49.8367   23.8720 H   0  0  0  0  0  0
    0.2418   47.9325   24.0055 H   0  0  0  0  0  0
   -0.5202   49.3869   23.2546 H   0  0  0  0  0  0
   -0.7837   48.5366   26.2338 H   0  0  0  0  0  0
   -2.1046   50.8419   24.6070 H   0  0  0  0  0  0
   -2.4477   50.4581   26.3374 H   0  0  0  0  0  0
   -0.1781   51.0001   26.9624 H   0  0  0  0  0  0
   -0.8317   52.3283   26.0333 H   0  0  0  0  0  0
   -2.3549   47.2888   26.7760 H   0  0  0  0  0  0
   -4.2029   46.2279   23.6603 H   0  0  0  0  0  0
   -6.0078   44.5733   23.7291 H   0  0  0  0  0  0
   -3.7836   45.9840   27.9730 H   0  0  0  0  0  0
   -6.9322   42.3656   27.8973 H   0  0  0  0  0  0
   -7.8868   43.8807   27.8562 H   0  0  0  0  0  0
    1.5417   53.1668   29.5299 O   0  5  0  0  0  0
  1  2  1  0  0  0
  1 32  1  0  0  0
  1 33  1  0  0  0
  1 34  1  0  0  0
  2  7  2  0  0  0
  2  3  1  0  0  0
  3  4  2  0  0  0
  3 35  1  0  0  0
  4  5  1  0  0  0
  4 30  1  0  0  0
  5  6  2  0  0  0
  5 36  1  0  0  0
  6  7  1  0  0  0
  6  9  1  0  0  0
  7  8  1  0  0  0
  8 37  1  0  0  0
  8 38  1  0  0  0
  8 39  1  0  0  0
  9 10  2  0  0  0
  9 11  2  0  0  0
  9 12  1  0  0  0
 12 17  1  0  0  0
 12 13  1  0  0  0
 13 14  1  0  0  0
 13 40  1  0  0  0
 13 41  1  0  0  0
 14 15  1  0  0  0
 14 42  1  0  0  0
 14 43  1  0  0  0
 15 16  1  0  0  0
 15 18  1  0  0  0
 15 44  1  0  0  0
 16 17  1  0  0  0
 16 45  1  0  0  0
 16 46  1  0  0  0
 17 47  1  0  0  0
 17 48  1  0  0  0
 18 19  2  0  0  0
 18 20  1  0  0  0
 20 21  1  0  0  0
 20 49  1  0  0  0
 21 26  2  0  0  0
 21 22  1  0  0  0
 22 23  2  0  0  0
 22 50  1  0  0  0
 23 24  1  0  0  0
 23 51  1  0  0  0
 24 29  1  0  0  0
 24 25  2  0  0  0
 25 26  1  0  0  0
 25 27  1  0  0  0
 26 52  1  0  0  0
 27 28  1  0  0  0
 28 29  1  0  0  0
 28 53  1  0  0  0
 28 54  1  0  0  0
 30 31  2  0  0  0
 30 55  1  0  0  0
M  CHG  1  55  -1
M  END
> <i_i_glide_confnum>
71

> <i_i_glide_lignum>
523

> <i_i_glide_posenum>
289

> <i_i_glide_rotatable_bonds>
6

> <i_m_Source_File_Index>
1500

> <b_m_subgroup_collapsed>
0

> <r_i_docking_score>
-5.46792

> <r_i_glide_ecoul>
-10.5285

> <r_i_glide_eff_state_penalty>
0

> <r_i_glide_einternal>
5.07423

> <r_i_glide_emodel>
-59.1275

> <r_i_glide_energy>
-44.4366

> <r_i_glide_erotb>
0.476499

> <r_i_glide_esite>
-0.156783

> <r_i_glide_evdw>
-33.9081

> <r_i_glide_gscore>
-5.46792

> <r_i_glide_hbond>
-0.400636

> <r_i_glide_ligand_efficiency>
-0.170872

> <r_i_glide_ligand_efficiency_ln>
-1.22442

> <r_i_glide_ligand_efficiency_sa>
-0.542486

> <r_i_glide_lipo>
-1.77947

> <r_i_glide_metal>
0

> <r_i_glide_rewards>
-0.332845

> <s_i_glide_gridfile>
wee1_glide-grid

> <s_m_Source_File>
wee1_decoys_glide_SP.sdf

> <s_m_Source_Path>
/Users/zhangxujun/Desktop

> <s_m_entry_id>
1775

> <s_m_entry_name>
wee1_decoys_glide_SP.1500

> <s_m_subgroup_title>
wee1_decoys_glide_SP

> <s_m_subgroupid>
wee1_decoys_glide_SP


$$$$
