ZINC67438541_6232
                    3D
 Schrodinger Suite 2024-2.
 61 62  0  0  1  0            999 V2000
    6.6593   54.9125   27.4205 C   0  0  0  0  0  0
    5.9398   54.5730   26.1291 C   0  0  0  0  0  0
    6.6838   54.6785   24.9481 C   0  0  0  0  0  0
    6.0947   54.4349   23.7129 C   0  0  0  0  0  0
    4.7457   54.0969   23.6275 C   0  0  0  0  0  0
    3.9825   54.0301   24.8056 C   0  0  0  0  0  0
    4.5732   54.2105   26.0624 C   0  0  0  0  0  0
    3.7097   53.9812   27.1594 N   0  0  0  0  0  0
    3.9631   53.1915   28.2367 C   0  0  0  0  0  0
    5.0946   52.8791   28.6054 O   0  0  0  0  0  0
    2.7795   52.6333   28.9790 C   0  0  0  0  0  0
    2.9393   52.0976   30.0823 O   0  0  0  0  0  0
    1.5671   52.6705   28.3662 N   0  0  0  0  0  0
    0.3568   52.0002   28.8820 C   0  0  1  0  0  0
    0.6272   50.9615   29.0851 H   0  0  0  0  0  0
   -0.1220   52.6065   30.2214 C   0  0  0  0  0  0
   -0.8100   51.9814   27.8527 C   0  0  0  0  0  0
   -0.7252   50.7708   26.8823 N   0  3  2  0  0  0
    0.2373   51.0458   25.6955 C   0  0  0  0  0  0
    0.3396   49.7708   24.8213 C   0  0  1  0  0  0
    0.7079   48.9561   25.4523 H   0  0  0  0  0  0
   -1.0668   49.3987   24.3137 C   0  0  0  0  0  0
   -2.0181   49.1002   25.4883 C   0  0  1  0  0  0
   -1.5724   48.2982   26.0817 H   0  0  0  0  0  0
   -2.1362   50.3550   26.3870 C   0  0  0  0  0  0
   -3.3976   48.6249   25.0014 C   0  0  0  0  0  0
    1.3188   49.9513   23.6483 C   0  0  0  0  0  0
    4.2706   53.7840   22.3402 N   0  0  0  0  0  0
    3.0922   53.2460   21.9698 C   0  0  0  0  0  0
    2.1442   53.0116   22.7163 O   0  0  0  0  0  0
    2.9761   52.8969   20.4924 C   0  0  0  0  0  0
    7.1976   54.0489   27.8149 H   0  0  0  0  0  0
    7.3886   55.6964   27.2492 H   0  0  0  0  0  0
    5.9761   55.2973   28.1765 H   0  0  0  0  0  0
    7.7299   54.9390   24.9715 H   0  0  0  0  0  0
    6.7096   54.4954   22.8251 H   0  0  0  0  0  0
    2.9379   53.7664   24.7667 H   0  0  0  0  0  0
    2.7456   54.1975   26.9706 H   0  0  0  0  0  0
    1.4886   53.0751   27.4489 H   0  0  0  0  0  0
   -1.0199   52.1006   30.5796 H   0  0  0  0  0  0
    0.6070   52.4930   31.0244 H   0  0  0  0  0  0
   -0.3689   53.6620   30.1232 H   0  0  0  0  0  0
   -1.7541   51.8325   28.3778 H   0  0  0  0  0  0
   -0.8956   52.8856   27.2491 H   0  0  0  0  0  0
   -0.1381   51.9122   25.1446 H   0  0  0  0  0  0
    1.2007   51.2960   26.1302 H   0  0  0  0  0  0
   -1.0035   48.5254   23.6605 H   0  0  0  0  0  0
   -1.4698   50.1746   23.6601 H   0  0  0  0  0  0
   -2.7149   50.1037   27.2800 H   0  0  0  0  0  0
   -2.5852   51.2121   25.8805 H   0  0  0  0  0  0
   -3.9079   49.3902   24.4159 H   0  0  0  0  0  0
   -3.3148   47.7317   24.3823 H   0  0  0  0  0  0
   -4.0400   48.3707   25.8458 H   0  0  0  0  0  0
    0.9621   50.6974   22.9378 H   0  0  0  0  0  0
    2.3042   50.2625   23.9945 H   0  0  0  0  0  0
    1.4528   49.0165   23.1023 H   0  0  0  0  0  0
    4.9347   53.9276   21.5957 H   0  0  0  0  0  0
    3.5471   51.9974   20.2622 H   0  0  0  0  0  0
    3.3512   53.7083   19.8670 H   0  0  0  0  0  0
    1.9341   52.7215   20.2199 H   0  0  0  0  0  0
   -0.3916   49.9635   27.4029 H   0  0  0  0  0  0
  1  2  1  0  0  0
  1 32  1  0  0  0
  1 33  1  0  0  0
  1 34  1  0  0  0
  2  7  2  0  0  0
  2  3  1  0  0  0
  3  4  2  0  0  0
  3 35  1  0  0  0
  4  5  1  0  0  0
  4 36  1  0  0  0
  5  6  2  0  0  0
  5 28  1  0  0  0
  6  7  1  0  0  0
  6 37  1  0  0  0
  7  8  1  0  0  0
  8  9  1  0  0  0
  8 38  1  0  0  0
  9 10  2  0  0  0
  9 11  1  0  0  0
 11 12  2  0  0  0
 11 13  1  0  0  0
 13 14  1  0  0  0
 13 39  1  0  0  0
 14 15  1  0  0  0
 14 16  1  0  0  0
 14 17  1  0  0  0
 16 40  1  0  0  0
 16 41  1  0  0  0
 16 42  1  0  0  0
 17 18  1  0  0  0
 17 43  1  0  0  0
 17 44  1  0  0  0
 18 25  1  0  0  0
 18 19  1  0  0  0
 18 61  1  0  0  0
 19 20  1  0  0  0
 19 45  1  0  0  0
 19 46  1  0  0  0
 20 21  1  0  0  0
 20 22  1  0  0  0
 20 27  1  0  0  0
 22 23  1  0  0  0
 22 47  1  0  0  0
 22 48  1  0  0  0
 23 24  1  0  0  0
 23 25  1  0  0  0
 23 26  1  0  0  0
 25 49  1  0  0  0
 25 50  1  0  0  0
 26 51  1  0  0  0
 26 52  1  0  0  0
 26 53  1  0  0  0
 27 54  1  0  0  0
 27 55  1  0  0  0
 27 56  1  0  0  0
 28 29  1  0  0  0
 28 57  1  0  0  0
 29 30  2  0  0  0
 29 31  1  0  0  0
 31 58  1  0  0  0
 31 59  1  0  0  0
 31 60  1  0  0  0
M  CHG  1  18   1
M  END
> <i_i_glide_confnum>
160

> <i_i_glide_lignum>
6233

> <i_i_glide_posenum>
116

> <i_i_glide_rotatable_bonds>
9

> <i_m_Source_File_Index>
2941

> <b_m_subgroup_collapsed>
0

> <r_i_docking_score>
-5.31547

> <r_i_glide_ecoul>
-3.44498

> <r_i_glide_eff_state_penalty>
0

> <r_i_glide_einternal>
10.3006

> <r_i_glide_emodel>
-57.6612

> <r_i_glide_energy>
-45.5574

> <r_i_glide_erotb>
1.02795

> <r_i_glide_esite>
-0.0849652

> <r_i_glide_evdw>
-42.1124

> <r_i_glide_gscore>
-5.31547

> <r_i_glide_hbond>
-0.381221

> <r_i_glide_ligand_efficiency>
-0.189838

> <r_i_glide_ligand_efficiency_ln>
-1.22697

> <r_i_glide_ligand_efficiency_sa>
-0.576461

> <r_i_glide_lipo>
-1.88836

> <r_i_glide_metal>
0

> <r_i_glide_rewards>
-1.36651

> <s_i_glide_gridfile>
wee1_glide-grid

> <s_m_Source_File>
wee1_decoys_glide_SP.sdf

> <s_m_Source_Path>
/Users/zhangxujun/Desktop

> <s_m_entry_id>
3216

> <s_m_entry_name>
wee1_decoys_glide_SP.2941

> <s_m_subgroup_title>
wee1_decoys_glide_SP

> <s_m_subgroupid>
wee1_decoys_glide_SP


$$$$
