ZINC20744943_6181
                    3D
 Schrodinger Suite 2024-2.
 28 30  0  0  1  0            999 V2000
    5.8561   55.3325   19.6336 C   0  0  0  0  0  0
    4.9330   54.5888   20.3646 C   0  0  0  0  0  0
    5.1468   54.3020   21.7225 C   0  0  0  0  0  0
    6.3048   54.8156   22.3448 C   0  0  0  0  0  0
    7.2191   55.5692   21.6074 C   0  0  0  0  0  0
    7.0025   55.8162   20.2548 C   0  0  0  0  0  0
    7.9044   56.5277   19.5469 F   0  0  0  0  0  0
    6.6581   54.5354   24.0183 Cl  0  0  0  0  0  0
    4.1400   53.4304   22.4931 C   0  0  2  0  0  0
    4.7472   52.8970   23.2194 H   0  0  0  0  0  0
    3.4640   52.3423   21.6483 C   0  0  0  0  0  0
    4.0690   51.5838   20.6518 C   0  0  0  0  0  0
    3.1043   50.8138   20.0776 N   0  0  0  0  0  0
    3.2498   50.2169   19.2695 H   0  0  0  0  0  0
    1.9161   50.9848   20.6466 N   0  0  0  0  0  0
    2.1211   51.8656   21.6025 C   0  0  0  0  0  0
    1.0008   52.2304   22.3190 N   0  0  0  0  0  0
    0.8225   52.8184   23.5148 C   0  0  0  0  0  0
   -0.2919   53.1007   23.9482 O   0  0  0  0  0  0
    2.0973   53.1604   24.2841 C   0  0  0  0  0  0
    3.0483   54.4859   23.4989 S   0  0  0  0  0  0
    5.6786   55.5367   18.5873 H   0  0  0  0  0  0
    4.0408   54.2403   19.8639 H   0  0  0  0  0  0
    8.1125   55.9514   22.0803 H   0  0  0  0  0  0
    5.0752   51.5760   20.2560 H   0  0  0  0  0  0
    0.1331   51.9761   21.8747 H   0  0  0  0  0  0
    1.8088   53.5031   25.2783 H   0  0  0  0  0  0
    2.7006   52.2686   24.4426 H   0  0  0  0  0  0
  1  6  2  0  0  0
  1  2  1  0  0  0
  1 22  1  0  0  0
  2  3  2  0  0  0
  2 23  1  0  0  0
  3  4  1  0  0  0
  3  9  1  0  0  0
  4  5  2  0  0  0
  4  8  1  0  0  0
  5  6  1  0  0  0
  5 24  1  0  0  0
  6  7  1  0  0  0
  9 10  1  0  0  0
  9 21  1  0  0  0
  9 11  1  0  0  0
 11 16  1  0  0  0
 11 12  2  0  0  0
 12 13  1  0  0  0
 12 25  1  0  0  0
 13 14  1  0  0  0
 13 15  1  0  0  0
 15 16  2  0  0  0
 16 17  1  0  0  0
 17 18  1  0  0  0
 17 26  1  0  0  0
 18 19  2  0  0  0
 18 20  1  0  0  0
 20 21  1  0  0  0
 20 27  1  0  0  0
 20 28  1  0  0  0
M  END
> <i_i_glide_confnum>
3

> <i_i_glide_lignum>
6182

> <i_i_glide_posenum>
224

> <i_i_glide_rotatable_bonds>
1

> <i_m_Source_File_Index>
1615

> <b_m_subgroup_collapsed>
0

> <r_i_docking_score>
-4.91406

> <r_i_glide_ecoul>
-2.4371

> <r_i_glide_eff_state_penalty>
0

> <r_i_glide_einternal>
0.983646

> <r_i_glide_emodel>
-39.5899

> <r_i_glide_energy>
-29.4409

> <r_i_glide_erotb>
0.20689

> <r_i_glide_esite>
-0.0757329

> <r_i_glide_evdw>
-27.0038

> <r_i_glide_gscore>
-4.91406

> <r_i_glide_hbond>
-0.00552658

> <r_i_glide_ligand_efficiency>
-0.258635

> <r_i_glide_ligand_efficiency_ln>
-1.24582

> <r_i_glide_ligand_efficiency_sa>
-0.690142

> <r_i_glide_lipo>
-1.73897

> <r_i_glide_metal>
0

> <r_i_glide_rewards>
-1.58496

> <s_i_glide_gridfile>
wee1_glide-grid

> <s_m_Source_File>
wee1_decoys_glide_SP.sdf

> <s_m_Source_Path>
/Users/zhangxujun/Desktop

> <s_m_entry_id>
1890

> <s_m_entry_name>
wee1_decoys_glide_SP.1615

> <s_m_subgroup_title>
wee1_decoys_glide_SP

> <s_m_subgroupid>
wee1_decoys_glide_SP


$$$$
