ZINC38076220_1838
                    3D
 Schrodinger Suite 2024-2.
 33 35  0  0  1  0            999 V2000
    5.1114   54.1479   19.9496 C   0  0  0  0  0  0
    5.0210   53.9354   21.3249 C   0  0  0  0  0  0
    5.9006   54.5906   22.2037 C   0  0  0  0  0  0
    6.8912   55.4258   21.6788 C   0  0  0  0  0  0
    6.9718   55.6443   20.3031 C   0  0  0  0  0  0
    6.0835   55.0058   19.4396 C   0  0  0  0  0  0
    7.9012   56.4878   19.8053 F   0  0  0  0  0  0
    5.8437   54.4632   23.6031 N   0  0  0  0  0  0
    4.7476   54.2277   24.3563 C   0  0  0  0  0  0
    3.6099   54.0993   23.9068 O   0  0  0  0  0  0
    5.0738   54.1538   25.6626 N   0  0  0  0  0  0
    4.2744   53.8292   26.7879 C   0  0  0  0  0  0
    2.8635   53.7357   26.7349 C   0  0  0  0  0  0
    2.1823   53.3547   27.8854 C   0  0  0  0  0  0
    2.8324   53.0780   29.0492 C   0  0  0  0  0  0
    4.2094   53.1822   29.1526 C   0  0  0  0  0  0
    4.9368   53.5726   28.0195 C   0  0  0  0  0  0
    6.3233   53.6965   28.1636 N   0  0  0  0  0  0
    1.9313   52.7513   30.0121 O   0  0  0  0  0  0
    0.6992   52.6320   29.3479 C   0  0  0  0  0  0
    0.8434   53.2254   28.0824 O   0  0  0  0  0  0
    4.4256   53.6462   19.2806 H   0  0  0  0  0  0
    4.2597   53.2645   21.6923 H   0  0  0  0  0  0
    7.5921   55.9251   22.3317 H   0  0  0  0  0  0
    6.1441   55.1774   18.3752 H   0  0  0  0  0  0
    6.7059   54.6749   24.0821 H   0  0  0  0  0  0
    6.0535   54.2294   25.8729 H   0  0  0  0  0  0
    2.2968   53.9460   25.8439 H   0  0  0  0  0  0
    4.7004   52.9620   30.0821 H   0  0  0  0  0  0
    6.7137   53.6327   29.0940 H   0  0  0  0  0  0
    6.8538   54.1615   27.4454 H   0  0  0  0  0  0
    0.4551   51.5731   29.2222 H   0  0  0  0  0  0
   -0.0968   53.1209   29.9168 H   0  0  0  0  0  0
  1  6  2  0  0  0
  1  2  1  0  0  0
  1 22  1  0  0  0
  2  3  2  0  0  0
  2 23  1  0  0  0
  3  4  1  0  0  0
  3  8  1  0  0  0
  4  5  2  0  0  0
  4 24  1  0  0  0
  5  6  1  0  0  0
  5  7  1  0  0  0
  6 25  1  0  0  0
  8  9  1  0  0  0
  8 26  1  0  0  0
  9 10  2  0  0  0
  9 11  1  0  0  0
 11 12  1  0  0  0
 11 27  1  0  0  0
 12 17  2  0  0  0
 12 13  1  0  0  0
 13 14  2  0  0  0
 13 28  1  0  0  0
 14 21  1  0  0  0
 14 15  1  0  0  0
 15 16  2  0  0  0
 15 19  1  0  0  0
 16 17  1  0  0  0
 16 29  1  0  0  0
 17 18  1  0  0  0
 18 30  1  0  0  0
 18 31  1  0  0  0
 19 20  1  0  0  0
 20 21  1  0  0  0
 20 32  1  0  0  0
 20 33  1  0  0  0
M  END
> <i_i_glide_confnum>
6

> <i_i_glide_lignum>
1839

> <i_i_glide_posenum>
398

> <i_i_glide_rotatable_bonds>
4

> <i_m_Source_File_Index>
5002

> <b_m_subgroup_collapsed>
0

> <r_i_docking_score>
-5.20301

> <r_i_glide_ecoul>
-0.85773

> <r_i_glide_eff_state_penalty>
0

> <r_i_glide_einternal>
3.55837

> <r_i_glide_emodel>
-47.5302

> <r_i_glide_energy>
-36.272

> <r_i_glide_erotb>
0.652761

> <r_i_glide_esite>
-0.00707021

> <r_i_glide_evdw>
-35.4143

> <r_i_glide_gscore>
-5.20301

> <r_i_glide_hbond>
0

> <r_i_glide_ligand_efficiency>
-0.247763

> <r_i_glide_ligand_efficiency_ln>
-1.28643

> <r_i_glide_ligand_efficiency_sa>
-0.683558

> <r_i_glide_lipo>
-2.07115

> <r_i_glide_metal>
0

> <r_i_glide_rewards>
-1.87818

> <s_i_glide_gridfile>
wee1_glide-grid

> <s_m_Source_File>
wee1_decoys_glide_SP.sdf

> <s_m_Source_Path>
/Users/zhangxujun/Desktop

> <s_m_entry_id>
5277

> <s_m_entry_name>
wee1_decoys_glide_SP.5002

> <s_m_subgroup_title>
wee1_decoys_glide_SP

> <s_m_subgroupid>
wee1_decoys_glide_SP


$$$$
