ZINC20558487_6112
                    3D
 Schrodinger Suite 2024-2.
 57 61  0  0  1  0            999 V2000
    1.2862   47.8545   19.2348 C   0  0  0  0  0  0
    2.0454   49.1742   19.0195 C   0  0  0  0  0  0
    1.9068   50.1589   20.1731 C   0  0  0  0  0  0
    2.3932   49.8219   21.4369 C   0  0  0  0  0  0
    2.3037   50.7324   22.4826 C   0  0  0  0  0  0
    1.7266   51.9907   22.2792 C   0  0  0  0  0  0
    1.2339   52.3216   21.0129 C   0  0  0  0  0  0
    1.3255   51.4116   19.9636 C   0  0  0  0  0  0
    1.6465   53.0168   23.4179 C   0  0  2  0  0  0
    1.0162   53.8254   23.0427 H   0  0  0  0  0  0
    3.0047   53.6593   23.7663 C   0  0  0  0  0  0
    3.3208   53.9634   25.0417 C   0  0  0  0  0  0
    2.5070   53.6738   26.0881 O   0  0  0  0  0  0
    1.3862   52.8970   25.9393 C   0  0  0  0  0  0
    0.9412   52.5459   24.7150 C   0  0  0  0  0  0
   -0.5744   51.6168   24.4690 S   0  0  0  0  0  0
   -1.4889   52.4191   23.6488 O   0  0  0  0  0  0
   -0.2598   50.2720   23.9736 O   0  0  0  0  0  0
   -1.2251   51.4665   26.1404 N   0  0  0  0  0  0
   -0.5340   51.9177   27.3021 C   0  0  0  0  0  0
    0.7122   52.5846   27.2221 C   0  0  0  0  0  0
    1.3426   52.9853   28.4175 C   0  0  0  0  0  0
    0.7674   52.7475   29.6619 C   0  0  0  0  0  0
   -0.4533   52.0964   29.7405 C   0  0  0  0  0  0
   -1.0906   51.6875   28.5745 C   0  0  0  0  0  0
   -2.4685   50.6820   26.1945 C   0  0  0  0  0  0
   -3.7148   51.4948   26.5343 C   0  0  0  0  0  0
   -4.5911   51.0154   27.5138 C   0  0  0  0  0  0
   -5.7800   51.6923   27.7796 C   0  0  0  0  0  0
   -6.0951   52.8428   27.0584 C   0  0  0  0  0  0
   -5.2268   53.3284   26.0823 C   0  0  0  0  0  0
   -4.0366   52.6554   25.8220 C   0  0  0  0  0  0
   -7.2481   53.5030   27.3155 F   0  0  0  0  0  0
    4.4851   54.4973   25.5223 N   0  0  0  0  0  0
    3.9506   53.9032   22.7230 C   0  0  0  0  0  0
    4.7531   54.0995   21.9140 N   0  0  0  0  0  0
    1.3715   47.2124   18.3575 H   0  0  0  0  0  0
    0.2253   48.0336   19.4166 H   0  0  0  0  0  0
    1.6905   47.2983   20.0820 H   0  0  0  0  0  0
    3.1069   48.9646   18.8802 H   0  0  0  0  0  0
    1.7155   49.6371   18.0875 H   0  0  0  0  0  0
    2.8476   48.8579   21.6088 H   0  0  0  0  0  0
    2.6942   50.4534   23.4514 H   0  0  0  0  0  0
    0.7948   53.2934   20.8357 H   0  0  0  0  0  0
    0.9606   51.6905   18.9864 H   0  0  0  0  0  0
    2.2958   53.4922   28.4016 H   0  0  0  0  0  0
    1.2698   53.0616   30.5641 H   0  0  0  0  0  0
   -0.8961   51.8842   30.7045 H   0  0  0  0  0  0
   -2.0242   51.1570   28.6895 H   0  0  0  0  0  0
   -2.6598   50.2254   25.2215 H   0  0  0  0  0  0
   -2.3427   49.8445   26.8820 H   0  0  0  0  0  0
   -4.3556   50.1114   28.0606 H   0  0  0  0  0  0
   -6.4591   51.3214   28.5324 H   0  0  0  0  0  0
   -5.4854   54.2160   25.5225 H   0  0  0  0  0  0
   -3.3816   53.0335   25.0522 H   0  0  0  0  0  0
    5.2052   54.8022   24.8827 H   0  0  0  0  0  0
    4.7561   54.3309   26.4801 H   0  0  0  0  0  0
  1  2  1  0  0  0
  1 37  1  0  0  0
  1 38  1  0  0  0
  1 39  1  0  0  0
  2  3  1  0  0  0
  2 40  1  0  0  0
  2 41  1  0  0  0
  3  8  2  0  0  0
  3  4  1  0  0  0
  4  5  2  0  0  0
  4 42  1  0  0  0
  5  6  1  0  0  0
  5 43  1  0  0  0
  6  7  2  0  0  0
  6  9  1  0  0  0
  7  8  1  0  0  0
  7 44  1  0  0  0
  8 45  1  0  0  0
  9 10  1  0  0  0
  9 15  1  0  0  0
  9 11  1  0  0  0
 11 12  2  0  0  0
 11 35  1  0  0  0
 12 13  1  0  0  0
 12 34  1  0  0  0
 13 14  1  0  0  0
 14 21  1  0  0  0
 14 15  2  0  0  0
 15 16  1  0  0  0
 16 17  2  0  0  0
 16 18  2  0  0  0
 16 19  1  0  0  0
 19 20  1  0  0  0
 19 26  1  0  0  0
 20 25  2  0  0  0
 20 21  1  0  0  0
 21 22  2  0  0  0
 22 23  1  0  0  0
 22 46  1  0  0  0
 23 24  2  0  0  0
 23 47  1  0  0  0
 24 25  1  0  0  0
 24 48  1  0  0  0
 25 49  1  0  0  0
 26 27  1  0  0  0
 26 50  1  0  0  0
 26 51  1  0  0  0
 27 32  2  0  0  0
 27 28  1  0  0  0
 28 29  2  0  0  0
 28 52  1  0  0  0
 29 30  1  0  0  0
 29 53  1  0  0  0
 30 31  2  0  0  0
 30 33  1  0  0  0
 31 32  1  0  0  0
 31 54  1  0  0  0
 32 55  1  0  0  0
 34 56  1  0  0  0
 34 57  1  0  0  0
 35 36  3  0  0  0
M  END
> <i_i_glide_confnum>
15

> <i_i_glide_lignum>
6113

> <i_i_glide_posenum>
195

> <i_i_glide_rotatable_bonds>
5

> <i_m_Source_File_Index>
1898

> <b_m_subgroup_collapsed>
0

> <r_i_docking_score>
-4.49715

> <r_i_glide_ecoul>
-2.43028

> <r_i_glide_eff_state_penalty>
0

> <r_i_glide_einternal>
4.60648

> <r_i_glide_emodel>
-54.3122

> <r_i_glide_energy>
-43.8696

> <r_i_glide_erotb>
0.256584

> <r_i_glide_esite>
-0.032145

> <r_i_glide_evdw>
-41.4393

> <r_i_glide_gscore>
-4.49715

> <r_i_glide_hbond>
0

> <r_i_glide_ligand_efficiency>
-0.12849

> <r_i_glide_ligand_efficiency_ln>
-0.987223

> <r_i_glide_ligand_efficiency_sa>
-0.420299

> <r_i_glide_lipo>
-1.8511

> <r_i_glide_metal>
0

> <r_i_glide_rewards>
-0.433979

> <s_i_glide_gridfile>
wee1_glide-grid

> <s_m_Source_File>
wee1_decoys_glide_SP.sdf

> <s_m_Source_Path>
/Users/zhangxujun/Desktop

> <s_m_entry_id>
2173

> <s_m_entry_name>
wee1_decoys_glide_SP.1898

> <s_m_subgroup_title>
wee1_decoys_glide_SP

> <s_m_subgroupid>
wee1_decoys_glide_SP


$$$$
