ZINC32692419_2973
                    3D
 Schrodinger Suite 2024-2.
 53 55  0  0  1  0            999 V2000
    0.5315   51.5021   23.9517 C   0  0  0  0  0  0
    0.6032   52.8423   24.6976 C   0  0  0  0  0  0
    1.9520   53.2293   24.9489 O   0  0  0  0  0  0
    2.7150   53.8205   23.9993 C   0  0  0  0  0  0
    2.3138   54.0909   22.8660 O   0  0  0  0  0  0
    4.0973   54.0969   24.4565 C   0  0  0  0  0  0
    4.5653   54.0997   25.8102 C   0  0  0  0  0  0
    5.9226   54.4348   25.9199 C   0  0  0  0  0  0
    6.6624   54.7104   24.3986 S   0  0  0  0  0  0
    5.1588   54.4076   23.5706 C   0  0  0  0  0  0
    5.0489   54.4964   22.1765 N   0  0  0  0  0  0
    5.9459   54.9706   21.2805 C   0  0  0  0  0  0
    7.0786   55.3679   21.5555 O   0  0  0  0  0  0
    5.4494   55.0780   19.8342 C   0  0  0  0  0  0
    6.7234   54.7754   18.5569 S   0  0  0  0  0  0
    6.0724   53.3115   17.6892 C   0  0  0  0  0  0
    4.6531   53.4960   17.1351 C   0  0  0  0  0  0
    4.3700   54.5257   16.5207 O   0  0  0  0  0  0
    3.7836   52.4967   17.3982 N   0  0  0  0  0  0
    2.3792   52.5186   17.3006 C   0  0  0  0  0  0
    1.6230   53.7013   17.2820 C   0  0  0  0  0  0
    0.2332   53.6433   17.2856 C   0  0  0  0  0  0
   -0.4067   52.4085   17.3156 C   0  0  0  0  0  0
    0.3330   51.2267   17.3177 C   0  0  0  0  0  0
    1.7264   51.2835   17.3126 C   0  0  0  0  0  0
   -2.3086   52.3416   17.3859 Br  0  0  0  0  0  0
    6.6865   54.6168   27.2179 C   0  0  0  0  0  0
    5.9579   53.8573   28.3319 C   0  0  0  0  0  0
    4.4687   54.2251   28.3689 C   0  0  0  0  0  0
    3.7249   53.8324   27.0729 C   0  0  0  0  0  0
   -0.5042   51.1923   23.8133 H   0  0  0  0  0  0
    0.9908   51.5718   22.9652 H   0  0  0  0  0  0
    1.0424   50.7154   24.5080 H   0  0  0  0  0  0
    0.1036   52.7398   25.6605 H   0  0  0  0  0  0
    0.0701   53.6223   24.1522 H   0  0  0  0  0  0
    4.1276   54.2708   21.8226 H   0  0  0  0  0  0
    4.5808   54.4376   19.6821 H   0  0  0  0  0  0
    5.1048   56.0996   19.6818 H   0  0  0  0  0  0
    6.7421   53.0473   16.8722 H   0  0  0  0  0  0
    6.0976   52.4967   18.4088 H   0  0  0  0  0  0
    4.1975   51.6077   17.6820 H   0  0  0  0  0  0
    2.0887   54.6743   17.3106 H   0  0  0  0  0  0
   -0.3425   54.5568   17.2940 H   0  0  0  0  0  0
   -0.1689   50.2692   17.3387 H   0  0  0  0  0  0
    2.2964   50.3641   17.3319 H   0  0  0  0  0  0
    6.7232   55.6771   27.4683 H   0  0  0  0  0  0
    7.7160   54.2711   27.1373 H   0  0  0  0  0  0
    6.4352   54.0954   29.2817 H   0  0  0  0  0  0
    6.0696   52.7817   28.1861 H   0  0  0  0  0  0
    4.3684   55.2965   28.5377 H   0  0  0  0  0  0
    3.9885   53.7464   29.2233 H   0  0  0  0  0  0
    3.4720   52.7733   27.1175 H   0  0  0  0  0  0
    2.7782   54.3720   27.0404 H   0  0  0  0  0  0
  1  2  1  0  0  0
  1 31  1  0  0  0
  1 32  1  0  0  0
  1 33  1  0  0  0
  2  3  1  0  0  0
  2 34  1  0  0  0
  2 35  1  0  0  0
  3  4  1  0  0  0
  4  5  2  0  0  0
  4  6  1  0  0  0
  6 10  2  0  0  0
  6  7  1  0  0  0
  7 30  1  0  0  0
  7  8  2  0  0  0
  8  9  1  0  0  0
  8 27  1  0  0  0
  9 10  1  0  0  0
 10 11  1  0  0  0
 11 12  1  0  0  0
 11 36  1  0  0  0
 12 13  2  0  0  0
 12 14  1  0  0  0
 14 15  1  0  0  0
 14 37  1  0  0  0
 14 38  1  0  0  0
 15 16  1  0  0  0
 16 17  1  0  0  0
 16 39  1  0  0  0
 16 40  1  0  0  0
 17 18  2  0  0  0
 17 19  1  0  0  0
 19 20  1  0  0  0
 19 41  1  0  0  0
 20 25  2  0  0  0
 20 21  1  0  0  0
 21 22  2  0  0  0
 21 42  1  0  0  0
 22 23  1  0  0  0
 22 43  1  0  0  0
 23 24  2  0  0  0
 23 26  1  0  0  0
 24 25  1  0  0  0
 24 44  1  0  0  0
 25 45  1  0  0  0
 27 28  1  0  0  0
 27 46  1  0  0  0
 27 47  1  0  0  0
 28 29  1  0  0  0
 28 48  1  0  0  0
 28 49  1  0  0  0
 29 30  1  0  0  0
 29 50  1  0  0  0
 29 51  1  0  0  0
 30 52  1  0  0  0
 30 53  1  0  0  0
M  END
> <i_i_glide_confnum>
22

> <i_i_glide_lignum>
2974

> <i_i_glide_posenum>
256

> <i_i_glide_rotatable_bonds>
11

> <i_m_Source_File_Index>
1822

> <b_m_subgroup_collapsed>
0

> <r_i_docking_score>
-5.54509

> <r_i_glide_ecoul>
-4.20867

> <r_i_glide_eff_state_penalty>
0

> <r_i_glide_einternal>
8.4239

> <r_i_glide_emodel>
-59.9885

> <r_i_glide_energy>
-45.6703

> <r_i_glide_erotb>
0.705079

> <r_i_glide_esite>
-0.125332

> <r_i_glide_evdw>
-41.4616

> <r_i_glide_gscore>
-5.54509

> <r_i_glide_hbond>
-0.16

> <r_i_glide_ligand_efficiency>
-0.184836

> <r_i_glide_ligand_efficiency_ln>
-1.25991

> <r_i_glide_ligand_efficiency_sa>
-0.57433

> <r_i_glide_lipo>
-2.65641

> <r_i_glide_metal>
0

> <r_i_glide_rewards>
-0.604051

> <s_i_glide_gridfile>
wee1_glide-grid

> <s_m_Source_File>
wee1_decoys_glide_SP.sdf

> <s_m_Source_Path>
/Users/zhangxujun/Desktop

> <s_m_entry_id>
2097

> <s_m_entry_name>
wee1_decoys_glide_SP.1822

> <s_m_subgroup_title>
wee1_decoys_glide_SP

> <s_m_subgroupid>
wee1_decoys_glide_SP


$$$$
