ZINC33810219_4654
                    3D
 Schrodinger Suite 2024-2.
 58 63  0  0  1  0            999 V2000
    4.3514   54.4980   29.5339 C   0  0  0  0  0  0
    4.6830   54.3821   28.0597 C   0  0  0  0  0  0
    6.0056   54.2001   27.6517 C   0  0  0  0  0  0
    6.3026   54.0961   26.2953 C   0  0  0  0  0  0
    5.2804   54.1737   25.3460 C   0  0  0  0  0  0
    3.9615   54.3811   25.7586 C   0  0  0  0  0  0
    3.6630   54.4837   27.1134 C   0  0  0  0  0  0
    5.5865   53.9962   23.8648 C   0  0  0  0  0  0
    6.7044   55.2966   23.2319 S   0  0  0  0  0  0
    6.3047   55.3883   21.4672 C   0  0  0  0  0  0
    5.5208   54.4813   20.9993 N   0  5  0  0  0  0
    5.2142   54.4524   19.7025 C   0  0  0  0  0  0
    4.4618   53.6414   19.1724 O   0  0  0  0  0  0
    5.8194   55.4820   18.8396 C   0  0  0  0  0  0
    6.5883   56.4133   19.4744 C   0  0  0  0  0  0
    6.8476   56.3767   20.8214 N   0  0  0  0  0  0
    7.1839   57.4233   18.7737 N   0  0  0  0  0  0
    7.0299   57.6106   17.4171 C   0  0  0  0  0  0
    6.2690   56.7482   16.6806 C   0  0  0  0  0  0
    5.6931   55.4398   17.2997 C   0  0  1  0  0  0
    4.6398   55.4464   17.0409 H   0  0  0  0  0  0
    6.3640   54.1790   16.7057 C   0  0  0  0  0  0
    7.7177   53.9859   17.0546 C   0  0  0  0  0  0
    8.4006   52.9031   16.5306 C   0  0  0  0  0  0
    7.8066   52.0406   15.6653 C   0  0  0  0  0  0
    6.4829   52.1918   15.2795 C   0  0  0  0  0  0
    5.7291   53.2560   15.8180 C   0  0  0  0  0  0
    4.3056   53.3521   15.4124 N   0  3  0  0  0  0
    3.4549   53.6514   16.2421 O   0  0  0  0  0  0
    4.0251   53.0668   14.2507 O   0  5  0  0  0  0
    8.7077   51.0971   15.2840 O   0  0  0  0  0  0
    9.8027   51.2642   16.1447 C   0  0  0  0  0  0
    9.6954   52.5384   16.7189 O   0  0  0  0  0  0
    6.0077   57.0006   15.2415 C   0  0  0  0  0  0
    5.4374   56.1817   14.5226 O   0  0  0  0  0  0
    6.5817   58.2894   14.6308 C   0  0  0  0  0  0
    6.7534   59.3975   15.6823 C   0  0  0  0  0  0
    7.6097   58.9093   16.8635 C   0  0  0  0  0  0
    5.1842   54.9392   30.0817 H   0  0  0  0  0  0
    3.4921   55.1529   29.6819 H   0  0  0  0  0  0
    4.1303   53.5179   29.9563 H   0  0  0  0  0  0
    6.7995   54.1337   28.3823 H   0  0  0  0  0  0
    7.3216   53.9382   25.9799 H   0  0  0  0  0  0
    3.1626   54.4463   25.0341 H   0  0  0  0  0  0
    2.6393   54.6335   27.4242 H   0  0  0  0  0  0
    6.0559   53.0301   23.6867 H   0  0  0  0  0  0
    4.6435   53.9841   23.3174 H   0  0  0  0  0  0
    7.8114   58.0243   19.2808 H   0  0  0  0  0  0
    8.2201   54.6726   17.7195 H   0  0  0  0  0  0
    6.0309   51.4827   14.6014 H   0  0  0  0  0  0
    9.7618   50.5117   16.9359 H   0  0  0  0  0  0
   10.7432   51.1573   15.6036 H   0  0  0  0  0  0
    7.5649   58.0296   14.2383 H   0  0  0  0  0  0
    5.9664   58.6014   13.7868 H   0  0  0  0  0  0
    7.1951   60.2889   15.2354 H   0  0  0  0  0  0
    5.7674   59.6972   16.0451 H   0  0  0  0  0  0
    7.5054   59.6974   17.6109 H   0  0  0  0  0  0
    8.6740   58.8262   16.6417 H   0  0  0  0  0  0
  1  2  1  0  0  0
  1 39  1  0  0  0
  1 40  1  0  0  0
  1 41  1  0  0  0
  2  7  2  0  0  0
  2  3  1  0  0  0
  3  4  2  0  0  0
  3 42  1  0  0  0
  4  5  1  0  0  0
  4 43  1  0  0  0
  5  6  2  0  0  0
  5  8  1  0  0  0
  6  7  1  0  0  0
  6 44  1  0  0  0
  7 45  1  0  0  0
  8  9  1  0  0  0
  8 46  1  0  0  0
  8 47  1  0  0  0
  9 10  1  0  0  0
 10 16  2  0  0  0
 10 11  1  0  0  0
 11 12  1  0  0  0
 12 13  2  0  0  0
 12 14  1  0  0  0
 14 20  1  0  0  0
 14 15  2  0  0  0
 15 16  1  0  0  0
 15 17  1  0  0  0
 17 18  1  0  0  0
 17 48  1  0  0  0
 18 38  1  0  0  0
 18 19  2  0  0  0
 19 20  1  0  0  0
 19 34  1  0  0  0
 20 21  1  0  0  0
 20 22  1  0  0  0
 22 27  2  0  0  0
 22 23  1  0  0  0
 23 24  2  0  0  0
 23 49  1  0  0  0
 24 33  1  0  0  0
 24 25  1  0  0  0
 25 26  2  0  0  0
 25 31  1  0  0  0
 26 27  1  0  0  0
 26 50  1  0  0  0
 27 28  1  0  0  0
 28 29  2  0  0  0
 28 30  1  0  0  0
 31 32  1  0  0  0
 32 33  1  0  0  0
 32 51  1  0  0  0
 32 52  1  0  0  0
 34 35  2  0  0  0
 34 36  1  0  0  0
 36 37  1  0  0  0
 36 53  1  0  0  0
 36 54  1  0  0  0
 37 38  1  0  0  0
 37 55  1  0  0  0
 37 56  1  0  0  0
 38 57  1  0  0  0
 38 58  1  0  0  0
M  CHG  3  11  -1  28   1  30  -1
M  END
> <i_i_glide_confnum>
4

> <i_i_glide_lignum>
4655

> <i_i_glide_posenum>
174

> <i_i_glide_rotatable_bonds>
5

> <i_m_Source_File_Index>
3082

> <b_m_subgroup_collapsed>
0

> <r_i_docking_score>
-4.89526

> <r_i_glide_ecoul>
0.195876

> <r_i_glide_eff_state_penalty>
0

> <r_i_glide_einternal>
1.08807

> <r_i_glide_emodel>
-51.4442

> <r_i_glide_energy>
-39.5517

> <r_i_glide_erotb>
0.306638

> <r_i_glide_esite>
-0.0522569

> <r_i_glide_evdw>
-39.7476

> <r_i_glide_gscore>
-4.89526

> <r_i_glide_hbond>
-0.281466

> <r_i_glide_ligand_efficiency>
-0.132304

> <r_i_glide_ligand_efficiency_ln>
-1.06167

> <r_i_glide_ligand_efficiency_sa>
-0.440867

> <r_i_glide_lipo>
-2.3641

> <r_i_glide_metal>
0

> <r_i_glide_rewards>
-0.546077

> <s_i_glide_gridfile>
wee1_glide-grid

> <s_m_Source_File>
wee1_decoys_glide_SP.sdf

> <s_m_Source_Path>
/Users/zhangxujun/Desktop

> <s_m_entry_id>
3357

> <s_m_entry_name>
wee1_decoys_glide_SP.3082

> <s_m_subgroup_title>
wee1_decoys_glide_SP

> <s_m_subgroupid>
wee1_decoys_glide_SP


$$$$
