ZINC03357084_4362
                    3D
 Schrodinger Suite 2024-2.
 41 43  0  0  1  0            999 V2000
    6.7283   54.0978   27.3208 C   0  0  0  0  0  0
    5.5241   54.1589   26.4245 C   0  0  0  0  0  0
    4.1752   54.3117   26.6644 C   0  0  0  0  0  0
    3.5491   54.3249   25.4221 C   0  0  0  0  0  0
    4.5309   54.1065   24.4548 C   0  0  0  0  0  0
    5.7410   54.0866   25.0835 O   0  0  0  0  0  0
    4.5227   54.0961   23.0001 C   0  0  0  0  0  0
    5.5117   54.4851   22.3816 O   0  0  0  0  0  0
    3.4288   53.6794   22.3205 N   0  0  0  0  0  0
    2.3054   53.0305   22.8333 C   0  0  0  0  0  0
    2.2678   51.6356   22.8675 C   0  0  0  0  0  0
    1.1848   50.9904   23.4584 C   0  0  0  0  0  0
    0.1347   51.7489   23.9788 C   0  0  0  0  0  0
    0.1360   53.1382   23.8646 C   0  0  0  0  0  0
    1.2206   53.7811   23.2816 C   0  0  0  0  0  0
   -1.1854   50.9435   24.8684 S   0  0  0  0  0  0
   -2.2308   51.9395   25.1351 O   0  0  0  0  0  0
   -1.4869   49.6906   24.1680 O   0  0  0  0  0  0
   -0.4690   50.4970   26.4196 N   0  0  0  0  0  0
   -0.2958   51.4518   27.4252 C   0  0  0  0  0  0
   -1.0161   51.2968   28.6036 C   0  0  0  0  0  0
   -0.7788   52.1252   29.6860 C   0  0  0  0  0  0
    0.1025   53.1903   29.5516 C   0  0  0  0  0  0
    0.8061   53.3846   28.3632 C   0  0  0  0  0  0
    0.6252   52.4959   27.3027 C   0  0  0  0  0  0
    0.3107   54.5107   31.1532 I   0  0  0  0  0  0
    6.4742   53.7266   28.3129 H   0  0  0  0  0  0
    7.1629   55.0861   27.4552 H   0  0  0  0  0  0
    7.5010   53.4413   26.9213 H   0  0  0  0  0  0
    3.7114   54.4301   27.6310 H   0  0  0  0  0  0
    2.4973   54.4838   25.2748 H   0  0  0  0  0  0
    3.4842   53.7291   21.3130 H   0  0  0  0  0  0
    3.0910   51.0529   22.4787 H   0  0  0  0  0  0
    1.1779   49.9118   23.5399 H   0  0  0  0  0  0
   -0.6886   53.7207   24.2467 H   0  0  0  0  0  0
    1.2337   54.8593   23.2106 H   0  0  0  0  0  0
   -0.8302   49.6097   26.7541 H   0  0  0  0  0  0
   -1.7343   50.4968   28.7052 H   0  0  0  0  0  0
   -1.2955   51.9560   30.6203 H   0  0  0  0  0  0
    1.4912   54.2134   28.2707 H   0  0  0  0  0  0
    1.2049   52.6121   26.4005 H   0  0  0  0  0  0
  1  2  1  0  0  0
  1 27  1  0  0  0
  1 28  1  0  0  0
  1 29  1  0  0  0
  2  6  1  0  0  0
  2  3  2  0  0  0
  3  4  1  0  0  0
  3 30  1  0  0  0
  4  5  2  0  0  0
  4 31  1  0  0  0
  5  6  1  0  0  0
  5  7  1  0  0  0
  7  8  2  0  0  0
  7  9  1  0  0  0
  9 10  1  0  0  0
  9 32  1  0  0  0
 10 15  2  0  0  0
 10 11  1  0  0  0
 11 12  2  0  0  0
 11 33  1  0  0  0
 12 13  1  0  0  0
 12 34  1  0  0  0
 13 14  2  0  0  0
 13 16  1  0  0  0
 14 15  1  0  0  0
 14 35  1  0  0  0
 15 36  1  0  0  0
 16 17  2  0  0  0
 16 18  2  0  0  0
 16 19  1  0  0  0
 19 20  1  0  0  0
 19 37  1  0  0  0
 20 25  2  0  0  0
 20 21  1  0  0  0
 21 22  2  0  0  0
 21 38  1  0  0  0
 22 23  1  0  0  0
 22 39  1  0  0  0
 23 24  2  0  0  0
 23 26  1  0  0  0
 24 25  1  0  0  0
 24 40  1  0  0  0
 25 41  1  0  0  0
M  END
> <i_i_glide_confnum>
84

> <i_i_glide_lignum>
4363

> <i_i_glide_posenum>
270

> <i_i_glide_rotatable_bonds>
6

> <i_m_Source_File_Index>
1923

> <b_m_subgroup_collapsed>
0

> <r_i_docking_score>
-1.40229

> <r_i_glide_ecoul>
-3.4991

> <r_i_glide_eff_state_penalty>
0

> <r_i_glide_einternal>
11.009

> <r_i_glide_emodel>
-30.0216

> <r_i_glide_energy>
-42.2861

> <r_i_glide_erotb>
0.523437

> <r_i_glide_esite>
-0.103957

> <r_i_glide_evdw>
-38.7871

> <r_i_glide_gscore>
-1.40229

> <r_i_glide_hbond>
-0.112714

> <r_i_glide_ligand_efficiency>
-0.0539342

> <r_i_glide_ligand_efficiency_ln>
-0.329323

> <r_i_glide_ligand_efficiency_sa>
-0.15978

> <r_i_glide_lipo>
-2.55132

> <r_i_glide_metal>
0

> <r_i_glide_rewards>
3.30648

> <s_i_glide_gridfile>
wee1_glide-grid

> <s_m_Source_File>
wee1_decoys_glide_SP.sdf

> <s_m_Source_Path>
/Users/zhangxujun/Desktop

> <s_m_entry_id>
2198

> <s_m_entry_name>
wee1_decoys_glide_SP.1923

> <s_m_subgroup_title>
wee1_decoys_glide_SP

> <s_m_subgroupid>
wee1_decoys_glide_SP


$$$$
