ZINC12913118_5331
                    3D
 Schrodinger Suite 2024-2.
 48 50  0  0  1  0            999 V2000
    6.8164   54.2756   23.5819 C   0  0  0  0  0  0
    5.5260   54.1360   24.3752 C   0  0  0  0  0  0
    5.6146   54.1260   25.7718 C   0  0  0  0  0  0
    4.4650   54.0937   26.5578 C   0  0  0  0  0  0
    3.2105   54.0703   25.9518 C   0  0  0  0  0  0
    3.1045   54.0802   24.5611 C   0  0  0  0  0  0
    4.2544   54.0973   23.7651 C   0  0  0  0  0  0
    4.0672   54.1834   22.3792 N   0  0  0  0  0  0
    4.5285   53.3323   21.4445 C   0  0  0  0  0  0
    5.1047   52.2704   21.6818 O   0  0  0  0  0  0
    4.3008   53.7986   20.0021 C   0  0  0  0  0  0
    2.5630   52.1606   19.0437 C   0  0  0  0  0  0
    2.1467   51.6294   20.4003 C   0  0  0  0  0  0
    1.2967   52.0836   21.3991 C   0  0  0  0  0  0
    1.3807   51.1703   22.4526 C   0  0  0  0  0  0
    2.2758   50.1936   22.0502 C   0  0  0  0  0  0
    2.7334   50.4700   20.8023 O   0  0  0  0  0  0
    4.5498   52.9272   17.6077 C   0  0  1  0  0  0
    4.2152   52.0821   17.0051 H   0  0  0  0  0  0
    3.9869   54.2524   17.0090 C   0  0  0  0  0  0
    5.0055   54.8185   16.0072 C   0  0  0  0  0  0
    6.6349   54.5471   16.8792 S   0  0  0  0  0  0
    7.7156   54.3679   15.9069 O   0  0  0  0  0  0
    6.7603   55.5123   17.9761 O   0  0  0  0  0  0
    6.0995   52.8968   17.5701 C   0  0  0  0  0  0
    4.6310   54.0985   28.6429 I   0  0  0  0  0  0
    6.6667   54.7659   22.6200 H   0  0  0  0  0  0
    7.5041   54.9159   24.1304 H   0  0  0  0  0  0
    7.2889   53.3052   23.4244 H   0  0  0  0  0  0
    6.5802   54.1542   26.2546 H   0  0  0  0  0  0
    2.3183   54.0500   26.5595 H   0  0  0  0  0  0
    2.1239   54.0733   24.1070 H   0  0  0  0  0  0
    3.4999   54.9531   22.0590 H   0  0  0  0  0  0
    3.5048   54.5309   19.8920 H   0  0  0  0  0  0
    5.2301   54.2638   19.6772 H   0  0  0  0  0  0
    1.9725   53.0118   18.7012 H   0  0  0  0  0  0
    2.5125   51.3741   18.2879 H   0  0  0  0  0  0
    0.7044   52.9857   21.3695 H   0  0  0  0  0  0
    0.8601   51.2170   23.3981 H   0  0  0  0  0  0
    2.6660   49.2997   22.5179 H   0  0  0  0  0  0
    3.0034   54.1082   16.5575 H   0  0  0  0  0  0
    3.8691   55.0239   17.7690 H   0  0  0  0  0  0
    5.0111   54.2067   15.1048 H   0  0  0  0  0  0
    4.9013   55.8654   15.7201 H   0  0  0  0  0  0
    6.6437   52.6630   18.4816 H   0  0  0  0  0  0
    6.3906   52.1307   16.8471 H   0  0  0  0  0  0
    4.0407   52.6459   19.0549 N   0  3  1  0  0  0
    4.5945   51.8334   19.3178 H   0  0  0  0  0  0
  1  2  1  0  0  0
  1 27  1  0  0  0
  1 28  1  0  0  0
  1 29  1  0  0  0
  2  7  2  0  0  0
  2  3  1  0  0  0
  3  4  2  0  0  0
  3 30  1  0  0  0
  4  5  1  0  0  0
  4 26  1  0  0  0
  5  6  2  0  0  0
  5 31  1  0  0  0
  6  7  1  0  0  0
  6 32  1  0  0  0
  7  8  1  0  0  0
  8  9  1  0  0  0
  8 33  1  0  0  0
  9 10  2  0  0  0
  9 11  1  0  0  0
 11 34  1  0  0  0
 11 35  1  0  0  0
 11 47  1  0  0  0
 12 13  1  0  0  0
 12 36  1  0  0  0
 12 37  1  0  0  0
 12 47  1  0  0  0
 13 17  1  0  0  0
 13 14  2  0  0  0
 14 15  1  0  0  0
 14 38  1  0  0  0
 15 16  2  0  0  0
 15 39  1  0  0  0
 16 17  1  0  0  0
 16 40  1  0  0  0
 18 19  1  0  0  0
 18 25  1  0  0  0
 18 20  1  0  0  0
 18 47  1  0  0  0
 20 21  1  0  0  0
 20 41  1  0  0  0
 20 42  1  0  0  0
 21 22  1  0  0  0
 21 43  1  0  0  0
 21 44  1  0  0  0
 22 23  2  0  0  0
 22 24  2  0  0  0
 22 25  1  0  0  0
 25 45  1  0  0  0
 25 46  1  0  0  0
 47 48  1  0  0  0
M  CHG  1  47   1
M  END
> <i_i_glide_confnum>
137

> <i_i_glide_lignum>
5332

> <i_i_glide_posenum>
300

> <i_i_glide_rotatable_bonds>
7

> <i_m_Source_File_Index>
2160

> <b_m_subgroup_collapsed>
0

> <r_i_docking_score>
-4.6821

> <r_i_glide_ecoul>
-4.92323

> <r_i_glide_eff_state_penalty>
0

> <r_i_glide_einternal>
5.26017

> <r_i_glide_emodel>
-51.2435

> <r_i_glide_energy>
-39.6465

> <r_i_glide_erotb>
0.594666

> <r_i_glide_esite>
-0.0732452

> <r_i_glide_evdw>
-34.7233

> <r_i_glide_gscore>
-4.6821

> <r_i_glide_hbond>
-0.118589

> <r_i_glide_ligand_efficiency>
-0.180081

> <r_i_glide_ligand_efficiency_ln>
-1.09958

> <r_i_glide_ligand_efficiency_sa>
-0.533489

> <r_i_glide_lipo>
-2.27528

> <r_i_glide_metal>
0

> <r_i_glide_rewards>
-0.335005

> <s_i_glide_gridfile>
wee1_glide-grid

> <s_m_Source_File>
wee1_decoys_glide_SP.sdf

> <s_m_Source_Path>
/Users/zhangxujun/Desktop

> <s_m_entry_id>
2435

> <s_m_entry_name>
wee1_decoys_glide_SP.2160

> <s_m_subgroup_title>
wee1_decoys_glide_SP

> <s_m_subgroupid>
wee1_decoys_glide_SP


$$$$
