ZINC63376175_656
                    3D
 Schrodinger Suite 2024-2.
 66 71  0  0  1  0            999 V2000
   -0.9290   50.2873   25.0027 C   0  0  0  0  0  0
    0.3054   49.9358   24.1471 C   0  0  1  0  0  0
    0.8772   49.1850   24.6952 H   0  0  0  0  0  0
   -0.0489   49.2926   22.7894 C   0  0  0  0  0  0
   -1.1604   48.7988   22.6077 O   0  0  0  0  0  0
    0.9297   49.2964   21.8671 N   0  0  0  0  0  0
    0.8208   48.7874   20.5003 C   0  0  0  0  0  0
    0.0258   49.7140   19.5500 C   0  0  0  0  0  0
   -0.0606   49.1556   18.1142 C   0  0  0  0  0  0
    1.3271   48.8063   17.5467 C   0  0  0  0  0  0
    2.1035   47.8588   18.4803 C   0  0  0  0  0  0
    2.1996   48.4225   19.9108 C   0  0  0  0  0  0
    1.1893   51.0973   23.9954 N   0  0  0  0  0  0
    0.9109   52.2446   23.3474 C   0  0  0  0  0  0
   -0.1971   52.4961   22.8731 O   0  0  0  0  0  0
    2.0705   53.2544   23.1603 C   0  0  2  0  0  0
    1.5541   54.1927   22.9460 H   0  0  0  0  0  0
    2.8922   52.8205   21.8972 C   0  0  0  0  0  0
    4.1715   53.6173   21.7424 C   0  0  0  0  0  0
    4.7268   54.2961   20.7289 C   0  0  0  0  0  0
    4.3064   54.4918   19.3339 C   0  0  0  0  0  0
    5.0534   55.2385   18.4972 C   0  0  0  0  0  0
    6.2815   55.8319   19.0117 C   0  0  0  0  0  0
    6.6814   55.6569   20.2999 C   0  0  0  0  0  0
    5.9051   54.8969   21.1829 C   0  0  0  0  0  0
    6.1030   54.6281   22.4543 N   0  3  0  0  0  0
    5.0264   53.7619   22.9745 C   0  0  1  0  0  0
    5.5056   52.8437   23.2756 H   0  0  0  0  0  0
    4.1648   54.3509   24.1038 C   0  0  1  0  0  0
    3.7900   55.2976   23.7641 H   0  0  0  0  0  0
    2.9530   53.5475   24.3413 N   0  0  0  0  0  0
    2.6112   53.5510   25.6603 C   0  0  0  0  0  0
    1.5396   53.2177   26.1636 O   0  0  0  0  0  0
    3.8372   54.0117   26.3825 C   0  0  0  0  0  0
    4.7803   54.4385   25.4675 C   0  0  0  0  0  0
    6.0332   54.8736   25.9071 C   0  0  0  0  0  0
    6.3071   54.8914   27.2769 C   0  0  0  0  0  0
    5.3370   54.4948   28.1977 C   0  0  0  0  0  0
    4.0868   54.0558   27.7539 C   0  0  0  0  0  0
   -1.5131   49.3964   25.2315 H   0  0  0  0  0  0
   -0.6332   50.7324   25.9526 H   0  0  0  0  0  0
   -1.5891   50.9900   24.4946 H   0  0  0  0  0  0
    1.8005   49.7431   22.1101 H   0  0  0  0  0  0
    0.2633   47.8498   20.5769 H   0  0  0  0  0  0
    0.4993   50.6969   19.5260 H   0  0  0  0  0  0
   -0.9805   49.8738   19.9394 H   0  0  0  0  0  0
   -0.5532   49.8801   17.4640 H   0  0  0  0  0  0
   -0.6897   48.2647   18.1057 H   0  0  0  0  0  0
    1.9017   49.7222   17.4040 H   0  0  0  0  0  0
    1.2310   48.3560   16.5586 H   0  0  0  0  0  0
    3.1057   47.6889   18.0825 H   0  0  0  0  0  0
    1.6183   46.8833   18.5013 H   0  0  0  0  0  0
    2.7020   47.6968   20.5524 H   0  0  0  0  0  0
    2.8367   49.3087   19.9003 H   0  0  0  0  0  0
    2.1068   50.9933   24.3996 H   0  0  0  0  0  0
    3.1589   51.7640   21.9652 H   0  0  0  0  0  0
    2.2723   52.9098   21.0011 H   0  0  0  0  0  0
    3.3937   54.0532   18.9513 H   0  0  0  0  0  0
    4.7541   55.3949   17.4700 H   0  0  0  0  0  0
    6.9004   56.4134   18.3430 H   0  0  0  0  0  0
    7.6133   56.0980   20.6224 H   0  0  0  0  0  0
    6.7850   55.2111   25.2115 H   0  0  0  0  0  0
    7.2667   55.2277   27.6390 H   0  0  0  0  0  0
    5.5574   54.5272   29.2551 H   0  0  0  0  0  0
    3.3444   53.7344   28.4679 H   0  0  0  0  0  0
    6.8996   54.9435   23.0059 H   0  0  0  0  0  0
  1  2  1  0  0  0
  1 40  1  0  0  0
  1 41  1  0  0  0
  1 42  1  0  0  0
  2  3  1  0  0  0
  2  4  1  0  0  0
  2 13  1  0  0  0
  4  5  2  0  0  0
  4  6  1  0  0  0
  6  7  1  0  0  0
  6 43  1  0  0  0
  7 12  1  0  0  0
  7  8  1  0  0  0
  7 44  1  0  0  0
  8  9  1  0  0  0
  8 45  1  0  0  0
  8 46  1  0  0  0
  9 10  1  0  0  0
  9 47  1  0  0  0
  9 48  1  0  0  0
 10 11  1  0  0  0
 10 49  1  0  0  0
 10 50  1  0  0  0
 11 12  1  0  0  0
 11 51  1  0  0  0
 11 52  1  0  0  0
 12 53  1  0  0  0
 12 54  1  0  0  0
 13 14  1  0  0  0
 13 55  1  0  0  0
 14 15  2  0  0  0
 14 16  1  0  0  0
 16 17  1  0  0  0
 16 31  1  0  0  0
 16 18  1  0  0  0
 18 19  1  0  0  0
 18 56  1  0  0  0
 18 57  1  0  0  0
 19 27  1  0  0  0
 19 20  2  0  0  0
 20 25  1  0  0  0
 20 21  1  0  0  0
 21 22  2  0  0  0
 21 58  1  0  0  0
 22 23  1  0  0  0
 22 59  1  0  0  0
 23 24  2  0  0  0
 23 60  1  0  0  0
 24 25  1  0  0  0
 24 61  1  0  0  0
 25 26  2  0  0  0
 26 27  1  0  0  0
 26 66  1  0  0  0
 27 28  1  0  0  0
 27 29  1  0  0  0
 29 30  1  0  0  0
 29 35  1  0  0  0
 29 31  1  0  0  0
 31 32  1  0  0  0
 32 33  2  0  0  0
 32 34  1  0  0  0
 34 39  2  0  0  0
 34 35  1  0  0  0
 35 36  2  0  0  0
 36 37  1  0  0  0
 36 62  1  0  0  0
 37 38  2  0  0  0
 37 63  1  0  0  0
 38 39  1  0  0  0
 38 64  1  0  0  0
 39 65  1  0  0  0
M  CHG  1  26   1
M  END
> <i_i_glide_confnum>
24

> <i_i_glide_lignum>
657

> <i_i_glide_posenum>
339

> <i_i_glide_rotatable_bonds>
6

> <i_m_Source_File_Index>
2003

> <b_m_subgroup_collapsed>
0

> <r_i_docking_score>
-6.26032

> <r_i_glide_ecoul>
-3.386

> <r_i_glide_eff_state_penalty>
0

> <r_i_glide_einternal>
3.50687

> <r_i_glide_emodel>
-61.6635

> <r_i_glide_energy>
-46.4947

> <r_i_glide_erotb>
0.363588

> <r_i_glide_esite>
0

> <r_i_glide_evdw>
-43.1087

> <r_i_glide_gscore>
-6.26032

> <r_i_glide_hbond>
0

> <r_i_glide_ligand_efficiency>
-0.178866

> <r_i_glide_ligand_efficiency_ln>
-1.37428

> <r_i_glide_ligand_efficiency_sa>
-0.585084

> <r_i_glide_lipo>
-2.97161

> <r_i_glide_metal>
0

> <r_i_glide_rewards>
-0.988969

> <s_i_glide_gridfile>
wee1_glide-grid

> <s_m_Source_File>
wee1_decoys_glide_SP.sdf

> <s_m_Source_Path>
/Users/zhangxujun/Desktop

> <s_m_entry_id>
2278

> <s_m_entry_name>
wee1_decoys_glide_SP.2003

> <s_m_subgroup_title>
wee1_decoys_glide_SP

> <s_m_subgroupid>
wee1_decoys_glide_SP


$$$$
