ZINC13019523_5931
                    3D
 Schrodinger Suite 2024-2.
 47 49  0  0  1  0            999 V2000
    5.2645   54.5327   19.7452 C   0  0  0  0  0  0
    4.3920   54.1072   20.9426 C   0  0  1  0  0  0
    3.5048   54.7386   20.9305 H   0  0  0  0  0  0
    3.9506   52.6383   20.8057 C   0  0  0  0  0  0
    4.7257   51.7227   21.0911 O   0  0  0  0  0  0
    2.6718   52.4506   20.4210 N   0  0  0  0  0  0
    1.9601   51.2443   20.4934 C   0  0  0  0  0  0
    2.0352   50.4625   21.6564 C   0  0  0  0  0  0
    1.2835   49.3010   21.7753 C   0  0  0  0  0  0
    0.4547   48.9019   20.7305 C   0  0  0  0  0  0
    0.3695   49.6726   19.5718 C   0  0  0  0  0  0
    1.1049   50.8604   19.4404 C   0  0  0  0  0  0
    0.9660   51.7070   18.1672 C   0  0  0  0  0  0
    0.4560   52.8975   18.4817 F   0  0  0  0  0  0
    2.1557   51.8906   17.5957 F   0  0  0  0  0  0
    0.1591   51.1466   17.2632 F   0  0  0  0  0  0
    5.1787   54.4701   22.5584 S   0  0  0  0  0  0
    3.9069   54.0991   23.7615 C   0  0  0  0  0  0
    2.7681   53.5227   23.4691 N   0  0  0  0  0  0
    2.0781   53.2975   24.6442 N   0  0  0  0  0  0
    2.7876   53.7953   25.6281 C   0  0  0  0  0  0
    3.9633   54.3599   25.1288 N   0  0  0  0  0  0
    4.9884   55.1263   25.8618 C   0  0  0  0  0  0
    6.3793   54.5003   25.9459 C   0  0  0  0  0  0
    6.7473   53.6967   25.0719 O   0  0  0  0  0  0
    2.3035   53.6928   27.0553 C   0  0  0  0  0  0
    2.3850   54.7380   27.9849 C   0  0  0  0  0  0
    1.8958   54.5831   29.2801 C   0  0  0  0  0  0
    1.3080   53.3778   29.6552 C   0  0  0  0  0  0
    1.1893   52.3370   28.7399 C   0  0  0  0  0  0
    1.6751   52.5018   27.4462 C   0  0  0  0  0  0
    0.7043   53.1749   31.2571 Cl  0  0  0  0  0  0
    4.7383   54.3933   18.7995 H   0  0  0  0  0  0
    5.5303   55.5877   19.8112 H   0  0  0  0  0  0
    6.1917   53.9618   19.6837 H   0  0  0  0  0  0
    2.1528   53.2530   20.0895 H   0  0  0  0  0  0
    2.6637   50.7633   22.4823 H   0  0  0  0  0  0
    1.3476   48.7180   22.6827 H   0  0  0  0  0  0
   -0.1264   47.9965   20.8195 H   0  0  0  0  0  0
   -0.2849   49.3404   18.7793 H   0  0  0  0  0  0
    5.0997   56.0962   25.3793 H   0  0  0  0  0  0
    4.6623   55.2951   26.8802 H   0  0  0  0  0  0
    2.7828   55.6959   27.7021 H   0  0  0  0  0  0
    1.9588   55.4016   29.9822 H   0  0  0  0  0  0
    0.7115   51.4100   29.0246 H   0  0  0  0  0  0
    1.5487   51.6950   26.7399 H   0  0  0  0  0  0
    7.1041   54.8976   26.8802 O   0  5  0  0  0  0
  1  2  1  0  0  0
  1 33  1  0  0  0
  1 34  1  0  0  0
  1 35  1  0  0  0
  2  3  1  0  0  0
  2  4  1  0  0  0
  2 17  1  0  0  0
  4  5  2  0  0  0
  4  6  1  0  0  0
  6  7  1  0  0  0
  6 36  1  0  0  0
  7 12  2  0  0  0
  7  8  1  0  0  0
  8  9  2  0  0  0
  8 37  1  0  0  0
  9 10  1  0  0  0
  9 38  1  0  0  0
 10 11  2  0  0  0
 10 39  1  0  0  0
 11 12  1  0  0  0
 11 40  1  0  0  0
 12 13  1  0  0  0
 13 14  1  0  0  0
 13 15  1  0  0  0
 13 16  1  0  0  0
 17 18  1  0  0  0
 18 22  1  0  0  0
 18 19  2  0  0  0
 19 20  1  0  0  0
 20 21  2  0  0  0
 21 22  1  0  0  0
 21 26  1  0  0  0
 22 23  1  0  0  0
 23 24  1  0  0  0
 23 41  1  0  0  0
 23 42  1  0  0  0
 24 25  2  0  0  0
 24 47  1  0  0  0
 26 31  2  0  0  0
 26 27  1  0  0  0
 27 28  2  0  0  0
 27 43  1  0  0  0
 28 29  1  0  0  0
 28 44  1  0  0  0
 29 30  2  0  0  0
 29 32  1  0  0  0
 30 31  1  0  0  0
 30 45  1  0  0  0
 31 46  1  0  0  0
M  CHG  1  47  -1
M  END
> <i_i_glide_confnum>
56

> <i_i_glide_lignum>
5932

> <i_i_glide_posenum>
82

> <i_i_glide_rotatable_bonds>
9

> <i_m_Source_File_Index>
3414

> <b_m_subgroup_collapsed>
0

> <r_i_docking_score>
-6.07905

> <r_i_glide_ecoul>
-4.77074

> <r_i_glide_eff_state_penalty>
0

> <r_i_glide_einternal>
9.84055

> <r_i_glide_emodel>
-63.6667

> <r_i_glide_energy>
-47.2913

> <r_i_glide_erotb>
0.607038

> <r_i_glide_esite>
-0.107088

> <r_i_glide_evdw>
-42.5206

> <r_i_glide_gscore>
-6.07905

> <r_i_glide_hbond>
-0.382961

> <r_i_glide_ligand_efficiency>
-0.18997

> <r_i_glide_ligand_efficiency_ln>
-1.36127

> <r_i_glide_ligand_efficiency_sa>
-0.603118

> <r_i_glide_lipo>
-1.84297

> <r_i_glide_metal>
0

> <r_i_glide_rewards>
-1.51144

> <s_i_glide_gridfile>
wee1_glide-grid

> <s_m_Source_File>
wee1_decoys_glide_SP.sdf

> <s_m_Source_Path>
/Users/zhangxujun/Desktop

> <s_m_entry_id>
3689

> <s_m_entry_name>
wee1_decoys_glide_SP.3414

> <s_m_subgroup_title>
wee1_decoys_glide_SP

> <s_m_subgroupid>
wee1_decoys_glide_SP


$$$$
