ZINC22828457_4004
                    3D
 Schrodinger Suite 2024-2.
 73 78  0  0  1  0            999 V2000
   -5.0700   50.1108   22.9713 C   0  0  0  0  0  0
   -3.8486   49.6274   23.7701 C   0  0  0  0  0  0
   -2.6618   50.3349   23.4241 O   0  0  0  0  0  0
   -1.9675   50.0652   22.2825 C   0  0  0  0  0  0
   -2.3478   49.2213   21.4673 O   0  0  0  0  0  0
   -0.7419   50.9004   22.0505 C   0  0  0  0  0  0
   -0.1619   51.5891   23.0764 C   0  0  0  0  0  0
    0.9456   52.3505   22.9558 O   0  0  0  0  0  0
    1.5824   52.4901   21.7740 C   0  0  0  0  0  0
    1.1439   51.9401   20.6139 C   0  0  0  0  0  0
   -0.1133   51.0033   20.6151 C   0  0  1  0  0  0
    0.2902   49.6708   20.0555 C   0  0  0  0  0  0
    1.2505   48.7567   20.4732 C   0  0  0  0  0  0
    1.5043   47.6396   19.6816 C   0  0  0  0  0  0
    0.7857   47.4200   18.5011 C   0  0  0  0  0  0
   -0.1904   48.3344   18.0755 C   0  0  0  0  0  0
   -0.3987   49.4572   18.8825 C   0  0  0  0  0  0
   -1.3048   50.4924   18.6289 N   0  0  0  0  0  0
   -1.2063   51.4565   19.5912 C   0  0  0  0  0  0
   -1.8594   52.4963   19.6818 O   0  0  0  0  0  0
   -2.1154   50.5331   17.3678 C   0  0  0  0  0  0
   -3.5053   51.2350   17.5252 C   0  0  0  0  0  0
   -4.3172   51.2808   16.2095 C   0  0  0  0  0  0
   -3.5143   51.9630   15.0788 C   0  0  0  0  0  0
   -2.0781   51.4126   14.9334 C   0  0  0  0  0  0
   -1.3482   51.3641   16.2950 C   0  0  0  0  0  0
   -2.3206   49.0278   16.9451 C   0  0  0  0  0  0
   -1.0141   48.2051   16.7957 C   0  0  2  0  0  0
   -0.4161   48.6497   15.9995 H   0  0  0  0  0  0
   -1.2971   46.7464   16.3842 C   0  0  0  0  0  0
    1.9235   52.1775   19.3598 C   0  0  0  0  0  0
    1.4684   51.9406   18.2429 O   0  0  0  0  0  0
    3.2650   52.9290   19.4760 C   0  0  0  0  0  0
    3.9221   52.8901   20.8827 C   0  0  0  0  0  0
    2.8686   53.2972   21.9509 C   0  0  0  0  0  0
    5.0602   53.9318   20.8997 C   0  0  0  0  0  0
    4.4348   51.4607   21.1582 C   0  0  0  0  0  0
   -0.4954   51.6435   24.4055 N   0  0  0  0  0  0
   -5.9743   49.6050   23.3075 H   0  0  0  0  0  0
   -4.9558   49.9125   21.9043 H   0  0  0  0  0  0
   -5.2224   51.1838   23.0985 H   0  0  0  0  0  0
   -4.0307   49.7888   24.8346 H   0  0  0  0  0  0
   -3.7042   48.5522   23.6423 H   0  0  0  0  0  0
    1.8262   48.9215   21.3726 H   0  0  0  0  0  0
    2.2788   46.9624   19.9916 H   0  0  0  0  0  0
    1.0149   46.5478   17.9093 H   0  0  0  0  0  0
   -4.0903   50.7296   18.2945 H   0  0  0  0  0  0
   -3.3947   52.2648   17.8607 H   0  0  0  0  0  0
   -4.6208   50.2801   15.9082 H   0  0  0  0  0  0
   -5.2461   51.8274   16.3726 H   0  0  0  0  0  0
   -4.0483   51.8657   14.1333 H   0  0  0  0  0  0
   -3.4599   53.0335   15.2831 H   0  0  0  0  0  0
   -2.1028   50.4211   14.4797 H   0  0  0  0  0  0
   -1.5159   52.0372   14.2380 H   0  0  0  0  0  0
   -1.1797   52.3784   16.6577 H   0  0  0  0  0  0
   -0.3493   50.9528   16.1419 H   0  0  0  0  0  0
   -2.8729   48.9541   16.0110 H   0  0  0  0  0  0
   -2.9550   48.5417   17.6883 H   0  0  0  0  0  0
   -0.3799   46.2081   16.1469 H   0  0  0  0  0  0
   -1.8124   46.2046   17.1769 H   0  0  0  0  0  0
   -1.9266   46.7081   15.4951 H   0  0  0  0  0  0
    3.0391   53.9662   19.2349 H   0  0  0  0  0  0
    3.9358   52.5650   18.6955 H   0  0  0  0  0  0
    2.6008   54.3520   21.8838 H   0  0  0  0  0  0
    3.2955   53.1274   22.9406 H   0  0  0  0  0  0
    5.8215   53.6976   20.1546 H   0  0  0  0  0  0
    4.6964   54.9360   20.6836 H   0  0  0  0  0  0
    5.5551   53.9654   21.8699 H   0  0  0  0  0  0
    5.1047   51.1327   20.3666 H   0  0  0  0  0  0
    5.0096   51.4179   22.0816 H   0  0  0  0  0  0
    3.6362   50.7215   21.2317 H   0  0  0  0  0  0
   -1.2912   51.1272   24.7558 H   0  0  0  0  0  0
    0.0608   52.1702   25.0620 H   0  0  0  0  0  0
  1  2  1  0  0  0
  1 39  1  0  0  0
  1 40  1  0  0  0
  1 41  1  0  0  0
  2  3  1  0  0  0
  2 42  1  0  0  0
  2 43  1  0  0  0
  3  4  1  0  0  0
  4  5  2  0  0  0
  4  6  1  0  0  0
  6 11  1  0  0  0
  6  7  2  0  0  0
  7  8  1  0  0  0
  7 38  1  0  0  0
  8  9  1  0  0  0
  9 35  1  0  0  0
  9 10  2  0  0  0
 10 11  1  0  0  0
 10 31  1  0  0  0
 11 19  1  0  0  0
 11 12  1  0  0  0
 12 17  2  0  0  0
 12 13  1  0  0  0
 13 14  2  0  0  0
 13 44  1  0  0  0
 14 15  1  0  0  0
 14 45  1  0  0  0
 15 16  2  0  0  0
 15 46  1  0  0  0
 16 28  1  0  0  0
 16 17  1  0  0  0
 17 18  1  0  0  0
 18 19  1  0  0  0
 18 21  1  0  0  0
 19 20  2  0  0  0
 21 26  1  0  0  0
 21 22  1  0  0  0
 21 27  1  0  0  0
 22 23  1  0  0  0
 22 47  1  0  0  0
 22 48  1  0  0  0
 23 24  1  0  0  0
 23 49  1  0  0  0
 23 50  1  0  0  0
 24 25  1  0  0  0
 24 51  1  0  0  0
 24 52  1  0  0  0
 25 26  1  0  0  0
 25 53  1  0  0  0
 25 54  1  0  0  0
 26 55  1  0  0  0
 26 56  1  0  0  0
 27 28  1  0  0  0
 27 57  1  0  0  0
 27 58  1  0  0  0
 28 29  1  0  0  0
 28 30  1  0  0  0
 30 59  1  0  0  0
 30 60  1  0  0  0
 30 61  1  0  0  0
 31 32  2  0  0  0
 31 33  1  0  0  0
 33 34  1  0  0  0
 33 62  1  0  0  0
 33 63  1  0  0  0
 34 35  1  0  0  0
 34 36  1  0  0  0
 34 37  1  0  0  0
 35 64  1  0  0  0
 35 65  1  0  0  0
 36 66  1  0  0  0
 36 67  1  0  0  0
 36 68  1  0  0  0
 37 69  1  0  0  0
 37 70  1  0  0  0
 37 71  1  0  0  0
 38 72  1  0  0  0
 38 73  1  0  0  0
M  END
> <i_i_glide_confnum>
28

> <i_i_glide_lignum>
4005

> <i_i_glide_posenum>
292

> <i_i_glide_rotatable_bonds>
3

> <i_m_Source_File_Index>
1138

> <b_m_subgroup_collapsed>
0

> <r_i_docking_score>
-2.30985

> <r_i_glide_ecoul>
-4.86737

> <r_i_glide_eff_state_penalty>
0

> <r_i_glide_einternal>
2.82247

> <r_i_glide_emodel>
-30.4069

> <r_i_glide_energy>
-27.8724

> <r_i_glide_erotb>
0.160603

> <r_i_glide_esite>
-0.0400788

> <r_i_glide_evdw>
-23.0051

> <r_i_glide_gscore>
-2.30985

> <r_i_glide_hbond>
-0.32

> <r_i_glide_ligand_efficiency>
-0.0624284

> <r_i_glide_ligand_efficiency_ln>
-0.500952

> <r_i_glide_ligand_efficiency_sa>
-0.208025

> <r_i_glide_lipo>
-0.230024

> <r_i_glide_metal>
0

> <r_i_glide_rewards>
8.03057e-06

> <s_i_glide_gridfile>
wee1_glide-grid

> <s_m_Source_File>
wee1_decoys_glide_SP.sdf

> <s_m_Source_Path>
/Users/zhangxujun/Desktop

> <s_m_entry_id>
1413

> <s_m_entry_name>
wee1_decoys_glide_SP.1138

> <s_m_subgroup_title>
wee1_decoys_glide_SP

> <s_m_subgroupid>
wee1_decoys_glide_SP


$$$$
