ZINC08416964_4260
                    3D
 Schrodinger Suite 2024-2.
 45 48  0  0  1  0            999 V2000
    0.6634   54.0800   30.8629 C   0  0  0  0  0  0
    1.1044   55.1631   30.1065 C   0  0  0  0  0  0
    1.8163   54.9421   28.9323 C   0  0  0  0  0  0
    2.1052   53.6340   28.5140 C   0  0  0  0  0  0
    1.6639   52.5540   29.2890 C   0  0  0  0  0  0
    0.9372   52.7769   30.4578 C   0  0  0  0  0  0
    2.8927   53.3660   27.2191 C   0  0  1  0  0  0
    3.2358   52.3340   27.2798 H   0  0  0  0  0  0
    1.9525   53.4920   25.9957 C   0  0  0  0  0  0
    2.6169   53.1790   24.6348 C   0  0  0  0  0  0
    4.0247   53.7716   24.5386 C   0  0  0  0  0  0
    4.7073   54.2457   25.6639 C   0  0  0  0  0  0
    6.2759   54.8715   25.2617 S   0  0  0  0  0  0
    6.0412   54.4955   23.5873 C   0  0  0  0  0  0
    4.7955   53.8746   23.3572 C   0  0  0  0  0  0
    4.3461   53.3198   22.0819 C   0  0  0  0  0  0
    3.9932   52.8704   21.0775 N   0  0  0  0  0  0
    7.1044   54.7884   22.7345 N   0  0  0  0  0  0
    6.9726   55.2975   21.4906 C   0  0  0  0  0  0
    5.9054   55.6858   21.0228 O   0  0  0  0  0  0
    8.2516   55.4754   20.6541 C   0  0  0  0  0  0
    8.0712   55.0045   18.8864 S   0  0  0  0  0  0
    7.2851   56.4427   18.2299 C   0  0  0  0  0  0
    7.0440   57.5435   18.8968 N   0  0  0  0  0  0
    6.3779   58.5033   18.1588 N   0  0  0  0  0  0
    6.1437   58.1214   16.9356 C   0  0  0  0  0  0
    6.7077   56.5149   16.5858 S   0  0  0  0  0  0
    5.5237   58.8966   16.0002 N   0  0  0  0  0  0
    4.1525   54.2724   27.0794 C   0  0  0  0  0  0
    0.0985   54.2477   31.7688 H   0  0  0  0  0  0
    0.8833   56.1712   30.4267 H   0  0  0  0  0  0
    2.1194   55.8001   28.3517 H   0  0  0  0  0  0
    1.8654   51.5386   28.9803 H   0  0  0  0  0  0
    0.5746   51.9481   31.0494 H   0  0  0  0  0  0
    1.1202   52.7942   26.1093 H   0  0  0  0  0  0
    1.5095   54.4831   25.9513 H   0  0  0  0  0  0
    1.9820   53.5599   23.8340 H   0  0  0  0  0  0
    2.6622   52.0998   24.4886 H   0  0  0  0  0  0
    8.0315   54.8345   23.1492 H   0  0  0  0  0  0
    9.0629   54.8967   21.0814 H   0  0  0  0  0  0
    8.6004   56.4966   20.7253 H   0  0  0  0  0  0
    5.2237   59.8434   16.2360 H   0  0  0  0  0  0
    5.3127   58.5716   15.0710 H   0  0  0  0  0  0
    4.9102   53.9704   27.8050 H   0  0  0  0  0  0
    3.9057   55.2967   27.3109 H   0  0  0  0  0  0
  1  6  2  0  0  0
  1  2  1  0  0  0
  1 30  1  0  0  0
  2  3  2  0  0  0
  2 31  1  0  0  0
  3  4  1  0  0  0
  3 32  1  0  0  0
  4  5  2  0  0  0
  4  7  1  0  0  0
  5  6  1  0  0  0
  5 33  1  0  0  0
  6 34  1  0  0  0
  7  8  1  0  0  0
  7 29  1  0  0  0
  7  9  1  0  0  0
  9 10  1  0  0  0
  9 35  1  0  0  0
  9 36  1  0  0  0
 10 11  1  0  0  0
 10 37  1  0  0  0
 10 38  1  0  0  0
 11 15  1  0  0  0
 11 12  2  0  0  0
 12 13  1  0  0  0
 12 29  1  0  0  0
 13 14  1  0  0  0
 14 15  2  0  0  0
 14 18  1  0  0  0
 15 16  1  0  0  0
 16 17  3  0  0  0
 18 19  1  0  0  0
 18 39  1  0  0  0
 19 20  2  0  0  0
 19 21  1  0  0  0
 21 22  1  0  0  0
 21 40  1  0  0  0
 21 41  1  0  0  0
 22 23  1  0  0  0
 23 27  1  0  0  0
 23 24  2  0  0  0
 24 25  1  0  0  0
 25 26  2  0  0  0
 26 27  1  0  0  0
 26 28  1  0  0  0
 28 42  1  0  0  0
 28 43  1  0  0  0
 29 44  1  0  0  0
 29 45  1  0  0  0
M  END
> <i_i_glide_confnum>
108

> <i_i_glide_lignum>
4261

> <i_i_glide_posenum>
308

> <i_i_glide_rotatable_bonds>
7

> <i_m_Source_File_Index>
3474

> <b_m_subgroup_collapsed>
0

> <r_i_docking_score>
-7.3168

> <r_i_glide_ecoul>
-3.77891

> <r_i_glide_eff_state_penalty>
0

> <r_i_glide_einternal>
9.63825

> <r_i_glide_emodel>
-65.6728

> <r_i_glide_energy>
-47.1897

> <r_i_glide_erotb>
0.651676

> <r_i_glide_esite>
-0.200179

> <r_i_glide_evdw>
-43.4108

> <r_i_glide_gscore>
-7.3168

> <r_i_glide_hbond>
-0.459551

> <r_i_glide_ligand_efficiency>
-0.261314

> <r_i_glide_ligand_efficiency_ln>
-1.68893

> <r_i_glide_ligand_efficiency_sa>
-0.793504

> <r_i_glide_lipo>
-3.56591

> <r_i_glide_metal>
0

> <r_i_glide_rewards>
-1.00546

> <s_i_glide_gridfile>
wee1_glide-grid

> <s_m_Source_File>
wee1_decoys_glide_SP.sdf

> <s_m_Source_Path>
/Users/zhangxujun/Desktop

> <s_m_entry_id>
3749

> <s_m_entry_name>
wee1_decoys_glide_SP.3474

> <s_m_subgroup_title>
wee1_decoys_glide_SP

> <s_m_subgroupid>
wee1_decoys_glide_SP


$$$$
