ZINC43736727_4650
                    3D
 Schrodinger Suite 2024-2.
 75 79  0  0  1  0            999 V2000
    4.0424   54.2847   20.6164 C   0  0  0  0  0  0
    3.8425   53.2724   21.7711 C   0  0  1  0  0  0
    5.2842   52.6974   21.9657 C   0  0  0  0  0  0
    6.2992   53.6512   22.6627 C   0  0  0  0  0  0
    5.7594   54.2712   23.9506 C   0  0  0  0  0  0
    6.6008   54.5599   24.8682 N   0  0  0  0  0  0
    5.9902   55.1221   26.0128 O   0  0  0  0  0  0
    6.0000   54.1657   27.0730 C   0  0  0  0  0  0
    5.0508   54.6757   28.1618 C   0  0  0  0  0  0
    5.5027   55.2963   29.1146 O   0  0  0  0  0  0
    3.7412   54.3504   28.1560 N   0  0  0  0  0  0
    3.2474   52.9723   27.9988 C   0  0  2  0  0  0
    3.6619   52.5122   27.1029 H   0  0  0  0  0  0
    1.7347   52.8995   27.9395 C   0  0  0  0  0  0
    0.9614   53.2640   29.0481 C   0  0  0  0  0  0
   -0.3479   52.8165   29.1522 C   0  0  0  0  0  0
   -0.9094   52.0609   28.1232 C   0  0  0  0  0  0
   -0.1910   51.8057   26.9583 C   0  0  0  0  0  0
    1.1306   52.2301   26.8690 C   0  0  0  0  0  0
    3.8280   52.0965   29.1748 C   0  0  0  0  0  0
    5.0673   52.0985   29.2827 O   0  0  0  0  0  0
    3.0286   51.2971   29.6863 O   0  5  0  0  0  0
    4.3279   54.4732   23.9867 C   0  0  0  0  0  0
    3.4358   54.0602   23.0537 C   0  0  0  0  0  0
    1.9510   54.3836   23.2170 C   0  0  0  0  0  0
    1.1371   53.1142   23.0813 C   0  0  0  0  0  0
    1.2372   52.5536   21.6508 C   0  0  1  0  0  0
    0.9258   53.2974   20.9265 H   0  0  0  0  0  0
    2.7375   52.1843   21.3390 C   0  0  2  0  0  0
    2.8599   52.1488   20.2595 H   0  0  0  0  0  0
    2.9200   50.7130   21.7602 C   0  0  0  0  0  0
    2.0927   49.7217   20.8834 C   0  0  0  0  0  0
    0.6734   50.2538   20.4807 C   0  0  2  0  0  0
    0.2532   51.3553   21.4901 C   0  0  2  0  0  0
    0.2343   50.8617   22.4644 H   0  0  0  0  0  0
   -1.2264   51.6193   21.1740 C   0  0  0  0  0  0
   -1.7662   50.2499   20.6910 C   0  0  0  0  0  0
   -0.5522   49.2711   20.6274 C   0  0  1  0  0  0
   -0.6871   48.2529   19.5576 C   0  0  0  0  0  0
   -0.7892   47.4135   18.6745 C   0  0  0  0  0  0
   -0.5204   48.5333   21.8379 O   0  0  0  0  0  0
    0.7578   50.8175   19.0125 C   0  0  0  0  0  0
    4.6450   53.8890   19.7977 H   0  0  0  0  0  0
    3.1094   54.4973   20.1411 H   0  0  0  0  0  0
    4.5136   55.2113   20.9450 H   0  0  0  0  0  0
    5.2846   51.7564   22.4815 H   0  0  0  0  0  0
    5.6819   52.3871   21.0012 H   0  0  0  0  0  0
    6.5999   54.4590   21.9938 H   0  0  0  0  0  0
    7.2079   53.0873   22.8822 H   0  0  0  0  0  0
    5.7027   53.1658   26.7438 H   0  0  0  0  0  0
    7.0031   54.0780   27.4978 H   0  0  0  0  0  0
    3.1892   54.8742   28.8163 H   0  0  0  0  0  0
    1.4142   53.7766   29.8863 H   0  0  0  0  0  0
   -0.9002   53.0129   30.0597 H   0  0  0  0  0  0
   -1.9217   51.6868   28.2191 H   0  0  0  0  0  0
   -0.6406   51.2390   26.1574 H   0  0  0  0  0  0
    1.7209   51.9585   26.0072 H   0  0  0  0  0  0
    3.9154   55.0230   24.8192 H   0  0  0  0  0  0
    1.7491   54.8338   24.1879 H   0  0  0  0  0  0
    1.6066   55.0965   22.4809 H   0  0  0  0  0  0
    0.0972   53.3257   23.3324 H   0  0  0  0  0  0
    1.4412   52.3680   23.8118 H   0  0  0  0  0  0
    3.9568   50.4895   21.5593 H   0  0  0  0  0  0
    2.7361   50.5844   22.8294 H   0  0  0  0  0  0
    1.9803   48.8694   21.5513 H   0  0  0  0  0  0
    2.6408   49.3283   20.0248 H   0  0  0  0  0  0
   -1.3056   52.3374   20.3604 H   0  0  0  0  0  0
   -1.7620   52.0408   22.0252 H   0  0  0  0  0  0
   -2.2238   50.3807   19.7101 H   0  0  0  0  0  0
   -2.5588   49.8826   21.3428 H   0  0  0  0  0  0
   -0.8673   46.6910   17.8933 H   0  0  0  0  0  0
    0.3338   48.1044   21.8946 H   0  0  0  0  0  0
    1.3257   51.7381   18.9196 H   0  0  0  0  0  0
    1.2109   50.1014   18.3301 H   0  0  0  0  0  0
   -0.2204   51.0515   18.6014 H   0  0  0  0  0  0
  1  2  1  0  0  0
  1 43  1  0  0  0
  1 44  1  0  0  0
  1 45  1  0  0  0
  2 24  1  0  0  0
  2 29  1  0  0  0
  2  3  1  0  0  0
  3  4  1  0  0  0
  3 46  1  0  0  0
  3 47  1  0  0  0
  4  5  1  0  0  0
  4 48  1  0  0  0
  4 49  1  0  0  0
  5  6  2  0  0  0
  5 23  1  0  0  0
  6  7  1  0  0  0
  7  8  1  0  0  0
  8  9  1  0  0  0
  8 50  1  0  0  0
  8 51  1  0  0  0
  9 10  2  0  0  0
  9 11  1  0  0  0
 11 12  1  0  0  0
 11 52  1  0  0  0
 12 13  1  0  0  0
 12 14  1  0  0  0
 12 20  1  0  0  0
 14 19  2  0  0  0
 14 15  1  0  0  0
 15 16  2  0  0  0
 15 53  1  0  0  0
 16 17  1  0  0  0
 16 54  1  0  0  0
 17 18  2  0  0  0
 17 55  1  0  0  0
 18 19  1  0  0  0
 18 56  1  0  0  0
 19 57  1  0  0  0
 20 21  2  0  0  0
 20 22  1  0  0  0
 23 24  2  0  0  0
 23 58  1  0  0  0
 24 25  1  0  0  0
 25 26  1  0  0  0
 25 59  1  0  0  0
 25 60  1  0  0  0
 26 27  1  0  0  0
 26 61  1  0  0  0
 26 62  1  0  0  0
 27 28  1  0  0  0
 27 34  1  0  0  0
 27 29  1  0  0  0
 29 30  1  0  0  0
 29 31  1  0  0  0
 31 32  1  0  0  0
 31 63  1  0  0  0
 31 64  1  0  0  0
 32 33  1  0  0  0
 32 65  1  0  0  0
 32 66  1  0  0  0
 33 38  1  0  0  0
 33 34  1  0  0  0
 33 42  1  0  0  0
 34 35  1  0  0  0
 34 36  1  0  0  0
 36 37  1  0  0  0
 36 67  1  0  0  0
 36 68  1  0  0  0
 37 38  1  0  0  0
 37 69  1  0  0  0
 37 70  1  0  0  0
 38 39  1  0  0  0
 38 41  1  0  0  0
 39 40  3  0  0  0
 40 71  1  0  0  0
 41 72  1  0  0  0
 42 73  1  0  0  0
 42 74  1  0  0  0
 42 75  1  0  0  0
M  CHG  1  22  -1
M  END
> <i_i_glide_confnum>
290

> <i_i_glide_lignum>
4651

> <i_i_glide_posenum>
296

> <i_i_glide_rotatable_bonds>
9

> <i_m_Source_File_Index>
3396

> <b_m_subgroup_collapsed>
0

> <r_i_docking_score>
3.3623

> <r_i_glide_ecoul>
-2.63959

> <r_i_glide_eff_state_penalty>
0

> <r_i_glide_einternal>
21.8607

> <r_i_glide_emodel>
16.506

> <r_i_glide_energy>
-28.083

> <r_i_glide_erotb>
0.459791

> <r_i_glide_esite>
0

> <r_i_glide_evdw>
-25.4434

> <r_i_glide_gscore>
3.3623

> <r_i_glide_hbond>
-0.130852

> <r_i_glide_ligand_efficiency>
0.0884815

> <r_i_glide_ligand_efficiency_ln>
0.72501

> <r_i_glide_ligand_efficiency_sa>
0.297473

> <r_i_glide_lipo>
-2.21546

> <r_i_glide_metal>
0

> <r_i_glide_rewards>
6.91693

> <s_i_glide_gridfile>
wee1_glide-grid

> <s_m_Source_File>
wee1_decoys_glide_SP.sdf

> <s_m_Source_Path>
/Users/zhangxujun/Desktop

> <s_m_entry_id>
3671

> <s_m_entry_name>
wee1_decoys_glide_SP.3396

> <s_m_subgroup_title>
wee1_decoys_glide_SP

> <s_m_subgroupid>
wee1_decoys_glide_SP


$$$$
