ZINC13652082_3867
                    3D
 Schrodinger Suite 2024-2.
 44 46  0  0  1  0            999 V2000
   -4.3764   51.3360   25.4058 C   0  0  0  0  0  0
   -2.9011   51.1586   25.0145 C   0  0  0  0  0  0
   -2.2253   52.1832   24.3233 C   0  0  0  0  0  0
   -0.9015   51.9629   23.9393 C   0  0  0  0  0  0
   -0.2332   50.7903   24.2236 C   0  0  0  0  0  0
   -0.8635   49.7912   24.9699 C   0  0  0  0  0  0
   -2.2131   49.9698   25.3459 C   0  0  0  0  0  0
   -2.8650   48.9721   26.0801 N   0  0  0  0  0  0
   -0.0981   48.5366   25.3800 C   0  0  0  0  0  0
    1.1598   50.9110   23.6772 C   0  0  0  0  0  0
    1.1125   52.2557   22.9142 C   0  0  2  0  0  0
   -0.1283   52.8768   23.2684 O   0  0  0  0  0  0
    1.0096   52.0173   21.3929 C   0  0  0  0  0  0
    2.2592   53.2336   23.2723 C   0  0  0  0  0  0
    2.4118   53.6742   25.0358 S   0  0  0  0  0  0
    4.0843   54.1227   25.4052 C   0  0  0  0  0  0
    4.5019   54.1294   26.7404 C   0  0  0  0  0  0
    5.8174   54.5005   27.0305 C   0  0  0  0  0  0
    6.7042   54.8750   26.0736 N   0  0  0  0  0  0
    6.2871   54.8556   24.7813 C   0  0  0  0  0  0
    4.9932   54.4877   24.4040 C   0  0  0  0  0  0
   -2.9133   53.5062   24.0260 C   0  0  0  0  0  0
   -4.4579   51.7639   26.4057 H   0  0  0  0  0  0
   -4.9151   51.9705   24.7050 H   0  0  0  0  0  0
   -4.9153   50.3901   25.3852 H   0  0  0  0  0  0
   -2.2595   48.4960   26.7532 H   0  0  0  0  0  0
   -3.7830   49.2104   26.4188 H   0  0  0  0  0  0
   -0.0170   48.4970   26.4668 H   0  0  0  0  0  0
   -0.6279   47.6404   25.0575 H   0  0  0  0  0  0
    0.9089   48.4984   24.9681 H   0  0  0  0  0  0
    1.4400   50.0802   23.0260 H   0  0  0  0  0  0
    1.8884   50.9618   24.4815 H   0  0  0  0  0  0
    1.9219   51.5710   20.9954 H   0  0  0  0  0  0
    0.1819   51.3487   21.1506 H   0  0  0  0  0  0
    0.8342   52.9442   20.8495 H   0  0  0  0  0  0
    2.1538   54.1635   22.7070 H   0  0  0  0  0  0
    3.2012   52.7881   22.9517 H   0  0  0  0  0  0
    3.8228   53.8524   27.5320 H   0  0  0  0  0  0
    6.1761   54.5225   28.0496 H   0  0  0  0  0  0
    7.0203   55.1436   24.0373 H   0  0  0  0  0  0
    4.7090   54.4988   23.3628 H   0  0  0  0  0  0
   -3.6953   53.3781   23.2806 H   0  0  0  0  0  0
   -3.3787   53.8921   24.9314 H   0  0  0  0  0  0
   -2.2101   54.2639   23.6809 H   0  0  0  0  0  0
  1  2  1  0  0  0
  1 23  1  0  0  0
  1 24  1  0  0  0
  1 25  1  0  0  0
  2  7  2  0  0  0
  2  3  1  0  0  0
  3  4  2  0  0  0
  3 22  1  0  0  0
  4 12  1  0  0  0
  4  5  1  0  0  0
  5  6  2  0  0  0
  5 10  1  0  0  0
  6  7  1  0  0  0
  6  9  1  0  0  0
  7  8  1  0  0  0
  8 26  1  0  0  0
  8 27  1  0  0  0
  9 28  1  0  0  0
  9 29  1  0  0  0
  9 30  1  0  0  0
 10 11  1  0  0  0
 10 31  1  0  0  0
 10 32  1  0  0  0
 11 12  1  0  0  0
 11 13  1  0  0  0
 11 14  1  0  0  0
 13 33  1  0  0  0
 13 34  1  0  0  0
 13 35  1  0  0  0
 14 15  1  0  0  0
 14 36  1  0  0  0
 14 37  1  0  0  0
 15 16  1  0  0  0
 16 21  2  0  0  0
 16 17  1  0  0  0
 17 18  2  0  0  0
 17 38  1  0  0  0
 18 19  1  0  0  0
 18 39  1  0  0  0
 19 20  2  0  0  0
 20 21  1  0  0  0
 20 40  1  0  0  0
 21 41  1  0  0  0
 22 42  1  0  0  0
 22 43  1  0  0  0
 22 44  1  0  0  0
M  END
> <i_i_glide_confnum>
8

> <i_i_glide_lignum>
3868

> <i_i_glide_posenum>
143

> <i_i_glide_rotatable_bonds>
3

> <i_m_Source_File_Index>
2719

> <b_m_subgroup_collapsed>
0

> <r_i_docking_score>
-6.51358

> <r_i_glide_ecoul>
-5.89754

> <r_i_glide_eff_state_penalty>
0

> <r_i_glide_einternal>
1.77269

> <r_i_glide_emodel>
-47.5665

> <r_i_glide_energy>
-35.0172

> <r_i_glide_erotb>
0.563992

> <r_i_glide_esite>
-0.1

> <r_i_glide_evdw>
-29.1196

> <r_i_glide_gscore>
-6.51358

> <r_i_glide_hbond>
-0.390418

> <r_i_glide_ligand_efficiency>
-0.296072

> <r_i_glide_ligand_efficiency_ln>
-1.59216

> <r_i_glide_ligand_efficiency_sa>
-0.829605

> <r_i_glide_lipo>
-2.14807

> <r_i_glide_metal>
0

> <r_i_glide_rewards>
-2.09847

> <s_i_glide_gridfile>
wee1_glide-grid

> <s_m_Source_File>
wee1_decoys_glide_SP.sdf

> <s_m_Source_Path>
/Users/zhangxujun/Desktop

> <s_m_entry_id>
2994

> <s_m_entry_name>
wee1_decoys_glide_SP.2719

> <s_m_subgroup_title>
wee1_decoys_glide_SP

> <s_m_subgroupid>
wee1_decoys_glide_SP


$$$$
