ZINC13761675_5043
                    3D
 Schrodinger Suite 2024-2.
 62 66  0  0  1  0            999 V2000
    1.5900   53.5419   17.4608 C   0  0  0  0  0  0
    2.5729   52.5470   17.4575 C   0  0  0  0  0  0
    2.3028   51.3154   18.0606 C   0  0  0  0  0  0
    1.1031   51.1131   18.6456 N   0  3  0  0  0  0
    0.1411   52.0596   18.6908 C   0  0  0  0  0  0
    0.3559   53.2973   18.0779 C   0  0  0  0  0  0
   -1.3893   51.5706   19.4969 S   0  0  0  0  0  0
   -2.4069   52.4319   18.8835 O   0  0  0  0  0  0
   -1.4926   50.1265   19.2599 O   0  0  0  0  0  0
   -1.1057   51.9910   20.9834 N   0  5  0  0  0  0
   -0.5076   51.2056   21.9422 C   0  0  0  0  0  0
    0.2607   50.0555   21.6990 C   0  0  0  0  0  0
    0.8726   49.3542   22.7340 C   0  0  0  0  0  0
    0.7046   49.7670   24.0497 C   0  0  0  0  0  0
   -0.0644   50.8946   24.3405 C   0  0  0  0  0  0
   -0.6528   51.6030   23.2793 C   0  0  0  0  0  0
   -0.2352   51.3297   25.8073 C   0  0  1  0  0  0
   -0.1819   50.3851   26.3572 H   0  0  0  0  0  0
    0.9039   52.2218   26.3777 C   0  0  0  0  0  0
    1.8091   52.9753   25.6778 C   0  0  0  0  0  0
    1.7988   52.9934   24.3195 O   0  0  0  0  0  0
    2.8014   53.8126   26.3572 C   0  0  0  0  0  0
    2.7903   53.7931   27.7084 C   0  0  0  0  0  0
    1.9301   53.0223   28.4199 O   0  0  0  0  0  0
    0.9679   52.2238   27.8665 C   0  0  0  0  0  0
    0.2782   51.6114   28.6768 O   0  0  0  0  0  0
    3.5932   54.6711   28.6622 C   0  0  0  0  0  0
    5.0766   54.2986   28.8819 C   0  0  0  0  0  0
    6.0441   54.5603   27.7033 C   0  0  0  0  0  0
    5.8895   53.6073   26.5026 C   0  0  0  0  0  0
    5.1296   54.1765   25.2864 C   0  0  0  0  0  0
    3.7284   54.7501   25.5778 C   0  0  0  0  0  0
   -1.6558   51.8987   26.0782 C   0  0  0  0  0  0
   -2.8746   51.0517   25.7821 C   0  0  0  0  0  0
   -2.5010   51.3661   27.2139 C   0  0  0  0  0  0
    1.7868   54.4985   16.9983 H   0  0  0  0  0  0
    3.5347   52.7184   16.9929 H   0  0  0  0  0  0
    3.0084   50.4954   18.0821 H   0  0  0  0  0  0
   -0.4121   54.0560   18.0817 H   0  0  0  0  0  0
    0.4139   49.6813   20.7027 H   0  0  0  0  0  0
    1.4880   48.4976   22.5161 H   0  0  0  0  0  0
    1.1837   49.2095   24.8415 H   0  0  0  0  0  0
   -1.2390   52.4826   23.4967 H   0  0  0  0  0  0
    1.1527   52.3512   24.0086 H   0  0  0  0  0  0
    3.5086   55.6966   28.3275 H   0  0  0  0  0  0
    3.0875   54.6687   29.6291 H   0  0  0  0  0  0
    5.4373   54.8988   29.7208 H   0  0  0  0  0  0
    5.1487   53.2587   29.2040 H   0  0  0  0  0  0
    5.9947   55.6021   27.3836 H   0  0  0  0  0  0
    7.0606   54.4391   28.0859 H   0  0  0  0  0  0
    6.8824   53.3101   26.1632 H   0  0  0  0  0  0
    5.4199   52.6813   26.8371 H   0  0  0  0  0  0
    5.7355   54.9562   24.8227 H   0  0  0  0  0  0
    5.0397   53.3928   24.5330 H   0  0  0  0  0  0
    3.2609   55.0235   24.6308 H   0  0  0  0  0  0
    3.8352   55.6966   26.0956 H   0  0  0  0  0  0
   -1.7297   52.9601   25.8419 H   0  0  0  0  0  0
   -3.7470   51.5338   25.3404 H   0  0  0  0  0  0
   -2.7341   50.0341   25.4131 H   0  0  0  0  0  0
   -2.1110   50.5617   27.8394 H   0  0  0  0  0  0
   -3.1259   52.0571   27.7774 H   0  0  0  0  0  0
    0.9031   50.2090   19.0529 H   0  0  0  0  0  0
  1  6  2  0  0  0
  1  2  1  0  0  0
  1 36  1  0  0  0
  2  3  2  0  0  0
  2 37  1  0  0  0
  3  4  1  0  0  0
  3 38  1  0  0  0
  4  5  2  0  0  0
  4 62  1  0  0  0
  5  6  1  0  0  0
  5  7  1  0  0  0
  6 39  1  0  0  0
  7  8  2  0  0  0
  7  9  2  0  0  0
  7 10  1  0  0  0
 10 11  1  0  0  0
 11 16  2  0  0  0
 11 12  1  0  0  0
 12 13  2  0  0  0
 12 40  1  0  0  0
 13 14  1  0  0  0
 13 41  1  0  0  0
 14 15  2  0  0  0
 14 42  1  0  0  0
 15 16  1  0  0  0
 15 17  1  0  0  0
 16 43  1  0  0  0
 17 18  1  0  0  0
 17 33  1  0  0  0
 17 19  1  0  0  0
 19 25  1  0  0  0
 19 20  2  0  0  0
 20 21  1  0  0  0
 20 22  1  0  0  0
 21 44  1  0  0  0
 22 32  1  0  0  0
 22 23  2  0  0  0
 23 27  1  0  0  0
 23 24  1  0  0  0
 24 25  1  0  0  0
 25 26  2  0  0  0
 27 28  1  0  0  0
 27 45  1  0  0  0
 27 46  1  0  0  0
 28 29  1  0  0  0
 28 47  1  0  0  0
 28 48  1  0  0  0
 29 30  1  0  0  0
 29 49  1  0  0  0
 29 50  1  0  0  0
 30 31  1  0  0  0
 30 51  1  0  0  0
 30 52  1  0  0  0
 31 32  1  0  0  0
 31 53  1  0  0  0
 31 54  1  0  0  0
 32 55  1  0  0  0
 32 56  1  0  0  0
 33 35  1  0  0  0
 33 34  1  0  0  0
 33 57  1  0  0  0
 34 35  1  0  0  0
 34 58  1  0  0  0
 34 59  1  0  0  0
 35 60  1  0  0  0
 35 61  1  0  0  0
M  CHG  2   4   1  10  -1
M  END
> <i_i_glide_confnum>
196

> <i_i_glide_lignum>
5044

> <i_i_glide_posenum>
331

> <i_i_glide_rotatable_bonds>
7

> <i_m_Source_File_Index>
4635

> <b_m_subgroup_collapsed>
0

> <r_i_docking_score>
-4.61972

> <r_i_glide_ecoul>
-5.13964

> <r_i_glide_eff_state_penalty>
0

> <r_i_glide_einternal>
8.13607

> <r_i_glide_emodel>
-50.7634

> <r_i_glide_energy>
-41.2327

> <r_i_glide_erotb>
0.526859

> <r_i_glide_esite>
-0.105578

> <r_i_glide_evdw>
-36.0931

> <r_i_glide_gscore>
-4.61972

> <r_i_glide_hbond>
0

> <r_i_glide_ligand_efficiency>
-0.135874

> <r_i_glide_ligand_efficiency_ln>
-1.02063

> <r_i_glide_ligand_efficiency_sa>
-0.44018

> <r_i_glide_lipo>
-2.26197

> <r_i_glide_metal>
0

> <r_i_glide_rewards>
-0.203433

> <s_i_glide_gridfile>
wee1_glide-grid

> <s_m_Source_File>
wee1_decoys_glide_SP.sdf

> <s_m_Source_Path>
/Users/zhangxujun/Desktop

> <s_m_entry_id>
4910

> <s_m_entry_name>
wee1_decoys_glide_SP.4635

> <s_m_subgroup_title>
wee1_decoys_glide_SP

> <s_m_subgroupid>
wee1_decoys_glide_SP


$$$$
