ZINC67470880_4613
                    3D
 Schrodinger Suite 2024-2.
 48 49  0  0  1  0            999 V2000
    1.9268   55.3247   29.3760 C   0  0  0  0  0  0
    2.0480   53.9330   28.7147 C   0  0  1  0  0  0
    2.7378   53.3028   29.2757 H   0  0  0  0  0  0
    0.7308   53.1201   28.7187 C   0  0  0  0  0  0
   -0.0952   53.2840   29.6209 O   0  0  0  0  0  0
    0.5829   52.2369   27.7087 N   0  0  0  0  0  0
   -0.4875   51.3427   27.6988 N   0  0  0  0  0  0
   -1.2851   51.4344   26.6205 C   0  0  0  0  0  0
   -1.6527   52.4967   26.1128 O   0  0  0  0  0  0
   -1.5304   50.2236   26.0869 N   0  0  0  0  0  0
   -1.6538   49.8923   24.6560 C   0  0  0  0  0  0
   -1.8294   48.3517   24.5854 C   0  0  0  0  0  0
   -2.9680   50.4821   24.0669 C   0  0  0  0  0  0
   -0.3978   50.3709   23.8626 C   0  0  0  0  0  0
    0.7027   49.5226   23.6587 C   0  0  0  0  0  0
    1.8311   49.9642   22.9719 C   0  0  0  0  0  0
    1.8844   51.2665   22.4889 C   0  0  0  0  0  0
    0.8068   52.1258   22.6738 C   0  0  0  0  0  0
   -0.3257   51.6790   23.3509 C   0  0  0  0  0  0
    3.3027   51.8223   21.6774 Cl  0  0  0  0  0  0
    2.4786   54.0974   27.3562 O   0  0  0  0  0  0
    3.8169   54.2168   27.0230 C   0  0  0  0  0  0
    4.8791   54.1771   27.9441 C   0  0  0  0  0  0
    6.2006   54.2808   27.5073 C   0  0  0  0  0  0
    6.4787   54.4364   26.1507 C   0  0  0  0  0  0
    5.4350   54.4960   25.2305 C   0  0  0  0  0  0
    4.1139   54.3817   25.6633 C   0  0  0  0  0  0
    3.1168   54.4252   24.7484 F   0  0  0  0  0  0
    1.5804   55.2560   30.4080 H   0  0  0  0  0  0
    2.8855   55.8431   29.3856 H   0  0  0  0  0  0
    1.2228   55.9571   28.8330 H   0  0  0  0  0  0
    1.3473   51.9590   27.1097 H   0  0  0  0  0  0
   -0.2262   50.4390   28.0692 H   0  0  0  0  0  0
   -1.4370   49.4258   26.7081 H   0  0  0  0  0  0
   -1.8448   47.9957   23.5544 H   0  0  0  0  0  0
   -1.0367   47.8174   25.1115 H   0  0  0  0  0  0
   -2.7620   48.0303   25.0525 H   0  0  0  0  0  0
   -3.0749   50.2348   23.0101 H   0  0  0  0  0  0
   -3.8470   50.0927   24.5823 H   0  0  0  0  0  0
   -3.0297   51.5658   24.1522 H   0  0  0  0  0  0
    0.7155   48.5145   24.0428 H   0  0  0  0  0  0
    2.6721   49.2989   22.8376 H   0  0  0  0  0  0
    0.8551   53.1397   22.3042 H   0  0  0  0  0  0
   -1.1330   52.3786   23.4993 H   0  0  0  0  0  0
    4.7078   54.0676   29.0027 H   0  0  0  0  0  0
    7.0083   54.2428   28.2246 H   0  0  0  0  0  0
    7.5002   54.4994   25.8078 H   0  0  0  0  0  0
    5.6468   54.6137   24.1777 H   0  0  0  0  0  0
  1  2  1  0  0  0
  1 29  1  0  0  0
  1 30  1  0  0  0
  1 31  1  0  0  0
  2  3  1  0  0  0
  2  4  1  0  0  0
  2 21  1  0  0  0
  4  5  2  0  0  0
  4  6  1  0  0  0
  6  7  1  0  0  0
  6 32  1  0  0  0
  7  8  1  0  0  0
  7 33  1  0  0  0
  8  9  2  0  0  0
  8 10  1  0  0  0
 10 11  1  0  0  0
 10 34  1  0  0  0
 11 12  1  0  0  0
 11 13  1  0  0  0
 11 14  1  0  0  0
 12 35  1  0  0  0
 12 36  1  0  0  0
 12 37  1  0  0  0
 13 38  1  0  0  0
 13 39  1  0  0  0
 13 40  1  0  0  0
 14 19  2  0  0  0
 14 15  1  0  0  0
 15 16  2  0  0  0
 15 41  1  0  0  0
 16 17  1  0  0  0
 16 42  1  0  0  0
 17 18  2  0  0  0
 17 20  1  0  0  0
 18 19  1  0  0  0
 18 43  1  0  0  0
 19 44  1  0  0  0
 21 22  1  0  0  0
 22 27  2  0  0  0
 22 23  1  0  0  0
 23 24  2  0  0  0
 23 45  1  0  0  0
 24 25  1  0  0  0
 24 46  1  0  0  0
 25 26  2  0  0  0
 25 47  1  0  0  0
 26 27  1  0  0  0
 26 48  1  0  0  0
 27 28  1  0  0  0
M  END
> <i_i_glide_confnum>
93

> <i_i_glide_lignum>
4614

> <i_i_glide_posenum>
32

> <i_i_glide_rotatable_bonds>
9

> <i_m_Source_File_Index>
5966

> <b_m_subgroup_collapsed>
0

> <r_i_docking_score>
-5.51822

> <r_i_glide_ecoul>
-3.47155

> <r_i_glide_eff_state_penalty>
0

> <r_i_glide_einternal>
20.086

> <r_i_glide_emodel>
-47.9165

> <r_i_glide_energy>
-43.3743

> <r_i_glide_erotb>
0.881778

> <r_i_glide_esite>
-0.212065

> <r_i_glide_evdw>
-39.9028

> <r_i_glide_gscore>
-5.51822

> <r_i_glide_hbond>
-0.16439

> <r_i_glide_ligand_efficiency>
-0.204379

> <r_i_glide_ligand_efficiency_ln>
-1.28455

> <r_i_glide_ligand_efficiency_sa>
-0.613136

> <r_i_glide_lipo>
-2.47203

> <r_i_glide_metal>
0

> <r_i_glide_rewards>
-1.03565

> <s_i_glide_gridfile>
wee1_glide-grid

> <s_m_Source_File>
wee1_decoys_glide_SP.sdf

> <s_m_Source_Path>
/Users/zhangxujun/Desktop

> <s_m_entry_id>
6241

> <s_m_entry_name>
wee1_decoys_glide_SP.5966

> <s_m_subgroup_title>
wee1_decoys_glide_SP

> <s_m_subgroupid>
wee1_decoys_glide_SP


$$$$
