ZINC61365022_3904
                    3D
 Schrodinger Suite 2024-2.
 34 37  0  0  1  0            999 V2000
    2.6336   52.9439   28.2319 C   0  0  0  0  0  0
    2.5271   53.3200   26.8910 C   0  0  0  0  0  0
    3.7070   53.6984   26.2177 C   0  0  0  0  0  0
    4.9410   53.7498   26.9308 C   0  0  0  0  0  0
    5.0127   53.3795   28.2804 C   0  0  0  0  0  0
    3.8466   52.9571   28.9124 C   0  0  0  0  0  0
    3.9041   52.3806   30.7264 Br  0  0  0  0  0  0
    5.9583   54.1937   26.1468 N   0  0  0  0  0  0
    5.4046   54.3978   24.9895 C   0  0  0  0  0  0
    4.0454   54.0853   24.9068 N   0  0  0  0  0  0
    3.1973   54.2184   23.6713 C   0  0  2  0  0  0
    3.3547   55.2384   23.3221 H   0  0  0  0  0  0
    1.6652   54.0930   23.9152 C   0  0  0  0  0  0
    1.1574   52.6333   23.9635 C   0  0  0  0  0  0
    1.3185   51.9225   22.6167 C   0  0  0  0  0  0
    2.7070   52.2130   22.0805 C   0  0  0  0  0  0
    3.5481   53.2681   22.4975 C   0  0  0  0  0  0
    4.6596   53.3639   21.6392 C   0  0  0  0  0  0
    4.7055   52.3770   20.6676 C   0  0  0  0  0  0
    3.3578   51.3098   20.7525 S   0  0  0  0  0  0
    6.1469   54.8966   23.9659 N   0  0  0  0  0  0
    1.7449   52.6244   28.7583 H   0  0  0  0  0  0
    1.5530   53.2934   26.4381 H   0  0  0  0  0  0
    5.9525   53.4100   28.8094 H   0  0  0  0  0  0
    1.1444   54.6040   23.1032 H   0  0  0  0  0  0
    1.3594   54.6312   24.8044 H   0  0  0  0  0  0
    0.1114   52.6069   24.2717 H   0  0  0  0  0  0
    1.7085   52.0528   24.7020 H   0  0  0  0  0  0
    0.5701   52.2955   21.9164 H   0  0  0  0  0  0
    1.1458   50.8512   22.7262 H   0  0  0  0  0  0
    5.4150   54.1282   21.6972 H   0  0  0  0  0  0
    5.4466   52.2348   19.8937 H   0  0  0  0  0  0
    7.1502   54.9830   24.0547 H   0  0  0  0  0  0
    5.7261   55.2423   23.1197 H   0  0  0  0  0  0
  1  6  2  0  0  0
  1  2  1  0  0  0
  1 22  1  0  0  0
  2  3  2  0  0  0
  2 23  1  0  0  0
  3 10  1  0  0  0
  3  4  1  0  0  0
  4  5  2  0  0  0
  4  8  1  0  0  0
  5  6  1  0  0  0
  5 24  1  0  0  0
  6  7  1  0  0  0
  8  9  2  0  0  0
  9 10  1  0  0  0
  9 21  1  0  0  0
 10 11  1  0  0  0
 11 12  1  0  0  0
 11 17  1  0  0  0
 11 13  1  0  0  0
 13 14  1  0  0  0
 13 25  1  0  0  0
 13 26  1  0  0  0
 14 15  1  0  0  0
 14 27  1  0  0  0
 14 28  1  0  0  0
 15 16  1  0  0  0
 15 29  1  0  0  0
 15 30  1  0  0  0
 16 20  1  0  0  0
 16 17  2  0  0  0
 17 18  1  0  0  0
 18 19  2  0  0  0
 18 31  1  0  0  0
 19 20  1  0  0  0
 19 32  1  0  0  0
 21 33  1  0  0  0
 21 34  1  0  0  0
M  END
> <i_i_glide_confnum>
5

> <i_i_glide_lignum>
3905

> <i_i_glide_posenum>
2

> <i_i_glide_rotatable_bonds>
1

> <i_m_Source_File_Index>
2820

> <b_m_subgroup_collapsed>
0

> <r_i_docking_score>
-6.17272

> <r_i_glide_ecoul>
-1.87533

> <r_i_glide_eff_state_penalty>
0

> <r_i_glide_einternal>
13.0124

> <r_i_glide_emodel>
-46.6436

> <r_i_glide_energy>
-39.1127

> <r_i_glide_erotb>
0.156938

> <r_i_glide_esite>
0

> <r_i_glide_evdw>
-37.2373

> <r_i_glide_gscore>
-6.17272

> <r_i_glide_hbond>
0

> <r_i_glide_ligand_efficiency>
-0.308636

> <r_i_glide_ligand_efficiency_ln>
-1.54483

> <r_i_glide_ligand_efficiency_sa>
-0.837768

> <r_i_glide_lipo>
-2.46965

> <r_i_glide_metal>
0

> <r_i_glide_rewards>
-1.71685

> <s_i_glide_gridfile>
wee1_glide-grid

> <s_m_Source_File>
wee1_decoys_glide_SP.sdf

> <s_m_Source_Path>
/Users/zhangxujun/Desktop

> <s_m_entry_id>
3095

> <s_m_entry_name>
wee1_decoys_glide_SP.2820

> <s_m_subgroup_title>
wee1_decoys_glide_SP

> <s_m_subgroupid>
wee1_decoys_glide_SP


$$$$
