ZINC39836483_1047
                    3D
 Schrodinger Suite 2024-2.
 70 73  0  0  1  0            999 V2000
    6.6110   57.7414   16.5893 C   0  0  0  0  0  0
    7.2864   56.3496   16.7136 C   0  0  0  0  0  0
    7.0422   55.5746   15.3953 C   0  0  0  0  0  0
    8.8169   56.5693   16.8349 C   0  0  0  0  0  0
    6.7410   55.5217   17.9426 C   0  0  2  0  0  0
    7.1384   54.5101   17.8192 H   0  0  0  0  0  0
    5.1931   55.4157   17.9816 C   0  0  0  0  0  0
    4.7089   54.3341   18.9680 C   0  0  0  0  0  0
    5.4012   54.5069   20.3297 C   0  0  0  0  0  0
    6.5487   55.3097   20.4489 C   0  0  0  0  0  0
    7.1024   55.4338   22.0755 S   0  0  0  0  0  0
    5.7536   54.4958   22.6486 C   0  0  0  0  0  0
    4.9635   53.9937   21.5880 C   0  0  0  0  0  0
    3.7900   53.1495   21.8011 C   0  0  0  0  0  0
    3.1973   53.1392   22.8826 O   0  0  0  0  0  0
    3.4367   52.3617   20.7698 N   0  0  0  0  0  0
    2.3496   51.3815   20.7519 C   0  0  2  0  0  0
    2.5735   50.5211   21.3883 H   0  0  0  0  0  0
    2.1823   50.8586   19.3031 C   0  0  0  0  0  0
    0.8698   50.0616   19.1888 C   0  0  0  0  0  0
   -0.3291   50.9508   20.3191 S   0  0  0  0  0  0
   -0.8813   49.9810   21.2688 O   0  0  0  0  0  0
   -1.2139   51.8389   19.5584 O   0  0  0  0  0  0
    0.9840   51.9801   21.1540 C   0  0  0  0  0  0
    5.5296   54.2539   24.0051 N   0  0  0  0  0  0
    6.1506   54.7610   25.0942 C   0  0  0  0  0  0
    7.1033   55.5383   25.0839 O   0  0  0  0  0  0
    5.6127   54.2876   26.3451 C   0  0  0  0  0  0
    4.2900   54.1368   26.5945 C   0  0  0  0  0  0
    3.7069   53.6217   27.8517 C   0  0  0  0  0  0
    4.4809   52.8966   28.7627 C   0  0  0  0  0  0
    3.9088   52.3950   29.9255 C   0  0  0  0  0  0
    2.5713   52.6245   30.2154 C   0  0  0  0  0  0
    1.7891   53.3600   29.3136 C   0  0  0  0  0  0
    2.3559   53.8507   28.1357 C   0  0  0  0  0  0
    2.1282   52.0976   31.4071 O   0  0  0  0  0  0
    0.8165   52.4007   31.8664 C   0  0  0  0  0  0
    7.2226   56.0722   19.3163 C   0  0  0  0  0  0
    6.7186   58.3378   17.4937 H   0  0  0  0  0  0
    7.0444   58.3229   15.7728 H   0  0  0  0  0  0
    5.5436   57.6591   16.3799 H   0  0  0  0  0  0
    7.4637   54.5690   15.4334 H   0  0  0  0  0  0
    5.9835   55.4733   15.1596 H   0  0  0  0  0  0
    7.4991   56.0778   14.5427 H   0  0  0  0  0  0
    9.3445   55.6300   17.0120 H   0  0  0  0  0  0
    9.2369   57.0076   15.9288 H   0  0  0  0  0  0
    9.0723   57.2468   17.6492 H   0  0  0  0  0  0
    4.7375   56.3896   18.1750 H   0  0  0  0  0  0
    4.8133   55.1335   17.0016 H   0  0  0  0  0  0
    4.9202   53.3431   18.5642 H   0  0  0  0  0  0
    3.6231   54.4033   19.0560 H   0  0  0  0  0  0
    4.0223   52.3746   19.9449 H   0  0  0  0  0  0
    3.0456   50.2605   18.9976 H   0  0  0  0  0  0
    2.1677   51.6951   18.6016 H   0  0  0  0  0  0
    1.0387   49.0740   19.6190 H   0  0  0  0  0  0
    0.4443   49.9250   18.1960 H   0  0  0  0  0  0
    0.9136   52.9243   20.6131 H   0  0  0  0  0  0
    0.7757   52.2097   22.1967 H   0  0  0  0  0  0
    4.7406   53.6474   24.1798 H   0  0  0  0  0  0
    6.3626   54.0755   27.0929 H   0  0  0  0  0  0
    3.5722   54.3842   25.8224 H   0  0  0  0  0  0
    5.5242   52.6927   28.5727 H   0  0  0  0  0  0
    4.5191   51.8287   30.6146 H   0  0  0  0  0  0
    0.7429   53.5468   29.5034 H   0  0  0  0  0  0
    1.7389   54.4052   27.4453 H   0  0  0  0  0  0
    0.7039   51.9461   32.8496 H   0  0  0  0  0  0
    0.6646   53.4745   31.9803 H   0  0  0  0  0  0
    0.0461   51.9920   31.2122 H   0  0  0  0  0  0
    6.9717   57.1282   19.4047 H   0  0  0  0  0  0
    8.3052   55.9828   19.4155 H   0  0  0  0  0  0
  1  2  1  0  0  0
  1 39  1  0  0  0
  1 40  1  0  0  0
  1 41  1  0  0  0
  2  3  1  0  0  0
  2  4  1  0  0  0
  2  5  1  0  0  0
  3 42  1  0  0  0
  3 43  1  0  0  0
  3 44  1  0  0  0
  4 45  1  0  0  0
  4 46  1  0  0  0
  4 47  1  0  0  0
  5  6  1  0  0  0
  5 38  1  0  0  0
  5  7  1  0  0  0
  7  8  1  0  0  0
  7 48  1  0  0  0
  7 49  1  0  0  0
  8  9  1  0  0  0
  8 50  1  0  0  0
  8 51  1  0  0  0
  9 13  1  0  0  0
  9 10  2  0  0  0
 10 11  1  0  0  0
 10 38  1  0  0  0
 11 12  1  0  0  0
 12 13  2  0  0  0
 12 25  1  0  0  0
 13 14  1  0  0  0
 14 15  2  0  0  0
 14 16  1  0  0  0
 16 17  1  0  0  0
 16 52  1  0  0  0
 17 18  1  0  0  0
 17 24  1  0  0  0
 17 19  1  0  0  0
 19 20  1  0  0  0
 19 53  1  0  0  0
 19 54  1  0  0  0
 20 21  1  0  0  0
 20 55  1  0  0  0
 20 56  1  0  0  0
 21 22  2  0  0  0
 21 23  2  0  0  0
 21 24  1  0  0  0
 24 57  1  0  0  0
 24 58  1  0  0  0
 25 26  1  0  0  0
 25 59  1  0  0  0
 26 27  2  0  0  0
 26 28  1  0  0  0
 28 29  2  0  0  0
 28 60  1  0  0  0
 29 30  1  0  0  0
 29 61  1  0  0  0
 30 35  2  0  0  0
 30 31  1  0  0  0
 31 32  2  0  0  0
 31 62  1  0  0  0
 32 33  1  0  0  0
 32 63  1  0  0  0
 33 34  2  0  0  0
 33 36  1  0  0  0
 34 35  1  0  0  0
 34 64  1  0  0  0
 35 65  1  0  0  0
 36 37  1  0  0  0
 37 66  1  0  0  0
 37 67  1  0  0  0
 37 68  1  0  0  0
 38 69  1  0  0  0
 38 70  1  0  0  0
M  END
> <i_i_glide_confnum>
242

> <i_i_glide_lignum>
1048

> <i_i_glide_posenum>
383

> <i_i_glide_rotatable_bonds>
9

> <i_m_Source_File_Index>
2449

> <b_m_subgroup_collapsed>
0

> <r_i_docking_score>
-6.74921

> <r_i_glide_ecoul>
-8.18809

> <r_i_glide_eff_state_penalty>
0

> <r_i_glide_einternal>
5.35176

> <r_i_glide_emodel>
-79.1461

> <r_i_glide_energy>
-57.2887

> <r_i_glide_erotb>
0.512378

> <r_i_glide_esite>
-0.0319493

> <r_i_glide_evdw>
-49.1007

> <r_i_glide_gscore>
-6.74921

> <r_i_glide_hbond>
-0.509353

> <r_i_glide_ligand_efficiency>
-0.187478

> <r_i_glide_ligand_efficiency_ln>
-1.4725

> <r_i_glide_ligand_efficiency_sa>
-0.619039

> <r_i_glide_lipo>
-2.38342

> <r_i_glide_metal>
0

> <r_i_glide_rewards>
-0.653624

> <s_i_glide_gridfile>
wee1_glide-grid

> <s_m_Source_File>
wee1_decoys_glide_SP.sdf

> <s_m_Source_Path>
/Users/zhangxujun/Desktop

> <s_m_entry_id>
2724

> <s_m_entry_name>
wee1_decoys_glide_SP.2449

> <s_m_subgroup_title>
wee1_decoys_glide_SP

> <s_m_subgroupid>
wee1_decoys_glide_SP


$$$$
