ZINC24033758_2783
                    3D
 Schrodinger Suite 2024-2.
 49 52  0  0  1  0            999 V2000
   -0.3511   51.1036   26.3627 C   0  0  0  0  0  0
    0.3051   51.7124   25.2917 C   0  0  0  0  0  0
    1.2236   52.7467   25.5176 C   0  0  0  0  0  0
    1.4298   53.1900   26.8335 C   0  0  0  0  0  0
    0.7594   52.5980   27.9060 C   0  0  0  0  0  0
   -0.1137   51.5361   27.6660 C   0  0  0  0  0  0
    1.0246   52.9819   29.2277 N   0  0  0  0  0  0
    0.8749   54.3787   29.6112 C   0  0  0  0  0  0
    2.2511   55.0773   29.6134 C   0  0  0  0  0  0
    3.3717   54.0168   29.6140 C   0  0  0  0  0  0
    2.4920   52.4084   30.0125 S   0  0  0  0  0  0
    2.3404   52.3538   31.4670 O   0  0  0  0  0  0
    3.1043   51.2975   29.2817 O   0  0  0  0  0  0
    2.0105   53.3352   24.3732 C   0  0  0  0  0  0
    1.5251   53.4200   23.2455 O   0  0  0  0  0  0
    3.2629   53.6966   24.7186 N   0  0  0  0  0  0
    4.3510   54.0969   23.9367 C   0  0  0  0  0  0
    5.4845   54.4962   24.6496 C   0  0  0  0  0  0
    6.6350   54.8947   23.9775 C   0  0  0  0  0  0
    6.6650   54.8971   22.5863 C   0  0  0  0  0  0
    5.5306   54.5085   21.8562 C   0  0  0  0  0  0
    4.3794   54.0956   22.5331 C   0  0  0  0  0  0
    5.5009   54.4904   20.4550 N   0  0  0  0  0  0
    6.1647   55.3124   19.6151 C   0  0  0  0  0  0
    6.8250   56.2945   19.9680 O   0  0  0  0  0  0
    6.0304   54.9445   18.2278 C   0  0  0  0  0  0
    5.7108   53.6978   17.6730 C   0  0  0  0  0  0
    5.7384   53.6948   16.2753 C   0  0  0  0  0  0
    6.1103   54.9221   15.7472 C   0  0  0  0  0  0
    6.4415   56.0931   16.9827 S   0  0  0  0  0  0
   -1.0299   50.2798   26.1915 H   0  0  0  0  0  0
    0.1244   51.3472   24.2903 H   0  0  0  0  0  0
    2.1179   53.9964   27.0334 H   0  0  0  0  0  0
   -0.6113   51.0361   28.4862 H   0  0  0  0  0  0
    0.3044   54.8964   28.8422 H   0  0  0  0  0  0
    0.2822   54.5454   30.5123 H   0  0  0  0  0  0
    2.3515   55.7351   28.7479 H   0  0  0  0  0  0
    2.3037   55.7427   30.4763 H   0  0  0  0  0  0
    3.8559   53.9105   28.6440 H   0  0  0  0  0  0
    4.1442   54.1959   30.3610 H   0  0  0  0  0  0
    3.4846   53.5741   25.6930 H   0  0  0  0  0  0
    5.4864   54.4978   25.7302 H   0  0  0  0  0  0
    7.5045   55.2035   24.5339 H   0  0  0  0  0  0
    7.5762   55.1982   22.0895 H   0  0  0  0  0  0
    3.5191   53.7868   21.9587 H   0  0  0  0  0  0
    4.8923   53.8058   20.0331 H   0  0  0  0  0  0
    5.4675   52.8135   18.2463 H   0  0  0  0  0  0
    5.5069   52.8240   15.6777 H   0  0  0  0  0  0
    6.2187   55.1883   14.7065 H   0  0  0  0  0  0
  1  6  2  0  0  0
  1  2  1  0  0  0
  1 31  1  0  0  0
  2  3  2  0  0  0
  2 32  1  0  0  0
  3  4  1  0  0  0
  3 14  1  0  0  0
  4  5  2  0  0  0
  4 33  1  0  0  0
  5  6  1  0  0  0
  5  7  1  0  0  0
  6 34  1  0  0  0
  7 11  1  0  0  0
  7  8  1  0  0  0
  8  9  1  0  0  0
  8 35  1  0  0  0
  8 36  1  0  0  0
  9 10  1  0  0  0
  9 37  1  0  0  0
  9 38  1  0  0  0
 10 11  1  0  0  0
 10 39  1  0  0  0
 10 40  1  0  0  0
 11 12  2  0  0  0
 11 13  2  0  0  0
 14 15  2  0  0  0
 14 16  1  0  0  0
 16 17  1  0  0  0
 16 41  1  0  0  0
 17 22  2  0  0  0
 17 18  1  0  0  0
 18 19  2  0  0  0
 18 42  1  0  0  0
 19 20  1  0  0  0
 19 43  1  0  0  0
 20 21  2  0  0  0
 20 44  1  0  0  0
 21 22  1  0  0  0
 21 23  1  0  0  0
 22 45  1  0  0  0
 23 24  1  0  0  0
 23 46  1  0  0  0
 24 25  2  0  0  0
 24 26  1  0  0  0
 26 30  1  0  0  0
 26 27  2  0  0  0
 27 28  1  0  0  0
 27 47  1  0  0  0
 28 29  2  0  0  0
 28 48  1  0  0  0
 29 30  1  0  0  0
 29 49  1  0  0  0
M  END
> <i_i_glide_confnum>
35

> <i_i_glide_lignum>
2784

> <i_i_glide_posenum>
329

> <i_i_glide_rotatable_bonds>
7

> <i_m_Source_File_Index>
693

> <b_m_subgroup_collapsed>
0

> <r_i_docking_score>
-5.67582

> <r_i_glide_ecoul>
-5.44304

> <r_i_glide_eff_state_penalty>
0

> <r_i_glide_einternal>
3.74361

> <r_i_glide_emodel>
-65.0817

> <r_i_glide_energy>
-49.4661

> <r_i_glide_erotb>
0.717282

> <r_i_glide_esite>
-0.0634755

> <r_i_glide_evdw>
-44.0231

> <r_i_glide_gscore>
-5.67582

> <r_i_glide_hbond>
0

> <r_i_glide_ligand_efficiency>
-0.189194

> <r_i_glide_ligand_efficiency_ln>
-1.28961

> <r_i_glide_ligand_efficiency_sa>
-0.587869

> <r_i_glide_lipo>
-2.25043

> <r_i_glide_metal>
0

> <r_i_glide_rewards>
-1.06158

> <s_i_glide_gridfile>
wee1_glide-grid

> <s_m_Source_File>
wee1_decoys_glide_SP.sdf

> <s_m_Source_Path>
/Users/zhangxujun/Desktop

> <s_m_entry_id>
968

> <s_m_entry_name>
wee1_decoys_glide_SP.693

> <s_m_subgroup_title>
wee1_decoys_glide_SP

> <s_m_subgroupid>
wee1_decoys_glide_SP


$$$$
