ZINC03872834_1786
                    3D
 Schrodinger Suite 2024-2.
 56 59  0  0  1  0            999 V2000
   -0.9000   52.8644   23.4932 C   0  0  0  0  0  0
    0.1693   51.8722   24.0407 C   0  0  1  0  0  0
   -0.4499   50.4374   23.8205 C   0  0  0  0  0  0
    0.5389   49.2960   23.4989 C   0  0  0  0  0  0
    1.4514   49.6928   22.3381 C   0  0  0  0  0  0
    1.8428   48.8967   21.4891 O   0  0  0  0  0  0
    1.9622   51.0381   22.3940 C   0  0  0  0  0  0
    1.4356   52.0238   23.1501 C   0  0  0  0  0  0
    2.1398   53.3609   23.2636 C   0  0  0  0  0  0
    2.6683   53.3959   24.6926 C   0  0  0  0  0  0
    1.5601   53.4416   25.7440 C   0  0  1  0  0  0
    1.1036   54.3897   25.5028 H   0  0  0  0  0  0
    0.5066   52.2633   25.5622 C   0  0  2  0  0  0
   -0.4146   52.7802   25.8082 H   0  0  0  0  0  0
    0.5504   51.1042   26.6541 C   0  0  1  0  0  0
    0.9781   50.2019   26.2211 H   0  0  0  0  0  0
    1.2992   51.4183   27.9961 C   0  0  0  0  0  0
    1.3892   52.9367   28.3300 C   0  0  2  0  0  0
    2.1856   53.5488   27.1622 C   0  0  2  0  0  0
    3.1314   52.9995   27.1163 H   0  0  0  0  0  0
    2.5756   54.9372   27.6640 C   0  0  0  0  0  0
    2.9798   54.7460   29.1105 C   0  0  0  0  0  0
    2.2647   53.4390   29.5724 C   0  0  2  0  0  0
    3.3943   52.4648   30.0566 C   0  0  0  0  0  0
    4.2785   52.1074   29.2818 O   0  0  0  0  0  0
    3.5429   52.0615   31.5353 C   0  0  0  0  0  0
    2.2882   51.6987   32.0817 O   0  0  0  0  0  0
    1.4754   53.7877   30.6886 O   0  0  0  0  0  0
   -0.0629   53.5054   28.4975 C   0  0  0  0  0  0
   -0.7888   50.7552   26.9900 O   0  0  0  0  0  0
   -1.8639   52.6964   23.9702 H   0  0  0  0  0  0
   -0.6421   53.9051   23.6820 H   0  0  0  0  0  0
   -1.0575   52.7258   22.4212 H   0  0  0  0  0  0
   -1.1046   50.1457   24.6376 H   0  0  0  0  0  0
   -1.1336   50.4620   22.9694 H   0  0  0  0  0  0
    0.0323   48.3620   23.2612 H   0  0  0  0  0  0
    1.1876   49.0950   24.3493 H   0  0  0  0  0  0
    2.8477   51.2565   21.8125 H   0  0  0  0  0  0
    2.9774   53.4163   22.5672 H   0  0  0  0  0  0
    1.5017   54.2120   23.0322 H   0  0  0  0  0  0
    3.3627   54.2275   24.8154 H   0  0  0  0  0  0
    3.2259   52.4975   24.8981 H   0  0  0  0  0  0
    2.3016   51.0098   27.9154 H   0  0  0  0  0  0
    0.8368   50.8951   28.8369 H   0  0  0  0  0  0
    1.7205   55.6130   27.6812 H   0  0  0  0  0  0
    3.3385   55.3846   27.0294 H   0  0  0  0  0  0
    2.6860   55.6242   29.6903 H   0  0  0  0  0  0
    4.0700   54.7169   29.1725 H   0  0  0  0  0  0
    3.9761   52.8972   32.0824 H   0  0  0  0  0  0
    4.2450   51.2337   31.6300 H   0  0  0  0  0  0
    2.3036   51.8356   33.0429 H   0  0  0  0  0  0
    1.2080   52.9688   31.1277 H   0  0  0  0  0  0
   -0.7567   53.3278   27.6907 H   0  0  0  0  0  0
   -0.5445   53.0589   29.3678 H   0  0  0  0  0  0
   -0.0409   54.5781   28.6620 H   0  0  0  0  0  0
   -0.8168   49.9140   27.4762 H   0  0  0  0  0  0
  1  2  1  0  0  0
  1 31  1  0  0  0
  1 32  1  0  0  0
  1 33  1  0  0  0
  2  8  1  0  0  0
  2 13  1  0  0  0
  2  3  1  0  0  0
  3  4  1  0  0  0
  3 34  1  0  0  0
  3 35  1  0  0  0
  4  5  1  0  0  0
  4 36  1  0  0  0
  4 37  1  0  0  0
  5  6  2  0  0  0
  5  7  1  0  0  0
  7  8  2  0  0  0
  7 38  1  0  0  0
  8  9  1  0  0  0
  9 10  1  0  0  0
  9 39  1  0  0  0
  9 40  1  0  0  0
 10 11  1  0  0  0
 10 41  1  0  0  0
 10 42  1  0  0  0
 11 12  1  0  0  0
 11 19  1  0  0  0
 11 13  1  0  0  0
 13 14  1  0  0  0
 13 15  1  0  0  0
 15 16  1  0  0  0
 15 17  1  0  0  0
 15 30  1  0  0  0
 17 18  1  0  0  0
 17 43  1  0  0  0
 17 44  1  0  0  0
 18 23  1  0  0  0
 18 19  1  0  0  0
 18 29  1  0  0  0
 19 20  1  0  0  0
 19 21  1  0  0  0
 21 22  1  0  0  0
 21 45  1  0  0  0
 21 46  1  0  0  0
 22 23  1  0  0  0
 22 47  1  0  0  0
 22 48  1  0  0  0
 23 24  1  0  0  0
 23 28  1  0  0  0
 24 25  2  0  0  0
 24 26  1  0  0  0
 26 27  1  0  0  0
 26 49  1  0  0  0
 26 50  1  0  0  0
 27 51  1  0  0  0
 28 52  1  0  0  0
 29 53  1  0  0  0
 29 54  1  0  0  0
 29 55  1  0  0  0
 30 56  1  0  0  0
M  END
> <i_i_glide_confnum>
4

> <i_i_glide_lignum>
1787

> <i_i_glide_posenum>
275

> <i_i_glide_rotatable_bonds>
5

> <i_m_Source_File_Index>
19

> <b_m_subgroup_collapsed>
0

> <r_i_docking_score>
-5.92845

> <r_i_glide_ecoul>
-8.0507

> <r_i_glide_eff_state_penalty>
0

> <r_i_glide_einternal>
6.60986

> <r_i_glide_emodel>
-35.7328

> <r_i_glide_energy>
-33.7209

> <r_i_glide_erotb>
0.292322

> <r_i_glide_esite>
0

> <r_i_glide_evdw>
-25.6702

> <r_i_glide_gscore>
-5.92845

> <r_i_glide_hbond>
-0.143131

> <r_i_glide_ligand_efficiency>
-0.228017

> <r_i_glide_ligand_efficiency_ln>
-1.39228

> <r_i_glide_ligand_efficiency_sa>
-0.675501

> <r_i_glide_lipo>
-2.21174

> <r_i_glide_metal>
0

> <r_i_glide_rewards>
-1.37479

> <s_i_glide_gridfile>
wee1_glide-grid

> <s_m_Source_File>
wee1_decoys_glide_SP.sdf

> <s_m_Source_Path>
/Users/zhangxujun/Desktop

> <s_m_entry_id>
294

> <s_m_entry_name>
wee1_decoys_glide_SP.19

> <s_m_subgroup_title>
wee1_decoys_glide_SP

> <s_m_subgroupid>
wee1_decoys_glide_SP


$$$$
