ZINC62243120_4762
                    3D
 Schrodinger Suite 2024-2.
 45 46  0  0  1  0            999 V2000
    1.3282   52.5991   30.7038 C   0  0  0  0  0  0
    0.7252   54.0087   30.5507 C   0  0  0  0  0  0
    1.1055   54.8035   29.2853 C   0  0  0  0  0  0
    2.6018   55.0654   29.0815 C   0  0  0  0  0  0
    3.5539   53.9638   28.4763 C   0  0  0  0  0  0
    3.3698   52.5410   29.1256 C   0  0  0  0  0  0
    2.8643   52.4967   30.5768 C   0  0  0  0  0  0
    5.0771   54.3910   28.6889 C   0  0  0  0  0  0
    6.0958   53.9899   28.0370 N   0  0  0  0  0  0
    5.8942   52.9335   27.1632 O   0  0  0  0  0  0
    5.2966   55.2925   29.6817 N   0  0  0  0  0  0
    3.3624   53.9192   27.0083 N   0  0  0  0  0  0
    2.3806   53.3929   26.2473 C   0  0  0  0  0  0
    1.3523   52.9052   26.7069 O   0  0  0  0  0  0
    2.6332   53.2968   24.7291 C   0  0  1  0  0  0
    2.7061   52.2122   24.6381 H   0  0  0  0  0  0
    1.4372   53.7303   23.8669 C   0  0  0  0  0  0
    1.7814   53.2854   22.4301 C   0  0  0  0  0  0
    3.1590   53.8162   21.9655 C   0  0  0  0  0  0
    4.1920   53.5159   22.9000 O   0  0  0  0  0  0
    3.9420   53.9683   24.2303 C   0  0  0  0  0  0
    1.0342   52.2175   31.6822 H   0  0  0  0  0  0
    0.8552   51.9278   29.9847 H   0  0  0  0  0  0
    0.9925   54.6033   31.4238 H   0  0  0  0  0  0
   -0.3621   53.9225   30.5885 H   0  0  0  0  0  0
    0.7042   55.8062   29.4089 H   0  0  0  0  0  0
    0.6155   54.4067   28.4018 H   0  0  0  0  0  0
    2.9207   55.3557   30.0794 H   0  0  0  0  0  0
    2.7036   55.9709   28.4818 H   0  0  0  0  0  0
    2.6903   51.9243   28.5406 H   0  0  0  0  0  0
    4.3000   51.9711   29.0812 H   0  0  0  0  0  0
    3.3683   53.2655   31.1605 H   0  0  0  0  0  0
    3.1841   51.5587   31.0287 H   0  0  0  0  0  0
    4.9612   52.7203   27.2702 H   0  0  0  0  0  0
    6.2476   55.6399   29.7806 H   0  0  0  0  0  0
    4.5408   55.8506   30.0452 H   0  0  0  0  0  0
    4.1225   54.3458   26.4956 H   0  0  0  0  0  0
    1.3116   54.8152   23.8583 H   0  0  0  0  0  0
    0.5123   53.2195   24.1432 H   0  0  0  0  0  0
    1.0157   53.6127   21.7320 H   0  0  0  0  0  0
    1.7839   52.1969   22.3733 H   0  0  0  0  0  0
    3.1041   54.8969   21.8386 H   0  0  0  0  0  0
    3.4205   53.3950   20.9934 H   0  0  0  0  0  0
    4.8141   53.6954   24.8231 H   0  0  0  0  0  0
    3.8393   55.0540   24.2308 H   0  0  0  0  0  0
  1  7  1  0  0  0
  1  2  1  0  0  0
  1 22  1  0  0  0
  1 23  1  0  0  0
  2  3  1  0  0  0
  2 24  1  0  0  0
  2 25  1  0  0  0
  3  4  1  0  0  0
  3 26  1  0  0  0
  3 27  1  0  0  0
  4  5  1  0  0  0
  4 28  1  0  0  0
  4 29  1  0  0  0
  5  6  1  0  0  0
  5  8  1  0  0  0
  5 12  1  0  0  0
  6  7  1  0  0  0
  6 30  1  0  0  0
  6 31  1  0  0  0
  7 32  1  0  0  0
  7 33  1  0  0  0
  8  9  2  0  0  0
  8 11  1  0  0  0
  9 10  1  0  0  0
 10 34  1  0  0  0
 11 35  1  0  0  0
 11 36  1  0  0  0
 12 13  1  0  0  0
 12 37  1  0  0  0
 13 14  2  0  0  0
 13 15  1  0  0  0
 15 16  1  0  0  0
 15 21  1  0  0  0
 15 17  1  0  0  0
 17 18  1  0  0  0
 17 38  1  0  0  0
 17 39  1  0  0  0
 18 19  1  0  0  0
 18 40  1  0  0  0
 18 41  1  0  0  0
 19 20  1  0  0  0
 19 42  1  0  0  0
 19 43  1  0  0  0
 20 21  1  0  0  0
 21 44  1  0  0  0
 21 45  1  0  0  0
M  END
> <i_i_glide_confnum>
298

> <i_i_glide_lignum>
4763

> <i_i_glide_posenum>
387

> <i_i_glide_rotatable_bonds>
5

> <i_m_Source_File_Index>
2601

> <b_m_subgroup_collapsed>
0

> <r_i_docking_score>
-4.5566

> <r_i_glide_ecoul>
-1.78556

> <r_i_glide_eff_state_penalty>
0

> <r_i_glide_einternal>
7.9416

> <r_i_glide_emodel>
-29.5748

> <r_i_glide_energy>
-24.1218

> <r_i_glide_erotb>
1.12765

> <r_i_glide_esite>
-0.0219914

> <r_i_glide_evdw>
-22.3362

> <r_i_glide_gscore>
-4.5566

> <r_i_glide_hbond>
-0.32

> <r_i_glide_ligand_efficiency>
-0.22783

> <r_i_glide_ligand_efficiency_ln>
-1.14037

> <r_i_glide_ligand_efficiency_sa>
-0.618426

> <r_i_glide_lipo>
-1.96336

> <r_i_glide_metal>
0

> <r_i_glide_rewards>
-1.99425

> <s_i_glide_gridfile>
wee1_glide-grid

> <s_m_Source_File>
wee1_decoys_glide_SP.sdf

> <s_m_Source_Path>
/Users/zhangxujun/Desktop

> <s_m_entry_id>
2876

> <s_m_entry_name>
wee1_decoys_glide_SP.2601

> <s_m_subgroup_title>
wee1_decoys_glide_SP

> <s_m_subgroupid>
wee1_decoys_glide_SP


$$$$
