ZINC38994919_2511
                    3D
 Schrodinger Suite 2024-2.
 51 55  0  0  1  0            999 V2000
   -3.2984   52.4282   17.3425 C   0  0  0  0  0  0
   -1.9076   52.4778   17.3236 C   0  0  0  0  0  0
   -1.1804   51.7815   18.2851 C   0  0  0  0  0  0
   -1.8354   51.0347   19.2752 C   0  0  0  0  0  0
   -3.2367   51.0121   19.2892 C   0  0  0  0  0  0
   -3.9662   51.6965   18.3208 C   0  0  0  0  0  0
   -1.0629   50.3065   20.3119 C   0  0  0  0  0  0
   -1.4857   49.9288   21.5230 C   0  0  0  0  0  0
   -0.2888   49.2507   22.1217 C   0  0  1  0  0  0
   -0.5009   48.2067   22.3563 H   0  0  0  0  0  0
    0.6750   49.2810   21.0542 N   0  0  0  0  0  0
    0.1987   49.8943   20.0501 N   0  0  0  0  0  0
    0.2808   49.9652   23.3738 C   0  0  1  0  0  0
    1.2416   49.4966   23.6071 H   0  0  0  0  0  0
    0.5292   51.3859   23.2214 N   0  0  0  0  0  0
    0.7018   51.8610   24.5592 N   0  0  0  0  0  0
   -0.2606   51.0999   25.3346 C   0  0  1  0  0  0
   -1.1952   51.6614   25.3835 H   0  0  0  0  0  0
   -0.5351   49.8772   24.5735 N   0  0  0  0  0  0
   -0.5271   48.5960   25.2664 N   0  0  0  0  0  0
    0.2860   50.8966   27.0521 S   0  0  0  0  0  0
    0.1345   52.5623   27.7285 C   0  0  0  0  0  0
    1.3014   52.8016   28.6715 C   0  0  0  0  0  0
    1.1536   52.4533   30.0137 C   0  0  0  0  0  0
    2.2323   52.4966   30.8819 C   0  0  0  0  0  0
    3.4824   52.9004   30.4299 C   0  0  0  0  0  0
    3.6725   53.3120   29.0855 C   0  0  0  0  0  0
    2.5652   53.2684   28.1793 C   0  0  0  0  0  0
    2.7889   53.6734   26.8293 C   0  0  0  0  0  0
    4.0435   54.0970   26.4043 C   0  0  0  0  0  0
    5.1100   54.1366   27.2902 C   0  0  0  0  0  0
    4.9368   53.7546   28.6147 C   0  0  0  0  0  0
   -3.8633   52.9600   16.5905 H   0  0  0  0  0  0
   -1.3930   53.0471   16.5630 H   0  0  0  0  0  0
   -0.1009   51.8285   18.2582 H   0  0  0  0  0  0
   -3.7692   50.4471   20.0403 H   0  0  0  0  0  0
   -5.0460   51.6592   18.3282 H   0  0  0  0  0  0
   -2.4300   50.0856   22.0215 H   0  0  0  0  0  0
    1.3657   51.6083   22.6982 H   0  0  0  0  0  0
    1.5927   51.4695   24.8307 H   0  0  0  0  0  0
    0.3297   48.5361   25.8027 H   0  0  0  0  0  0
   -1.2936   48.6017   25.9317 H   0  0  0  0  0  0
   -0.8164   52.6578   28.2528 H   0  0  0  0  0  0
    0.0986   53.2965   26.9343 H   0  0  0  0  0  0
    0.2006   52.0965   30.3813 H   0  0  0  0  0  0
    2.0979   52.1994   31.9131 H   0  0  0  0  0  0
    4.3045   52.9183   31.1248 H   0  0  0  0  0  0
    1.9902   53.6567   26.1068 H   0  0  0  0  0  0
    4.1901   54.3950   25.3762 H   0  0  0  0  0  0
    6.0805   54.4653   26.9489 H   0  0  0  0  0  0
    5.7820   53.7952   29.2816 H   0  0  0  0  0  0
  1  6  2  0  0  0
  1  2  1  0  0  0
  1 33  1  0  0  0
  2  3  2  0  0  0
  2 34  1  0  0  0
  3  4  1  0  0  0
  3 35  1  0  0  0
  4  5  2  0  0  0
  4  7  1  0  0  0
  5  6  1  0  0  0
  5 36  1  0  0  0
  6 37  1  0  0  0
  7 12  1  0  0  0
  7  8  2  0  0  0
  8  9  1  0  0  0
  8 38  1  0  0  0
  9 10  1  0  0  0
  9 11  1  0  0  0
  9 13  1  0  0  0
 11 12  2  0  0  0
 13 14  1  0  0  0
 13 19  1  0  0  0
 13 15  1  0  0  0
 15 16  1  0  0  0
 15 39  1  0  0  0
 16 17  1  0  0  0
 16 40  1  0  0  0
 17 18  1  0  0  0
 17 19  1  0  0  0
 17 21  1  0  0  0
 19 20  1  0  0  0
 20 41  1  0  0  0
 20 42  1  0  0  0
 21 22  1  0  0  0
 22 23  1  0  0  0
 22 43  1  0  0  0
 22 44  1  0  0  0
 23 28  2  0  0  0
 23 24  1  0  0  0
 24 25  2  0  0  0
 24 45  1  0  0  0
 25 26  1  0  0  0
 25 46  1  0  0  0
 26 27  2  0  0  0
 26 47  1  0  0  0
 27 32  1  0  0  0
 27 28  1  0  0  0
 28 29  1  0  0  0
 29 30  2  0  0  0
 29 48  1  0  0  0
 30 31  1  0  0  0
 30 49  1  0  0  0
 31 32  2  0  0  0
 31 50  1  0  0  0
 32 51  1  0  0  0
M  END
> <i_i_glide_confnum>
15

> <i_i_glide_lignum>
2512

> <i_i_glide_posenum>
263

> <i_i_glide_rotatable_bonds>
5

> <i_m_Source_File_Index>
4216

> <b_m_subgroup_collapsed>
0

> <r_i_docking_score>
-4.26113

> <r_i_glide_ecoul>
-3.20315

> <r_i_glide_eff_state_penalty>
0

> <r_i_glide_einternal>
0.652459

> <r_i_glide_emodel>
-48.7035

> <r_i_glide_energy>
-37.685

> <r_i_glide_erotb>
0.605623

> <r_i_glide_esite>
-0.108824

> <r_i_glide_evdw>
-34.4818

> <r_i_glide_gscore>
-4.26113

> <r_i_glide_hbond>
0

> <r_i_glide_ligand_efficiency>
-0.146936

> <r_i_glide_ligand_efficiency_ln>
-0.975691

> <r_i_glide_ligand_efficiency_sa>
-0.451432

> <r_i_glide_lipo>
-1.7522

> <r_i_glide_metal>
0

> <r_i_glide_rewards>
-0.801169

> <s_i_glide_gridfile>
wee1_glide-grid

> <s_m_Source_File>
wee1_decoys_glide_SP.sdf

> <s_m_Source_Path>
/Users/zhangxujun/Desktop

> <s_m_entry_id>
4491

> <s_m_entry_name>
wee1_decoys_glide_SP.4216

> <s_m_subgroup_title>
wee1_decoys_glide_SP

> <s_m_subgroupid>
wee1_decoys_glide_SP


$$$$
