ZINC01003086_815
                    3D
 Schrodinger Suite 2024-2.
 63 66  0  0  1  0            999 V2000
    0.5084   49.8851   24.5010 C   0  0  0  0  0  0
    0.6928   51.3937   24.2922 C   0  0  0  0  0  0
    1.6846   51.6047   23.2947 O   0  0  0  0  0  0
    1.9966   52.8549   22.8674 C   0  0  0  0  0  0
    1.4277   53.8728   23.2696 O   0  0  0  0  0  0
    3.1238   52.8962   21.9067 C   0  0  0  0  0  0
    3.3366   51.9014   21.0109 C   0  0  0  0  0  0
    4.3051   51.9445   20.0799 O   0  0  0  0  0  0
    4.9997   53.0825   19.8443 C   0  0  0  0  0  0
    4.9899   54.1477   20.6858 C   0  0  0  0  0  0
    4.1191   54.0919   21.9842 C   0  0  2  0  0  0
    3.5662   55.0323   22.0559 H   0  0  0  0  0  0
    4.9005   54.1643   23.3155 C   0  0  0  0  0  0
    6.2766   53.9430   23.3610 C   0  0  0  0  0  0
    6.9875   54.0966   24.5379 C   0  0  0  0  0  0
    6.3480   54.3994   25.7336 C   0  0  0  0  0  0
    4.9614   54.5778   25.7185 C   0  0  0  0  0  0
    4.2595   54.4967   24.5153 C   0  0  0  0  0  0
    4.1936   54.8965   26.9756 C   0  0  0  0  0  0
    3.7803   53.6908   27.5858 O   0  0  0  0  0  0
    2.8691   53.7539   28.6147 C   0  0  0  0  0  0
    2.1915   54.9204   29.0188 C   0  0  0  0  0  0
    1.2343   54.8564   30.0228 C   0  0  0  0  0  0
    0.9696   53.6363   30.6394 C   0  0  0  0  0  0
    1.6835   52.4959   30.2865 C   0  0  0  0  0  0
    2.6211   52.5504   29.2668 C   0  0  0  0  0  0
   -0.0951   53.5255   31.6990 C   0  0  0  0  0  0
    7.1040   54.5945   26.8637 O   0  0  0  0  0  0
    7.1006   53.5165   27.7910 C   0  0  0  0  0  0
    5.9038   55.2968   20.4193 C   0  0  0  0  0  0
    6.1767   56.1354   21.2758 O   0  0  0  0  0  0
    6.7120   55.2799   19.1089 C   0  0  0  0  0  0
    6.0773   54.4080   18.0124 C   0  0  0  0  0  0
    5.7699   52.9934   18.5324 C   0  0  0  0  0  0
    2.6318   50.7470   20.7876 N   0  0  0  0  0  0
   -0.2336   49.6880   25.2740 H   0  0  0  0  0  0
    0.1719   49.4017   23.5842 H   0  0  0  0  0  0
    1.4377   49.4038   24.8079 H   0  0  0  0  0  0
    0.9975   51.8678   25.2261 H   0  0  0  0  0  0
   -0.2522   51.8463   23.9855 H   0  0  0  0  0  0
    6.8371   53.6961   22.4817 H   0  0  0  0  0  0
    8.0447   53.9675   24.4817 H   0  0  0  0  0  0
    3.2068   54.7146   24.5319 H   0  0  0  0  0  0
    4.8174   55.4576   27.6673 H   0  0  0  0  0  0
    3.3347   55.5020   26.6913 H   0  0  0  0  0  0
    2.3738   55.8771   28.5563 H   0  0  0  0  0  0
    0.6989   55.7491   30.3134 H   0  0  0  0  0  0
    1.4988   51.5652   30.7927 H   0  0  0  0  0  0
    3.1482   51.6590   28.9634 H   0  0  0  0  0  0
   -0.4856   54.4949   32.0040 H   0  0  0  0  0  0
   -0.8972   52.8985   31.3054 H   0  0  0  0  0  0
    0.3036   53.0334   32.5875 H   0  0  0  0  0  0
    7.7245   53.7759   28.6438 H   0  0  0  0  0  0
    6.1107   53.2908   28.1819 H   0  0  0  0  0  0
    7.5044   52.6078   27.3473 H   0  0  0  0  0  0
    6.8990   56.3007   18.7774 H   0  0  0  0  0  0
    7.6772   54.8442   19.3640 H   0  0  0  0  0  0
    5.1569   54.8808   17.6617 H   0  0  0  0  0  0
    6.7377   54.3484   17.1459 H   0  0  0  0  0  0
    5.1498   52.4979   17.7825 H   0  0  0  0  0  0
    6.6535   52.3640   18.6239 H   0  0  0  0  0  0
    1.8463   50.5033   21.3716 H   0  0  0  0  0  0
    2.8805   50.1365   20.0220 H   0  0  0  0  0  0
  1  2  1  0  0  0
  1 36  1  0  0  0
  1 37  1  0  0  0
  1 38  1  0  0  0
  2  3  1  0  0  0
  2 39  1  0  0  0
  2 40  1  0  0  0
  3  4  1  0  0  0
  4  5  2  0  0  0
  4  6  1  0  0  0
  6 11  1  0  0  0
  6  7  2  0  0  0
  7  8  1  0  0  0
  7 35  1  0  0  0
  8  9  1  0  0  0
  9 34  1  0  0  0
  9 10  2  0  0  0
 10 11  1  0  0  0
 10 30  1  0  0  0
 11 12  1  0  0  0
 11 13  1  0  0  0
 13 18  2  0  0  0
 13 14  1  0  0  0
 14 15  2  0  0  0
 14 41  1  0  0  0
 15 16  1  0  0  0
 15 42  1  0  0  0
 16 17  2  0  0  0
 16 28  1  0  0  0
 17 18  1  0  0  0
 17 19  1  0  0  0
 18 43  1  0  0  0
 19 20  1  0  0  0
 19 44  1  0  0  0
 19 45  1  0  0  0
 20 21  1  0  0  0
 21 26  2  0  0  0
 21 22  1  0  0  0
 22 23  2  0  0  0
 22 46  1  0  0  0
 23 24  1  0  0  0
 23 47  1  0  0  0
 24 25  2  0  0  0
 24 27  1  0  0  0
 25 26  1  0  0  0
 25 48  1  0  0  0
 26 49  1  0  0  0
 27 50  1  0  0  0
 27 51  1  0  0  0
 27 52  1  0  0  0
 28 29  1  0  0  0
 29 53  1  0  0  0
 29 54  1  0  0  0
 29 55  1  0  0  0
 30 31  2  0  0  0
 30 32  1  0  0  0
 32 33  1  0  0  0
 32 56  1  0  0  0
 32 57  1  0  0  0
 33 34  1  0  0  0
 33 58  1  0  0  0
 33 59  1  0  0  0
 34 60  1  0  0  0
 34 61  1  0  0  0
 35 62  1  0  0  0
 35 63  1  0  0  0
M  END
> <i_i_glide_confnum>
3

> <i_i_glide_lignum>
816

> <i_i_glide_posenum>
76

> <i_i_glide_rotatable_bonds>
8

> <i_m_Source_File_Index>
3047

> <b_m_subgroup_collapsed>
0

> <r_i_docking_score>
-6.61696

> <r_i_glide_ecoul>
-4.10797

> <r_i_glide_eff_state_penalty>
0

> <r_i_glide_einternal>
19.14

> <r_i_glide_emodel>
-61.3941

> <r_i_glide_energy>
-51.4368

> <r_i_glide_erotb>
0.562776

> <r_i_glide_esite>
0

> <r_i_glide_evdw>
-47.3288

> <r_i_glide_gscore>
-6.61696

> <r_i_glide_hbond>
-0.250153

> <r_i_glide_ligand_efficiency>
-0.194616

> <r_i_glide_ligand_efficiency_ln>
-1.46187

> <r_i_glide_ligand_efficiency_sa>
-0.630482

> <r_i_glide_lipo>
-3.3136

> <r_i_glide_metal>
0

> <r_i_glide_rewards>
-0.633343

> <s_i_glide_gridfile>
wee1_glide-grid

> <s_m_Source_File>
wee1_decoys_glide_SP.sdf

> <s_m_Source_Path>
/Users/zhangxujun/Desktop

> <s_m_entry_id>
3322

> <s_m_entry_name>
wee1_decoys_glide_SP.3047

> <s_m_subgroup_title>
wee1_decoys_glide_SP

> <s_m_subgroupid>
wee1_decoys_glide_SP


$$$$
