ZINC09312774_4256
                    3D
 Schrodinger Suite 2024-2.
 54 57  0  0  1  0            999 V2000
    5.7000   54.7685   24.4063 C   0  0  0  0  0  0
    4.4268   54.2480   25.0755 C   0  0  0  0  0  0
    4.2533   53.8815   26.3824 C   0  0  0  0  0  0
    2.9027   53.2521   26.8963 C   0  0  2  0  0  0
    3.2161   52.2671   27.2124 H   0  0  0  0  0  0
    1.9037   53.0963   25.7254 C   0  0  0  0  0  0
    2.1989   53.5006   24.4714 C   0  0  0  0  0  0
    3.4116   54.0627   24.1667 N   0  0  0  0  0  0
    1.1044   53.3943   23.0714 S   0  0  0  0  0  0
    2.1045   52.5634   21.7938 C   0  0  0  0  0  0
    1.2833   52.0970   20.5850 C   0  0  0  0  0  0
    0.0939   51.8059   20.7272 O   0  0  0  0  0  0
    1.9609   52.0399   19.4189 N   0  0  0  0  0  0
    1.4777   51.7096   18.1643 C   0  0  0  0  0  0
    2.3018   51.7015   17.1589 N   0  0  0  0  0  0
    1.6791   51.3550   16.0017 C   0  0  0  0  0  0
    2.3108   51.2489   14.7542 C   0  0  0  0  0  0
    1.5393   50.8905   13.6471 C   0  0  0  0  0  0
    0.1709   50.6463   13.7687 C   0  0  0  0  0  0
   -0.4821   50.7461   14.9986 C   0  0  0  0  0  0
    0.2849   51.1017   16.1166 C   0  0  0  0  0  0
   -0.1990   51.3114   17.7928 S   0  0  0  0  0  0
    0.6208   52.5142   25.9631 C   0  0  0  0  0  0
   -0.4426   52.0852   26.1115 N   0  0  0  0  0  0
    2.2491   53.8363   28.1775 C   0  0  0  0  0  0
    2.4745   55.1857   28.4385 C   0  0  0  0  0  0
    1.9163   55.8466   29.5271 C   0  0  0  0  0  0
    1.1037   55.1394   30.4001 C   0  0  0  0  0  0
    0.8449   53.7909   30.1681 C   0  0  0  0  0  0
    1.4049   53.1202   29.0658 C   0  0  0  0  0  0
    1.0493   51.6964   28.8826 N   0  3  0  0  0  0
   -0.0904   51.3563   29.1800 O   0  0  0  0  0  0
    1.9029   50.9152   28.4818 O   0  5  0  0  0  0
    5.3601   54.0480   27.3617 C   0  0  0  0  0  0
    6.2733   54.8617   27.2187 O   0  0  0  0  0  0
    5.3960   53.1878   28.6197 C   0  0  0  0  0  0
    6.5917   54.2949   24.8145 H   0  0  0  0  0  0
    5.7180   54.5632   23.3349 H   0  0  0  0  0  0
    5.7930   55.8446   24.5453 H   0  0  0  0  0  0
    3.5412   54.4201   23.2319 H   0  0  0  0  0  0
    2.8889   53.2465   21.4676 H   0  0  0  0  0  0
    2.5796   51.6851   22.2329 H   0  0  0  0  0  0
    2.9469   52.2532   19.4333 H   0  0  0  0  0  0
    3.3739   51.4212   14.6628 H   0  0  0  0  0  0
    2.0091   50.7980   12.6774 H   0  0  0  0  0  0
   -0.3936   50.3728   12.8881 H   0  0  0  0  0  0
   -1.5427   50.5570   15.0850 H   0  0  0  0  0  0
    3.1096   55.6967   27.7512 H   0  0  0  0  0  0
    2.1211   56.8951   29.6952 H   0  0  0  0  0  0
    0.6762   55.6348   31.2588 H   0  0  0  0  0  0
    0.2002   53.2607   30.8576 H   0  0  0  0  0  0
    5.2488   52.1362   28.3786 H   0  0  0  0  0  0
    6.3719   53.2964   29.0929 H   0  0  0  0  0  0
    4.6333   53.4990   29.3317 H   0  0  0  0  0  0
  1  2  1  0  0  0
  1 37  1  0  0  0
  1 38  1  0  0  0
  1 39  1  0  0  0
  2  8  1  0  0  0
  2  3  2  0  0  0
  3  4  1  0  0  0
  3 34  1  0  0  0
  4  5  1  0  0  0
  4  6  1  0  0  0
  4 25  1  0  0  0
  6  7  2  0  0  0
  6 23  1  0  0  0
  7  8  1  0  0  0
  7  9  1  0  0  0
  8 40  1  0  0  0
  9 10  1  0  0  0
 10 11  1  0  0  0
 10 41  1  0  0  0
 10 42  1  0  0  0
 11 12  2  0  0  0
 11 13  1  0  0  0
 13 14  1  0  0  0
 13 43  1  0  0  0
 14 22  1  0  0  0
 14 15  2  0  0  0
 15 16  1  0  0  0
 16 21  2  0  0  0
 16 17  1  0  0  0
 17 18  2  0  0  0
 17 44  1  0  0  0
 18 19  1  0  0  0
 18 45  1  0  0  0
 19 20  2  0  0  0
 19 46  1  0  0  0
 20 21  1  0  0  0
 20 47  1  0  0  0
 21 22  1  0  0  0
 23 24  3  0  0  0
 25 30  2  0  0  0
 25 26  1  0  0  0
 26 27  2  0  0  0
 26 48  1  0  0  0
 27 28  1  0  0  0
 27 49  1  0  0  0
 28 29  2  0  0  0
 28 50  1  0  0  0
 29 30  1  0  0  0
 29 51  1  0  0  0
 30 31  1  0  0  0
 31 32  2  0  0  0
 31 33  1  0  0  0
 34 35  2  0  0  0
 34 36  1  0  0  0
 36 52  1  0  0  0
 36 53  1  0  0  0
 36 54  1  0  0  0
M  CHG  2  31   1  33  -1
M  END
> <i_i_glide_confnum>
10

> <i_i_glide_lignum>
4257

> <i_i_glide_posenum>
275

> <i_i_glide_rotatable_bonds>
9

> <i_m_Source_File_Index>
5036

> <b_m_subgroup_collapsed>
0

> <r_i_docking_score>
-5.98555

> <r_i_glide_ecoul>
-2.2972

> <r_i_glide_eff_state_penalty>
0

> <r_i_glide_einternal>
8.25435

> <r_i_glide_emodel>
-60.9704

> <r_i_glide_energy>
-46.0221

> <r_i_glide_erotb>
0.400119

> <r_i_glide_esite>
-0.0755266

> <r_i_glide_evdw>
-43.7249

> <r_i_glide_gscore>
-5.98555

> <r_i_glide_hbond>
0

> <r_i_glide_ligand_efficiency>
-0.171016

> <r_i_glide_ligand_efficiency_ln>
-1.31396

> <r_i_glide_ligand_efficiency_sa>
-0.559404

> <r_i_glide_lipo>
-3.05243

> <r_i_glide_metal>
0

> <r_i_glide_rewards>
-0.726885

> <s_i_glide_gridfile>
wee1_glide-grid

> <s_m_Source_File>
wee1_decoys_glide_SP.sdf

> <s_m_Source_Path>
/Users/zhangxujun/Desktop

> <s_m_entry_id>
5311

> <s_m_entry_name>
wee1_decoys_glide_SP.5036

> <s_m_subgroup_title>
wee1_decoys_glide_SP

> <s_m_subgroupid>
wee1_decoys_glide_SP


$$$$
