ZINC44714599_405
                    3D
 Schrodinger Suite 2024-2.
 79 83  0  0  1  0            999 V2000
    1.0471   48.8082   16.6724 C   0  0  0  0  0  0
   -0.1851   49.2421   17.4246 C   0  0  0  0  0  0
   -0.3426   50.3092   18.3045 C   0  0  0  0  0  0
   -1.6609   50.2723   18.7379 C   0  0  0  0  0  0
   -2.2249   49.1825   18.0852 N   0  0  0  0  0  0
   -1.3039   48.5660   17.3117 N   0  0  0  0  0  0
   -3.6030   48.5923   18.1799 C   0  0  0  0  0  0
   -3.6729   47.7070   19.4433 C   0  0  0  0  0  0
   -3.9223   47.7148   16.9342 C   0  0  0  0  0  0
   -4.6866   49.7009   18.2324 C   0  0  0  0  0  0
   -2.2580   51.0943   19.7531 C   0  0  0  0  0  0
   -2.8966   52.0966   19.4301 O   0  0  0  0  0  0
   -2.0697   50.7056   21.0381 N   0  0  0  0  0  0
   -2.4951   51.5514   22.1617 C   0  0  0  0  0  0
   -1.4627   51.2319   23.2597 C   0  0  1  0  0  0
   -1.8988   51.3745   24.2459 H   0  0  0  0  0  0
   -1.1223   49.7258   23.0094 C   0  0  0  0  0  0
   -1.1419   49.6443   21.4686 C   0  0  0  0  0  0
   -2.2390   48.7599   23.5179 C   0  0  0  0  0  0
   -2.3855   48.7814   25.0544 C   0  0  0  0  0  0
   -1.0229   48.4154   25.6816 N   0  3  0  0  0  0
    0.1812   49.2257   25.1554 C   0  0  0  0  0  0
    0.1834   49.1377   23.6164 C   0  0  0  0  0  0
   -0.2250   52.1601   23.1295 C   0  0  0  0  0  0
    0.3015   52.3492   22.0328 O   0  0  0  0  0  0
    0.1747   52.8060   24.2370 N   0  0  0  0  0  0
    1.3128   53.7260   24.3038 C   0  0  0  0  0  0
    2.6564   53.0467   23.9822 C   0  0  0  0  0  0
    3.8692   53.7873   24.5039 C   0  0  0  0  0  0
    4.8959   54.3689   23.7737 C   0  0  0  0  0  0
    5.8473   54.8410   24.6463 N   0  0  0  0  0  0
    6.6916   55.2880   24.3213 H   0  0  0  0  0  0
    5.4947   54.5626   25.9475 C   0  0  0  0  0  0
    4.2355   53.9030   25.8885 C   0  0  0  0  0  0
    3.6410   53.4663   27.0830 C   0  0  0  0  0  0
    4.3151   53.6576   28.2884 C   0  0  0  0  0  0
    5.5327   54.3347   28.3177 C   0  0  0  0  0  0
    6.1518   54.8002   27.1579 C   0  0  0  0  0  0
    3.7623   53.0976   29.5118 C   0  0  0  0  0  0
    3.3243   52.6450   30.4818 N   0  0  0  0  0  0
    5.0963   54.4966   22.2803 C   0  0  0  0  0  0
    1.9038   49.4392   16.9086 H   0  0  0  0  0  0
    1.3339   47.7837   16.9111 H   0  0  0  0  0  0
    0.9024   48.8624   15.5938 H   0  0  0  0  0  0
    0.4260   51.0089   18.6056 H   0  0  0  0  0  0
   -4.6434   47.2144   19.5298 H   0  0  0  0  0  0
   -3.5299   48.2903   20.3526 H   0  0  0  0  0  0
   -2.9088   46.9268   19.4282 H   0  0  0  0  0  0
   -3.8295   48.2836   16.0075 H   0  0  0  0  0  0
   -3.2565   46.8542   16.8550 H   0  0  0  0  0  0
   -4.9372   47.3179   16.9673 H   0  0  0  0  0  0
   -4.5115   50.4710   17.4779 H   0  0  0  0  0  0
   -5.6843   49.2965   18.0507 H   0  0  0  0  0  0
   -4.7399   50.1896   19.2053 H   0  0  0  0  0  0
   -2.5009   52.6233   21.9624 H   0  0  0  0  0  0
   -3.4665   51.2304   22.5390 H   0  0  0  0  0  0
   -1.3127   48.6461   21.0654 H   0  0  0  0  0  0
   -0.1460   49.9286   21.1245 H   0  0  0  0  0  0
   -3.2032   49.0293   23.0837 H   0  0  0  0  0  0
   -2.0624   47.7393   23.1715 H   0  0  0  0  0  0
   -2.6659   49.7512   25.4658 H   0  0  0  0  0  0
   -3.0963   48.0385   25.4207 H   0  0  0  0  0  0
   -1.0976   48.4978   26.7008 H   0  0  0  0  0  0
    0.0669   50.2414   25.5341 H   0  0  0  0  0  0
    1.0702   48.7751   25.6032 H   0  0  0  0  0  0
    0.3271   48.1026   23.3012 H   0  0  0  0  0  0
    1.0556   49.6738   23.2399 H   0  0  0  0  0  0
   -0.3415   52.6664   25.0922 H   0  0  0  0  0  0
    1.1566   54.5966   23.6651 H   0  0  0  0  0  0
    1.3354   54.0977   25.3255 H   0  0  0  0  0  0
    2.6551   52.0484   24.4111 H   0  0  0  0  0  0
    2.7350   52.8979   22.9045 H   0  0  0  0  0  0
    2.7047   52.9308   27.0556 H   0  0  0  0  0  0
    6.0374   54.4963   29.2575 H   0  0  0  0  0  0
    7.1046   55.2969   27.2126 H   0  0  0  0  0  0
    4.1786   54.8164   21.7848 H   0  0  0  0  0  0
    5.8692   55.2194   22.0158 H   0  0  0  0  0  0
    5.3769   53.5397   21.8366 H   0  0  0  0  0  0
   -0.8320   47.4348   25.5276 H   0  0  0  0  0  0
  1  2  1  0  0  0
  1 42  1  0  0  0
  1 43  1  0  0  0
  1 44  1  0  0  0
  2  6  2  0  0  0
  2  3  1  0  0  0
  3  4  2  0  0  0
  3 45  1  0  0  0
  4  5  1  0  0  0
  4 11  1  0  0  0
  5  6  1  0  0  0
  5  7  1  0  0  0
  7  8  1  0  0  0
  7  9  1  0  0  0
  7 10  1  0  0  0
  8 46  1  0  0  0
  8 47  1  0  0  0
  8 48  1  0  0  0
  9 49  1  0  0  0
  9 50  1  0  0  0
  9 51  1  0  0  0
 10 52  1  0  0  0
 10 53  1  0  0  0
 10 54  1  0  0  0
 11 12  2  0  0  0
 11 13  1  0  0  0
 13 18  1  0  0  0
 13 14  1  0  0  0
 14 15  1  0  0  0
 14 55  1  0  0  0
 14 56  1  0  0  0
 15 16  1  0  0  0
 15 17  1  0  0  0
 15 24  1  0  0  0
 17 23  1  0  0  0
 17 18  1  0  0  0
 17 19  1  0  0  0
 18 57  1  0  0  0
 18 58  1  0  0  0
 19 20  1  0  0  0
 19 59  1  0  0  0
 19 60  1  0  0  0
 20 21  1  0  0  0
 20 61  1  0  0  0
 20 62  1  0  0  0
 21 22  1  0  0  0
 21 63  1  0  0  0
 21 79  1  0  0  0
 22 23  1  0  0  0
 22 64  1  0  0  0
 22 65  1  0  0  0
 23 66  1  0  0  0
 23 67  1  0  0  0
 24 25  2  0  0  0
 24 26  1  0  0  0
 26 27  1  0  0  0
 26 68  1  0  0  0
 27 28  1  0  0  0
 27 69  1  0  0  0
 27 70  1  0  0  0
 28 29  1  0  0  0
 28 71  1  0  0  0
 28 72  1  0  0  0
 29 34  1  0  0  0
 29 30  2  0  0  0
 30 31  1  0  0  0
 30 41  1  0  0  0
 31 32  1  0  0  0
 31 33  1  0  0  0
 33 38  2  0  0  0
 33 34  1  0  0  0
 34 35  2  0  0  0
 35 36  1  0  0  0
 35 73  1  0  0  0
 36 37  2  0  0  0
 36 39  1  0  0  0
 37 38  1  0  0  0
 37 74  1  0  0  0
 38 75  1  0  0  0
 39 40  3  0  0  0
 41 76  1  0  0  0
 41 77  1  0  0  0
 41 78  1  0  0  0
M  CHG  1  21   1
M  END
> <i_i_glide_confnum>
18

> <i_i_glide_lignum>
406

> <i_i_glide_posenum>
141

> <i_i_glide_rotatable_bonds>
9

> <i_m_Source_File_Index>
379

> <b_m_subgroup_collapsed>
0

> <r_i_docking_score>
-6.48467

> <r_i_glide_ecoul>
-10.3246

> <r_i_glide_eff_state_penalty>
0

> <r_i_glide_einternal>
3.77339

> <r_i_glide_emodel>
-68.4928

> <r_i_glide_energy>
-48.7905

> <r_i_glide_erotb>
0.512408

> <r_i_glide_esite>
-0.111404

> <r_i_glide_evdw>
-38.4659

> <r_i_glide_gscore>
-6.48467

> <r_i_glide_hbond>
-0.639156

> <r_i_glide_ligand_efficiency>
-0.166274

> <r_i_glide_ligand_efficiency_ln>
-1.3905

> <r_i_glide_ligand_efficiency_sa>
-0.563869

> <r_i_glide_lipo>
-2.4759

> <r_i_glide_metal>
0

> <r_i_glide_rewards>
-0.298643

> <s_i_glide_gridfile>
wee1_glide-grid

> <s_m_Source_File>
wee1_decoys_glide_SP.sdf

> <s_m_Source_Path>
/Users/zhangxujun/Desktop

> <s_m_entry_id>
654

> <s_m_entry_name>
wee1_decoys_glide_SP.379

> <s_m_subgroup_title>
wee1_decoys_glide_SP

> <s_m_subgroupid>
wee1_decoys_glide_SP


$$$$
