ZINC38686878_6011
                    3D
 Schrodinger Suite 2024-2.
 58 62  0  0  1  0            999 V2000
    6.3033   53.4078   17.2472 C   0  0  0  0  0  0
    7.1049   54.3164   16.5637 C   0  0  0  0  0  0
    7.5335   55.4778   17.2031 C   0  0  0  0  0  0
    7.1636   55.7364   18.5225 C   0  0  0  0  0  0
    6.3528   54.8267   19.2292 C   0  0  0  0  0  0
    5.9247   53.6625   18.5631 C   0  0  0  0  0  0
    5.9727   55.0823   20.6616 C   0  0  0  0  0  0
    6.3082   56.0972   21.2804 O   0  0  0  0  0  0
    5.2264   54.0624   21.2057 O   0  0  0  0  0  0
    4.7947   54.1175   22.5125 C   0  0  0  0  0  0
    3.4264   54.1833   22.7649 C   0  0  0  0  0  0
    2.9570   54.2630   24.0727 C   0  0  0  0  0  0
    3.8258   54.2190   25.1744 C   0  0  0  0  0  0
    5.2076   54.1457   24.8972 C   0  0  0  0  0  0
    5.6870   54.0963   23.5899 C   0  0  0  0  0  0
    6.1646   54.0979   25.8910 O   0  0  0  0  0  0
    5.7649   53.9170   27.1719 C   0  0  0  0  0  0
    4.4884   53.9246   27.5962 C   0  0  0  0  0  0
    3.3329   54.2500   26.6426 C   0  0  2  0  0  0
    3.1041   55.2974   26.8297 H   0  0  0  0  0  0
    2.0123   53.5206   26.9695 C   0  0  0  0  0  0
    1.2837   53.8741   28.1129 C   0  0  0  0  0  0
    0.1298   53.1801   28.4700 C   0  0  0  0  0  0
   -0.3448   52.1525   27.6565 C   0  0  0  0  0  0
    0.3254   51.8239   26.4707 C   0  0  0  0  0  0
    1.5043   52.4966   26.1604 C   0  0  0  0  0  0
   -0.0900   50.8728   25.5568 O   0  0  0  0  0  0
   -1.3760   50.2592   25.6751 C   0  0  0  0  0  0
   -2.5178   51.2669   25.5276 C   0  0  0  0  0  0
   -2.4513   52.2647   24.5514 C   0  0  0  0  0  0
   -3.4651   53.2136   24.4551 C   0  0  0  0  0  0
   -4.5460   53.1599   25.3310 C   0  0  0  0  0  0
   -4.6303   52.1543   26.2924 C   0  0  0  0  0  0
   -3.6166   51.2038   26.3882 C   0  0  0  0  0  0
   -5.5208   54.0928   25.2455 F   0  0  0  0  0  0
    4.1947   53.7059   28.9744 C   0  0  0  0  0  0
    3.9043   53.5509   30.0825 N   0  0  0  0  0  0
    6.8789   53.6969   27.9319 N   0  0  0  0  0  0
    7.6136   56.8810   19.0884 F   0  0  0  0  0  0
    5.9721   52.4991   16.7644 H   0  0  0  0  0  0
    7.3981   54.1175   15.5427 H   0  0  0  0  0  0
    8.1547   56.1817   16.6740 H   0  0  0  0  0  0
    5.3038   52.9232   19.0503 H   0  0  0  0  0  0
    2.7303   54.2028   21.9403 H   0  0  0  0  0  0
    1.8934   54.3497   24.2303 H   0  0  0  0  0  0
    6.7485   54.0405   23.4089 H   0  0  0  0  0  0
    1.6320   54.6698   28.7550 H   0  0  0  0  0  0
   -0.3995   53.4355   29.3759 H   0  0  0  0  0  0
   -1.2410   51.6296   27.9515 H   0  0  0  0  0  0
    2.0332   52.1831   25.2762 H   0  0  0  0  0  0
   -1.4379   49.6989   26.6070 H   0  0  0  0  0  0
   -1.4717   49.5193   24.8810 H   0  0  0  0  0  0
   -1.6019   52.3152   23.8848 H   0  0  0  0  0  0
   -3.4101   53.9930   23.7113 H   0  0  0  0  0  0
   -5.4729   52.1164   26.9650 H   0  0  0  0  0  0
   -3.6732   50.4304   27.1414 H   0  0  0  0  0  0
    6.8324   53.7423   28.9390 H   0  0  0  0  0  0
    7.7132   53.3113   27.5185 H   0  0  0  0  0  0
  1  6  2  0  0  0
  1  2  1  0  0  0
  1 40  1  0  0  0
  2  3  2  0  0  0
  2 41  1  0  0  0
  3  4  1  0  0  0
  3 42  1  0  0  0
  4  5  2  0  0  0
  4 39  1  0  0  0
  5  6  1  0  0  0
  5  7  1  0  0  0
  6 43  1  0  0  0
  7  8  2  0  0  0
  7  9  1  0  0  0
  9 10  1  0  0  0
 10 15  2  0  0  0
 10 11  1  0  0  0
 11 12  2  0  0  0
 11 44  1  0  0  0
 12 13  1  0  0  0
 12 45  1  0  0  0
 13 19  1  0  0  0
 13 14  2  0  0  0
 14 15  1  0  0  0
 14 16  1  0  0  0
 15 46  1  0  0  0
 16 17  1  0  0  0
 17 18  2  0  0  0
 17 38  1  0  0  0
 18 19  1  0  0  0
 18 36  1  0  0  0
 19 20  1  0  0  0
 19 21  1  0  0  0
 21 26  2  0  0  0
 21 22  1  0  0  0
 22 23  2  0  0  0
 22 47  1  0  0  0
 23 24  1  0  0  0
 23 48  1  0  0  0
 24 25  2  0  0  0
 24 49  1  0  0  0
 25 26  1  0  0  0
 25 27  1  0  0  0
 26 50  1  0  0  0
 27 28  1  0  0  0
 28 29  1  0  0  0
 28 51  1  0  0  0
 28 52  1  0  0  0
 29 34  2  0  0  0
 29 30  1  0  0  0
 30 31  2  0  0  0
 30 53  1  0  0  0
 31 32  1  0  0  0
 31 54  1  0  0  0
 32 33  2  0  0  0
 32 35  1  0  0  0
 33 34  1  0  0  0
 33 55  1  0  0  0
 34 56  1  0  0  0
 36 37  3  0  0  0
 38 57  1  0  0  0
 38 58  1  0  0  0
M  END
> <i_i_glide_confnum>
40

> <i_i_glide_lignum>
6012

> <i_i_glide_posenum>
305

> <i_i_glide_rotatable_bonds>
8

> <i_m_Source_File_Index>
3990

> <b_m_subgroup_collapsed>
0

> <r_i_docking_score>
-5.75083

> <r_i_glide_ecoul>
-6.87154

> <r_i_glide_eff_state_penalty>
0

> <r_i_glide_einternal>
3.85296

> <r_i_glide_emodel>
-71.1925

> <r_i_glide_energy>
-57.1758

> <r_i_glide_erotb>
0.550303

> <r_i_glide_esite>
-0.020919

> <r_i_glide_evdw>
-50.3042

> <r_i_glide_gscore>
-5.75083

> <r_i_glide_hbond>
-0.240599

> <r_i_glide_ligand_efficiency>
-0.151338

> <r_i_glide_ligand_efficiency_ln>
-1.24005

> <r_i_glide_ligand_efficiency_sa>
-0.508793

> <r_i_glide_lipo>
-3.23153

> <r_i_glide_metal>
0

> <r_i_glide_rewards>
0.737854

> <s_i_glide_gridfile>
wee1_glide-grid

> <s_m_Source_File>
wee1_decoys_glide_SP.sdf

> <s_m_Source_Path>
/Users/zhangxujun/Desktop

> <s_m_entry_id>
4265

> <s_m_entry_name>
wee1_decoys_glide_SP.3990

> <s_m_subgroup_title>
wee1_decoys_glide_SP

> <s_m_subgroupid>
wee1_decoys_glide_SP


$$$$
