ZINC13565560_5481
                    3D
 Schrodinger Suite 2024-2.
 63 65  0  0  1  0            999 V2000
   -4.3410   50.3296   28.1633 C   0  0  0  0  0  0
   -3.9962   50.9989   26.8474 C   0  0  0  0  0  0
   -4.5841   52.2158   26.4944 C   0  0  0  0  0  0
   -4.2324   52.8452   25.3003 C   0  0  0  0  0  0
   -3.2860   52.2614   24.4581 C   0  0  0  0  0  0
   -2.6865   51.0414   24.7987 C   0  0  0  0  0  0
   -3.0634   50.4083   25.9908 C   0  0  0  0  0  0
   -1.6316   50.4346   23.8672 C   0  0  0  0  0  0
   -0.3518   49.8618   24.5586 C   0  0  2  0  0  0
   -0.6570   48.9678   25.1077 H   0  0  0  0  0  0
    0.2573   50.8308   25.5934 C   0  0  0  0  0  0
    0.9018   51.8068   25.2142 O   0  0  0  0  0  0
   -0.0047   50.5521   26.8817 N   0  0  0  0  0  0
    0.4390   51.3327   28.0341 C   0  0  0  0  0  0
    1.9672   51.2715   28.2678 C   0  0  0  0  0  0
    2.3973   52.0609   29.5038 C   0  0  0  0  0  0
    1.9534   53.4479   29.3320 N   0  0  0  0  0  0
    0.4931   53.6542   29.2041 C   0  0  0  0  0  0
   -0.1004   52.7926   28.0676 C   0  0  0  0  0  0
    3.1357   54.7000   28.9337 S   0  0  0  0  0  0
    2.4211   55.9798   28.8829 O   0  0  0  0  0  0
    4.2687   54.4966   29.8425 O   0  0  0  0  0  0
    3.7765   54.3825   27.2727 C   0  0  0  0  0  0
    2.9185   54.0968   26.2128 C   0  0  0  0  0  0
    3.4084   53.9833   24.9139 C   0  0  0  0  0  0
    4.7750   54.1424   24.6607 C   0  0  0  0  0  0
    5.6440   54.3865   25.7309 C   0  0  0  0  0  0
    5.1495   54.4985   27.0290 C   0  0  0  0  0  0
    5.3025   54.1203   23.2195 C   0  0  0  0  0  0
    4.3656   54.4945   22.3488 F   0  0  0  0  0  0
    6.3407   54.9456   23.0818 F   0  0  0  0  0  0
    5.7079   52.8984   22.8818 F   0  0  0  0  0  0
    0.6767   49.3806   23.6190 N   0  0  0  0  0  0
    1.2181   50.0367   22.5740 C   0  0  0  0  0  0
    0.8861   51.1647   22.2128 O   0  0  0  0  0  0
    2.3088   49.3035   21.8026 C   0  0  0  0  0  0
   -3.4267   50.0539   28.6933 H   0  0  0  0  0  0
   -4.9094   50.9868   28.8227 H   0  0  0  0  0  0
   -4.9095   49.4166   27.9911 H   0  0  0  0  0  0
   -5.3086   52.6778   27.1452 H   0  0  0  0  0  0
   -4.6867   53.7886   25.0339 H   0  0  0  0  0  0
   -3.0131   52.7685   23.5443 H   0  0  0  0  0  0
   -2.6134   49.4679   26.2745 H   0  0  0  0  0  0
   -2.1082   49.6579   23.2715 H   0  0  0  0  0  0
   -1.3426   51.2128   23.1620 H   0  0  0  0  0  0
   -0.5426   49.7203   27.1054 H   0  0  0  0  0  0
   -0.0399   50.8268   28.8761 H   0  0  0  0  0  0
    2.3000   50.2424   28.3568 H   0  0  0  0  0  0
    2.4798   51.6948   27.4036 H   0  0  0  0  0  0
    1.9609   51.6746   30.4225 H   0  0  0  0  0  0
    3.4829   52.0418   29.6052 H   0  0  0  0  0  0
    0.0325   53.4235   30.1670 H   0  0  0  0  0  0
    0.3043   54.7095   29.0145 H   0  0  0  0  0  0
    0.0869   53.2960   27.1250 H   0  0  0  0  0  0
   -1.1846   52.7538   28.1344 H   0  0  0  0  0  0
    1.8608   54.0131   26.3763 H   0  0  0  0  0  0
    2.7156   53.7879   24.1061 H   0  0  0  0  0  0
    6.7020   54.5089   25.5580 H   0  0  0  0  0  0
    5.8316   54.7201   27.8414 H   0  0  0  0  0  0
    1.0724   48.4832   23.8637 H   0  0  0  0  0  0
    1.8744   48.5414   21.1561 H   0  0  0  0  0  0
    2.8664   50.0027   21.1776 H   0  0  0  0  0  0
    3.0156   48.8283   22.4822 H   0  0  0  0  0  0
  1  2  1  0  0  0
  1 37  1  0  0  0
  1 38  1  0  0  0
  1 39  1  0  0  0
  2  7  2  0  0  0
  2  3  1  0  0  0
  3  4  2  0  0  0
  3 40  1  0  0  0
  4  5  1  0  0  0
  4 41  1  0  0  0
  5  6  2  0  0  0
  5 42  1  0  0  0
  6  7  1  0  0  0
  6  8  1  0  0  0
  7 43  1  0  0  0
  8  9  1  0  0  0
  8 44  1  0  0  0
  8 45  1  0  0  0
  9 10  1  0  0  0
  9 11  1  0  0  0
  9 33  1  0  0  0
 11 12  2  0  0  0
 11 13  1  0  0  0
 13 14  1  0  0  0
 13 46  1  0  0  0
 14 19  1  0  0  0
 14 15  1  0  0  0
 14 47  1  0  0  0
 15 16  1  0  0  0
 15 48  1  0  0  0
 15 49  1  0  0  0
 16 17  1  0  0  0
 16 50  1  0  0  0
 16 51  1  0  0  0
 17 18  1  0  0  0
 17 20  1  0  0  0
 18 19  1  0  0  0
 18 52  1  0  0  0
 18 53  1  0  0  0
 19 54  1  0  0  0
 19 55  1  0  0  0
 20 21  2  0  0  0
 20 22  2  0  0  0
 20 23  1  0  0  0
 23 28  2  0  0  0
 23 24  1  0  0  0
 24 25  2  0  0  0
 24 56  1  0  0  0
 25 26  1  0  0  0
 25 57  1  0  0  0
 26 27  2  0  0  0
 26 29  1  0  0  0
 27 28  1  0  0  0
 27 58  1  0  0  0
 28 59  1  0  0  0
 29 30  1  0  0  0
 29 31  1  0  0  0
 29 32  1  0  0  0
 33 34  1  0  0  0
 33 60  1  0  0  0
 34 35  2  0  0  0
 34 36  1  0  0  0
 36 61  1  0  0  0
 36 62  1  0  0  0
 36 63  1  0  0  0
M  END
> <i_i_glide_confnum>
169

> <i_i_glide_lignum>
5482

> <i_i_glide_posenum>
200

> <i_i_glide_rotatable_bonds>
10

> <i_m_Source_File_Index>
3012

> <b_m_subgroup_collapsed>
0

> <r_i_docking_score>
-5.72608

> <r_i_glide_ecoul>
-3.91373

> <r_i_glide_eff_state_penalty>
0

> <r_i_glide_einternal>
4.64458

> <r_i_glide_emodel>
-61.8197

> <r_i_glide_energy>
-47.048

> <r_i_glide_erotb>
0.626503

> <r_i_glide_esite>
-0.0924976

> <r_i_glide_evdw>
-43.1343

> <r_i_glide_gscore>
-5.72608

> <r_i_glide_hbond>
-0.300979

> <r_i_glide_ligand_efficiency>
-0.163602

> <r_i_glide_ligand_efficiency_ln>
-1.257

> <r_i_glide_ligand_efficiency_sa>
-0.535154

> <r_i_glide_lipo>
-2.53059

> <r_i_glide_metal>
0

> <r_i_glide_rewards>
-0.684748

> <s_i_glide_gridfile>
wee1_glide-grid

> <s_m_Source_File>
wee1_decoys_glide_SP.sdf

> <s_m_Source_Path>
/Users/zhangxujun/Desktop

> <s_m_entry_id>
3287

> <s_m_entry_name>
wee1_decoys_glide_SP.3012

> <s_m_subgroup_title>
wee1_decoys_glide_SP

> <s_m_subgroupid>
wee1_decoys_glide_SP


$$$$
