ZINC18222551_2432
                    3D
 Schrodinger Suite 2024-2.
 35 37  0  0  1  0            999 V2000
   -2.9579   50.8966   27.6549 C   0  0  0  0  0  0
   -4.1846   51.0966   27.0289 C   0  0  0  0  0  0
   -4.2690   51.9570   25.9369 C   0  0  0  0  0  0
   -3.1352   52.6129   25.4594 C   0  0  0  0  0  0
   -1.9090   52.4087   26.0845 C   0  0  0  0  0  0
   -1.8217   51.5609   27.1919 C   0  0  0  0  0  0
   -0.6029   51.3122   27.8424 N   0  0  0  0  0  0
    0.2899   52.2533   28.2270 C   0  0  0  0  0  0
    0.1075   53.4638   28.0870 O   0  0  0  0  0  0
    1.5803   51.7411   28.8844 C   0  0  0  0  0  0
    2.6362   53.0123   29.6844 S   0  0  0  0  0  0
    3.5922   53.5813   28.3154 C   0  0  0  0  0  0
    4.8538   54.1150   28.4552 N   0  0  0  0  0  0
    5.3153   54.2362   29.3458 H   0  0  0  0  0  0
    5.3355   54.3815   27.1944 C   0  0  0  0  0  0
    6.5413   54.8863   26.7035 C   0  0  0  0  0  0
    6.6785   54.9194   25.3101 C   0  0  0  0  0  0
    5.6585   54.5133   24.4347 C   0  0  0  0  0  0
    4.4236   54.0960   24.9554 C   0  0  0  0  0  0
    4.2762   53.9957   26.3428 C   0  0  0  0  0  0
    3.2114   53.5254   27.0609 N   0  0  0  0  0  0
    5.8894   54.4968   22.9681 N   0  3  0  0  0  0
    6.8920   55.0451   22.5205 O   0  0  0  0  0  0
    5.0694   53.9287   22.2530 O   0  5  0  0  0  0
   -6.1103   52.2670   24.9908 I   0  0  0  0  0  0
   -2.8960   50.2135   28.4932 H   0  0  0  0  0  0
   -5.0606   50.5791   27.3869 H   0  0  0  0  0  0
   -3.2074   53.2705   24.6061 H   0  0  0  0  0  0
   -1.0257   52.8965   25.6998 H   0  0  0  0  0  0
   -0.4666   50.3517   28.1329 H   0  0  0  0  0  0
    1.2859   51.0568   29.6749 H   0  0  0  0  0  0
    2.1573   51.1689   28.1584 H   0  0  0  0  0  0
    7.3411   55.1732   27.3732 H   0  0  0  0  0  0
    7.6189   55.2447   24.8836 H   0  0  0  0  0  0
    3.6204   53.7851   24.3035 H   0  0  0  0  0  0
  1  6  2  0  0  0
  1  2  1  0  0  0
  1 26  1  0  0  0
  2  3  2  0  0  0
  2 27  1  0  0  0
  3  4  1  0  0  0
  3 25  1  0  0  0
  4  5  2  0  0  0
  4 28  1  0  0  0
  5  6  1  0  0  0
  5 29  1  0  0  0
  6  7  1  0  0  0
  7  8  1  0  0  0
  7 30  1  0  0  0
  8  9  2  0  0  0
  8 10  1  0  0  0
 10 11  1  0  0  0
 10 31  1  0  0  0
 10 32  1  0  0  0
 11 12  1  0  0  0
 12 21  2  0  0  0
 12 13  1  0  0  0
 13 14  1  0  0  0
 13 15  1  0  0  0
 15 20  2  0  0  0
 15 16  1  0  0  0
 16 17  2  0  0  0
 16 33  1  0  0  0
 17 18  1  0  0  0
 17 34  1  0  0  0
 18 19  2  0  0  0
 18 22  1  0  0  0
 19 20  1  0  0  0
 19 35  1  0  0  0
 20 21  1  0  0  0
 22 23  2  0  0  0
 22 24  1  0  0  0
M  CHG  2  22   1  24  -1
M  END
> <i_i_glide_confnum>
4

> <i_i_glide_lignum>
2433

> <i_i_glide_posenum>
115

> <i_i_glide_rotatable_bonds>
6

> <i_m_Source_File_Index>
5693

> <b_m_subgroup_collapsed>
0

> <r_i_docking_score>
-4.72137

> <r_i_glide_ecoul>
-1.28696

> <r_i_glide_eff_state_penalty>
0

> <r_i_glide_einternal>
4.41153

> <r_i_glide_emodel>
-53.0076

> <r_i_glide_energy>
-41.6644

> <r_i_glide_erotb>
0.389258

> <r_i_glide_esite>
-0.0794673

> <r_i_glide_evdw>
-40.3774

> <r_i_glide_gscore>
-4.72137

> <r_i_glide_hbond>
-0.0778826

> <r_i_glide_ligand_efficiency>
-0.196724

> <r_i_glide_ligand_efficiency_ln>
-1.13004

> <r_i_glide_ligand_efficiency_sa>
-0.567449

> <r_i_glide_lipo>
-2.06046

> <r_i_glide_metal>
0

> <r_i_glide_rewards>
-0.6809

> <s_i_glide_gridfile>
wee1_glide-grid

> <s_m_Source_File>
wee1_decoys_glide_SP.sdf

> <s_m_Source_Path>
/Users/zhangxujun/Desktop

> <s_m_entry_id>
5968

> <s_m_entry_name>
wee1_decoys_glide_SP.5693

> <s_m_subgroup_title>
wee1_decoys_glide_SP

> <s_m_subgroupid>
wee1_decoys_glide_SP


$$$$
