ZINC09406911_5033
                    3D
 Schrodinger Suite 2024-2.
 60 64  0  0  1  0            999 V2000
    2.5216   46.8970   16.8540 C   0  0  0  0  0  0
    1.4440   47.0720   17.9174 C   0  0  0  0  0  0
    0.7045   45.9398   18.2835 C   0  0  0  0  0  0
   -0.2915   46.0215   19.2514 C   0  0  0  0  0  0
   -0.5644   47.2420   19.8592 C   0  0  0  0  0  0
    0.1569   48.3774   19.4980 C   0  0  0  0  0  0
    1.1722   48.3214   18.5186 C   0  0  0  0  0  0
    1.8994   49.4650   18.0818 N   0  0  0  0  0  0
    1.7777   50.7596   18.4664 C   0  0  0  0  0  0
    1.0936   51.1460   19.4149 O   0  0  0  0  0  0
    2.5215   51.8184   17.6175 C   0  0  1  0  0  0
    3.1401   51.2967   16.8849 H   0  0  0  0  0  0
    1.4449   52.7136   16.9254 C   0  0  0  0  0  0
    2.0618   53.9813   16.2846 C   0  0  0  0  0  0
    2.9551   54.7581   17.2726 C   0  0  0  0  0  0
    3.9652   53.8440   17.8487 N   0  0  0  0  0  0
    3.4218   52.6598   18.5562 C   0  0  0  0  0  0
    5.6354   54.4104   18.1163 S   0  0  0  0  0  0
    6.5376   53.2944   17.8210 O   0  0  0  0  0  0
    5.8093   55.6906   17.4187 O   0  0  0  0  0  0
    5.9119   54.7591   19.8621 C   0  0  0  0  0  0
    7.1038   55.4151   20.1882 C   0  0  0  0  0  0
    7.5047   55.6273   21.5091 C   0  0  0  0  0  0
    6.6568   55.1363   22.5014 C   0  0  0  0  0  0
    5.4390   54.4858   22.2071 C   0  0  0  0  0  0
    5.0524   54.3093   20.8735 C   0  0  0  0  0  0
    4.7927   54.0991   23.3513 N   0  0  0  0  0  0
    5.5688   54.4957   24.3342 C   0  0  0  0  0  0
    6.7043   55.1232   23.8728 N   0  0  0  0  0  0
    7.4269   55.4885   24.4722 H   0  0  0  0  0  0
    5.2591   54.3101   25.7856 C   0  0  0  0  0  0
    6.2911   54.2839   26.7319 C   0  0  0  0  0  0
    6.0012   54.0954   28.0803 C   0  0  0  0  0  0
    4.6775   53.9364   28.4858 C   0  0  0  0  0  0
    3.6429   53.9594   27.5555 C   0  0  0  0  0  0
    3.9339   54.1415   26.2055 C   0  0  0  0  0  0
   -0.9822   44.9155   19.6080 F   0  0  0  0  0  0
    3.5089   47.0372   17.2967 H   0  0  0  0  0  0
    2.4967   45.9113   16.3819 H   0  0  0  0  0  0
    2.3986   47.6374   16.0633 H   0  0  0  0  0  0
    0.9046   44.9827   17.8236 H   0  0  0  0  0  0
   -1.3364   47.3083   20.6104 H   0  0  0  0  0  0
   -0.1158   49.2906   19.9990 H   0  0  0  0  0  0
    2.6184   49.2959   17.3787 H   0  0  0  0  0  0
    0.9214   52.1690   16.1364 H   0  0  0  0  0  0
    0.7371   53.1088   17.6572 H   0  0  0  0  0  0
    2.6540   53.6982   15.4118 H   0  0  0  0  0  0
    1.2729   54.6326   15.9085 H   0  0  0  0  0  0
    3.4445   55.6046   16.7911 H   0  0  0  0  0  0
    2.3390   55.1471   18.0815 H   0  0  0  0  0  0
    2.7935   53.0572   19.3539 H   0  0  0  0  0  0
    4.2651   52.0969   18.9594 H   0  0  0  0  0  0
    7.7609   55.7382   19.3923 H   0  0  0  0  0  0
    8.4480   56.0982   21.7472 H   0  0  0  0  0  0
    4.1289   53.8128   20.6649 H   0  0  0  0  0  0
    7.3204   54.3932   26.4282 H   0  0  0  0  0  0
    6.8012   54.0747   28.8100 H   0  0  0  0  0  0
    4.4573   53.7873   29.5318 H   0  0  0  0  0  0
    2.6197   53.8318   27.8762 H   0  0  0  0  0  0
    3.1258   54.1547   25.4890 H   0  0  0  0  0  0
  1  2  1  0  0  0
  1 38  1  0  0  0
  1 39  1  0  0  0
  1 40  1  0  0  0
  2  7  2  0  0  0
  2  3  1  0  0  0
  3  4  2  0  0  0
  3 41  1  0  0  0
  4  5  1  0  0  0
  4 37  1  0  0  0
  5  6  2  0  0  0
  5 42  1  0  0  0
  6  7  1  0  0  0
  6 43  1  0  0  0
  7  8  1  0  0  0
  8  9  1  0  0  0
  8 44  1  0  0  0
  9 10  2  0  0  0
  9 11  1  0  0  0
 11 12  1  0  0  0
 11 17  1  0  0  0
 11 13  1  0  0  0
 13 14  1  0  0  0
 13 45  1  0  0  0
 13 46  1  0  0  0
 14 15  1  0  0  0
 14 47  1  0  0  0
 14 48  1  0  0  0
 15 16  1  0  0  0
 15 49  1  0  0  0
 15 50  1  0  0  0
 16 17  1  0  0  0
 16 18  1  0  0  0
 17 51  1  0  0  0
 17 52  1  0  0  0
 18 19  2  0  0  0
 18 20  2  0  0  0
 18 21  1  0  0  0
 21 26  2  0  0  0
 21 22  1  0  0  0
 22 23  2  0  0  0
 22 53  1  0  0  0
 23 24  1  0  0  0
 23 54  1  0  0  0
 24 29  1  0  0  0
 24 25  2  0  0  0
 25 26  1  0  0  0
 25 27  1  0  0  0
 26 55  1  0  0  0
 27 28  2  0  0  0
 28 29  1  0  0  0
 28 31  1  0  0  0
 29 30  1  0  0  0
 31 36  2  0  0  0
 31 32  1  0  0  0
 32 33  2  0  0  0
 32 56  1  0  0  0
 33 34  1  0  0  0
 33 57  1  0  0  0
 34 35  2  0  0  0
 34 58  1  0  0  0
 35 36  1  0  0  0
 35 59  1  0  0  0
 36 60  1  0  0  0
M  END
> <i_i_glide_confnum>
65

> <i_i_glide_lignum>
5034

> <i_i_glide_posenum>
288

> <i_i_glide_rotatable_bonds>
6

> <i_m_Source_File_Index>
408

> <b_m_subgroup_collapsed>
0

> <r_i_docking_score>
-4.0227

> <r_i_glide_ecoul>
-4.7701

> <r_i_glide_eff_state_penalty>
0

> <r_i_glide_einternal>
6.44793

> <r_i_glide_emodel>
-51.5336

> <r_i_glide_energy>
-47.5537

> <r_i_glide_erotb>
0.503635

> <r_i_glide_esite>
-0.255412

> <r_i_glide_evdw>
-42.7836

> <r_i_glide_gscore>
-4.0227

> <r_i_glide_hbond>
-0.174133

> <r_i_glide_ligand_efficiency>
-0.114934

> <r_i_glide_ligand_efficiency_ln>
-0.883072

> <r_i_glide_ligand_efficiency_sa>
-0.375958

> <r_i_glide_lipo>
-2.49001

> <r_i_glide_metal>
0

> <r_i_glide_rewards>
1.24792

> <s_i_glide_gridfile>
wee1_glide-grid

> <s_m_Source_File>
wee1_decoys_glide_SP.sdf

> <s_m_Source_Path>
/Users/zhangxujun/Desktop

> <s_m_entry_id>
683

> <s_m_entry_name>
wee1_decoys_glide_SP.408

> <s_m_subgroup_title>
wee1_decoys_glide_SP

> <s_m_subgroupid>
wee1_decoys_glide_SP


$$$$
