ZINC11388669_2851
                    3D
 Schrodinger Suite 2024-2.
 56 59  0  0  1  0            999 V2000
    0.9220   49.1720   20.0162 C   0  0  0  0  0  0
    1.6517   50.2893   20.7386 C   0  0  0  0  0  0
    2.9782   50.5785   20.4188 C   0  0  0  0  0  0
    3.6519   51.5873   21.0993 C   0  0  0  0  0  0
    2.9908   52.3385   22.0812 C   0  0  0  0  0  0
    1.6659   52.0398   22.3996 C   0  0  0  0  0  0
    0.9962   51.0170   21.7331 C   0  0  0  0  0  0
    3.6074   53.3318   22.8164 O   0  0  0  0  0  0
    4.6583   54.0829   22.3222 C   0  0  0  0  0  0
    4.7044   54.4964   20.9808 C   0  0  0  0  0  0
    5.7634   55.2666   20.5045 C   0  0  0  0  0  0
    6.7703   55.6680   21.3748 C   0  0  0  0  0  0
    6.7149   55.2964   22.7158 C   0  0  0  0  0  0
    5.6726   54.4965   23.2026 C   0  0  0  0  0  0
    5.6406   54.0345   24.5335 N   0  0  0  0  0  0
    6.1973   54.5770   25.6376 C   0  0  0  0  0  0
    6.7041   55.6967   25.6825 O   0  0  0  0  0  0
    6.1986   53.6975   26.8936 C   0  0  0  0  0  0
    5.5042   54.4863   28.3824 S   0  0  0  0  0  0
    4.0929   53.4527   28.5893 C   0  0  0  0  0  0
    3.8560   52.7586   29.6739 N   0  0  0  0  0  0
    2.6249   52.1361   29.5067 N   0  0  0  0  0  0
    2.1295   52.5251   28.3522 C   0  0  0  0  0  0
    3.0129   53.3926   27.7361 N   0  0  0  0  0  0
    2.8502   54.0964   26.5551 N   0  0  0  0  0  0
    0.7847   52.0958   27.8344 C   0  0  0  0  0  0
    0.4973   52.0637   26.4646 C   0  0  0  0  0  0
   -0.7617   51.6783   26.0142 C   0  0  0  0  0  0
   -1.7487   51.2956   26.9192 C   0  0  0  0  0  0
   -1.4623   51.3097   28.2903 C   0  0  0  0  0  0
   -0.2069   51.7058   28.7415 C   0  0  0  0  0  0
   -2.9715   50.9353   26.3915 O   0  0  0  0  0  0
   -3.8274   50.0957   27.1627 C   0  0  0  0  0  0
   -4.5180   50.8145   28.0498 F   0  0  0  0  0  0
   -4.6846   49.4920   26.3409 F   0  0  0  0  0  0
    1.5965   48.5767   19.3987 H   0  0  0  0  0  0
    0.1326   49.5816   19.3847 H   0  0  0  0  0  0
    0.4545   48.5001   20.7369 H   0  0  0  0  0  0
    3.4954   50.0254   19.6462 H   0  0  0  0  0  0
    4.6853   51.7800   20.8520 H   0  0  0  0  0  0
    1.1590   52.6030   23.1688 H   0  0  0  0  0  0
   -0.0285   50.7908   21.9894 H   0  0  0  0  0  0
    3.9111   54.2209   20.3004 H   0  0  0  0  0  0
    5.7929   55.5611   19.4655 H   0  0  0  0  0  0
    7.5976   56.2599   21.0134 H   0  0  0  0  0  0
    7.5043   55.6251   23.3692 H   0  0  0  0  0  0
    5.1713   53.1480   24.6429 H   0  0  0  0  0  0
    5.6984   52.7475   26.7145 H   0  0  0  0  0  0
    7.2371   53.4508   27.1131 H   0  0  0  0  0  0
    2.8403   55.0940   26.7086 H   0  0  0  0  0  0
    3.4863   53.8065   25.8290 H   0  0  0  0  0  0
    1.2445   52.3231   25.7322 H   0  0  0  0  0  0
   -0.9721   51.6600   24.9552 H   0  0  0  0  0  0
   -2.1970   51.0069   29.0212 H   0  0  0  0  0  0
   -0.0130   51.7066   29.8047 H   0  0  0  0  0  0
   -3.2959   49.2971   27.6804 H   0  0  0  0  0  0
  1  2  1  0  0  0
  1 36  1  0  0  0
  1 37  1  0  0  0
  1 38  1  0  0  0
  2  7  2  0  0  0
  2  3  1  0  0  0
  3  4  2  0  0  0
  3 39  1  0  0  0
  4  5  1  0  0  0
  4 40  1  0  0  0
  5  6  2  0  0  0
  5  8  1  0  0  0
  6  7  1  0  0  0
  6 41  1  0  0  0
  7 42  1  0  0  0
  8  9  1  0  0  0
  9 14  2  0  0  0
  9 10  1  0  0  0
 10 11  2  0  0  0
 10 43  1  0  0  0
 11 12  1  0  0  0
 11 44  1  0  0  0
 12 13  2  0  0  0
 12 45  1  0  0  0
 13 14  1  0  0  0
 13 46  1  0  0  0
 14 15  1  0  0  0
 15 16  1  0  0  0
 15 47  1  0  0  0
 16 17  2  0  0  0
 16 18  1  0  0  0
 18 19  1  0  0  0
 18 48  1  0  0  0
 18 49  1  0  0  0
 19 20  1  0  0  0
 20 24  1  0  0  0
 20 21  2  0  0  0
 21 22  1  0  0  0
 22 23  2  0  0  0
 23 24  1  0  0  0
 23 26  1  0  0  0
 24 25  1  0  0  0
 25 50  1  0  0  0
 25 51  1  0  0  0
 26 31  2  0  0  0
 26 27  1  0  0  0
 27 28  2  0  0  0
 27 52  1  0  0  0
 28 29  1  0  0  0
 28 53  1  0  0  0
 29 30  2  0  0  0
 29 32  1  0  0  0
 30 31  1  0  0  0
 30 54  1  0  0  0
 31 55  1  0  0  0
 32 33  1  0  0  0
 33 34  1  0  0  0
 33 35  1  0  0  0
 33 56  1  0  0  0
M  END
> <i_i_glide_confnum>
290

> <i_i_glide_lignum>
2852

> <i_i_glide_posenum>
290

> <i_i_glide_rotatable_bonds>
10

> <i_m_Source_File_Index>
5980

> <b_m_subgroup_collapsed>
0

> <r_i_docking_score>
-6.25365

> <r_i_glide_ecoul>
-6.82302

> <r_i_glide_eff_state_penalty>
0

> <r_i_glide_einternal>
8.70457

> <r_i_glide_emodel>
-76.8226

> <r_i_glide_energy>
-58.8211

> <r_i_glide_erotb>
0.741735

> <r_i_glide_esite>
-0.061617

> <r_i_glide_evdw>
-51.9981

> <r_i_glide_gscore>
-6.25365

> <r_i_glide_hbond>
-0.32

> <r_i_glide_ligand_efficiency>
-0.178676

> <r_i_glide_ligand_efficiency_ln>
-1.37282

> <r_i_glide_ligand_efficiency_sa>
-0.58446

> <r_i_glide_lipo>
-1.74713

> <r_i_glide_metal>
0

> <r_i_glide_rewards>
-1.24329

> <s_i_glide_gridfile>
wee1_glide-grid

> <s_m_Source_File>
wee1_decoys_glide_SP.sdf

> <s_m_Source_Path>
/Users/zhangxujun/Desktop

> <s_m_entry_id>
6255

> <s_m_entry_name>
wee1_decoys_glide_SP.5980

> <s_m_subgroup_title>
wee1_decoys_glide_SP

> <s_m_subgroupid>
wee1_decoys_glide_SP


$$$$
