ZINC14078445_4785
                    3D
 Schrodinger Suite 2024-2.
 24 25  0  0  1  0            999 V2000
    3.6294   54.0356   24.2200 C   0  0  0  0  0  0
    3.3351   54.0967   25.5825 C   0  0  0  0  0  0
    4.3492   54.3316   26.5189 C   0  0  0  0  0  0
    5.6702   54.4967   26.0679 C   0  0  0  0  0  0
    5.9607   54.4269   24.7046 C   0  0  0  0  0  0
    4.9439   54.1876   23.7831 C   0  0  0  0  0  0
    5.2331   54.1094   22.4653 F   0  0  0  0  0  0
    7.1044   54.8051   27.2816 Br  0  0  0  0  0  0
    3.9958   54.4062   28.0018 C   0  0  0  0  0  0
    4.5230   52.8967   28.8817 S   0  0  0  0  0  0
    3.1720   52.6049   29.9754 C   0  0  0  0  0  0
    1.9067   52.8158   29.6299 N   0  0  0  0  0  0
    1.2532   52.4967   30.7134 C   0  0  0  0  0  0
    2.1268   52.0967   31.6771 N   0  0  0  0  0  0
    1.8946   51.8104   32.6201 H   0  0  0  0  0  0
    3.3691   52.1236   31.1897 N   0  0  0  0  0  0
   -0.0956   52.4968   30.8817 N   0  0  0  0  0  0
    2.8436   53.8550   23.5012 H   0  0  0  0  0  0
    2.3135   53.9611   25.9073 H   0  0  0  0  0  0
    6.9768   54.5465   24.3578 H   0  0  0  0  0  0
    2.9311   54.6017   28.1227 H   0  0  0  0  0  0
    4.5120   55.2568   28.4468 H   0  0  0  0  0  0
   -0.7116   52.7150   30.1148 H   0  0  0  0  0  0
   -0.5516   52.1627   31.7383 H   0  0  0  0  0  0
  1  6  2  0  0  0
  1  2  1  0  0  0
  1 18  1  0  0  0
  2  3  2  0  0  0
  2 19  1  0  0  0
  3  4  1  0  0  0
  3  9  1  0  0  0
  4  5  2  0  0  0
  4  8  1  0  0  0
  5  6  1  0  0  0
  5 20  1  0  0  0
  6  7  1  0  0  0
  9 10  1  0  0  0
  9 21  1  0  0  0
  9 22  1  0  0  0
 10 11  1  0  0  0
 11 16  2  0  0  0
 11 12  1  0  0  0
 12 13  2  0  0  0
 13 14  1  0  0  0
 13 17  1  0  0  0
 14 15  1  0  0  0
 14 16  1  0  0  0
 17 23  1  0  0  0
 17 24  1  0  0  0
M  END
> <i_i_glide_confnum>
7

> <i_i_glide_lignum>
4786

> <i_i_glide_posenum>
322

> <i_i_glide_rotatable_bonds>
3

> <i_m_Source_File_Index>
1513

> <b_m_subgroup_collapsed>
0

> <r_i_docking_score>
-6.6516

> <r_i_glide_ecoul>
-5.81503

> <r_i_glide_eff_state_penalty>
0

> <r_i_glide_einternal>
3.74033

> <r_i_glide_emodel>
-51.3699

> <r_i_glide_energy>
-37.6587

> <r_i_glide_erotb>
0.601382

> <r_i_glide_esite>
-0.209269

> <r_i_glide_evdw>
-31.8437

> <r_i_glide_gscore>
-6.6516

> <r_i_glide_hbond>
-0.532046

> <r_i_glide_ligand_efficiency>
-0.415725

> <r_i_glide_ligand_efficiency_ln>
-1.76314

> <r_i_glide_ligand_efficiency_sa>
-1.04756

> <r_i_glide_lipo>
-2.11233

> <r_i_glide_metal>
0

> <r_i_glide_rewards>
-1.9349

> <s_i_glide_gridfile>
wee1_glide-grid

> <s_m_Source_File>
wee1_decoys_glide_SP.sdf

> <s_m_Source_Path>
/Users/zhangxujun/Desktop

> <s_m_entry_id>
1788

> <s_m_entry_name>
wee1_decoys_glide_SP.1513

> <s_m_subgroup_title>
wee1_decoys_glide_SP

> <s_m_subgroupid>
wee1_decoys_glide_SP


$$$$
