ZINC39668956_384
                    3D
 Schrodinger Suite 2024-2.
 68 72  0  0  1  0            999 V2000
   -2.8890   49.0175   17.4429 C   0  0  0  0  0  0
   -2.5522   49.2094   18.7786 C   0  0  0  0  0  0
   -1.3751   49.8759   19.1064 C   0  0  0  0  0  0
   -0.5148   50.3591   18.1112 C   0  0  0  0  0  0
   -0.8753   50.1969   16.7584 C   0  0  0  0  0  0
   -2.0540   49.5131   16.4419 C   0  0  0  0  0  0
   -0.0061   50.7990   15.6624 C   0  0  0  0  0  0
    1.4357   51.0201   16.1436 C   0  0  0  0  0  0
    1.3928   51.7425   17.3709 O   0  0  0  0  0  0
    0.8096   51.0375   18.4765 C   0  0  2  0  0  0
    0.5906   51.7982   19.2257 H   0  0  0  0  0  0
    1.8251   50.0457   19.1040 C   0  0  0  0  0  0
    3.1044   50.6781   19.4296 N   0  0  0  0  0  0
    3.3239   51.4942   20.4706 C   0  0  0  0  0  0
    2.4612   51.6739   21.3311 O   0  0  0  0  0  0
    4.6982   52.2428   20.4972 C   0  0  2  0  0  0
    5.4988   51.5090   20.3777 H   0  0  0  0  0  0
    4.8429   52.8766   21.9052 C   0  0  0  0  0  0
    5.5832   54.1159   21.6915 N   0  0  0  0  0  0
    5.8052   54.3894   20.2720 C   0  0  0  0  0  0
    4.8552   53.4429   19.5023 C   0  0  0  0  0  0
    5.3682   53.0528   18.0954 C   0  0  0  0  0  0
    5.6712   54.2856   17.2247 C   0  0  0  0  0  0
    4.3516   55.0668   17.0419 N   0  3  0  0  0  0
    3.6492   55.4342   18.3667 C   0  0  0  0  0  0
    3.5063   54.1523   19.2224 C   0  0  0  0  0  0
    6.2413   54.7968   22.6657 C   0  0  0  0  0  0
    7.1038   55.6364   22.4014 O   0  0  0  0  0  0
    5.8637   54.5574   24.1155 C   0  0  0  0  0  0
    4.5240   54.4968   24.5247 C   0  0  0  0  0  0
    4.1983   54.3173   25.8683 C   0  0  0  0  0  0
    5.2092   54.2158   26.8349 C   0  0  0  0  0  0
    6.5385   54.3024   26.4305 C   0  0  0  0  0  0
    6.8630   54.4781   25.0873 C   0  0  0  0  0  0
    4.9964   54.0428   28.1890 O   0  0  0  0  0  0
    3.6731   53.9138   28.7041 C   0  0  0  0  0  0
    3.7691   53.7556   30.0245 F   0  0  0  0  0  0
    3.0573   52.8363   28.2150 F   0  0  0  0  0  0
    2.9451   55.0099   28.4867 F   0  0  0  0  0  0
   -3.7962   48.4968   17.1799 H   0  0  0  0  0  0
   -3.2003   48.8368   19.5583 H   0  0  0  0  0  0
   -1.1210   50.0098   20.1483 H   0  0  0  0  0  0
   -2.3355   49.3815   15.4084 H   0  0  0  0  0  0
   -0.4299   51.7632   15.3824 H   0  0  0  0  0  0
   -0.0152   50.1805   14.7647 H   0  0  0  0  0  0
    2.0162   51.5776   15.4092 H   0  0  0  0  0  0
    1.9369   50.0614   16.2688 H   0  0  0  0  0  0
    2.0285   49.2249   18.4155 H   0  0  0  0  0  0
    1.4065   49.5843   20.0003 H   0  0  0  0  0  0
    3.8685   50.5048   18.7760 H   0  0  0  0  0  0
    5.3900   52.1840   22.5421 H   0  0  0  0  0  0
    3.8794   53.1900   22.3016 H   0  0  0  0  0  0
    5.7761   55.4398   19.9901 H   0  0  0  0  0  0
    6.8275   54.0968   20.0471 H   0  0  0  0  0  0
    6.2993   52.4973   18.1966 H   0  0  0  0  0  0
    4.6660   52.3925   17.5873 H   0  0  0  0  0  0
    6.3956   54.9734   17.6635 H   0  0  0  0  0  0
    6.0058   54.0081   16.2232 H   0  0  0  0  0  0
    4.5021   55.8983   16.4832 H   0  0  0  0  0  0
    4.2364   56.2266   18.8276 H   0  0  0  0  0  0
    2.6789   55.8386   18.0818 H   0  0  0  0  0  0
    2.7681   53.4924   18.7700 H   0  0  0  0  0  0
    3.1152   54.4050   20.2053 H   0  0  0  0  0  0
    3.7203   54.6181   23.8124 H   0  0  0  0  0  0
    3.1551   54.2702   26.1381 H   0  0  0  0  0  0
    7.3243   54.2295   27.1689 H   0  0  0  0  0  0
    7.9030   54.5288   24.8014 H   0  0  0  0  0  0
    3.7191   54.4768   16.5143 H   0  0  0  0  0  0
  1  6  2  0  0  0
  1  2  1  0  0  0
  1 40  1  0  0  0
  2  3  2  0  0  0
  2 41  1  0  0  0
  3  4  1  0  0  0
  3 42  1  0  0  0
  4 10  1  0  0  0
  4  5  2  0  0  0
  5  6  1  0  0  0
  5  7  1  0  0  0
  6 43  1  0  0  0
  7  8  1  0  0  0
  7 44  1  0  0  0
  7 45  1  0  0  0
  8  9  1  0  0  0
  8 46  1  0  0  0
  8 47  1  0  0  0
  9 10  1  0  0  0
 10 11  1  0  0  0
 10 12  1  0  0  0
 12 13  1  0  0  0
 12 48  1  0  0  0
 12 49  1  0  0  0
 13 14  1  0  0  0
 13 50  1  0  0  0
 14 15  2  0  0  0
 14 16  1  0  0  0
 16 17  1  0  0  0
 16 21  1  0  0  0
 16 18  1  0  0  0
 18 19  1  0  0  0
 18 51  1  0  0  0
 18 52  1  0  0  0
 19 20  1  0  0  0
 19 27  1  0  0  0
 20 21  1  0  0  0
 20 53  1  0  0  0
 20 54  1  0  0  0
 21 26  1  0  0  0
 21 22  1  0  0  0
 22 23  1  0  0  0
 22 55  1  0  0  0
 22 56  1  0  0  0
 23 24  1  0  0  0
 23 57  1  0  0  0
 23 58  1  0  0  0
 24 25  1  0  0  0
 24 59  1  0  0  0
 24 68  1  0  0  0
 25 26  1  0  0  0
 25 60  1  0  0  0
 25 61  1  0  0  0
 26 62  1  0  0  0
 26 63  1  0  0  0
 27 28  2  0  0  0
 27 29  1  0  0  0
 29 34  2  0  0  0
 29 30  1  0  0  0
 30 31  2  0  0  0
 30 64  1  0  0  0
 31 32  1  0  0  0
 31 65  1  0  0  0
 32 33  2  0  0  0
 32 35  1  0  0  0
 33 34  1  0  0  0
 33 66  1  0  0  0
 34 67  1  0  0  0
 35 36  1  0  0  0
 36 37  1  0  0  0
 36 38  1  0  0  0
 36 39  1  0  0  0
M  CHG  1  24   1
M  END
> <i_i_glide_confnum>
132

> <i_i_glide_lignum>
385

> <i_i_glide_posenum>
339

> <i_i_glide_rotatable_bonds>
8

> <i_m_Source_File_Index>
5697

> <b_m_subgroup_collapsed>
0

> <r_i_docking_score>
-5.4504

> <r_i_glide_ecoul>
-5.44165

> <r_i_glide_eff_state_penalty>
0

> <r_i_glide_einternal>
1.62824

> <r_i_glide_emodel>
-49.1621

> <r_i_glide_energy>
-34.9102

> <r_i_glide_erotb>
0.458305

> <r_i_glide_esite>
-0.167638

> <r_i_glide_evdw>
-29.4686

> <r_i_glide_gscore>
-5.4504

> <r_i_glide_hbond>
-0.16

> <r_i_glide_ligand_efficiency>
-0.147308

> <r_i_glide_ligand_efficiency_ln>
-1.18206

> <r_i_glide_ligand_efficiency_sa>
-0.490864

> <r_i_glide_lipo>
-2.02023

> <r_i_glide_metal>
0

> <r_i_glide_rewards>
-1.27117

> <s_i_glide_gridfile>
wee1_glide-grid

> <s_m_Source_File>
wee1_decoys_glide_SP.sdf

> <s_m_Source_Path>
/Users/zhangxujun/Desktop

> <s_m_entry_id>
5972

> <s_m_entry_name>
wee1_decoys_glide_SP.5697

> <s_m_subgroup_title>
wee1_decoys_glide_SP

> <s_m_subgroupid>
wee1_decoys_glide_SP


$$$$
