ZINC10812230_2298
                    3D
 Schrodinger Suite 2024-2.
 55 58  0  0  1  0            999 V2000
    4.3323   54.4987   27.3447 C   0  0  0  0  0  0
    4.6441   54.7699   25.8610 C   0  0  1  0  0  0
    4.4213   55.8213   25.6825 H   0  0  0  0  0  0
    6.1255   54.4883   25.5412 C   0  0  0  0  0  0
    6.5041   54.9886   24.1313 C   0  0  0  0  0  0
    5.4647   54.4967   23.1214 C   0  0  0  0  0  0
    4.2280   53.9620   23.5192 C   0  0  0  0  0  0
    3.3364   53.3156   22.1734 S   0  0  0  0  0  0
    4.5265   53.9225   21.0766 C   0  0  0  0  0  0
    5.5580   54.5904   21.7166 C   0  0  0  0  0  0
    6.5543   55.2967   20.9055 C   0  0  0  0  0  0
    7.5043   55.9419   21.3612 O   0  0  0  0  0  0
    6.3060   55.1332   19.5370 N   0  0  0  0  0  0
    5.2064   54.4527   18.9782 C   0  0  0  0  0  0
    4.3874   53.8114   19.7350 N   0  0  0  0  0  0
    4.8741   54.4579   17.1772 S   0  0  0  0  0  0
    3.9864   52.8936   16.7777 C   0  0  2  0  0  0
    4.7048   52.1048   17.0047 H   0  0  0  0  0  0
    3.7340   52.7946   15.2600 C   0  0  0  0  0  0
    2.6778   52.6196   17.5528 C   0  0  0  0  0  0
    1.7122   53.3762   17.4162 O   0  0  0  0  0  0
    2.7045   51.5066   18.3200 N   0  0  0  0  0  0
    1.8262   51.1119   19.2606 C   0  0  0  0  0  0
    0.7668   51.6721   19.5557 O   0  0  0  0  0  0
    2.2928   50.0265   19.8962 N   0  0  0  0  0  0
    1.8501   49.5903   21.2152 C   0  0  0  0  0  0
    7.3063   55.6621   18.6750 C   0  0  0  0  0  0
    8.1378   54.7839   17.9607 C   0  0  0  0  0  0
    9.1276   55.2826   17.1147 C   0  0  0  0  0  0
    9.2922   56.6593   16.9666 C   0  0  0  0  0  0
    8.4679   57.5401   17.6660 C   0  0  0  0  0  0
    7.4797   57.0498   18.5190 C   0  0  0  0  0  0
    6.7032   57.9264   19.1977 F   0  0  0  0  0  0
    3.7175   53.9169   24.9576 C   0  0  0  0  0  0
    4.5081   53.4540   27.6064 H   0  0  0  0  0  0
    4.9559   55.1093   27.9985 H   0  0  0  0  0  0
    3.2920   54.7291   27.5787 H   0  0  0  0  0  0
    6.7575   54.9972   26.2703 H   0  0  0  0  0  0
    6.3524   53.4297   25.6806 H   0  0  0  0  0  0
    7.4944   54.6150   23.8735 H   0  0  0  0  0  0
    6.5626   56.0778   24.1183 H   0  0  0  0  0  0
    3.2632   51.8475   14.9894 H   0  0  0  0  0  0
    3.0889   53.6005   14.9058 H   0  0  0  0  0  0
    4.6700   52.8543   14.7034 H   0  0  0  0  0  0
    3.5571   50.9592   18.2419 H   0  0  0  0  0  0
    3.0055   49.4692   19.4465 H   0  0  0  0  0  0
    2.6665   49.0865   21.7350 H   0  0  0  0  0  0
    1.0188   48.8911   21.1216 H   0  0  0  0  0  0
    1.5259   50.4312   21.8319 H   0  0  0  0  0  0
    8.0252   53.7137   18.0660 H   0  0  0  0  0  0
    9.7676   54.6006   16.5741 H   0  0  0  0  0  0
   10.0587   57.0433   16.3096 H   0  0  0  0  0  0
    8.5926   58.6065   17.5498 H   0  0  0  0  0  0
    2.6982   54.3013   25.0103 H   0  0  0  0  0  0
    3.6978   52.8967   25.3215 H   0  0  0  0  0  0
  1  2  1  0  0  0
  1 35  1  0  0  0
  1 36  1  0  0  0
  1 37  1  0  0  0
  2  3  1  0  0  0
  2 34  1  0  0  0
  2  4  1  0  0  0
  4  5  1  0  0  0
  4 38  1  0  0  0
  4 39  1  0  0  0
  5  6  1  0  0  0
  5 40  1  0  0  0
  5 41  1  0  0  0
  6 10  1  0  0  0
  6  7  2  0  0  0
  7  8  1  0  0  0
  7 34  1  0  0  0
  8  9  1  0  0  0
  9 15  1  0  0  0
  9 10  2  0  0  0
 10 11  1  0  0  0
 11 12  2  0  0  0
 11 13  1  0  0  0
 13 14  1  0  0  0
 13 27  1  0  0  0
 14 15  2  0  0  0
 14 16  1  0  0  0
 16 17  1  0  0  0
 17 18  1  0  0  0
 17 19  1  0  0  0
 17 20  1  0  0  0
 19 42  1  0  0  0
 19 43  1  0  0  0
 19 44  1  0  0  0
 20 21  2  0  0  0
 20 22  1  0  0  0
 22 23  1  0  0  0
 22 45  1  0  0  0
 23 24  2  0  0  0
 23 25  1  0  0  0
 25 26  1  0  0  0
 25 46  1  0  0  0
 26 47  1  0  0  0
 26 48  1  0  0  0
 26 49  1  0  0  0
 27 32  2  0  0  0
 27 28  1  0  0  0
 28 29  2  0  0  0
 28 50  1  0  0  0
 29 30  1  0  0  0
 29 51  1  0  0  0
 30 31  2  0  0  0
 30 52  1  0  0  0
 31 32  1  0  0  0
 31 53  1  0  0  0
 32 33  1  0  0  0
 34 54  1  0  0  0
 34 55  1  0  0  0
M  END
> <i_i_glide_confnum>
1

> <i_i_glide_lignum>
2299

> <i_i_glide_posenum>
218

> <i_i_glide_rotatable_bonds>
7

> <i_m_Source_File_Index>
1702

> <b_m_subgroup_collapsed>
0

> <r_i_docking_score>
-5.60393

> <r_i_glide_ecoul>
-4.96697

> <r_i_glide_eff_state_penalty>
0

> <r_i_glide_einternal>
2.31554

> <r_i_glide_emodel>
-59.2572

> <r_i_glide_energy>
-43.7061

> <r_i_glide_erotb>
0.539099

> <r_i_glide_esite>
-0.263121

> <r_i_glide_evdw>
-38.7391

> <r_i_glide_gscore>
-5.60393

> <r_i_glide_hbond>
-0.193978

> <r_i_glide_ligand_efficiency>
-0.175123

> <r_i_glide_ligand_efficiency_ln>
-1.25487

> <r_i_glide_ligand_efficiency_sa>
-0.555981

> <r_i_glide_lipo>
-2.63663

> <r_i_glide_metal>
0

> <r_i_glide_rewards>
-0.367304

> <s_i_glide_gridfile>
wee1_glide-grid

> <s_m_Source_File>
wee1_decoys_glide_SP.sdf

> <s_m_Source_Path>
/Users/zhangxujun/Desktop

> <s_m_entry_id>
1977

> <s_m_entry_name>
wee1_decoys_glide_SP.1702

> <s_m_subgroup_title>
wee1_decoys_glide_SP

> <s_m_subgroupid>
wee1_decoys_glide_SP


$$$$
