ZINC13206060_520
                    3D
 Schrodinger Suite 2024-2.
 55 58  0  0  1  0            999 V2000
    2.8605   57.0848   15.3362 C   0  0  0  0  0  0
    3.7270   56.6845   16.5157 C   0  0  0  0  0  0
    4.7116   57.5577   16.9787 C   0  0  0  0  0  0
    5.4879   57.2037   18.0785 C   0  0  0  0  0  0
    5.2679   55.9899   18.7431 C   0  0  0  0  0  0
    4.3042   55.1050   18.2480 C   0  0  0  0  0  0
    3.5291   55.4551   17.1457 C   0  0  0  0  0  0
    6.0868   55.6568   19.9540 C   0  0  0  0  0  0
    7.3347   56.0436   20.0809 N   0  0  0  0  0  0
    7.8121   55.5469   21.2815 N   0  0  0  0  0  0
    6.8314   54.8970   21.8536 C   0  0  0  0  0  0
    5.6834   54.9585   21.0863 N   0  0  0  0  0  0
    4.3425   54.4856   21.4683 C   0  0  0  0  0  0
    4.1786   52.9623   21.5227 C   0  0  0  0  0  0
    3.1063   52.5539   22.0179 O   0  0  0  0  0  0
    7.0283   53.9772   23.3421 S   0  0  0  0  0  0
    6.5671   55.2952   24.4671 C   0  0  0  0  0  0
    6.2373   54.7740   25.8518 C   0  0  0  0  0  0
    7.1040   54.7419   26.7242 O   0  0  0  0  0  0
    4.9482   54.4221   25.9947 N   0  0  0  0  0  0
    4.2712   53.9633   27.1190 C   0  0  0  0  0  0
    4.8899   53.3671   28.2260 C   0  0  0  0  0  0
    4.1119   52.8966   29.2804 C   0  0  0  0  0  0
    2.7205   53.0633   29.2473 C   0  0  0  0  0  0
    2.1096   53.6499   28.1433 C   0  0  0  0  0  0
    2.8820   54.0775   27.0704 C   0  0  0  0  0  0
    0.6170   53.5934   28.2745 C   0  0  0  0  0  0
    0.4179   53.1389   29.7098 C   0  0  0  0  0  0
    1.7299   52.6469   30.1483 N   0  0  0  0  0  0
    1.9194   52.0967   31.3687 C   0  0  0  0  0  0
    3.0180   51.7141   31.7761 O   0  0  0  0  0  0
    0.7056   51.8811   32.2629 C   0  0  0  0  0  0
    3.3738   56.8818   14.3953 H   0  0  0  0  0  0
    1.9055   56.5575   15.3449 H   0  0  0  0  0  0
    2.6299   58.1504   15.3782 H   0  0  0  0  0  0
    4.8688   58.5147   16.4980 H   0  0  0  0  0  0
    6.2384   57.8952   18.4327 H   0  0  0  0  0  0
    4.1478   54.1409   18.7107 H   0  0  0  0  0  0
    2.7777   54.7676   16.7857 H   0  0  0  0  0  0
    4.1210   54.8900   22.4542 H   0  0  0  0  0  0
    3.5986   54.8956   20.7914 H   0  0  0  0  0  0
    5.6486   55.7001   24.0706 H   0  0  0  0  0  0
    7.3272   56.0776   24.4929 H   0  0  0  0  0  0
    4.3647   54.5368   25.1805 H   0  0  0  0  0  0
    5.9598   53.2276   28.2665 H   0  0  0  0  0  0
    4.6157   52.4138   30.1022 H   0  0  0  0  0  0
    2.4008   54.4868   26.1945 H   0  0  0  0  0  0
    0.2107   52.8407   27.5974 H   0  0  0  0  0  0
    0.0942   54.5285   28.0819 H   0  0  0  0  0  0
   -0.4331   52.4710   29.8500 H   0  0  0  0  0  0
    0.2223   54.0257   30.3159 H   0  0  0  0  0  0
    0.3059   52.8365   32.6017 H   0  0  0  0  0  0
    0.9662   51.2967   33.1427 H   0  0  0  0  0  0
   -0.0736   51.3366   31.7172 H   0  0  0  0  0  0
    5.1035   52.2302   21.1115 O   0  5  0  0  0  0
  1  2  1  0  0  0
  1 33  1  0  0  0
  1 34  1  0  0  0
  1 35  1  0  0  0
  2  7  2  0  0  0
  2  3  1  0  0  0
  3  4  2  0  0  0
  3 36  1  0  0  0
  4  5  1  0  0  0
  4 37  1  0  0  0
  5  6  2  0  0  0
  5  8  1  0  0  0
  6  7  1  0  0  0
  6 38  1  0  0  0
  7 39  1  0  0  0
  8 12  1  0  0  0
  8  9  2  0  0  0
  9 10  1  0  0  0
 10 11  2  0  0  0
 11 12  1  0  0  0
 11 16  1  0  0  0
 12 13  1  0  0  0
 13 14  1  0  0  0
 13 40  1  0  0  0
 13 41  1  0  0  0
 14 15  2  0  0  0
 14 55  1  0  0  0
 16 17  1  0  0  0
 17 18  1  0  0  0
 17 42  1  0  0  0
 17 43  1  0  0  0
 18 19  2  0  0  0
 18 20  1  0  0  0
 20 21  1  0  0  0
 20 44  1  0  0  0
 21 26  2  0  0  0
 21 22  1  0  0  0
 22 23  2  0  0  0
 22 45  1  0  0  0
 23 24  1  0  0  0
 23 46  1  0  0  0
 24 29  1  0  0  0
 24 25  2  0  0  0
 25 26  1  0  0  0
 25 27  1  0  0  0
 26 47  1  0  0  0
 27 28  1  0  0  0
 27 48  1  0  0  0
 27 49  1  0  0  0
 28 29  1  0  0  0
 28 50  1  0  0  0
 28 51  1  0  0  0
 29 30  1  0  0  0
 30 31  2  0  0  0
 30 32  1  0  0  0
 32 52  1  0  0  0
 32 53  1  0  0  0
 32 54  1  0  0  0
M  CHG  1  55  -1
M  END
> <i_i_glide_confnum>
57

> <i_i_glide_lignum>
521

> <i_i_glide_posenum>
66

> <i_i_glide_rotatable_bonds>
9

> <i_m_Source_File_Index>
3247

> <b_m_subgroup_collapsed>
0

> <r_i_docking_score>
-7.09513

> <r_i_glide_ecoul>
-6.48675

> <r_i_glide_eff_state_penalty>
0

> <r_i_glide_einternal>
6.91571

> <r_i_glide_emodel>
-72.4939

> <r_i_glide_energy>
-51.3421

> <r_i_glide_erotb>
0.654009

> <r_i_glide_esite>
-0.0698725

> <r_i_glide_evdw>
-44.8553

> <r_i_glide_gscore>
-7.09513

> <r_i_glide_hbond>
-0.54998

> <r_i_glide_ligand_efficiency>
-0.215004

> <r_i_glide_ligand_efficiency_ln>
-1.57792

> <r_i_glide_ligand_efficiency_sa>
-0.689633

> <r_i_glide_lipo>
-2.35413

> <r_i_glide_metal>
0

> <r_i_glide_rewards>
-1.55938

> <s_i_glide_gridfile>
wee1_glide-grid

> <s_m_Source_File>
wee1_decoys_glide_SP.sdf

> <s_m_Source_Path>
/Users/zhangxujun/Desktop

> <s_m_entry_id>
3522

> <s_m_entry_name>
wee1_decoys_glide_SP.3247

> <s_m_subgroup_title>
wee1_decoys_glide_SP

> <s_m_subgroupid>
wee1_decoys_glide_SP


$$$$
