ZINC39639315_2203
                    3D
 Schrodinger Suite 2024-2.
 69 72  0  0  1  0            999 V2000
   -9.4908   53.0094   27.3460 C   0  0  0  0  0  0
   -8.4223   53.6510   28.2527 C   0  0  0  0  0  0
   -7.1087   53.1564   27.9827 O   0  0  0  0  0  0
   -6.8519   51.8122   28.1813 C   0  0  0  0  0  0
   -7.3971   51.1117   29.2725 C   0  0  0  0  0  0
   -7.1312   49.7571   29.4624 C   0  0  0  0  0  0
   -6.3185   49.0781   28.5611 C   0  0  0  0  0  0
   -5.7642   49.7573   27.4775 C   0  0  0  0  0  0
   -6.0017   51.1293   27.2895 C   0  0  0  0  0  0
   -5.3921   51.8334   26.0999 C   0  0  0  0  0  0
   -6.1342   52.3760   25.2769 O   0  0  0  0  0  0
   -4.0414   51.8171   25.9590 N   0  0  0  0  0  0
   -3.3728   52.3082   24.7483 C   0  0  0  0  0  0
   -1.8761   52.1436   25.0842 C   0  0  1  0  0  0
   -1.5205   53.0625   25.5519 H   0  0  0  0  0  0
   -1.8176   50.9845   26.1207 C   0  0  0  0  0  0
   -3.0838   51.2951   26.9412 C   0  0  0  0  0  0
   -0.5978   50.9772   27.0795 C   0  0  0  0  0  0
    0.6867   50.3439   26.5146 C   0  0  0  0  0  0
    0.3691   48.8977   26.0846 N   0  3  0  0  0  0
   -0.7420   48.8251   25.0260 C   0  0  0  0  0  0
   -2.0116   49.5310   25.5564 C   0  0  0  0  0  0
   -1.0543   51.9124   23.7987 C   0  0  0  0  0  0
   -1.4647   51.1647   22.9146 O   0  0  0  0  0  0
    0.1048   52.5910   23.7254 N   0  0  0  0  0  0
    1.2590   52.3303   22.8514 C   0  0  1  0  0  0
    1.5638   51.3099   23.0931 H   0  0  0  0  0  0
    0.9366   52.3133   21.3355 C   0  0  0  0  0  0
    2.5005   53.1570   23.2633 C   0  0  0  0  0  0
    3.5122   53.4592   22.3404 C   0  0  0  0  0  0
    4.6833   54.0924   22.7482 C   0  0  0  0  0  0
    4.8493   54.4819   24.0745 C   0  0  0  0  0  0
    3.8345   54.2328   24.9964 C   0  0  0  0  0  0
    2.6735   53.5748   24.5942 C   0  0  0  0  0  0
    6.1490   55.1312   24.5149 C   0  0  0  0  0  0
  -10.4635   53.4801   27.4927 H   0  0  0  0  0  0
   -9.2234   53.1219   26.2924 H   0  0  0  0  0  0
   -9.6036   51.9428   27.5503 H   0  0  0  0  0  0
   -8.6899   53.5309   29.3052 H   0  0  0  0  0  0
   -8.4079   54.7252   28.0730 H   0  0  0  0  0  0
   -8.0324   51.6112   29.9881 H   0  0  0  0  0  0
   -7.5595   49.2315   30.3058 H   0  0  0  0  0  0
   -6.1175   48.0245   28.6961 H   0  0  0  0  0  0
   -5.1474   49.2046   26.7820 H   0  0  0  0  0  0
   -3.6264   53.3438   24.5162 H   0  0  0  0  0  0
   -3.6753   51.6293   23.9475 H   0  0  0  0  0  0
   -3.3823   50.4483   27.5543 H   0  0  0  0  0  0
   -2.8577   52.1048   27.6369 H   0  0  0  0  0  0
   -0.4123   51.9661   27.5009 H   0  0  0  0  0  0
   -0.8799   50.3553   27.9287 H   0  0  0  0  0  0
    1.0788   50.8600   25.6358 H   0  0  0  0  0  0
    1.4624   50.2757   27.2796 H   0  0  0  0  0  0
    1.1982   48.4178   25.7555 H   0  0  0  0  0  0
   -0.3261   49.2666   24.1210 H   0  0  0  0  0  0
   -0.9123   47.7618   24.8477 H   0  0  0  0  0  0
   -2.3537   48.8970   26.3819 H   0  0  0  0  0  0
   -2.8286   49.4831   24.8359 H   0  0  0  0  0  0
    0.2796   53.2675   24.4482 H   0  0  0  0  0  0
    1.7721   51.9351   20.7459 H   0  0  0  0  0  0
    0.1025   51.6578   21.0934 H   0  0  0  0  0  0
    0.6870   53.2973   20.9620 H   0  0  0  0  0  0
    3.4328   53.1702   21.3051 H   0  0  0  0  0  0
    5.4621   54.2791   22.0262 H   0  0  0  0  0  0
    3.9543   54.5227   26.0288 H   0  0  0  0  0  0
    1.9300   53.3601   25.3454 H   0  0  0  0  0  0
    6.9888   54.4649   24.3079 H   0  0  0  0  0  0
    6.3211   56.0535   23.9607 H   0  0  0  0  0  0
    6.1526   55.3662   25.5831 H   0  0  0  0  0  0
    0.0481   48.3753   26.8963 H   0  0  0  0  0  0
  1  2  1  0  0  0
  1 36  1  0  0  0
  1 37  1  0  0  0
  1 38  1  0  0  0
  2  3  1  0  0  0
  2 39  1  0  0  0
  2 40  1  0  0  0
  3  4  1  0  0  0
  4  9  2  0  0  0
  4  5  1  0  0  0
  5  6  2  0  0  0
  5 41  1  0  0  0
  6  7  1  0  0  0
  6 42  1  0  0  0
  7  8  2  0  0  0
  7 43  1  0  0  0
  8  9  1  0  0  0
  8 44  1  0  0  0
  9 10  1  0  0  0
 10 11  2  0  0  0
 10 12  1  0  0  0
 12 17  1  0  0  0
 12 13  1  0  0  0
 13 14  1  0  0  0
 13 45  1  0  0  0
 13 46  1  0  0  0
 14 15  1  0  0  0
 14 16  1  0  0  0
 14 23  1  0  0  0
 16 22  1  0  0  0
 16 17  1  0  0  0
 16 18  1  0  0  0
 17 47  1  0  0  0
 17 48  1  0  0  0
 18 19  1  0  0  0
 18 49  1  0  0  0
 18 50  1  0  0  0
 19 20  1  0  0  0
 19 51  1  0  0  0
 19 52  1  0  0  0
 20 21  1  0  0  0
 20 53  1  0  0  0
 20 69  1  0  0  0
 21 22  1  0  0  0
 21 54  1  0  0  0
 21 55  1  0  0  0
 22 56  1  0  0  0
 22 57  1  0  0  0
 23 24  2  0  0  0
 23 25  1  0  0  0
 25 26  1  0  0  0
 25 58  1  0  0  0
 26 27  1  0  0  0
 26 28  1  0  0  0
 26 29  1  0  0  0
 28 59  1  0  0  0
 28 60  1  0  0  0
 28 61  1  0  0  0
 29 34  2  0  0  0
 29 30  1  0  0  0
 30 31  2  0  0  0
 30 62  1  0  0  0
 31 32  1  0  0  0
 31 63  1  0  0  0
 32 33  2  0  0  0
 32 35  1  0  0  0
 33 34  1  0  0  0
 33 64  1  0  0  0
 34 65  1  0  0  0
 35 66  1  0  0  0
 35 67  1  0  0  0
 35 68  1  0  0  0
M  CHG  1  20   1
M  END
> <i_i_glide_confnum>
135

> <i_i_glide_lignum>
2204

> <i_i_glide_posenum>
349

> <i_i_glide_rotatable_bonds>
8

> <i_m_Source_File_Index>
1893

> <b_m_subgroup_collapsed>
0

> <r_i_docking_score>
-3.57863

> <r_i_glide_ecoul>
-4.10742

> <r_i_glide_eff_state_penalty>
0

> <r_i_glide_einternal>
4.11378

> <r_i_glide_emodel>
-36.6787

> <r_i_glide_energy>
-32.3772

> <r_i_glide_erotb>
0.691272

> <r_i_glide_esite>
-0.104818

> <r_i_glide_evdw>
-28.2698

> <r_i_glide_gscore>
-3.57863

> <r_i_glide_hbond>
-0.148715

> <r_i_glide_ligand_efficiency>
-0.108443

> <r_i_glide_ligand_efficiency_ln>
-0.795869

> <r_i_glide_ligand_efficiency_sa>
-0.347836

> <r_i_glide_lipo>
-1.64317

> <r_i_glide_metal>
0

> <r_i_glide_rewards>
-0.343598

> <s_i_glide_gridfile>
wee1_glide-grid

> <s_m_Source_File>
wee1_decoys_glide_SP.sdf

> <s_m_Source_Path>
/Users/zhangxujun/Desktop

> <s_m_entry_id>
2168

> <s_m_entry_name>
wee1_decoys_glide_SP.1893

> <s_m_subgroup_title>
wee1_decoys_glide_SP

> <s_m_subgroupid>
wee1_decoys_glide_SP


$$$$
