ZINC63010001_3855
                    3D
 Schrodinger Suite 2024-2.
 29 31  0  0  1  0            999 V2000
    6.5390   54.8631   23.5700 C   0  0  0  0  0  0
    5.5227   54.4845   24.4482 C   0  0  0  0  0  0
    4.2598   54.0981   23.9671 C   0  0  0  0  0  0
    4.0491   54.0967   22.5784 C   0  0  0  0  0  0
    5.0625   54.4815   21.7006 C   0  0  0  0  0  0
    6.3073   54.8690   22.1969 C   0  0  0  0  0  0
    4.7421   54.4945   19.8249 Br  0  0  0  0  0  0
    3.1576   53.7285   24.9224 C   0  0  0  0  0  0
    3.3473   53.6954   26.2306 N   0  0  0  0  0  0
    2.1857   53.2971   26.6783 C   0  0  0  0  0  0
    1.2700   53.1118   25.6940 O   0  0  0  0  0  0
    1.9423   53.4168   24.5132 N   0  0  0  0  0  0
    1.7976   53.0075   28.0899 C   0  0  0  0  0  0
    0.4510   52.9575   28.4659 C   0  0  0  0  0  0
    0.0950   52.7076   29.7925 C   0  0  0  0  0  0
    1.0781   52.4958   30.7563 C   0  0  0  0  0  0
    2.4273   52.4985   30.3791 C   0  0  0  0  0  0
    2.7811   52.7691   29.0571 C   0  0  0  0  0  0
    3.4038   52.2334   31.2808 F   0  0  0  0  0  0
    0.7059   52.2595   32.0816 N   0  0  0  0  0  0
    7.5044   55.1575   23.9557 H   0  0  0  0  0  0
    5.7232   54.4961   25.5098 H   0  0  0  0  0  0
    3.0880   53.8149   22.1691 H   0  0  0  0  0  0
    7.0943   55.1632   21.5181 H   0  0  0  0  0  0
   -0.3256   53.1192   27.7307 H   0  0  0  0  0  0
   -0.9480   52.6759   30.0682 H   0  0  0  0  0  0
    3.8273   52.7824   28.7831 H   0  0  0  0  0  0
   -0.2778   52.0966   32.3447 H   0  0  0  0  0  0
    1.4220   52.0989   32.7777 H   0  0  0  0  0  0
  1  6  2  0  0  0
  1  2  1  0  0  0
  1 21  1  0  0  0
  2  3  2  0  0  0
  2 22  1  0  0  0
  3  4  1  0  0  0
  3  8  1  0  0  0
  4  5  2  0  0  0
  4 23  1  0  0  0
  5  6  1  0  0  0
  5  7  1  0  0  0
  6 24  1  0  0  0
  8 12  2  0  0  0
  8  9  1  0  0  0
  9 10  2  0  0  0
 10 11  1  0  0  0
 10 13  1  0  0  0
 11 12  1  0  0  0
 13 18  2  0  0  0
 13 14  1  0  0  0
 14 15  2  0  0  0
 14 25  1  0  0  0
 15 16  1  0  0  0
 15 26  1  0  0  0
 16 17  2  0  0  0
 16 20  1  0  0  0
 17 18  1  0  0  0
 17 19  1  0  0  0
 18 27  1  0  0  0
 20 28  1  0  0  0
 20 29  1  0  0  0
M  END
> <i_i_glide_confnum>
4

> <i_i_glide_lignum>
3856

> <i_i_glide_posenum>
213

> <i_i_glide_rotatable_bonds>
2

> <i_m_Source_File_Index>
2361

> <b_m_subgroup_collapsed>
0

> <r_i_docking_score>
-6.38711

> <r_i_glide_ecoul>
-6.65263

> <r_i_glide_eff_state_penalty>
0

> <r_i_glide_einternal>
0.280897

> <r_i_glide_emodel>
-52.6429

> <r_i_glide_energy>
-37.2995

> <r_i_glide_erotb>
0.337777

> <r_i_glide_esite>
-0.1

> <r_i_glide_evdw>
-30.6469

> <r_i_glide_gscore>
-6.38711

> <r_i_glide_hbond>
-0.338928

> <r_i_glide_ligand_efficiency>
-0.319355

> <r_i_glide_ligand_efficiency_ln>
-1.59848

> <r_i_glide_ligand_efficiency_sa>
-0.866864

> <r_i_glide_lipo>
-2.11212

> <r_i_glide_metal>
0

> <r_i_glide_rewards>
-1.6436

> <s_i_glide_gridfile>
wee1_glide-grid

> <s_m_Source_File>
wee1_decoys_glide_SP.sdf

> <s_m_Source_Path>
/Users/zhangxujun/Desktop

> <s_m_entry_id>
2636

> <s_m_entry_name>
wee1_decoys_glide_SP.2361

> <s_m_subgroup_title>
wee1_decoys_glide_SP

> <s_m_subgroupid>
wee1_decoys_glide_SP


$$$$
