ZINC64928269_5422
                    3D
 Schrodinger Suite 2024-2.
 70 73  0  0  1  0            999 V2000
   -5.5668   54.0472   24.7859 C   0  0  0  0  0  0
   -5.6633   52.5085   24.7496 C   0  0  0  0  0  0
   -4.3867   51.7338   25.0801 C   0  0  0  0  0  0
   -4.4011   50.3438   24.9287 C   0  0  0  0  0  0
   -3.2644   49.5914   25.2179 C   0  0  0  0  0  0
   -2.1029   50.2239   25.6618 C   0  0  0  0  0  0
   -2.0901   51.6100   25.8283 C   0  0  0  0  0  0
   -3.2244   52.3633   25.5394 C   0  0  0  0  0  0
   -0.8595   49.4035   25.9958 C   0  0  0  0  0  0
    0.2469   49.6242   25.0759 N   0  0  0  0  0  0
    0.3043   49.1739   23.8168 C   0  0  0  0  0  0
   -0.5494   48.4542   23.3017 O   0  0  0  0  0  0
    1.4959   49.6646   23.0020 C   0  0  0  0  0  0
    1.2209   51.0691   22.3923 C   0  0  2  0  0  0
    0.2809   51.4616   22.7869 H   0  0  0  0  0  0
    1.0471   51.0438   20.8648 C   0  0  0  0  0  0
   -0.0035   50.3249   20.2808 C   0  0  0  0  0  0
   -0.1338   50.2267   18.8975 C   0  0  0  0  0  0
    0.7948   50.8481   18.0701 C   0  0  0  0  0  0
    1.8374   51.5821   18.6321 C   0  0  0  0  0  0
    1.9708   51.7080   20.0210 C   0  0  0  0  0  0
    3.1079   52.5447   20.6154 C   0  0  0  0  0  0
    3.4897   52.0208   22.0026 C   0  0  0  0  0  0
    2.3044   51.9611   22.8941 N   0  0  0  0  0  0
    1.8045   53.3920   23.8281 S   0  0  0  0  0  0
    1.6725   54.4968   22.8817 O   0  0  0  0  0  0
    0.6499   52.9978   24.6447 O   0  0  0  0  0  0
    3.1738   53.8238   24.9380 C   0  0  0  0  0  0
    4.3175   54.3407   24.3189 C   0  0  0  0  0  0
    5.4550   54.6704   25.0543 C   0  0  0  0  0  0
    5.4508   54.4963   26.4353 C   0  0  0  0  0  0
    4.3081   54.0257   27.0772 C   0  0  0  0  0  0
    3.1504   53.6960   26.3482 C   0  0  0  0  0  0
    1.9703   53.2424   26.9755 N   0  0  0  0  0  0
    1.6327   53.2028   28.2862 C   0  0  0  0  0  0
    2.3300   53.5919   29.2225 O   0  0  0  0  0  0
    0.2505   52.6388   28.5866 C   0  0  0  0  0  0
    6.7022   55.1809   24.3578 C   0  0  0  0  0  0
   -6.5158   54.4926   24.4933 H   0  0  0  0  0  0
   -4.8074   54.4154   24.0944 H   0  0  0  0  0  0
   -5.3273   54.4095   25.7859 H   0  0  0  0  0  0
   -6.4453   52.1820   25.4366 H   0  0  0  0  0  0
   -5.9892   52.2054   23.7523 H   0  0  0  0  0  0
   -5.2930   49.8437   24.5831 H   0  0  0  0  0  0
   -3.2868   48.5192   25.0942 H   0  0  0  0  0  0
   -1.1958   52.1043   26.1707 H   0  0  0  0  0  0
   -3.1826   53.4325   25.6747 H   0  0  0  0  0  0
   -0.4968   49.7087   26.9750 H   0  0  0  0  0  0
   -1.0936   48.3418   26.0793 H   0  0  0  0  0  0
    0.9714   50.2478   25.3961 H   0  0  0  0  0  0
    2.3788   49.6564   23.6453 H   0  0  0  0  0  0
    1.7163   48.9281   22.2283 H   0  0  0  0  0  0
   -0.7150   49.8104   20.9123 H   0  0  0  0  0  0
   -0.9430   49.6539   18.4684 H   0  0  0  0  0  0
    0.7173   50.7591   16.9949 H   0  0  0  0  0  0
    2.5533   52.0606   17.9781 H   0  0  0  0  0  0
    2.7267   53.5619   20.7125 H   0  0  0  0  0  0
    3.9750   52.5881   19.9551 H   0  0  0  0  0  0
    4.3381   52.5055   22.4818 H   0  0  0  0  0  0
    3.7947   50.9822   21.8512 H   0  0  0  0  0  0
    4.3185   54.4900   23.2464 H   0  0  0  0  0  0
    6.3251   54.7339   27.0261 H   0  0  0  0  0  0
    4.3684   53.9173   28.1471 H   0  0  0  0  0  0
    1.2486   52.9791   26.3157 H   0  0  0  0  0  0
    0.1775   51.6009   28.2609 H   0  0  0  0  0  0
    0.0462   52.6713   29.6572 H   0  0  0  0  0  0
   -0.5139   53.2284   28.0819 H   0  0  0  0  0  0
    7.5950   54.8410   24.8822 H   0  0  0  0  0  0
    6.7741   54.8005   23.3377 H   0  0  0  0  0  0
    6.7046   56.2698   24.3303 H   0  0  0  0  0  0
  1  2  1  0  0  0
  1 39  1  0  0  0
  1 40  1  0  0  0
  1 41  1  0  0  0
  2  3  1  0  0  0
  2 42  1  0  0  0
  2 43  1  0  0  0
  3  8  2  0  0  0
  3  4  1  0  0  0
  4  5  2  0  0  0
  4 44  1  0  0  0
  5  6  1  0  0  0
  5 45  1  0  0  0
  6  7  2  0  0  0
  6  9  1  0  0  0
  7  8  1  0  0  0
  7 46  1  0  0  0
  8 47  1  0  0  0
  9 10  1  0  0  0
  9 48  1  0  0  0
  9 49  1  0  0  0
 10 11  1  0  0  0
 10 50  1  0  0  0
 11 12  2  0  0  0
 11 13  1  0  0  0
 13 14  1  0  0  0
 13 51  1  0  0  0
 13 52  1  0  0  0
 14 15  1  0  0  0
 14 24  1  0  0  0
 14 16  1  0  0  0
 16 21  2  0  0  0
 16 17  1  0  0  0
 17 18  2  0  0  0
 17 53  1  0  0  0
 18 19  1  0  0  0
 18 54  1  0  0  0
 19 20  2  0  0  0
 19 55  1  0  0  0
 20 21  1  0  0  0
 20 56  1  0  0  0
 21 22  1  0  0  0
 22 23  1  0  0  0
 22 57  1  0  0  0
 22 58  1  0  0  0
 23 24  1  0  0  0
 23 59  1  0  0  0
 23 60  1  0  0  0
 24 25  1  0  0  0
 25 26  2  0  0  0
 25 27  2  0  0  0
 25 28  1  0  0  0
 28 33  2  0  0  0
 28 29  1  0  0  0
 29 30  2  0  0  0
 29 61  1  0  0  0
 30 31  1  0  0  0
 30 38  1  0  0  0
 31 32  2  0  0  0
 31 62  1  0  0  0
 32 33  1  0  0  0
 32 63  1  0  0  0
 33 34  1  0  0  0
 34 35  1  0  0  0
 34 64  1  0  0  0
 35 36  2  0  0  0
 35 37  1  0  0  0
 37 65  1  0  0  0
 37 66  1  0  0  0
 37 67  1  0  0  0
 38 68  1  0  0  0
 38 69  1  0  0  0
 38 70  1  0  0  0
M  END
> <i_i_glide_confnum>
84

> <i_i_glide_lignum>
5423

> <i_i_glide_posenum>
244

> <i_i_glide_rotatable_bonds>
10

> <i_m_Source_File_Index>
2630

> <b_m_subgroup_collapsed>
0

> <r_i_docking_score>
-3.38557

> <r_i_glide_ecoul>
-2.22888

> <r_i_glide_eff_state_penalty>
0

> <r_i_glide_einternal>
9.06908

> <r_i_glide_emodel>
-49.6888

> <r_i_glide_energy>
-47.3199

> <r_i_glide_erotb>
0.608681

> <r_i_glide_esite>
-0.0430772

> <r_i_glide_evdw>
-45.091

> <r_i_glide_gscore>
-3.38557

> <r_i_glide_hbond>
0

> <r_i_glide_ligand_efficiency>
-0.0915018

> <r_i_glide_ligand_efficiency_ln>
-0.73425

> <r_i_glide_ligand_efficiency_sa>
-0.304904

> <r_i_glide_lipo>
-1.99466

> <r_i_glide_metal>
0

> <r_i_glide_rewards>
0.632373

> <s_i_glide_gridfile>
wee1_glide-grid

> <s_m_Source_File>
wee1_decoys_glide_SP.sdf

> <s_m_Source_Path>
/Users/zhangxujun/Desktop

> <s_m_entry_id>
2905

> <s_m_entry_name>
wee1_decoys_glide_SP.2630

> <s_m_subgroup_title>
wee1_decoys_glide_SP

> <s_m_subgroupid>
wee1_decoys_glide_SP


$$$$
