ZINC22820697_2872
                    3D
 Schrodinger Suite 2024-2.
 61 65  0  0  1  0            999 V2000
    2.5663   50.8047   19.9234 C   0  0  0  0  0  0
    3.3004   52.0136   20.4958 C   0  0  0  0  0  0
    3.0340   52.7525   21.6074 C   0  0  0  0  0  0
    3.8534   54.0455   21.9350 C   0  0  2  0  0  0
    3.1411   54.8739   21.9055 H   0  0  0  0  0  0
    4.8828   54.3885   20.9203 N   0  0  0  0  0  0
    5.0820   53.6354   19.9017 C   0  0  0  0  0  0
    4.3362   52.4537   19.6816 N   0  0  0  0  0  0
    6.0786   53.9118   18.9264 N   0  0  0  0  0  0
    6.8339   55.0553   18.7957 C   0  0  0  0  0  0
    6.3770   56.2756   18.7768 N   0  0  0  0  0  0
    7.3721   57.1566   18.5002 C   0  0  0  0  0  0
    7.1988   58.5385   18.3757 C   0  0  0  0  0  0
    8.3148   59.3223   18.0826 C   0  0  0  0  0  0
    9.5833   58.7608   17.9441 C   0  0  0  0  0  0
    9.7840   57.3851   18.0697 C   0  0  0  0  0  0
    8.6628   56.5873   18.3310 C   0  0  0  0  0  0
    8.5401   54.8454   18.4827 S   0  0  0  0  0  0
    4.4326   54.1137   23.3716 C   0  0  0  0  0  0
    5.8067   54.0203   23.6409 C   0  0  0  0  0  0
    6.2870   54.0966   24.9506 C   0  0  0  0  0  0
    5.4022   54.2372   26.0323 C   0  0  0  0  0  0
    4.0341   54.3592   25.7666 C   0  0  0  0  0  0
    3.5698   54.3366   24.4544 C   0  0  0  0  0  0
    3.1197   54.4971   26.7824 O   0  0  0  0  0  0
    2.7841   53.2730   27.4250 C   0  0  0  0  0  0
    5.7856   54.2611   27.3603 O   0  0  0  0  0  0
    7.1091   53.8898   27.7069 C   0  0  0  0  0  0
    1.9103   52.4494   22.4713 C   0  0  0  0  0  0
    1.0684   53.2971   22.7502 O   0  0  0  0  0  0
    1.9035   51.1964   22.9619 N   0  0  0  0  0  0
    0.9555   50.6304   23.8227 C   0  0  0  0  0  0
    0.7008   49.2726   23.6507 C   0  0  0  0  0  0
   -0.2197   48.6247   24.4687 C   0  0  0  0  0  0
   -0.8769   49.3421   25.4644 C   0  0  0  0  0  0
   -0.6156   50.6964   25.6597 C   0  0  0  0  0  0
    0.3039   51.3459   24.8394 C   0  0  0  0  0  0
    1.6656   50.5338   20.4711 H   0  0  0  0  0  0
    2.2570   51.0107   18.8981 H   0  0  0  0  0  0
    3.2258   49.9376   19.8977 H   0  0  0  0  0  0
    4.7069   51.8191   18.9774 H   0  0  0  0  0  0
    6.3524   53.1181   18.3678 H   0  0  0  0  0  0
    6.2247   58.9963   18.4764 H   0  0  0  0  0  0
    8.1894   60.3888   17.9608 H   0  0  0  0  0  0
   10.4245   59.3998   17.7204 H   0  0  0  0  0  0
   10.7666   56.9469   17.9562 H   0  0  0  0  0  0
    6.5153   53.8843   22.8381 H   0  0  0  0  0  0
    7.3512   54.0194   25.1062 H   0  0  0  0  0  0
    2.5122   54.4791   24.2978 H   0  0  0  0  0  0
    2.0328   53.4606   28.1916 H   0  0  0  0  0  0
    2.3647   52.5528   26.7212 H   0  0  0  0  0  0
    3.6471   52.8160   27.9108 H   0  0  0  0  0  0
    7.2050   53.8658   28.7927 H   0  0  0  0  0  0
    7.3588   52.8968   27.3325 H   0  0  0  0  0  0
    7.8366   54.6074   27.3288 H   0  0  0  0  0  0
    2.5847   50.5598   22.5785 H   0  0  0  0  0  0
    1.2132   48.7095   22.8846 H   0  0  0  0  0  0
   -0.4208   47.5706   24.3409 H   0  0  0  0  0  0
   -1.5933   48.8347   26.0912 H   0  0  0  0  0  0
   -1.1243   51.2329   26.4480 H   0  0  0  0  0  0
    0.5079   52.3922   25.0091 H   0  0  0  0  0  0
  1  2  1  0  0  0
  1 38  1  0  0  0
  1 39  1  0  0  0
  1 40  1  0  0  0
  2  8  1  0  0  0
  2  3  2  0  0  0
  3  4  1  0  0  0
  3 29  1  0  0  0
  4  5  1  0  0  0
  4  6  1  0  0  0
  4 19  1  0  0  0
  6  7  2  0  0  0
  7  8  1  0  0  0
  7  9  1  0  0  0
  8 41  1  0  0  0
  9 10  1  0  0  0
  9 42  1  0  0  0
 10 18  1  0  0  0
 10 11  2  0  0  0
 11 12  1  0  0  0
 12 17  2  0  0  0
 12 13  1  0  0  0
 13 14  2  0  0  0
 13 43  1  0  0  0
 14 15  1  0  0  0
 14 44  1  0  0  0
 15 16  2  0  0  0
 15 45  1  0  0  0
 16 17  1  0  0  0
 16 46  1  0  0  0
 17 18  1  0  0  0
 19 24  2  0  0  0
 19 20  1  0  0  0
 20 21  2  0  0  0
 20 47  1  0  0  0
 21 22  1  0  0  0
 21 48  1  0  0  0
 22 23  2  0  0  0
 22 27  1  0  0  0
 23 24  1  0  0  0
 23 25  1  0  0  0
 24 49  1  0  0  0
 25 26  1  0  0  0
 26 50  1  0  0  0
 26 51  1  0  0  0
 26 52  1  0  0  0
 27 28  1  0  0  0
 28 53  1  0  0  0
 28 54  1  0  0  0
 28 55  1  0  0  0
 29 30  2  0  0  0
 29 31  1  0  0  0
 31 32  1  0  0  0
 31 56  1  0  0  0
 32 37  2  0  0  0
 32 33  1  0  0  0
 33 34  2  0  0  0
 33 57  1  0  0  0
 34 35  1  0  0  0
 34 58  1  0  0  0
 35 36  2  0  0  0
 35 59  1  0  0  0
 36 37  1  0  0  0
 36 60  1  0  0  0
 37 61  1  0  0  0
M  END
> <i_i_glide_confnum>
66

> <i_i_glide_lignum>
2873

> <i_i_glide_posenum>
204

> <i_i_glide_rotatable_bonds>
8

> <i_m_Source_File_Index>
277

> <b_m_subgroup_collapsed>
0

> <r_i_docking_score>
-5.51526

> <r_i_glide_ecoul>
-4.94295

> <r_i_glide_eff_state_penalty>
0

> <r_i_glide_einternal>
13.3193

> <r_i_glide_emodel>
-67.6808

> <r_i_glide_energy>
-55.1618

> <r_i_glide_erotb>
0.490746

> <r_i_glide_esite>
-0.0919581

> <r_i_glide_evdw>
-50.2188

> <r_i_glide_gscore>
-5.51526

> <r_i_glide_hbond>
-0.16

> <r_i_glide_ligand_efficiency>
-0.153202

> <r_i_glide_ligand_efficiency_ln>
-1.20328

> <r_i_glide_ligand_efficiency_sa>
-0.50586

> <r_i_glide_lipo>
-2.43949

> <r_i_glide_metal>
0

> <r_i_glide_rewards>
-0.0621727

> <s_i_glide_gridfile>
wee1_glide-grid

> <s_m_Source_File>
wee1_decoys_glide_SP.sdf

> <s_m_Source_Path>
/Users/zhangxujun/Desktop

> <s_m_entry_id>
552

> <s_m_entry_name>
wee1_decoys_glide_SP.277

> <s_m_subgroup_title>
wee1_decoys_glide_SP

> <s_m_subgroupid>
wee1_decoys_glide_SP


$$$$
