ZINC01159664_2401
                    3D
 Schrodinger Suite 2024-2.
 44 48  0  0  1  0            999 V2000
    4.1036   53.9886   21.2302 C   0  0  0  0  0  0
    3.0339   52.5424   21.4380 S   0  0  0  0  0  0
    2.3088   52.6552   23.0415 C   0  0  0  0  0  0
    1.4769   51.6542   23.3881 N   0  0  0  0  0  0
    0.9682   51.7028   24.6422 C   0  0  0  0  0  0
    1.3268   52.7190   25.5607 C   0  0  0  0  0  0
    2.1668   53.6966   25.0981 N   0  0  0  0  0  0
    2.6558   53.6868   23.8476 N   0  0  0  0  0  0
    0.9293   52.8016   27.0393 C   0  0  0  0  0  0
    1.4962   53.8470   27.8028 C   0  0  0  0  0  0
    1.2167   54.0188   29.1548 C   0  0  0  0  0  0
    0.4195   53.0997   29.8183 C   0  0  0  0  0  0
   -0.1431   52.0504   29.1050 C   0  0  0  0  0  0
    0.0506   51.9058   27.7269 C   0  0  0  0  0  0
   -0.6719   50.8967   27.0824 N   0  0  0  0  0  0
   -0.9683   50.9275   25.7087 C   0  0  1  0  0  0
   -1.3427   51.9215   25.4805 H   0  0  0  0  0  0
    0.1030   50.6757   24.8871 O   0  0  0  0  0  0
   -1.9875   49.9020   25.3576 C   0  0  0  0  0  0
   -1.7707   48.5347   25.2816 C   0  0  0  0  0  0
   -2.9836   47.9861   24.9976 N   0  0  0  0  0  0
   -3.1661   46.9986   24.9233 H   0  0  0  0  0  0
   -3.9460   48.8950   24.8616 N   0  0  0  0  0  0
   -3.3654   50.0652   25.0634 C   0  0  0  0  0  0
   -4.1852   51.3220   25.0014 C   0  0  0  0  0  0
   -5.5197   51.2980   25.4304 C   0  0  0  0  0  0
   -6.3024   52.4476   25.3744 C   0  0  0  0  0  0
   -5.7529   53.6306   24.8924 C   0  0  0  0  0  0
   -4.4242   53.6802   24.4819 C   0  0  0  0  0  0
   -3.6520   52.5193   24.5094 C   0  0  0  0  0  0
    1.9058   55.5314   30.0809 Br  0  0  0  0  0  0
    4.5526   53.9876   20.2377 H   0  0  0  0  0  0
    4.9007   53.9864   21.9736 H   0  0  0  0  0  0
    3.5145   54.8972   21.3427 H   0  0  0  0  0  0
    2.1532   54.5803   27.3598 H   0  0  0  0  0  0
    0.2133   53.2095   30.8739 H   0  0  0  0  0  0
   -0.7911   51.3608   29.6299 H   0  0  0  0  0  0
   -0.8943   50.0483   27.6011 H   0  0  0  0  0  0
   -0.8940   47.9260   25.4585 H   0  0  0  0  0  0
   -5.9554   50.3852   25.8077 H   0  0  0  0  0  0
   -7.3331   52.4161   25.6957 H   0  0  0  0  0  0
   -6.3732   54.5107   24.8320 H   0  0  0  0  0  0
   -4.0087   54.6019   24.0986 H   0  0  0  0  0  0
   -2.6492   52.5587   24.1150 H   0  0  0  0  0  0
  1  2  1  0  0  0
  1 32  1  0  0  0
  1 33  1  0  0  0
  1 34  1  0  0  0
  2  3  1  0  0  0
  3  8  2  0  0  0
  3  4  1  0  0  0
  4  5  2  0  0  0
  5 18  1  0  0  0
  5  6  1  0  0  0
  6  7  2  0  0  0
  6  9  1  0  0  0
  7  8  1  0  0  0
  9 14  2  0  0  0
  9 10  1  0  0  0
 10 11  2  0  0  0
 10 35  1  0  0  0
 11 12  1  0  0  0
 11 31  1  0  0  0
 12 13  2  0  0  0
 12 36  1  0  0  0
 13 14  1  0  0  0
 13 37  1  0  0  0
 14 15  1  0  0  0
 15 16  1  0  0  0
 15 38  1  0  0  0
 16 17  1  0  0  0
 16 18  1  0  0  0
 16 19  1  0  0  0
 19 24  1  0  0  0
 19 20  2  0  0  0
 20 21  1  0  0  0
 20 39  1  0  0  0
 21 22  1  0  0  0
 21 23  1  0  0  0
 23 24  2  0  0  0
 24 25  1  0  0  0
 25 30  2  0  0  0
 25 26  1  0  0  0
 26 27  2  0  0  0
 26 40  1  0  0  0
 27 28  1  0  0  0
 27 41  1  0  0  0
 28 29  2  0  0  0
 28 42  1  0  0  0
 29 30  1  0  0  0
 29 43  1  0  0  0
 30 44  1  0  0  0
M  END
> <i_i_glide_confnum>
1

> <i_i_glide_lignum>
2402

> <i_i_glide_posenum>
186

> <i_i_glide_rotatable_bonds>
3

> <i_m_Source_File_Index>
2493

> <b_m_subgroup_collapsed>
0

> <r_i_docking_score>
-3.99782

> <r_i_glide_ecoul>
-1.52638

> <r_i_glide_eff_state_penalty>
0

> <r_i_glide_einternal>
0.181758

> <r_i_glide_emodel>
-48.4334

> <r_i_glide_energy>
-38.1458

> <r_i_glide_erotb>
0.184806

> <r_i_glide_esite>
-0.157396

> <r_i_glide_evdw>
-36.6194

> <r_i_glide_gscore>
-3.99782

> <r_i_glide_hbond>
-0.16

> <r_i_glide_ligand_efficiency>
-0.137856

> <r_i_glide_ligand_efficiency_ln>
-0.9154

> <r_i_glide_ligand_efficiency_sa>
-0.423537

> <r_i_glide_lipo>
-1.41463

> <r_i_glide_metal>
0

> <r_i_glide_rewards>
-0.390676

> <s_i_glide_gridfile>
wee1_glide-grid

> <s_m_Source_File>
wee1_decoys_glide_SP.sdf

> <s_m_Source_Path>
/Users/zhangxujun/Desktop

> <s_m_entry_id>
2768

> <s_m_entry_name>
wee1_decoys_glide_SP.2493

> <s_m_subgroup_title>
wee1_decoys_glide_SP

> <s_m_subgroupid>
wee1_decoys_glide_SP


$$$$
