ZINC13266642_5940
                    3D
 Schrodinger Suite 2024-2.
 50 53  0  0  1  0            999 V2000
    4.5105   53.9719   20.8865 C   0  0  0  0  0  0
    3.7616   54.0066   22.2311 C   0  0  2  0  0  0
    3.1195   54.8924   22.1878 H   0  0  0  0  0  0
    4.7023   54.1618   23.4284 C   0  0  0  0  0  0
    6.0787   54.4054   23.4542 C   0  0  0  0  0  0
    6.6264   54.5572   24.7293 C   0  0  0  0  0  0
    5.6823   54.4325   25.7301 C   0  0  0  0  0  0
    4.1145   54.1054   25.0789 S   0  0  0  0  0  0
    2.9409   52.8046   22.3606 N   0  0  0  0  0  0
    1.7201   52.7457   22.9191 C   0  0  0  0  0  0
    1.1049   53.7408   23.2989 O   0  0  0  0  0  0
    1.1405   51.3358   23.0786 C   0  0  0  0  0  0
   -0.6512   51.2579   23.4263 S   0  0  0  0  0  0
   -0.7446   51.4283   25.2420 C   0  0  0  0  0  0
    0.3405   51.6989   25.8789 N   0  0  0  0  0  0
    0.3477   51.8576   27.2677 C   0  0  0  0  0  0
    1.5486   52.1764   27.8988 C   0  0  0  0  0  0
    1.5918   52.3299   29.2936 C   0  0  0  0  0  0
    0.4157   52.1566   30.0382 C   0  0  0  0  0  0
   -0.7826   51.8290   29.4065 C   0  0  0  0  0  0
   -0.8110   51.6965   28.0181 C   0  0  0  0  0  0
   -2.1017   51.3808   27.2968 C   0  0  0  0  0  0
   -3.1836   51.2963   27.8900 O   0  0  0  0  0  0
   -1.9491   51.2636   25.9254 N   0  0  0  0  0  0
   -3.1340   50.9678   25.2023 C   0  0  0  0  0  0
   -4.0712   51.9822   24.9544 C   0  0  0  0  0  0
   -5.2466   51.6959   24.2620 C   0  0  0  0  0  0
   -5.4917   50.4030   23.8013 C   0  0  0  0  0  0
   -4.5629   49.3898   24.0405 C   0  0  0  0  0  0
   -3.3891   49.6647   24.7418 C   0  0  0  0  0  0
   -2.5030   48.6656   24.9653 F   0  0  0  0  0  0
    2.8673   52.6553   29.9917 C   0  0  0  0  0  0
    3.5079   51.6972   30.4809 O   0  0  0  0  0  0
    5.0822   54.8865   20.7239 H   0  0  0  0  0  0
    5.2021   53.1310   20.8289 H   0  0  0  0  0  0
    3.8101   53.8818   20.0544 H   0  0  0  0  0  0
    6.6779   54.4854   22.5599 H   0  0  0  0  0  0
    7.6728   54.7536   24.9026 H   0  0  0  0  0  0
    5.8245   54.4969   26.8002 H   0  0  0  0  0  0
    3.4219   51.9353   22.1962 H   0  0  0  0  0  0
    1.3051   50.7951   22.1492 H   0  0  0  0  0  0
    1.6969   50.8040   23.8499 H   0  0  0  0  0  0
    2.4410   52.3008   27.3049 H   0  0  0  0  0  0
    0.4239   52.2548   31.1165 H   0  0  0  0  0  0
   -1.6721   51.6780   30.0010 H   0  0  0  0  0  0
   -3.8917   52.9885   25.3093 H   0  0  0  0  0  0
   -5.9692   52.4798   24.0819 H   0  0  0  0  0  0
   -6.4020   50.1866   23.2627 H   0  0  0  0  0  0
   -4.7537   48.3876   23.6857 H   0  0  0  0  0  0
    3.1787   53.8650   30.0818 O   0  5  0  0  0  0
  1  2  1  0  0  0
  1 34  1  0  0  0
  1 35  1  0  0  0
  1 36  1  0  0  0
  2  3  1  0  0  0
  2  4  1  0  0  0
  2  9  1  0  0  0
  4  8  1  0  0  0
  4  5  2  0  0  0
  5  6  1  0  0  0
  5 37  1  0  0  0
  6  7  2  0  0  0
  6 38  1  0  0  0
  7  8  1  0  0  0
  7 39  1  0  0  0
  9 10  1  0  0  0
  9 40  1  0  0  0
 10 11  2  0  0  0
 10 12  1  0  0  0
 12 13  1  0  0  0
 12 41  1  0  0  0
 12 42  1  0  0  0
 13 14  1  0  0  0
 14 24  1  0  0  0
 14 15  2  0  0  0
 15 16  1  0  0  0
 16 21  2  0  0  0
 16 17  1  0  0  0
 17 18  2  0  0  0
 17 43  1  0  0  0
 18 19  1  0  0  0
 18 32  1  0  0  0
 19 20  2  0  0  0
 19 44  1  0  0  0
 20 21  1  0  0  0
 20 45  1  0  0  0
 21 22  1  0  0  0
 22 23  2  0  0  0
 22 24  1  0  0  0
 24 25  1  0  0  0
 25 30  2  0  0  0
 25 26  1  0  0  0
 26 27  2  0  0  0
 26 46  1  0  0  0
 27 28  1  0  0  0
 27 47  1  0  0  0
 28 29  2  0  0  0
 28 48  1  0  0  0
 29 30  1  0  0  0
 29 49  1  0  0  0
 30 31  1  0  0  0
 32 33  2  0  0  0
 32 50  1  0  0  0
M  CHG  1  50  -1
M  END
> <i_i_glide_confnum>
78

> <i_i_glide_lignum>
5941

> <i_i_glide_posenum>
236

> <i_i_glide_rotatable_bonds>
8

> <i_m_Source_File_Index>
5664

> <b_m_subgroup_collapsed>
0

> <r_i_docking_score>
-5.81076

> <r_i_glide_ecoul>
-7.28804

> <r_i_glide_eff_state_penalty>
0

> <r_i_glide_einternal>
8.34356

> <r_i_glide_emodel>
-68.2113

> <r_i_glide_energy>
-50.5912

> <r_i_glide_erotb>
0.522969

> <r_i_glide_esite>
-0.0871671

> <r_i_glide_evdw>
-43.3031

> <r_i_glide_gscore>
-5.81076

> <r_i_glide_hbond>
-0.32

> <r_i_glide_ligand_efficiency>
-0.176084

> <r_i_glide_ligand_efficiency_ln>
-1.29228

> <r_i_glide_ligand_efficiency_sa>
-0.564794

> <r_i_glide_lipo>
-2.10424

> <r_i_glide_metal>
0

> <r_i_glide_rewards>
-0.563952

> <s_i_glide_gridfile>
wee1_glide-grid

> <s_m_Source_File>
wee1_decoys_glide_SP.sdf

> <s_m_Source_Path>
/Users/zhangxujun/Desktop

> <s_m_entry_id>
5939

> <s_m_entry_name>
wee1_decoys_glide_SP.5664

> <s_m_subgroup_title>
wee1_decoys_glide_SP

> <s_m_subgroupid>
wee1_decoys_glide_SP


$$$$
