ZINC34998817_5395
                    3D
 Schrodinger Suite 2024-2.
 73 75  0  0  1  0            999 V2000
   -3.3250   46.4190   19.2556 C   0  0  0  0  0  0
   -3.2076   47.8760   19.7302 C   0  0  0  0  0  0
   -2.1418   48.7006   18.9555 C   0  0  1  0  0  0
   -1.2878   48.0477   18.7655 H   0  0  0  0  0  0
   -2.7003   49.0530   17.5559 C   0  0  0  0  0  0
   -1.6141   49.9425   19.7730 C   0  0  1  0  0  0
   -2.5042   50.4124   20.1954 H   0  0  0  0  0  0
   -0.7616   49.5059   21.0185 C   0  0  0  0  0  0
   -0.4667   48.3111   21.1398 O   0  0  0  0  0  0
   -0.3721   50.4378   21.9376 N   0  0  0  0  0  0
   -0.6277   51.8784   21.8209 C   0  0  0  0  0  0
    0.7491   52.5243   21.5574 C   0  0  0  0  0  0
    1.5437   52.2956   22.7775 N   0  0  0  0  0  0
    1.8309   50.8688   23.0672 C   0  0  1  0  0  0
    2.2766   50.7615   24.0510 H   0  0  0  0  0  0
    0.4762   50.0839   23.1016 C   0  0  0  0  0  0
    2.8136   50.2454   22.0628 C   0  0  0  0  0  0
    1.8369   53.3698   23.5670 C   0  0  0  0  0  0
    1.4611   54.5034   23.2824 O   0  0  0  0  0  0
    2.6523   53.2718   24.8609 C   0  0  0  0  0  0
    4.0350   53.9579   24.7158 C   0  0  0  0  0  0
    4.6434   54.4626   26.0363 C   0  0  0  0  0  0
    4.7342   53.4468   27.1813 C   0  0  0  0  0  0
    5.7978   54.0001   28.1321 C   0  0  0  0  0  0
    6.7022   54.8977   27.2776 C   0  0  0  0  0  0
    6.0969   54.9296   25.8746 C   0  0  0  0  0  0
   -0.8973   50.9111   18.9174 N   0  0  0  0  0  0
   -1.3996   52.0923   18.5081 C   0  0  0  0  0  0
   -2.5158   52.4982   18.8475 O   0  0  0  0  0  0
   -0.5109   52.7931   17.7768 N   0  0  0  0  0  0
   -0.6294   54.1103   17.2828 C   0  0  0  0  0  0
   -1.8638   54.7567   17.0822 C   0  0  0  0  0  0
   -1.9095   56.0775   16.6374 C   0  0  0  0  0  0
   -0.7272   56.7689   16.3803 C   0  0  0  0  0  0
    0.5007   56.1322   16.5502 C   0  0  0  0  0  0
    0.5552   54.8091   16.9944 C   0  0  0  0  0  0
    2.2718   54.0045   17.2282 Br  0  0  0  0  0  0
   -3.8907   45.8231   19.9732 H   0  0  0  0  0  0
   -3.8400   46.3495   18.2965 H   0  0  0  0  0  0
   -2.3412   45.9586   19.1479 H   0  0  0  0  0  0
   -2.9938   47.8598   20.7986 H   0  0  0  0  0  0
   -4.1812   48.3636   19.6442 H   0  0  0  0  0  0
   -3.5821   49.6932   17.6289 H   0  0  0  0  0  0
   -1.9636   49.5729   16.9407 H   0  0  0  0  0  0
   -2.9818   48.1556   17.0000 H   0  0  0  0  0  0
   -1.3923   52.1513   21.1017 H   0  0  0  0  0  0
   -1.0338   52.2435   22.7660 H   0  0  0  0  0  0
    1.2321   52.0576   20.6987 H   0  0  0  0  0  0
    0.7047   53.5762   21.2817 H   0  0  0  0  0  0
   -0.0574   50.3351   24.0188 H   0  0  0  0  0  0
    0.6740   49.0124   23.1514 H   0  0  0  0  0  0
    3.0307   49.2129   22.3379 H   0  0  0  0  0  0
    2.4044   50.2032   21.0538 H   0  0  0  0  0  0
    3.7493   50.8031   22.0258 H   0  0  0  0  0  0
    2.0723   53.8113   25.6129 H   0  0  0  0  0  0
    2.7181   52.2702   25.2601 H   0  0  0  0  0  0
    4.7335   53.2956   24.2101 H   0  0  0  0  0  0
    3.9624   54.8277   24.0586 H   0  0  0  0  0  0
    4.0611   55.2992   26.4194 H   0  0  0  0  0  0
    3.7738   53.2315   27.6513 H   0  0  0  0  0  0
    5.1058   52.5004   26.7975 H   0  0  0  0  0  0
    5.3278   54.5896   28.9215 H   0  0  0  0  0  0
    6.3596   53.2020   28.6159 H   0  0  0  0  0  0
    6.7043   55.9070   27.6816 H   0  0  0  0  0  0
    7.7310   54.5351   27.2756 H   0  0  0  0  0  0
    6.6482   54.2065   25.2690 H   0  0  0  0  0  0
    6.1828   55.8908   25.3639 H   0  0  0  0  0  0
    0.0193   50.6229   18.6065 H   0  0  0  0  0  0
    0.4032   52.3831   17.6476 H   0  0  0  0  0  0
   -2.8019   54.2479   17.2489 H   0  0  0  0  0  0
   -2.8633   56.5627   16.4836 H   0  0  0  0  0  0
   -0.7587   57.7937   16.0383 H   0  0  0  0  0  0
    1.4154   56.6708   16.3469 H   0  0  0  0  0  0
  1  2  1  0  0  0
  1 38  1  0  0  0
  1 39  1  0  0  0
  1 40  1  0  0  0
  2  3  1  0  0  0
  2 41  1  0  0  0
  2 42  1  0  0  0
  3  4  1  0  0  0
  3  5  1  0  0  0
  3  6  1  0  0  0
  5 43  1  0  0  0
  5 44  1  0  0  0
  5 45  1  0  0  0
  6  7  1  0  0  0
  6  8  1  0  0  0
  6 27  1  0  0  0
  8  9  2  0  0  0
  8 10  1  0  0  0
 10 16  1  0  0  0
 10 11  1  0  0  0
 11 12  1  0  0  0
 11 46  1  0  0  0
 11 47  1  0  0  0
 12 13  1  0  0  0
 12 48  1  0  0  0
 12 49  1  0  0  0
 13 14  1  0  0  0
 13 18  1  0  0  0
 14 15  1  0  0  0
 14 16  1  0  0  0
 14 17  1  0  0  0
 16 50  1  0  0  0
 16 51  1  0  0  0
 17 52  1  0  0  0
 17 53  1  0  0  0
 17 54  1  0  0  0
 18 19  2  0  0  0
 18 20  1  0  0  0
 20 21  1  0  0  0
 20 55  1  0  0  0
 20 56  1  0  0  0
 21 22  1  0  0  0
 21 57  1  0  0  0
 21 58  1  0  0  0
 22 26  1  0  0  0
 22 23  1  0  0  0
 22 59  1  0  0  0
 23 24  1  0  0  0
 23 60  1  0  0  0
 23 61  1  0  0  0
 24 25  1  0  0  0
 24 62  1  0  0  0
 24 63  1  0  0  0
 25 26  1  0  0  0
 25 64  1  0  0  0
 25 65  1  0  0  0
 26 66  1  0  0  0
 26 67  1  0  0  0
 27 28  1  0  0  0
 27 68  1  0  0  0
 28 29  2  0  0  0
 28 30  1  0  0  0
 30 31  1  0  0  0
 30 69  1  0  0  0
 31 36  2  0  0  0
 31 32  1  0  0  0
 32 33  2  0  0  0
 32 70  1  0  0  0
 33 34  1  0  0  0
 33 71  1  0  0  0
 34 35  2  0  0  0
 34 72  1  0  0  0
 35 36  1  0  0  0
 35 73  1  0  0  0
 36 37  1  0  0  0
M  END
> <i_i_glide_confnum>
55

> <i_i_glide_lignum>
5396

> <i_i_glide_posenum>
197

> <i_i_glide_rotatable_bonds>
12

> <i_m_Source_File_Index>
6054

> <b_m_subgroup_collapsed>
0

> <r_i_docking_score>
-4.63849

> <r_i_glide_ecoul>
-4.776

> <r_i_glide_eff_state_penalty>
0

> <r_i_glide_einternal>
8.53304

> <r_i_glide_emodel>
-46.1596

> <r_i_glide_energy>
-38.4444

> <r_i_glide_erotb>
0.647901

> <r_i_glide_esite>
-0.0321549

> <r_i_glide_evdw>
-33.6684

> <r_i_glide_gscore>
-4.63849

> <r_i_glide_hbond>
-0.32

> <r_i_glide_ligand_efficiency>
-0.136426

> <r_i_glide_ligand_efficiency_ln>
-1.02477

> <r_i_glide_ligand_efficiency_sa>
-0.441968

> <r_i_glide_lipo>
-2.07368

> <r_i_glide_metal>
0

> <r_i_glide_rewards>
-0.460734

> <s_i_glide_gridfile>
wee1_glide-grid

> <s_m_Source_File>
wee1_decoys_glide_SP.sdf

> <s_m_Source_Path>
/Users/zhangxujun/Desktop

> <s_m_entry_id>
6329

> <s_m_entry_name>
wee1_decoys_glide_SP.6054

> <s_m_subgroup_title>
wee1_decoys_glide_SP

> <s_m_subgroupid>
wee1_decoys_glide_SP


$$$$
