ZINC24976263_2717
                    3D
 Schrodinger Suite 2024-2.
 53 56  0  0  1  0            999 V2000
    2.9567   53.6264   29.5112 C   0  0  0  0  0  0
    3.5710   53.8599   28.1430 C   0  0  0  0  0  0
    2.8002   53.6976   26.9914 C   0  0  0  0  0  0
    3.3617   53.9011   25.7324 C   0  0  0  0  0  0
    4.7130   54.2634   25.6061 C   0  0  0  0  0  0
    5.4875   54.4321   26.7702 C   0  0  0  0  0  0
    4.9148   54.2221   28.0278 C   0  0  0  0  0  0
    6.9553   54.8336   26.6972 C   0  0  0  0  0  0
    5.3359   54.4961   24.3612 N   0  0  0  0  0  0
    4.9788   54.0968   23.1186 C   0  0  0  0  0  0
    3.9991   53.3945   22.8699 O   0  0  0  0  0  0
    5.8601   54.6095   21.9949 C   0  0  0  0  0  0
    5.4258   54.5090   20.6650 C   0  0  0  0  0  0
    6.1993   55.0167   19.6235 C   0  0  0  0  0  0
    7.4342   55.6205   19.8849 C   0  0  0  0  0  0
    7.8815   55.6960   21.2013 C   0  0  0  0  0  0
    7.1041   55.2095   22.2459 C   0  0  0  0  0  0
    8.2420   56.2293   18.9112 N   0  0  0  0  0  0
    8.2952   55.8678   17.1752 S   0  0  0  0  0  0
    6.9459   55.5146   16.7125 O   0  0  0  0  0  0
    9.0147   56.9927   16.5713 O   0  0  0  0  0  0
    9.3509   54.4341   16.9957 C   0  0  0  0  0  0
   10.7379   54.5909   17.1052 C   0  0  0  0  0  0
   11.5901   53.5081   16.8821 C   0  0  0  0  0  0
   11.0550   52.2650   16.5566 C   0  0  0  0  0  0
    9.6631   52.0942   16.4827 C   0  0  0  0  0  0
    8.8097   53.1777   16.6936 C   0  0  0  0  0  0
    9.0929   50.8900   16.1268 O   0  0  0  0  0  0
    9.9560   49.7619   16.2998 C   0  0  0  0  0  0
   11.3673   50.0692   15.7416 C   0  0  0  0  0  0
   11.9324   51.2105   16.3976 O   0  0  0  0  0  0
    2.1952   52.8470   29.4649 H   0  0  0  0  0  0
    2.4942   54.5433   29.8782 H   0  0  0  0  0  0
    3.7083   53.2910   30.2276 H   0  0  0  0  0  0
    1.7589   53.4160   27.0681 H   0  0  0  0  0  0
    2.7271   53.7802   24.8693 H   0  0  0  0  0  0
    5.5137   54.3449   28.9185 H   0  0  0  0  0  0
    7.0571   55.8002   26.2034 H   0  0  0  0  0  0
    7.4209   54.8975   27.6811 H   0  0  0  0  0  0
    7.5016   54.0962   26.1116 H   0  0  0  0  0  0
    6.2037   54.9992   24.4222 H   0  0  0  0  0  0
    4.4696   54.0598   20.4267 H   0  0  0  0  0  0
    5.7926   54.9445   18.6294 H   0  0  0  0  0  0
    8.8404   56.1353   21.4296 H   0  0  0  0  0  0
    7.5029   55.3047   23.2443 H   0  0  0  0  0  0
    8.9981   56.8119   19.2405 H   0  0  0  0  0  0
   11.1589   55.5573   17.3458 H   0  0  0  0  0  0
   12.6595   53.6303   16.9602 H   0  0  0  0  0  0
    7.7417   53.0419   16.5948 H   0  0  0  0  0  0
    9.5250   48.9022   15.7888 H   0  0  0  0  0  0
   10.0305   49.5230   17.3629 H   0  0  0  0  0  0
   11.2944   50.2657   14.6699 H   0  0  0  0  0  0
   12.0267   49.2130   15.8793 H   0  0  0  0  0  0
  1  2  1  0  0  0
  1 32  1  0  0  0
  1 33  1  0  0  0
  1 34  1  0  0  0
  2  7  2  0  0  0
  2  3  1  0  0  0
  3  4  2  0  0  0
  3 35  1  0  0  0
  4  5  1  0  0  0
  4 36  1  0  0  0
  5  6  2  0  0  0
  5  9  1  0  0  0
  6  7  1  0  0  0
  6  8  1  0  0  0
  7 37  1  0  0  0
  8 38  1  0  0  0
  8 39  1  0  0  0
  8 40  1  0  0  0
  9 10  1  0  0  0
  9 41  1  0  0  0
 10 11  2  0  0  0
 10 12  1  0  0  0
 12 17  2  0  0  0
 12 13  1  0  0  0
 13 14  2  0  0  0
 13 42  1  0  0  0
 14 15  1  0  0  0
 14 43  1  0  0  0
 15 16  2  0  0  0
 15 18  1  0  0  0
 16 17  1  0  0  0
 16 44  1  0  0  0
 17 45  1  0  0  0
 18 19  1  0  0  0
 18 46  1  0  0  0
 19 20  2  0  0  0
 19 21  2  0  0  0
 19 22  1  0  0  0
 22 27  2  0  0  0
 22 23  1  0  0  0
 23 24  2  0  0  0
 23 47  1  0  0  0
 24 25  1  0  0  0
 24 48  1  0  0  0
 25 31  1  0  0  0
 25 26  2  0  0  0
 26 27  1  0  0  0
 26 28  1  0  0  0
 27 49  1  0  0  0
 28 29  1  0  0  0
 29 30  1  0  0  0
 29 50  1  0  0  0
 29 51  1  0  0  0
 30 31  1  0  0  0
 30 52  1  0  0  0
 30 53  1  0  0  0
M  END
> <i_i_glide_confnum>
32

> <i_i_glide_lignum>
2718

> <i_i_glide_posenum>
331

> <i_i_glide_rotatable_bonds>
6

> <i_m_Source_File_Index>
3836

> <b_m_subgroup_collapsed>
0

> <r_i_docking_score>
-5.16372

> <r_i_glide_ecoul>
-0.658719

> <r_i_glide_eff_state_penalty>
0

> <r_i_glide_einternal>
2.5904

> <r_i_glide_emodel>
-55.1406

> <r_i_glide_energy>
-42.7771

> <r_i_glide_erotb>
0.62254

> <r_i_glide_esite>
0

> <r_i_glide_evdw>
-42.1184

> <r_i_glide_gscore>
-5.16372

> <r_i_glide_hbond>
0

> <r_i_glide_ligand_efficiency>
-0.166572

> <r_i_glide_ligand_efficiency_ln>
-1.16458

> <r_i_glide_ligand_efficiency_sa>
-0.523265

> <r_i_glide_lipo>
-2.94403

> <r_i_glide_metal>
0

> <r_i_glide_rewards>
-0.637507

> <s_i_glide_gridfile>
wee1_glide-grid

> <s_m_Source_File>
wee1_decoys_glide_SP.sdf

> <s_m_Source_Path>
/Users/zhangxujun/Desktop

> <s_m_entry_id>
4111

> <s_m_entry_name>
wee1_decoys_glide_SP.3836

> <s_m_subgroup_title>
wee1_decoys_glide_SP

> <s_m_subgroupid>
wee1_decoys_glide_SP


$$$$
