ZINC02196000_2692
                    3D
 Schrodinger Suite 2024-2.
 49 53  0  0  1  0            999 V2000
   -0.4956   52.0961   30.1648 C   0  0  0  0  0  0
    0.4216   53.0579   30.5762 C   0  0  0  0  0  0
    1.2836   53.6493   29.6538 C   0  0  0  0  0  0
    1.2208   53.2694   28.2947 C   0  0  0  0  0  0
    0.2726   52.2867   27.8839 C   0  0  0  0  0  0
   -0.5794   51.6969   28.8361 C   0  0  0  0  0  0
    0.1832   51.9261   26.5755 N   0  0  0  0  0  0
    0.9838   52.5016   25.6779 C   0  0  0  0  0  0
    1.0718   52.4020   24.2584 C   0  0  0  0  0  0
    2.1179   53.2299   23.8743 C   0  0  0  0  0  0
    2.6589   53.8548   24.9969 N   0  0  0  0  0  0
    1.9375   53.4474   26.1057 C   0  0  0  0  0  0
    2.0540   53.8331   27.3802 N   0  0  0  0  0  0
    3.7856   54.7971   25.0345 C   0  0  0  0  0  0
    5.0782   54.1415   25.5618 C   0  0  1  0  0  0
    5.3348   53.2970   24.9277 H   0  0  0  0  0  0
    6.2712   55.0935   25.6844 C   0  0  0  0  0  0
    6.8618   54.7993   27.0513 C   0  0  0  0  0  0
    6.0519   53.6418   27.6119 C   0  0  0  0  0  0
    4.8342   53.7104   26.8974 O   0  0  0  0  0  0
    2.5941   53.4695   22.6165 N   0  0  0  0  0  0
   -0.0052   51.4130   23.1972 S   0  0  0  0  0  0
   -0.0741   52.0967   21.8999 O   0  0  0  0  0  0
    0.4534   50.0230   23.3059 O   0  0  0  0  0  0
   -1.6144   51.5383   23.9775 C   0  0  0  0  0  0
   -2.3997   52.6707   23.7536 C   0  0  0  0  0  0
   -3.6099   52.8192   24.4238 C   0  0  0  0  0  0
   -4.0306   51.8341   25.3163 C   0  0  0  0  0  0
   -3.2555   50.6954   25.5333 C   0  0  0  0  0  0
   -2.0499   50.5406   24.8555 C   0  0  0  0  0  0
   -5.5179   52.0373   26.1647 Cl  0  0  0  0  0  0
   -1.1557   51.6307   30.8819 H   0  0  0  0  0  0
    0.4610   53.3404   31.6177 H   0  0  0  0  0  0
    1.9986   54.3967   29.9666 H   0  0  0  0  0  0
   -1.2908   50.9397   28.5328 H   0  0  0  0  0  0
    3.9474   55.2116   24.0429 H   0  0  0  0  0  0
    3.5044   55.6287   25.6808 H   0  0  0  0  0  0
    7.0037   54.9337   24.8918 H   0  0  0  0  0  0
    5.9499   56.1326   25.6793 H   0  0  0  0  0  0
    7.9045   54.5078   27.0103 H   0  0  0  0  0  0
    6.7689   55.6873   27.6814 H   0  0  0  0  0  0
    6.5176   52.6721   27.4412 H   0  0  0  0  0  0
    5.8764   53.7190   28.6844 H   0  0  0  0  0  0
    2.1090   53.0970   21.8088 H   0  0  0  0  0  0
    3.3666   54.0880   22.4257 H   0  0  0  0  0  0
   -2.0637   53.4430   23.0784 H   0  0  0  0  0  0
   -4.2157   53.6987   24.2599 H   0  0  0  0  0  0
   -3.5779   49.9388   26.2351 H   0  0  0  0  0  0
   -1.4392   49.6683   25.0467 H   0  0  0  0  0  0
  1  6  2  0  0  0
  1  2  1  0  0  0
  1 32  1  0  0  0
  2  3  2  0  0  0
  2 33  1  0  0  0
  3  4  1  0  0  0
  3 34  1  0  0  0
  4 13  2  0  0  0
  4  5  1  0  0  0
  5  6  1  0  0  0
  5  7  2  0  0  0
  6 35  1  0  0  0
  7  8  1  0  0  0
  8 12  2  0  0  0
  8  9  1  0  0  0
  9 10  2  0  0  0
  9 22  1  0  0  0
 10 11  1  0  0  0
 10 21  1  0  0  0
 11 12  1  0  0  0
 11 14  1  0  0  0
 12 13  1  0  0  0
 14 15  1  0  0  0
 14 36  1  0  0  0
 14 37  1  0  0  0
 15 16  1  0  0  0
 15 20  1  0  0  0
 15 17  1  0  0  0
 17 18  1  0  0  0
 17 38  1  0  0  0
 17 39  1  0  0  0
 18 19  1  0  0  0
 18 40  1  0  0  0
 18 41  1  0  0  0
 19 20  1  0  0  0
 19 42  1  0  0  0
 19 43  1  0  0  0
 21 44  1  0  0  0
 21 45  1  0  0  0
 22 23  2  0  0  0
 22 24  2  0  0  0
 22 25  1  0  0  0
 25 30  2  0  0  0
 25 26  1  0  0  0
 26 27  2  0  0  0
 26 46  1  0  0  0
 27 28  1  0  0  0
 27 47  1  0  0  0
 28 29  2  0  0  0
 28 31  1  0  0  0
 29 30  1  0  0  0
 29 48  1  0  0  0
 30 49  1  0  0  0
M  END
> <i_i_glide_confnum>
22

> <i_i_glide_lignum>
2693

> <i_i_glide_posenum>
273

> <i_i_glide_rotatable_bonds>
4

> <i_m_Source_File_Index>
3371

> <b_m_subgroup_collapsed>
0

> <r_i_docking_score>
-5.18462

> <r_i_glide_ecoul>
-1.04417

> <r_i_glide_eff_state_penalty>
0

> <r_i_glide_einternal>
5.51311

> <r_i_glide_emodel>
-53.7138

> <r_i_glide_energy>
-42.5151

> <r_i_glide_erotb>
0.407536

> <r_i_glide_esite>
0

> <r_i_glide_evdw>
-41.4709

> <r_i_glide_gscore>
-5.18462

> <r_i_glide_hbond>
0

> <r_i_glide_ligand_efficiency>
-0.172821

> <r_i_glide_ligand_efficiency_ln>
-1.178

> <r_i_glide_ligand_efficiency_sa>
-0.536994

> <r_i_glide_lipo>
-2.40984

> <r_i_glide_metal>
0

> <r_i_glide_rewards>
-0.952143

> <s_i_glide_gridfile>
wee1_glide-grid

> <s_m_Source_File>
wee1_decoys_glide_SP.sdf

> <s_m_Source_Path>
/Users/zhangxujun/Desktop

> <s_m_entry_id>
3646

> <s_m_entry_name>
wee1_decoys_glide_SP.3371

> <s_m_subgroup_title>
wee1_decoys_glide_SP

> <s_m_subgroupid>
wee1_decoys_glide_SP


$$$$
