ZINC36648069_1103
                    3D
 Schrodinger Suite 2024-2.
 65 68  0  0  1  0            999 V2000
    0.5197   51.4781   24.3285 C   0  0  0  0  0  0
    0.4304   52.8995   23.7464 C   0  0  0  0  0  0
    1.6688   53.3404   23.1889 O   0  0  0  0  0  0
    2.7230   53.6980   24.0128 C   0  0  0  0  0  0
    2.6870   53.7683   25.4156 C   0  0  0  0  0  0
    3.8062   54.1552   26.1535 C   0  0  0  0  0  0
    5.0117   54.4806   25.5350 C   0  0  0  0  0  0
    5.0670   54.4097   24.1369 C   0  0  0  0  0  0
    3.9313   54.0304   23.3660 C   0  0  0  0  0  0
    4.1326   54.0178   22.0191 N   0  0  0  0  0  0
    5.3363   54.4116   21.6947 C   0  0  0  0  0  0
    6.4147   54.7342   23.0586 S   0  0  0  0  0  0
    5.7636   54.5124   20.3539 N   0  0  0  0  0  0
    5.1974   53.5123   19.4146 C   0  0  0  0  0  0
    3.9469   54.0193   18.6578 C   0  0  0  0  0  0
    3.4557   53.0470   17.5548 N   0  3  0  0  0  0
    4.5085   52.7311   16.4669 C   0  0  0  0  0  0
    2.8014   51.7683   18.1265 C   0  0  0  0  0  0
    6.5213   55.5843   19.9377 C   0  0  0  0  0  0
    6.8539   56.4964   20.7043 O   0  0  0  0  0  0
    6.9875   55.7014   18.4511 C   0  0  1  0  0  0
    6.5204   54.9101   17.8771 H   0  0  0  0  0  0
    6.5793   57.0463   17.7807 C   0  0  0  0  0  0
    7.3559   58.2785   18.2808 C   0  0  0  0  0  0
    8.8745   58.0253   18.1746 C   0  0  0  0  0  0
    9.3315   56.6839   18.7981 C   0  0  0  0  0  0
    8.4722   55.5163   18.4288 N   0  0  0  0  0  0
    9.1464   54.2810   17.3503 S   0  0  0  0  0  0
   10.5681   54.0973   17.6576 O   0  0  0  0  0  0
    8.2161   53.1478   17.2803 O   0  0  0  0  0  0
    9.0553   55.1302   15.7606 C   0  0  0  0  0  0
    8.0008   55.0469   14.8608 C   0  0  0  0  0  0
    8.2174   55.8118   13.7095 C   0  0  0  0  0  0
    9.4482   56.4571   13.7234 C   0  0  0  0  0  0
   10.3508   56.1187   15.1646 S   0  0  0  0  0  0
   -0.4641   51.1253   24.6401 H   0  0  0  0  0  0
    1.1736   51.4296   25.1985 H   0  0  0  0  0  0
    0.9056   50.7740   23.5861 H   0  0  0  0  0  0
   -0.3012   52.8951   22.9361 H   0  0  0  0  0  0
    0.0509   53.6128   24.4810 H   0  0  0  0  0  0
    1.7844   53.5361   25.9590 H   0  0  0  0  0  0
    3.7356   54.1943   27.2302 H   0  0  0  0  0  0
    5.8765   54.7664   26.1176 H   0  0  0  0  0  0
    5.9675   53.1498   18.7365 H   0  0  0  0  0  0
    4.9222   52.6207   19.9776 H   0  0  0  0  0  0
    3.1048   54.1384   19.3343 H   0  0  0  0  0  0
    4.1068   54.9708   18.1488 H   0  0  0  0  0  0
    5.2935   52.0999   16.8818 H   0  0  0  0  0  0
    3.9923   52.2036   15.6641 H   0  0  0  0  0  0
    4.9122   53.6792   16.1123 H   0  0  0  0  0  0
    3.5044   51.2807   18.7972 H   0  0  0  0  0  0
    1.9061   52.0793   18.6663 H   0  0  0  0  0  0
    2.5483   51.1123   17.2934 H   0  0  0  0  0  0
    6.8408   56.9630   16.7245 H   0  0  0  0  0  0
    5.4972   57.1860   17.7718 H   0  0  0  0  0  0
    7.0853   59.1545   17.6884 H   0  0  0  0  0  0
    7.0760   58.5333   19.3015 H   0  0  0  0  0  0
    9.1557   58.0362   17.1216 H   0  0  0  0  0  0
    9.4275   58.8447   18.6322 H   0  0  0  0  0  0
   10.3540   56.4756   18.4805 H   0  0  0  0  0  0
    9.3884   56.7294   19.8866 H   0  0  0  0  0  0
    7.1112   54.4596   15.0309 H   0  0  0  0  0  0
    7.5097   55.8849   12.8953 H   0  0  0  0  0  0
    9.8647   57.1015   12.9628 H   0  0  0  0  0  0
    2.7115   53.5348   17.0727 H   0  0  0  0  0  0
  1  2  1  0  0  0
  1 36  1  0  0  0
  1 37  1  0  0  0
  1 38  1  0  0  0
  2  3  1  0  0  0
  2 39  1  0  0  0
  2 40  1  0  0  0
  3  4  1  0  0  0
  4  9  2  0  0  0
  4  5  1  0  0  0
  5  6  2  0  0  0
  5 41  1  0  0  0
  6  7  1  0  0  0
  6 42  1  0  0  0
  7  8  2  0  0  0
  7 43  1  0  0  0
  8 12  1  0  0  0
  8  9  1  0  0  0
  9 10  1  0  0  0
 10 11  2  0  0  0
 11 12  1  0  0  0
 11 13  1  0  0  0
 13 14  1  0  0  0
 13 19  1  0  0  0
 14 15  1  0  0  0
 14 44  1  0  0  0
 14 45  1  0  0  0
 15 16  1  0  0  0
 15 46  1  0  0  0
 15 47  1  0  0  0
 16 17  1  0  0  0
 16 18  1  0  0  0
 16 65  1  0  0  0
 17 48  1  0  0  0
 17 49  1  0  0  0
 17 50  1  0  0  0
 18 51  1  0  0  0
 18 52  1  0  0  0
 18 53  1  0  0  0
 19 20  2  0  0  0
 19 21  1  0  0  0
 21 22  1  0  0  0
 21 27  1  0  0  0
 21 23  1  0  0  0
 23 24  1  0  0  0
 23 54  1  0  0  0
 23 55  1  0  0  0
 24 25  1  0  0  0
 24 56  1  0  0  0
 24 57  1  0  0  0
 25 26  1  0  0  0
 25 58  1  0  0  0
 25 59  1  0  0  0
 26 27  1  0  0  0
 26 60  1  0  0  0
 26 61  1  0  0  0
 27 28  1  0  0  0
 28 29  2  0  0  0
 28 30  2  0  0  0
 28 31  1  0  0  0
 31 35  1  0  0  0
 31 32  2  0  0  0
 32 33  1  0  0  0
 32 62  1  0  0  0
 33 34  2  0  0  0
 33 63  1  0  0  0
 34 35  1  0  0  0
 34 64  1  0  0  0
M  CHG  1  16   1
M  END
> <i_i_glide_confnum>
302

> <i_i_glide_lignum>
1104

> <i_i_glide_posenum>
271

> <i_i_glide_rotatable_bonds>
10

> <i_m_Source_File_Index>
6046

> <b_m_subgroup_collapsed>
0

> <r_i_docking_score>
-5.02163

> <r_i_glide_ecoul>
-4.22944

> <r_i_glide_eff_state_penalty>
0

> <r_i_glide_einternal>
7.01265

> <r_i_glide_emodel>
-54.2284

> <r_i_glide_energy>
-42.5867

> <r_i_glide_erotb>
0.600033

> <r_i_glide_esite>
-0.041912

> <r_i_glide_evdw>
-38.3573

> <r_i_glide_gscore>
-5.02163

> <r_i_glide_hbond>
-0.2649

> <r_i_glide_ligand_efficiency>
-0.147695

> <r_i_glide_ligand_efficiency_ln>
-1.10942

> <r_i_glide_ligand_efficiency_sa>
-0.478475

> <r_i_glide_lipo>
-2.16811

> <r_i_glide_metal>
0

> <r_i_glide_rewards>
-0.594462

> <s_i_glide_gridfile>
wee1_glide-grid

> <s_m_Source_File>
wee1_decoys_glide_SP.sdf

> <s_m_Source_Path>
/Users/zhangxujun/Desktop

> <s_m_entry_id>
6321

> <s_m_entry_name>
wee1_decoys_glide_SP.6046

> <s_m_subgroup_title>
wee1_decoys_glide_SP

> <s_m_subgroupid>
wee1_decoys_glide_SP


$$$$
