ZINC44737114_5567
                    3D
 Schrodinger Suite 2024-2.
 65 69  0  0  1  0            999 V2000
   -7.0671   51.8089   28.2167 C   0  0  0  0  0  0
   -5.7789   51.9354   27.4275 C   0  0  0  0  0  0
   -5.6578   52.9597   26.4814 C   0  0  0  0  0  0
   -4.4974   53.1237   25.7237 C   0  0  0  0  0  0
   -3.4481   52.2191   25.9271 C   0  0  0  0  0  0
   -3.5858   51.1821   26.8835 C   0  0  0  0  0  0
   -4.7420   51.0223   27.6517 C   0  0  0  0  0  0
   -2.3957   50.4967   26.7998 N   0  0  0  0  0  0
   -1.6362   51.1045   25.8203 C   0  0  0  0  0  0
   -2.2289   52.1609   25.3091 N   0  0  0  0  0  0
   -0.2498   50.5815   25.4355 C   0  0  1  0  0  0
    0.3540   50.6584   26.3411 H   0  0  0  0  0  0
   -0.2593   49.0927   25.0407 C   0  0  0  0  0  0
    0.4802   51.4287   24.4784 N   0  0  0  0  0  0
    0.2709   51.6131   23.1528 C   0  0  0  0  0  0
   -0.6831   51.1111   22.5629 O   0  0  0  0  0  0
    1.2382   52.5467   22.3512 C   0  0  1  0  0  0
    0.7044   53.4682   22.1475 H   0  0  0  0  0  0
    2.4304   52.9570   23.2499 C   0  0  0  0  0  0
    3.5489   53.1719   22.3413 N   0  0  0  0  0  0
    3.1896   52.7815   20.9767 C   0  0  0  0  0  0
    1.8818   51.9551   21.0579 C   0  0  0  0  0  0
    2.1736   50.4252   21.1428 C   0  0  0  0  0  0
    2.9953   49.9261   19.9363 C   0  0  0  0  0  0
    2.2999   50.2950   18.6053 N   0  3  0  0  0  0
    1.7885   51.7545   18.5107 C   0  0  0  0  0  0
    0.9962   52.0931   19.7945 C   0  0  0  0  0  0
    4.7263   53.8164   22.5869 C   0  0  0  0  0  0
    5.4961   54.0618   21.6537 O   0  0  0  0  0  0
    5.1622   54.2565   23.9864 C   0  0  0  0  0  0
    6.2437   55.1461   24.0928 C   0  0  0  0  0  0
    6.7046   55.5835   25.3304 C   0  0  0  0  0  0
    6.1548   55.0782   26.5062 C   0  0  0  0  0  0
    5.0931   54.1859   26.4336 C   0  0  0  0  0  0
    4.5892   53.8013   25.1918 C   0  0  0  0  0  0
    4.3424   53.4722   28.0309 Br  0  0  0  0  0  0
   -7.9244   51.8679   27.5454 H   0  0  0  0  0  0
   -7.1362   50.8561   28.7435 H   0  0  0  0  0  0
   -7.1550   52.6237   28.9371 H   0  0  0  0  0  0
   -6.4836   53.6411   26.3303 H   0  0  0  0  0  0
   -4.4127   53.9162   24.9950 H   0  0  0  0  0  0
   -4.8250   50.2239   28.3764 H   0  0  0  0  0  0
   -0.5901   48.4643   25.8694 H   0  0  0  0  0  0
   -0.9302   48.9065   24.1999 H   0  0  0  0  0  0
    0.7369   48.7470   24.7546 H   0  0  0  0  0  0
    1.2367   51.9501   24.8896 H   0  0  0  0  0  0
    2.1774   53.8432   23.8350 H   0  0  0  0  0  0
    2.7055   52.0932   23.8489 H   0  0  0  0  0  0
    3.9917   52.3555   20.3793 H   0  0  0  0  0  0
    2.9512   53.7109   20.4607 H   0  0  0  0  0  0
    2.7629   50.2221   22.0384 H   0  0  0  0  0  0
    1.2631   49.8355   21.2588 H   0  0  0  0  0  0
    3.9828   50.3745   19.8892 H   0  0  0  0  0  0
    3.1037   48.8421   19.9152 H   0  0  0  0  0  0
    2.9596   50.1029   17.8481 H   0  0  0  0  0  0
    2.6684   52.3832   18.3638 H   0  0  0  0  0  0
    1.1721   51.8041   17.6110 H   0  0  0  0  0  0
    0.0697   51.5252   19.8837 H   0  0  0  0  0  0
    0.6898   53.1354   19.6962 H   0  0  0  0  0  0
    6.7393   55.5353   23.2126 H   0  0  0  0  0  0
    7.5029   56.3085   25.3612 H   0  0  0  0  0  0
    6.5380   55.3875   27.4706 H   0  0  0  0  0  0
    3.7926   53.0851   25.2365 H   0  0  0  0  0  0
    1.5227   49.6661   18.4580 H   0  0  0  0  0  0
   -2.0965   49.6673   27.3206 H   0  0  0  0  0  0
  1  2  1  0  0  0
  1 37  1  0  0  0
  1 38  1  0  0  0
  1 39  1  0  0  0
  2  7  2  0  0  0
  2  3  1  0  0  0
  3  4  2  0  0  0
  3 40  1  0  0  0
  4  5  1  0  0  0
  4 41  1  0  0  0
  5 10  1  0  0  0
  5  6  2  0  0  0
  6  7  1  0  0  0
  6  8  1  0  0  0
  7 42  1  0  0  0
  8  9  1  0  0  0
  8 65  1  0  0  0
  9 10  2  0  0  0
  9 11  1  0  0  0
 11 12  1  0  0  0
 11 13  1  0  0  0
 11 14  1  0  0  0
 13 43  1  0  0  0
 13 44  1  0  0  0
 13 45  1  0  0  0
 14 15  1  0  0  0
 14 46  1  0  0  0
 15 16  2  0  0  0
 15 17  1  0  0  0
 17 18  1  0  0  0
 17 22  1  0  0  0
 17 19  1  0  0  0
 19 20  1  0  0  0
 19 47  1  0  0  0
 19 48  1  0  0  0
 20 21  1  0  0  0
 20 28  1  0  0  0
 21 22  1  0  0  0
 21 49  1  0  0  0
 21 50  1  0  0  0
 22 27  1  0  0  0
 22 23  1  0  0  0
 23 24  1  0  0  0
 23 51  1  0  0  0
 23 52  1  0  0  0
 24 25  1  0  0  0
 24 53  1  0  0  0
 24 54  1  0  0  0
 25 26  1  0  0  0
 25 55  1  0  0  0
 25 64  1  0  0  0
 26 27  1  0  0  0
 26 56  1  0  0  0
 26 57  1  0  0  0
 27 58  1  0  0  0
 27 59  1  0  0  0
 28 29  2  0  0  0
 28 30  1  0  0  0
 30 35  2  0  0  0
 30 31  1  0  0  0
 31 32  2  0  0  0
 31 60  1  0  0  0
 32 33  1  0  0  0
 32 61  1  0  0  0
 33 34  2  0  0  0
 33 62  1  0  0  0
 34 35  1  0  0  0
 34 36  1  0  0  0
 35 63  1  0  0  0
M  CHG  1  25   1
M  END
> <i_i_glide_confnum>
36

> <i_i_glide_lignum>
5568

> <i_i_glide_posenum>
178

> <i_i_glide_rotatable_bonds>
6

> <i_m_Source_File_Index>
4776

> <b_m_subgroup_collapsed>
0

> <r_i_docking_score>
-5.97223

> <r_i_glide_ecoul>
-8.59146

> <r_i_glide_eff_state_penalty>
0

> <r_i_glide_einternal>
7.96947

> <r_i_glide_emodel>
-59.7825

> <r_i_glide_energy>
-43.2289

> <r_i_glide_erotb>
0.447278

> <r_i_glide_esite>
-0.234561

> <r_i_glide_evdw>
-34.6374

> <r_i_glide_gscore>
-5.97223

> <r_i_glide_hbond>
-0.361975

> <r_i_glide_ligand_efficiency>
-0.175654

> <r_i_glide_ligand_efficiency_ln>
-1.31943

> <r_i_glide_ligand_efficiency_sa>
-0.56905

> <r_i_glide_lipo>
-2.28128

> <r_i_glide_metal>
0

> <r_i_glide_rewards>
-0.521107

> <s_i_glide_gridfile>
wee1_glide-grid

> <s_m_Source_File>
wee1_decoys_glide_SP.sdf

> <s_m_Source_Path>
/Users/zhangxujun/Desktop

> <s_m_entry_id>
5051

> <s_m_entry_name>
wee1_decoys_glide_SP.4776

> <s_m_subgroup_title>
wee1_decoys_glide_SP

> <s_m_subgroupid>
wee1_decoys_glide_SP


$$$$
