ZINC08301912_1521
                    3D
 Schrodinger Suite 2024-2.
 54 57  0  0  1  0            999 V2000
   -0.6031   48.8632   22.5804 C   0  0  0  0  0  0
    0.3355   50.0391   22.7762 C   0  0  0  0  0  0
    1.3609   50.2874   21.8641 C   0  0  0  0  0  0
    2.2210   51.3672   22.0541 C   0  0  0  0  0  0
    2.0790   52.2158   23.1675 C   0  0  0  0  0  0
    1.0279   51.9739   24.0639 C   0  0  0  0  0  0
    0.1671   50.8893   23.8696 C   0  0  0  0  0  0
    0.8135   52.8970   25.2491 C   0  0  0  0  0  0
    2.9331   53.2716   23.4546 O   0  0  0  0  0  0
    4.0919   53.4572   22.6948 C   0  0  2  0  0  0
    4.5677   52.4967   22.4812 H   0  0  0  0  0  0
    5.0554   54.3774   23.4879 C   0  0  2  0  0  0
    4.4923   55.2901   23.6805 H   0  0  0  0  0  0
    6.2855   54.6968   22.5752 C   0  0  1  0  0  0
    6.8964   53.7987   22.4954 H   0  0  0  0  0  0
    5.8647   55.1421   21.1642 C   0  0  2  0  0  0
    5.4241   56.1370   21.2365 H   0  0  0  0  0  0
    4.8706   54.1325   20.5916 C   0  0  1  0  0  0
    5.3805   53.1709   20.4871 H   0  0  0  0  0  0
    3.7490   54.0458   21.4643 O   0  0  0  0  0  0
    4.4778   54.5930   19.1844 C   0  0  0  0  0  0
    5.6682   54.7269   18.4010 O   0  0  0  0  0  0
    6.5939   55.6196   18.9823 C   0  0  1  0  0  0
    6.1261   56.6041   19.0718 H   0  0  0  0  0  0
    6.9773   55.1818   20.2684 O   0  0  0  0  0  0
    7.8072   55.6280   18.1303 C   0  0  0  0  0  0
    9.1282   55.2766   18.3615 C   0  0  0  0  0  0
    9.8170   55.5022   17.1695 C   0  0  0  0  0  0
    8.8813   55.9793   16.2650 C   0  0  0  0  0  0
    7.6588   56.0565   16.8495 O   0  0  0  0  0  0
    7.1044   55.6968   23.1162 O   0  0  0  0  0  0
    5.3481   53.8829   24.8457 N   0  0  0  0  0  0
    5.9767   54.4975   25.8648 C   0  0  0  0  0  0
    6.4468   55.6311   25.8186 O   0  0  0  0  0  0
    6.0993   53.6994   27.1569 C   0  0  0  0  0  0
   -0.4240   48.3454   21.6378 H   0  0  0  0  0  0
   -1.6382   49.2071   22.5815 H   0  0  0  0  0  0
   -0.4947   48.1516   23.4007 H   0  0  0  0  0  0
    1.4978   49.6460   21.0051 H   0  0  0  0  0  0
    2.9948   51.5255   21.3189 H   0  0  0  0  0  0
   -0.6335   50.7021   24.5716 H   0  0  0  0  0  0
    1.6547   52.8360   25.9399 H   0  0  0  0  0  0
    0.7587   53.9229   24.8815 H   0  0  0  0  0  0
   -0.1086   52.6787   25.7889 H   0  0  0  0  0  0
    3.8274   53.8531   18.7167 H   0  0  0  0  0  0
    3.9200   55.5294   19.1827 H   0  0  0  0  0  0
    9.5413   54.9031   19.2863 H   0  0  0  0  0  0
   10.8688   55.3356   16.9913 H   0  0  0  0  0  0
    8.9338   56.2868   15.2309 H   0  0  0  0  0  0
    7.9959   55.3494   23.2817 H   0  0  0  0  0  0
    4.9792   52.9639   25.0438 H   0  0  0  0  0  0
    5.4328   52.8369   27.1623 H   0  0  0  0  0  0
    7.1223   53.3455   27.2842 H   0  0  0  0  0  0
    5.8488   54.3285   28.0121 H   0  0  0  0  0  0
  1  2  1  0  0  0
  1 36  1  0  0  0
  1 37  1  0  0  0
  1 38  1  0  0  0
  2  7  2  0  0  0
  2  3  1  0  0  0
  3  4  2  0  0  0
  3 39  1  0  0  0
  4  5  1  0  0  0
  4 40  1  0  0  0
  5  6  2  0  0  0
  5  9  1  0  0  0
  6  7  1  0  0  0
  6  8  1  0  0  0
  7 41  1  0  0  0
  8 42  1  0  0  0
  8 43  1  0  0  0
  8 44  1  0  0  0
  9 10  1  0  0  0
 10 11  1  0  0  0
 10 20  1  0  0  0
 10 12  1  0  0  0
 12 13  1  0  0  0
 12 14  1  0  0  0
 12 32  1  0  0  0
 14 15  1  0  0  0
 14 16  1  0  0  0
 14 31  1  0  0  0
 16 17  1  0  0  0
 16 25  1  0  0  0
 16 18  1  0  0  0
 18 19  1  0  0  0
 18 20  1  0  0  0
 18 21  1  0  0  0
 21 22  1  0  0  0
 21 45  1  0  0  0
 21 46  1  0  0  0
 22 23  1  0  0  0
 23 24  1  0  0  0
 23 25  1  0  0  0
 23 26  1  0  0  0
 26 30  1  0  0  0
 26 27  2  0  0  0
 27 28  1  0  0  0
 27 47  1  0  0  0
 28 29  2  0  0  0
 28 48  1  0  0  0
 29 30  1  0  0  0
 29 49  1  0  0  0
 31 50  1  0  0  0
 32 33  1  0  0  0
 32 51  1  0  0  0
 33 34  2  0  0  0
 33 35  1  0  0  0
 35 52  1  0  0  0
 35 53  1  0  0  0
 35 54  1  0  0  0
M  END
> <i_i_glide_confnum>
5

> <i_i_glide_lignum>
1522

> <i_i_glide_posenum>
174

> <i_i_glide_rotatable_bonds>
6

> <i_m_Source_File_Index>
5038

> <b_m_subgroup_collapsed>
0

> <r_i_docking_score>
-5.3529

> <r_i_glide_ecoul>
-6.91647

> <r_i_glide_eff_state_penalty>
0

> <r_i_glide_einternal>
3.16864

> <r_i_glide_emodel>
-48.9463

> <r_i_glide_energy>
-36.7612

> <r_i_glide_erotb>
0.482533

> <r_i_glide_esite>
0

> <r_i_glide_evdw>
-29.8448

> <r_i_glide_gscore>
-5.3529

> <r_i_glide_hbond>
-0.171685

> <r_i_glide_ligand_efficiency>
-0.184583

> <r_i_glide_ligand_efficiency_ln>
-1.22568

> <r_i_glide_ligand_efficiency_sa>
-0.567096

> <r_i_glide_lipo>
-1.75784

> <r_i_glide_metal>
0

> <r_i_glide_rewards>
-1.3762

> <s_i_glide_gridfile>
wee1_glide-grid

> <s_m_Source_File>
wee1_decoys_glide_SP.sdf

> <s_m_Source_Path>
/Users/zhangxujun/Desktop

> <s_m_entry_id>
5313

> <s_m_entry_name>
wee1_decoys_glide_SP.5038

> <s_m_subgroup_title>
wee1_decoys_glide_SP

> <s_m_subgroupid>
wee1_decoys_glide_SP


$$$$
