ZINC01877748_2983
                    3D
 Schrodinger Suite 2024-2.
 62 65  0  0  1  0            999 V2000
   -0.2481   50.9162   26.6440 C   0  0  0  0  0  0
    0.0358   50.8694   25.1532 C   0  0  0  0  0  0
    0.4019   49.6594   24.5609 C   0  0  0  0  0  0
    0.6756   49.6091   23.1965 C   0  0  0  0  0  0
    0.5775   50.7674   22.4229 C   0  0  0  0  0  0
    0.2146   51.9808   23.0152 C   0  0  0  0  0  0
   -0.0560   52.0302   24.3808 C   0  0  0  0  0  0
    0.9500   50.6970   20.6637 S   0  0  0  0  0  0
    0.4836   49.3904   20.1864 O   0  0  0  0  0  0
    0.4249   51.9281   20.0637 O   0  0  0  0  0  0
    2.8476   50.7221   20.5630 C   0  0  0  0  0  0
    3.3076   51.6530   21.5837 N   0  0  0  0  0  0
    4.2256   52.5321   21.4261 C   0  0  0  0  0  0
    4.5420   53.4047   22.5871 C   0  0  0  0  0  0
    3.4893   53.8631   23.3990 C   0  0  0  0  0  0
    3.7377   54.4961   24.6119 C   0  0  0  0  0  0
    5.0483   54.7476   25.0070 C   0  0  0  0  0  0
    6.1093   54.3456   24.2045 C   0  0  0  0  0  0
    5.8540   53.6632   23.0187 C   0  0  0  0  0  0
    4.9678   52.5787   20.2077 N   0  3  0  0  0  0
    5.6765   53.4499   19.4629 C   0  0  0  0  0  0
    5.9031   55.1697   19.8863 S   0  5  0  0  0  0
    6.2398   52.8993   18.3659 N   0  0  0  0  0  0
    6.4749   53.6027   17.1569 N   0  0  0  0  0  0
    5.3355   53.9787   16.4006 C   0  0  0  0  0  0
    5.3853   55.1033   15.5626 C   0  0  0  0  0  0
    4.2757   55.4965   14.8230 C   0  0  0  0  0  0
    3.0939   54.7699   14.9193 C   0  0  0  0  0  0
    3.0133   53.6592   15.7533 C   0  0  0  0  0  0
    4.1263   53.2698   16.4903 C   0  0  0  0  0  0
    7.8251   53.7253   16.7436 C   0  0  0  0  0  0
    8.8577   53.8834   17.6810 C   0  0  0  0  0  0
   10.1836   54.0174   17.2784 C   0  0  0  0  0  0
   10.4967   53.9785   15.9234 C   0  0  0  0  0  0
    9.4946   53.8075   14.9737 C   0  0  0  0  0  0
    8.1686   53.6816   15.3835 C   0  0  0  0  0  0
   -0.3910   51.9346   27.0075 H   0  0  0  0  0  0
    0.5825   50.4789   27.1984 H   0  0  0  0  0  0
   -1.1373   50.3304   26.8809 H   0  0  0  0  0  0
    0.4851   48.7612   25.1586 H   0  0  0  0  0  0
    0.9693   48.6733   22.7467 H   0  0  0  0  0  0
    0.1566   52.8868   22.4266 H   0  0  0  0  0  0
   -0.3319   52.9697   24.8363 H   0  0  0  0  0  0
    3.1766   49.7058   20.7693 H   0  0  0  0  0  0
    3.1136   50.9780   19.5355 H   0  0  0  0  0  0
    2.4626   53.6792   23.1192 H   0  0  0  0  0  0
    2.9143   54.8089   25.2352 H   0  0  0  0  0  0
    5.2414   55.2527   25.9422 H   0  0  0  0  0  0
    7.1286   54.5250   24.5142 H   0  0  0  0  0  0
    6.7044   53.2913   22.4821 H   0  0  0  0  0  0
    6.0765   51.8989   18.2557 H   0  0  0  0  0  0
    6.2879   55.6905   15.4943 H   0  0  0  0  0  0
    4.3292   56.3668   14.1865 H   0  0  0  0  0  0
    2.2320   55.0757   14.3486 H   0  0  0  0  0  0
    2.0941   53.0982   15.8283 H   0  0  0  0  0  0
    4.0429   52.3956   17.1209 H   0  0  0  0  0  0
    8.6377   53.9175   18.7371 H   0  0  0  0  0  0
   10.9620   54.1483   18.0152 H   0  0  0  0  0  0
   11.5253   54.0748   15.6077 H   0  0  0  0  0  0
    9.7441   53.7685   13.9229 H   0  0  0  0  0  0
    7.4080   53.5352   14.6316 H   0  0  0  0  0  0
    4.8237   51.7073   19.7165 H   0  0  0  0  0  0
  1  2  1  0  0  0
  1 37  1  0  0  0
  1 38  1  0  0  0
  1 39  1  0  0  0
  2  7  2  0  0  0
  2  3  1  0  0  0
  3  4  2  0  0  0
  3 40  1  0  0  0
  4  5  1  0  0  0
  4 41  1  0  0  0
  5  6  2  0  0  0
  5  8  1  0  0  0
  6  7  1  0  0  0
  6 42  1  0  0  0
  7 43  1  0  0  0
  8  9  2  0  0  0
  8 10  2  0  0  0
  8 11  1  0  0  0
 11 12  1  0  0  0
 11 44  1  0  0  0
 11 45  1  0  0  0
 12 13  2  0  0  0
 13 14  1  0  0  0
 13 20  1  0  0  0
 14 19  2  0  0  0
 14 15  1  0  0  0
 15 16  2  0  0  0
 15 46  1  0  0  0
 16 17  1  0  0  0
 16 47  1  0  0  0
 17 18  2  0  0  0
 17 48  1  0  0  0
 18 19  1  0  0  0
 18 49  1  0  0  0
 19 50  1  0  0  0
 20 21  2  0  0  0
 20 62  1  0  0  0
 21 22  1  0  0  0
 21 23  1  0  0  0
 23 24  1  0  0  0
 23 51  1  0  0  0
 24 25  1  0  0  0
 24 31  1  0  0  0
 25 30  2  0  0  0
 25 26  1  0  0  0
 26 27  2  0  0  0
 26 52  1  0  0  0
 27 28  1  0  0  0
 27 53  1  0  0  0
 28 29  2  0  0  0
 28 54  1  0  0  0
 29 30  1  0  0  0
 29 55  1  0  0  0
 30 56  1  0  0  0
 31 36  2  0  0  0
 31 32  1  0  0  0
 32 33  2  0  0  0
 32 57  1  0  0  0
 33 34  1  0  0  0
 33 58  1  0  0  0
 34 35  2  0  0  0
 34 59  1  0  0  0
 35 36  1  0  0  0
 35 60  1  0  0  0
 36 61  1  0  0  0
M  CHG  2  20   1  22  -1
M  END
> <i_i_glide_confnum>
139

> <i_i_glide_lignum>
2984

> <i_i_glide_posenum>
135

> <i_i_glide_rotatable_bonds>
9

> <i_m_Source_File_Index>
2278

> <b_m_subgroup_collapsed>
0

> <r_i_docking_score>
-4.04788

> <r_i_glide_ecoul>
-3.20581

> <r_i_glide_eff_state_penalty>
0

> <r_i_glide_einternal>
14.1857

> <r_i_glide_emodel>
-40.2334

> <r_i_glide_energy>
-36.1734

> <r_i_glide_erotb>
0.619577

> <r_i_glide_esite>
-0.24793

> <r_i_glide_evdw>
-32.9676

> <r_i_glide_gscore>
-4.04788

> <r_i_glide_hbond>
-0.345938

> <r_i_glide_ligand_efficiency>
-0.112441

> <r_i_glide_ligand_efficiency_ln>
-0.883138

> <r_i_glide_ligand_efficiency_sa>
-0.371272

> <r_i_glide_lipo>
-1.86989

> <r_i_glide_metal>
0

> <r_i_glide_rewards>
-0.0744495

> <s_i_glide_gridfile>
wee1_glide-grid

> <s_m_Source_File>
wee1_decoys_glide_SP.sdf

> <s_m_Source_Path>
/Users/zhangxujun/Desktop

> <s_m_entry_id>
2553

> <s_m_entry_name>
wee1_decoys_glide_SP.2278

> <s_m_subgroup_title>
wee1_decoys_glide_SP

> <s_m_subgroupid>
wee1_decoys_glide_SP


$$$$
