ZINC02677911_1043
                    3D
 Schrodinger Suite 2024-2.
 54 57  0  0  1  0            999 V2000
    3.4588   54.3463   26.3049 C   0  0  0  0  0  0
    2.6431   54.3812   27.4315 C   0  0  0  0  0  0
    3.2141   54.4647   28.6979 C   0  0  0  0  0  0
    4.5993   54.4952   28.8494 C   0  0  0  0  0  0
    5.4186   54.4409   27.7242 C   0  0  0  0  0  0
    4.8452   54.3749   26.4502 C   0  0  0  0  0  0
    5.7055   54.2967   25.2468 C   0  0  0  0  0  0
    6.9215   53.6967   25.0074 C   0  0  0  0  0  0
    7.2003   53.8714   23.6548 C   0  0  0  0  0  0
    6.1981   54.6680   23.1333 C   0  0  0  0  0  0
    5.2722   54.8929   24.1049 O   0  0  0  0  0  0
    6.0174   55.2953   21.8370 C   0  0  0  0  0  0
    5.5801   54.7740   20.6565 C   0  0  0  0  0  0
    5.0945   53.4129   20.5556 C   0  0  0  0  0  0
    5.5020   52.6513   19.6830 O   0  0  0  0  0  0
    4.1263   53.0783   21.4282 N   0  0  0  0  0  0
    3.4562   51.7802   21.5045 C   0  0  1  0  0  0
    4.1434   51.0054   21.8469 H   0  0  0  0  0  0
    2.3042   51.8897   22.5284 C   0  0  0  0  0  0
    1.4839   50.5962   22.4853 C   0  0  0  0  0  0
    1.3971   50.1756   20.6637 S   0  0  0  0  0  0
    1.7882   48.7748   20.4932 O   0  0  0  0  0  0
    0.1456   50.6855   20.0967 O   0  0  0  0  0  0
    2.8031   51.3226   20.1823 C   0  0  0  0  0  0
    5.5538   55.4130   19.4400 N   0  0  0  0  0  0
    6.1252   56.5767   19.0617 C   0  0  0  0  0  0
    6.7876   57.2976   19.8088 O   0  0  0  0  0  0
    5.8835   56.9858   17.6266 C   0  0  0  0  0  0
    5.5975   56.0379   16.6292 C   0  0  0  0  0  0
    5.3862   56.4407   15.3136 C   0  0  0  0  0  0
    5.4601   57.7916   14.9806 C   0  0  0  0  0  0
    5.7462   58.7426   15.9567 C   0  0  0  0  0  0
    5.9605   58.3401   17.2715 C   0  0  0  0  0  0
    5.2002   58.2876   13.3480 Cl  0  0  0  0  0  0
    2.1896   54.5296   30.0818 Cl  0  0  0  0  0  0
    3.0105   54.2804   25.3235 H   0  0  0  0  0  0
    1.5682   54.3518   27.3212 H   0  0  0  0  0  0
    5.0398   54.5653   29.8327 H   0  0  0  0  0  0
    6.4930   54.4630   27.8492 H   0  0  0  0  0  0
    7.4953   53.1339   25.7271 H   0  0  0  0  0  0
    8.0679   53.5094   23.1266 H   0  0  0  0  0  0
    6.3191   56.3279   21.8843 H   0  0  0  0  0  0
    3.8771   53.7591   22.1296 H   0  0  0  0  0  0
    2.6820   52.0944   23.5314 H   0  0  0  0  0  0
    1.6696   52.7445   22.2838 H   0  0  0  0  0  0
    2.0660   49.8075   22.9637 H   0  0  0  0  0  0
    0.4924   50.5946   22.9332 H   0  0  0  0  0  0
    2.2853   52.1916   19.7765 H   0  0  0  0  0  0
    3.4306   50.9336   19.3792 H   0  0  0  0  0  0
    5.0450   54.9153   18.7237 H   0  0  0  0  0  0
    5.5455   54.9795   16.8493 H   0  0  0  0  0  0
    5.1672   55.7057   14.5514 H   0  0  0  0  0  0
    5.7958   59.7948   15.7054 H   0  0  0  0  0  0
    6.1794   59.1024   18.0106 H   0  0  0  0  0  0
  1  6  2  0  0  0
  1  2  1  0  0  0
  1 36  1  0  0  0
  2  3  2  0  0  0
  2 37  1  0  0  0
  3  4  1  0  0  0
  3 35  1  0  0  0
  4  5  2  0  0  0
  4 38  1  0  0  0
  5  6  1  0  0  0
  5 39  1  0  0  0
  6  7  1  0  0  0
  7 11  1  0  0  0
  7  8  2  0  0  0
  8  9  1  0  0  0
  8 40  1  0  0  0
  9 10  2  0  0  0
  9 41  1  0  0  0
 10 11  1  0  0  0
 10 12  1  0  0  0
 12 13  2  0  0  0
 12 42  1  0  0  0
 13 14  1  0  0  0
 13 25  1  0  0  0
 14 15  2  0  0  0
 14 16  1  0  0  0
 16 17  1  0  0  0
 16 43  1  0  0  0
 17 18  1  0  0  0
 17 24  1  0  0  0
 17 19  1  0  0  0
 19 20  1  0  0  0
 19 44  1  0  0  0
 19 45  1  0  0  0
 20 21  1  0  0  0
 20 46  1  0  0  0
 20 47  1  0  0  0
 21 22  2  0  0  0
 21 23  2  0  0  0
 21 24  1  0  0  0
 24 48  1  0  0  0
 24 49  1  0  0  0
 25 26  1  0  0  0
 25 50  1  0  0  0
 26 27  2  0  0  0
 26 28  1  0  0  0
 28 33  2  0  0  0
 28 29  1  0  0  0
 29 30  2  0  0  0
 29 51  1  0  0  0
 30 31  1  0  0  0
 30 52  1  0  0  0
 31 32  2  0  0  0
 31 34  1  0  0  0
 32 33  1  0  0  0
 32 53  1  0  0  0
 33 54  1  0  0  0
M  END
> <i_i_glide_confnum>
18

> <i_i_glide_lignum>
1044

> <i_i_glide_posenum>
252

> <i_i_glide_rotatable_bonds>
8

> <i_m_Source_File_Index>
4702

> <b_m_subgroup_collapsed>
0

> <r_i_docking_score>
-5.67226

> <r_i_glide_ecoul>
-5.32409

> <r_i_glide_eff_state_penalty>
0

> <r_i_glide_einternal>
13.8471

> <r_i_glide_emodel>
-54.2952

> <r_i_glide_energy>
-45.4222

> <r_i_glide_erotb>
0.456928

> <r_i_glide_esite>
-0.020226

> <r_i_glide_evdw>
-40.0981

> <r_i_glide_gscore>
-5.67226

> <r_i_glide_hbond>
-0.32

> <r_i_glide_ligand_efficiency>
-0.166831

> <r_i_glide_ligand_efficiency_ln>
-1.25316

> <r_i_glide_ligand_efficiency_sa>
-0.540468

> <r_i_glide_lipo>
-2.76632

> <r_i_glide_metal>
0

> <r_i_glide_rewards>
-0.219122

> <s_i_glide_gridfile>
wee1_glide-grid

> <s_m_Source_File>
wee1_decoys_glide_SP.sdf

> <s_m_Source_Path>
/Users/zhangxujun/Desktop

> <s_m_entry_id>
4977

> <s_m_entry_name>
wee1_decoys_glide_SP.4702

> <s_m_subgroup_title>
wee1_decoys_glide_SP

> <s_m_subgroupid>
wee1_decoys_glide_SP


$$$$
