ZINC65371131_3803
                    3D
 Schrodinger Suite 2024-2.
 41 45  0  0  1  0            999 V2000
    2.6645   51.8248   31.6820 C   0  0  0  0  0  0
    3.8352   51.9686   30.9514 C   0  0  0  0  0  0
    3.8622   52.7620   29.8104 C   0  0  0  0  0  0
    2.7188   53.4716   29.4462 C   0  0  0  0  0  0
    1.5485   53.3390   30.2102 C   0  0  0  0  0  0
    1.5106   52.4973   31.3132 C   0  0  0  0  0  0
    0.4962   54.2991   29.7471 C   0  0  0  0  0  0
    1.0025   54.6949   28.3729 C   0  0  0  0  0  0
    2.5152   54.4990   28.3514 C   0  0  2  0  0  0
    2.9881   55.4352   28.6536 H   0  0  0  0  0  0
    2.9681   54.1002   27.0174 N   0  0  0  0  0  0
    4.2813   54.2775   26.5532 C   0  0  0  0  0  0
    4.5611   54.1903   25.1667 C   0  0  0  0  0  0
    3.7600   53.8749   24.0221 C   0  0  0  0  0  0
    4.5080   53.8993   22.8499 C   0  0  0  0  0  0
    6.1799   54.3582   23.0755 S   0  0  0  0  0  0
    5.9156   54.4610   24.8009 C   0  0  0  0  0  0
    6.8950   54.7456   25.6589 N   0  0  0  0  0  0
    6.5120   54.7503   26.9557 C   0  0  0  0  0  0
    5.2677   54.5592   27.4465 N   0  0  0  0  0  0
    3.9066   53.5762   21.4911 C   0  0  0  0  0  0
    2.7713   52.6665   21.6712 N   0  0  0  0  0  0
    1.7800   53.2936   22.5461 C   0  0  0  0  0  0
    2.2907   53.4458   24.0029 C   0  0  0  0  0  0
    2.6484   51.1752   32.5385 H   0  0  0  0  0  0
    4.7047   51.4362   31.2816 H   0  0  0  0  0  0
    4.7787   52.8433   29.2489 H   0  0  0  0  0  0
    0.6171   52.3993   31.9137 H   0  0  0  0  0  0
    0.4415   55.1655   30.4081 H   0  0  0  0  0  0
   -0.4977   53.8534   29.6998 H   0  0  0  0  0  0
    0.7052   55.7020   28.0822 H   0  0  0  0  0  0
    0.5259   54.0058   27.6795 H   0  0  0  0  0  0
    2.2605   53.8368   26.3461 H   0  0  0  0  0  0
    7.2935   54.8968   27.6817 H   0  0  0  0  0  0
    4.6331   53.0751   20.8493 H   0  0  0  0  0  0
    3.5994   54.4843   20.9673 H   0  0  0  0  0  0
    2.3595   52.5165   20.7588 H   0  0  0  0  0  0
    0.8393   52.7418   22.5114 H   0  0  0  0  0  0
    1.5234   54.2760   22.1468 H   0  0  0  0  0  0
    1.6308   54.1246   24.5444 H   0  0  0  0  0  0
    2.1718   52.4889   24.5149 H   0  0  0  0  0  0
  1  6  2  0  0  0
  1  2  1  0  0  0
  1 25  1  0  0  0
  2  3  2  0  0  0
  2 26  1  0  0  0
  3  4  1  0  0  0
  3 27  1  0  0  0
  4  9  1  0  0  0
  4  5  2  0  0  0
  5  6  1  0  0  0
  5  7  1  0  0  0
  6 28  1  0  0  0
  7  8  1  0  0  0
  7 29  1  0  0  0
  7 30  1  0  0  0
  8  9  1  0  0  0
  8 31  1  0  0  0
  8 32  1  0  0  0
  9 10  1  0  0  0
  9 11  1  0  0  0
 11 12  1  0  0  0
 11 33  1  0  0  0
 12 20  2  0  0  0
 12 13  1  0  0  0
 13 17  2  0  0  0
 13 14  1  0  0  0
 14 24  1  0  0  0
 14 15  2  0  0  0
 15 16  1  0  0  0
 15 21  1  0  0  0
 16 17  1  0  0  0
 17 18  1  0  0  0
 18 19  2  0  0  0
 19 20  1  0  0  0
 19 34  1  0  0  0
 21 22  1  0  0  0
 21 35  1  0  0  0
 21 36  1  0  0  0
 22 23  1  0  0  0
 22 37  1  0  0  0
 23 24  1  0  0  0
 23 38  1  0  0  0
 23 39  1  0  0  0
 24 40  1  0  0  0
 24 41  1  0  0  0
M  END
> <i_i_glide_confnum>
9

> <i_i_glide_lignum>
3804

> <i_i_glide_posenum>
171

> <i_i_glide_rotatable_bonds>
2

> <i_m_Source_File_Index>
2000

> <b_m_subgroup_collapsed>
0

> <r_i_docking_score>
-7.77409

> <r_i_glide_ecoul>
-3.85392

> <r_i_glide_eff_state_penalty>
0

> <r_i_glide_einternal>
2.44152

> <r_i_glide_emodel>
-59.7655

> <r_i_glide_energy>
-41.0393

> <r_i_glide_erotb>
0.359758

> <r_i_glide_esite>
0

> <r_i_glide_evdw>
-37.1854

> <r_i_glide_gscore>
-7.77409

> <r_i_glide_hbond>
-0.285268

> <r_i_glide_ligand_efficiency>
-0.338004

> <r_i_glide_ligand_efficiency_ln>
-1.87985

> <r_i_glide_ligand_efficiency_sa>
-0.961239

> <r_i_glide_lipo>
-3.27015

> <r_i_glide_metal>
0

> <r_i_glide_rewards>
-2.14108

> <s_i_glide_gridfile>
wee1_glide-grid

> <s_m_Source_File>
wee1_decoys_glide_SP.sdf

> <s_m_Source_Path>
/Users/zhangxujun/Desktop

> <s_m_entry_id>
2275

> <s_m_entry_name>
wee1_decoys_glide_SP.2000

> <s_m_subgroup_title>
wee1_decoys_glide_SP

> <s_m_subgroupid>
wee1_decoys_glide_SP


$$$$
