ZINC15511008_74
                    3D
 Schrodinger Suite 2024-2.
 51 53  0  0  1  0            999 V2000
    7.1045   54.7569   24.5814 C   0  0  0  0  0  0
    6.1579   54.5237   25.7379 C   0  0  0  0  0  0
    6.6185   53.9749   26.9329 C   0  0  0  0  0  0
    5.7297   53.7310   27.9756 C   0  0  0  0  0  0
    4.3654   54.0401   27.8480 C   0  0  0  0  0  0
    3.9359   54.6152   26.6448 C   0  0  0  0  0  0
    4.8156   54.8505   25.5981 C   0  0  0  0  0  0
    3.4574   53.7702   28.9057 N   0  0  0  0  0  0
    3.7615   52.6844   29.8422 C   0  0  0  0  0  0
    1.8060   54.4634   29.0543 S   0  0  0  0  0  0
    1.7105   55.6944   28.2690 O   0  0  0  0  0  0
    1.4956   54.5049   30.4818 O   0  0  0  0  0  0
    0.7238   53.2257   28.3466 C   0  0  0  0  0  0
   -0.2020   52.5656   29.1592 C   0  0  0  0  0  0
   -1.0109   51.5685   28.6245 C   0  0  0  0  0  0
   -0.8753   51.1941   27.2891 C   0  0  0  0  0  0
    0.0750   51.8186   26.4705 C   0  0  0  0  0  0
    0.8475   52.8581   27.0037 C   0  0  0  0  0  0
    0.3113   51.3675   25.0522 C   0  0  0  0  0  0
    0.6068   52.1912   24.1817 O   0  0  0  0  0  0
    0.2774   50.0262   24.8620 N   0  0  0  0  0  0
    0.5758   49.4680   23.6075 N   0  0  0  0  0  0
   -0.3007   49.5570   22.5782 C   0  0  0  0  0  0
   -1.4309   50.0461   22.6676 O   0  0  0  0  0  0
    0.1593   48.9327   21.2817 C   0  0  0  0  0  0
   -0.7676   48.2685   20.4673 C   0  0  0  0  0  0
   -0.3565   47.6576   19.2850 C   0  0  0  0  0  0
    0.9801   47.7190   18.9025 C   0  0  0  0  0  0
    1.9058   48.4053   19.6829 C   0  0  0  0  0  0
    1.5010   49.0077   20.8721 C   0  0  0  0  0  0
    1.4948   46.9375   17.4519 Cl  0  0  0  0  0  0
    7.8923   55.4460   24.8817 H   0  0  0  0  0  0
    7.5701   53.8170   24.2842 H   0  0  0  0  0  0
    6.6030   55.1761   23.7067 H   0  0  0  0  0  0
    7.6578   53.7182   27.0573 H   0  0  0  0  0  0
    6.1212   53.3026   28.8843 H   0  0  0  0  0  0
    2.9156   54.8941   26.4722 H   0  0  0  0  0  0
    4.4463   55.2829   24.6808 H   0  0  0  0  0  0
    4.3041   53.0741   30.7023 H   0  0  0  0  0  0
    2.8448   52.2289   30.2172 H   0  0  0  0  0  0
    4.3462   51.8885   29.3768 H   0  0  0  0  0  0
   -0.3041   52.8146   30.2063 H   0  0  0  0  0  0
   -1.7212   51.0506   29.2548 H   0  0  0  0  0  0
   -1.4965   50.3895   26.9165 H   0  0  0  0  0  0
    1.5737   53.3389   26.3738 H   0  0  0  0  0  0
   -0.2393   49.3923   25.4547 H   0  0  0  0  0  0
    1.5685   49.3316   23.4808 H   0  0  0  0  0  0
   -1.8092   48.2089   20.7517 H   0  0  0  0  0  0
   -1.0721   47.1360   18.6676 H   0  0  0  0  0  0
    2.9384   48.4681   19.3645 H   0  0  0  0  0  0
    2.2402   49.5337   21.4602 H   0  0  0  0  0  0
  1  2  1  0  0  0
  1 32  1  0  0  0
  1 33  1  0  0  0
  1 34  1  0  0  0
  2  7  2  0  0  0
  2  3  1  0  0  0
  3  4  2  0  0  0
  3 35  1  0  0  0
  4  5  1  0  0  0
  4 36  1  0  0  0
  5  6  2  0  0  0
  5  8  1  0  0  0
  6  7  1  0  0  0
  6 37  1  0  0  0
  7 38  1  0  0  0
  8  9  1  0  0  0
  8 10  1  0  0  0
  9 39  1  0  0  0
  9 40  1  0  0  0
  9 41  1  0  0  0
 10 11  2  0  0  0
 10 12  2  0  0  0
 10 13  1  0  0  0
 13 18  2  0  0  0
 13 14  1  0  0  0
 14 15  2  0  0  0
 14 42  1  0  0  0
 15 16  1  0  0  0
 15 43  1  0  0  0
 16 17  2  0  0  0
 16 44  1  0  0  0
 17 18  1  0  0  0
 17 19  1  0  0  0
 18 45  1  0  0  0
 19 20  2  0  0  0
 19 21  1  0  0  0
 21 22  1  0  0  0
 21 46  1  0  0  0
 22 23  1  0  0  0
 22 47  1  0  0  0
 23 24  2  0  0  0
 23 25  1  0  0  0
 25 30  2  0  0  0
 25 26  1  0  0  0
 26 27  2  0  0  0
 26 48  1  0  0  0
 27 28  1  0  0  0
 27 49  1  0  0  0
 28 29  2  0  0  0
 28 31  1  0  0  0
 29 30  1  0  0  0
 29 50  1  0  0  0
 30 51  1  0  0  0
M  END
> <i_i_glide_confnum>
110

> <i_i_glide_lignum>
75

> <i_i_glide_posenum>
177

> <i_i_glide_rotatable_bonds>
8

> <i_m_Source_File_Index>
4967

> <b_m_subgroup_collapsed>
0

> <r_i_docking_score>
-4.9057

> <r_i_glide_ecoul>
-4.51337

> <r_i_glide_eff_state_penalty>
0

> <r_i_glide_einternal>
4.93471

> <r_i_glide_emodel>
-59.9482

> <r_i_glide_energy>
-48.3047

> <r_i_glide_erotb>
0.67125

> <r_i_glide_esite>
-0.0142088

> <r_i_glide_evdw>
-43.7913

> <r_i_glide_gscore>
-4.9057

> <r_i_glide_hbond>
0

> <r_i_glide_ligand_efficiency>
-0.158248

> <r_i_glide_ligand_efficiency_ln>
-1.10638

> <r_i_glide_ligand_efficiency_sa>
-0.497118

> <r_i_glide_lipo>
-2.37065

> <r_i_glide_metal>
0

> <r_i_glide_rewards>
-0.325512

> <s_i_glide_gridfile>
wee1_glide-grid

> <s_m_Source_File>
wee1_decoys_glide_SP.sdf

> <s_m_Source_Path>
/Users/zhangxujun/Desktop

> <s_m_entry_id>
5242

> <s_m_entry_name>
wee1_decoys_glide_SP.4967

> <s_m_subgroup_title>
wee1_decoys_glide_SP

> <s_m_subgroupid>
wee1_decoys_glide_SP


$$$$
