ZINC11981010_6035
                    3D
 Schrodinger Suite 2024-2.
 65 69  0  0  1  0            999 V2000
    6.6952   54.9208   27.2758 C   0  0  0  0  0  0
    5.9752   54.8334   25.9127 C   0  0  1  0  0  0
    5.6625   55.8464   25.6547 H   0  0  0  0  0  0
    6.9564   54.3453   24.8040 C   0  0  0  0  0  0
    6.4924   54.5184   23.3532 C   0  0  0  0  0  0
    5.4886   53.6970   22.7989 C   0  0  0  0  0  0
    5.0357   53.8871   21.4840 C   0  0  0  0  0  0
    5.6369   54.8929   20.7364 C   0  0  0  0  0  0
    6.6392   55.6648   21.2458 C   0  0  0  0  0  0
    7.0998   55.4951   22.5449 C   0  0  0  0  0  0
    7.0260   56.5774   20.3181 O   0  0  0  0  0  0
    6.3594   56.2234   19.1344 C   0  0  0  0  0  0
    5.3634   55.2917   19.4673 O   0  0  0  0  0  0
    4.7098   53.9440   25.9455 C   0  0  0  0  0  0
    2.3416   53.9050   26.7946 C   0  0  0  0  0  0
    1.4925   54.2879   28.0135 C   0  0  0  0  0  0
    1.7444   53.2267   29.1033 C   0  0  1  0  0  0
    3.2298   53.2348   29.5264 C   0  0  0  0  0  0
    4.1765   53.0806   28.3152 C   0  0  0  0  0  0
    0.6641   52.8329   30.0903 C   0  0  0  0  0  0
    1.0569   51.8569   28.9859 C   0  0  1  0  0  0
    1.5996   50.9587   29.2791 H   0  0  0  0  0  0
    0.0392   51.6356   27.8372 C   0  0  0  0  0  0
   -0.8954   52.4179   27.6829 O   0  0  0  0  0  0
    0.3036   50.5981   27.0152 N   0  0  0  0  0  0
   -0.3888   50.1550   25.8703 C   0  0  0  0  0  0
   -1.5305   50.7727   25.3326 C   0  0  0  0  0  0
   -2.1540   50.2346   24.2113 C   0  0  0  0  0  0
   -1.6468   49.0839   23.6142 C   0  0  0  0  0  0
   -0.5058   48.4702   24.1350 C   0  0  0  0  0  0
    0.1169   49.0042   25.2606 C   0  0  0  0  0  0
   -2.4985   48.4219   22.2086 S   0  0  0  0  0  0
   -1.4559   47.1657   21.4195 C   0  0  0  0  0  0
    7.1199   53.9626   27.5761 H   0  0  0  0  0  0
    7.5044   55.6376   27.2475 H   0  0  0  0  0  0
    6.0406   55.2752   28.0718 H   0  0  0  0  0  0
    7.2066   53.2967   24.9576 H   0  0  0  0  0  0
    7.9043   54.8716   24.9136 H   0  0  0  0  0  0
    5.0484   52.9055   23.3818 H   0  0  0  0  0  0
    4.2508   53.2696   21.0697 H   0  0  0  0  0  0
    7.9043   56.0981   22.9298 H   0  0  0  0  0  0
    5.9143   57.1047   18.6692 H   0  0  0  0  0  0
    7.0694   55.7581   18.4476 H   0  0  0  0  0  0
    4.0918   54.1703   25.0760 H   0  0  0  0  0  0
    4.9682   52.8967   25.9072 H   0  0  0  0  0  0
    2.1111   54.4967   25.9180 H   0  0  0  0  0  0
    2.2284   52.8609   26.4974 H   0  0  0  0  0  0
    1.7766   55.2761   28.3783 H   0  0  0  0  0  0
    0.4443   54.3873   27.7546 H   0  0  0  0  0  0
    3.4289   52.4446   30.2519 H   0  0  0  0  0  0
    3.4579   54.1719   30.0355 H   0  0  0  0  0  0
    4.0689   52.0968   27.8702 H   0  0  0  0  0  0
    5.2113   53.2205   28.6209 H   0  0  0  0  0  0
    0.9344   52.5861   31.1183 H   0  0  0  0  0  0
   -0.3009   53.3418   30.0528 H   0  0  0  0  0  0
    1.0712   50.0032   27.2812 H   0  0  0  0  0  0
   -1.9700   51.6565   25.7631 H   0  0  0  0  0  0
   -3.0402   50.7077   23.8135 H   0  0  0  0  0  0
   -0.0995   47.5771   23.6919 H   0  0  0  0  0  0
    0.9852   48.4997   25.6624 H   0  0  0  0  0  0
   -1.9378   46.7989   20.5137 H   0  0  0  0  0  0
   -0.4954   47.5977   21.1406 H   0  0  0  0  0  0
   -1.2960   46.3179   22.0848 H   0  0  0  0  0  0
    3.8168   54.1151   27.2056 N   0  3  1  0  0  0
    3.9287   55.0641   27.5372 H   0  0  0  0  0  0
  1  2  1  0  0  0
  1 34  1  0  0  0
  1 35  1  0  0  0
  1 36  1  0  0  0
  2  3  1  0  0  0
  2  4  1  0  0  0
  2 14  1  0  0  0
  4  5  1  0  0  0
  4 37  1  0  0  0
  4 38  1  0  0  0
  5 10  2  0  0  0
  5  6  1  0  0  0
  6  7  2  0  0  0
  6 39  1  0  0  0
  7  8  1  0  0  0
  7 40  1  0  0  0
  8 13  1  0  0  0
  8  9  2  0  0  0
  9 10  1  0  0  0
  9 11  1  0  0  0
 10 41  1  0  0  0
 11 12  1  0  0  0
 12 13  1  0  0  0
 12 42  1  0  0  0
 12 43  1  0  0  0
 14 44  1  0  0  0
 14 45  1  0  0  0
 14 64  1  0  0  0
 15 16  1  0  0  0
 15 46  1  0  0  0
 15 47  1  0  0  0
 15 64  1  0  0  0
 16 17  1  0  0  0
 16 48  1  0  0  0
 16 49  1  0  0  0
 17 21  1  0  0  0
 17 18  1  0  0  0
 17 20  1  0  0  0
 18 19  1  0  0  0
 18 50  1  0  0  0
 18 51  1  0  0  0
 19 52  1  0  0  0
 19 53  1  0  0  0
 19 64  1  0  0  0
 20 21  1  0  0  0
 20 54  1  0  0  0
 20 55  1  0  0  0
 21 22  1  0  0  0
 21 23  1  0  0  0
 23 24  2  0  0  0
 23 25  1  0  0  0
 25 26  1  0  0  0
 25 56  1  0  0  0
 26 31  2  0  0  0
 26 27  1  0  0  0
 27 28  2  0  0  0
 27 57  1  0  0  0
 28 29  1  0  0  0
 28 58  1  0  0  0
 29 30  2  0  0  0
 29 32  1  0  0  0
 30 31  1  0  0  0
 30 59  1  0  0  0
 31 60  1  0  0  0
 32 33  1  0  0  0
 33 61  1  0  0  0
 33 62  1  0  0  0
 33 63  1  0  0  0
 64 65  1  0  0  0
M  CHG  1  64   1
M  END
> <i_i_glide_confnum>
79

> <i_i_glide_lignum>
6036

> <i_i_glide_posenum>
269

> <i_i_glide_rotatable_bonds>
8

> <i_m_Source_File_Index>
3250

> <b_m_subgroup_collapsed>
0

> <r_i_docking_score>
-5.57018

> <r_i_glide_ecoul>
-0.454485

> <r_i_glide_eff_state_penalty>
0

> <r_i_glide_einternal>
3.13939

> <r_i_glide_emodel>
-54.4312

> <r_i_glide_energy>
-39.1625

> <r_i_glide_erotb>
0.585352

> <r_i_glide_esite>
-0.0869369

> <r_i_glide_evdw>
-38.708

> <r_i_glide_gscore>
-5.57018

> <r_i_glide_hbond>
-0.287653

> <r_i_glide_ligand_efficiency>
-0.174068

> <r_i_glide_ligand_efficiency_ln>
-1.24732

> <r_i_glide_ligand_efficiency_sa>
-0.552632

> <r_i_glide_lipo>
-3.32945

> <r_i_glide_metal>
0

> <r_i_glide_rewards>
-0.447921

> <s_i_glide_gridfile>
wee1_glide-grid

> <s_m_Source_File>
wee1_decoys_glide_SP.sdf

> <s_m_Source_Path>
/Users/zhangxujun/Desktop

> <s_m_entry_id>
3525

> <s_m_entry_name>
wee1_decoys_glide_SP.3250

> <s_m_subgroup_title>
wee1_decoys_glide_SP

> <s_m_subgroupid>
wee1_decoys_glide_SP


$$$$
