ZINC44854616_3949
                    3D
 Schrodinger Suite 2024-2.
 53 57  0  0  1  0            999 V2000
    2.9654   51.1923   19.9941 C   0  0  0  0  0  0
    1.7995   51.1770   20.7559 C   0  0  0  0  0  0
    1.6355   52.1001   21.7864 C   0  0  0  0  0  0
    2.6363   53.0336   22.0592 C   0  0  0  0  0  0
    3.8216   53.0549   21.3021 C   0  0  0  0  0  0
    3.9659   52.1243   20.2660 C   0  0  0  0  0  0
    4.9195   54.0142   21.5947 C   0  0  0  0  0  0
    5.5008   54.8782   20.6426 C   0  0  0  0  0  0
    5.3284   55.2575   19.2843 C   0  0  0  0  0  0
    6.2626   56.2589   19.0463 N   0  0  0  0  0  0
    7.0753   56.4968   20.1008 N   0  0  0  0  0  0
    6.5890   55.6889   21.0832 C   0  0  0  0  0  0
    7.0425   55.6814   22.3372 N   0  0  0  0  0  0
    6.3535   54.8966   23.2054 C   0  0  0  0  0  0
    5.3508   54.0413   22.8803 N   0  0  0  0  0  0
    6.7040   55.0807   24.5517 N   0  0  0  0  0  0
    6.0492   54.3537   25.6440 C   0  0  0  0  0  0
    6.7896   54.6207   26.9647 C   0  0  0  0  0  0
    6.1945   53.7449   28.0814 C   0  0  0  0  0  0
    4.6826   54.0107   28.2582 C   0  0  0  0  0  0
    3.9025   53.9360   26.9245 C   0  0  0  0  0  0
    4.5705   54.7777   25.8164 C   0  0  0  0  0  0
    6.4181   57.0714   17.8972 C   0  0  0  0  0  0
    5.2922   57.6309   17.2753 C   0  0  0  0  0  0
    5.4452   58.4970   16.1922 C   0  0  0  0  0  0
    6.7195   58.8064   15.7181 C   0  0  0  0  0  0
    7.8455   58.2510   16.3270 C   0  0  0  0  0  0
    7.6975   57.3859   17.4112 C   0  0  0  0  0  0
    9.0803   58.5608   15.8739 F   0  0  0  0  0  0
    4.3934   54.7960   18.3959 N   0  0  0  0  0  0
    2.4312   53.9285   23.0538 F   0  0  0  0  0  0
    3.1038   50.4806   19.1911 H   0  0  0  0  0  0
    1.0258   50.4537   20.5452 H   0  0  0  0  0  0
    0.7303   52.0974   22.3753 H   0  0  0  0  0  0
    4.8680   52.1046   19.6688 H   0  0  0  0  0  0
    7.6860   55.2916   24.6366 H   0  0  0  0  0  0
    6.1018   53.2954   25.4092 H   0  0  0  0  0  0
    7.8512   54.3972   26.8765 H   0  0  0  0  0  0
    6.7062   55.6718   27.2489 H   0  0  0  0  0  0
    6.3585   52.6911   27.8495 H   0  0  0  0  0  0
    6.7195   53.9408   29.0160 H   0  0  0  0  0  0
    4.2632   53.3042   28.9754 H   0  0  0  0  0  0
    4.5453   55.0013   28.6946 H   0  0  0  0  0  0
    3.8412   52.8968   26.5971 H   0  0  0  0  0  0
    2.8744   54.2656   27.0770 H   0  0  0  0  0  0
    4.5222   55.8301   26.0815 H   0  0  0  0  0  0
    3.9928   54.6703   24.9019 H   0  0  0  0  0  0
    4.2968   57.4354   17.6503 H   0  0  0  0  0  0
    4.5771   58.9516   15.7350 H   0  0  0  0  0  0
    6.8348   59.4927   14.8935 H   0  0  0  0  0  0
    8.5825   56.9769   17.8804 H   0  0  0  0  0  0
    3.6847   54.1331   18.6832 H   0  0  0  0  0  0
    4.3843   55.0783   17.4265 H   0  0  0  0  0  0
  1  6  2  0  0  0
  1  2  1  0  0  0
  1 32  1  0  0  0
  2  3  2  0  0  0
  2 33  1  0  0  0
  3  4  1  0  0  0
  3 34  1  0  0  0
  4  5  2  0  0  0
  4 31  1  0  0  0
  5  6  1  0  0  0
  5  7  1  0  0  0
  6 35  1  0  0  0
  7 15  2  0  0  0
  7  8  1  0  0  0
  8 12  1  0  0  0
  8  9  2  0  0  0
  9 10  1  0  0  0
  9 30  1  0  0  0
 10 11  1  0  0  0
 10 23  1  0  0  0
 11 12  2  0  0  0
 12 13  1  0  0  0
 13 14  2  0  0  0
 14 15  1  0  0  0
 14 16  1  0  0  0
 16 17  1  0  0  0
 16 36  1  0  0  0
 17 22  1  0  0  0
 17 18  1  0  0  0
 17 37  1  0  0  0
 18 19  1  0  0  0
 18 38  1  0  0  0
 18 39  1  0  0  0
 19 20  1  0  0  0
 19 40  1  0  0  0
 19 41  1  0  0  0
 20 21  1  0  0  0
 20 42  1  0  0  0
 20 43  1  0  0  0
 21 22  1  0  0  0
 21 44  1  0  0  0
 21 45  1  0  0  0
 22 46  1  0  0  0
 22 47  1  0  0  0
 23 28  2  0  0  0
 23 24  1  0  0  0
 24 25  2  0  0  0
 24 48  1  0  0  0
 25 26  1  0  0  0
 25 49  1  0  0  0
 26 27  2  0  0  0
 26 50  1  0  0  0
 27 28  1  0  0  0
 27 29  1  0  0  0
 28 51  1  0  0  0
 30 52  1  0  0  0
 30 53  1  0  0  0
M  END
> <i_i_glide_confnum>
8

> <i_i_glide_lignum>
3950

> <i_i_glide_posenum>
292

> <i_i_glide_rotatable_bonds>
4

> <i_m_Source_File_Index>
2300

> <b_m_subgroup_collapsed>
0

> <r_i_docking_score>
-6.56445

> <r_i_glide_ecoul>
-3.34786

> <r_i_glide_eff_state_penalty>
0

> <r_i_glide_einternal>
2.24529

> <r_i_glide_emodel>
-65.7732

> <r_i_glide_energy>
-48.1915

> <r_i_glide_erotb>
0.447835

> <r_i_glide_esite>
-0.0017762

> <r_i_glide_evdw>
-44.8437

> <r_i_glide_gscore>
-6.56445

> <r_i_glide_hbond>
-0.371836

> <r_i_glide_ligand_efficiency>
-0.211757

> <r_i_glide_ligand_efficiency_ln>
-1.48049

> <r_i_glide_ligand_efficiency_sa>
-0.665208

> <r_i_glide_lipo>
-2.20486

> <r_i_glide_metal>
0

> <r_i_glide_rewards>
-1.68945

> <s_i_glide_gridfile>
wee1_glide-grid

> <s_m_Source_File>
wee1_decoys_glide_SP.sdf

> <s_m_Source_Path>
/Users/zhangxujun/Desktop

> <s_m_entry_id>
2575

> <s_m_entry_name>
wee1_decoys_glide_SP.2300

> <s_m_subgroup_title>
wee1_decoys_glide_SP

> <s_m_subgroupid>
wee1_decoys_glide_SP


$$$$
