ZINC13137999_4322
                    3D
 Schrodinger Suite 2024-2.
 43 44  0  0  1  0            999 V2000
    0.9636   51.4725   26.8736 C   0  0  0  0  0  0
    0.0699   52.2412   27.8670 C   0  0  0  0  0  0
    0.7890   52.8510   29.1095 C   0  0  0  0  0  0
    1.6772   54.0123   28.6806 C   0  0  0  0  0  0
    1.3165   55.0258   28.0826 O   0  0  0  0  0  0
    2.9238   53.6918   29.0900 N   0  0  0  0  0  0
    2.9987   52.5055   29.7476 C   0  0  0  0  0  0
    3.9042   52.0952   30.4685 O   0  0  0  0  0  0
    1.7779   51.9699   29.6533 N   0  0  0  0  0  0
    4.1085   54.4914   28.7182 C   0  0  0  0  0  0
    4.6237   54.1081   27.3219 C   0  0  0  0  0  0
    5.5394   53.2964   27.2437 O   0  0  0  0  0  0
    4.0787   54.7381   26.2593 N   0  0  0  0  0  0
    4.4078   54.4967   24.9110 C   0  0  0  0  0  0
    5.7021   54.7325   24.4024 C   0  0  0  0  0  0
    5.9805   54.4917   23.0561 C   0  0  0  0  0  0
    4.9780   54.0518   22.1910 C   0  0  0  0  0  0
    3.6851   53.8677   22.6787 C   0  0  0  0  0  0
    3.3926   54.0977   24.0229 C   0  0  0  0  0  0
    1.5700   53.9536   24.5634 Br  0  0  0  0  0  0
    5.2694   53.8371   20.7167 C   0  0  0  0  0  0
    7.1041   55.4651   25.4641 Br  0  0  0  0  0  0
   -0.2490   53.3327   30.1643 C   0  0  0  0  0  0
    0.3043   53.9207   31.4808 C   0  0  0  0  0  0
    0.4132   51.2150   25.9683 H   0  0  0  0  0  0
    1.8344   52.0592   26.5832 H   0  0  0  0  0  0
    1.3253   50.5395   27.3072 H   0  0  0  0  0  0
   -0.6908   51.5369   28.2103 H   0  0  0  0  0  0
   -0.4830   53.0155   27.3318 H   0  0  0  0  0  0
    1.5842   50.9837   29.7375 H   0  0  0  0  0  0
    4.9165   54.4047   29.4462 H   0  0  0  0  0  0
    3.8423   55.5483   28.7139 H   0  0  0  0  0  0
    3.3136   55.3746   26.4271 H   0  0  0  0  0  0
    6.9780   54.6759   22.6827 H   0  0  0  0  0  0
    2.8933   53.5703   22.0057 H   0  0  0  0  0  0
    4.4096   54.1229   20.1084 H   0  0  0  0  0  0
    5.4978   52.7902   20.5151 H   0  0  0  0  0  0
    6.1029   54.4563   20.3824 H   0  0  0  0  0  0
   -0.8956   54.0767   29.6986 H   0  0  0  0  0  0
   -0.8913   52.4909   30.4322 H   0  0  0  0  0  0
   -0.4955   54.1038   32.1957 H   0  0  0  0  0  0
    0.9982   53.2347   31.9670 H   0  0  0  0  0  0
    0.8167   54.8677   31.3126 H   0  0  0  0  0  0
  1  2  1  0  0  0
  1 25  1  0  0  0
  1 26  1  0  0  0
  1 27  1  0  0  0
  2  3  1  0  0  0
  2 28  1  0  0  0
  2 29  1  0  0  0
  3  9  1  0  0  0
  3  4  1  0  0  0
  3 23  1  0  0  0
  4  5  2  0  0  0
  4  6  1  0  0  0
  6  7  1  0  0  0
  6 10  1  0  0  0
  7  8  2  0  0  0
  7  9  1  0  0  0
  9 30  1  0  0  0
 10 11  1  0  0  0
 10 31  1  0  0  0
 10 32  1  0  0  0
 11 12  2  0  0  0
 11 13  1  0  0  0
 13 14  1  0  0  0
 13 33  1  0  0  0
 14 19  2  0  0  0
 14 15  1  0  0  0
 15 16  2  0  0  0
 15 22  1  0  0  0
 16 17  1  0  0  0
 16 34  1  0  0  0
 17 18  2  0  0  0
 17 21  1  0  0  0
 18 19  1  0  0  0
 18 35  1  0  0  0
 19 20  1  0  0  0
 21 36  1  0  0  0
 21 37  1  0  0  0
 21 38  1  0  0  0
 23 24  1  0  0  0
 23 39  1  0  0  0
 23 40  1  0  0  0
 24 41  1  0  0  0
 24 42  1  0  0  0
 24 43  1  0  0  0
M  END
> <i_i_glide_confnum>
14

> <i_i_glide_lignum>
4323

> <i_i_glide_posenum>
378

> <i_i_glide_rotatable_bonds>
6

> <i_m_Source_File_Index>
2035

> <b_m_subgroup_collapsed>
0

> <r_i_docking_score>
-5.74363

> <r_i_glide_ecoul>
-1.19387

> <r_i_glide_eff_state_penalty>
0

> <r_i_glide_einternal>
6.40022

> <r_i_glide_emodel>
-58.8584

> <r_i_glide_energy>
-46.0881

> <r_i_glide_erotb>
0.378711

> <r_i_glide_esite>
0

> <r_i_glide_evdw>
-44.8943

> <r_i_glide_gscore>
-5.74363

> <r_i_glide_hbond>
-0.14929

> <r_i_glide_ligand_efficiency>
-0.239318

> <r_i_glide_ligand_efficiency_ln>
-1.37471

> <r_i_glide_ligand_efficiency_sa>
-0.690312

> <r_i_glide_lipo>
-2.16234

> <r_i_glide_metal>
0

> <r_i_glide_rewards>
-1.38691

> <s_i_glide_gridfile>
wee1_glide-grid

> <s_m_Source_File>
wee1_decoys_glide_SP.sdf

> <s_m_Source_Path>
/Users/zhangxujun/Desktop

> <s_m_entry_id>
2310

> <s_m_entry_name>
wee1_decoys_glide_SP.2035

> <s_m_subgroup_title>
wee1_decoys_glide_SP

> <s_m_subgroupid>
wee1_decoys_glide_SP


$$$$
