ZINC09505412_2947
                    3D
 Schrodinger Suite 2024-2.
 62 66  0  0  1  0            999 V2000
    3.1376   53.2934   27.3097 C   0  0  0  0  0  0
    1.8392   53.5410   27.7414 C   0  0  0  0  0  0
    1.6288   54.2825   28.8994 C   0  0  0  0  0  0
    2.7053   54.7960   29.6184 C   0  0  0  0  0  0
    4.0077   54.5063   29.2108 C   0  0  0  0  0  0
    4.2274   53.7603   28.0508 C   0  0  0  0  0  0
    5.6495   53.4492   27.5968 C   0  0  0  0  0  0
    6.5022   54.8958   26.8891 S   0  0  0  0  0  0
    5.4417   55.3054   25.4698 C   0  0  0  0  0  0
    5.6674   54.4212   24.2130 C   0  0  1  0  0  0
    6.0497   53.4472   24.5153 H   0  0  0  0  0  0
    4.3143   54.0965   23.4873 C   0  0  0  0  0  0
    3.2230   53.9751   24.0410 O   0  0  0  0  0  0
    4.4356   53.9822   22.1553 N   0  0  0  0  0  0
    5.4496   54.5263   21.3750 C   0  0  0  0  0  0
    5.3104   54.5562   19.9881 C   0  0  0  0  0  0
    6.2763   55.1845   19.1846 C   0  0  0  0  0  0
    7.4153   55.7271   19.8026 C   0  0  0  0  0  0
    7.5613   55.6965   21.1892 C   0  0  0  0  0  0
    6.5773   55.0998   21.9737 C   0  0  0  0  0  0
    6.7041   55.0702   23.3726 N   0  0  0  0  0  0
    6.1562   55.2140   17.6719 C   0  0  0  0  0  0
    7.1954   55.1242   17.0114 O   0  0  0  0  0  0
    4.9278   55.3076   17.0831 N   0  0  0  0  0  0
    3.8241   56.0664   17.7078 C   0  0  0  0  0  0
    2.4796   55.4578   17.2468 C   0  0  0  0  0  0
    2.3284   55.3798   15.7878 N   0  0  0  0  0  0
    3.4496   54.6101   15.2318 C   0  0  0  0  0  0
    4.8470   55.1542   15.6158 C   0  0  0  0  0  0
    1.7390   56.4069   15.0496 C   0  0  0  0  0  0
    1.3493   56.1755   13.7232 C   0  0  0  0  0  0
    0.7370   57.1781   12.9722 C   0  0  0  0  0  0
    0.5113   58.4278   13.5412 C   0  0  0  0  0  0
    0.8929   58.6815   14.8542 C   0  0  0  0  0  0
    1.4991   57.6758   15.6022 C   0  0  0  0  0  0
   -0.0841   59.3967   12.8130 F   0  0  0  0  0  0
    0.3699   54.4976   29.3354 F   0  0  0  0  0  0
    3.2914   52.7096   26.4139 H   0  0  0  0  0  0
    0.9979   53.1546   27.1841 H   0  0  0  0  0  0
    2.5194   55.4185   30.4851 H   0  0  0  0  0  0
    4.8469   54.8926   29.7724 H   0  0  0  0  0  0
    5.6416   52.6451   26.8635 H   0  0  0  0  0  0
    6.2294   53.0846   28.4450 H   0  0  0  0  0  0
    5.6146   56.3566   25.2294 H   0  0  0  0  0  0
    4.4118   55.2885   25.8232 H   0  0  0  0  0  0
    3.5877   53.6823   21.6959 H   0  0  0  0  0  0
    4.4489   54.0835   19.5360 H   0  0  0  0  0  0
    8.1978   56.1782   19.2077 H   0  0  0  0  0  0
    8.4505   56.1031   21.6482 H   0  0  0  0  0  0
    7.5889   55.2861   23.8170 H   0  0  0  0  0  0
    3.8479   57.0973   17.3516 H   0  0  0  0  0  0
    3.8360   56.0762   18.7946 H   0  0  0  0  0  0
    1.6326   55.9900   17.6813 H   0  0  0  0  0  0
    2.4122   54.4363   17.6267 H   0  0  0  0  0  0
    3.3543   53.5981   15.6330 H   0  0  0  0  0  0
    3.3804   54.5136   14.1494 H   0  0  0  0  0  0
    5.5893   54.4508   15.2341 H   0  0  0  0  0  0
    4.9598   56.1259   15.1312 H   0  0  0  0  0  0
    1.5018   55.2077   13.2690 H   0  0  0  0  0  0
    0.4350   56.9881   11.9534 H   0  0  0  0  0  0
    0.7247   59.6531   15.2927 H   0  0  0  0  0  0
    1.7851   57.9027   16.6165 H   0  0  0  0  0  0
  1  6  2  0  0  0
  1  2  1  0  0  0
  1 38  1  0  0  0
  2  3  2  0  0  0
  2 39  1  0  0  0
  3  4  1  0  0  0
  3 37  1  0  0  0
  4  5  2  0  0  0
  4 40  1  0  0  0
  5  6  1  0  0  0
  5 41  1  0  0  0
  6  7  1  0  0  0
  7  8  1  0  0  0
  7 42  1  0  0  0
  7 43  1  0  0  0
  8  9  1  0  0  0
  9 10  1  0  0  0
  9 44  1  0  0  0
  9 45  1  0  0  0
 10 11  1  0  0  0
 10 21  1  0  0  0
 10 12  1  0  0  0
 12 13  2  0  0  0
 12 14  1  0  0  0
 14 15  1  0  0  0
 14 46  1  0  0  0
 15 20  2  0  0  0
 15 16  1  0  0  0
 16 17  2  0  0  0
 16 47  1  0  0  0
 17 18  1  0  0  0
 17 22  1  0  0  0
 18 19  2  0  0  0
 18 48  1  0  0  0
 19 20  1  0  0  0
 19 49  1  0  0  0
 20 21  1  0  0  0
 21 50  1  0  0  0
 22 23  2  0  0  0
 22 24  1  0  0  0
 24 29  1  0  0  0
 24 25  1  0  0  0
 25 26  1  0  0  0
 25 51  1  0  0  0
 25 52  1  0  0  0
 26 27  1  0  0  0
 26 53  1  0  0  0
 26 54  1  0  0  0
 27 28  1  0  0  0
 27 30  1  0  0  0
 28 29  1  0  0  0
 28 55  1  0  0  0
 28 56  1  0  0  0
 29 57  1  0  0  0
 29 58  1  0  0  0
 30 35  2  0  0  0
 30 31  1  0  0  0
 31 32  2  0  0  0
 31 59  1  0  0  0
 32 33  1  0  0  0
 32 60  1  0  0  0
 33 34  2  0  0  0
 33 36  1  0  0  0
 34 35  1  0  0  0
 34 61  1  0  0  0
 35 62  1  0  0  0
M  END
> <i_i_glide_confnum>
195

> <i_i_glide_lignum>
2948

> <i_i_glide_posenum>
76

> <i_i_glide_rotatable_bonds>
7

> <i_m_Source_File_Index>
3400

> <b_m_subgroup_collapsed>
0

> <r_i_docking_score>
-6.21797

> <r_i_glide_ecoul>
-4.32825

> <r_i_glide_eff_state_penalty>
0

> <r_i_glide_einternal>
5.8024

> <r_i_glide_emodel>
-62.014

> <r_i_glide_energy>
-48.8177

> <r_i_glide_erotb>
0.474935

> <r_i_glide_esite>
0

> <r_i_glide_evdw>
-44.4894

> <r_i_glide_gscore>
-6.21797

> <r_i_glide_hbond>
-0.265091

> <r_i_glide_ligand_efficiency>
-0.172721

> <r_i_glide_ligand_efficiency_ln>
-1.35659

> <r_i_glide_ligand_efficiency_sa>
-0.570313

> <r_i_glide_lipo>
-3.22028

> <r_i_glide_metal>
0

> <r_i_glide_rewards>
-0.33382

> <s_i_glide_gridfile>
wee1_glide-grid

> <s_m_Source_File>
wee1_decoys_glide_SP.sdf

> <s_m_Source_Path>
/Users/zhangxujun/Desktop

> <s_m_entry_id>
3675

> <s_m_entry_name>
wee1_decoys_glide_SP.3400

> <s_m_subgroup_title>
wee1_decoys_glide_SP

> <s_m_subgroupid>
wee1_decoys_glide_SP


$$$$
