ZINC20723365_306
                    3D
 Schrodinger Suite 2024-2.
 49 52  0  0  1  0            999 V2000
   -0.3263   52.0938   28.2326 C   0  0  0  0  0  0
    0.9842   52.5335   27.8979 O   0  0  0  0  0  0
    1.4618   53.7081   28.3783 C   0  0  0  0  0  0
    0.8270   54.4562   29.1277 O   0  0  0  0  0  0
    2.9205   53.8800   28.0876 C   0  0  0  0  0  0
    3.7276   54.3611   29.1286 C   0  0  0  0  0  0
    5.1041   54.5028   28.9663 C   0  0  0  0  0  0
    5.7063   54.1625   27.7651 C   0  0  0  0  0  0
    4.9192   53.7304   26.7065 C   0  0  0  0  0  0
    3.5209   53.6270   26.8331 C   0  0  0  0  0  0
    2.7454   53.2972   25.6961 N   0  0  0  0  0  0
    2.9448   53.8275   24.4670 C   0  0  0  0  0  0
    3.6569   54.8253   24.3185 O   0  0  0  0  0  0
    2.3240   53.2264   23.4128 N   0  0  0  0  0  0
    2.4021   53.9267   22.1055 C   0  0  0  0  0  0
    3.4392   53.2481   21.1711 C   0  0  0  0  0  0
    3.0825   51.7837   21.1212 C   0  0  0  0  0  0
    2.3066   51.1542   22.0908 C   0  0  0  0  0  0
    2.1276   49.8456   21.6744 N   0  3  0  0  0  0
    2.6911   49.6966   20.4231 C   0  0  0  0  0  0
    3.2853   50.8896   20.0821 N   0  0  0  0  0  0
    3.8166   51.0594   19.2281 H   0  0  0  0  0  0
    1.8452   51.8030   23.4036 C   0  0  2  0  0  0
    2.3168   51.2924   24.2351 H   0  0  0  0  0  0
    0.3530   51.6129   23.6787 C   0  0  0  0  0  0
   -0.0490   51.0389   24.8939 C   0  0  0  0  0  0
   -1.4010   50.8276   25.1669 C   0  0  0  0  0  0
   -2.3661   51.1943   24.2318 C   0  0  0  0  0  0
   -1.9751   51.7499   23.0153 C   0  0  0  0  0  0
   -0.6270   51.9505   22.7328 C   0  0  0  0  0  0
   -0.2923   52.4439   21.5189 F   0  0  0  0  0  0
   -2.8955   52.0905   22.0899 F   0  0  0  0  0  0
   -3.6757   50.9955   24.5024 F   0  0  0  0  0  0
   -1.0777   52.6837   27.7047 H   0  0  0  0  0  0
   -0.4513   51.0483   27.9505 H   0  0  0  0  0  0
   -0.5144   52.1633   29.3052 H   0  0  0  0  0  0
    3.2949   54.6264   30.0817 H   0  0  0  0  0  0
    5.7119   54.8969   29.7686 H   0  0  0  0  0  0
    6.7745   54.2635   27.6473 H   0  0  0  0  0  0
    5.4028   53.5002   25.7685 H   0  0  0  0  0  0
    2.0121   52.6169   25.8245 H   0  0  0  0  0  0
    1.4084   53.8600   21.6817 H   0  0  0  0  0  0
    2.5468   55.0024   22.1961 H   0  0  0  0  0  0
    3.4043   53.6994   20.1788 H   0  0  0  0  0  0
    4.4507   53.4034   21.5499 H   0  0  0  0  0  0
    2.7047   48.7922   19.8288 H   0  0  0  0  0  0
    0.6825   50.7361   25.6311 H   0  0  0  0  0  0
   -1.7024   50.3706   26.1012 H   0  0  0  0  0  0
    1.6435   49.1289   22.1984 H   0  0  0  0  0  0
  1  2  1  0  0  0
  1 34  1  0  0  0
  1 35  1  0  0  0
  1 36  1  0  0  0
  2  3  1  0  0  0
  3  4  2  0  0  0
  3  5  1  0  0  0
  5 10  2  0  0  0
  5  6  1  0  0  0
  6  7  2  0  0  0
  6 37  1  0  0  0
  7  8  1  0  0  0
  7 38  1  0  0  0
  8  9  2  0  0  0
  8 39  1  0  0  0
  9 10  1  0  0  0
  9 40  1  0  0  0
 10 11  1  0  0  0
 11 12  1  0  0  0
 11 41  1  0  0  0
 12 13  2  0  0  0
 12 14  1  0  0  0
 14 23  1  0  0  0
 14 15  1  0  0  0
 15 16  1  0  0  0
 15 42  1  0  0  0
 15 43  1  0  0  0
 16 17  1  0  0  0
 16 44  1  0  0  0
 16 45  1  0  0  0
 17 21  1  0  0  0
 17 18  2  0  0  0
 18 19  1  0  0  0
 18 23  1  0  0  0
 19 20  2  0  0  0
 19 49  1  0  0  0
 20 21  1  0  0  0
 20 46  1  0  0  0
 21 22  1  0  0  0
 23 24  1  0  0  0
 23 25  1  0  0  0
 25 30  2  0  0  0
 25 26  1  0  0  0
 26 27  2  0  0  0
 26 47  1  0  0  0
 27 28  1  0  0  0
 27 48  1  0  0  0
 28 29  2  0  0  0
 28 33  1  0  0  0
 29 30  1  0  0  0
 29 32  1  0  0  0
 30 31  1  0  0  0
M  CHG  1  19   1
M  END
> <i_i_glide_confnum>
146

> <i_i_glide_lignum>
307

> <i_i_glide_posenum>
214

> <i_i_glide_rotatable_bonds>
6

> <i_m_Source_File_Index>
1239

> <b_m_subgroup_collapsed>
0

> <r_i_docking_score>
-5.21272

> <r_i_glide_ecoul>
-5.81567

> <r_i_glide_eff_state_penalty>
0

> <r_i_glide_einternal>
4.45603

> <r_i_glide_emodel>
-51.9445

> <r_i_glide_energy>
-39.5032

> <r_i_glide_erotb>
0.534388

> <r_i_glide_esite>
-0.115083

> <r_i_glide_evdw>
-33.6875

> <r_i_glide_gscore>
-5.21272

> <r_i_glide_hbond>
-0.166379

> <r_i_glide_ligand_efficiency>
-0.168152

> <r_i_glide_ligand_efficiency_ln>
-1.17563

> <r_i_glide_ligand_efficiency_sa>
-0.52823

> <r_i_glide_lipo>
-1.57103

> <r_i_glide_metal>
0

> <r_i_glide_rewards>
-1.33789

> <s_i_glide_gridfile>
wee1_glide-grid

> <s_m_Source_File>
wee1_decoys_glide_SP.sdf

> <s_m_Source_Path>
/Users/zhangxujun/Desktop

> <s_m_entry_id>
1514

> <s_m_entry_name>
wee1_decoys_glide_SP.1239

> <s_m_subgroup_title>
wee1_decoys_glide_SP

> <s_m_subgroupid>
wee1_decoys_glide_SP


$$$$
