ZINC58867744_3641
                    3D
 Schrodinger Suite 2024-2.
 53 56  0  0  1  0            999 V2000
    2.9972   53.8687   28.8780 C   0  0  0  0  0  0
    2.5917   53.8069   27.5488 C   0  0  0  0  0  0
    3.5014   54.0967   26.5353 C   0  0  0  0  0  0
    4.8278   54.4498   26.8425 C   0  0  0  0  0  0
    5.2191   54.4968   28.1891 C   0  0  0  0  0  0
    4.3060   54.2151   29.2013 C   0  0  0  0  0  0
    5.8360   54.7796   25.7587 C   0  0  0  0  0  0
    7.0179   55.0287   26.0298 O   0  0  0  0  0  0
    5.3200   54.8967   24.4737 N   0  0  0  0  0  0
    5.9226   54.4050   23.4593 C   0  0  0  0  0  0
    5.2354   54.5918   22.0917 C   0  0  2  0  0  0
    4.3608   55.2366   22.1864 H   0  0  0  0  0  0
    4.7622   53.3005   21.4295 C   0  0  2  0  0  0
    5.4689   52.4869   21.6154 H   0  0  0  0  0  0
    4.8272   53.6578   20.0363 N   0  0  0  0  0  0
    5.9498   54.4931   19.9088 N   0  0  0  0  0  0
    6.0645   55.2960   21.0010 C   0  0  0  0  0  0
    6.7037   56.3402   21.1483 O   0  0  0  0  0  0
    6.7907   54.4238   18.7597 C   0  0  0  0  0  0
    6.4355   53.5980   17.6775 C   0  0  0  0  0  0
    7.2742   53.4658   16.5763 C   0  0  0  0  0  0
    8.4784   54.1600   16.5371 C   0  0  0  0  0  0
    8.8505   54.9861   17.5926 C   0  0  0  0  0  0
    8.0136   55.1188   18.6959 C   0  0  0  0  0  0
    3.3572   52.8510   21.8616 C   0  0  0  0  0  0
    2.8855   51.1981   21.2814 S   0  0  0  0  0  0
    1.2046   50.8920   21.7506 C   0  0  0  0  0  0
    0.6082   49.7011   21.3349 C   0  0  0  0  0  0
   -0.7167   49.4330   21.6732 C   0  0  0  0  0  0
   -1.4392   50.3579   22.4260 C   0  0  0  0  0  0
   -0.8447   51.5457   22.8493 C   0  0  0  0  0  0
    0.4804   51.8145   22.5126 C   0  0  0  0  0  0
   -3.0847   50.0314   22.8351 Cl  0  0  0  0  0  0
    7.1044   53.6986   23.3984 N   0  0  0  0  0  0
    2.2886   53.6456   29.6625 H   0  0  0  0  0  0
    1.5752   53.5334   27.3047 H   0  0  0  0  0  0
    3.1602   54.0394   25.5111 H   0  0  0  0  0  0
    6.2305   54.7652   28.4657 H   0  0  0  0  0  0
    4.6156   54.2680   30.2326 H   0  0  0  0  0  0
    5.0222   52.8311   19.4836 H   0  0  0  0  0  0
    5.5136   53.0324   17.6714 H   0  0  0  0  0  0
    6.9916   52.8200   15.7578 H   0  0  0  0  0  0
    9.1295   54.0534   15.6828 H   0  0  0  0  0  0
    9.7910   55.5166   17.5594 H   0  0  0  0  0  0
    8.3562   55.7506   19.5009 H   0  0  0  0  0  0
    3.2969   52.8481   22.9504 H   0  0  0  0  0  0
    2.6160   53.5716   21.5105 H   0  0  0  0  0  0
    1.1692   48.9891   20.7455 H   0  0  0  0  0  0
   -1.1811   48.5138   21.3488 H   0  0  0  0  0  0
   -1.4066   52.2562   23.4378 H   0  0  0  0  0  0
    0.9227   52.7386   22.8490 H   0  0  0  0  0  0
    7.6294   53.6251   24.2578 H   0  0  0  0  0  0
    7.6283   53.7208   22.5394 H   0  0  0  0  0  0
  1  6  2  0  0  0
  1  2  1  0  0  0
  1 35  1  0  0  0
  2  3  2  0  0  0
  2 36  1  0  0  0
  3  4  1  0  0  0
  3 37  1  0  0  0
  4  5  2  0  0  0
  4  7  1  0  0  0
  5  6  1  0  0  0
  5 38  1  0  0  0
  6 39  1  0  0  0
  7  8  2  0  0  0
  7  9  1  0  0  0
  9 10  2  0  0  0
 10 11  1  0  0  0
 10 34  1  0  0  0
 11 12  1  0  0  0
 11 17  1  0  0  0
 11 13  1  0  0  0
 13 14  1  0  0  0
 13 15  1  0  0  0
 13 25  1  0  0  0
 15 16  1  0  0  0
 15 40  1  0  0  0
 16 17  1  0  0  0
 16 19  1  0  0  0
 17 18  2  0  0  0
 19 24  2  0  0  0
 19 20  1  0  0  0
 20 21  2  0  0  0
 20 41  1  0  0  0
 21 22  1  0  0  0
 21 42  1  0  0  0
 22 23  2  0  0  0
 22 43  1  0  0  0
 23 24  1  0  0  0
 23 44  1  0  0  0
 24 45  1  0  0  0
 25 26  1  0  0  0
 25 46  1  0  0  0
 25 47  1  0  0  0
 26 27  1  0  0  0
 27 32  2  0  0  0
 27 28  1  0  0  0
 28 29  2  0  0  0
 28 48  1  0  0  0
 29 30  1  0  0  0
 29 49  1  0  0  0
 30 31  2  0  0  0
 30 33  1  0  0  0
 31 32  1  0  0  0
 31 50  1  0  0  0
 32 51  1  0  0  0
 34 52  1  0  0  0
 34 53  1  0  0  0
M  END
> <i_i_glide_confnum>
49

> <i_i_glide_lignum>
3642

> <i_i_glide_posenum>
245

> <i_i_glide_rotatable_bonds>
7

> <i_m_Source_File_Index>
432

> <b_m_subgroup_collapsed>
0

> <r_i_docking_score>
-6.54655

> <r_i_glide_ecoul>
-6.02016

> <r_i_glide_eff_state_penalty>
0

> <r_i_glide_einternal>
3.50601

> <r_i_glide_emodel>
-69.3281

> <r_i_glide_energy>
-50.5165

> <r_i_glide_erotb>
0.559591

> <r_i_glide_esite>
0

> <r_i_glide_evdw>
-44.4963

> <r_i_glide_gscore>
-6.54655

> <r_i_glide_hbond>
-0.438048

> <r_i_glide_ligand_efficiency>
-0.20458

> <r_i_glide_ligand_efficiency_ln>
-1.46595

> <r_i_glide_ligand_efficiency_sa>
-0.6495

> <r_i_glide_lipo>
-2.17292

> <r_i_glide_metal>
0

> <r_i_glide_rewards>
-1.36733

> <s_i_glide_gridfile>
wee1_glide-grid

> <s_m_Source_File>
wee1_decoys_glide_SP.sdf

> <s_m_Source_Path>
/Users/zhangxujun/Desktop

> <s_m_entry_id>
707

> <s_m_entry_name>
wee1_decoys_glide_SP.432

> <s_m_subgroup_title>
wee1_decoys_glide_SP

> <s_m_subgroupid>
wee1_decoys_glide_SP


$$$$
