ZINC34699372_4844
                    3D
 Schrodinger Suite 2024-2.
 70 73  0  0  1  0            999 V2000
    1.8607   52.9907   27.5898 C   0  0  0  0  0  0
    0.5949   52.3005   27.0743 C   0  0  0  0  0  0
   -0.3023   52.1350   27.8998 O   0  0  0  0  0  0
    0.4864   51.8957   25.7737 N   0  0  0  0  0  0
   -0.6753   51.0824   25.3488 C   0  0  0  0  0  0
   -2.0445   51.7585   25.4203 C   0  0  0  0  0  0
   -2.9522   51.3600   26.4074 C   0  0  0  0  0  0
   -4.2130   51.9482   26.4737 C   0  0  0  0  0  0
   -4.5722   52.9189   25.5419 C   0  0  0  0  0  0
   -3.6855   53.2972   24.5370 C   0  0  0  0  0  0
   -2.4195   52.7192   24.4765 C   0  0  0  0  0  0
   -5.7896   53.5025   25.6135 F   0  0  0  0  0  0
    1.5769   51.9955   24.7747 C   0  0  0  0  0  0
    1.2702   52.8612   23.5142 C   0  0  2  0  0  0
    0.5195   53.6045   23.7889 H   0  0  0  0  0  0
    0.6920   51.9732   22.3835 C   0  0  0  0  0  0
    1.2928   52.4967   21.0704 N   0  3  1  0  0  0
    2.6867   52.9825   21.4891 C   0  0  0  0  0  0
    2.4706   53.6283   22.8592 C   0  0  2  0  0  0
    2.0940   54.6263   22.6221 H   0  0  0  0  0  0
    3.7287   53.9780   23.6752 C   0  0  0  0  0  0
    5.0271   53.8218   23.1663 C   0  0  0  0  0  0
    6.1366   54.0966   23.9692 C   0  0  0  0  0  0
    5.9684   54.4980   25.2948 C   0  0  0  0  0  0
    4.6724   54.7333   25.7721 C   0  0  0  0  0  0
    3.5731   54.4965   24.9575 C   0  0  0  0  0  0
    7.1017   54.6290   26.0761 O   0  0  0  0  0  0
    6.9364   54.4989   27.4882 C   0  0  0  0  0  0
    1.2657   51.4857   19.9041 C   0  0  0  0  0  0
    1.5232   52.1192   18.5417 C   0  0  0  0  0  0
    0.4452   52.4025   17.6976 C   0  0  0  0  0  0
    0.6630   52.9425   16.4304 C   0  0  0  0  0  0
    1.9675   53.1947   15.9769 C   0  0  0  0  0  0
    3.0385   52.8968   16.8182 C   0  0  0  0  0  0
    2.8246   52.3687   18.0887 C   0  0  0  0  0  0
    3.9044   52.0967   18.8821 O   0  0  0  0  0  0
    2.2791   53.7232   14.7402 O   0  0  0  0  0  0
    1.2277   54.0511   13.8386 C   0  0  0  0  0  0
    1.8704   54.0361   27.2909 H   0  0  0  0  0  0
    1.8649   52.9728   28.6799 H   0  0  0  0  0  0
    2.7774   52.4977   27.2704 H   0  0  0  0  0  0
   -0.7043   50.1925   25.9823 H   0  0  0  0  0  0
   -0.5383   50.6977   24.3396 H   0  0  0  0  0  0
   -2.6738   50.6071   27.1341 H   0  0  0  0  0  0
   -4.9085   51.6531   27.2455 H   0  0  0  0  0  0
   -3.9761   54.0502   23.8198 H   0  0  0  0  0  0
   -1.7361   53.0325   23.7050 H   0  0  0  0  0  0
    2.4839   52.3534   25.2427 H   0  0  0  0  0  0
    1.8164   50.9737   24.4776 H   0  0  0  0  0  0
    1.0109   50.9301   22.4494 H   0  0  0  0  0  0
   -0.3909   51.9975   22.2648 H   0  0  0  0  0  0
    3.0929   53.6602   20.7354 H   0  0  0  0  0  0
    3.3550   52.1195   21.5242 H   0  0  0  0  0  0
    5.1955   53.4698   22.1597 H   0  0  0  0  0  0
    7.1339   53.9439   23.5820 H   0  0  0  0  0  0
    4.4971   55.0855   26.7759 H   0  0  0  0  0  0
    2.5813   54.6631   25.3353 H   0  0  0  0  0  0
    7.9043   54.4958   27.9805 H   0  0  0  0  0  0
    6.3656   55.3280   27.9083 H   0  0  0  0  0  0
    6.4399   53.5620   27.7472 H   0  0  0  0  0  0
    1.9882   50.7015   20.1415 H   0  0  0  0  0  0
    0.2654   51.0505   19.9455 H   0  0  0  0  0  0
   -0.5682   52.2045   18.0149 H   0  0  0  0  0  0
   -0.1930   53.1515   15.8085 H   0  0  0  0  0  0
    4.0469   53.0801   16.4781 H   0  0  0  0  0  0
    4.5286   51.4386   18.4816 H   0  0  0  0  0  0
    1.6549   54.4537   12.9202 H   0  0  0  0  0  0
    0.6405   53.1715   13.5699 H   0  0  0  0  0  0
    0.5659   54.8124   14.2547 H   0  0  0  0  0  0
    0.7914   53.3204   20.7557 H   0  0  0  0  0  0
  1  2  1  0  0  0
  1 39  1  0  0  0
  1 40  1  0  0  0
  1 41  1  0  0  0
  2  3  2  0  0  0
  2  4  1  0  0  0
  4  5  1  0  0  0
  4 13  1  0  0  0
  5  6  1  0  0  0
  5 42  1  0  0  0
  5 43  1  0  0  0
  6 11  2  0  0  0
  6  7  1  0  0  0
  7  8  2  0  0  0
  7 44  1  0  0  0
  8  9  1  0  0  0
  8 45  1  0  0  0
  9 10  2  0  0  0
  9 12  1  0  0  0
 10 11  1  0  0  0
 10 46  1  0  0  0
 11 47  1  0  0  0
 13 14  1  0  0  0
 13 48  1  0  0  0
 13 49  1  0  0  0
 14 15  1  0  0  0
 14 19  1  0  0  0
 14 16  1  0  0  0
 16 17  1  0  0  0
 16 50  1  0  0  0
 16 51  1  0  0  0
 17 18  1  0  0  0
 17 29  1  0  0  0
 17 70  1  0  0  0
 18 19  1  0  0  0
 18 52  1  0  0  0
 18 53  1  0  0  0
 19 20  1  0  0  0
 19 21  1  0  0  0
 21 26  2  0  0  0
 21 22  1  0  0  0
 22 23  2  0  0  0
 22 54  1  0  0  0
 23 24  1  0  0  0
 23 55  1  0  0  0
 24 25  2  0  0  0
 24 27  1  0  0  0
 25 26  1  0  0  0
 25 56  1  0  0  0
 26 57  1  0  0  0
 27 28  1  0  0  0
 28 58  1  0  0  0
 28 59  1  0  0  0
 28 60  1  0  0  0
 29 30  1  0  0  0
 29 61  1  0  0  0
 29 62  1  0  0  0
 30 35  2  0  0  0
 30 31  1  0  0  0
 31 32  2  0  0  0
 31 63  1  0  0  0
 32 33  1  0  0  0
 32 64  1  0  0  0
 33 34  2  0  0  0
 33 37  1  0  0  0
 34 35  1  0  0  0
 34 65  1  0  0  0
 35 36  1  0  0  0
 36 66  1  0  0  0
 37 38  1  0  0  0
 38 67  1  0  0  0
 38 68  1  0  0  0
 38 69  1  0  0  0
M  CHG  1  17   1
M  END
> <i_i_glide_confnum>
86

> <i_i_glide_lignum>
4845

> <i_i_glide_posenum>
258

> <i_i_glide_rotatable_bonds>
11

> <i_m_Source_File_Index>
1355

> <b_m_subgroup_collapsed>
0

> <r_i_docking_score>
-6.1848

> <r_i_glide_ecoul>
-10.6583

> <r_i_glide_eff_state_penalty>
0

> <r_i_glide_einternal>
17.2303

> <r_i_glide_emodel>
-57.2412

> <r_i_glide_energy>
-44.7477

> <r_i_glide_erotb>
0.501724

> <r_i_glide_esite>
-0.0327216

> <r_i_glide_evdw>
-34.0894

> <r_i_glide_gscore>
-6.1848

> <r_i_glide_hbond>
-0.419007

> <r_i_glide_ligand_efficiency>
-0.1718

> <r_i_glide_ligand_efficiency_ln>
-1.34936

> <r_i_glide_ligand_efficiency_sa>
-0.567271

> <r_i_glide_lipo>
-2.72218

> <r_i_glide_metal>
0

> <r_i_glide_rewards>
-0.2094

> <s_i_glide_gridfile>
wee1_glide-grid

> <s_m_Source_File>
wee1_decoys_glide_SP.sdf

> <s_m_Source_Path>
/Users/zhangxujun/Desktop

> <s_m_entry_id>
1630

> <s_m_entry_name>
wee1_decoys_glide_SP.1355

> <s_m_subgroup_title>
wee1_decoys_glide_SP

> <s_m_subgroupid>
wee1_decoys_glide_SP


$$$$
