ZINC03451754_2235
                    3D
 Schrodinger Suite 2024-2.
 54 56  0  0  1  0            999 V2000
    1.5039   48.3961   17.1781 C   0  0  0  0  0  0
    1.4901   48.9819   18.5778 C   0  0  0  0  0  0
    0.6542   48.4437   19.5539 C   0  0  0  0  0  0
    0.6474   48.9841   20.8364 C   0  0  0  0  0  0
    1.4830   50.0680   21.1621 C   0  0  0  0  0  0
    2.3072   50.6055   20.1644 C   0  0  0  0  0  0
    2.3043   50.0713   18.8817 C   0  0  0  0  0  0
    1.5184   50.6633   22.5545 C   0  0  0  0  0  0
    2.3032   51.5797   22.8242 O   0  0  0  0  0  0
    0.6391   50.1449   23.4377 N   0  0  0  0  0  0
    0.7043   50.5794   24.7542 N   0  0  0  0  0  0
   -0.3892   51.1667   25.2770 C   0  0  0  0  0  0
   -1.4213   51.4242   24.6484 O   0  0  0  0  0  0
   -0.2990   51.4715   26.7475 C   0  0  0  0  0  0
   -1.4398   51.3100   27.5406 C   0  0  0  0  0  0
   -1.3857   51.5468   28.9090 C   0  0  0  0  0  0
   -0.2053   51.9784   29.5007 C   0  0  0  0  0  0
    0.9434   52.1530   28.7233 C   0  0  0  0  0  0
    0.9001   51.8936   27.3508 C   0  0  0  0  0  0
    2.4525   52.7005   29.5128 S   0  0  0  0  0  0
    2.0796   53.0484   30.8817 O   0  0  0  0  0  0
    3.4957   51.6969   29.2814 O   0  0  0  0  0  0
    2.9261   54.2284   28.7239 N   0  0  0  0  0  0
    1.9232   55.2915   28.7325 C   0  0  0  0  0  0
    3.8539   54.2427   27.6692 C   0  0  0  0  0  0
    5.2171   54.2040   27.9728 C   0  0  0  0  0  0
    6.1641   54.2904   26.9552 C   0  0  0  0  0  0
    5.7478   54.4123   25.6278 C   0  0  0  0  0  0
    4.3882   54.4255   25.3174 C   0  0  0  0  0  0
    3.4443   54.3363   26.3356 C   0  0  0  0  0  0
    6.7654   54.5225   24.5094 C   0  0  0  0  0  0
    0.5515   47.9267   16.9312 H   0  0  0  0  0  0
    1.6734   49.1781   16.4364 H   0  0  0  0  0  0
    2.3029   47.6601   17.0823 H   0  0  0  0  0  0
    0.0129   47.6062   19.3215 H   0  0  0  0  0  0
   -0.0156   48.5392   21.5633 H   0  0  0  0  0  0
    2.9626   51.4407   20.3696 H   0  0  0  0  0  0
    2.9545   50.4965   18.1280 H   0  0  0  0  0  0
    0.3430   49.1827   23.3759 H   0  0  0  0  0  0
    1.2853   49.9763   25.3185 H   0  0  0  0  0  0
   -2.3670   50.9554   27.1113 H   0  0  0  0  0  0
   -2.2548   51.3492   29.5183 H   0  0  0  0  0  0
   -0.1921   52.1421   30.5701 H   0  0  0  0  0  0
    1.7982   52.0302   26.7650 H   0  0  0  0  0  0
    2.3748   56.2636   28.5360 H   0  0  0  0  0  0
    1.1559   55.1104   27.9797 H   0  0  0  0  0  0
    1.4320   55.3496   29.7037 H   0  0  0  0  0  0
    5.5471   54.1296   28.9990 H   0  0  0  0  0  0
    7.2144   54.2685   27.2067 H   0  0  0  0  0  0
    4.0611   54.5055   24.2904 H   0  0  0  0  0  0
    2.3947   54.3529   26.0835 H   0  0  0  0  0  0
    7.7881   54.4967   24.8819 H   0  0  0  0  0  0
    6.6371   53.7035   23.8005 H   0  0  0  0  0  0
    6.6253   55.4552   23.9609 H   0  0  0  0  0  0
  1  2  1  0  0  0
  1 32  1  0  0  0
  1 33  1  0  0  0
  1 34  1  0  0  0
  2  7  2  0  0  0
  2  3  1  0  0  0
  3  4  2  0  0  0
  3 35  1  0  0  0
  4  5  1  0  0  0
  4 36  1  0  0  0
  5  6  2  0  0  0
  5  8  1  0  0  0
  6  7  1  0  0  0
  6 37  1  0  0  0
  7 38  1  0  0  0
  8  9  2  0  0  0
  8 10  1  0  0  0
 10 11  1  0  0  0
 10 39  1  0  0  0
 11 12  1  0  0  0
 11 40  1  0  0  0
 12 13  2  0  0  0
 12 14  1  0  0  0
 14 19  2  0  0  0
 14 15  1  0  0  0
 15 16  2  0  0  0
 15 41  1  0  0  0
 16 17  1  0  0  0
 16 42  1  0  0  0
 17 18  2  0  0  0
 17 43  1  0  0  0
 18 19  1  0  0  0
 18 20  1  0  0  0
 19 44  1  0  0  0
 20 21  2  0  0  0
 20 22  2  0  0  0
 20 23  1  0  0  0
 23 24  1  0  0  0
 23 25  1  0  0  0
 24 45  1  0  0  0
 24 46  1  0  0  0
 24 47  1  0  0  0
 25 30  2  0  0  0
 25 26  1  0  0  0
 26 27  2  0  0  0
 26 48  1  0  0  0
 27 28  1  0  0  0
 27 49  1  0  0  0
 28 29  2  0  0  0
 28 31  1  0  0  0
 29 30  1  0  0  0
 29 50  1  0  0  0
 30 51  1  0  0  0
 31 52  1  0  0  0
 31 53  1  0  0  0
 31 54  1  0  0  0
M  END
> <i_i_glide_confnum>
92

> <i_i_glide_lignum>
2236

> <i_i_glide_posenum>
295

> <i_i_glide_rotatable_bonds>
8

> <i_m_Source_File_Index>
5796

> <b_m_subgroup_collapsed>
0

> <r_i_docking_score>
-4.49658

> <r_i_glide_ecoul>
-5.78487

> <r_i_glide_eff_state_penalty>
0

> <r_i_glide_einternal>
7.06993

> <r_i_glide_emodel>
-55.9756

> <r_i_glide_energy>
-48.6397

> <r_i_glide_erotb>
0.833445

> <r_i_glide_esite>
-0.0480317

> <r_i_glide_evdw>
-42.8548

> <r_i_glide_gscore>
-4.49658

> <r_i_glide_hbond>
0

> <r_i_glide_ligand_efficiency>
-0.145051

> <r_i_glide_ligand_efficiency_ln>
-1.01412

> <r_i_glide_ligand_efficiency_sa>
-0.455661

> <r_i_glide_lipo>
-2.53668

> <r_i_glide_metal>
0

> <r_i_glide_rewards>
0.265151

> <s_i_glide_gridfile>
wee1_glide-grid

> <s_m_Source_File>
wee1_decoys_glide_SP.sdf

> <s_m_Source_Path>
/Users/zhangxujun/Desktop

> <s_m_entry_id>
6071

> <s_m_entry_name>
wee1_decoys_glide_SP.5796

> <s_m_subgroup_title>
wee1_decoys_glide_SP

> <s_m_subgroupid>
wee1_decoys_glide_SP


$$$$
