ZINC39679239_1960
                    3D
 Schrodinger Suite 2024-2.
 51 54  0  0  1  0            999 V2000
   -2.0299   50.3828   24.5521 C   0  0  0  0  0  0
   -2.0906   50.5459   25.9361 C   0  0  0  0  0  0
   -1.1906   51.3858   26.5962 C   0  0  0  0  0  0
   -0.1822   52.0365   25.8538 C   0  0  0  0  0  0
   -0.1528   51.8985   24.4644 C   0  0  0  0  0  0
   -1.0718   51.0774   23.8110 C   0  0  0  0  0  0
   -0.9779   50.8907   22.0336 S   0  0  0  0  0  0
   -2.3230   50.5299   21.5696 O   0  0  0  0  0  0
   -0.3175   52.0897   21.5044 O   0  0  0  0  0  0
    0.0766   49.4734   21.7852 N   0  0  0  0  0  0
   -0.0113   48.8558   20.4386 C   0  0  0  0  0  0
    0.7115   49.7233   19.3848 C   0  0  0  0  0  0
    2.1819   49.9925   19.7954 C   0  0  0  0  0  0
    2.3395   50.4560   21.2673 C   0  0  0  0  0  0
    1.4930   49.5940   22.2327 C   0  0  0  0  0  0
    0.7840   52.8961   26.3946 N   0  0  0  0  0  0
    1.6322   52.6166   27.3989 C   0  0  0  0  0  0
    1.6100   51.5470   28.0115 O   0  0  0  0  0  0
    2.7854   53.6464   27.5881 C   0  0  2  0  0  0
    2.9107   54.1408   26.6225 H   0  0  0  0  0  0
    4.1592   52.9775   27.9230 C   0  0  1  0  0  0
    4.6546   52.4968   27.0846 H   0  0  0  0  0  0
    4.9776   54.1404   28.4161 C   0  0  0  0  0  0
    3.9787   54.4812   29.4994 C   0  0  1  0  0  0
    4.3601   55.2967   30.0818 H   0  0  0  0  0  0
    2.6537   54.7325   28.7274 C   0  0  2  0  0  0
    2.7789   55.6973   28.2338 H   0  0  0  0  0  0
    1.3979   54.9230   29.6100 C   0  0  0  0  0  0
    0.7879   53.9164   30.0247 O   0  0  0  0  0  0
    1.1047   56.1008   29.9124 O   0  5  0  0  0  0
    3.9042   53.1306   30.2057 C   0  0  0  0  0  0
    4.0771   52.2133   29.2458 C   0  0  0  0  0  0
   -1.4127   51.6256   28.2978 Cl  0  0  0  0  0  0
   -2.7349   49.7283   24.0594 H   0  0  0  0  0  0
   -2.8441   50.0199   26.5060 H   0  0  0  0  0  0
    0.6003   52.4146   23.8845 H   0  0  0  0  0  0
    0.5297   47.9093   20.4797 H   0  0  0  0  0  0
   -1.0452   48.5861   20.2191 H   0  0  0  0  0  0
    0.6881   49.2272   18.4137 H   0  0  0  0  0  0
    0.1806   50.6663   19.2499 H   0  0  0  0  0  0
    2.6364   50.7202   19.1197 H   0  0  0  0  0  0
    2.7506   49.0712   19.6565 H   0  0  0  0  0  0
    2.0743   51.5082   21.3607 H   0  0  0  0  0  0
    3.3901   50.4034   21.5554 H   0  0  0  0  0  0
    1.5376   49.8571   23.2899 H   0  0  0  0  0  0
    1.9206   48.5895   22.1859 H   0  0  0  0  0  0
    1.0393   53.6807   25.8167 H   0  0  0  0  0  0
    5.9718   53.8724   28.7873 H   0  0  0  0  0  0
    5.1000   54.9328   27.6744 H   0  0  0  0  0  0
    3.7436   52.9676   31.2602 H   0  0  0  0  0  0
    4.0662   51.1414   29.3243 H   0  0  0  0  0  0
  1  6  2  0  0  0
  1  2  1  0  0  0
  1 34  1  0  0  0
  2  3  2  0  0  0
  2 35  1  0  0  0
  3  4  1  0  0  0
  3 33  1  0  0  0
  4  5  2  0  0  0
  4 16  1  0  0  0
  5  6  1  0  0  0
  5 36  1  0  0  0
  6  7  1  0  0  0
  7  8  2  0  0  0
  7  9  2  0  0  0
  7 10  1  0  0  0
 10 15  1  0  0  0
 10 11  1  0  0  0
 11 12  1  0  0  0
 11 37  1  0  0  0
 11 38  1  0  0  0
 12 13  1  0  0  0
 12 39  1  0  0  0
 12 40  1  0  0  0
 13 14  1  0  0  0
 13 41  1  0  0  0
 13 42  1  0  0  0
 14 15  1  0  0  0
 14 43  1  0  0  0
 14 44  1  0  0  0
 15 45  1  0  0  0
 15 46  1  0  0  0
 16 17  1  0  0  0
 16 47  1  0  0  0
 17 18  2  0  0  0
 17 19  1  0  0  0
 19 20  1  0  0  0
 19 26  1  0  0  0
 19 21  1  0  0  0
 21 22  1  0  0  0
 21 32  1  0  0  0
 21 23  1  0  0  0
 23 24  1  0  0  0
 23 48  1  0  0  0
 23 49  1  0  0  0
 24 25  1  0  0  0
 24 26  1  0  0  0
 24 31  1  0  0  0
 26 27  1  0  0  0
 26 28  1  0  0  0
 28 29  2  0  0  0
 28 30  1  0  0  0
 31 32  2  0  0  0
 31 50  1  0  0  0
 32 51  1  0  0  0
M  CHG  1  30  -1
M  END
> <i_i_glide_confnum>
26

> <i_i_glide_lignum>
1961

> <i_i_glide_posenum>
391

> <i_i_glide_rotatable_bonds>
6

> <i_m_Source_File_Index>
5431

> <b_m_subgroup_collapsed>
0

> <r_i_docking_score>
-2.74573

> <r_i_glide_ecoul>
-1.71525

> <r_i_glide_eff_state_penalty>
0

> <r_i_glide_einternal>
8.71292

> <r_i_glide_emodel>
-36.4648

> <r_i_glide_energy>
-35.2139

> <r_i_glide_erotb>
0.520029

> <r_i_glide_esite>
-0.00327195

> <r_i_glide_evdw>
-33.4986

> <r_i_glide_gscore>
-2.74573

> <r_i_glide_hbond>
0

> <r_i_glide_ligand_efficiency>
-0.0946803

> <r_i_glide_ligand_efficiency_ln>
-0.628702

> <r_i_glide_ligand_efficiency_sa>
-0.290888

> <r_i_glide_lipo>
-1.45977

> <r_i_glide_metal>
0

> <r_i_glide_rewards>
0.129503

> <s_i_glide_gridfile>
wee1_glide-grid

> <s_m_Source_File>
wee1_decoys_glide_SP.sdf

> <s_m_Source_Path>
/Users/zhangxujun/Desktop

> <s_m_entry_id>
5706

> <s_m_entry_name>
wee1_decoys_glide_SP.5431

> <s_m_subgroup_title>
wee1_decoys_glide_SP

> <s_m_subgroupid>
wee1_decoys_glide_SP


$$$$
