ZINC56768415_1491
                    3D
 Schrodinger Suite 2024-2.
 50 52  0  0  1  0            999 V2000
   -3.6239   50.7807   27.9667 C   0  0  0  0  0  0
   -2.6416   51.1442   26.8685 C   0  0  0  0  0  0
   -3.0508   51.1738   25.5359 C   0  0  0  0  0  0
   -2.1371   51.4833   24.5303 C   0  0  0  0  0  0
   -0.8070   51.7884   24.8431 C   0  0  0  0  0  0
   -0.3953   51.7965   26.1893 C   0  0  0  0  0  0
   -1.3200   51.4533   27.1900 C   0  0  0  0  0  0
    0.9451   52.1058   26.4815 N   0  0  0  0  0  0
    1.4422   52.6723   27.5953 C   0  0  0  0  0  0
    0.7814   52.9737   28.5876 O   0  0  0  0  0  0
    2.7671   52.8666   27.4918 N   0  0  0  0  0  0
    3.7187   52.7909   28.6101 C   0  0  2  0  0  0
    3.5723   51.8412   29.1301 H   0  0  0  0  0  0
    3.5259   53.9316   29.6437 C   0  0  0  0  0  0
    3.9109   55.2746   29.0026 C   0  0  0  0  0  0
    5.3995   55.1832   28.5884 C   0  0  0  0  0  0
    5.5394   54.1843   27.5397 N   0  0  0  0  0  0
    5.1980   52.8692   28.1046 C   0  0  0  0  0  0
    6.0464   54.4673   26.2760 C   0  0  0  0  0  0
    6.7046   53.4889   25.6388 N   0  0  0  0  0  0
    7.1008   53.6996   24.3551 C   0  0  0  0  0  0
    6.8824   54.9031   23.7098 C   0  0  0  0  0  0
    6.3058   55.8978   24.4815 C   0  0  0  0  0  0
    5.8574   55.6951   25.7420 N   0  0  0  0  0  0
    0.3318   52.1479   23.4920 S   0  0  0  0  0  0
    1.5204   51.3130   23.6898 O   0  0  0  0  0  0
   -0.4271   52.0903   22.2378 O   0  0  0  0  0  0
    0.8264   53.9347   23.7749 C   0  0  0  0  0  0
   -3.5896   49.7085   28.1662 H   0  0  0  0  0  0
   -4.6424   51.0608   27.6964 H   0  0  0  0  0  0
   -3.3862   51.3075   28.8915 H   0  0  0  0  0  0
   -4.0715   50.9341   25.2747 H   0  0  0  0  0  0
   -2.4714   51.4738   23.5031 H   0  0  0  0  0  0
   -1.0202   51.3944   28.2259 H   0  0  0  0  0  0
    1.5798   51.9729   25.7089 H   0  0  0  0  0  0
    3.1761   52.6337   26.5997 H   0  0  0  0  0  0
    2.5074   53.9687   30.0281 H   0  0  0  0  0  0
    4.1543   53.7423   30.5154 H   0  0  0  0  0  0
    3.2798   55.4544   28.1307 H   0  0  0  0  0  0
    3.7051   56.0957   29.6726 H   0  0  0  0  0  0
    5.9044   56.0967   28.2852 H   0  0  0  0  0  0
    5.9765   54.8443   29.4489 H   0  0  0  0  0  0
    5.9047   52.5978   28.8826 H   0  0  0  0  0  0
    5.3159   52.1503   27.3010 H   0  0  0  0  0  0
    7.6351   52.9024   23.8599 H   0  0  0  0  0  0
    7.2457   55.0892   22.7092 H   0  0  0  0  0  0
    6.2486   56.8967   24.0971 H   0  0  0  0  0  0
    1.3542   54.2948   22.8923 H   0  0  0  0  0  0
   -0.0882   54.4942   23.9319 H   0  0  0  0  0  0
    1.4700   54.0060   24.6491 H   0  0  0  0  0  0
  1  2  1  0  0  0
  1 29  1  0  0  0
  1 30  1  0  0  0
  1 31  1  0  0  0
  2  7  2  0  0  0
  2  3  1  0  0  0
  3  4  2  0  0  0
  3 32  1  0  0  0
  4  5  1  0  0  0
  4 33  1  0  0  0
  5  6  2  0  0  0
  5 25  1  0  0  0
  6  7  1  0  0  0
  6  8  1  0  0  0
  7 34  1  0  0  0
  8  9  1  0  0  0
  8 35  1  0  0  0
  9 10  2  0  0  0
  9 11  1  0  0  0
 11 12  1  0  0  0
 11 36  1  0  0  0
 12 13  1  0  0  0
 12 18  1  0  0  0
 12 14  1  0  0  0
 14 15  1  0  0  0
 14 37  1  0  0  0
 14 38  1  0  0  0
 15 16  1  0  0  0
 15 39  1  0  0  0
 15 40  1  0  0  0
 16 17  1  0  0  0
 16 41  1  0  0  0
 16 42  1  0  0  0
 17 18  1  0  0  0
 17 19  1  0  0  0
 18 43  1  0  0  0
 18 44  1  0  0  0
 19 24  2  0  0  0
 19 20  1  0  0  0
 20 21  2  0  0  0
 21 22  1  0  0  0
 21 45  1  0  0  0
 22 23  2  0  0  0
 22 46  1  0  0  0
 23 24  1  0  0  0
 23 47  1  0  0  0
 25 26  2  0  0  0
 25 27  2  0  0  0
 25 28  1  0  0  0
 28 48  1  0  0  0
 28 49  1  0  0  0
 28 50  1  0  0  0
M  END
> <i_i_glide_confnum>
112

> <i_i_glide_lignum>
1492

> <i_i_glide_posenum>
107

> <i_i_glide_rotatable_bonds>
6

> <i_m_Source_File_Index>
382

> <b_m_subgroup_collapsed>
0

> <r_i_docking_score>
-3.18062

> <r_i_glide_ecoul>
0.193671

> <r_i_glide_eff_state_penalty>
0

> <r_i_glide_einternal>
2.58402

> <r_i_glide_emodel>
-17.902

> <r_i_glide_energy>
-13.2792

> <r_i_glide_erotb>
0.642584

> <r_i_glide_esite>
0

> <r_i_glide_evdw>
-13.4728

> <r_i_glide_gscore>
-3.18062

> <r_i_glide_hbond>
0

> <r_i_glide_ligand_efficiency>
-0.117801

> <r_i_glide_ligand_efficiency_ln>
-0.740395

> <r_i_glide_ligand_efficiency_sa>
-0.353402

> <r_i_glide_lipo>
-1.42904

> <r_i_glide_metal>
0

> <r_i_glide_rewards>
-1.74957

> <s_i_glide_gridfile>
wee1_glide-grid

> <s_m_Source_File>
wee1_decoys_glide_SP.sdf

> <s_m_Source_Path>
/Users/zhangxujun/Desktop

> <s_m_entry_id>
657

> <s_m_entry_name>
wee1_decoys_glide_SP.382

> <s_m_subgroup_title>
wee1_decoys_glide_SP

> <s_m_subgroupid>
wee1_decoys_glide_SP


$$$$
