ZINC35676159_4780
                    3D
 Schrodinger Suite 2024-2.
 31 33  0  0  1  0            999 V2000
    0.2392   49.5951   23.1937 C   0  0  0  0  0  0
    0.2251   50.9872   23.0968 C   0  0  0  0  0  0
   -0.0818   51.7644   24.2140 C   0  0  0  0  0  0
   -0.3373   51.1447   25.4459 C   0  0  0  0  0  0
   -0.3233   49.7492   25.5391 C   0  0  0  0  0  0
   -0.0527   48.9765   24.4093 C   0  0  0  0  0  0
   -0.0957   47.6275   24.4816 F   0  0  0  0  0  0
   -0.7849   52.0967   26.8713 S   0  0  0  0  0  0
    0.7673   52.5902   27.6016 C   0  0  0  0  0  0
    1.7945   53.0942   26.7900 C   0  0  0  0  0  0
    2.9816   53.5519   27.3613 C   0  0  0  0  0  0
    3.1526   53.4871   28.7433 C   0  0  0  0  0  0
    2.1418   52.9958   29.5670 C   0  0  0  0  0  0
    0.9430   52.5537   28.9998 C   0  0  0  0  0  0
   -0.0658   52.0967   29.8525 N   0  0  0  0  0  0
    4.3030   53.9987   29.3080 O   0  0  0  0  0  0
    5.4932   53.8999   28.4816 C   0  0  0  0  0  0
    5.2772   54.3144   26.9980 C   0  0  0  0  0  0
    6.1475   54.8029   26.2796 O   0  0  0  0  0  0
    4.0131   54.0874   26.5887 N   0  0  0  0  0  0
   -0.1386   53.1111   24.0832 F   0  0  0  0  0  0
    0.4597   48.9925   22.3253 H   0  0  0  0  0  0
    0.4361   51.4642   22.1508 H   0  0  0  0  0  0
   -0.5492   49.2580   26.4763 H   0  0  0  0  0  0
    1.6693   53.1568   25.7211 H   0  0  0  0  0  0
    2.2819   52.9710   30.6366 H   0  0  0  0  0  0
   -0.8666   51.6320   29.4439 H   0  0  0  0  0  0
    0.0612   52.0936   30.8553 H   0  0  0  0  0  0
    5.8102   52.8562   28.4490 H   0  0  0  0  0  0
    6.3041   54.4953   28.8998 H   0  0  0  0  0  0
    3.8526   54.2899   25.6138 H   0  0  0  0  0  0
  1  6  2  0  0  0
  1  2  1  0  0  0
  1 22  1  0  0  0
  2  3  2  0  0  0
  2 23  1  0  0  0
  3  4  1  0  0  0
  3 21  1  0  0  0
  4  5  2  0  0  0
  4  8  1  0  0  0
  5  6  1  0  0  0
  5 24  1  0  0  0
  6  7  1  0  0  0
  8  9  1  0  0  0
  9 14  2  0  0  0
  9 10  1  0  0  0
 10 11  2  0  0  0
 10 25  1  0  0  0
 11 20  1  0  0  0
 11 12  1  0  0  0
 12 13  2  0  0  0
 12 16  1  0  0  0
 13 14  1  0  0  0
 13 26  1  0  0  0
 14 15  1  0  0  0
 15 27  1  0  0  0
 15 28  1  0  0  0
 16 17  1  0  0  0
 17 18  1  0  0  0
 17 29  1  0  0  0
 17 30  1  0  0  0
 18 19  2  0  0  0
 18 20  1  0  0  0
 20 31  1  0  0  0
M  END
> <i_i_glide_confnum>
2

> <i_i_glide_lignum>
4781

> <i_i_glide_posenum>
317

> <i_i_glide_rotatable_bonds>
2

> <i_m_Source_File_Index>
5049

> <b_m_subgroup_collapsed>
0

> <r_i_docking_score>
-5.23441

> <r_i_glide_ecoul>
-3.61086

> <r_i_glide_eff_state_penalty>
0

> <r_i_glide_einternal>
0.753213

> <r_i_glide_emodel>
-50.3815

> <r_i_glide_energy>
-38.0043

> <r_i_glide_erotb>
0.389254

> <r_i_glide_esite>
-0.0927683

> <r_i_glide_evdw>
-34.3934

> <r_i_glide_gscore>
-5.23441

> <r_i_glide_hbond>
0

> <r_i_glide_ligand_efficiency>
-0.249258

> <r_i_glide_ligand_efficiency_ln>
-1.2942

> <r_i_glide_ligand_efficiency_sa>
-0.687683

> <r_i_glide_lipo>
-1.34744

> <r_i_glide_metal>
0

> <r_i_glide_rewards>
-1.92216

> <s_i_glide_gridfile>
wee1_glide-grid

> <s_m_Source_File>
wee1_decoys_glide_SP.sdf

> <s_m_Source_Path>
/Users/zhangxujun/Desktop

> <s_m_entry_id>
5324

> <s_m_entry_name>
wee1_decoys_glide_SP.5049

> <s_m_subgroup_title>
wee1_decoys_glide_SP

> <s_m_subgroupid>
wee1_decoys_glide_SP


$$$$
