ZINC02955282_2693
                    3D
 Schrodinger Suite 2024-2.
 55 60  0  0  1  0            999 V2000
    0.9622   51.8353   20.5625 C   0  0  0  0  0  0
    0.7557   51.0525   19.4299 C   0  0  0  0  0  0
    1.1445   49.7061   19.4124 C   0  0  0  0  0  0
    1.7421   49.1600   20.5559 C   0  0  0  0  0  0
    1.9429   49.9375   21.6897 C   0  0  0  0  0  0
    1.5656   51.2831   21.6952 C   0  0  0  0  0  0
    1.8707   52.1349   22.9357 C   0  0  1  0  0  0
    2.7042   51.5925   23.3630 H   0  0  0  0  0  0
    2.4021   53.5743   22.6944 C   0  0  2  0  0  0
    1.5770   54.1744   22.3093 H   0  0  0  0  0  0
    3.5946   53.6460   21.7196 C   0  0  0  0  0  0
    4.7963   53.8129   22.6213 C   0  0  0  0  0  0
    4.4268   54.0970   23.8795 C   0  0  0  0  0  0
    2.9197   54.2183   24.0018 C   0  0  2  0  0  0
    2.6621   55.2801   24.0125 H   0  0  0  0  0  0
    2.3262   53.6286   25.2900 C   0  0  0  0  0  0
    2.7605   54.0927   26.5336 C   0  0  0  0  0  0
    2.1961   53.6258   27.7155 C   0  0  0  0  0  0
    1.1555   52.6991   27.6690 C   0  0  0  0  0  0
    0.6808   52.2049   26.4474 C   0  0  0  0  0  0
    1.3046   52.6525   25.2658 C   0  0  0  0  0  0
    0.9153   52.0974   24.0478 N   0  0  0  0  0  0
   -0.4926   51.7828   23.8046 C   0  0  0  0  0  0
   -1.2193   51.1990   25.0464 C   0  0  1  0  0  0
   -1.4840   50.1735   24.7751 H   0  0  0  0  0  0
   -0.4338   51.1549   26.3731 C   0  0  2  0  0  0
    0.0483   50.1807   26.4708 H   0  0  0  0  0  0
   -1.5343   51.2986   27.4080 C   0  0  0  0  0  0
   -2.6959   51.6873   26.8572 C   0  0  0  0  0  0
   -2.5738   51.8538   25.3586 C   0  0  0  0  0  0
    2.7990   54.2324   29.2822 S   0  0  0  0  0  0
    2.6257   53.1615   30.2688 O   0  0  0  0  0  0
    4.1062   54.8561   29.0598 O   0  0  0  0  0  0
    1.6873   55.5040   29.7066 N   0  0  0  0  0  0
    0.9295   48.8709   18.2043 N   0  3  0  0  0  0
    0.3945   49.3837   17.2242 O   0  0  0  0  0  0
    1.2640   47.6893   18.2416 O   0  5  0  0  0  0
    0.6772   52.8766   20.5439 H   0  0  0  0  0  0
    0.3006   51.5032   18.5584 H   0  0  0  0  0  0
    2.0683   48.1303   20.5694 H   0  0  0  0  0  0
    2.4135   49.4938   22.5578 H   0  0  0  0  0  0
    3.6993   52.7511   21.1051 H   0  0  0  0  0  0
    3.5043   54.4915   21.0356 H   0  0  0  0  0  0
    5.8085   53.7138   22.2560 H   0  0  0  0  0  0
    5.0942   54.2909   24.7084 H   0  0  0  0  0  0
    3.5469   54.8331   26.5757 H   0  0  0  0  0  0
    0.7200   52.3485   28.5936 H   0  0  0  0  0  0
   -0.9097   52.7850   23.6895 H   0  0  0  0  0  0
   -0.7095   51.2521   22.8768 H   0  0  0  0  0  0
   -1.3654   51.0937   28.4549 H   0  0  0  0  0  0
   -3.6222   51.8628   27.3843 H   0  0  0  0  0  0
   -2.6188   52.9098   25.0812 H   0  0  0  0  0  0
   -3.3840   51.3398   24.8367 H   0  0  0  0  0  0
    1.7292   56.3129   29.0837 H   0  0  0  0  0  0
    0.7344   55.1838   29.8923 H   0  0  0  0  0  0
  1  6  2  0  0  0
  1  2  1  0  0  0
  1 38  1  0  0  0
  2  3  2  0  0  0
  2 39  1  0  0  0
  3  4  1  0  0  0
  3 35  1  0  0  0
  4  5  2  0  0  0
  4 40  1  0  0  0
  5  6  1  0  0  0
  5 41  1  0  0  0
  6  7  1  0  0  0
  7  8  1  0  0  0
  7 22  1  0  0  0
  7  9  1  0  0  0
  9 10  1  0  0  0
  9 14  1  0  0  0
  9 11  1  0  0  0
 11 12  1  0  0  0
 11 42  1  0  0  0
 11 43  1  0  0  0
 12 13  2  0  0  0
 12 44  1  0  0  0
 13 14  1  0  0  0
 13 45  1  0  0  0
 14 15  1  0  0  0
 14 16  1  0  0  0
 16 21  2  0  0  0
 16 17  1  0  0  0
 17 18  2  0  0  0
 17 46  1  0  0  0
 18 19  1  0  0  0
 18 31  1  0  0  0
 19 20  2  0  0  0
 19 47  1  0  0  0
 20 26  1  0  0  0
 20 21  1  0  0  0
 21 22  1  0  0  0
 22 23  1  0  0  0
 23 24  1  0  0  0
 23 48  1  0  0  0
 23 49  1  0  0  0
 24 25  1  0  0  0
 24 30  1  0  0  0
 24 26  1  0  0  0
 26 27  1  0  0  0
 26 28  1  0  0  0
 28 29  2  0  0  0
 28 50  1  0  0  0
 29 30  1  0  0  0
 29 51  1  0  0  0
 30 52  1  0  0  0
 30 53  1  0  0  0
 31 32  2  0  0  0
 31 33  2  0  0  0
 31 34  1  0  0  0
 34 54  1  0  0  0
 34 55  1  0  0  0
 35 36  2  0  0  0
 35 37  1  0  0  0
M  CHG  2  35   1  37  -1
M  END
> <i_i_glide_confnum>
1

> <i_i_glide_lignum>
2694

> <i_i_glide_posenum>
382

> <i_i_glide_rotatable_bonds>
3

> <i_m_Source_File_Index>
4474

> <b_m_subgroup_collapsed>
0

> <r_i_docking_score>
-5.32383

> <r_i_glide_ecoul>
-2.42662

> <r_i_glide_eff_state_penalty>
0

> <r_i_glide_einternal>
0.255196

> <r_i_glide_emodel>
-59.9723

> <r_i_glide_energy>
-45.4344

> <r_i_glide_erotb>
0.0991809

> <r_i_glide_esite>
-0.113592

> <r_i_glide_evdw>
-43.0078

> <r_i_glide_gscore>
-5.32383

> <r_i_glide_hbond>
0

> <r_i_glide_ligand_efficiency>
-0.16637

> <r_i_glide_ligand_efficiency_ln>
-1.19215

> <r_i_glide_ligand_efficiency_sa>
-0.52819

> <r_i_glide_lipo>
-2.11963

> <r_i_glide_metal>
0

> <r_i_glide_rewards>
-0.675398

> <s_i_glide_gridfile>
wee1_glide-grid

> <s_m_Source_File>
wee1_decoys_glide_SP.sdf

> <s_m_Source_Path>
/Users/zhangxujun/Desktop

> <s_m_entry_id>
4749

> <s_m_entry_name>
wee1_decoys_glide_SP.4474

> <s_m_subgroup_title>
wee1_decoys_glide_SP

> <s_m_subgroupid>
wee1_decoys_glide_SP


$$$$
