ZINC25468289_2259
                    3D
 Schrodinger Suite 2024-2.
 60 62  0  0  1  0            999 V2000
   -3.4440   50.5141   26.1435 C   0  0  0  0  0  0
   -2.2176   50.9563   26.9179 C   0  0  0  0  0  0
   -0.9751   51.0156   26.2854 C   0  0  0  0  0  0
    0.1500   51.4086   27.0039 C   0  0  0  0  0  0
    0.0285   51.7492   28.3520 C   0  0  0  0  0  0
   -1.2105   51.6964   28.9864 C   0  0  0  0  0  0
   -2.3344   51.2963   28.2672 C   0  0  0  0  0  0
    1.4652   52.3406   29.2317 S   0  0  0  0  0  0
    2.5711   51.4575   28.8537 O   0  0  0  0  0  0
    1.1069   52.5316   30.6417 O   0  0  0  0  0  0
    1.7184   53.9479   28.5141 N   0  0  0  0  0  0
    0.5949   54.8963   28.6422 C   0  0  0  0  0  0
    1.1054   56.0215   29.5263 C   0  0  0  0  0  0
    2.5726   55.7556   29.6954 C   0  0  0  0  0  0
    2.9717   54.7594   28.5995 C   0  0  1  0  0  0
    3.1373   55.2983   27.6688 H   0  0  0  0  0  0
    4.2417   53.9661   28.9827 C   0  0  0  0  0  0
    4.2905   53.4276   30.0819 O   0  0  0  0  0  0
    5.3189   53.9040   28.1836 N   0  0  0  0  0  0
    5.4256   54.2736   26.8433 C   0  0  0  0  0  0
    6.5745   54.9604   26.4616 C   0  0  0  0  0  0
    6.7720   55.2939   25.1237 C   0  0  0  0  0  0
    5.8548   54.8953   24.1578 C   0  0  0  0  0  0
    4.7076   54.1770   24.5261 C   0  0  0  0  0  0
    4.4828   53.8943   25.8777 C   0  0  0  0  0  0
    3.7652   53.6977   23.6005 N   0  0  0  0  0  0
    3.9930   53.2919   22.3294 C   0  0  0  0  0  0
    5.1037   53.3337   21.7974 O   0  0  0  0  0  0
    2.8161   52.6060   21.5681 C   0  0  0  0  0  0
    1.4333   53.0999   22.0724 C   0  0  0  0  0  0
    2.8903   51.0716   21.7618 C   0  0  0  0  0  0
    2.9490   52.8989   20.0466 C   0  0  0  0  0  0
   -3.3223   50.6820   25.0730 H   0  0  0  0  0  0
   -3.6371   49.4549   26.3193 H   0  0  0  0  0  0
   -4.3218   51.0805   26.4559 H   0  0  0  0  0  0
   -0.8764   50.7451   25.2450 H   0  0  0  0  0  0
    1.1091   51.4563   26.5117 H   0  0  0  0  0  0
   -1.2970   51.9388   30.0355 H   0  0  0  0  0  0
   -3.2891   51.2277   28.7676 H   0  0  0  0  0  0
   -0.3451   54.4258   28.9200 H   0  0  0  0  0  0
    0.3874   55.3340   27.6819 H   0  0  0  0  0  0
    0.5987   56.0348   30.4923 H   0  0  0  0  0  0
    0.9420   56.9888   29.0558 H   0  0  0  0  0  0
    2.7053   55.3211   30.6752 H   0  0  0  0  0  0
    3.1209   56.6940   29.6725 H   0  0  0  0  0  0
    6.1645   53.5694   28.6198 H   0  0  0  0  0  0
    7.2986   55.2541   27.2099 H   0  0  0  0  0  0
    7.6433   55.8518   24.8175 H   0  0  0  0  0  0
    6.0458   55.1540   23.1263 H   0  0  0  0  0  0
    3.6165   53.3176   26.1717 H   0  0  0  0  0  0
    2.8485   53.5059   23.9714 H   0  0  0  0  0  0
    0.6247   52.7410   21.4347 H   0  0  0  0  0  0
    1.3771   54.1870   22.0822 H   0  0  0  0  0  0
    1.2147   52.7550   23.0843 H   0  0  0  0  0  0
    3.8687   50.6757   21.4851 H   0  0  0  0  0  0
    2.6913   50.7765   22.7931 H   0  0  0  0  0  0
    2.1574   50.5583   21.1391 H   0  0  0  0  0  0
    3.7965   52.3700   19.6049 H   0  0  0  0  0  0
    2.0624   52.5861   19.4939 H   0  0  0  0  0  0
    3.1064   53.9574   19.8387 H   0  0  0  0  0  0
  1  2  1  0  0  0
  1 33  1  0  0  0
  1 34  1  0  0  0
  1 35  1  0  0  0
  2  7  2  0  0  0
  2  3  1  0  0  0
  3  4  2  0  0  0
  3 36  1  0  0  0
  4  5  1  0  0  0
  4 37  1  0  0  0
  5  6  2  0  0  0
  5  8  1  0  0  0
  6  7  1  0  0  0
  6 38  1  0  0  0
  7 39  1  0  0  0
  8  9  2  0  0  0
  8 10  2  0  0  0
  8 11  1  0  0  0
 11 15  1  0  0  0
 11 12  1  0  0  0
 12 13  1  0  0  0
 12 40  1  0  0  0
 12 41  1  0  0  0
 13 14  1  0  0  0
 13 42  1  0  0  0
 13 43  1  0  0  0
 14 15  1  0  0  0
 14 44  1  0  0  0
 14 45  1  0  0  0
 15 16  1  0  0  0
 15 17  1  0  0  0
 17 18  2  0  0  0
 17 19  1  0  0  0
 19 20  1  0  0  0
 19 46  1  0  0  0
 20 25  2  0  0  0
 20 21  1  0  0  0
 21 22  2  0  0  0
 21 47  1  0  0  0
 22 23  1  0  0  0
 22 48  1  0  0  0
 23 24  2  0  0  0
 23 49  1  0  0  0
 24 25  1  0  0  0
 24 26  1  0  0  0
 25 50  1  0  0  0
 26 27  1  0  0  0
 26 51  1  0  0  0
 27 28  2  0  0  0
 27 29  1  0  0  0
 29 30  1  0  0  0
 29 31  1  0  0  0
 29 32  1  0  0  0
 30 52  1  0  0  0
 30 53  1  0  0  0
 30 54  1  0  0  0
 31 55  1  0  0  0
 31 56  1  0  0  0
 31 57  1  0  0  0
 32 58  1  0  0  0
 32 59  1  0  0  0
 32 60  1  0  0  0
M  END
> <i_i_glide_confnum>
179

> <i_i_glide_lignum>
2260

> <i_i_glide_posenum>
7

> <i_i_glide_rotatable_bonds>
8

> <i_m_Source_File_Index>
3948

> <b_m_subgroup_collapsed>
0

> <r_i_docking_score>
-2.45102

> <r_i_glide_ecoul>
-2.61592

> <r_i_glide_eff_state_penalty>
0

> <r_i_glide_einternal>
14.2183

> <r_i_glide_emodel>
-31.5762

> <r_i_glide_energy>
-43.0226

> <r_i_glide_erotb>
0.711319

> <r_i_glide_esite>
-0.0301784

> <r_i_glide_evdw>
-40.4066

> <r_i_glide_gscore>
-2.45102

> <r_i_glide_hbond>
-0.0554991

> <r_i_glide_ligand_efficiency>
-0.0790651

> <r_i_glide_ligand_efficiency_ln>
-0.552779

> <r_i_glide_ligand_efficiency_sa>
-0.248373

> <r_i_glide_lipo>
-2.48431

> <r_i_glide_metal>
0

> <r_i_glide_rewards>
1.82037

> <s_i_glide_gridfile>
wee1_glide-grid

> <s_m_Source_File>
wee1_decoys_glide_SP.sdf

> <s_m_Source_Path>
/Users/zhangxujun/Desktop

> <s_m_entry_id>
4223

> <s_m_entry_name>
wee1_decoys_glide_SP.3948

> <s_m_subgroup_title>
wee1_decoys_glide_SP

> <s_m_subgroupid>
wee1_decoys_glide_SP


$$$$
