ZINC08951250_2899
                    3D
 Schrodinger Suite 2024-2.
 49 51  0  0  1  0            999 V2000
    1.5021   56.8481   30.9750 C   0  0  0  0  0  0
    2.2327   56.0212   30.0811 O   0  0  0  0  0  0
    1.6734   54.8478   29.6210 C   0  0  0  0  0  0
    0.5669   54.2179   30.2143 C   0  0  0  0  0  0
    0.0327   53.0533   29.6618 C   0  0  0  0  0  0
    0.5820   52.5039   28.5000 C   0  0  0  0  0  0
    1.7268   53.0959   27.9567 C   0  0  0  0  0  0
    2.2738   54.2533   28.5054 C   0  0  0  0  0  0
    3.4830   54.8946   27.8412 C   0  0  0  0  0  0
    4.3432   53.9104   27.2712 O   0  0  0  0  0  0
    4.7044   54.0970   25.9598 C   0  0  0  0  0  0
    6.0579   54.2343   25.6566 C   0  0  0  0  0  0
    6.4605   54.3765   24.3308 C   0  0  0  0  0  0
    5.5084   54.3562   23.3141 C   0  0  0  0  0  0
    4.1558   54.2082   23.6115 C   0  0  0  0  0  0
    3.7498   54.0964   24.9382 C   0  0  0  0  0  0
    5.9016   54.4915   22.0279 F   0  0  0  0  0  0
   -0.0512   51.3598   27.8487 C   0  0  0  0  0  0
    0.3050   50.9540   26.6968 N   0  0  0  0  0  0
   -0.4364   49.9337   26.2593 N   0  0  0  0  0  0
   -0.2308   49.3306   25.0694 C   0  0  0  0  0  0
    0.7043   49.5827   24.3078 O   0  0  0  0  0  0
   -1.2791   48.3135   24.6973 C   0  0  0  0  0  0
   -1.8442   48.1984   23.4090 C   0  0  0  0  0  0
   -2.8678   47.2551   23.1992 C   0  0  0  0  0  0
   -3.3190   46.4628   24.2708 C   0  0  0  0  0  0
   -2.7285   46.6143   25.5321 C   0  0  0  0  0  0
   -3.2286   45.6960   26.9071 Cl  0  0  0  0  0  0
   -4.5914   45.3020   24.0474 Cl  0  0  0  0  0  0
   -3.4404   47.1071   21.9310 N   0  0  0  0  0  0
   -1.3241   49.2158   22.0948 Cl  0  0  0  0  0  0
    2.1182   57.6938   31.2816 H   0  0  0  0  0  0
    0.6180   57.2438   30.4849 H   0  0  0  0  0  0
    1.2063   56.3262   31.8831 H   0  0  0  0  0  0
    0.0949   54.6226   31.0967 H   0  0  0  0  0  0
   -0.8322   52.6024   30.1332 H   0  0  0  0  0  0
    2.1837   52.6689   27.0745 H   0  0  0  0  0  0
    3.1047   55.6346   27.1333 H   0  0  0  0  0  0
    4.0852   55.3984   28.5932 H   0  0  0  0  0  0
    6.7905   54.2237   26.4505 H   0  0  0  0  0  0
    7.5044   54.4929   24.0833 H   0  0  0  0  0  0
    3.4261   54.1910   22.8153 H   0  0  0  0  0  0
    2.7009   53.9790   25.1673 H   0  0  0  0  0  0
   -0.8599   50.8973   28.4196 H   0  0  0  0  0  0
   -1.1499   49.6127   26.9033 H   0  0  0  0  0  0
   -3.0104   47.6545   21.1970 H   0  0  0  0  0  0
   -4.4459   47.0144   21.8995 H   0  0  0  0  0  0
   -1.7468   47.5160   25.6816 N   0  3  0  0  0  0
   -1.3767   47.6459   26.6262 H   0  0  0  0  0  0
  1  2  1  0  0  0
  1 32  1  0  0  0
  1 33  1  0  0  0
  1 34  1  0  0  0
  2  3  1  0  0  0
  3  8  2  0  0  0
  3  4  1  0  0  0
  4  5  2  0  0  0
  4 35  1  0  0  0
  5  6  1  0  0  0
  5 36  1  0  0  0
  6  7  2  0  0  0
  6 18  1  0  0  0
  7  8  1  0  0  0
  7 37  1  0  0  0
  8  9  1  0  0  0
  9 10  1  0  0  0
  9 38  1  0  0  0
  9 39  1  0  0  0
 10 11  1  0  0  0
 11 16  2  0  0  0
 11 12  1  0  0  0
 12 13  2  0  0  0
 12 40  1  0  0  0
 13 14  1  0  0  0
 13 41  1  0  0  0
 14 15  2  0  0  0
 14 17  1  0  0  0
 15 16  1  0  0  0
 15 42  1  0  0  0
 16 43  1  0  0  0
 18 19  2  0  0  0
 18 44  1  0  0  0
 19 20  1  0  0  0
 20 21  1  0  0  0
 20 45  1  0  0  0
 21 22  2  0  0  0
 21 23  1  0  0  0
 23 24  2  0  0  0
 23 48  1  0  0  0
 24 25  1  0  0  0
 24 31  1  0  0  0
 25 26  2  0  0  0
 25 30  1  0  0  0
 26 27  1  0  0  0
 26 29  1  0  0  0
 27 28  1  0  0  0
 27 48  2  0  0  0
 30 46  1  0  0  0
 30 47  1  0  0  0
 48 49  1  0  0  0
M  CHG  1  48   1
M  END
> <i_i_glide_confnum>
53

> <i_i_glide_lignum>
2900

> <i_i_glide_posenum>
275

> <i_i_glide_rotatable_bonds>
8

> <i_m_Source_File_Index>
2118

> <b_m_subgroup_collapsed>
0

> <r_i_docking_score>
-5.38651

> <r_i_glide_ecoul>
-6.38467

> <r_i_glide_eff_state_penalty>
0

> <r_i_glide_einternal>
9.54083

> <r_i_glide_emodel>
-59.7708

> <r_i_glide_energy>
-48.9949

> <r_i_glide_erotb>
0.574314

> <r_i_glide_esite>
-0.286656

> <r_i_glide_evdw>
-42.6103

> <r_i_glide_gscore>
-5.38651

> <r_i_glide_hbond>
-0.337943

> <r_i_glide_ligand_efficiency>
-0.168328

> <r_i_glide_ligand_efficiency_ln>
-1.20619

> <r_i_glide_ligand_efficiency_sa>
-0.534409

> <r_i_glide_lipo>
-3.22298

> <r_i_glide_metal>
0

> <r_i_glide_rewards>
0.97497

> <s_i_glide_gridfile>
wee1_glide-grid

> <s_m_Source_File>
wee1_decoys_glide_SP.sdf

> <s_m_Source_Path>
/Users/zhangxujun/Desktop

> <s_m_entry_id>
2393

> <s_m_entry_name>
wee1_decoys_glide_SP.2118

> <s_m_subgroup_title>
wee1_decoys_glide_SP

> <s_m_subgroupid>
wee1_decoys_glide_SP


$$$$
