ZINC38597733_1191
                    3D
 Schrodinger Suite 2024-2.
 67 71  0  0  1  0            999 V2000
    1.0915   52.3955   22.3219 C   0  0  0  0  0  0
    0.4312   52.1886   23.5359 C   0  0  0  0  0  0
    0.6909   50.8793   23.9241 C   0  0  0  0  0  0
    1.4716   50.2828   22.9835 O   0  0  0  0  0  0
    1.7199   51.2011   22.0156 C   0  0  0  0  0  0
    0.3044   50.0137   25.1118 C   0  0  1  0  0  0
    1.1030   49.2956   25.3171 H   0  0  0  0  0  0
    0.0095   50.7975   26.4262 C   0  0  0  0  0  0
    1.1038   51.6962   26.8112 N   0  0  0  0  0  0
    0.9929   52.7935   27.5763 C   0  0  0  0  0  0
   -0.0913   53.1470   28.0454 O   0  0  0  0  0  0
    2.3239   53.5587   27.9051 C   0  0  0  0  0  0
    3.0064   52.7595   29.0701 C   0  0  0  0  0  0
    3.3393   53.7822   30.1514 C   0  0  0  0  0  0
    2.1536   54.7457   30.0740 C   0  0  0  0  0  0
    1.9832   54.9365   28.5668 C   0  0  0  0  0  0
    3.2411   53.7921   26.6672 C   0  0  0  0  0  0
    2.7085   54.0408   25.3917 C   0  0  0  0  0  0
    3.5412   54.2568   24.2968 C   0  0  0  0  0  0
    4.9221   54.2703   24.4718 C   0  0  0  0  0  0
    5.4707   54.0969   25.7380 C   0  0  0  0  0  0
    4.6350   53.8669   26.8268 C   0  0  0  0  0  0
    5.9608   54.5020   23.1132 Cl  0  0  0  0  0  0
   -0.8892   49.1344   24.6294 N   0  3  0  0  0  0
   -0.8543   47.7072   25.2124 C   0  0  0  0  0  0
   -1.9815   46.8530   24.5913 C   0  0  0  0  0  0
   -3.3278   47.4340   24.6904 N   0  0  0  0  0  0
   -3.3577   48.8148   24.1823 C   0  0  0  0  0  0
   -2.2945   49.7575   24.7896 C   0  0  0  0  0  0
   -4.1438   47.0419   25.7420 C   0  0  0  0  0  0
   -4.9877   45.9402   25.5693 C   0  0  0  0  0  0
   -5.7843   45.4898   26.6214 C   0  0  0  0  0  0
   -5.7274   46.1331   27.8550 C   0  0  0  0  0  0
   -4.8819   47.2207   28.0442 C   0  0  0  0  0  0
   -4.0956   47.6737   26.9892 C   0  0  0  0  0  0
   -6.4907   45.6938   28.8809 F   0  0  0  0  0  0
    1.1123   53.3012   21.7314 H   0  0  0  0  0  0
   -0.1631   52.9100   24.0781 H   0  0  0  0  0  0
    2.3385   50.8736   21.1915 H   0  0  0  0  0  0
   -0.1564   50.0978   27.2494 H   0  0  0  0  0  0
   -0.9034   51.3860   26.3281 H   0  0  0  0  0  0
    2.0277   51.4567   26.4862 H   0  0  0  0  0  0
    2.3355   52.0323   29.5376 H   0  0  0  0  0  0
    3.8699   52.1711   28.7593 H   0  0  0  0  0  0
    3.4574   53.2954   31.1183 H   0  0  0  0  0  0
    4.2722   54.3032   29.9261 H   0  0  0  0  0  0
    1.2577   54.2892   30.5011 H   0  0  0  0  0  0
    2.3057   55.6983   30.5797 H   0  0  0  0  0  0
    2.7022   55.6967   28.2533 H   0  0  0  0  0  0
    1.0016   55.3455   28.3198 H   0  0  0  0  0  0
    1.6405   54.0610   25.2386 H   0  0  0  0  0  0
    3.1172   54.4187   23.3166 H   0  0  0  0  0  0
    6.5417   54.1216   25.8747 H   0  0  0  0  0  0
    5.0967   53.7427   27.7938 H   0  0  0  0  0  0
    0.1033   47.2971   24.8829 H   0  0  0  0  0  0
   -0.8954   47.7750   26.3012 H   0  0  0  0  0  0
   -1.7928   46.7606   23.5203 H   0  0  0  0  0  0
   -1.9582   45.8503   25.0169 H   0  0  0  0  0  0
   -4.3554   49.2422   24.2952 H   0  0  0  0  0  0
   -3.1656   48.7265   23.1120 H   0  0  0  0  0  0
   -2.4736   49.9477   25.8471 H   0  0  0  0  0  0
   -2.2668   50.6955   24.2331 H   0  0  0  0  0  0
   -5.0368   45.4384   24.6136 H   0  0  0  0  0  0
   -6.4421   44.6438   26.4855 H   0  0  0  0  0  0
   -4.8184   47.7046   29.0075 H   0  0  0  0  0  0
   -3.4183   48.4940   27.1696 H   0  0  0  0  0  0
   -0.7473   49.0177   23.6351 H   0  0  0  0  0  0
  1  5  2  0  0  0
  1  2  1  0  0  0
  1 37  1  0  0  0
  2  3  2  0  0  0
  2 38  1  0  0  0
  3  4  1  0  0  0
  3  6  1  0  0  0
  4  5  1  0  0  0
  5 39  1  0  0  0
  6  7  1  0  0  0
  6  8  1  0  0  0
  6 24  1  0  0  0
  8  9  1  0  0  0
  8 40  1  0  0  0
  8 41  1  0  0  0
  9 10  1  0  0  0
  9 42  1  0  0  0
 10 11  2  0  0  0
 10 12  1  0  0  0
 12 16  1  0  0  0
 12 13  1  0  0  0
 12 17  1  0  0  0
 13 14  1  0  0  0
 13 43  1  0  0  0
 13 44  1  0  0  0
 14 15  1  0  0  0
 14 45  1  0  0  0
 14 46  1  0  0  0
 15 16  1  0  0  0
 15 47  1  0  0  0
 15 48  1  0  0  0
 16 49  1  0  0  0
 16 50  1  0  0  0
 17 22  2  0  0  0
 17 18  1  0  0  0
 18 19  2  0  0  0
 18 51  1  0  0  0
 19 20  1  0  0  0
 19 52  1  0  0  0
 20 21  2  0  0  0
 20 23  1  0  0  0
 21 22  1  0  0  0
 21 53  1  0  0  0
 22 54  1  0  0  0
 24 29  1  0  0  0
 24 25  1  0  0  0
 24 67  1  0  0  0
 25 26  1  0  0  0
 25 55  1  0  0  0
 25 56  1  0  0  0
 26 27  1  0  0  0
 26 57  1  0  0  0
 26 58  1  0  0  0
 27 28  1  0  0  0
 27 30  1  0  0  0
 28 29  1  0  0  0
 28 59  1  0  0  0
 28 60  1  0  0  0
 29 61  1  0  0  0
 29 62  1  0  0  0
 30 35  2  0  0  0
 30 31  1  0  0  0
 31 32  2  0  0  0
 31 63  1  0  0  0
 32 33  1  0  0  0
 32 64  1  0  0  0
 33 34  2  0  0  0
 33 36  1  0  0  0
 34 35  1  0  0  0
 34 65  1  0  0  0
 35 66  1  0  0  0
M  CHG  1  24   1
M  END
> <i_i_glide_confnum>
162

> <i_i_glide_lignum>
1192

> <i_i_glide_posenum>
117

> <i_i_glide_rotatable_bonds>
8

> <i_m_Source_File_Index>
2180

> <b_m_subgroup_collapsed>
0

> <r_i_docking_score>
-4.74528

> <r_i_glide_ecoul>
-3.29488

> <r_i_glide_eff_state_penalty>
0

> <r_i_glide_einternal>
12.0403

> <r_i_glide_emodel>
-48.5169

> <r_i_glide_energy>
-40.8912

> <r_i_glide_erotb>
0.660522

> <r_i_glide_esite>
-0.132028

> <r_i_glide_evdw>
-37.5963

> <r_i_glide_gscore>
-4.74528

> <r_i_glide_hbond>
0

> <r_i_glide_ligand_efficiency>
-0.135579

> <r_i_glide_ligand_efficiency_ln>
-1.04169

> <r_i_glide_ligand_efficiency_sa>
-0.443489

> <r_i_glide_lipo>
-2.58895

> <r_i_glide_metal>
0

> <r_i_glide_rewards>
-0.310774

> <s_i_glide_gridfile>
wee1_glide-grid

> <s_m_Source_File>
wee1_decoys_glide_SP.sdf

> <s_m_Source_Path>
/Users/zhangxujun/Desktop

> <s_m_entry_id>
2455

> <s_m_entry_name>
wee1_decoys_glide_SP.2180

> <s_m_subgroup_title>
wee1_decoys_glide_SP

> <s_m_subgroupid>
wee1_decoys_glide_SP


$$$$
