ZINC39639445_1322
                    3D
 Schrodinger Suite 2024-2.
 66 69  0  0  1  0            999 V2000
    5.5645   54.3806   20.6399 C   0  0  0  0  0  0
    5.5472   54.3878   22.1576 C   0  0  0  0  0  0
    4.3632   54.0954   22.8296 C   0  0  0  0  0  0
    4.3365   54.0972   24.2204 C   0  0  0  0  0  0
    5.4933   54.3764   24.9659 C   0  0  0  0  0  0
    6.6751   54.6712   24.2737 C   0  0  0  0  0  0
    6.7041   54.6790   22.8818 C   0  0  0  0  0  0
    5.4709   54.3362   26.5117 C   0  0  2  0  0  0
    5.2085   55.3507   26.8168 H   0  0  0  0  0  0
    6.8270   54.0615   27.1853 C   0  0  0  0  0  0
    4.4832   53.4144   27.0776 N   0  0  0  0  0  0
    3.2163   53.7312   27.3814 C   0  0  0  0  0  0
    2.7993   54.8817   27.2822 O   0  0  0  0  0  0
    2.3296   52.5908   27.9409 C   0  0  2  0  0  0
    2.9896   51.8279   28.3557 H   0  0  0  0  0  0
    1.5475   51.9394   26.7845 C   0  0  0  0  0  0
    0.2103   52.4978   26.8364 N   0  0  0  0  0  0
    0.0677   53.4137   27.9767 C   0  0  0  0  0  0
    1.2184   53.0268   28.9313 C   0  0  0  0  0  0
    0.8258   51.7937   29.7905 C   0  0  0  0  0  0
   -0.4087   52.0917   30.6562 C   0  0  0  0  0  0
   -0.0723   53.2637   31.6062 N   0  3  0  0  0  0
    0.4348   54.5199   30.8798 C   0  0  0  0  0  0
    1.6184   54.1058   29.9830 C   0  0  0  0  0  0
   -0.7468   52.0434   25.9864 C   0  0  0  0  0  0
   -0.4850   51.1985   25.1244 O   0  0  0  0  0  0
   -2.1884   52.6049   26.0423 C   0  0  0  0  0  0
   -2.7013   52.8980   24.6062 C   0  0  0  0  0  0
   -4.1663   53.3617   24.6891 C   0  0  0  0  0  0
   -4.9624   52.3563   25.3154 O   0  0  0  0  0  0
   -4.5772   52.0211   26.6489 C   0  0  0  0  0  0
   -3.1050   51.5582   26.7194 C   0  0  0  0  0  0
    5.1894   53.4271   20.2652 H   0  0  0  0  0  0
    4.9103   55.1599   20.2492 H   0  0  0  0  0  0
    6.5660   54.5253   20.2342 H   0  0  0  0  0  0
    3.4615   53.8755   22.2752 H   0  0  0  0  0  0
    3.3979   53.8741   24.7026 H   0  0  0  0  0  0
    7.5865   54.8972   24.7998 H   0  0  0  0  0  0
    7.6277   54.9095   22.3716 H   0  0  0  0  0  0
    7.5048   54.8954   27.0340 H   0  0  0  0  0  0
    6.7214   53.9570   28.2665 H   0  0  0  0  0  0
    7.2924   53.1501   26.8099 H   0  0  0  0  0  0
    4.7641   52.4440   27.1197 H   0  0  0  0  0  0
    2.0281   52.0973   25.8158 H   0  0  0  0  0  0
    1.4956   50.8645   26.9704 H   0  0  0  0  0  0
   -0.8956   53.4259   28.4548 H   0  0  0  0  0  0
    0.3046   54.4332   27.6819 H   0  0  0  0  0  0
    0.5697   50.9348   29.1614 H   0  0  0  0  0  0
    1.6680   51.4601   30.3951 H   0  0  0  0  0  0
   -1.2952   52.3562   30.0897 H   0  0  0  0  0  0
   -0.6899   51.2541   31.2804 H   0  0  0  0  0  0
   -0.8862   53.4376   32.1857 H   0  0  0  0  0  0
   -0.4155   54.8974   30.3171 H   0  0  0  0  0  0
    0.7086   55.2420   31.6514 H   0  0  0  0  0  0
    2.4751   53.7548   30.5542 H   0  0  0  0  0  0
    1.9524   55.0257   29.5071 H   0  0  0  0  0  0
   -2.1622   53.5297   26.6145 H   0  0  0  0  0  0
   -2.1415   53.6902   24.1026 H   0  0  0  0  0  0
   -2.7262   51.9924   23.9961 H   0  0  0  0  0  0
   -4.2315   54.2952   25.2525 H   0  0  0  0  0  0
   -4.5612   53.5634   23.6960 H   0  0  0  0  0  0
   -4.7202   52.8961   27.2804 H   0  0  0  0  0  0
   -5.2412   51.2434   27.0283 H   0  0  0  0  0  0
   -3.0795   50.6038   26.1873 H   0  0  0  0  0  0
   -2.8570   51.4224   27.7732 H   0  0  0  0  0  0
    0.6286   52.9366   32.2565 H   0  0  0  0  0  0
  1  2  1  0  0  0
  1 33  1  0  0  0
  1 34  1  0  0  0
  1 35  1  0  0  0
  2  7  2  0  0  0
  2  3  1  0  0  0
  3  4  2  0  0  0
  3 36  1  0  0  0
  4  5  1  0  0  0
  4 37  1  0  0  0
  5  6  2  0  0  0
  5  8  1  0  0  0
  6  7  1  0  0  0
  6 38  1  0  0  0
  7 39  1  0  0  0
  8  9  1  0  0  0
  8 10  1  0  0  0
  8 11  1  0  0  0
 10 40  1  0  0  0
 10 41  1  0  0  0
 10 42  1  0  0  0
 11 12  1  0  0  0
 11 43  1  0  0  0
 12 13  2  0  0  0
 12 14  1  0  0  0
 14 15  1  0  0  0
 14 19  1  0  0  0
 14 16  1  0  0  0
 16 17  1  0  0  0
 16 44  1  0  0  0
 16 45  1  0  0  0
 17 18  1  0  0  0
 17 25  1  0  0  0
 18 19  1  0  0  0
 18 46  1  0  0  0
 18 47  1  0  0  0
 19 24  1  0  0  0
 19 20  1  0  0  0
 20 21  1  0  0  0
 20 48  1  0  0  0
 20 49  1  0  0  0
 21 22  1  0  0  0
 21 50  1  0  0  0
 21 51  1  0  0  0
 22 23  1  0  0  0
 22 52  1  0  0  0
 22 66  1  0  0  0
 23 24  1  0  0  0
 23 53  1  0  0  0
 23 54  1  0  0  0
 24 55  1  0  0  0
 24 56  1  0  0  0
 25 26  2  0  0  0
 25 27  1  0  0  0
 27 32  1  0  0  0
 27 28  1  0  0  0
 27 57  1  0  0  0
 28 29  1  0  0  0
 28 58  1  0  0  0
 28 59  1  0  0  0
 29 30  1  0  0  0
 29 60  1  0  0  0
 29 61  1  0  0  0
 30 31  1  0  0  0
 31 32  1  0  0  0
 31 62  1  0  0  0
 31 63  1  0  0  0
 32 64  1  0  0  0
 32 65  1  0  0  0
M  CHG  1  22   1
M  END
> <i_i_glide_confnum>
174

> <i_i_glide_lignum>
1323

> <i_i_glide_posenum>
323

> <i_i_glide_rotatable_bonds>
6

> <i_m_Source_File_Index>
1245

> <b_m_subgroup_collapsed>
0

> <r_i_docking_score>
-5.10015

> <r_i_glide_ecoul>
1.95456

> <r_i_glide_eff_state_penalty>
0

> <r_i_glide_einternal>
6.72846

> <r_i_glide_emodel>
-43.6369

> <r_i_glide_energy>
-32.293

> <r_i_glide_erotb>
0.689116

> <r_i_glide_esite>
-0.0928018

> <r_i_glide_evdw>
-34.2476

> <r_i_glide_gscore>
-5.10015

> <r_i_glide_hbond>
-0.0545533

> <r_i_glide_ligand_efficiency>
-0.170005

> <r_i_glide_ligand_efficiency_ln>
-1.15881

> <r_i_glide_ligand_efficiency_sa>
-0.528245

> <r_i_glide_lipo>
-3.27651

> <r_i_glide_metal>
0

> <r_i_glide_rewards>
-0.946198

> <s_i_glide_gridfile>
wee1_glide-grid

> <s_m_Source_File>
wee1_decoys_glide_SP.sdf

> <s_m_Source_Path>
/Users/zhangxujun/Desktop

> <s_m_entry_id>
1520

> <s_m_entry_name>
wee1_decoys_glide_SP.1245

> <s_m_subgroup_title>
wee1_decoys_glide_SP

> <s_m_subgroupid>
wee1_decoys_glide_SP


$$$$
