ZINC47128881_4588
                    3D
 Schrodinger Suite 2024-2.
 53 55  0  0  1  0            999 V2000
    6.1390   54.4985   28.2264 C   0  0  0  0  0  0
    5.1941   53.6317   27.3749 C   0  0  2  0  0  0
    5.5939   52.6148   27.3796 H   0  0  0  0  0  0
    5.2256   54.0301   25.8840 C   0  0  0  0  0  0
    6.4615   54.1840   25.2441 C   0  0  0  0  0  0
    6.5367   54.4104   23.8734 C   0  0  0  0  0  0
    5.3671   54.4722   23.1099 C   0  0  0  0  0  0
    4.1278   54.3438   23.7385 C   0  0  0  0  0  0
    4.0606   54.1582   25.1184 C   0  0  0  0  0  0
    5.3834   54.5875   21.7091 N   0  0  0  0  0  0
    6.2545   55.2971   20.9650 C   0  0  0  0  0  0
    7.1045   56.0685   21.4163 O   0  0  0  0  0  0
    6.1044   55.0373   19.6588 N   0  0  0  0  0  0
    6.9582   55.5866   18.6094 C   0  0  0  0  0  0
    8.4172   55.1818   18.5460 C   0  0  0  0  0  0
    7.4384   54.6586   17.5198 C   0  0  0  0  0  0
    3.8568   53.5194   27.9936 N   0  0  0  0  0  0
    3.5516   52.8406   29.1231 C   0  0  0  0  0  0
    4.3834   52.1208   29.6816 O   0  0  0  0  0  0
    2.3117   53.0604   29.6588 N   0  0  0  0  0  0
    1.9663   52.4957   30.9728 C   0  0  0  0  0  0
    1.1148   53.6017   28.9702 C   0  0  1  0  0  0
    0.3369   53.6694   29.7340 H   0  0  0  0  0  0
    1.2532   55.0555   28.4732 C   0  0  0  0  0  0
    0.5439   52.6153   27.9518 C   0  0  0  0  0  0
   -0.4830   51.6897   28.1399 C   0  0  0  0  0  0
   -0.7799   50.9059   27.0191 C   0  0  0  0  0  0
   -0.0004   51.2272   25.9288 C   0  0  0  0  0  0
    1.1046   52.4967   26.3027 S   0  0  0  0  0  0
    7.1853   54.3609   27.9579 H   0  0  0  0  0  0
    5.9047   55.5566   28.1207 H   0  0  0  0  0  0
    6.0712   54.2517   29.2816 H   0  0  0  0  0  0
    7.3827   54.0875   25.7949 H   0  0  0  0  0  0
    7.5043   54.4943   23.4039 H   0  0  0  0  0  0
    3.2142   54.3952   23.1655 H   0  0  0  0  0  0
    3.0923   54.0798   25.5741 H   0  0  0  0  0  0
    4.6130   54.1485   21.2278 H   0  0  0  0  0  0
    5.2351   54.6287   19.3481 H   0  0  0  0  0  0
    6.7128   56.6163   18.3428 H   0  0  0  0  0  0
    9.1517   55.9303   18.2518 H   0  0  0  0  0  0
    8.8126   54.4978   19.2962 H   0  0  0  0  0  0
    7.1430   53.6088   17.5559 H   0  0  0  0  0  0
    7.4814   55.0388   16.4987 H   0  0  0  0  0  0
    3.1412   54.1148   27.6089 H   0  0  0  0  0  0
    2.8207   52.0971   31.5231 H   0  0  0  0  0  0
    1.5044   53.2564   31.6013 H   0  0  0  0  0  0
    1.2375   51.6966   30.8502 H   0  0  0  0  0  0
    0.3047   55.4087   28.0817 H   0  0  0  0  0  0
    1.5438   55.7221   29.2855 H   0  0  0  0  0  0
    1.9794   55.1787   27.6780 H   0  0  0  0  0  0
   -0.9952   51.5606   29.0823 H   0  0  0  0  0  0
   -1.5261   50.1217   27.0138 H   0  0  0  0  0  0
   -0.0101   50.7772   24.9477 H   0  0  0  0  0  0
  1  2  1  0  0  0
  1 30  1  0  0  0
  1 31  1  0  0  0
  1 32  1  0  0  0
  2  3  1  0  0  0
  2  4  1  0  0  0
  2 17  1  0  0  0
  4  9  2  0  0  0
  4  5  1  0  0  0
  5  6  2  0  0  0
  5 33  1  0  0  0
  6  7  1  0  0  0
  6 34  1  0  0  0
  7  8  2  0  0  0
  7 10  1  0  0  0
  8  9  1  0  0  0
  8 35  1  0  0  0
  9 36  1  0  0  0
 10 11  1  0  0  0
 10 37  1  0  0  0
 11 12  2  0  0  0
 11 13  1  0  0  0
 13 14  1  0  0  0
 13 38  1  0  0  0
 14 16  1  0  0  0
 14 15  1  0  0  0
 14 39  1  0  0  0
 15 16  1  0  0  0
 15 40  1  0  0  0
 15 41  1  0  0  0
 16 42  1  0  0  0
 16 43  1  0  0  0
 17 18  1  0  0  0
 17 44  1  0  0  0
 18 19  2  0  0  0
 18 20  1  0  0  0
 20 21  1  0  0  0
 20 22  1  0  0  0
 21 45  1  0  0  0
 21 46  1  0  0  0
 21 47  1  0  0  0
 22 23  1  0  0  0
 22 24  1  0  0  0
 22 25  1  0  0  0
 24 48  1  0  0  0
 24 49  1  0  0  0
 24 50  1  0  0  0
 25 29  1  0  0  0
 25 26  2  0  0  0
 26 27  1  0  0  0
 26 51  1  0  0  0
 27 28  2  0  0  0
 27 52  1  0  0  0
 28 29  1  0  0  0
 28 53  1  0  0  0
M  END
> <i_i_glide_confnum>
259

> <i_i_glide_lignum>
4589

> <i_i_glide_posenum>
267

> <i_i_glide_rotatable_bonds>
10

> <i_m_Source_File_Index>
100

> <b_m_subgroup_collapsed>
0

> <r_i_docking_score>
-5.85602

> <r_i_glide_ecoul>
-4.92373

> <r_i_glide_eff_state_penalty>
0

> <r_i_glide_einternal>
9.13465

> <r_i_glide_emodel>
-61.3635

> <r_i_glide_energy>
-48.3546

> <r_i_glide_erotb>
1.04232

> <r_i_glide_esite>
0

> <r_i_glide_evdw>
-43.4309

> <r_i_glide_gscore>
-5.85602

> <r_i_glide_hbond>
-0.0450763

> <r_i_glide_ligand_efficiency>
-0.21689

> <r_i_glide_ligand_efficiency_ln>
-1.36318

> <r_i_glide_ligand_efficiency_sa>
-0.650669

> <r_i_glide_lipo>
-2.65146

> <r_i_glide_metal>
0

> <r_i_glide_rewards>
-1.2917

> <s_i_glide_gridfile>
wee1_glide-grid

> <s_m_Source_File>
wee1_decoys_glide_SP.sdf

> <s_m_Source_Path>
/Users/zhangxujun/Desktop

> <s_m_entry_id>
375

> <s_m_entry_name>
wee1_decoys_glide_SP.100

> <s_m_subgroup_title>
wee1_decoys_glide_SP

> <s_m_subgroupid>
wee1_decoys_glide_SP


$$$$
