ZINC39886749_2638
                    3D
 Schrodinger Suite 2024-2.
 46 49  0  0  1  0            999 V2000
   -1.0704   48.1958   24.1550 C   0  0  0  0  0  0
   -0.6015   49.4254   24.9752 C   0  0  0  0  0  0
   -1.8591   50.0259   25.6591 C   0  0  0  0  0  0
    0.3709   48.9662   26.0816 C   0  0  0  0  0  0
    0.1545   50.4297   24.0785 C   0  0  0  0  0  0
   -0.1688   51.7929   24.0510 C   0  0  0  0  0  0
    0.5962   52.6810   23.3063 C   0  0  0  0  0  0
    1.6932   52.2271   22.5709 C   0  0  0  0  0  0
    2.0034   50.8661   22.5700 C   0  0  0  0  0  0
    1.2359   49.9785   23.3110 C   0  0  0  0  0  0
    2.5543   53.2437   21.8154 C   0  0  1  0  0  0
    1.9032   54.0967   21.6817 H   0  0  0  0  0  0
    3.7424   53.7529   22.6242 C   0  0  0  0  0  0
    5.0034   54.1218   22.1365 C   0  0  0  0  0  0
    5.9035   54.4856   23.0296 N   0  0  0  0  0  0
    5.4042   54.4967   24.2402 C   0  0  0  0  0  0
    6.3046   54.8967   25.6857 S   0  5  0  0  0  0
    3.7266   54.0842   24.3350 S   0  0  0  0  0  0
    5.5045   54.0965   20.4359 S   0  0  0  0  0  0
    3.8850   53.8360   19.7160 C   0  0  2  0  0  0
    3.5037   54.8482   19.7712 H   0  0  0  0  0  0
    3.1044   52.7719   20.4312 C   0  0  2  0  0  0
    3.7378   51.9011   20.6172 H   0  0  0  0  0  0
    2.1199   52.3275   19.3542 C   0  0  0  0  0  0
    1.0374   51.7747   19.5745 O   0  0  0  0  0  0
    2.6683   52.6668   18.1483 N   0  0  0  0  0  0
    3.8245   53.3849   18.2683 C   0  0  0  0  0  0
    4.6386   53.6957   17.3953 O   0  0  0  0  0  0
    2.0396   52.4590   16.9686 C   0  0  0  0  0  0
    1.2509   53.2620   16.4732 O   0  0  0  0  0  0
    2.3045   51.2967   16.3658 N   0  0  0  0  0  0
   -1.6284   47.4933   24.7747 H   0  0  0  0  0  0
   -0.2364   47.6360   23.7332 H   0  0  0  0  0  0
   -1.7197   48.4929   23.3306 H   0  0  0  0  0  0
   -1.6036   50.8423   26.3354 H   0  0  0  0  0  0
   -2.5752   50.4025   24.9275 H   0  0  0  0  0  0
   -2.3789   49.2819   26.2640 H   0  0  0  0  0  0
    0.6922   49.8014   26.7052 H   0  0  0  0  0  0
   -0.0956   48.2386   26.7363 H   0  0  0  0  0  0
    1.2693   48.4974   25.6826 H   0  0  0  0  0  0
   -0.9886   52.1937   24.6261 H   0  0  0  0  0  0
    0.3515   53.7326   23.3273 H   0  0  0  0  0  0
    2.8499   50.4846   22.0211 H   0  0  0  0  0  0
    1.5173   48.9361   23.3157 H   0  0  0  0  0  0
    3.0166   50.6516   16.7114 H   0  0  0  0  0  0
    1.8397   51.0835   15.4992 H   0  0  0  0  0  0
  1  2  1  0  0  0
  1 32  1  0  0  0
  1 33  1  0  0  0
  1 34  1  0  0  0
  2  3  1  0  0  0
  2  4  1  0  0  0
  2  5  1  0  0  0
  3 35  1  0  0  0
  3 36  1  0  0  0
  3 37  1  0  0  0
  4 38  1  0  0  0
  4 39  1  0  0  0
  4 40  1  0  0  0
  5 10  2  0  0  0
  5  6  1  0  0  0
  6  7  2  0  0  0
  6 41  1  0  0  0
  7  8  1  0  0  0
  7 42  1  0  0  0
  8  9  2  0  0  0
  8 11  1  0  0  0
  9 10  1  0  0  0
  9 43  1  0  0  0
 10 44  1  0  0  0
 11 12  1  0  0  0
 11 22  1  0  0  0
 11 13  1  0  0  0
 13 18  1  0  0  0
 13 14  2  0  0  0
 14 15  1  0  0  0
 14 19  1  0  0  0
 15 16  2  0  0  0
 16 17  1  0  0  0
 16 18  1  0  0  0
 19 20  1  0  0  0
 20 21  1  0  0  0
 20 27  1  0  0  0
 20 22  1  0  0  0
 22 23  1  0  0  0
 22 24  1  0  0  0
 24 25  2  0  0  0
 24 26  1  0  0  0
 26 27  1  0  0  0
 26 29  1  0  0  0
 27 28  2  0  0  0
 29 30  2  0  0  0
 29 31  1  0  0  0
 31 45  1  0  0  0
 31 46  1  0  0  0
M  CHG  1  17  -1
M  END
> <i_i_glide_confnum>
2

> <i_i_glide_lignum>
2639

> <i_i_glide_posenum>
400

> <i_i_glide_rotatable_bonds>
3

> <i_m_Source_File_Index>
2172

> <b_m_subgroup_collapsed>
0

> <r_i_docking_score>
-4.47925

> <r_i_glide_ecoul>
-6.40554

> <r_i_glide_eff_state_penalty>
0

> <r_i_glide_einternal>
3.93295

> <r_i_glide_emodel>
-45.407

> <r_i_glide_energy>
-35.0434

> <r_i_glide_erotb>
0.106352

> <r_i_glide_esite>
-0.227093

> <r_i_glide_evdw>
-28.6379

> <r_i_glide_gscore>
-4.47925

> <r_i_glide_hbond>
-0.16

> <r_i_glide_ligand_efficiency>
-0.159973

> <r_i_glide_ligand_efficiency_ln>
-1.03394

> <r_i_glide_ligand_efficiency_sa>
-0.485773

> <r_i_glide_lipo>
-1.34599

> <r_i_glide_metal>
0

> <r_i_glide_rewards>
-0.459801

> <s_i_glide_gridfile>
wee1_glide-grid

> <s_m_Source_File>
wee1_decoys_glide_SP.sdf

> <s_m_Source_Path>
/Users/zhangxujun/Desktop

> <s_m_entry_id>
2447

> <s_m_entry_name>
wee1_decoys_glide_SP.2172

> <s_m_subgroup_title>
wee1_decoys_glide_SP

> <s_m_subgroupid>
wee1_decoys_glide_SP


$$$$
