ZINC27825393_4721
                    3D
 Schrodinger Suite 2024-2.
 32 34  0  0  1  0            999 V2000
    0.6005   52.1553   22.0407 C   0  0  0  0  0  0
    1.2335   52.6911   23.3114 C   0  0  0  0  0  0
    0.9240   52.1103   24.5396 C   0  0  0  0  0  0
    1.5072   52.5969   25.7060 C   0  0  0  0  0  0
    2.4144   53.6677   25.6622 C   0  0  0  0  0  0
    2.7014   54.2504   24.4214 C   0  0  0  0  0  0
    2.1149   53.7701   23.2540 C   0  0  0  0  0  0
    3.0863   54.2267   26.9353 C   0  0  1  0  0  0
    2.8790   55.2950   26.9060 H   0  0  0  0  0  0
    2.5663   53.6774   28.2704 C   0  0  0  0  0  0
    3.3646   53.0020   29.2001 C   0  0  0  0  0  0
    2.7605   52.5617   30.2850 N   0  0  0  0  0  0
    1.4921   52.8716   30.2829 C   0  0  0  0  0  0
    0.6337   52.5427   31.2864 N   0  0  0  0  0  0
    0.9429   53.7643   28.8998 S   0  0  0  0  0  0
    4.7118   52.8023   29.0351 O   0  0  0  0  0  0
    5.2748   53.4271   27.9638 C   0  0  0  0  0  0
    4.6241   54.0956   26.9811 C   0  0  0  0  0  0
    5.4081   54.7585   25.9868 C   0  0  0  0  0  0
    6.0918   55.2965   25.2240 N   0  0  0  0  0  0
    6.6314   53.2978   28.0813 N   0  0  0  0  0  0
   -0.4370   51.8658   22.2177 H   0  0  0  0  0  0
    0.5865   52.9066   21.2491 H   0  0  0  0  0  0
    1.1434   51.2770   21.6871 H   0  0  0  0  0  0
    0.2406   51.2750   24.5910 H   0  0  0  0  0  0
    1.2635   52.1064   26.6353 H   0  0  0  0  0  0
    3.3791   55.0876   24.3512 H   0  0  0  0  0  0
    2.3515   54.2342   22.3064 H   0  0  0  0  0  0
    0.9513   52.0966   32.1357 H   0  0  0  0  0  0
    7.2401   53.5708   27.3246 H   0  0  0  0  0  0
    7.0498   53.1336   28.9846 H   0  0  0  0  0  0
   -0.3713   52.5147   31.1627 H   0  0  0  0  0  0
  1  2  1  0  0  0
  1 22  1  0  0  0
  1 23  1  0  0  0
  1 24  1  0  0  0
  2  7  2  0  0  0
  2  3  1  0  0  0
  3  4  2  0  0  0
  3 25  1  0  0  0
  4  5  1  0  0  0
  4 26  1  0  0  0
  5  6  2  0  0  0
  5  8  1  0  0  0
  6  7  1  0  0  0
  6 27  1  0  0  0
  7 28  1  0  0  0
  8  9  1  0  0  0
  8 18  1  0  0  0
  8 10  1  0  0  0
 10 15  1  0  0  0
 10 11  2  0  0  0
 11 12  1  0  0  0
 11 16  1  0  0  0
 12 13  2  0  0  0
 13 14  1  0  0  0
 13 15  1  0  0  0
 14 29  1  0  0  0
 14 32  1  0  0  0
 16 17  1  0  0  0
 17 18  2  0  0  0
 17 21  1  0  0  0
 18 19  1  0  0  0
 19 20  3  0  0  0
 21 30  1  0  0  0
 21 31  1  0  0  0
M  END
> <i_i_glide_confnum>
1

> <i_i_glide_lignum>
4722

> <i_i_glide_posenum>
118

> <i_i_glide_rotatable_bonds>
2

> <i_m_Source_File_Index>
651

> <b_m_subgroup_collapsed>
0

> <r_i_docking_score>
-6.47998

> <r_i_glide_ecoul>
-2.74891

> <r_i_glide_eff_state_penalty>
0

> <r_i_glide_einternal>
2.33498

> <r_i_glide_emodel>
-52.0517

> <r_i_glide_energy>
-38.7128

> <r_i_glide_erotb>
0.224192

> <r_i_glide_esite>
-0.0894804

> <r_i_glide_evdw>
-35.9639

> <r_i_glide_gscore>
-6.47998

> <r_i_glide_hbond>
0

> <r_i_glide_ligand_efficiency>
-0.323999

> <r_i_glide_ligand_efficiency_ln>
-1.62172

> <r_i_glide_ligand_efficiency_sa>
-0.879468

> <r_i_glide_lipo>
-2.51368

> <r_i_glide_metal>
0

> <r_i_glide_rewards>
-1.89048

> <s_i_glide_gridfile>
wee1_glide-grid

> <s_m_Source_File>
wee1_decoys_glide_SP.sdf

> <s_m_Source_Path>
/Users/zhangxujun/Desktop

> <s_m_entry_id>
926

> <s_m_entry_name>
wee1_decoys_glide_SP.651

> <s_m_subgroup_title>
wee1_decoys_glide_SP

> <s_m_subgroupid>
wee1_decoys_glide_SP


$$$$
