ZINC08832438_2337
                    3D
 Schrodinger Suite 2024-2.
 65 67  0  0  1  0            999 V2000
    4.3852   58.6291   16.5276 C   0  0  0  0  0  0
    3.6998   57.2775   16.5819 C   0  0  0  0  0  0
    2.6185   57.0089   15.7487 C   0  0  0  0  0  0
    2.0017   55.7626   15.7868 C   0  0  0  0  0  0
    2.4460   54.7678   16.6671 C   0  0  0  0  0  0
    3.5267   55.0367   17.5328 C   0  0  0  0  0  0
    4.1592   56.2917   17.4550 C   0  0  0  0  0  0
    3.9058   54.0344   18.4092 O   0  0  0  0  0  0
    4.8220   54.2639   19.4838 C   0  0  0  0  0  0
    4.2276   53.7060   20.7849 C   0  0  0  0  0  0
    3.4128   52.7837   20.7572 O   0  0  0  0  0  0
    4.6836   54.2893   21.9151 N   0  0  0  0  0  0
    4.2351   54.0969   23.2224 C   0  0  0  0  0  0
    4.9468   54.3762   24.4138 C   0  0  0  0  0  0
    4.1466   54.1524   25.5653 C   0  0  0  0  0  0
    2.8685   53.6820   25.2425 C   0  0  0  0  0  0
    2.6035   53.5769   23.5440 S   0  0  0  0  0  0
    1.8361   53.1777   26.2357 C   0  0  0  0  0  0
    2.1793   53.6743   27.6692 C   0  0  2  0  0  0
    2.0050   54.7524   27.7058 H   0  0  0  0  0  0
    3.6872   53.4149   27.9299 C   0  0  0  0  0  0
    4.6013   54.2584   27.0243 C   0  0  0  0  0  0
    1.2431   53.0435   28.7688 C   0  0  0  0  0  0
    1.4809   51.5239   28.9420 C   0  0  0  0  0  0
   -0.2481   53.2376   28.4086 C   0  0  0  0  0  0
    1.4757   53.7298   30.1380 C   0  0  0  0  0  0
    6.3021   54.8972   24.4818 C   0  0  0  0  0  0
    6.7046   55.6192   25.3923 O   0  0  0  0  0  0
    7.1044   54.5286   23.4871 N   0  0  0  0  0  0
    1.7112   53.4177   16.6674 C   0  0  0  0  0  0
    2.6325   52.2123   16.3845 C   0  0  0  0  0  0
    0.8607   53.2237   17.9348 C   0  0  0  0  0  0
    4.2730   59.0959   15.5494 H   0  0  0  0  0  0
    3.9632   59.2968   17.2798 H   0  0  0  0  0  0
    5.4568   58.5406   16.7110 H   0  0  0  0  0  0
    2.2570   57.7673   15.0704 H   0  0  0  0  0  0
    1.1642   55.5771   15.1299 H   0  0  0  0  0  0
    5.0171   56.5369   18.0568 H   0  0  0  0  0  0
    5.0825   55.3054   19.6595 H   0  0  0  0  0  0
    5.7435   53.7248   19.2651 H   0  0  0  0  0  0
    5.4887   54.8909   21.8228 H   0  0  0  0  0  0
    1.8513   52.0928   26.2030 H   0  0  0  0  0  0
    0.8407   53.4746   25.9198 H   0  0  0  0  0  0
    3.9475   53.6694   28.9562 H   0  0  0  0  0  0
    3.9201   52.3546   27.8535 H   0  0  0  0  0  0
    4.5890   55.2970   27.3443 H   0  0  0  0  0  0
    5.6319   53.9232   27.1462 H   0  0  0  0  0  0
    0.7916   51.1213   29.6807 H   0  0  0  0  0  0
    2.4903   51.2967   29.2830 H   0  0  0  0  0  0
    1.3093   50.9620   28.0251 H   0  0  0  0  0  0
   -0.4854   54.2819   28.2147 H   0  0  0  0  0  0
   -0.5401   52.6638   27.5282 H   0  0  0  0  0  0
   -0.8959   52.8977   29.2178 H   0  0  0  0  0  0
    1.3887   54.8148   30.0640 H   0  0  0  0  0  0
    0.7523   53.3982   30.8856 H   0  0  0  0  0  0
    2.4608   53.5031   30.5421 H   0  0  0  0  0  0
    6.8215   53.8059   22.8447 H   0  0  0  0  0  0
    8.0725   54.8481   23.4976 H   0  0  0  0  0  0
    1.0077   53.4345   15.8325 H   0  0  0  0  0  0
    3.2737   52.3951   15.5215 H   0  0  0  0  0  0
    3.2785   51.9703   17.2289 H   0  0  0  0  0  0
    2.0506   51.3153   16.1711 H   0  0  0  0  0  0
    0.1823   54.0640   18.0830 H   0  0  0  0  0  0
    0.2577   52.3183   17.8689 H   0  0  0  0  0  0
    1.4819   53.1378   18.8259 H   0  0  0  0  0  0
  1  2  1  0  0  0
  1 33  1  0  0  0
  1 34  1  0  0  0
  1 35  1  0  0  0
  2  7  2  0  0  0
  2  3  1  0  0  0
  3  4  2  0  0  0
  3 36  1  0  0  0
  4  5  1  0  0  0
  4 37  1  0  0  0
  5  6  2  0  0  0
  5 30  1  0  0  0
  6  7  1  0  0  0
  6  8  1  0  0  0
  7 38  1  0  0  0
  8  9  1  0  0  0
  9 10  1  0  0  0
  9 39  1  0  0  0
  9 40  1  0  0  0
 10 11  2  0  0  0
 10 12  1  0  0  0
 12 13  1  0  0  0
 12 41  1  0  0  0
 13 17  1  0  0  0
 13 14  2  0  0  0
 14 15  1  0  0  0
 14 27  1  0  0  0
 15 22  1  0  0  0
 15 16  2  0  0  0
 16 17  1  0  0  0
 16 18  1  0  0  0
 18 19  1  0  0  0
 18 42  1  0  0  0
 18 43  1  0  0  0
 19 20  1  0  0  0
 19 21  1  0  0  0
 19 23  1  0  0  0
 21 22  1  0  0  0
 21 44  1  0  0  0
 21 45  1  0  0  0
 22 46  1  0  0  0
 22 47  1  0  0  0
 23 24  1  0  0  0
 23 25  1  0  0  0
 23 26  1  0  0  0
 24 48  1  0  0  0
 24 49  1  0  0  0
 24 50  1  0  0  0
 25 51  1  0  0  0
 25 52  1  0  0  0
 25 53  1  0  0  0
 26 54  1  0  0  0
 26 55  1  0  0  0
 26 56  1  0  0  0
 27 28  2  0  0  0
 27 29  1  0  0  0
 29 57  1  0  0  0
 29 58  1  0  0  0
 30 31  1  0  0  0
 30 32  1  0  0  0
 30 59  1  0  0  0
 31 60  1  0  0  0
 31 61  1  0  0  0
 31 62  1  0  0  0
 32 63  1  0  0  0
 32 64  1  0  0  0
 32 65  1  0  0  0
M  END
> <i_i_glide_confnum>
36

> <i_i_glide_lignum>
2338

> <i_i_glide_posenum>
275

> <i_i_glide_rotatable_bonds>
8

> <i_m_Source_File_Index>
3577

> <b_m_subgroup_collapsed>
0

> <r_i_docking_score>
-5.94321

> <r_i_glide_ecoul>
-3.19148

> <r_i_glide_eff_state_penalty>
0

> <r_i_glide_einternal>
2.19684

> <r_i_glide_emodel>
-59.7612

> <r_i_glide_energy>
-43.4226

> <r_i_glide_erotb>
0.510056

> <r_i_glide_esite>
0

> <r_i_glide_evdw>
-40.2312

> <r_i_glide_gscore>
-5.94321

> <r_i_glide_hbond>
-0.578508

> <r_i_glide_ligand_efficiency>
-0.191717

> <r_i_glide_ligand_efficiency_ln>
-1.34038

> <r_i_glide_ligand_efficiency_sa>
-0.602255

> <r_i_glide_lipo>
-2.45409

> <r_i_glide_metal>
0

> <r_i_glide_rewards>
-0.930388

> <s_i_glide_gridfile>
wee1_glide-grid

> <s_m_Source_File>
wee1_decoys_glide_SP.sdf

> <s_m_Source_Path>
/Users/zhangxujun/Desktop

> <s_m_entry_id>
3852

> <s_m_entry_name>
wee1_decoys_glide_SP.3577

> <s_m_subgroup_title>
wee1_decoys_glide_SP

> <s_m_subgroupid>
wee1_decoys_glide_SP


$$$$
