ZINC64426946_2177
                    3D
 Schrodinger Suite 2024-2.
 54 58  0  0  1  0            999 V2000
    4.5613   53.1367   19.9674 C   0  0  0  0  0  0
    5.5042   53.2366   21.0312 O   0  0  0  0  0  0
    5.0951   53.6655   22.2759 C   0  0  0  0  0  0
    3.7808   54.0613   22.5696 C   0  0  0  0  0  0
    3.4450   54.4967   23.8489 C   0  0  0  0  0  0
    4.4266   54.5564   24.8337 C   0  0  0  0  0  0
    5.7111   54.1113   24.5810 C   0  0  0  0  0  0
    6.0588   53.6967   23.2940 C   0  0  0  0  0  0
    6.7044   54.1645   26.0372 S   0  0  0  0  0  0
    5.3388   54.8128   27.0517 C   0  0  1  0  0  0
    5.7613   55.6967   27.5066 H   0  0  0  0  0  0
    4.3049   55.1475   26.0818 N   0  0  0  0  0  0
    4.8776   53.9606   28.1556 N   0  0  0  0  0  0
    3.7430   54.3850   28.9996 C   0  0  0  0  0  0
    2.8203   53.5071   28.1580 C   0  0  0  0  0  0
    4.1058   52.7711   27.8166 C   0  0  0  0  0  0
    1.8025   52.6153   28.8770 C   0  0  0  0  0  0
    2.0393   52.1009   29.9703 O   0  0  0  0  0  0
    0.6805   52.4131   28.1704 N   0  0  0  0  0  0
   -0.4281   51.5259   28.5016 C   0  0  0  0  0  0
   -1.2754   51.2154   27.2484 C   0  0  0  0  0  0
   -0.5147   50.5603   26.1008 C   0  0  0  0  0  0
   -0.0017   51.0665   24.9609 C   0  0  0  0  0  0
    0.0339   52.4416   24.4341 C   0  0  0  0  0  0
    0.6577   52.7135   23.2710 C   0  0  0  0  0  0
    1.2892   51.6164   22.5508 C   0  0  0  0  0  0
    1.2642   50.3431   23.0194 C   0  0  0  0  0  0
    0.6157   50.0479   24.2239 C   0  0  0  0  0  0
    0.4918   48.8967   24.8320 N   0  3  0  0  0  0
   -0.2530   49.0689   26.0808 C   0  0  0  0  0  0
    5.0702   52.7837   19.0701 H   0  0  0  0  0  0
    4.1137   54.1037   19.7320 H   0  0  0  0  0  0
    3.7710   52.4217   20.1988 H   0  0  0  0  0  0
    3.0170   54.0685   21.8067 H   0  0  0  0  0  0
    2.4473   54.8600   24.0457 H   0  0  0  0  0  0
    7.0671   53.3771   23.0807 H   0  0  0  0  0  0
    3.5231   55.6965   26.4024 H   0  0  0  0  0  0
    3.8334   54.0676   30.0409 H   0  0  0  0  0  0
    3.5426   55.4572   28.9772 H   0  0  0  0  0  0
    2.3622   54.0345   27.3220 H   0  0  0  0  0  0
    4.2149   52.4967   26.7725 H   0  0  0  0  0  0
    4.3290   51.9259   28.4742 H   0  0  0  0  0  0
    0.5963   52.8920   27.2881 H   0  0  0  0  0  0
   -0.0343   50.5939   28.9060 H   0  0  0  0  0  0
   -1.0438   51.9745   29.2830 H   0  0  0  0  0  0
   -2.0956   50.5511   27.5270 H   0  0  0  0  0  0
   -1.7454   52.1318   26.8907 H   0  0  0  0  0  0
   -0.4310   53.2707   24.9502 H   0  0  0  0  0  0
    0.7040   53.7189   22.8815 H   0  0  0  0  0  0
    1.7956   51.8230   21.6176 H   0  0  0  0  0  0
    1.7553   49.5666   22.4484 H   0  0  0  0  0  0
    0.3864   48.7093   26.8818 H   0  0  0  0  0  0
   -1.1552   48.4562   26.0466 H   0  0  0  0  0  0
    0.8965   48.0161   24.5230 H   0  0  0  0  0  0
  1  2  1  0  0  0
  1 31  1  0  0  0
  1 32  1  0  0  0
  1 33  1  0  0  0
  2  3  1  0  0  0
  3  8  2  0  0  0
  3  4  1  0  0  0
  4  5  2  0  0  0
  4 34  1  0  0  0
  5  6  1  0  0  0
  5 35  1  0  0  0
  6 12  1  0  0  0
  6  7  2  0  0  0
  7  8  1  0  0  0
  7  9  1  0  0  0
  8 36  1  0  0  0
  9 10  1  0  0  0
 10 11  1  0  0  0
 10 12  1  0  0  0
 10 13  1  0  0  0
 12 37  1  0  0  0
 13 16  1  0  0  0
 13 14  1  0  0  0
 14 15  1  0  0  0
 14 38  1  0  0  0
 14 39  1  0  0  0
 15 16  1  0  0  0
 15 17  1  0  0  0
 15 40  1  0  0  0
 16 41  1  0  0  0
 16 42  1  0  0  0
 17 18  2  0  0  0
 17 19  1  0  0  0
 19 20  1  0  0  0
 19 43  1  0  0  0
 20 21  1  0  0  0
 20 44  1  0  0  0
 20 45  1  0  0  0
 21 22  1  0  0  0
 21 46  1  0  0  0
 21 47  1  0  0  0
 22 30  1  0  0  0
 22 23  2  0  0  0
 23 28  1  0  0  0
 23 24  1  0  0  0
 24 25  2  0  0  0
 24 48  1  0  0  0
 25 26  1  0  0  0
 25 49  1  0  0  0
 26 27  2  0  0  0
 26 50  1  0  0  0
 27 28  1  0  0  0
 27 51  1  0  0  0
 28 29  2  0  0  0
 29 30  1  0  0  0
 29 54  1  0  0  0
 30 52  1  0  0  0
 30 53  1  0  0  0
M  CHG  1  29   1
M  END
> <i_i_glide_confnum>
209

> <i_i_glide_lignum>
2178

> <i_i_glide_posenum>
242

> <i_i_glide_rotatable_bonds>
7

> <i_m_Source_File_Index>
2655

> <b_m_subgroup_collapsed>
0

> <r_i_docking_score>
-6.37033

> <r_i_glide_ecoul>
-5.69848

> <r_i_glide_eff_state_penalty>
0

> <r_i_glide_einternal>
15.4987

> <r_i_glide_emodel>
-55.376

> <r_i_glide_energy>
-44.5298

> <r_i_glide_erotb>
0.587069

> <r_i_glide_esite>
-0.0458843

> <r_i_glide_evdw>
-38.8313

> <r_i_glide_gscore>
-6.37033

> <r_i_glide_hbond>
-0.13169

> <r_i_glide_ligand_efficiency>
-0.219667

> <r_i_glide_ligand_efficiency_ln>
-1.45865

> <r_i_glide_ligand_efficiency_sa>
-0.674886

> <r_i_glide_lipo>
-2.64757

> <r_i_glide_metal>
0

> <r_i_glide_rewards>
-1.33592

> <s_i_glide_gridfile>
wee1_glide-grid

> <s_m_Source_File>
wee1_decoys_glide_SP.sdf

> <s_m_Source_Path>
/Users/zhangxujun/Desktop

> <s_m_entry_id>
2930

> <s_m_entry_name>
wee1_decoys_glide_SP.2655

> <s_m_subgroup_title>
wee1_decoys_glide_SP

> <s_m_subgroupid>
wee1_decoys_glide_SP


$$$$
