ZINC36080571_5063
                    3D
 Schrodinger Suite 2024-2.
 68 72  0  0  1  0            999 V2000
    7.7981   55.2970   21.5505 C   0  0  0  0  0  0
    6.3361   54.9156   21.2505 C   0  0  0  0  0  0
    5.7997   54.9664   20.0883 N   0  0  0  0  0  0
    6.5118   55.4824   19.0614 N   0  0  0  0  0  0
    6.0049   55.6612   17.8232 C   0  0  0  0  0  0
    6.5558   56.4232   17.0303 O   0  0  0  0  0  0
    4.7450   54.9293   17.4142 C   0  0  0  0  0  0
    3.7278   55.6138   16.7405 C   0  0  0  0  0  0
    2.5658   54.9438   16.3635 C   0  0  0  0  0  0
    2.4083   53.5840   16.6339 C   0  0  0  0  0  0
    3.4363   52.8958   17.2939 C   0  0  0  0  0  0
    4.5935   53.5624   17.6795 C   0  0  0  0  0  0
    1.2280   53.0006   16.2145 O   0  0  0  0  0  0
    1.0340   51.6064   16.4307 C   0  0  0  0  0  0
    5.5010   54.4965   22.4131 C   0  0  0  0  0  0
    4.2161   53.9619   22.2148 C   0  0  0  0  0  0
    3.3692   53.6970   23.2844 C   0  0  0  0  0  0
    3.7903   53.9357   24.5893 C   0  0  0  0  0  0
    5.0609   54.4707   24.8421 C   0  0  0  0  0  0
    5.9046   54.7102   23.7454 C   0  0  0  0  0  0
    5.4871   54.8404   26.2602 C   0  0  2  0  0  0
    5.5755   55.9206   26.2402 H   0  0  0  0  0  0
    6.7888   54.2179   26.6944 C   0  0  0  0  0  0
    6.6186   53.2967   27.6551 C   0  0  0  0  0  0
    5.1632   53.1593   28.0386 C   0  0  0  0  0  0
    4.5268   54.3775   27.3710 C   0  0  2  0  0  0
    4.5670   55.1589   28.1319 H   0  0  0  0  0  0
    3.0355   54.2671   26.9571 C   0  0  1  0  0  0
    2.7043   55.2964   26.8818 H   0  0  0  0  0  0
    2.8707   53.6951   25.6182 N   0  0  0  0  0  0
    2.1078   53.6472   28.0217 C   0  0  0  0  0  0
    1.4918   52.4038   27.8016 C   0  0  0  0  0  0
    0.6060   51.8652   28.7292 C   0  0  0  0  0  0
    0.3218   52.5591   29.8988 C   0  0  0  0  0  0
    0.9359   53.7932   30.1561 C   0  0  0  0  0  0
    1.8335   54.3324   29.2160 C   0  0  0  0  0  0
    2.5251   55.4895   29.4977 O   0  0  0  0  0  0
    1.7692   56.6907   29.5522 C   0  0  0  0  0  0
    0.7040   54.5192   31.3042 O   0  0  0  0  0  0
    0.1735   53.8575   32.4482 C   0  0  0  0  0  0
    7.8521   56.2079   22.1448 H   0  0  0  0  0  0
    8.3027   54.4968   22.0849 H   0  0  0  0  0  0
    8.4033   55.4796   20.6634 H   0  0  0  0  0  0
    7.3956   55.8992   19.3094 H   0  0  0  0  0  0
    3.8282   56.6673   16.5141 H   0  0  0  0  0  0
    1.7816   55.4807   15.8517 H   0  0  0  0  0  0
    3.3692   51.8382   17.5095 H   0  0  0  0  0  0
    5.3705   52.9968   18.1771 H   0  0  0  0  0  0
    0.0661   51.3094   16.0271 H   0  0  0  0  0  0
    1.0369   51.3620   17.4948 H   0  0  0  0  0  0
    1.7982   51.0110   15.9282 H   0  0  0  0  0  0
    3.8370   53.7826   21.2175 H   0  0  0  0  0  0
    2.3803   53.3084   23.0885 H   0  0  0  0  0  0
    6.8729   55.1417   23.9536 H   0  0  0  0  0  0
    7.7211   54.4967   26.2376 H   0  0  0  0  0  0
    7.3983   52.6928   28.0929 H   0  0  0  0  0  0
    5.0260   53.1879   29.1204 H   0  0  0  0  0  0
    4.7305   52.2304   27.6807 H   0  0  0  0  0  0
    1.9211   53.4423   25.3901 H   0  0  0  0  0  0
    1.6866   51.8394   26.9026 H   0  0  0  0  0  0
    0.1343   50.9106   28.5394 H   0  0  0  0  0  0
   -0.3775   52.1240   30.5994 H   0  0  0  0  0  0
    1.9040   57.2610   28.6334 H   0  0  0  0  0  0
    0.7043   56.5387   29.7047 H   0  0  0  0  0  0
    2.1265   57.2960   30.3835 H   0  0  0  0  0  0
    0.3164   54.4891   33.3232 H   0  0  0  0  0  0
   -0.8956   53.6968   32.3459 H   0  0  0  0  0  0
    0.6666   52.9047   32.6511 H   0  0  0  0  0  0
  1  2  1  0  0  0
  1 41  1  0  0  0
  1 42  1  0  0  0
  1 43  1  0  0  0
  2  3  2  0  0  0
  2 15  1  0  0  0
  3  4  1  0  0  0
  4  5  1  0  0  0
  4 44  1  0  0  0
  5  6  2  0  0  0
  5  7  1  0  0  0
  7 12  2  0  0  0
  7  8  1  0  0  0
  8  9  2  0  0  0
  8 45  1  0  0  0
  9 10  1  0  0  0
  9 46  1  0  0  0
 10 11  2  0  0  0
 10 13  1  0  0  0
 11 12  1  0  0  0
 11 47  1  0  0  0
 12 48  1  0  0  0
 13 14  1  0  0  0
 14 49  1  0  0  0
 14 50  1  0  0  0
 14 51  1  0  0  0
 15 20  2  0  0  0
 15 16  1  0  0  0
 16 17  2  0  0  0
 16 52  1  0  0  0
 17 18  1  0  0  0
 17 53  1  0  0  0
 18 30  1  0  0  0
 18 19  2  0  0  0
 19 20  1  0  0  0
 19 21  1  0  0  0
 20 54  1  0  0  0
 21 22  1  0  0  0
 21 26  1  0  0  0
 21 23  1  0  0  0
 23 24  2  0  0  0
 23 55  1  0  0  0
 24 25  1  0  0  0
 24 56  1  0  0  0
 25 26  1  0  0  0
 25 57  1  0  0  0
 25 58  1  0  0  0
 26 27  1  0  0  0
 26 28  1  0  0  0
 28 29  1  0  0  0
 28 30  1  0  0  0
 28 31  1  0  0  0
 30 59  1  0  0  0
 31 36  2  0  0  0
 31 32  1  0  0  0
 32 33  2  0  0  0
 32 60  1  0  0  0
 33 34  1  0  0  0
 33 61  1  0  0  0
 34 35  2  0  0  0
 34 62  1  0  0  0
 35 36  1  0  0  0
 35 39  1  0  0  0
 36 37  1  0  0  0
 37 38  1  0  0  0
 38 63  1  0  0  0
 38 64  1  0  0  0
 38 65  1  0  0  0
 39 40  1  0  0  0
 40 66  1  0  0  0
 40 67  1  0  0  0
 40 68  1  0  0  0
M  END
> <i_i_glide_confnum>
39

> <i_i_glide_lignum>
5064

> <i_i_glide_posenum>
187

> <i_i_glide_rotatable_bonds>
8

> <i_m_Source_File_Index>
4621

> <b_m_subgroup_collapsed>
0

> <r_i_docking_score>
-6.89264

> <r_i_glide_ecoul>
-1.84733

> <r_i_glide_eff_state_penalty>
0

> <r_i_glide_einternal>
11.1456

> <r_i_glide_emodel>
-60.7296

> <r_i_glide_energy>
-50.1089

> <r_i_glide_erotb>
0.411974

> <r_i_glide_esite>
0

> <r_i_glide_evdw>
-48.2616

> <r_i_glide_gscore>
-6.89264

> <r_i_glide_hbond>
0

> <r_i_glide_ligand_efficiency>
-0.186288

> <r_i_glide_ligand_efficiency_ln>
-1.49485

> <r_i_glide_ligand_efficiency_sa>
-0.620752

> <r_i_glide_lipo>
-4.23073

> <r_i_glide_metal>
0

> <r_i_glide_rewards>
-0.383703

> <s_i_glide_gridfile>
wee1_glide-grid

> <s_m_Source_File>
wee1_decoys_glide_SP.sdf

> <s_m_Source_Path>
/Users/zhangxujun/Desktop

> <s_m_entry_id>
4896

> <s_m_entry_name>
wee1_decoys_glide_SP.4621

> <s_m_subgroup_title>
wee1_decoys_glide_SP

> <s_m_subgroupid>
wee1_decoys_glide_SP


$$$$
