ZINC20701260_3568
                    3D
 Schrodinger Suite 2024-2.
 40 43  0  0  1  0            999 V2000
   -5.8244   48.5540   26.3752 C   0  0  0  0  0  0
   -4.8918   47.5267   26.3127 C   0  0  0  0  0  0
   -3.5550   47.8153   26.0706 C   0  0  0  0  0  0
   -3.1517   49.1409   25.8319 C   0  0  0  0  0  0
   -4.1048   50.1990   25.8365 C   0  0  0  0  0  0
   -5.4407   49.8844   26.1757 C   0  0  0  0  0  0
   -6.4578   50.9283   26.3800 N   0  3  0  0  0  0
   -7.4820   50.8695   25.7072 O   0  0  0  0  0  0
   -6.2390   51.7842   27.2331 O   0  5  0  0  0  0
   -3.5941   51.6217   25.5365 C   0  0  2  0  0  0
   -3.2679   52.0388   26.4874 H   0  0  0  0  0  0
   -4.4318   52.6948   24.8612 C   0  0  0  0  0  0
   -3.6479   53.4655   24.0817 C   0  0  0  0  0  0
   -2.2458   52.8955   23.9535 C   0  0  0  0  0  0
   -2.4528   51.5044   24.5359 C   0  0  1  0  0  0
   -2.8122   50.9096   23.6886 H   0  0  0  0  0  0
   -1.2723   50.6950   25.1170 C   0  0  2  0  0  0
   -0.5979   50.4744   24.2874 H   0  0  0  0  0  0
   -1.7793   49.3807   25.5381 N   0  0  0  0  0  0
   -0.4139   51.4680   26.1387 C   0  0  0  0  0  0
    0.7034   52.1568   25.6463 C   0  0  0  0  0  0
    1.5246   52.8966   26.4937 C   0  0  0  0  0  0
    1.2442   52.9535   27.8549 C   0  0  0  0  0  0
    0.1399   52.2785   28.3713 C   0  0  0  0  0  0
   -0.6947   51.5362   27.5213 C   0  0  0  0  0  0
   -1.7800   50.8967   28.0648 O   0  0  0  0  0  0
   -0.1721   52.3887   30.0708 Cl  0  0  0  0  0  0
    2.8897   53.7377   25.8558 Cl  0  0  0  0  0  0
   -2.6508   46.7790   26.1110 O   0  0  0  0  0  0
   -6.8514   48.3168   26.6163 H   0  0  0  0  0  0
   -5.1994   46.5078   26.4980 H   0  0  0  0  0  0
   -5.4619   52.9063   25.1010 H   0  0  0  0  0  0
   -3.9512   54.3645   23.5658 H   0  0  0  0  0  0
   -1.4997   53.4842   24.4833 H   0  0  0  0  0  0
   -1.9260   52.8377   22.9121 H   0  0  0  0  0  0
   -1.0812   48.6626   25.6734 H   0  0  0  0  0  0
    0.9388   52.1269   24.5920 H   0  0  0  0  0  0
    1.8830   53.5254   28.5117 H   0  0  0  0  0  0
   -1.6956   49.9194   28.0817 H   0  0  0  0  0  0
   -1.9012   47.0307   26.6677 H   0  0  0  0  0  0
  1  6  2  0  0  0
  1  2  1  0  0  0
  1 30  1  0  0  0
  2  3  2  0  0  0
  2 31  1  0  0  0
  3  4  1  0  0  0
  3 29  1  0  0  0
  4 19  1  0  0  0
  4  5  2  0  0  0
  5  6  1  0  0  0
  5 10  1  0  0  0
  6  7  1  0  0  0
  7  8  2  0  0  0
  7  9  1  0  0  0
 10 11  1  0  0  0
 10 15  1  0  0  0
 10 12  1  0  0  0
 12 13  2  0  0  0
 12 32  1  0  0  0
 13 14  1  0  0  0
 13 33  1  0  0  0
 14 15  1  0  0  0
 14 34  1  0  0  0
 14 35  1  0  0  0
 15 16  1  0  0  0
 15 17  1  0  0  0
 17 18  1  0  0  0
 17 19  1  0  0  0
 17 20  1  0  0  0
 19 36  1  0  0  0
 20 25  2  0  0  0
 20 21  1  0  0  0
 21 22  2  0  0  0
 21 37  1  0  0  0
 22 23  1  0  0  0
 22 28  1  0  0  0
 23 24  2  0  0  0
 23 38  1  0  0  0
 24 25  1  0  0  0
 24 27  1  0  0  0
 25 26  1  0  0  0
 26 39  1  0  0  0
 29 40  1  0  0  0
M  CHG  2   7   1   9  -1
M  END
> <i_i_glide_confnum>
2

> <i_i_glide_lignum>
3569

> <i_i_glide_posenum>
181

> <i_i_glide_rotatable_bonds>
4

> <i_m_Source_File_Index>
1737

> <b_m_subgroup_collapsed>
0

> <r_i_docking_score>
-4.91085

> <r_i_glide_ecoul>
-11.8407

> <r_i_glide_eff_state_penalty>
0

> <r_i_glide_einternal>
11.2905

> <r_i_glide_emodel>
-39.2981

> <r_i_glide_energy>
-34.008

> <r_i_glide_erotb>
0.126325

> <r_i_glide_esite>
-0.0928429

> <r_i_glide_evdw>
-22.1672

> <r_i_glide_gscore>
-4.91085

> <r_i_glide_hbond>
-0.237967

> <r_i_glide_ligand_efficiency>
-0.188879

> <r_i_glide_ligand_efficiency_ln>
-1.1533

> <r_i_glide_ligand_efficiency_sa>
-0.559553

> <r_i_glide_lipo>
-1.09385

> <r_i_glide_metal>
0

> <r_i_glide_rewards>
-0.728044

> <s_i_glide_gridfile>
wee1_glide-grid

> <s_m_Source_File>
wee1_decoys_glide_SP.sdf

> <s_m_Source_Path>
/Users/zhangxujun/Desktop

> <s_m_entry_id>
2012

> <s_m_entry_name>
wee1_decoys_glide_SP.1737

> <s_m_subgroup_title>
wee1_decoys_glide_SP

> <s_m_subgroupid>
wee1_decoys_glide_SP


$$$$
