ZINC30978802_729
                    3D
 Schrodinger Suite 2024-2.
 59 62  0  0  1  0            999 V2000
   -2.0686   50.8474   27.1124 C   0  0  0  0  0  0
   -1.0839   51.6956   27.8914 C   0  0  0  0  0  0
   -0.1687   52.4869   27.2031 C   0  0  0  0  0  0
    0.7016   53.3061   27.9105 C   0  0  0  0  0  0
    0.6606   53.3486   29.3095 C   0  0  0  0  0  0
   -0.2239   52.5118   29.9945 C   0  0  0  0  0  0
   -1.0997   51.6963   29.2863 C   0  0  0  0  0  0
    1.5914   54.2619   30.1157 C   0  0  2  0  0  0
    1.8723   53.6940   31.0041 H   0  0  0  0  0  0
    0.8666   55.5355   30.5645 C   0  0  0  0  0  0
    2.8125   54.6551   29.4185 N   0  0  0  0  0  0
    3.8126   53.8235   29.0896 C   0  0  0  0  0  0
    3.9062   52.6850   29.5521 O   0  0  0  0  0  0
    4.7953   54.3597   28.0246 C   0  0  2  0  0  0
    4.0106   54.5644   26.7012 C   0  0  0  0  0  0
    4.9305   55.1078   25.5984 C   0  0  0  0  0  0
    6.0866   54.0998   25.3968 N   0  3  2  0  0  0
    6.8866   53.8196   26.6918 C   0  0  0  0  0  0
    5.9518   53.3691   27.8191 C   0  0  0  0  0  0
    7.0113   54.5389   24.2310 C   0  0  0  0  0  0
    6.2873   54.3858   22.9074 C   0  0  0  0  0  0
    5.4094   53.4776   22.5833 N   0  0  0  0  0  0
    5.1039   53.8013   21.3415 C   0  0  0  0  0  0
    5.7038   54.8807   20.8733 N   0  0  0  0  0  0
    6.5249   55.2864   21.9254 O   0  0  0  0  0  0
    4.1613   52.9630   20.5217 C   0  0  0  0  0  0
    3.8555   53.2974   19.1947 C   0  0  0  0  0  0
    3.0004   52.4967   18.4354 C   0  0  0  0  0  0
    2.4373   51.3476   18.9886 C   0  0  0  0  0  0
    2.7298   51.0007   20.3067 C   0  0  0  0  0  0
    3.5802   51.8042   21.0656 C   0  0  0  0  0  0
    1.9904   49.4184   21.0669 Br  0  0  0  0  0  0
   -2.5983   51.4561   26.3781 H   0  0  0  0  0  0
   -1.5415   50.0622   26.5694 H   0  0  0  0  0  0
   -2.8162   50.3870   27.7609 H   0  0  0  0  0  0
   -0.1440   52.4822   26.1237 H   0  0  0  0  0  0
    1.3799   53.9326   27.3574 H   0  0  0  0  0  0
   -0.2587   52.4999   31.0763 H   0  0  0  0  0  0
   -1.7848   51.0590   29.8270 H   0  0  0  0  0  0
   -0.0947   55.2988   31.0254 H   0  0  0  0  0  0
    1.4578   56.0956   31.2871 H   0  0  0  0  0  0
    0.7048   56.2067   29.7200 H   0  0  0  0  0  0
    2.8168   55.5884   29.0346 H   0  0  0  0  0  0
    5.1730   55.2967   28.4278 H   0  0  0  0  0  0
    3.6194   53.6171   26.3208 H   0  0  0  0  0  0
    3.2121   55.2965   26.8078 H   0  0  0  0  0  0
    5.3522   56.0958   25.8018 H   0  0  0  0  0  0
    4.3710   55.1381   24.6600 H   0  0  0  0  0  0
    7.4822   54.6975   26.9498 H   0  0  0  0  0  0
    7.5043   52.9593   26.4519 H   0  0  0  0  0  0
    6.5654   53.2912   28.7184 H   0  0  0  0  0  0
    5.5627   52.4057   27.5004 H   0  0  0  0  0  0
    7.3199   55.5630   24.4494 H   0  0  0  0  0  0
    7.8847   53.8868   24.2648 H   0  0  0  0  0  0
    4.2848   54.1758   18.7344 H   0  0  0  0  0  0
    2.7887   52.7576   17.4086 H   0  0  0  0  0  0
    1.7985   50.7164   18.3873 H   0  0  0  0  0  0
    3.7930   51.5054   22.0815 H   0  0  0  0  0  0
    5.6566   53.2176   25.1388 H   0  0  0  0  0  0
  1  2  1  0  0  0
  1 33  1  0  0  0
  1 34  1  0  0  0
  1 35  1  0  0  0
  2  7  2  0  0  0
  2  3  1  0  0  0
  3  4  2  0  0  0
  3 36  1  0  0  0
  4  5  1  0  0  0
  4 37  1  0  0  0
  5  6  2  0  0  0
  5  8  1  0  0  0
  6  7  1  0  0  0
  6 38  1  0  0  0
  7 39  1  0  0  0
  8  9  1  0  0  0
  8 10  1  0  0  0
  8 11  1  0  0  0
 10 40  1  0  0  0
 10 41  1  0  0  0
 10 42  1  0  0  0
 11 12  1  0  0  0
 11 43  1  0  0  0
 12 13  2  0  0  0
 12 14  1  0  0  0
 14 19  1  0  0  0
 14 15  1  0  0  0
 14 44  1  0  0  0
 15 16  1  0  0  0
 15 45  1  0  0  0
 15 46  1  0  0  0
 16 17  1  0  0  0
 16 47  1  0  0  0
 16 48  1  0  0  0
 17 18  1  0  0  0
 17 20  1  0  0  0
 17 59  1  0  0  0
 18 19  1  0  0  0
 18 49  1  0  0  0
 18 50  1  0  0  0
 19 51  1  0  0  0
 19 52  1  0  0  0
 20 21  1  0  0  0
 20 53  1  0  0  0
 20 54  1  0  0  0
 21 25  1  0  0  0
 21 22  2  0  0  0
 22 23  1  0  0  0
 23 24  2  0  0  0
 23 26  1  0  0  0
 24 25  1  0  0  0
 26 31  2  0  0  0
 26 27  1  0  0  0
 27 28  2  0  0  0
 27 55  1  0  0  0
 28 29  1  0  0  0
 28 56  1  0  0  0
 29 30  2  0  0  0
 29 57  1  0  0  0
 30 31  1  0  0  0
 30 32  1  0  0  0
 31 58  1  0  0  0
M  CHG  1  17   1
M  END
> <i_i_glide_confnum>
10

> <i_i_glide_lignum>
730

> <i_i_glide_posenum>
378

> <i_i_glide_rotatable_bonds>
7

> <i_m_Source_File_Index>
3872

> <b_m_subgroup_collapsed>
0

> <r_i_docking_score>
-5.05422

> <r_i_glide_ecoul>
-1.7143

> <r_i_glide_eff_state_penalty>
0

> <r_i_glide_einternal>
3.74605

> <r_i_glide_emodel>
-62.0671

> <r_i_glide_energy>
-48.7516

> <r_i_glide_erotb>
0.605809

> <r_i_glide_esite>
0

> <r_i_glide_evdw>
-47.0373

> <r_i_glide_gscore>
-5.05422

> <r_i_glide_hbond>
0

> <r_i_glide_ligand_efficiency>
-0.163039

> <r_i_glide_ligand_efficiency_ln>
-1.13988

> <r_i_glide_ligand_efficiency_sa>
-0.512168

> <r_i_glide_lipo>
-2.39892

> <r_i_glide_metal>
0

> <r_i_glide_rewards>
-0.652099

> <s_i_glide_gridfile>
wee1_glide-grid

> <s_m_Source_File>
wee1_decoys_glide_SP.sdf

> <s_m_Source_Path>
/Users/zhangxujun/Desktop

> <s_m_entry_id>
4147

> <s_m_entry_name>
wee1_decoys_glide_SP.3872

> <s_m_subgroup_title>
wee1_decoys_glide_SP

> <s_m_subgroupid>
wee1_decoys_glide_SP


$$$$
