ZINC06144754_1114
                    3D
 Schrodinger Suite 2024-2.
 64 68  0  0  1  0            999 V2000
    0.7540   52.9287   27.4410 C   0  0  0  0  0  0
    1.9207   53.2638   26.5153 C   0  0  0  0  0  0
    3.1154   53.7510   27.0726 C   0  0  0  0  0  0
    4.2458   54.1964   25.8609 S   0  0  0  0  0  0
    3.1805   53.6846   24.5884 C   0  0  0  0  0  0
    1.9447   53.2048   25.0713 C   0  0  0  0  0  0
    0.8093   52.7608   24.0992 C   0  0  1  0  0  0
    0.4523   53.7045   23.6825 H   0  0  0  0  0  0
    1.1967   51.8592   22.9065 C   0  0  0  0  0  0
    1.9044   50.6677   23.1006 C   0  0  0  0  0  0
    2.1844   49.8234   22.0307 C   0  0  0  0  0  0
    1.7700   50.1722   20.7501 C   0  0  0  0  0  0
    1.0935   51.3691   20.5324 C   0  0  0  0  0  0
    0.8141   52.2113   21.6064 C   0  0  0  0  0  0
    2.0320   49.3478   19.7123 F   0  0  0  0  0  0
   -1.7745   52.5929   24.1184 C   0  0  0  0  0  0
   -2.9607   52.2452   25.0440 C   0  0  0  0  0  0
   -2.9674   50.8696   25.5811 N   0  0  0  0  0  0
   -1.6549   50.4458   26.1071 C   0  0  0  0  0  0
   -0.4555   50.7563   25.1927 C   0  0  0  0  0  0
   -4.1482   50.3513   26.1144 C   0  0  0  0  0  0
   -4.1865   49.7700   27.3923 C   0  0  0  0  0  0
   -5.3760   49.2680   27.9120 C   0  0  0  0  0  0
   -6.5435   49.3429   27.1586 C   0  0  0  0  0  0
   -6.5280   49.9120   25.8884 C   0  0  0  0  0  0
   -5.3357   50.4119   25.3708 C   0  0  0  0  0  0
    3.5665   53.7373   23.2441 N   0  0  0  0  0  0
    4.7648   54.0964   22.7239 C   0  0  0  0  0  0
    5.7450   54.4965   23.3524 O   0  0  0  0  0  0
    4.8281   53.9727   21.2974 C   0  0  0  0  0  0
    4.3305   53.0049   20.4315 C   0  0  0  0  0  0
    4.8291   53.2971   19.1623 C   0  0  0  0  0  0
    5.6326   54.4147   19.3082 C   0  0  0  0  0  0
    5.6605   54.8024   20.6098 O   0  0  0  0  0  0
    3.5096   53.9524   28.5235 C   0  0  0  0  0  0
   -0.2089   53.2955   27.1002 H   0  0  0  0  0  0
    0.6592   51.8567   27.6085 H   0  0  0  0  0  0
    0.8462   53.3948   28.4208 H   0  0  0  0  0  0
    2.2295   50.3701   24.0816 H   0  0  0  0  0  0
    2.7145   48.8967   22.1943 H   0  0  0  0  0  0
    0.7955   51.6423   19.5306 H   0  0  0  0  0  0
    0.3044   53.1400   21.4120 H   0  0  0  0  0  0
   -1.7651   53.6694   23.9413 H   0  0  0  0  0  0
   -1.7869   52.0513   23.1705 H   0  0  0  0  0  0
   -2.8730   52.8804   25.9277 H   0  0  0  0  0  0
   -3.9002   52.5006   24.5538 H   0  0  0  0  0  0
   -1.6594   49.3829   26.3588 H   0  0  0  0  0  0
   -1.5198   51.0077   27.0326 H   0  0  0  0  0  0
   -0.4918   50.1834   24.2647 H   0  0  0  0  0  0
    0.4774   50.5561   25.7205 H   0  0  0  0  0  0
   -3.2961   49.6959   28.0013 H   0  0  0  0  0  0
   -5.3871   48.8222   28.8961 H   0  0  0  0  0  0
   -7.4668   48.9525   27.5612 H   0  0  0  0  0  0
   -7.4360   49.9619   25.3055 H   0  0  0  0  0  0
   -5.3405   50.8365   24.3780 H   0  0  0  0  0  0
    2.8743   53.4255   22.5789 H   0  0  0  0  0  0
    3.7070   52.1643   20.6896 H   0  0  0  0  0  0
    4.6528   52.7324   18.2560 H   0  0  0  0  0  0
    6.2403   54.9889   18.6241 H   0  0  0  0  0  0
    2.9177   53.3556   29.2155 H   0  0  0  0  0  0
    4.5486   53.6712   28.6984 H   0  0  0  0  0  0
    3.4080   54.9956   28.8229 H   0  0  0  0  0  0
   -0.4595   52.2613   24.8488 N   0  3  0  0  0  0
   -0.4604   52.7659   25.7232 H   0  0  0  0  0  0
  1  2  1  0  0  0
  1 36  1  0  0  0
  1 37  1  0  0  0
  1 38  1  0  0  0
  2  6  1  0  0  0
  2  3  2  0  0  0
  3  4  1  0  0  0
  3 35  1  0  0  0
  4  5  1  0  0  0
  5  6  2  0  0  0
  5 27  1  0  0  0
  6  7  1  0  0  0
  7  8  1  0  0  0
  7  9  1  0  0  0
  7 63  1  0  0  0
  9 14  2  0  0  0
  9 10  1  0  0  0
 10 11  2  0  0  0
 10 39  1  0  0  0
 11 12  1  0  0  0
 11 40  1  0  0  0
 12 13  2  0  0  0
 12 15  1  0  0  0
 13 14  1  0  0  0
 13 41  1  0  0  0
 14 42  1  0  0  0
 16 17  1  0  0  0
 16 43  1  0  0  0
 16 44  1  0  0  0
 16 63  1  0  0  0
 17 18  1  0  0  0
 17 45  1  0  0  0
 17 46  1  0  0  0
 18 19  1  0  0  0
 18 21  1  0  0  0
 19 20  1  0  0  0
 19 47  1  0  0  0
 19 48  1  0  0  0
 20 49  1  0  0  0
 20 50  1  0  0  0
 20 63  1  0  0  0
 21 26  2  0  0  0
 21 22  1  0  0  0
 22 23  2  0  0  0
 22 51  1  0  0  0
 23 24  1  0  0  0
 23 52  1  0  0  0
 24 25  2  0  0  0
 24 53  1  0  0  0
 25 26  1  0  0  0
 25 54  1  0  0  0
 26 55  1  0  0  0
 27 28  1  0  0  0
 27 56  1  0  0  0
 28 29  2  0  0  0
 28 30  1  0  0  0
 30 34  1  0  0  0
 30 31  2  0  0  0
 31 32  1  0  0  0
 31 57  1  0  0  0
 32 33  2  0  0  0
 32 58  1  0  0  0
 33 34  1  0  0  0
 33 59  1  0  0  0
 35 60  1  0  0  0
 35 61  1  0  0  0
 35 62  1  0  0  0
 63 64  1  0  0  0
M  CHG  1  63   1
M  END
> <i_i_glide_confnum>
107

> <i_i_glide_lignum>
1115

> <i_i_glide_posenum>
308

> <i_i_glide_rotatable_bonds>
7

> <i_m_Source_File_Index>
4498

> <b_m_subgroup_collapsed>
0

> <r_i_docking_score>
-4.31621

> <r_i_glide_ecoul>
-2.40173

> <r_i_glide_eff_state_penalty>
0

> <r_i_glide_einternal>
16.1735

> <r_i_glide_emodel>
-44.6312

> <r_i_glide_energy>
-41.366

> <r_i_glide_erotb>
0.591864

> <r_i_glide_esite>
-0.0669681

> <r_i_glide_evdw>
-38.9642

> <r_i_glide_gscore>
-4.31621

> <r_i_glide_hbond>
0

> <r_i_glide_ligand_efficiency>
-0.12332

> <r_i_glide_ligand_efficiency_ln>
-0.947504

> <r_i_glide_ligand_efficiency_sa>
-0.403389

> <r_i_glide_lipo>
-2.14186

> <r_i_glide_metal>
0

> <r_i_glide_rewards>
-0.390774

> <s_i_glide_gridfile>
wee1_glide-grid

> <s_m_Source_File>
wee1_decoys_glide_SP.sdf

> <s_m_Source_Path>
/Users/zhangxujun/Desktop

> <s_m_entry_id>
4773

> <s_m_entry_name>
wee1_decoys_glide_SP.4498

> <s_m_subgroup_title>
wee1_decoys_glide_SP

> <s_m_subgroupid>
wee1_decoys_glide_SP


$$$$
