ZINC39678404_788
                    3D
 Schrodinger Suite 2024-2.
 60 63  0  0  1  0            999 V2000
    5.0587   53.3134   28.2302 C   0  0  0  0  0  0
    4.5000   53.6947   27.0106 C   0  0  0  0  0  0
    3.1349   53.5089   26.7731 C   0  0  0  0  0  0
    2.3265   52.9809   27.7882 C   0  0  0  0  0  0
    2.8758   52.6184   29.0300 C   0  0  0  0  0  0
    4.2494   52.7727   29.2290 C   0  0  0  0  0  0
    2.1433   52.1074   30.0842 O   0  0  0  0  0  0
    0.7770   52.4962   30.2438 C   0  0  0  0  0  0
    0.6235   53.8209   30.2794 F   0  0  0  0  0  0
   -0.0245   51.9434   29.3338 F   0  0  0  0  0  0
    2.5107   54.0328   25.4891 C   0  0  0  0  0  0
    2.1033   53.0551   24.4791 N   0  0  0  0  0  0
    2.2408   53.2498   23.1513 C   0  0  0  0  0  0
    2.9697   54.1287   22.6957 O   0  0  0  0  0  0
    1.3989   52.3870   22.1619 C   0  0  2  0  0  0
    1.0784   53.0674   21.3738 H   0  0  0  0  0  0
    0.1467   51.7828   22.8265 C   0  0  0  0  0  0
    0.6011   50.4624   23.2807 N   0  0  0  0  0  0
    1.8936   50.0861   22.6930 C   0  0  0  0  0  0
    2.1486   51.1442   21.5922 C   0  0  0  0  0  0
    1.4969   50.5624   20.2932 C   0  0  0  0  0  0
    1.6107   51.5046   19.0768 C   0  0  0  0  0  0
    3.1033   51.8103   18.8245 N   0  3  0  0  0  0
    3.8405   52.3324   20.0759 C   0  0  0  0  0  0
    3.6445   51.3043   21.2097 C   0  0  0  0  0  0
   -0.0616   49.6706   24.1586 C   0  0  0  0  0  0
    0.3056   48.5360   24.4581 O   0  0  0  0  0  0
   -1.2847   50.2492   24.8192 C   0  0  0  0  0  0
   -1.1712   50.7451   26.1269 C   0  0  0  0  0  0
   -2.2792   51.2875   26.7765 C   0  0  0  0  0  0
   -3.5110   51.3358   26.1270 C   0  0  0  0  0  0
   -3.6380   50.8341   24.8299 C   0  0  0  0  0  0
   -2.5363   50.2837   24.1719 C   0  0  0  0  0  0
   -2.7678   49.6660   22.5668 Cl  0  0  0  0  0  0
   -4.8850   51.9990   26.9324 Cl  0  0  0  0  0  0
    6.1173   53.4405   28.4052 H   0  0  0  0  0  0
    5.1322   54.1281   26.2493 H   0  0  0  0  0  0
    1.2691   52.8749   27.6047 H   0  0  0  0  0  0
    4.6918   52.4816   30.1703 H   0  0  0  0  0  0
    0.4230   52.1263   31.2078 H   0  0  0  0  0  0
    1.5732   54.4963   25.7844 H   0  0  0  0  0  0
    3.1214   54.8446   25.0849 H   0  0  0  0  0  0
    1.5257   52.2897   24.7937 H   0  0  0  0  0  0
   -0.2616   52.4313   23.6040 H   0  0  0  0  0  0
   -0.6252   51.6620   22.0652 H   0  0  0  0  0  0
    1.9752   49.0606   22.3278 H   0  0  0  0  0  0
    2.6464   50.2005   23.4724 H   0  0  0  0  0  0
    1.9308   49.5915   20.0425 H   0  0  0  0  0  0
    0.4393   50.3491   20.4568 H   0  0  0  0  0  0
    1.2383   51.0452   18.1594 H   0  0  0  0  0  0
    1.1145   52.4656   19.2190 H   0  0  0  0  0  0
    3.6092   50.9864   18.4953 H   0  0  0  0  0  0
    4.8875   52.4325   19.7825 H   0  0  0  0  0  0
    3.4308   53.3198   20.2943 H   0  0  0  0  0  0
    4.2338   51.6218   22.0683 H   0  0  0  0  0  0
    4.0625   50.3462   20.9111 H   0  0  0  0  0  0
   -0.2265   50.7034   26.6536 H   0  0  0  0  0  0
   -2.1829   51.6553   27.7866 H   0  0  0  0  0  0
   -4.5971   50.8648   24.3368 H   0  0  0  0  0  0
    3.1962   52.4822   18.0753 H   0  0  0  0  0  0
  1  6  2  0  0  0
  1  2  1  0  0  0
  1 36  1  0  0  0
  2  3  2  0  0  0
  2 37  1  0  0  0
  3  4  1  0  0  0
  3 11  1  0  0  0
  4  5  2  0  0  0
  4 38  1  0  0  0
  5  6  1  0  0  0
  5  7  1  0  0  0
  6 39  1  0  0  0
  7  8  1  0  0  0
  8  9  1  0  0  0
  8 10  1  0  0  0
  8 40  1  0  0  0
 11 12  1  0  0  0
 11 41  1  0  0  0
 11 42  1  0  0  0
 12 13  1  0  0  0
 12 43  1  0  0  0
 13 14  2  0  0  0
 13 15  1  0  0  0
 15 16  1  0  0  0
 15 20  1  0  0  0
 15 17  1  0  0  0
 17 18  1  0  0  0
 17 44  1  0  0  0
 17 45  1  0  0  0
 18 19  1  0  0  0
 18 26  1  0  0  0
 19 20  1  0  0  0
 19 46  1  0  0  0
 19 47  1  0  0  0
 20 25  1  0  0  0
 20 21  1  0  0  0
 21 22  1  0  0  0
 21 48  1  0  0  0
 21 49  1  0  0  0
 22 23  1  0  0  0
 22 50  1  0  0  0
 22 51  1  0  0  0
 23 24  1  0  0  0
 23 52  1  0  0  0
 23 60  1  0  0  0
 24 25  1  0  0  0
 24 53  1  0  0  0
 24 54  1  0  0  0
 25 55  1  0  0  0
 25 56  1  0  0  0
 26 27  2  0  0  0
 26 28  1  0  0  0
 28 33  2  0  0  0
 28 29  1  0  0  0
 29 30  2  0  0  0
 29 57  1  0  0  0
 30 31  1  0  0  0
 30 58  1  0  0  0
 31 32  2  0  0  0
 31 35  1  0  0  0
 32 33  1  0  0  0
 32 59  1  0  0  0
 33 34  1  0  0  0
M  CHG  1  23   1
M  END
> <i_i_glide_confnum>
274

> <i_i_glide_lignum>
789

> <i_i_glide_posenum>
325

> <i_i_glide_rotatable_bonds>
8

> <i_m_Source_File_Index>
3022

> <b_m_subgroup_collapsed>
0

> <r_i_docking_score>
-4.39145

> <r_i_glide_ecoul>
-1.17727

> <r_i_glide_eff_state_penalty>
0

> <r_i_glide_einternal>
12.4969

> <r_i_glide_emodel>
-48.8708

> <r_i_glide_energy>
-42.6885

> <r_i_glide_erotb>
0.544615

> <r_i_glide_esite>
-0.111843

> <r_i_glide_evdw>
-41.5113

> <r_i_glide_gscore>
-4.39145

> <r_i_glide_hbond>
-0.358901

> <r_i_glide_ligand_efficiency>
-0.12916

> <r_i_glide_ligand_efficiency_ln>
-0.970195

> <r_i_glide_ligand_efficiency_sa>
-0.41843

> <r_i_glide_lipo>
-1.76533

> <r_i_glide_metal>
0

> <r_i_glide_rewards>
-0.447838

> <s_i_glide_gridfile>
wee1_glide-grid

> <s_m_Source_File>
wee1_decoys_glide_SP.sdf

> <s_m_Source_Path>
/Users/zhangxujun/Desktop

> <s_m_entry_id>
3297

> <s_m_entry_name>
wee1_decoys_glide_SP.3022

> <s_m_subgroup_title>
wee1_decoys_glide_SP

> <s_m_subgroupid>
wee1_decoys_glide_SP


$$$$
