ZINC33400458_5746
                    3D
 Schrodinger Suite 2024-2.
 77 79  0  0  1  0            999 V2000
    7.9539   59.5571   15.7366 C   0  0  0  0  0  0
    9.0407   59.1304   16.7135 C   0  0  0  0  0  0
   10.2571   59.8254   16.7032 C   0  0  0  0  0  0
   11.2854   59.4680   17.5732 C   0  0  0  0  0  0
   11.1086   58.4105   18.4595 C   0  0  0  0  0  0
    9.9034   57.7101   18.4816 C   0  0  0  0  0  0
    8.8502   58.0685   17.6226 C   0  0  0  0  0  0
    7.6214   57.3737   17.6161 N   0  0  0  0  0  0
    6.9890   56.7900   18.6637 C   0  0  0  0  0  0
    7.4242   56.8575   19.8154 O   0  0  0  0  0  0
    5.8043   56.1684   18.3789 N   0  0  0  0  0  0
    5.2776   55.9565   17.0128 C   0  0  0  0  0  0
    4.1117   56.9050   16.6381 C   0  0  0  0  0  0
    4.5135   58.3937   16.6091 C   0  0  0  0  0  0
    3.4938   56.4896   15.2924 C   0  0  0  0  0  0
    5.0330   55.5686   19.4858 C   0  0  0  0  0  0
    5.2365   54.0605   19.7026 C   0  0  0  0  0  0
    5.9170   53.4263   18.8963 O   0  0  0  0  0  0
    4.6314   53.4786   20.7769 N   0  0  0  0  0  0
    4.7311   52.0294   21.0230 C   0  0  0  0  0  0
    3.6645   51.1675   20.3160 C   0  0  0  0  0  0
    2.2235   51.4019   20.7546 C   0  0  0  0  0  0
    1.8443   51.2194   22.0834 C   0  0  0  0  0  0
    0.5225   51.4425   22.4679 C   0  0  0  0  0  0
   -0.4459   51.8319   21.5260 C   0  0  0  0  0  0
   -0.0753   51.9858   20.1793 C   0  0  0  0  0  0
    1.2647   51.7698   19.8103 C   0  0  0  0  0  0
   -1.0689   52.3488   19.2818 O   0  0  0  0  0  0
   -0.7233   52.5761   17.9204 C   0  0  0  0  0  0
   -1.7680   52.0942   21.8508 O   0  0  0  0  0  0
   -2.1814   52.0179   23.2114 C   0  0  0  0  0  0
    3.8887   54.2209   21.8191 C   0  0  0  0  0  0
    4.5768   54.2413   23.1728 C   0  0  0  0  0  0
    3.9966   54.0970   24.4430 C   0  0  0  0  0  0
    4.9400   54.2298   25.4713 C   0  0  0  0  0  0
    6.2325   54.4338   25.0274 C   0  0  0  0  0  0
    6.3043   54.4909   23.3053 S   0  0  0  0  0  0
    2.5136   53.9104   24.6838 C   0  0  0  0  0  0
    7.6088   58.6982   15.1590 H   0  0  0  0  0  0
    7.0999   59.9649   16.2773 H   0  0  0  0  0  0
    8.3062   60.3072   15.0246 H   0  0  0  0  0  0
   10.4096   60.6430   16.0151 H   0  0  0  0  0  0
   12.2245   60.0066   17.5484 H   0  0  0  0  0  0
   11.9071   58.1160   19.1246 H   0  0  0  0  0  0
    9.8078   56.8844   19.1715 H   0  0  0  0  0  0
    7.1214   57.3943   16.7416 H   0  0  0  0  0  0
    6.0620   56.0241   16.2569 H   0  0  0  0  0  0
    4.9136   54.9308   16.9538 H   0  0  0  0  0  0
    3.3281   56.7846   17.3877 H   0  0  0  0  0  0
    5.2355   58.5995   15.8192 H   0  0  0  0  0  0
    3.6452   59.0326   16.4282 H   0  0  0  0  0  0
    4.9549   58.7198   17.5519 H   0  0  0  0  0  0
    4.2089   56.5909   14.4759 H   0  0  0  0  0  0
    3.1607   55.4499   15.3130 H   0  0  0  0  0  0
    2.6259   57.1029   15.0522 H   0  0  0  0  0  0
    5.2359   56.0962   20.4168 H   0  0  0  0  0  0
    3.9715   55.6973   19.2778 H   0  0  0  0  0  0
    5.6966   51.6968   20.6405 H   0  0  0  0  0  0
    4.7720   51.7871   22.0818 H   0  0  0  0  0  0
    3.7579   51.2987   19.2407 H   0  0  0  0  0  0
    3.8915   50.1164   20.4856 H   0  0  0  0  0  0
    2.5707   50.9152   22.8245 H   0  0  0  0  0  0
    0.2702   51.3045   23.5098 H   0  0  0  0  0  0
    1.5798   51.8874   18.7826 H   0  0  0  0  0  0
   -1.6116   52.8814   17.3686 H   0  0  0  0  0  0
    0.0151   53.3734   17.8218 H   0  0  0  0  0  0
   -0.3410   51.6704   17.4491 H   0  0  0  0  0  0
   -3.2392   52.2691   23.2794 H   0  0  0  0  0  0
   -2.0537   51.0093   23.6118 H   0  0  0  0  0  0
   -1.6327   52.7260   23.8375 H   0  0  0  0  0  0
    3.6879   55.2579   21.5438 H   0  0  0  0  0  0
    2.8974   53.7757   21.8926 H   0  0  0  0  0  0
    4.6829   54.1659   26.5192 H   0  0  0  0  0  0
    7.1248   54.5437   25.6208 H   0  0  0  0  0  0
    2.2271   54.0972   25.7190 H   0  0  0  0  0  0
    1.9267   54.5951   24.0709 H   0  0  0  0  0  0
    2.1872   52.9070   24.4135 H   0  0  0  0  0  0
  1  2  1  0  0  0
  1 39  1  0  0  0
  1 40  1  0  0  0
  1 41  1  0  0  0
  2  7  2  0  0  0
  2  3  1  0  0  0
  3  4  2  0  0  0
  3 42  1  0  0  0
  4  5  1  0  0  0
  4 43  1  0  0  0
  5  6  2  0  0  0
  5 44  1  0  0  0
  6  7  1  0  0  0
  6 45  1  0  0  0
  7  8  1  0  0  0
  8  9  1  0  0  0
  8 46  1  0  0  0
  9 10  2  0  0  0
  9 11  1  0  0  0
 11 12  1  0  0  0
 11 16  1  0  0  0
 12 13  1  0  0  0
 12 47  1  0  0  0
 12 48  1  0  0  0
 13 14  1  0  0  0
 13 15  1  0  0  0
 13 49  1  0  0  0
 14 50  1  0  0  0
 14 51  1  0  0  0
 14 52  1  0  0  0
 15 53  1  0  0  0
 15 54  1  0  0  0
 15 55  1  0  0  0
 16 17  1  0  0  0
 16 56  1  0  0  0
 16 57  1  0  0  0
 17 18  2  0  0  0
 17 19  1  0  0  0
 19 20  1  0  0  0
 19 32  1  0  0  0
 20 21  1  0  0  0
 20 58  1  0  0  0
 20 59  1  0  0  0
 21 22  1  0  0  0
 21 60  1  0  0  0
 21 61  1  0  0  0
 22 27  2  0  0  0
 22 23  1  0  0  0
 23 24  2  0  0  0
 23 62  1  0  0  0
 24 25  1  0  0  0
 24 63  1  0  0  0
 25 26  2  0  0  0
 25 30  1  0  0  0
 26 27  1  0  0  0
 26 28  1  0  0  0
 27 64  1  0  0  0
 28 29  1  0  0  0
 29 65  1  0  0  0
 29 66  1  0  0  0
 29 67  1  0  0  0
 30 31  1  0  0  0
 31 68  1  0  0  0
 31 69  1  0  0  0
 31 70  1  0  0  0
 32 33  1  0  0  0
 32 71  1  0  0  0
 32 72  1  0  0  0
 33 37  1  0  0  0
 33 34  2  0  0  0
 34 35  1  0  0  0
 34 38  1  0  0  0
 35 36  2  0  0  0
 35 73  1  0  0  0
 36 37  1  0  0  0
 36 74  1  0  0  0
 38 75  1  0  0  0
 38 76  1  0  0  0
 38 77  1  0  0  0
M  END
> <i_i_glide_confnum>
277

> <i_i_glide_lignum>
5747

> <i_i_glide_posenum>
305

> <i_i_glide_rotatable_bonds>
15

> <i_m_Source_File_Index>
5507

> <b_m_subgroup_collapsed>
0

> <r_i_docking_score>
-4.09974

> <r_i_glide_ecoul>
-4.94089

> <r_i_glide_eff_state_penalty>
0

> <r_i_glide_einternal>
3.46505

> <r_i_glide_emodel>
-55.0022

> <r_i_glide_energy>
-43.9602

> <r_i_glide_erotb>
0.857372

> <r_i_glide_esite>
-0.011552

> <r_i_glide_evdw>
-39.0193

> <r_i_glide_gscore>
-4.09974

> <r_i_glide_hbond>
-0.226677

> <r_i_glide_ligand_efficiency>
-0.107888

> <r_i_glide_ligand_efficiency_ln>
-0.884025

> <r_i_glide_ligand_efficiency_sa>
-0.362716

> <r_i_glide_lipo>
-1.97077

> <r_i_glide_metal>
0

> <r_i_glide_rewards>
-0.0560173

> <s_i_glide_gridfile>
wee1_glide-grid

> <s_m_Source_File>
wee1_decoys_glide_SP.sdf

> <s_m_Source_Path>
/Users/zhangxujun/Desktop

> <s_m_entry_id>
5782

> <s_m_entry_name>
wee1_decoys_glide_SP.5507

> <s_m_subgroup_title>
wee1_decoys_glide_SP

> <s_m_subgroupid>
wee1_decoys_glide_SP


$$$$
