ZINC65074785_3702
                    3D
 Schrodinger Suite 2024-2.
 55 58  0  0  1  0            999 V2000
    6.7035   54.4474   25.2795 C   0  0  0  0  0  0
    5.4458   54.2847   24.4458 C   0  0  0  0  0  0
    4.1878   54.3575   25.0502 C   0  0  0  0  0  0
    3.0328   54.2245   24.2798 C   0  0  0  0  0  0
    3.1291   54.0197   22.9043 C   0  0  0  0  0  0
    4.3839   53.9302   22.2892 C   0  0  0  0  0  0
    5.5390   54.0774   23.0657 C   0  0  0  0  0  0
    4.5087   53.7164   20.7872 C   0  0  0  0  0  0
    3.5465   52.7543   20.2291 N   0  0  0  0  0  0
    3.2608   52.5828   18.9319 C   0  0  0  0  0  0
    3.9257   53.2967   18.0105 N   0  3  0  0  0  0
    3.7648   53.1655   16.5693 C   0  0  0  0  0  0
    2.4429   52.4539   16.2830 C   0  0  0  0  0  0
    2.3038   51.2964   17.1535 N   0  0  0  0  0  0
    2.1241   51.5933   18.5838 C   0  0  0  0  0  0
    2.2659   50.2233   19.3400 C   0  0  0  0  0  0
    1.6283   50.1513   20.7466 C   0  0  0  0  0  0
    0.2564   50.6854   20.6634 N   0  0  0  0  0  0
    0.2055   52.1107   20.2828 C   0  0  0  0  0  0
    0.7276   52.2495   18.8400 C   0  0  0  0  0  0
   -0.9798   50.0436   21.7613 S   0  0  0  0  0  0
   -2.2588   50.6961   21.4566 O   0  0  0  0  0  0
   -0.8504   48.5833   21.8241 O   0  0  0  0  0  0
   -0.4462   50.6954   23.3576 C   0  0  0  0  0  0
   -0.5449   52.0225   23.7491 C   0  0  0  0  0  0
   -0.0995   52.2254   25.0564 C   0  0  0  0  0  0
    0.3198   51.0579   25.6761 C   0  0  0  0  0  0
    0.2310   49.6914   24.6066 S   0  0  0  0  0  0
    0.9177   50.8886   27.2813 Cl  0  0  0  0  0  0
    7.5042   54.8931   24.6878 H   0  0  0  0  0  0
    6.5289   55.1130   26.1263 H   0  0  0  0  0  0
    7.0369   53.4798   25.6572 H   0  0  0  0  0  0
    4.1022   54.5196   26.1149 H   0  0  0  0  0  0
    2.0617   54.2952   24.7455 H   0  0  0  0  0  0
    2.2244   53.9453   22.3191 H   0  0  0  0  0  0
    6.5133   54.0304   22.5996 H   0  0  0  0  0  0
    4.3425   54.6698   20.2837 H   0  0  0  0  0  0
    5.5000   53.3527   20.5119 H   0  0  0  0  0  0
    3.0202   52.2020   20.8889 H   0  0  0  0  0  0
    3.7999   54.1542   16.1113 H   0  0  0  0  0  0
    4.6116   52.5818   16.2053 H   0  0  0  0  0  0
    1.6005   53.1350   16.4119 H   0  0  0  0  0  0
    2.4316   52.1239   15.2427 H   0  0  0  0  0  0
    3.0522   50.6104   16.9844 H   0  0  0  0  0  0
    1.7953   49.4333   18.7501 H   0  0  0  0  0  0
    3.3178   49.9403   19.3918 H   0  0  0  0  0  0
    1.6100   49.1284   21.1264 H   0  0  0  0  0  0
    2.2054   50.7679   21.4352 H   0  0  0  0  0  0
   -0.8124   52.4895   20.3759 H   0  0  0  0  0  0
    0.8524   52.6815   20.9487 H   0  0  0  0  0  0
    0.7637   53.3044   18.5679 H   0  0  0  0  0  0
   -0.0130   51.7995   18.1759 H   0  0  0  0  0  0
   -0.9371   52.8076   23.1197 H   0  0  0  0  0  0
   -0.0934   53.1861   25.5416 H   0  0  0  0  0  0
    4.6642   53.8939   18.3514 H   0  0  0  0  0  0
  1  2  1  0  0  0
  1 30  1  0  0  0
  1 31  1  0  0  0
  1 32  1  0  0  0
  2  7  2  0  0  0
  2  3  1  0  0  0
  3  4  2  0  0  0
  3 33  1  0  0  0
  4  5  1  0  0  0
  4 34  1  0  0  0
  5  6  2  0  0  0
  5 35  1  0  0  0
  6  7  1  0  0  0
  6  8  1  0  0  0
  7 36  1  0  0  0
  8  9  1  0  0  0
  8 37  1  0  0  0
  8 38  1  0  0  0
  9 10  1  0  0  0
  9 39  1  0  0  0
 10 15  1  0  0  0
 10 11  2  0  0  0
 11 12  1  0  0  0
 11 55  1  0  0  0
 12 13  1  0  0  0
 12 40  1  0  0  0
 12 41  1  0  0  0
 13 14  1  0  0  0
 13 42  1  0  0  0
 13 43  1  0  0  0
 14 15  1  0  0  0
 14 44  1  0  0  0
 15 20  1  0  0  0
 15 16  1  0  0  0
 16 17  1  0  0  0
 16 45  1  0  0  0
 16 46  1  0  0  0
 17 18  1  0  0  0
 17 47  1  0  0  0
 17 48  1  0  0  0
 18 19  1  0  0  0
 18 21  1  0  0  0
 19 20  1  0  0  0
 19 49  1  0  0  0
 19 50  1  0  0  0
 20 51  1  0  0  0
 20 52  1  0  0  0
 21 22  2  0  0  0
 21 23  2  0  0  0
 21 24  1  0  0  0
 24 28  1  0  0  0
 24 25  2  0  0  0
 25 26  1  0  0  0
 25 53  1  0  0  0
 26 27  2  0  0  0
 26 54  1  0  0  0
 27 28  1  0  0  0
 27 29  1  0  0  0
M  CHG  1  11   1
M  END
> <i_i_glide_confnum>
349

> <i_i_glide_lignum>
3703

> <i_i_glide_posenum>
46

> <i_i_glide_rotatable_bonds>
5

> <i_m_Source_File_Index>
5794

> <b_m_subgroup_collapsed>
0

> <r_i_docking_score>
-3.64454

> <r_i_glide_ecoul>
-2.664

> <r_i_glide_eff_state_penalty>
0

> <r_i_glide_einternal>
3.1188

> <r_i_glide_emodel>
-41.6827

> <r_i_glide_energy>
-33.7336

> <r_i_glide_erotb>
0.486987

> <r_i_glide_esite>
-0.101283

> <r_i_glide_evdw>
-31.0696

> <r_i_glide_gscore>
-3.64454

> <r_i_glide_hbond>
-0.16

> <r_i_glide_ligand_efficiency>
-0.125674

> <r_i_glide_ligand_efficiency_ln>
-0.834507

> <r_i_glide_ligand_efficiency_sa>
-0.38611

> <r_i_glide_lipo>
-1.82993

> <r_i_glide_metal>
0

> <r_i_glide_rewards>
-0.0872321

> <s_i_glide_gridfile>
wee1_glide-grid

> <s_m_Source_File>
wee1_decoys_glide_SP.sdf

> <s_m_Source_Path>
/Users/zhangxujun/Desktop

> <s_m_entry_id>
6069

> <s_m_entry_name>
wee1_decoys_glide_SP.5794

> <s_m_subgroup_title>
wee1_decoys_glide_SP

> <s_m_subgroupid>
wee1_decoys_glide_SP


$$$$
