ZINC22320295_725
                    3D
 Schrodinger Suite 2024-2.
 70 74  0  0  1  0            999 V2000
    6.2145   60.7552   14.3361 C   0  0  0  0  0  0
    5.2708   59.5484   14.4689 C   0  0  0  0  0  0
    5.8975   58.4269   15.3369 N   0  3  0  0  0  0
    6.1545   58.8966   16.7826 C   0  0  0  0  0  0
    6.7344   57.7433   17.6227 C   0  0  0  0  0  0
    5.9278   56.5106   17.5972 N   0  0  0  0  0  0
    5.5975   56.0831   16.2260 C   0  0  0  0  0  0
    4.9686   57.1955   15.3596 C   0  0  0  0  0  0
    5.7214   55.7173   18.7240 C   0  0  0  0  0  0
    4.5967   54.8926   18.8243 C   0  0  0  0  0  0
    4.3026   54.2199   20.0074 C   0  0  0  0  0  0
    5.1041   54.3796   21.1470 C   0  0  0  0  0  0
    6.3070   55.1000   21.0151 C   0  0  0  0  0  0
    6.5964   55.7584   19.8159 C   0  0  0  0  0  0
    7.3521   55.1794   22.1182 C   0  0  0  0  0  0
    4.7154   53.9030   22.4225 N   0  0  0  0  0  0
    3.4545   53.7550   22.8998 C   0  0  0  0  0  0
    2.4428   53.6949   22.2039 O   0  0  0  0  0  0
    3.3260   53.6969   24.3446 C   0  0  0  0  0  0
    4.1422   54.3141   25.3247 C   0  0  0  0  0  0
    3.5441   54.0283   26.5444 C   0  0  0  0  0  0
    2.4271   53.2663   26.2476 N   0  0  0  0  0  0
    2.2953   53.1165   24.9203 N   0  0  0  0  0  0
    1.4527   52.6784   27.1054 C   0  0  0  0  0  0
    1.7843   52.2744   28.4055 C   0  0  0  0  0  0
    0.7915   51.8504   29.2811 C   0  0  0  0  0  0
   -0.5177   51.7154   28.8320 C   0  0  0  0  0  0
   -0.8452   52.0098   27.5141 C   0  0  0  0  0  0
    0.1337   52.4967   26.6557 C   0  0  0  0  0  0
   -1.4793   51.2970   29.6815 F   0  0  0  0  0  0
    4.0489   54.4543   27.9148 C   0  0  0  0  0  0
    5.4612   53.9134   28.2223 C   0  0  0  0  0  0
    6.6219   54.5707   27.4356 C   0  0  0  0  0  0
    6.6047   54.4422   25.8981 C   0  0  0  0  0  0
    5.4123   55.1252   25.2107 C   0  0  0  0  0  0
    5.8219   61.4655   13.6086 H   0  0  0  0  0  0
    6.3085   61.2989   15.2772 H   0  0  0  0  0  0
    7.2101   60.4612   14.0056 H   0  0  0  0  0  0
    5.0841   59.0946   13.4936 H   0  0  0  0  0  0
    4.3159   59.8200   14.9276 H   0  0  0  0  0  0
    6.8957   59.6947   16.7218 H   0  0  0  0  0  0
    5.2188   59.2948   17.1826 H   0  0  0  0  0  0
    6.9014   58.0986   18.6385 H   0  0  0  0  0  0
    7.7079   57.4543   17.2229 H   0  0  0  0  0  0
    6.5502   55.7786   15.7893 H   0  0  0  0  0  0
    4.9744   55.1890   16.2081 H   0  0  0  0  0  0
    4.8889   56.8590   14.3241 H   0  0  0  0  0  0
    3.9900   57.5125   15.7269 H   0  0  0  0  0  0
    3.8919   54.8116   18.0112 H   0  0  0  0  0  0
    3.3961   53.6349   20.0330 H   0  0  0  0  0  0
    7.5145   56.3227   19.7435 H   0  0  0  0  0  0
    8.3525   55.1746   21.6819 H   0  0  0  0  0  0
    7.2520   56.0960   22.6954 H   0  0  0  0  0  0
    7.3194   54.3196   22.7868 H   0  0  0  0  0  0
    5.4451   53.8989   23.1173 H   0  0  0  0  0  0
    2.7996   52.2864   28.7654 H   0  0  0  0  0  0
    1.0354   51.6305   30.3074 H   0  0  0  0  0  0
   -1.8613   51.8811   27.1734 H   0  0  0  0  0  0
   -0.1545   52.7600   25.6484 H   0  0  0  0  0  0
    4.1030   55.5355   27.9474 H   0  0  0  0  0  0
    3.3669   54.2547   28.7336 H   0  0  0  0  0  0
    5.6566   54.0757   29.2808 H   0  0  0  0  0  0
    5.4827   52.8307   28.0804 H   0  0  0  0  0  0
    6.6610   55.6320   27.6815 H   0  0  0  0  0  0
    7.5569   54.1524   27.8069 H   0  0  0  0  0  0
    7.5096   54.8940   25.4993 H   0  0  0  0  0  0
    6.6564   53.3908   25.6100 H   0  0  0  0  0  0
    5.6614   55.3745   24.1878 H   0  0  0  0  0  0
    5.2588   56.0963   25.6764 H   0  0  0  0  0  0
    6.7792   58.1440   14.9320 H   0  0  0  0  0  0
  1  2  1  0  0  0
  1 36  1  0  0  0
  1 37  1  0  0  0
  1 38  1  0  0  0
  2  3  1  0  0  0
  2 39  1  0  0  0
  2 40  1  0  0  0
  3  8  1  0  0  0
  3  4  1  0  0  0
  3 70  1  0  0  0
  4  5  1  0  0  0
  4 41  1  0  0  0
  4 42  1  0  0  0
  5  6  1  0  0  0
  5 43  1  0  0  0
  5 44  1  0  0  0
  6  7  1  0  0  0
  6  9  1  0  0  0
  7  8  1  0  0  0
  7 45  1  0  0  0
  7 46  1  0  0  0
  8 47  1  0  0  0
  8 48  1  0  0  0
  9 14  2  0  0  0
  9 10  1  0  0  0
 10 11  2  0  0  0
 10 49  1  0  0  0
 11 12  1  0  0  0
 11 50  1  0  0  0
 12 13  2  0  0  0
 12 16  1  0  0  0
 13 14  1  0  0  0
 13 15  1  0  0  0
 14 51  1  0  0  0
 15 52  1  0  0  0
 15 53  1  0  0  0
 15 54  1  0  0  0
 16 17  1  0  0  0
 16 55  1  0  0  0
 17 18  2  0  0  0
 17 19  1  0  0  0
 19 23  2  0  0  0
 19 20  1  0  0  0
 20 35  1  0  0  0
 20 21  2  0  0  0
 21 22  1  0  0  0
 21 31  1  0  0  0
 22 23  1  0  0  0
 22 24  1  0  0  0
 24 29  2  0  0  0
 24 25  1  0  0  0
 25 26  2  0  0  0
 25 56  1  0  0  0
 26 27  1  0  0  0
 26 57  1  0  0  0
 27 28  2  0  0  0
 27 30  1  0  0  0
 28 29  1  0  0  0
 28 58  1  0  0  0
 29 59  1  0  0  0
 31 32  1  0  0  0
 31 60  1  0  0  0
 31 61  1  0  0  0
 32 33  1  0  0  0
 32 62  1  0  0  0
 32 63  1  0  0  0
 33 34  1  0  0  0
 33 64  1  0  0  0
 33 65  1  0  0  0
 34 35  1  0  0  0
 34 66  1  0  0  0
 34 67  1  0  0  0
 35 68  1  0  0  0
 35 69  1  0  0  0
M  CHG  1   3   1
M  END
> <i_i_glide_confnum>
83

> <i_i_glide_lignum>
726

> <i_i_glide_posenum>
235

> <i_i_glide_rotatable_bonds>
6

> <i_m_Source_File_Index>
4391

> <b_m_subgroup_collapsed>
0

> <r_i_docking_score>
-5.5781

> <r_i_glide_ecoul>
-0.311786

> <r_i_glide_eff_state_penalty>
0

> <r_i_glide_einternal>
14.8171

> <r_i_glide_emodel>
-51.3552

> <r_i_glide_energy>
-42.7572

> <r_i_glide_erotb>
0.445751

> <r_i_glide_esite>
-0.13348

> <r_i_glide_evdw>
-42.4454

> <r_i_glide_gscore>
-5.5781

> <r_i_glide_hbond>
0

> <r_i_glide_ligand_efficiency>
-0.159374

> <r_i_glide_ligand_efficiency_ln>
-1.22452

> <r_i_glide_ligand_efficiency_sa>
-0.521324

> <r_i_glide_lipo>
-3.05606

> <r_i_glide_metal>
0

> <r_i_glide_rewards>
-0.665273

> <s_i_glide_gridfile>
wee1_glide-grid

> <s_m_Source_File>
wee1_decoys_glide_SP.sdf

> <s_m_Source_Path>
/Users/zhangxujun/Desktop

> <s_m_entry_id>
4666

> <s_m_entry_name>
wee1_decoys_glide_SP.4391

> <s_m_subgroup_title>
wee1_decoys_glide_SP

> <s_m_subgroupid>
wee1_decoys_glide_SP


$$$$
