ZINC33009313_2366
                    3D
 Schrodinger Suite 2024-2.
 63 66  0  0  1  0            999 V2000
   -0.9453   44.4922   20.1474 C   0  0  0  0  0  0
   -1.3633   45.6532   19.2334 C   0  0  0  0  0  0
   -0.3944   46.8257   19.2800 C   0  0  0  0  0  0
   -0.5744   47.8441   20.2172 C   0  0  0  0  0  0
    0.3020   48.9261   20.2531 C   0  0  0  0  0  0
    1.3656   48.9981   19.3405 C   0  0  0  0  0  0
    1.5370   47.9777   18.4023 C   0  0  0  0  0  0
    0.6653   46.8928   18.3745 C   0  0  0  0  0  0
    2.3044   50.0447   19.2811 N   0  0  0  0  0  0
    2.4666   51.1124   20.0879 C   0  0  0  0  0  0
    1.7700   51.3958   21.0634 O   0  0  0  0  0  0
    3.5381   51.8170   19.6813 N   0  0  0  0  0  0
    4.1969   52.9040   20.2949 C   0  0  0  0  0  0
    4.2444   52.9747   21.6946 C   0  0  0  0  0  0
    4.9786   53.9589   22.3517 C   0  0  0  0  0  0
    5.6857   54.8967   21.5982 C   0  0  0  0  0  0
    5.5990   54.8720   20.2088 C   0  0  0  0  0  0
    4.8417   53.9056   19.5197 C   0  0  0  0  0  0
    4.7843   53.9934   18.1059 N   0  0  0  0  0  0
    5.3060   55.1111   17.3051 C   0  0  0  0  0  0
    4.6940   55.0364   15.9087 C   0  0  0  0  0  0
    4.4507   53.5565   15.7422 C   0  0  0  0  0  0
    4.0611   53.1382   17.1550 C   0  0  0  0  0  0
    4.9104   53.9395   23.7514 N   0  0  0  0  0  0
    5.6303   54.5925   24.6874 C   0  0  0  0  0  0
    6.6145   55.2989   24.4650 O   0  0  0  0  0  0
    5.1452   54.3602   26.0997 C   0  0  0  0  0  0
    3.7900   54.0952   26.3605 C   0  0  0  0  0  0
    3.3604   53.8173   27.6519 C   0  0  0  0  0  0
    4.2754   53.8119   28.7016 C   0  0  0  0  0  0
    5.6151   54.1232   28.4654 C   0  0  0  0  0  0
    6.0486   54.3964   27.1700 C   0  0  0  0  0  0
    3.8001   53.4771   30.1006 C   0  0  0  0  0  0
   -1.6638   43.6752   20.0846 H   0  0  0  0  0  0
    0.0322   44.0972   19.8673 H   0  0  0  0  0  0
   -0.8956   44.8094   21.1899 H   0  0  0  0  0  0
   -2.3614   46.0012   19.5059 H   0  0  0  0  0  0
   -1.4551   45.3034   18.2035 H   0  0  0  0  0  0
   -1.3921   47.8001   20.9214 H   0  0  0  0  0  0
    0.1284   49.6930   20.9903 H   0  0  0  0  0  0
    2.3460   48.0217   17.6855 H   0  0  0  0  0  0
    0.8115   46.1130   17.6416 H   0  0  0  0  0  0
    2.9859   49.9449   18.5390 H   0  0  0  0  0  0
    3.9324   51.5593   18.7843 H   0  0  0  0  0  0
    3.7297   52.2310   22.2838 H   0  0  0  0  0  0
    6.2734   55.6709   22.0674 H   0  0  0  0  0  0
    6.1387   55.6350   19.6699 H   0  0  0  0  0  0
    4.9734   56.0511   17.7492 H   0  0  0  0  0  0
    6.3956   55.0972   17.2529 H   0  0  0  0  0  0
    3.7650   55.6081   15.8643 H   0  0  0  0  0  0
    5.3618   55.4348   15.1443 H   0  0  0  0  0  0
    5.3475   53.0259   15.4173 H   0  0  0  0  0  0
    3.6638   53.3425   15.0180 H   0  0  0  0  0  0
    4.3536   52.0979   17.2899 H   0  0  0  0  0  0
    2.9828   53.2106   17.3098 H   0  0  0  0  0  0
    4.2020   53.3255   24.1226 H   0  0  0  0  0  0
    3.0535   54.0873   25.5698 H   0  0  0  0  0  0
    2.3184   53.5929   27.8294 H   0  0  0  0  0  0
    6.3269   54.1511   29.2788 H   0  0  0  0  0  0
    7.0947   54.6129   27.0059 H   0  0  0  0  0  0
    4.0012   52.4297   30.3313 H   0  0  0  0  0  0
    4.3044   54.0979   30.8393 H   0  0  0  0  0  0
    2.7296   53.6592   30.2069 H   0  0  0  0  0  0
  1  2  1  0  0  0
  1 34  1  0  0  0
  1 35  1  0  0  0
  1 36  1  0  0  0
  2  3  1  0  0  0
  2 37  1  0  0  0
  2 38  1  0  0  0
  3  8  2  0  0  0
  3  4  1  0  0  0
  4  5  2  0  0  0
  4 39  1  0  0  0
  5  6  1  0  0  0
  5 40  1  0  0  0
  6  7  2  0  0  0
  6  9  1  0  0  0
  7  8  1  0  0  0
  7 41  1  0  0  0
  8 42  1  0  0  0
  9 10  1  0  0  0
  9 43  1  0  0  0
 10 11  2  0  0  0
 10 12  1  0  0  0
 12 13  1  0  0  0
 12 44  1  0  0  0
 13 18  2  0  0  0
 13 14  1  0  0  0
 14 15  2  0  0  0
 14 45  1  0  0  0
 15 16  1  0  0  0
 15 24  1  0  0  0
 16 17  2  0  0  0
 16 46  1  0  0  0
 17 18  1  0  0  0
 17 47  1  0  0  0
 18 19  1  0  0  0
 19 23  1  0  0  0
 19 20  1  0  0  0
 20 21  1  0  0  0
 20 48  1  0  0  0
 20 49  1  0  0  0
 21 22  1  0  0  0
 21 50  1  0  0  0
 21 51  1  0  0  0
 22 23  1  0  0  0
 22 52  1  0  0  0
 22 53  1  0  0  0
 23 54  1  0  0  0
 23 55  1  0  0  0
 24 25  1  0  0  0
 24 56  1  0  0  0
 25 26  2  0  0  0
 25 27  1  0  0  0
 27 32  2  0  0  0
 27 28  1  0  0  0
 28 29  2  0  0  0
 28 57  1  0  0  0
 29 30  1  0  0  0
 29 58  1  0  0  0
 30 31  2  0  0  0
 30 33  1  0  0  0
 31 32  1  0  0  0
 31 59  1  0  0  0
 32 60  1  0  0  0
 33 61  1  0  0  0
 33 62  1  0  0  0
 33 63  1  0  0  0
M  END
> <i_i_glide_confnum>
3

> <i_i_glide_lignum>
2367

> <i_i_glide_posenum>
292

> <i_i_glide_rotatable_bonds>
9

> <i_m_Source_File_Index>
1127

> <b_m_subgroup_collapsed>
0

> <r_i_docking_score>
-5.13864

> <r_i_glide_ecoul>
-2.50022

> <r_i_glide_eff_state_penalty>
0

> <r_i_glide_einternal>
7.77643

> <r_i_glide_emodel>
-56.7452

> <r_i_glide_energy>
-45.2021

> <r_i_glide_erotb>
0.816299

> <r_i_glide_esite>
-0.207334

> <r_i_glide_evdw>
-42.7019

> <r_i_glide_gscore>
-5.13864

> <r_i_glide_hbond>
-0.144764

> <r_i_glide_ligand_efficiency>
-0.155716

> <r_i_glide_ligand_efficiency_ln>
-1.14281

> <r_i_glide_ligand_efficiency_sa>
-0.499465

> <r_i_glide_lipo>
-2.21177

> <r_i_glide_metal>
0

> <r_i_glide_rewards>
-0.880943

> <s_i_glide_gridfile>
wee1_glide-grid

> <s_m_Source_File>
wee1_decoys_glide_SP.sdf

> <s_m_Source_Path>
/Users/zhangxujun/Desktop

> <s_m_entry_id>
1402

> <s_m_entry_name>
wee1_decoys_glide_SP.1127

> <s_m_subgroup_title>
wee1_decoys_glide_SP

> <s_m_subgroupid>
wee1_decoys_glide_SP


$$$$
