ZINC03142232_2846
                    3D
 Schrodinger Suite 2024-2.
 46 48  0  0  1  0            999 V2000
    5.0611   54.3365   28.2036 C   0  0  0  0  0  0
    3.7733   54.0958   27.7359 C   0  0  0  0  0  0
    3.5122   54.0527   26.3681 C   0  0  0  0  0  0
    4.5620   54.2441   25.4346 C   0  0  0  0  0  0
    4.3499   54.1813   24.0381 C   0  0  0  0  0  0
    5.3984   54.3549   23.1329 C   0  0  0  0  0  0
    6.6810   54.5984   23.6095 C   0  0  0  0  0  0
    6.9138   54.6904   24.9725 C   0  0  0  0  0  0
    5.8798   54.4992   25.9129 C   0  0  0  0  0  0
    6.1113   54.5393   27.3106 C   0  0  0  0  0  0
    5.1029   54.2268   21.7676 N   0  0  0  0  0  0
    5.5372   54.8688   20.6390 C   0  0  0  0  0  0
    6.6659   56.0932   20.5465 S   0  0  0  0  0  0
    4.9446   54.5023   19.4649 N   0  0  0  0  0  0
    4.1750   53.2623   19.2099 C   0  0  2  0  0  0
    4.9380   52.4905   19.2803 H   0  0  0  0  0  0
    3.6407   53.2235   17.7448 C   0  0  0  0  0  0
    5.0079   53.3004   16.5959 Cl  0  0  0  0  0  0
    2.7228   51.7208   17.4257 Cl  0  0  0  0  0  0
    2.5608   54.6154   17.4383 Cl  0  0  0  0  0  0
    3.1024   52.9808   20.1816 N   0  0  0  0  0  0
    3.0071   51.8954   20.9762 C   0  0  0  0  0  0
    3.7713   50.9361   20.8809 O   0  0  0  0  0  0
    1.9577   51.9307   22.0670 C   0  0  0  0  0  0
    1.4009   53.1361   22.5250 C   0  0  0  0  0  0
    0.5424   53.1566   23.6243 C   0  0  0  0  0  0
    0.1889   51.9705   24.2543 C   0  0  0  0  0  0
    0.6895   50.7487   23.7915 C   0  0  0  0  0  0
    1.5742   50.7406   22.7034 C   0  0  0  0  0  0
    0.2859   49.4844   24.4389 N   0  3  0  0  0  0
   -0.0702   49.5200   25.6133 O   0  0  0  0  0  0
    0.3011   48.4670   23.7568 O   0  5  0  0  0  0
    5.2496   54.3705   29.2669 H   0  0  0  0  0  0
    2.9673   53.9422   28.4372 H   0  0  0  0  0  0
    2.5104   53.8554   26.0138 H   0  0  0  0  0  0
    3.3530   54.0011   23.6939 H   0  0  0  0  0  0
    7.5044   54.7105   22.9246 H   0  0  0  0  0  0
    7.9044   54.8958   25.3091 H   0  0  0  0  0  0
    7.1078   54.7296   27.6840 H   0  0  0  0  0  0
    4.3423   53.5863   21.5965 H   0  0  0  0  0  0
    5.1816   55.0444   18.6465 H   0  0  0  0  0  0
    2.3398   53.6492   20.1853 H   0  0  0  0  0  0
    1.6653   54.0865   22.0815 H   0  0  0  0  0  0
    0.1495   54.0954   23.9853 H   0  0  0  0  0  0
   -0.4865   51.9986   25.0986 H   0  0  0  0  0  0
    1.9842   49.7960   22.3668 H   0  0  0  0  0  0
  1 10  2  0  0  0
  1  2  1  0  0  0
  1 33  1  0  0  0
  2  3  2  0  0  0
  2 34  1  0  0  0
  3  4  1  0  0  0
  3 35  1  0  0  0
  4  9  2  0  0  0
  4  5  1  0  0  0
  5  6  2  0  0  0
  5 36  1  0  0  0
  6  7  1  0  0  0
  6 11  1  0  0  0
  7  8  2  0  0  0
  7 37  1  0  0  0
  8  9  1  0  0  0
  8 38  1  0  0  0
  9 10  1  0  0  0
 10 39  1  0  0  0
 11 12  1  0  0  0
 11 40  1  0  0  0
 12 13  2  0  0  0
 12 14  1  0  0  0
 14 15  1  0  0  0
 14 41  1  0  0  0
 15 16  1  0  0  0
 15 17  1  0  0  0
 15 21  1  0  0  0
 17 18  1  0  0  0
 17 19  1  0  0  0
 17 20  1  0  0  0
 21 22  1  0  0  0
 21 42  1  0  0  0
 22 23  2  0  0  0
 22 24  1  0  0  0
 24 29  2  0  0  0
 24 25  1  0  0  0
 25 26  2  0  0  0
 25 43  1  0  0  0
 26 27  1  0  0  0
 26 44  1  0  0  0
 27 28  2  0  0  0
 27 45  1  0  0  0
 28 29  1  0  0  0
 28 30  1  0  0  0
 29 46  1  0  0  0
 30 31  2  0  0  0
 30 32  1  0  0  0
M  CHG  2  30   1  32  -1
M  END
> <i_i_glide_confnum>
22

> <i_i_glide_lignum>
2847

> <i_i_glide_posenum>
163

> <i_i_glide_rotatable_bonds>
9

> <i_m_Source_File_Index>
5763

> <b_m_subgroup_collapsed>
0

> <r_i_docking_score>
-6.0039

> <r_i_glide_ecoul>
-3.68834

> <r_i_glide_eff_state_penalty>
0

> <r_i_glide_einternal>
15.0742

> <r_i_glide_emodel>
-58.4625

> <r_i_glide_energy>
-48.5645

> <r_i_glide_erotb>
0.494009

> <r_i_glide_esite>
-0.162743

> <r_i_glide_evdw>
-44.8761

> <r_i_glide_gscore>
-6.0039

> <r_i_glide_hbond>
-0.32

> <r_i_glide_ligand_efficiency>
-0.193674

> <r_i_glide_ligand_efficiency_ln>
-1.35406

> <r_i_glide_ligand_efficiency_sa>
-0.608405

> <r_i_glide_lipo>
-2.96179

> <r_i_glide_metal>
0

> <r_i_glide_rewards>
-0.256315

> <s_i_glide_gridfile>
wee1_glide-grid

> <s_m_Source_File>
wee1_decoys_glide_SP.sdf

> <s_m_Source_Path>
/Users/zhangxujun/Desktop

> <s_m_entry_id>
6038

> <s_m_entry_name>
wee1_decoys_glide_SP.5763

> <s_m_subgroup_title>
wee1_decoys_glide_SP

> <s_m_subgroupid>
wee1_decoys_glide_SP


$$$$
