ZINC40368168_5353
                    3D
 Schrodinger Suite 2024-2.
 68 71  0  0  1  0            999 V2000
    4.3093   54.4900   29.1947 C   0  0  0  0  0  0
    3.3641   54.4924   27.9839 C   0  0  0  0  0  0
    2.3181   53.4549   28.0509 N   0  0  0  0  0  0
    2.7987   52.0969   27.8571 C   0  0  0  0  0  0
    3.0173   51.3010   29.1366 C   0  0  0  0  0  0
    1.0309   53.7511   28.3652 C   0  0  0  0  0  0
    0.7044   54.9019   28.6195 O   0  0  0  0  0  0
    0.0309   52.6871   28.4339 C   0  0  0  0  0  0
   -0.3309   52.1670   29.6350 C   0  0  0  0  0  0
   -1.3941   51.2969   29.6834 N   0  3  0  0  0  0
   -2.2944   51.1413   28.7084 C   0  0  0  0  0  0
   -1.9959   51.5792   27.4694 N   0  0  0  0  0  0
   -0.7631   52.3545   27.1398 C   0  0  2  0  0  0
   -1.1741   53.2965   26.7813 H   0  0  0  0  0  0
    0.0487   51.7929   25.9524 C   0  0  0  0  0  0
    0.0263   50.4260   25.6335 C   0  0  0  0  0  0
    0.7039   49.9486   24.5109 C   0  0  0  0  0  0
    1.4531   50.8182   23.7173 C   0  0  0  0  0  0
    1.5412   52.1776   24.0595 C   0  0  0  0  0  0
    0.8120   52.6530   25.1522 C   0  0  0  0  0  0
    2.4261   53.0863   23.4496 N   0  0  0  0  0  0
    3.1055   52.9491   22.2916 C   0  0  0  0  0  0
    2.7893   52.1736   21.3894 O   0  0  0  0  0  0
    4.3412   53.8100   22.1673 C   0  0  0  0  0  0
    5.1582   54.0733   23.2799 C   0  0  0  0  0  0
    6.3366   54.8026   23.1393 C   0  0  0  0  0  0
    6.7037   55.2980   21.8904 C   0  0  0  0  0  0
    5.9041   55.0684   20.7696 C   0  0  0  0  0  0
    4.7294   54.3090   20.9159 C   0  0  0  0  0  0
    6.3440   55.6125   19.5796 O   0  0  0  0  0  0
    5.5713   55.4165   18.3995 C   0  0  0  0  0  0
   -2.9648   51.5184   26.3520 C   0  0  0  0  0  0
   -3.9560   50.3601   26.5503 C   0  0  0  0  0  0
   -4.8300   50.5129   27.7973 C   0  0  0  0  0  0
   -3.8086   50.4966   29.2830 S   0  0  0  0  0  0
    0.2112   52.5525   31.0169 C   0  0  0  0  0  0
    5.0396   55.2954   29.1201 H   0  0  0  0  0  0
    3.7581   54.6253   30.1237 H   0  0  0  0  0  0
    4.8744   53.5599   29.2588 H   0  0  0  0  0  0
    3.9453   54.3471   27.0725 H   0  0  0  0  0  0
    2.9231   55.4856   27.8878 H   0  0  0  0  0  0
    2.0945   51.5388   27.2536 H   0  0  0  0  0  0
    3.7281   52.1330   27.2917 H   0  0  0  0  0  0
    2.7041   50.2912   28.8821 H   0  0  0  0  0  0
    4.0654   51.3054   29.4344 H   0  0  0  0  0  0
    2.4342   51.6611   29.9779 H   0  0  0  0  0  0
   -0.5260   49.7251   26.2462 H   0  0  0  0  0  0
    0.6768   48.8950   24.2751 H   0  0  0  0  0  0
    2.0131   50.4042   22.8925 H   0  0  0  0  0  0
    0.8776   53.6969   25.4104 H   0  0  0  0  0  0
    2.6794   53.8819   24.0133 H   0  0  0  0  0  0
    4.9089   53.6858   24.2578 H   0  0  0  0  0  0
    6.9720   54.9817   23.9942 H   0  0  0  0  0  0
    7.6214   55.8601   21.7906 H   0  0  0  0  0  0
    4.1053   54.1007   20.0588 H   0  0  0  0  0  0
    6.0558   55.9201   17.5633 H   0  0  0  0  0  0
    5.4910   54.3584   18.1454 H   0  0  0  0  0  0
    4.5697   55.8386   18.5014 H   0  0  0  0  0  0
   -3.4854   52.4757   26.3139 H   0  0  0  0  0  0
   -2.4415   51.3972   25.4035 H   0  0  0  0  0  0
   -4.6006   50.2909   25.6728 H   0  0  0  0  0  0
   -3.4122   49.4122   26.5923 H   0  0  0  0  0  0
   -5.3806   51.4542   27.7858 H   0  0  0  0  0  0
   -5.5548   49.7015   27.8809 H   0  0  0  0  0  0
   -0.5688   53.0324   31.6045 H   0  0  0  0  0  0
    0.5496   51.6972   31.5972 H   0  0  0  0  0  0
    1.0361   53.2601   30.9757 H   0  0  0  0  0  0
   -1.6238   50.8433   30.5617 H   0  0  0  0  0  0
  1  2  1  0  0  0
  1 37  1  0  0  0
  1 38  1  0  0  0
  1 39  1  0  0  0
  2  3  1  0  0  0
  2 40  1  0  0  0
  2 41  1  0  0  0
  3  4  1  0  0  0
  3  6  1  0  0  0
  4  5  1  0  0  0
  4 42  1  0  0  0
  4 43  1  0  0  0
  5 44  1  0  0  0
  5 45  1  0  0  0
  5 46  1  0  0  0
  6  7  2  0  0  0
  6  8  1  0  0  0
  8 13  1  0  0  0
  8  9  2  0  0  0
  9 10  1  0  0  0
  9 36  1  0  0  0
 10 11  2  0  0  0
 10 68  1  0  0  0
 11 35  1  0  0  0
 11 12  1  0  0  0
 12 13  1  0  0  0
 12 32  1  0  0  0
 13 14  1  0  0  0
 13 15  1  0  0  0
 15 20  2  0  0  0
 15 16  1  0  0  0
 16 17  2  0  0  0
 16 47  1  0  0  0
 17 18  1  0  0  0
 17 48  1  0  0  0
 18 19  2  0  0  0
 18 49  1  0  0  0
 19 20  1  0  0  0
 19 21  1  0  0  0
 20 50  1  0  0  0
 21 22  1  0  0  0
 21 51  1  0  0  0
 22 23  2  0  0  0
 22 24  1  0  0  0
 24 29  2  0  0  0
 24 25  1  0  0  0
 25 26  2  0  0  0
 25 52  1  0  0  0
 26 27  1  0  0  0
 26 53  1  0  0  0
 27 28  2  0  0  0
 27 54  1  0  0  0
 28 29  1  0  0  0
 28 30  1  0  0  0
 29 55  1  0  0  0
 30 31  1  0  0  0
 31 56  1  0  0  0
 31 57  1  0  0  0
 31 58  1  0  0  0
 32 33  1  0  0  0
 32 59  1  0  0  0
 32 60  1  0  0  0
 33 34  1  0  0  0
 33 61  1  0  0  0
 33 62  1  0  0  0
 34 35  1  0  0  0
 34 63  1  0  0  0
 34 64  1  0  0  0
 36 65  1  0  0  0
 36 66  1  0  0  0
 36 67  1  0  0  0
M  CHG  1  10   1
M  END
> <i_i_glide_confnum>
87

> <i_i_glide_lignum>
5354

> <i_i_glide_posenum>
195

> <i_i_glide_rotatable_bonds>
9

> <i_m_Source_File_Index>
1105

> <b_m_subgroup_collapsed>
0

> <r_i_docking_score>
-4.86068

> <r_i_glide_ecoul>
-2.98746

> <r_i_glide_eff_state_penalty>
0

> <r_i_glide_einternal>
11.4638

> <r_i_glide_emodel>
-46.0323

> <r_i_glide_energy>
-41.4697

> <r_i_glide_erotb>
0.501627

> <r_i_glide_esite>
-0.264106

> <r_i_glide_evdw>
-38.4823

> <r_i_glide_gscore>
-4.86068

> <r_i_glide_hbond>
-0.0190024

> <r_i_glide_ligand_efficiency>
-0.138877

> <r_i_glide_ligand_efficiency_ln>
-1.06703

> <r_i_glide_ligand_efficiency_sa>
-0.454275

> <r_i_glide_lipo>
-2.31986

> <r_i_glide_metal>
0

> <r_i_glide_rewards>
-0.387111

> <s_i_glide_gridfile>
wee1_glide-grid

> <s_m_Source_File>
wee1_decoys_glide_SP.sdf

> <s_m_Source_Path>
/Users/zhangxujun/Desktop

> <s_m_entry_id>
1380

> <s_m_entry_name>
wee1_decoys_glide_SP.1105

> <s_m_subgroup_title>
wee1_decoys_glide_SP

> <s_m_subgroupid>
wee1_decoys_glide_SP


$$$$
