ZINC36050332_4636
                    3D
 Schrodinger Suite 2024-2.
 65 69  0  0  1  0            999 V2000
   -3.7346   53.3615   24.0825 C   0  0  0  0  0  0
   -3.2649   51.9803   23.6158 C   0  0  0  0  0  0
   -1.9314   52.0686   23.1259 O   0  0  0  0  0  0
   -1.6111   51.8896   21.8217 C   0  0  0  0  0  0
   -2.4636   51.7136   20.9479 O   0  0  0  0  0  0
   -0.1464   51.9620   21.5492 C   0  0  0  0  0  0
    0.3892   51.6216   20.3335 C   0  0  0  0  0  0
    1.7213   51.6966   20.0572 N   0  0  0  0  0  0
    2.5061   52.2331   20.9053 C   0  0  0  0  0  0
    2.1860   52.7054   22.1772 N   0  0  0  0  0  0
    0.7965   52.4912   22.6880 C   0  0  2  0  0  0
    0.4468   53.4973   22.9213 H   0  0  0  0  0  0
    0.7211   51.6958   24.0106 C   0  0  0  0  0  0
    0.3923   52.3960   25.1775 C   0  0  0  0  0  0
    0.1060   51.7323   26.3689 C   0  0  0  0  0  0
    0.1585   50.3413   26.4057 C   0  0  0  0  0  0
    0.5180   49.6284   25.2693 C   0  0  0  0  0  0
    0.8087   50.2917   24.0722 C   0  0  0  0  0  0
    1.2019   49.4473   22.8796 C   0  0  0  0  0  0
   -0.2793   52.5201   27.6023 C   0  0  0  0  0  0
    3.2167   53.3925   22.8191 C   0  0  0  0  0  0
    4.3649   53.3315   22.1146 C   0  0  0  0  0  0
    4.2371   52.4457   20.6068 S   0  0  0  0  0  0
    3.1146   54.0542   24.1210 C   0  0  0  0  0  0
    4.1125   54.3075   24.9939 C   0  0  0  0  0  0
    5.3795   54.0968   24.9106 O   0  5  0  0  0  0
    3.8361   54.8967   26.2056 N   0  0  0  0  0  0
    4.3261   54.5024   27.5243 C   0  0  0  0  0  0
    3.1974   54.3430   28.5362 C   0  0  0  0  0  0
    2.2679   55.3817   28.7637 C   0  0  0  0  0  0
    1.2864   55.2679   29.7544 C   0  0  0  0  0  0
    1.2257   54.0806   30.4717 C   0  0  0  0  0  0
    2.1258   53.0730   30.2630 C   0  0  0  0  0  0
    3.1300   53.1682   29.3045 C   0  0  0  0  0  0
    1.9171   52.0964   31.1805 O   0  0  0  0  0  0
    0.6974   52.4149   31.7949 C   0  0  0  0  0  0
    0.4105   53.7557   31.5069 O   0  0  0  0  0  0
   -0.3380   51.0263   19.1274 C   0  0  0  0  0  0
   -4.7742   53.3259   24.4102 H   0  0  0  0  0  0
   -3.6589   54.1019   23.2851 H   0  0  0  0  0  0
   -3.1331   53.6967   24.9243 H   0  0  0  0  0  0
   -3.2708   51.2915   24.4594 H   0  0  0  0  0  0
   -3.9594   51.5695   22.8816 H   0  0  0  0  0  0
    0.3051   53.4664   25.1395 H   0  0  0  0  0  0
   -0.0932   49.8003   27.3029 H   0  0  0  0  0  0
    0.5648   48.5491   25.3291 H   0  0  0  0  0  0
    1.5045   48.4720   23.2315 H   0  0  0  0  0  0
    0.3797   49.3291   22.1779 H   0  0  0  0  0  0
    2.0594   49.8704   22.3610 H   0  0  0  0  0  0
   -0.2067   51.9213   28.5133 H   0  0  0  0  0  0
    0.3827   53.3772   27.7204 H   0  0  0  0  0  0
   -1.2955   52.8959   27.4989 H   0  0  0  0  0  0
    5.3110   53.7660   22.3988 H   0  0  0  0  0  0
    2.1291   54.3754   24.4150 H   0  0  0  0  0  0
    3.1512   55.6334   26.2289 H   0  0  0  0  0  0
    4.9223   53.5891   27.4518 H   0  0  0  0  0  0
    4.9970   55.2815   27.8911 H   0  0  0  0  0  0
    2.3049   56.2953   28.1923 H   0  0  0  0  0  0
    0.6200   56.0891   29.9646 H   0  0  0  0  0  0
    3.8511   52.3759   29.1620 H   0  0  0  0  0  0
    0.7233   52.2456   32.8745 H   0  0  0  0  0  0
   -0.0945   51.7924   31.3716 H   0  0  0  0  0  0
   -0.7673   51.8252   18.5217 H   0  0  0  0  0  0
    0.3213   50.4381   18.4863 H   0  0  0  0  0  0
   -1.1341   50.3458   19.4278 H   0  0  0  0  0  0
  1  2  1  0  0  0
  1 39  1  0  0  0
  1 40  1  0  0  0
  1 41  1  0  0  0
  2  3  1  0  0  0
  2 42  1  0  0  0
  2 43  1  0  0  0
  3  4  1  0  0  0
  4  5  2  0  0  0
  4  6  1  0  0  0
  6 11  1  0  0  0
  6  7  2  0  0  0
  7  8  1  0  0  0
  7 38  1  0  0  0
  8  9  2  0  0  0
  9 23  1  0  0  0
  9 10  1  0  0  0
 10 11  1  0  0  0
 10 21  1  0  0  0
 11 12  1  0  0  0
 11 13  1  0  0  0
 13 18  2  0  0  0
 13 14  1  0  0  0
 14 15  2  0  0  0
 14 44  1  0  0  0
 15 16  1  0  0  0
 15 20  1  0  0  0
 16 17  2  0  0  0
 16 45  1  0  0  0
 17 18  1  0  0  0
 17 46  1  0  0  0
 18 19  1  0  0  0
 19 47  1  0  0  0
 19 48  1  0  0  0
 19 49  1  0  0  0
 20 50  1  0  0  0
 20 51  1  0  0  0
 20 52  1  0  0  0
 21 22  2  0  0  0
 21 24  1  0  0  0
 22 23  1  0  0  0
 22 53  1  0  0  0
 24 25  2  0  0  0
 24 54  1  0  0  0
 25 26  1  0  0  0
 25 27  1  0  0  0
 27 28  1  0  0  0
 27 55  1  0  0  0
 28 29  1  0  0  0
 28 56  1  0  0  0
 28 57  1  0  0  0
 29 34  2  0  0  0
 29 30  1  0  0  0
 30 31  2  0  0  0
 30 58  1  0  0  0
 31 32  1  0  0  0
 31 59  1  0  0  0
 32 37  1  0  0  0
 32 33  2  0  0  0
 33 34  1  0  0  0
 33 35  1  0  0  0
 34 60  1  0  0  0
 35 36  1  0  0  0
 36 37  1  0  0  0
 36 61  1  0  0  0
 36 62  1  0  0  0
 38 63  1  0  0  0
 38 64  1  0  0  0
 38 65  1  0  0  0
M  CHG  1  26  -1
M  END
> <i_i_glide_confnum>
40

> <i_i_glide_lignum>
4637

> <i_i_glide_posenum>
29

> <i_i_glide_rotatable_bonds>
8

> <i_m_Source_File_Index>
759

> <b_m_subgroup_collapsed>
0

> <r_i_docking_score>
-5.77623

> <r_i_glide_ecoul>
-3.88757

> <r_i_glide_eff_state_penalty>
0

> <r_i_glide_einternal>
9.38435

> <r_i_glide_emodel>
-65.7704

> <r_i_glide_energy>
-52.3632

> <r_i_glide_erotb>
0.458213

> <r_i_glide_esite>
-0.124691

> <r_i_glide_evdw>
-48.4756

> <r_i_glide_gscore>
-5.77623

> <r_i_glide_hbond>
-0.244997

> <r_i_glide_ligand_efficiency>
-0.156114

> <r_i_glide_ligand_efficiency_ln>
-1.25273

> <r_i_glide_ligand_efficiency_sa>
-0.520208

> <r_i_glide_lipo>
-2.74316

> <r_i_glide_metal>
0

> <r_i_glide_rewards>
-0.114684

> <s_i_glide_gridfile>
wee1_glide-grid

> <s_m_Source_File>
wee1_decoys_glide_SP.sdf

> <s_m_Source_Path>
/Users/zhangxujun/Desktop

> <s_m_entry_id>
1034

> <s_m_entry_name>
wee1_decoys_glide_SP.759

> <s_m_subgroup_title>
wee1_decoys_glide_SP

> <s_m_subgroupid>
wee1_decoys_glide_SP


$$$$
