ZINC21522696_5150
                    3D
 Schrodinger Suite 2024-2.
 75 78  0  0  1  0            999 V2000
    4.5767   54.8910   25.3511 C   0  0  0  0  0  0
    3.3572   54.1018   25.7825 C   0  0  0  0  0  0
    2.9633   53.9156   27.1063 C   0  0  0  0  0  0
    1.5639   52.8544   27.2461 S   0  0  0  0  0  0
    1.5058   52.7037   25.5151 C   0  0  0  0  0  0
    2.4790   53.4454   24.8616 C   0  0  0  0  0  0
    2.2635   53.2568   23.4565 C   0  0  0  0  0  0
    1.1968   52.3509   23.3280 C   0  0  0  0  0  0
    0.7874   51.9851   24.6051 N   0  0  0  0  0  0
   -0.1677   50.9353   24.8765 C   0  0  0  0  0  0
   -1.1460   50.7263   23.6782 C   0  0  1  0  0  0
   -0.4213   50.8875   22.3679 N   0  0  0  0  0  0
    0.5723   51.8169   22.1281 C   0  0  0  0  0  0
    0.9339   52.0919   20.9816 O   0  0  0  0  0  0
   -1.0578   50.2963   21.1673 C   0  0  0  0  0  0
   -0.2634   49.0966   20.6023 C   0  0  0  0  0  0
   -0.9103   48.4234   19.3723 C   0  0  0  0  0  0
    0.0487   47.3924   18.7469 C   0  0  0  0  0  0
   -2.2712   47.7781   19.6950 C   0  0  0  0  0  0
   -1.7358   49.2900   23.8887 C   0  0  0  0  0  0
   -2.3063   51.7873   23.7954 C   0  0  0  0  0  0
   -2.2060   52.8937   23.2588 O   0  0  0  0  0  0
   -3.4066   51.4465   24.4961 N   0  0  0  0  0  0
   -4.6274   52.2376   24.6622 C   0  0  0  0  0  0
   -5.7844   51.2645   24.9961 C   0  0  0  0  0  0
   -7.1919   51.8897   24.9804 C   0  0  0  0  0  0
   -7.6463   52.5712   26.2854 C   0  0  0  0  0  0
   -6.6021   53.4315   27.0221 C   0  0  0  0  0  0
   -5.6229   54.2025   26.1203 C   0  0  0  0  0  0
   -4.3957   53.3779   25.6864 C   0  0  0  0  0  0
    2.9846   53.9014   22.4682 N   0  0  0  0  0  0
    3.8717   53.2859   21.6596 C   0  0  0  0  0  0
    4.1358   52.0832   21.6818 O   0  0  0  0  0  0
    4.5876   54.1791   20.6539 C   0  0  0  0  0  0
    3.5906   54.4741   28.3651 C   0  0  0  0  0  0
    4.7139   54.9026   24.2716 H   0  0  0  0  0  0
    5.4867   54.4664   25.7748 H   0  0  0  0  0  0
    4.5309   55.9261   25.6817 H   0  0  0  0  0  0
    0.3924   50.0246   25.1007 H   0  0  0  0  0  0
   -0.7001   51.1861   25.7976 H   0  0  0  0  0  0
   -2.0767   49.9902   21.3950 H   0  0  0  0  0  0
   -1.1933   51.0470   20.3851 H   0  0  0  0  0  0
    0.7339   49.4411   20.3241 H   0  0  0  0  0  0
   -0.1175   48.3503   21.3832 H   0  0  0  0  0  0
   -1.0829   49.1980   18.6231 H   0  0  0  0  0  0
    0.2718   46.5797   19.4400 H   0  0  0  0  0  0
   -0.3750   46.9521   17.8439 H   0  0  0  0  0  0
    0.9950   47.8571   18.4649 H   0  0  0  0  0  0
   -2.1789   47.0230   20.4759 H   0  0  0  0  0  0
   -3.0005   48.5159   20.0299 H   0  0  0  0  0  0
   -2.6934   47.2932   18.8151 H   0  0  0  0  0  0
   -2.0611   49.1169   24.9168 H   0  0  0  0  0  0
   -2.5912   49.0737   23.2457 H   0  0  0  0  0  0
   -0.9821   48.5310   23.6770 H   0  0  0  0  0  0
   -3.4357   50.5192   24.8937 H   0  0  0  0  0  0
   -4.8478   52.6729   23.6828 H   0  0  0  0  0  0
   -5.7844   50.4704   24.2463 H   0  0  0  0  0  0
   -5.6059   50.7666   25.9501 H   0  0  0  0  0  0
   -7.2608   52.6014   24.1570 H   0  0  0  0  0  0
   -7.9205   51.1132   24.7416 H   0  0  0  0  0  0
   -8.5139   53.1906   26.0557 H   0  0  0  0  0  0
   -8.0142   51.8114   26.9745 H   0  0  0  0  0  0
   -7.1320   54.1390   27.6616 H   0  0  0  0  0  0
   -6.0335   52.8000   27.7065 H   0  0  0  0  0  0
   -6.1450   54.5834   25.2430 H   0  0  0  0  0  0
   -5.2677   55.0758   26.6706 H   0  0  0  0  0  0
   -3.8788   52.9923   26.5667 H   0  0  0  0  0  0
   -3.6958   54.0789   25.2327 H   0  0  0  0  0  0
    2.8026   54.8813   22.3277 H   0  0  0  0  0  0
    5.3779   54.7455   21.1477 H   0  0  0  0  0  0
    5.0373   53.5737   19.8661 H   0  0  0  0  0  0
    3.8965   54.8782   20.1841 H   0  0  0  0  0  0
    4.2788   55.2952   28.1577 H   0  0  0  0  0  0
    2.8376   54.8645   29.0515 H   0  0  0  0  0  0
    4.1529   53.7109   28.9027 H   0  0  0  0  0  0
  1  2  1  0  0  0
  1 36  1  0  0  0
  1 37  1  0  0  0
  1 38  1  0  0  0
  2  6  1  0  0  0
  2  3  2  0  0  0
  3  4  1  0  0  0
  3 35  1  0  0  0
  4  5  1  0  0  0
  5  9  1  0  0  0
  5  6  2  0  0  0
  6  7  1  0  0  0
  7  8  2  0  0  0
  7 31  1  0  0  0
  8 13  1  0  0  0
  8  9  1  0  0  0
  9 10  1  0  0  0
 10 11  1  0  0  0
 10 39  1  0  0  0
 10 40  1  0  0  0
 11 12  1  0  0  0
 11 20  1  0  0  0
 11 21  1  0  0  0
 12 13  1  0  0  0
 12 15  1  0  0  0
 13 14  2  0  0  0
 15 16  1  0  0  0
 15 41  1  0  0  0
 15 42  1  0  0  0
 16 17  1  0  0  0
 16 43  1  0  0  0
 16 44  1  0  0  0
 17 18  1  0  0  0
 17 19  1  0  0  0
 17 45  1  0  0  0
 18 46  1  0  0  0
 18 47  1  0  0  0
 18 48  1  0  0  0
 19 49  1  0  0  0
 19 50  1  0  0  0
 19 51  1  0  0  0
 20 52  1  0  0  0
 20 53  1  0  0  0
 20 54  1  0  0  0
 21 22  2  0  0  0
 21 23  1  0  0  0
 23 24  1  0  0  0
 23 55  1  0  0  0
 24 30  1  0  0  0
 24 25  1  0  0  0
 24 56  1  0  0  0
 25 26  1  0  0  0
 25 57  1  0  0  0
 25 58  1  0  0  0
 26 27  1  0  0  0
 26 59  1  0  0  0
 26 60  1  0  0  0
 27 28  1  0  0  0
 27 61  1  0  0  0
 27 62  1  0  0  0
 28 29  1  0  0  0
 28 63  1  0  0  0
 28 64  1  0  0  0
 29 30  1  0  0  0
 29 65  1  0  0  0
 29 66  1  0  0  0
 30 67  1  0  0  0
 30 68  1  0  0  0
 31 32  1  0  0  0
 31 69  1  0  0  0
 32 33  2  0  0  0
 32 34  1  0  0  0
 34 70  1  0  0  0
 34 71  1  0  0  0
 34 72  1  0  0  0
 35 73  1  0  0  0
 35 74  1  0  0  0
 35 75  1  0  0  0
M  END
> <i_i_glide_confnum>
638

> <i_i_glide_lignum>
5151

> <i_i_glide_posenum>
278

> <i_i_glide_rotatable_bonds>
8

> <i_m_Source_File_Index>
4318

> <b_m_subgroup_collapsed>
0

> <r_i_docking_score>
-4.27205

> <r_i_glide_ecoul>
-2.24659

> <r_i_glide_eff_state_penalty>
0

> <r_i_glide_einternal>
5.37756

> <r_i_glide_emodel>
-48.3345

> <r_i_glide_energy>
-40.0378

> <r_i_glide_erotb>
0.488749

> <r_i_glide_esite>
-0.000181489

> <r_i_glide_evdw>
-37.7912

> <r_i_glide_gscore>
-4.27205

> <r_i_glide_hbond>
0

> <r_i_glide_ligand_efficiency>
-0.122058

> <r_i_glide_ligand_efficiency_ln>
-0.937809

> <r_i_glide_ligand_efficiency_sa>
-0.399261

> <r_i_glide_lipo>
-2.14475

> <r_i_glide_metal>
0

> <r_i_glide_rewards>
-0.389313

> <s_i_glide_gridfile>
wee1_glide-grid

> <s_m_Source_File>
wee1_decoys_glide_SP.sdf

> <s_m_Source_Path>
/Users/zhangxujun/Desktop

> <s_m_entry_id>
4593

> <s_m_entry_name>
wee1_decoys_glide_SP.4318

> <s_m_subgroup_title>
wee1_decoys_glide_SP

> <s_m_subgroupid>
wee1_decoys_glide_SP


$$$$
