ZINC38644092_4243
                    3D
 Schrodinger Suite 2024-2.
 61 65  0  0  1  0            999 V2000
    1.0125   52.7517   27.2428 C   0  0  0  0  0  0
    2.3795   53.2345   27.7170 C   0  0  0  0  0  0
    2.6677   53.1996   29.0818 C   0  0  0  0  0  0
    3.9048   53.6362   29.5471 C   0  0  0  0  0  0
    4.8698   54.1075   28.6542 C   0  0  0  0  0  0
    4.6098   54.1301   27.2784 C   0  0  0  0  0  0
    3.3548   53.6960   26.8201 C   0  0  0  0  0  0
    3.0389   53.7026   25.4751 O   0  0  0  0  0  0
    3.9680   54.0968   24.5622 C   0  0  0  0  0  0
    5.2019   54.5349   24.9231 C   0  0  0  0  0  0
    5.6383   54.5928   26.3051 C   0  0  0  0  0  0
    6.7538   54.9840   26.6389 O   0  0  0  0  0  0
    3.5210   54.0165   23.1804 C   0  0  0  0  0  0
    2.3349   54.1832   22.8830 O   0  0  0  0  0  0
    4.4944   53.7075   22.2913 N   0  0  0  0  0  0
    4.3096   53.5582   20.9272 C   0  0  0  0  0  0
    3.3928   52.7826   20.1852 C   0  0  0  0  0  0
    3.5930   52.9652   18.7819 C   0  0  0  0  0  0
    4.6542   53.8494   18.5101 C   0  0  0  0  0  0
    5.3806   54.4851   19.9407 S   0  0  0  0  0  0
    5.1389   54.2430   17.1192 C   0  0  0  0  0  0
    4.6868   53.1580   16.1162 C   0  0  1  0  0  0
    5.2355   52.2357   16.3192 H   0  0  0  0  0  0
    3.1739   52.9256   16.2778 C   0  0  0  0  0  0
    2.8237   52.2824   17.6371 C   0  0  0  0  0  0
    5.0398   53.5742   14.6779 C   0  0  0  0  0  0
    2.4801   51.8208   20.7825 C   0  0  0  0  0  0
    2.7818   51.1832   21.7943 O   0  0  0  0  0  0
    1.2883   51.7071   20.1705 N   0  0  0  0  0  0
    0.1891   50.8205   20.5467 C   0  0  1  0  0  0
    0.4399   50.3699   21.5159 H   0  0  0  0  0  0
   -1.1404   51.5942   20.6854 C   0  0  0  0  0  0
   -1.6533   51.9294   19.2728 C   0  0  0  0  0  0
   -1.1578   50.4557   18.2278 S   0  0  0  0  0  0
   -0.3983   50.9340   17.0715 O   0  0  0  0  0  0
   -2.3086   49.5699   18.0451 O   0  0  0  0  0  0
   -0.0090   49.7111   19.5069 C   0  0  0  0  0  0
    0.8644   51.7093   27.5330 H   0  0  0  0  0  0
    0.2213   53.3329   27.7189 H   0  0  0  0  0  0
    0.8817   52.8223   26.1633 H   0  0  0  0  0  0
    1.9298   52.8336   29.7817 H   0  0  0  0  0  0
    4.1258   53.5979   30.5999 H   0  0  0  0  0  0
    5.8259   54.4482   29.0343 H   0  0  0  0  0  0
    5.9090   54.8651   24.1780 H   0  0  0  0  0  0
    5.4427   53.7071   22.6272 H   0  0  0  0  0  0
    4.7201   55.2143   16.8472 H   0  0  0  0  0  0
    6.2259   54.3516   17.1016 H   0  0  0  0  0  0
    2.6262   53.8560   16.1115 H   0  0  0  0  0  0
    2.8242   52.2605   15.4870 H   0  0  0  0  0  0
    3.0747   51.2216   17.6154 H   0  0  0  0  0  0
    1.7466   52.3542   17.7618 H   0  0  0  0  0  0
    4.5355   54.4968   14.3880 H   0  0  0  0  0  0
    6.1120   53.7348   14.5656 H   0  0  0  0  0  0
    4.7523   52.8011   13.9639 H   0  0  0  0  0  0
    1.1151   52.3365   19.4019 H   0  0  0  0  0  0
   -1.0148   52.4852   21.3014 H   0  0  0  0  0  0
   -1.8639   50.9674   21.2114 H   0  0  0  0  0  0
   -1.0991   52.7868   18.8884 H   0  0  0  0  0  0
   -2.7165   52.1265   19.1564 H   0  0  0  0  0  0
   -0.5715   48.9040   19.9759 H   0  0  0  0  0  0
    0.8781   49.2901   19.0333 H   0  0  0  0  0  0
  1  2  1  0  0  0
  1 38  1  0  0  0
  1 39  1  0  0  0
  1 40  1  0  0  0
  2  7  2  0  0  0
  2  3  1  0  0  0
  3  4  2  0  0  0
  3 41  1  0  0  0
  4  5  1  0  0  0
  4 42  1  0  0  0
  5  6  2  0  0  0
  5 43  1  0  0  0
  6 11  1  0  0  0
  6  7  1  0  0  0
  7  8  1  0  0  0
  8  9  1  0  0  0
  9 10  2  0  0  0
  9 13  1  0  0  0
 10 11  1  0  0  0
 10 44  1  0  0  0
 11 12  2  0  0  0
 13 14  2  0  0  0
 13 15  1  0  0  0
 15 16  1  0  0  0
 15 45  1  0  0  0
 16 20  1  0  0  0
 16 17  2  0  0  0
 17 18  1  0  0  0
 17 27  1  0  0  0
 18 25  1  0  0  0
 18 19  2  0  0  0
 19 20  1  0  0  0
 19 21  1  0  0  0
 21 22  1  0  0  0
 21 46  1  0  0  0
 21 47  1  0  0  0
 22 23  1  0  0  0
 22 24  1  0  0  0
 22 26  1  0  0  0
 24 25  1  0  0  0
 24 48  1  0  0  0
 24 49  1  0  0  0
 25 50  1  0  0  0
 25 51  1  0  0  0
 26 52  1  0  0  0
 26 53  1  0  0  0
 26 54  1  0  0  0
 27 28  2  0  0  0
 27 29  1  0  0  0
 29 30  1  0  0  0
 29 55  1  0  0  0
 30 31  1  0  0  0
 30 37  1  0  0  0
 30 32  1  0  0  0
 32 33  1  0  0  0
 32 56  1  0  0  0
 32 57  1  0  0  0
 33 34  1  0  0  0
 33 58  1  0  0  0
 33 59  1  0  0  0
 34 35  2  0  0  0
 34 36  2  0  0  0
 34 37  1  0  0  0
 37 60  1  0  0  0
 37 61  1  0  0  0
M  END
> <i_i_glide_confnum>
91

> <i_i_glide_lignum>
4244

> <i_i_glide_posenum>
393

> <i_i_glide_rotatable_bonds>
6

> <i_m_Source_File_Index>
4156

> <b_m_subgroup_collapsed>
0

> <r_i_docking_score>
-5.13882

> <r_i_glide_ecoul>
-0.450382

> <r_i_glide_eff_state_penalty>
0

> <r_i_glide_einternal>
13.2834

> <r_i_glide_emodel>
-57.9933

> <r_i_glide_energy>
-45.8131

> <r_i_glide_erotb>
0.464762

> <r_i_glide_esite>
-0.0149018

> <r_i_glide_evdw>
-45.3627

> <r_i_glide_gscore>
-5.13882

> <r_i_glide_hbond>
-0.278666

> <r_i_glide_ligand_efficiency>
-0.146824

> <r_i_glide_ligand_efficiency_ln>
-1.12809

> <r_i_glide_ligand_efficiency_sa>
-0.48027

> <r_i_glide_lipo>
-2.19029

> <r_i_glide_metal>
0

> <r_i_glide_rewards>
-0.784033

> <s_i_glide_gridfile>
wee1_glide-grid

> <s_m_Source_File>
wee1_decoys_glide_SP.sdf

> <s_m_Source_Path>
/Users/zhangxujun/Desktop

> <s_m_entry_id>
4431

> <s_m_entry_name>
wee1_decoys_glide_SP.4156

> <s_m_subgroup_title>
wee1_decoys_glide_SP

> <s_m_subgroupid>
wee1_decoys_glide_SP


$$$$
