ZINC63473004_1259
                    3D
 Schrodinger Suite 2024-2.
 67 73  0  0  1  0            999 V2000
    0.8784   48.4326   20.0829 C   0  0  0  0  0  0
    0.6752   49.7539   20.8068 C   0  0  0  0  0  0
   -0.6214   50.1993   21.0933 C   0  0  0  0  0  0
   -0.8227   51.4060   21.7710 C   0  0  0  0  0  0
    0.2712   52.1827   22.1573 C   0  0  0  0  0  0
    1.5643   51.7597   21.8517 C   0  0  0  0  0  0
    1.7502   50.5502   21.2143 C   0  0  0  0  0  0
    3.1044   50.3164   21.1091 N   0  0  0  0  0  0
    3.8624   51.2966   21.6350 C   0  0  0  0  0  0
    5.0909   51.3461   21.6816 O   0  0  0  0  0  0
    2.9046   52.4141   22.0777 C   0  0  1  0  0  0
    3.2179   53.6883   21.2875 C   0  0  1  0  0  0
    2.2538   54.0967   21.2818 H   0  0  0  0  0  0
    4.0772   54.5493   22.1311 C   0  0  1  0  0  0
    3.5246   55.4730   22.2694 H   0  0  0  0  0  0
    4.2401   53.8106   23.4618 C   0  0  2  0  0  0
    5.1597   53.2197   23.4485 H   0  0  0  0  0  0
    3.1044   52.8967   23.4529 N   0  0  0  0  0  0
    4.3154   54.7621   24.6759 C   0  0  0  0  0  0
    4.6232   54.1379   26.0267 C   0  0  0  0  0  0
    3.8058   53.7335   27.0169 C   0  0  0  0  0  0
    2.3379   53.6801   27.0888 C   0  0  0  0  0  0
    1.7179   53.2244   28.1956 C   0  0  0  0  0  0
    2.5438   52.7903   29.3140 C   0  0  0  0  0  0
    3.9020   52.8402   29.2685 C   0  0  0  0  0  0
    4.5548   53.3173   28.1232 C   0  0  0  0  0  0
    5.8380   53.4546   27.8868 N   0  3  0  0  0  0
    6.0446   53.9999   26.5331 C   0  0  0  0  0  0
    5.3564   54.7412   21.3226 C   0  0  0  0  0  0
    6.3680   55.2986   21.7499 O   0  0  0  0  0  0
    5.1229   54.2752   20.0663 N   0  0  0  0  0  0
    3.9047   53.6928   19.9099 C   0  0  0  0  0  0
    3.3927   53.2543   18.8813 O   0  0  0  0  0  0
    6.0944   54.4731   18.9667 C   0  0  0  0  0  0
    6.4032   53.2374   18.0751 C   0  0  0  0  0  0
    7.4785   53.5119   17.0085 C   0  0  0  0  0  0
    7.1331   54.7438   16.1553 C   0  0  0  0  0  0
    6.9010   55.9857   17.0323 C   0  0  0  0  0  0
    5.8366   55.7479   18.1216 C   0  0  0  0  0  0
   -2.4235   51.9481   22.1199 Cl  0  0  0  0  0  0
    0.0171   47.7748   20.1940 H   0  0  0  0  0  0
    1.0610   48.6050   19.0227 H   0  0  0  0  0  0
    1.7383   47.8997   20.4867 H   0  0  0  0  0  0
   -1.4756   49.6093   20.7951 H   0  0  0  0  0  0
    0.1126   53.1095   22.6854 H   0  0  0  0  0  0
    3.5033   49.4761   20.7159 H   0  0  0  0  0  0
    2.2702   53.3924   23.7263 H   0  0  0  0  0  0
    3.3700   55.2965   24.7641 H   0  0  0  0  0  0
    5.0821   55.5168   24.4941 H   0  0  0  0  0  0
    1.7217   53.9913   26.2579 H   0  0  0  0  0  0
    0.6395   53.1728   28.2502 H   0  0  0  0  0  0
    2.0555   52.4144   30.2025 H   0  0  0  0  0  0
    4.4638   52.4976   30.1254 H   0  0  0  0  0  0
    6.5694   54.9507   26.6288 H   0  0  0  0  0  0
    6.6491   53.2937   25.9635 H   0  0  0  0  0  0
    7.0499   54.6647   19.4603 H   0  0  0  0  0  0
    6.7042   52.3924   18.6902 H   0  0  0  0  0  0
    5.5015   52.9123   17.5553 H   0  0  0  0  0  0
    8.4441   53.6609   17.4950 H   0  0  0  0  0  0
    7.5945   52.6358   16.3688 H   0  0  0  0  0  0
    7.9323   54.9386   15.4392 H   0  0  0  0  0  0
    6.2378   54.5393   15.5656 H   0  0  0  0  0  0
    7.8420   56.2708   17.5049 H   0  0  0  0  0  0
    6.6098   56.8318   16.4085 H   0  0  0  0  0  0
    4.8602   55.6641   17.6416 H   0  0  0  0  0  0
    5.7895   56.6251   18.7691 H   0  0  0  0  0  0
    6.5883   53.2255   28.5337 H   0  0  0  0  0  0
  1  2  1  0  0  0
  1 41  1  0  0  0
  1 42  1  0  0  0
  1 43  1  0  0  0
  2  7  2  0  0  0
  2  3  1  0  0  0
  3  4  2  0  0  0
  3 44  1  0  0  0
  4  5  1  0  0  0
  4 40  1  0  0  0
  5  6  2  0  0  0
  5 45  1  0  0  0
  6 11  1  0  0  0
  6  7  1  0  0  0
  7  8  1  0  0  0
  8  9  1  0  0  0
  8 46  1  0  0  0
  9 10  2  0  0  0
  9 11  1  0  0  0
 11 18  1  0  0  0
 11 12  1  0  0  0
 12 13  1  0  0  0
 12 32  1  0  0  0
 12 14  1  0  0  0
 14 15  1  0  0  0
 14 16  1  0  0  0
 14 29  1  0  0  0
 16 17  1  0  0  0
 16 18  1  0  0  0
 16 19  1  0  0  0
 18 47  1  0  0  0
 19 20  1  0  0  0
 19 48  1  0  0  0
 19 49  1  0  0  0
 20 28  1  0  0  0
 20 21  2  0  0  0
 21 26  1  0  0  0
 21 22  1  0  0  0
 22 23  2  0  0  0
 22 50  1  0  0  0
 23 24  1  0  0  0
 23 51  1  0  0  0
 24 25  2  0  0  0
 24 52  1  0  0  0
 25 26  1  0  0  0
 25 53  1  0  0  0
 26 27  2  0  0  0
 27 28  1  0  0  0
 27 67  1  0  0  0
 28 54  1  0  0  0
 28 55  1  0  0  0
 29 30  2  0  0  0
 29 31  1  0  0  0
 31 32  1  0  0  0
 31 34  1  0  0  0
 32 33  2  0  0  0
 34 39  1  0  0  0
 34 35  1  0  0  0
 34 56  1  0  0  0
 35 36  1  0  0  0
 35 57  1  0  0  0
 35 58  1  0  0  0
 36 37  1  0  0  0
 36 59  1  0  0  0
 36 60  1  0  0  0
 37 38  1  0  0  0
 37 61  1  0  0  0
 37 62  1  0  0  0
 38 39  1  0  0  0
 38 63  1  0  0  0
 38 64  1  0  0  0
 39 65  1  0  0  0
 39 66  1  0  0  0
M  CHG  1  27   1
M  END
> <i_i_glide_confnum>
123

> <i_i_glide_lignum>
1260

> <i_i_glide_posenum>
312

> <i_i_glide_rotatable_bonds>
3

> <i_m_Source_File_Index>
6044

> <b_m_subgroup_collapsed>
0

> <r_i_docking_score>
-3.92317

> <r_i_glide_ecoul>
0.512081

> <r_i_glide_eff_state_penalty>
0

> <r_i_glide_einternal>
9.83714

> <r_i_glide_emodel>
-24.7209

> <r_i_glide_energy>
-23.1474

> <r_i_glide_erotb>
0.229577

> <r_i_glide_esite>
-0.0168156

> <r_i_glide_evdw>
-23.6595

> <r_i_glide_gscore>
-3.92317

> <r_i_glide_hbond>
-0.303535

> <r_i_glide_ligand_efficiency>
-0.106032

> <r_i_glide_ligand_efficiency_ln>
-0.850844

> <r_i_glide_ligand_efficiency_sa>
-0.353321

> <r_i_glide_lipo>
-2.45372

> <r_i_glide_metal>
0

> <r_i_glide_rewards>
-0.272518

> <s_i_glide_gridfile>
wee1_glide-grid

> <s_m_Source_File>
wee1_decoys_glide_SP.sdf

> <s_m_Source_Path>
/Users/zhangxujun/Desktop

> <s_m_entry_id>
6319

> <s_m_entry_name>
wee1_decoys_glide_SP.6044

> <s_m_subgroup_title>
wee1_decoys_glide_SP

> <s_m_subgroupid>
wee1_decoys_glide_SP


$$$$
