ZINC34933283_3431
                    3D
 Schrodinger Suite 2024-2.
 66 70  0  0  1  0            999 V2000
    3.7812   53.6818   28.9302 C   0  0  0  0  0  0
    4.4621   54.0924   27.6413 C   0  0  0  0  0  0
    5.8549   54.0863   27.5630 C   0  0  0  0  0  0
    6.4797   54.4445   26.3717 C   0  0  0  0  0  0
    5.7298   54.8361   25.2623 C   0  0  0  0  0  0
    4.3391   54.8903   25.3649 C   0  0  0  0  0  0
    3.7033   54.4965   26.5419 C   0  0  0  0  0  0
    6.4370   55.1766   23.9440 C   0  0  0  0  0  0
    5.9098   54.5854   22.6844 N   0  0  0  0  0  0
    5.4861   53.1662   22.7873 C   0  0  0  0  0  0
    4.2133   52.7675   22.0398 C   0  0  0  0  0  0
    2.9606   53.1481   22.5252 C   0  0  0  0  0  0
    1.8074   52.7943   21.8366 C   0  0  0  0  0  0
    1.9032   52.0578   20.6564 C   0  0  0  0  0  0
    3.1474   51.6208   20.1945 C   0  0  0  0  0  0
    4.3005   51.9644   20.8952 C   0  0  0  0  0  0
    0.4370   51.7296   19.6935 S   0  0  0  0  0  0
    0.5699   50.3948   19.1096 O   0  0  0  0  0  0
   -0.7304   52.0954   20.5050 O   0  0  0  0  0  0
    0.5499   52.8912   18.4025 N   0  0  0  0  0  0
    6.2131   55.2133   21.5022 C   0  0  0  0  0  0
    6.8122   56.2873   21.4384 O   0  0  0  0  0  0
    5.7792   54.5997   20.3826 N   0  0  0  0  0  0
    6.0061   54.9454   18.9734 C   0  0  0  0  0  0
    5.4097   53.8084   18.0861 C   0  0  0  0  0  0
    5.5969   54.0987   16.5755 C   0  0  2  0  0  0
    7.1079   54.2236   16.2634 C   0  0  0  0  0  0
    7.7166   55.3750   17.1009 C   0  0  2  0  0  0
    7.5238   55.0720   18.6086 C   0  0  0  0  0  0
    6.9992   56.7068   16.7493 C   0  0  0  0  0  0
    5.4858   56.5814   17.0574 C   0  0  1  0  0  0
    4.8793   55.4260   16.2206 C   0  0  0  0  0  0
    5.2884   56.2731   18.5661 C   0  0  0  0  0  0
    4.3276   54.0640   29.7935 H   0  0  0  0  0  0
    2.7667   54.0834   28.9952 H   0  0  0  0  0  0
    3.7410   52.5931   29.0027 H   0  0  0  0  0  0
    6.4516   53.7828   28.4132 H   0  0  0  0  0  0
    7.5479   54.4000   26.3168 H   0  0  0  0  0  0
    3.7514   55.2372   24.5300 H   0  0  0  0  0  0
    2.6244   54.5024   26.5997 H   0  0  0  0  0  0
    6.4364   56.2672   23.8761 H   0  0  0  0  0  0
    7.4902   54.8940   24.0187 H   0  0  0  0  0  0
    6.3041   52.5187   22.4815 H   0  0  0  0  0  0
    5.3203   52.8968   23.8257 H   0  0  0  0  0  0
    2.8623   53.7202   23.4301 H   0  0  0  0  0  0
    0.8480   53.1234   22.2079 H   0  0  0  0  0  0
    3.2300   51.0410   19.2825 H   0  0  0  0  0  0
    5.2616   51.6390   20.5213 H   0  0  0  0  0  0
    0.6688   53.8442   18.7619 H   0  0  0  0  0  0
    1.2896   52.6625   17.7361 H   0  0  0  0  0  0
    5.2173   53.7740   20.5196 H   0  0  0  0  0  0
    5.8770   52.8530   18.3323 H   0  0  0  0  0  0
    4.3462   53.6816   18.3018 H   0  0  0  0  0  0
    5.1669   53.2809   15.9943 H   0  0  0  0  0  0
    7.6180   53.2832   16.4858 H   0  0  0  0  0  0
    7.2600   54.4043   15.1980 H   0  0  0  0  0  0
    8.7807   55.4662   16.8779 H   0  0  0  0  0  0
    7.9975   55.8629   19.1918 H   0  0  0  0  0  0
    8.0527   54.1547   18.8735 H   0  0  0  0  0  0
    7.4327   57.5337   17.3136 H   0  0  0  0  0  0
    7.1496   56.9512   15.6978 H   0  0  0  0  0  0
    4.9828   57.5172   16.8092 H   0  0  0  0  0  0
    4.9748   55.6366   15.1552 H   0  0  0  0  0  0
    3.8086   55.3408   16.4155 H   0  0  0  0  0  0
    4.2215   56.2045   18.7914 H   0  0  0  0  0  0
    5.6632   57.1103   19.1604 H   0  0  0  0  0  0
  1  2  1  0  0  0
  1 34  1  0  0  0
  1 35  1  0  0  0
  1 36  1  0  0  0
  2  7  2  0  0  0
  2  3  1  0  0  0
  3  4  2  0  0  0
  3 37  1  0  0  0
  4  5  1  0  0  0
  4 38  1  0  0  0
  5  6  2  0  0  0
  5  8  1  0  0  0
  6  7  1  0  0  0
  6 39  1  0  0  0
  7 40  1  0  0  0
  8  9  1  0  0  0
  8 41  1  0  0  0
  8 42  1  0  0  0
  9 10  1  0  0  0
  9 21  1  0  0  0
 10 11  1  0  0  0
 10 43  1  0  0  0
 10 44  1  0  0  0
 11 16  2  0  0  0
 11 12  1  0  0  0
 12 13  2  0  0  0
 12 45  1  0  0  0
 13 14  1  0  0  0
 13 46  1  0  0  0
 14 15  2  0  0  0
 14 17  1  0  0  0
 15 16  1  0  0  0
 15 47  1  0  0  0
 16 48  1  0  0  0
 17 18  2  0  0  0
 17 19  2  0  0  0
 17 20  1  0  0  0
 20 49  1  0  0  0
 20 50  1  0  0  0
 21 22  2  0  0  0
 21 23  1  0  0  0
 23 24  1  0  0  0
 23 51  1  0  0  0
 24 29  1  0  0  0
 24 33  1  0  0  0
 24 25  1  0  0  0
 25 26  1  0  0  0
 25 52  1  0  0  0
 25 53  1  0  0  0
 26 32  1  0  0  0
 26 27  1  0  0  0
 26 54  1  0  0  0
 27 28  1  0  0  0
 27 55  1  0  0  0
 27 56  1  0  0  0
 28 29  1  0  0  0
 28 30  1  0  0  0
 28 57  1  0  0  0
 29 58  1  0  0  0
 29 59  1  0  0  0
 30 31  1  0  0  0
 30 60  1  0  0  0
 30 61  1  0  0  0
 31 32  1  0  0  0
 31 33  1  0  0  0
 31 62  1  0  0  0
 32 63  1  0  0  0
 32 64  1  0  0  0
 33 65  1  0  0  0
 33 66  1  0  0  0
M  END
> <i_i_glide_confnum>
10

> <i_i_glide_lignum>
3432

> <i_i_glide_posenum>
232

> <i_i_glide_rotatable_bonds>
8

> <i_m_Source_File_Index>
3161

> <b_m_subgroup_collapsed>
0

> <r_i_docking_score>
-6.00552

> <r_i_glide_ecoul>
-4.9732

> <r_i_glide_eff_state_penalty>
0

> <r_i_glide_einternal>
6.92464

> <r_i_glide_emodel>
-56.7442

> <r_i_glide_energy>
-43.0259

> <r_i_glide_erotb>
0.553808

> <r_i_glide_esite>
-0.062354

> <r_i_glide_evdw>
-38.0527

> <r_i_glide_gscore>
-6.00552

> <r_i_glide_hbond>
-0.414061

> <r_i_glide_ligand_efficiency>
-0.181985

> <r_i_glide_ligand_efficiency_ln>
-1.3356

> <r_i_glide_ligand_efficiency_sa>
-0.583724

> <r_i_glide_lipo>
-2.9089

> <r_i_glide_metal>
0

> <r_i_glide_rewards>
-0.525392

> <s_i_glide_gridfile>
wee1_glide-grid

> <s_m_Source_File>
wee1_decoys_glide_SP.sdf

> <s_m_Source_Path>
/Users/zhangxujun/Desktop

> <s_m_entry_id>
3436

> <s_m_entry_name>
wee1_decoys_glide_SP.3161

> <s_m_subgroup_title>
wee1_decoys_glide_SP

> <s_m_subgroupid>
wee1_decoys_glide_SP


$$$$
