ZINC04453458_4705
                    3D
 Schrodinger Suite 2024-2.
 37 39  0  0  1  0            999 V2000
    4.2008   51.9033   31.2408 C   0  0  0  0  0  0
    3.8894   52.3257   29.8026 C   0  0  0  0  0  0
    4.8969   53.3138   29.1714 C   0  0  0  0  0  0
    4.6787   53.6914   27.7115 C   0  0  0  0  0  0
    3.5543   53.5359   26.8585 C   0  0  0  0  0  0
    3.9697   54.1175   25.6799 C   0  0  0  0  0  0
    5.2464   54.5444   25.8475 N   0  0  0  0  0  0
    5.8137   54.9881   25.1404 H   0  0  0  0  0  0
    5.6831   54.2874   27.0832 N   0  0  0  0  0  0
    3.2800   54.2590   24.5051 O   0  0  0  0  0  0
    2.0379   53.6982   24.5350 C   0  0  0  0  0  0
    1.4461   53.0945   25.6010 C   0  0  0  0  0  0
    2.1269   52.9804   26.9807 C   0  0  2  0  0  0
    2.2195   51.9115   27.1773 H   0  0  0  0  0  0
    1.3207   53.5068   28.1786 C   0  0  0  0  0  0
    0.4904   52.6151   28.8767 C   0  0  0  0  0  0
   -0.0084   52.9471   30.1360 C   0  0  0  0  0  0
    0.3043   54.1795   30.7068 C   0  0  0  0  0  0
    1.0696   55.1026   29.9965 C   0  0  0  0  0  0
    1.5531   54.7812   28.7286 C   0  0  0  0  0  0
    2.3045   55.6962   28.0821 F   0  0  0  0  0  0
    0.1583   52.4966   25.4411 C   0  0  0  0  0  0
   -0.8952   52.0452   25.2867 N   0  0  0  0  0  0
    1.5057   53.8358   23.2829 N   0  0  0  0  0  0
    3.3968   51.2967   31.6557 H   0  0  0  0  0  0
    5.1043   51.3050   31.2817 H   0  0  0  0  0  0
    4.3046   52.7674   31.8983 H   0  0  0  0  0  0
    2.9285   52.8042   29.8802 H   0  0  0  0  0  0
    3.7637   51.4416   29.1793 H   0  0  0  0  0  0
    5.8994   52.8974   29.2682 H   0  0  0  0  0  0
    4.8930   54.2343   29.7571 H   0  0  0  0  0  0
    0.2910   51.6270   28.4853 H   0  0  0  0  0  0
   -0.6081   52.2324   30.6831 H   0  0  0  0  0  0
   -0.0678   54.4255   31.6903 H   0  0  0  0  0  0
    1.2922   56.0681   30.4248 H   0  0  0  0  0  0
    0.6007   53.4457   23.0685 H   0  0  0  0  0  0
    2.0990   54.0836   22.5038 H   0  0  0  0  0  0
  1  2  1  0  0  0
  1 25  1  0  0  0
  1 26  1  0  0  0
  1 27  1  0  0  0
  2  3  1  0  0  0
  2 28  1  0  0  0
  2 29  1  0  0  0
  3  4  1  0  0  0
  3 30  1  0  0  0
  3 31  1  0  0  0
  4  9  2  0  0  0
  4  5  1  0  0  0
  5 13  1  0  0  0
  5  6  2  0  0  0
  6  7  1  0  0  0
  6 10  1  0  0  0
  7  8  1  0  0  0
  7  9  1  0  0  0
 10 11  1  0  0  0
 11 12  2  0  0  0
 11 24  1  0  0  0
 12 13  1  0  0  0
 12 22  1  0  0  0
 13 14  1  0  0  0
 13 15  1  0  0  0
 15 20  2  0  0  0
 15 16  1  0  0  0
 16 17  2  0  0  0
 16 32  1  0  0  0
 17 18  1  0  0  0
 17 33  1  0  0  0
 18 19  2  0  0  0
 18 34  1  0  0  0
 19 20  1  0  0  0
 19 35  1  0  0  0
 20 21  1  0  0  0
 22 23  3  0  0  0
 24 36  1  0  0  0
 24 37  1  0  0  0
M  END
> <i_i_glide_confnum>
6

> <i_i_glide_lignum>
4706

> <i_i_glide_posenum>
338

> <i_i_glide_rotatable_bonds>
4

> <i_m_Source_File_Index>
1087

> <b_m_subgroup_collapsed>
0

> <r_i_docking_score>
-5.81896

> <r_i_glide_ecoul>
-0.0323557

> <r_i_glide_eff_state_penalty>
0

> <r_i_glide_einternal>
6.50848

> <r_i_glide_emodel>
-42.7997

> <r_i_glide_energy>
-34.2632

> <r_i_glide_erotb>
0.412377

> <r_i_glide_esite>
0

> <r_i_glide_evdw>
-34.2308

> <r_i_glide_gscore>
-5.81896

> <r_i_glide_hbond>
0

> <r_i_glide_ligand_efficiency>
-0.264498

> <r_i_glide_ligand_efficiency_ln>
-1.42237

> <r_i_glide_ligand_efficiency_sa>
-0.741135

> <r_i_glide_lipo>
-2.98473

> <r_i_glide_metal>
0

> <r_i_glide_rewards>
-1.53022

> <s_i_glide_gridfile>
wee1_glide-grid

> <s_m_Source_File>
wee1_decoys_glide_SP.sdf

> <s_m_Source_Path>
/Users/zhangxujun/Desktop

> <s_m_entry_id>
1362

> <s_m_entry_name>
wee1_decoys_glide_SP.1087

> <s_m_subgroup_title>
wee1_decoys_glide_SP

> <s_m_subgroupid>
wee1_decoys_glide_SP


$$$$
