ZINC39694883_1248
                    3D
 Schrodinger Suite 2024-2.
 66 69  0  0  1  0            999 V2000
    3.3530   52.7639   29.0221 C   0  0  0  0  0  0
    3.7319   53.3834   27.6881 C   0  0  0  0  0  0
    5.0383   53.8238   27.4558 C   0  0  0  0  0  0
    5.3839   54.3834   26.2230 C   0  0  0  0  0  0
    4.4192   54.4947   25.2190 C   0  0  0  0  0  0
    3.1115   54.0489   25.4369 C   0  0  0  0  0  0
    2.7698   53.5093   26.6820 C   0  0  0  0  0  0
    2.0407   54.2611   24.3714 C   0  0  0  0  0  0
    1.7507   53.1184   23.5107 N   0  0  0  0  0  0
    2.5771   52.5384   22.6240 C   0  0  0  0  0  0
    3.7425   52.8981   22.4713 O   0  0  0  0  0  0
    2.0631   51.3032   21.8302 C   0  0  1  0  0  0
    2.7576   50.4923   22.0544 H   0  0  0  0  0  0
    0.6396   50.8587   22.2351 C   0  0  0  0  0  0
   -0.2257   51.6015   21.3117 N   0  0  0  0  0  0
    0.5239   52.1500   20.1738 C   0  0  0  0  0  0
    1.9481   51.5516   20.2909 C   0  0  0  0  0  0
    2.0577   50.1780   19.5559 C   0  0  0  0  0  0
    1.7314   50.2792   18.0501 C   0  0  0  0  0  0
    2.7043   51.2969   17.4179 N   0  3  0  0  0  0
    2.7815   52.6639   18.1280 C   0  0  0  0  0  0
    3.0591   52.4132   19.6196 C   0  0  0  0  0  0
   -1.5742   51.6960   21.3897 C   0  0  0  0  0  0
   -2.2655   52.0956   20.4513 O   0  0  0  0  0  0
   -2.2458   51.3663   22.6980 C   0  0  0  0  0  0
   -3.2978   50.4456   22.7414 C   0  0  0  0  0  0
   -3.9609   50.1823   23.9420 C   0  0  0  0  0  0
   -3.5897   50.8519   25.1153 C   0  0  0  0  0  0
   -2.5538   51.7949   25.0706 C   0  0  0  0  0  0
   -1.8881   52.0446   23.8704 C   0  0  0  0  0  0
   -2.0963   52.6863   26.4795 Cl  0  0  0  0  0  0
   -4.2717   50.6124   26.2850 O   0  0  0  0  0  0
   -3.6298   49.6985   27.1675 C   0  0  0  0  0  0
   -5.2493   49.0306   23.9546 Cl  0  0  0  0  0  0
    6.8002   54.8585   25.9639 C   0  0  0  0  0  0
    2.4829   53.2741   29.4381 H   0  0  0  0  0  0
    3.0845   51.7157   28.8848 H   0  0  0  0  0  0
    4.1638   52.8276   29.7497 H   0  0  0  0  0  0
    5.7853   53.7296   28.2312 H   0  0  0  0  0  0
    4.6851   54.9284   24.2655 H   0  0  0  0  0  0
    1.7580   53.1781   26.8674 H   0  0  0  0  0  0
    1.1064   54.4966   24.8789 H   0  0  0  0  0  0
    2.2800   55.1345   23.7634 H   0  0  0  0  0  0
    0.8243   52.7346   23.5912 H   0  0  0  0  0  0
    0.5314   49.7890   22.0444 H   0  0  0  0  0  0
    0.4325   50.9868   23.2968 H   0  0  0  0  0  0
    0.6252   53.2225   20.3413 H   0  0  0  0  0  0
    0.0713   52.0129   19.1937 H   0  0  0  0  0  0
    3.0369   49.7196   19.7107 H   0  0  0  0  0  0
    1.3430   49.4701   19.9744 H   0  0  0  0  0  0
    1.9088   49.3359   17.5288 H   0  0  0  0  0  0
    0.7200   50.6092   17.8202 H   0  0  0  0  0  0
    3.6232   50.8485   17.4451 H   0  0  0  0  0  0
    3.5930   53.2111   17.6454 H   0  0  0  0  0  0
    1.8390   53.1812   17.9414 H   0  0  0  0  0  0
    3.1022   53.4001   20.0818 H   0  0  0  0  0  0
    4.0481   51.9764   19.7708 H   0  0  0  0  0  0
   -3.6098   49.9307   21.8429 H   0  0  0  0  0  0
   -1.1120   52.7958   23.8547 H   0  0  0  0  0  0
   -4.2668   49.5107   28.0320 H   0  0  0  0  0  0
   -3.4352   48.7379   26.6879 H   0  0  0  0  0  0
   -2.6846   50.0969   27.5367 H   0  0  0  0  0  0
    7.4968   54.5017   26.7251 H   0  0  0  0  0  0
    6.8282   55.9481   25.9274 H   0  0  0  0  0  0
    7.1514   54.4845   25.0002 H   0  0  0  0  0  0
    2.5023   51.4086   16.4345 H   0  0  0  0  0  0
  1  2  1  0  0  0
  1 36  1  0  0  0
  1 37  1  0  0  0
  1 38  1  0  0  0
  2  7  2  0  0  0
  2  3  1  0  0  0
  3  4  2  0  0  0
  3 39  1  0  0  0
  4  5  1  0  0  0
  4 35  1  0  0  0
  5  6  2  0  0  0
  5 40  1  0  0  0
  6  7  1  0  0  0
  6  8  1  0  0  0
  7 41  1  0  0  0
  8  9  1  0  0  0
  8 42  1  0  0  0
  8 43  1  0  0  0
  9 10  1  0  0  0
  9 44  1  0  0  0
 10 11  2  0  0  0
 10 12  1  0  0  0
 12 13  1  0  0  0
 12 17  1  0  0  0
 12 14  1  0  0  0
 14 15  1  0  0  0
 14 45  1  0  0  0
 14 46  1  0  0  0
 15 16  1  0  0  0
 15 23  1  0  0  0
 16 17  1  0  0  0
 16 47  1  0  0  0
 16 48  1  0  0  0
 17 22  1  0  0  0
 17 18  1  0  0  0
 18 19  1  0  0  0
 18 49  1  0  0  0
 18 50  1  0  0  0
 19 20  1  0  0  0
 19 51  1  0  0  0
 19 52  1  0  0  0
 20 21  1  0  0  0
 20 53  1  0  0  0
 20 66  1  0  0  0
 21 22  1  0  0  0
 21 54  1  0  0  0
 21 55  1  0  0  0
 22 56  1  0  0  0
 22 57  1  0  0  0
 23 24  2  0  0  0
 23 25  1  0  0  0
 25 30  2  0  0  0
 25 26  1  0  0  0
 26 27  2  0  0  0
 26 58  1  0  0  0
 27 28  1  0  0  0
 27 34  1  0  0  0
 28 29  2  0  0  0
 28 32  1  0  0  0
 29 30  1  0  0  0
 29 31  1  0  0  0
 30 59  1  0  0  0
 32 33  1  0  0  0
 33 60  1  0  0  0
 33 61  1  0  0  0
 33 62  1  0  0  0
 35 63  1  0  0  0
 35 64  1  0  0  0
 35 65  1  0  0  0
M  CHG  1  20   1
M  END
> <i_i_glide_confnum>
283

> <i_i_glide_lignum>
1249

> <i_i_glide_posenum>
337

> <i_i_glide_rotatable_bonds>
7

> <i_m_Source_File_Index>
4732

> <b_m_subgroup_collapsed>
0

> <r_i_docking_score>
-5.47231

> <r_i_glide_ecoul>
-7.92026

> <r_i_glide_eff_state_penalty>
0

> <r_i_glide_einternal>
8.991

> <r_i_glide_emodel>
-56.5095

> <r_i_glide_energy>
-42.5405

> <r_i_glide_erotb>
0.480343

> <r_i_glide_esite>
-0.122463

> <r_i_glide_evdw>
-34.6202

> <r_i_glide_gscore>
-5.47231

> <r_i_glide_hbond>
-0.624017

> <r_i_glide_ligand_efficiency>
-0.16095

> <r_i_glide_ligand_efficiency_ln>
-1.20899

> <r_i_glide_ligand_efficiency_sa>
-0.521417

> <r_i_glide_lipo>
-2.11494

> <r_i_glide_metal>
0

> <r_i_glide_rewards>
-0.172188

> <s_i_glide_gridfile>
wee1_glide-grid

> <s_m_Source_File>
wee1_decoys_glide_SP.sdf

> <s_m_Source_Path>
/Users/zhangxujun/Desktop

> <s_m_entry_id>
5007

> <s_m_entry_name>
wee1_decoys_glide_SP.4732

> <s_m_subgroup_title>
wee1_decoys_glide_SP

> <s_m_subgroupid>
wee1_decoys_glide_SP


$$$$
