ZINC42427718_1846
                    3D
 Schrodinger Suite 2024-2.
 38 40  0  0  1  0            999 V2000
   -2.7403   51.7992   23.6372 C   0  0  0  0  0  0
   -2.9709   50.3019   23.9385 C   0  0  2  0  0  0
   -3.4137   49.8794   23.0340 H   0  0  0  0  0  0
   -4.0218   50.1380   25.0772 C   0  0  0  0  0  0
   -4.3278   48.6749   25.4535 C   0  0  0  0  0  0
   -2.9852   47.9606   25.6584 C   0  0  2  0  0  0
   -2.4486   48.4293   26.4813 H   0  0  0  0  0  0
   -2.1333   48.0627   24.3771 C   0  0  0  0  0  0
   -1.7553   49.4668   24.1395 N   0  0  0  0  0  0
   -0.6075   49.7493   23.4010 C   0  0  0  0  0  0
    0.2976   50.6423   23.9853 C   0  0  0  0  0  0
    1.4556   51.0685   23.3413 C   0  0  0  0  0  0
    1.7063   50.5717   22.0610 C   0  0  0  0  0  0
    0.8057   49.6702   21.4302 C   0  0  0  0  0  0
   -0.3749   49.2602   22.0925 C   0  0  0  0  0  0
   -1.2859   48.4129   21.4356 N   0  0  0  0  0  0
    1.1848   49.2832   20.1762 N   0  0  0  0  0  0
    2.3064   49.8421   19.8244 C   0  0  0  0  0  0
    3.0559   50.9067   20.9841 S   0  0  0  0  0  0
   -3.1703   46.4879   26.0727 C   0  0  0  0  0  0
   -3.6948   45.6964   25.2936 O   0  0  0  0  0  0
   -2.7554   46.0966   27.2804 N   0  0  0  0  0  0
   -3.6796   52.3040   23.4134 H   0  0  0  0  0  0
   -2.2887   52.3064   24.4899 H   0  0  0  0  0  0
   -2.0878   51.9468   22.7770 H   0  0  0  0  0  0
   -4.9587   50.6126   24.7845 H   0  0  0  0  0  0
   -3.6621   50.6530   25.9693 H   0  0  0  0  0  0
   -4.8902   48.2432   24.6233 H   0  0  0  0  0  0
   -4.9209   48.6977   26.3696 H   0  0  0  0  0  0
   -1.2404   47.4397   24.4668 H   0  0  0  0  0  0
   -2.6991   47.6975   23.5186 H   0  0  0  0  0  0
    0.0902   51.0206   24.9770 H   0  0  0  0  0  0
    2.1321   51.7652   23.8153 H   0  0  0  0  0  0
   -1.1189   48.1621   20.4712 H   0  0  0  0  0  0
   -2.1669   48.2045   21.8843 H   0  0  0  0  0  0
    2.7781   49.6655   18.8668 H   0  0  0  0  0  0
   -2.2715   46.7781   27.8684 H   0  0  0  0  0  0
   -2.8948   45.1486   27.6176 H   0  0  0  0  0  0
  1  2  1  0  0  0
  1 23  1  0  0  0
  1 24  1  0  0  0
  1 25  1  0  0  0
  2  3  1  0  0  0
  2  9  1  0  0  0
  2  4  1  0  0  0
  4  5  1  0  0  0
  4 26  1  0  0  0
  4 27  1  0  0  0
  5  6  1  0  0  0
  5 28  1  0  0  0
  5 29  1  0  0  0
  6  7  1  0  0  0
  6  8  1  0  0  0
  6 20  1  0  0  0
  8  9  1  0  0  0
  8 30  1  0  0  0
  8 31  1  0  0  0
  9 10  1  0  0  0
 10 15  2  0  0  0
 10 11  1  0  0  0
 11 12  2  0  0  0
 11 32  1  0  0  0
 12 13  1  0  0  0
 12 33  1  0  0  0
 13 19  1  0  0  0
 13 14  2  0  0  0
 14 15  1  0  0  0
 14 17  1  0  0  0
 15 16  1  0  0  0
 16 34  1  0  0  0
 16 35  1  0  0  0
 17 18  2  0  0  0
 18 19  1  0  0  0
 18 36  1  0  0  0
 20 21  2  0  0  0
 20 22  1  0  0  0
 22 37  1  0  0  0
 22 38  1  0  0  0
M  END
> <i_i_glide_confnum>
2

> <i_i_glide_lignum>
1847

> <i_i_glide_posenum>
400

> <i_i_glide_rotatable_bonds>
2

> <i_m_Source_File_Index>
5435

> <b_m_subgroup_collapsed>
0

> <r_i_docking_score>
-4.67399

> <r_i_glide_ecoul>
-9.41142

> <r_i_glide_eff_state_penalty>
0

> <r_i_glide_einternal>
0.42588

> <r_i_glide_emodel>
-40.1639

> <r_i_glide_energy>
-29.1601

> <r_i_glide_erotb>
0.216122

> <r_i_glide_esite>
-0.211892

> <r_i_glide_evdw>
-19.7487

> <r_i_glide_gscore>
-4.67399

> <r_i_glide_hbond>
-0.456

> <r_i_glide_ligand_efficiency>
-0.2337

> <r_i_glide_ligand_efficiency_ln>
-1.16975

> <r_i_glide_ligand_efficiency_sa>
-0.634358

> <r_i_glide_lipo>
-0.39388

> <r_i_glide_metal>
0

> <r_i_glide_rewards>
-1.42919

> <s_i_glide_gridfile>
wee1_glide-grid

> <s_m_Source_File>
wee1_decoys_glide_SP.sdf

> <s_m_Source_Path>
/Users/zhangxujun/Desktop

> <s_m_entry_id>
5710

> <s_m_entry_name>
wee1_decoys_glide_SP.5435

> <s_m_subgroup_title>
wee1_decoys_glide_SP

> <s_m_subgroupid>
wee1_decoys_glide_SP


$$$$
