ZINC05010614_4815
                    3D
 Schrodinger Suite 2024-2.
 38 41  0  0  1  0            999 V2000
    5.1075   54.1943   20.1940 C   0  0  0  0  0  0
    6.3021   54.9189   20.2110 C   0  0  0  0  0  0
    6.9091   55.2967   21.4121 C   0  0  0  0  0  0
    6.2741   54.9214   22.6031 C   0  0  0  0  0  0
    5.0472   54.2063   22.5969 C   0  0  0  0  0  0
    4.4635   53.8299   21.3780 C   0  0  0  0  0  0
    4.5111   53.9731   23.8249 N   0  0  0  0  0  0
    5.2553   54.4524   24.7884 C   0  0  0  0  0  0
    6.7044   55.2834   24.2628 S   0  0  0  0  0  0
    4.9149   54.3178   26.2190 C   0  0  0  0  0  0
    5.7893   54.4987   27.3072 C   0  0  0  0  0  0
    5.0707   54.2717   28.4559 C   0  0  0  0  0  0
    3.7820   53.9182   28.1475 N   0  0  0  0  0  0
    3.6698   53.9686   26.7649 C   0  0  0  0  0  0
    2.4835   53.6964   26.1347 N   0  0  0  0  0  0
    2.7676   53.5608   29.1524 C   0  0  0  0  0  0
    1.5841   54.5413   29.2442 C   0  0  0  0  0  0
    0.4277   53.6666   29.7348 C   0  0  0  0  0  0
    0.6361   52.3330   29.0162 C   0  0  0  0  0  0
    2.1577   52.1526   28.9534 C   0  0  0  0  0  0
    7.1042   54.8683   27.2820 O   0  0  0  0  0  0
    4.6696   53.9168   19.2449 H   0  0  0  0  0  0
    6.7666   55.1869   19.2720 H   0  0  0  0  0  0
    7.8352   55.8547   21.4232 H   0  0  0  0  0  0
    3.5293   53.2879   21.3513 H   0  0  0  0  0  0
    5.3862   54.3289   29.4858 H   0  0  0  0  0  0
    2.4285   53.6898   25.1258 H   0  0  0  0  0  0
    1.6597   53.4092   26.6447 H   0  0  0  0  0  0
    3.2902   53.5453   30.1110 H   0  0  0  0  0  0
    1.7821   55.3754   29.9180 H   0  0  0  0  0  0
    1.3206   54.9524   28.2676 H   0  0  0  0  0  0
    0.4859   53.5253   30.8159 H   0  0  0  0  0  0
   -0.5474   54.0969   29.5140 H   0  0  0  0  0  0
    0.1379   51.5065   29.5274 H   0  0  0  0  0  0
    0.2223   52.3835   28.0072 H   0  0  0  0  0  0
    2.4607   51.6705   28.0223 H   0  0  0  0  0  0
    2.4829   51.4945   29.7583 H   0  0  0  0  0  0
    7.2917   55.4269   28.0463 H   0  0  0  0  0  0
  1  6  2  0  0  0
  1  2  1  0  0  0
  1 22  1  0  0  0
  2  3  2  0  0  0
  2 23  1  0  0  0
  3  4  1  0  0  0
  3 24  1  0  0  0
  4  9  1  0  0  0
  4  5  2  0  0  0
  5  6  1  0  0  0
  5  7  1  0  0  0
  6 25  1  0  0  0
  7  8  2  0  0  0
  8  9  1  0  0  0
  8 10  1  0  0  0
 10 14  2  0  0  0
 10 11  1  0  0  0
 11 12  2  0  0  0
 11 21  1  0  0  0
 12 13  1  0  0  0
 12 26  1  0  0  0
 13 14  1  0  0  0
 13 16  1  0  0  0
 14 15  1  0  0  0
 15 27  1  0  0  0
 15 28  1  0  0  0
 16 20  1  0  0  0
 16 17  1  0  0  0
 16 29  1  0  0  0
 17 18  1  0  0  0
 17 30  1  0  0  0
 17 31  1  0  0  0
 18 19  1  0  0  0
 18 32  1  0  0  0
 18 33  1  0  0  0
 19 20  1  0  0  0
 19 34  1  0  0  0
 19 35  1  0  0  0
 20 36  1  0  0  0
 20 37  1  0  0  0
 21 38  1  0  0  0
M  END
> <i_i_glide_confnum>
30

> <i_i_glide_lignum>
4816

> <i_i_glide_posenum>
357

> <i_i_glide_rotatable_bonds>
3

> <i_m_Source_File_Index>
2264

> <b_m_subgroup_collapsed>
0

> <r_i_docking_score>
-7.84777

> <r_i_glide_ecoul>
-3.79296

> <r_i_glide_eff_state_penalty>
0

> <r_i_glide_einternal>
1.94365

> <r_i_glide_emodel>
-63.0623

> <r_i_glide_energy>
-43.5706

> <r_i_glide_erotb>
0.409786

> <r_i_glide_esite>
0

> <r_i_glide_evdw>
-39.7777

> <r_i_glide_gscore>
-7.84777

> <r_i_glide_hbond>
-0.49505

> <r_i_glide_ligand_efficiency>
-0.373703

> <r_i_glide_ligand_efficiency_ln>
-1.94035

> <r_i_glide_ligand_efficiency_sa>
-1.03102

> <r_i_glide_lipo>
-3.44605

> <r_i_glide_metal>
0

> <r_i_glide_rewards>
-1.75863

> <s_i_glide_gridfile>
wee1_glide-grid

> <s_m_Source_File>
wee1_decoys_glide_SP.sdf

> <s_m_Source_Path>
/Users/zhangxujun/Desktop

> <s_m_entry_id>
2539

> <s_m_entry_name>
wee1_decoys_glide_SP.2264

> <s_m_subgroup_title>
wee1_decoys_glide_SP

> <s_m_subgroupid>
wee1_decoys_glide_SP


$$$$
