ZINC39686865_5461
                    3D
 Schrodinger Suite 2024-2.
 72 77  0  0  1  0            999 V2000
   -4.6447   48.9340   21.9081 C   0  0  0  0  0  0
   -3.3315   48.7075   21.1217 C   0  0  2  0  0  0
   -3.4282   49.2377   20.1717 H   0  0  0  0  0  0
   -3.1685   47.1942   20.8195 C   0  0  0  0  0  0
   -1.9501   46.7437   20.0036 C   0  0  0  0  0  0
   -1.2140   47.6316   19.2039 C   0  0  0  0  0  0
   -0.1222   47.1790   18.4616 C   0  0  0  0  0  0
    0.2363   45.8330   18.4977 C   0  0  0  0  0  0
   -0.4944   44.9408   19.2814 C   0  0  0  0  0  0
   -1.5764   45.3920   20.0358 C   0  0  0  0  0  0
   -2.2569   44.5071   20.8035 F   0  0  0  0  0  0
   -2.1279   49.2319   21.7813 N   0  0  0  0  0  0
   -1.9522   50.4082   22.4075 C   0  0  0  0  0  0
   -2.8338   51.2648   22.4795 O   0  0  0  0  0  0
   -0.5279   50.6628   22.9594 C   0  0  1  0  0  0
    0.1827   50.1532   22.3046 H   0  0  0  0  0  0
   -0.2574   52.1867   22.9174 C   0  0  0  0  0  0
    0.7409   52.3963   23.9650 N   0  0  0  0  0  0
    0.9460   51.1920   24.7663 C   0  0  0  0  0  0
   -0.2460   50.2660   24.4432 C   0  0  0  0  0  0
    0.1946   48.7998   24.7098 C   0  0  0  0  0  0
   -0.9508   47.7743   24.6646 C   0  0  0  0  0  0
   -2.0337   48.1813   25.6818 N   0  3  0  0  0  0
   -2.5556   49.6211   25.5174 C   0  0  0  0  0  0
   -1.3654   50.6052   25.4844 C   0  0  0  0  0  0
    1.4469   53.5512   24.0512 C   0  0  0  0  0  0
    1.2522   54.4964   23.2883 O   0  0  0  0  0  0
    2.5201   53.6898   25.0997 C   0  0  0  0  0  0
    2.1860   53.5689   26.4587 C   0  0  0  0  0  0
    3.1431   53.7677   27.4528 C   0  0  0  0  0  0
    4.4460   54.1167   27.1073 C   0  0  0  0  0  0
    4.7818   54.2560   25.7608 C   0  0  0  0  0  0
    3.8430   54.0289   24.7539 C   0  0  0  0  0  0
    4.5353   54.2206   23.4583 C   0  0  0  0  0  0
    4.1165   54.0961   22.1266 C   0  0  0  0  0  0
    4.9804   54.4355   21.0839 C   0  0  0  0  0  0
    6.2661   54.8969   21.3636 C   0  0  0  0  0  0
    6.7043   54.9759   22.6844 C   0  0  0  0  0  0
    5.8397   54.6290   23.7241 C   0  0  0  0  0  0
    6.0746   54.6561   25.1788 C   0  0  0  0  0  0
    7.1043   54.9604   25.7758 O   0  0  0  0  0  0
   -5.4797   48.4253   21.4237 H   0  0  0  0  0  0
   -4.5822   48.5404   22.9231 H   0  0  0  0  0  0
   -4.9273   49.9863   21.9483 H   0  0  0  0  0  0
   -4.0567   46.8221   20.3057 H   0  0  0  0  0  0
   -3.1321   46.6700   21.7778 H   0  0  0  0  0  0
   -1.4768   48.6768   19.1370 H   0  0  0  0  0  0
    0.4429   47.8713   17.8527 H   0  0  0  0  0  0
    1.0782   45.4845   17.9170 H   0  0  0  0  0  0
   -0.2151   43.8994   19.3117 H   0  0  0  0  0  0
   -1.3106   48.6510   21.6713 H   0  0  0  0  0  0
    0.0891   52.4907   21.9271 H   0  0  0  0  0  0
   -1.1320   52.7563   23.2379 H   0  0  0  0  0  0
    1.1040   51.3195   25.8365 H   0  0  0  0  0  0
    1.8561   50.7300   24.3819 H   0  0  0  0  0  0
    0.9909   48.5142   24.0212 H   0  0  0  0  0  0
    0.6544   48.7275   25.6984 H   0  0  0  0  0  0
   -1.4381   47.6968   23.6970 H   0  0  0  0  0  0
   -0.6168   46.7819   24.9647 H   0  0  0  0  0  0
   -2.8107   47.5375   25.6405 H   0  0  0  0  0  0
   -3.1758   49.6317   24.6243 H   0  0  0  0  0  0
   -3.2004   49.7968   26.3810 H   0  0  0  0  0  0
   -0.9363   50.5914   26.4890 H   0  0  0  0  0  0
   -1.7169   51.6302   25.3579 H   0  0  0  0  0  0
    1.1722   53.3423   26.7578 H   0  0  0  0  0  0
    2.8700   53.6715   28.4929 H   0  0  0  0  0  0
    5.1754   54.2881   27.8869 H   0  0  0  0  0  0
    3.1255   53.7591   21.8684 H   0  0  0  0  0  0
    4.6455   54.3518   20.0598 H   0  0  0  0  0  0
    6.9292   55.1732   20.5560 H   0  0  0  0  0  0
    7.7025   55.3319   22.8818 H   0  0  0  0  0  0
   -1.6726   48.0973   26.6383 H   0  0  0  0  0  0
  1  2  1  0  0  0
  1 42  1  0  0  0
  1 43  1  0  0  0
  1 44  1  0  0  0
  2  3  1  0  0  0
  2  4  1  0  0  0
  2 12  1  0  0  0
  4  5  1  0  0  0
  4 45  1  0  0  0
  4 46  1  0  0  0
  5 10  2  0  0  0
  5  6  1  0  0  0
  6  7  2  0  0  0
  6 47  1  0  0  0
  7  8  1  0  0  0
  7 48  1  0  0  0
  8  9  2  0  0  0
  8 49  1  0  0  0
  9 10  1  0  0  0
  9 50  1  0  0  0
 10 11  1  0  0  0
 12 13  1  0  0  0
 12 51  1  0  0  0
 13 14  2  0  0  0
 13 15  1  0  0  0
 15 16  1  0  0  0
 15 20  1  0  0  0
 15 17  1  0  0  0
 17 18  1  0  0  0
 17 52  1  0  0  0
 17 53  1  0  0  0
 18 19  1  0  0  0
 18 26  1  0  0  0
 19 20  1  0  0  0
 19 54  1  0  0  0
 19 55  1  0  0  0
 20 25  1  0  0  0
 20 21  1  0  0  0
 21 22  1  0  0  0
 21 56  1  0  0  0
 21 57  1  0  0  0
 22 23  1  0  0  0
 22 58  1  0  0  0
 22 59  1  0  0  0
 23 24  1  0  0  0
 23 60  1  0  0  0
 23 72  1  0  0  0
 24 25  1  0  0  0
 24 61  1  0  0  0
 24 62  1  0  0  0
 25 63  1  0  0  0
 25 64  1  0  0  0
 26 27  2  0  0  0
 26 28  1  0  0  0
 28 33  2  0  0  0
 28 29  1  0  0  0
 29 30  2  0  0  0
 29 65  1  0  0  0
 30 31  1  0  0  0
 30 66  1  0  0  0
 31 32  2  0  0  0
 31 67  1  0  0  0
 32 40  1  0  0  0
 32 33  1  0  0  0
 33 34  1  0  0  0
 34 39  2  0  0  0
 34 35  1  0  0  0
 35 36  2  0  0  0
 35 68  1  0  0  0
 36 37  1  0  0  0
 36 69  1  0  0  0
 37 38  2  0  0  0
 37 70  1  0  0  0
 38 39  1  0  0  0
 38 71  1  0  0  0
 39 40  1  0  0  0
 40 41  2  0  0  0
M  CHG  1  23   1
M  END
> <i_i_glide_confnum>
79

> <i_i_glide_lignum>
5462

> <i_i_glide_posenum>
50

> <i_i_glide_rotatable_bonds>
7

> <i_m_Source_File_Index>
3733

> <b_m_subgroup_collapsed>
0

> <r_i_docking_score>
-7.6191

> <r_i_glide_ecoul>
-9.10552

> <r_i_glide_eff_state_penalty>
0

> <r_i_glide_einternal>
4.11062

> <r_i_glide_emodel>
-74.8647

> <r_i_glide_energy>
-49.0347

> <r_i_glide_erotb>
0.445465

> <r_i_glide_esite>
-0.128301

> <r_i_glide_evdw>
-39.9292

> <r_i_glide_gscore>
-7.6191

> <r_i_glide_hbond>
-0.52

> <r_i_glide_ligand_efficiency>
-0.195361

> <r_i_glide_ligand_efficiency_ln>
-1.63375

> <r_i_glide_ligand_efficiency_sa>
-0.662512

> <r_i_glide_lipo>
-2.49154

> <r_i_glide_metal>
0

> <r_i_glide_rewards>
-1.56243

> <s_i_glide_gridfile>
wee1_glide-grid

> <s_m_Source_File>
wee1_decoys_glide_SP.sdf

> <s_m_Source_Path>
/Users/zhangxujun/Desktop

> <s_m_entry_id>
4008

> <s_m_entry_name>
wee1_decoys_glide_SP.3733

> <s_m_subgroup_title>
wee1_decoys_glide_SP

> <s_m_subgroupid>
wee1_decoys_glide_SP


$$$$
