ZINC36064710_5909
                    3D
 Schrodinger Suite 2024-2.
 63 66  0  0  1  0            999 V2000
   -2.3260   51.3094   28.3196 C   0  0  0  0  0  0
   -0.9349   51.7475   28.8360 C   0  0  0  0  0  0
    0.0840   52.1830   27.7660 C   0  0  0  0  0  0
    0.8853   53.2981   27.7201 C   0  0  0  0  0  0
    1.8329   53.5303   26.4767 C   0  0  2  0  0  0
    1.5351   54.4928   26.0543 H   0  0  0  0  0  0
    1.5060   52.5595   25.3665 N   0  0  0  0  0  0
    1.8893   52.5745   24.0103 C   0  0  0  0  0  0
    1.4999   51.4566   23.3671 C   0  0  0  0  0  0
    0.6253   50.3140   24.3558 S   0  0  0  0  0  0
    0.6981   51.4692   25.6917 C   0  0  0  0  0  0
    0.0971   51.2408   26.7851 N   0  0  0  0  0  0
    2.6363   53.6081   23.2959 C   0  0  0  0  0  0
    3.5157   53.4204   22.2821 C   0  0  0  0  0  0
    3.8928   52.3434   21.6828 O   0  5  0  0  0  0
    4.1692   54.4967   21.7276 N   0  0  0  0  0  0
    5.5770   54.5706   21.3290 C   0  0  0  0  0  0
    5.9565   55.9206   20.6857 C   0  0  2  0  0  0
    5.5642   56.7447   21.2778 H   0  0  0  0  0  0
    5.6507   56.0713   19.1953 C   0  0  0  0  0  0
    6.9020   55.5999   18.4769 C   0  0  0  0  0  0
    7.9732   55.5270   19.5646 C   0  0  0  0  0  0
    7.3710   56.0957   20.7287 O   0  0  0  0  0  0
    3.3528   53.7010   26.7893 C   0  0  0  0  0  0
    4.0801   54.5859   25.9759 C   0  0  0  0  0  0
    5.4451   54.8090   26.1507 C   0  0  0  0  0  0
    6.1056   54.1915   27.2049 C   0  0  0  0  0  0
    5.4048   53.3533   28.0645 C   0  0  0  0  0  0
    4.0435   53.0869   27.8663 C   0  0  0  0  0  0
    3.4054   52.0956   28.8329 C   0  0  0  0  0  0
    6.1960   55.6966   25.1773 C   0  0  0  0  0  0
    0.9401   54.2991   28.8212 C   0  0  0  0  0  0
    0.5081   54.1034   29.9561 O   0  0  0  0  0  0
    1.5609   55.4480   28.4781 O   0  0  0  0  0  0
    1.7417   56.4940   29.4239 C   0  0  0  0  0  0
   -2.9807   51.0348   29.1485 H   0  0  0  0  0  0
   -2.8136   52.0959   27.7482 H   0  0  0  0  0  0
   -2.2603   50.4422   27.6636 H   0  0  0  0  0  0
   -0.4943   50.9106   29.3772 H   0  0  0  0  0  0
   -1.1180   52.5060   29.5863 H   0  0  0  0  0  0
    1.6813   51.2274   22.3278 H   0  0  0  0  0  0
    2.4401   54.6253   23.5925 H   0  0  0  0  0  0
    3.8684   55.3768   22.1142 H   0  0  0  0  0  0
    5.8077   53.7477   20.6511 H   0  0  0  0  0  0
    6.1807   54.4085   22.2190 H   0  0  0  0  0  0
    5.4694   57.1230   18.9823 H   0  0  0  0  0  0
    4.7366   55.5540   18.8998 H   0  0  0  0  0  0
    7.1819   56.2920   17.6817 H   0  0  0  0  0  0
    6.7498   54.6204   18.0258 H   0  0  0  0  0  0
    8.8787   56.0769   19.3025 H   0  0  0  0  0  0
    8.2666   54.4967   19.7678 H   0  0  0  0  0  0
    3.5830   55.1289   25.1924 H   0  0  0  0  0  0
    7.1602   54.3571   27.3637 H   0  0  0  0  0  0
    5.9352   52.8943   28.8816 H   0  0  0  0  0  0
    4.1531   51.4369   29.2797 H   0  0  0  0  0  0
    2.8886   52.6016   29.6471 H   0  0  0  0  0  0
    2.7067   51.4353   28.3183 H   0  0  0  0  0  0
    7.2748   55.6021   25.2818 H   0  0  0  0  0  0
    5.9487   55.4021   24.1586 H   0  0  0  0  0  0
    5.9035   56.7393   25.2791 H   0  0  0  0  0  0
    2.3035   57.2970   28.9527 H   0  0  0  0  0  0
    0.7832   56.8947   29.7614 H   0  0  0  0  0  0
    2.3028   56.1533   30.2949 H   0  0  0  0  0  0
  1  2  1  0  0  0
  1 36  1  0  0  0
  1 37  1  0  0  0
  1 38  1  0  0  0
  2  3  1  0  0  0
  2 39  1  0  0  0
  2 40  1  0  0  0
  3 12  1  0  0  0
  3  4  2  0  0  0
  4  5  1  0  0  0
  4 32  1  0  0  0
  5  6  1  0  0  0
  5  7  1  0  0  0
  5 24  1  0  0  0
  7 11  1  0  0  0
  7  8  1  0  0  0
  8  9  2  0  0  0
  8 13  1  0  0  0
  9 10  1  0  0  0
  9 41  1  0  0  0
 10 11  1  0  0  0
 11 12  2  0  0  0
 13 14  2  0  0  0
 13 42  1  0  0  0
 14 15  1  0  0  0
 14 16  1  0  0  0
 16 17  1  0  0  0
 16 43  1  0  0  0
 17 18  1  0  0  0
 17 44  1  0  0  0
 17 45  1  0  0  0
 18 19  1  0  0  0
 18 23  1  0  0  0
 18 20  1  0  0  0
 20 21  1  0  0  0
 20 46  1  0  0  0
 20 47  1  0  0  0
 21 22  1  0  0  0
 21 48  1  0  0  0
 21 49  1  0  0  0
 22 23  1  0  0  0
 22 50  1  0  0  0
 22 51  1  0  0  0
 24 29  2  0  0  0
 24 25  1  0  0  0
 25 26  2  0  0  0
 25 52  1  0  0  0
 26 27  1  0  0  0
 26 31  1  0  0  0
 27 28  2  0  0  0
 27 53  1  0  0  0
 28 29  1  0  0  0
 28 54  1  0  0  0
 29 30  1  0  0  0
 30 55  1  0  0  0
 30 56  1  0  0  0
 30 57  1  0  0  0
 31 58  1  0  0  0
 31 59  1  0  0  0
 31 60  1  0  0  0
 32 33  2  0  0  0
 32 34  1  0  0  0
 34 35  1  0  0  0
 35 61  1  0  0  0
 35 62  1  0  0  0
 35 63  1  0  0  0
M  CHG  1  15  -1
M  END
> <i_i_glide_confnum>
683

> <i_i_glide_lignum>
5910

> <i_i_glide_posenum>
231

> <i_i_glide_rotatable_bonds>
8

> <i_m_Source_File_Index>
4076

> <b_m_subgroup_collapsed>
0

> <r_i_docking_score>
-6.59385

> <r_i_glide_ecoul>
0.749545

> <r_i_glide_eff_state_penalty>
0

> <r_i_glide_einternal>
13.0112

> <r_i_glide_emodel>
-58.5817

> <r_i_glide_energy>
-48.0534

> <r_i_glide_erotb>
0.459774

> <r_i_glide_esite>
0

> <r_i_glide_evdw>
-48.8029

> <r_i_glide_gscore>
-6.59385

> <r_i_glide_hbond>
-0.0998126

> <r_i_glide_ligand_efficiency>
-0.199814

> <r_i_glide_ligand_efficiency_ln>
-1.46644

> <r_i_glide_ligand_efficiency_sa>
-0.64091

> <r_i_glide_lipo>
-3.82016

> <r_i_glide_metal>
0

> <r_i_glide_rewards>
-0.805944

> <s_i_glide_gridfile>
wee1_glide-grid

> <s_m_Source_File>
wee1_decoys_glide_SP.sdf

> <s_m_Source_Path>
/Users/zhangxujun/Desktop

> <s_m_entry_id>
4351

> <s_m_entry_name>
wee1_decoys_glide_SP.4076

> <s_m_subgroup_title>
wee1_decoys_glide_SP

> <s_m_subgroupid>
wee1_decoys_glide_SP


$$$$
