ZINC63303182_141
                    3D
 Schrodinger Suite 2024-2.
 56 59  0  0  1  0            999 V2000
    5.3676   54.6446   26.8644 C   0  0  0  0  0  0
    6.1288   55.0710   25.7359 O   0  0  0  0  0  0
    5.7115   54.7271   24.4834 C   0  0  0  0  0  0
    6.5942   55.0439   23.3687 C   0  0  0  0  0  0
    6.3046   54.7187   22.0823 C   0  0  0  0  0  0
    5.1351   54.0200   21.7751 C   0  0  0  0  0  0
    4.7086   53.5696   20.6184 N   0  3  0  0  0  0
    3.4340   52.8582   20.7951 C   0  0  0  0  0  0
    3.1615   53.0712   22.2707 C   0  0  0  0  0  0
    4.2279   53.7128   22.7879 C   0  0  0  0  0  0
    4.5475   54.0967   24.1734 C   0  0  0  0  0  0
    1.8754   52.6109   22.9268 C   0  0  0  0  0  0
    1.7863   51.0884   23.1440 C   0  0  0  0  0  0
    0.5882   50.6502   23.8594 N   0  0  0  0  0  0
    0.2208   50.9924   25.1090 C   0  0  0  0  0  0
    0.8521   51.7920   25.7997 O   0  0  0  0  0  0
   -1.0430   50.3472   25.6950 C   0  0  0  0  0  0
   -2.0543   49.3756   24.5241 S   0  0  0  0  0  0
   -3.2363   48.5382   25.6389 C   0  0  1  0  0  0
   -3.0721   48.9689   26.6279 H   0  0  0  0  0  0
   -4.7173   48.8319   25.2773 C   0  0  0  0  0  0
   -5.4271   47.8535   24.3073 C   0  0  0  0  0  0
   -4.5647   47.3188   23.1650 C   0  0  0  0  0  0
   -4.9068   47.6031   21.8362 C   0  0  0  0  0  0
   -4.1112   47.1646   20.7831 C   0  0  0  0  0  0
   -2.9569   46.4394   21.0474 C   0  0  0  0  0  0
   -2.6097   46.1507   22.3644 C   0  0  0  0  0  0
   -3.3849   46.5799   23.4500 C   0  0  0  0  0  0
   -2.9938   46.1906   24.7475 N   0  0  0  0  0  0
   -2.8969   47.0425   25.6978 C   0  0  0  0  0  0
   -2.4942   46.4933   26.8817 O   0  0  0  0  0  0
    5.8635   54.9741   27.7787 H   0  0  0  0  0  0
    4.3659   55.0769   26.8635 H   0  0  0  0  0  0
    5.2899   53.5555   26.9069 H   0  0  0  0  0  0
    7.5037   55.5828   23.5806 H   0  0  0  0  0  0
    7.0078   54.9978   21.3102 H   0  0  0  0  0  0
    3.5909   51.8136   20.5218 H   0  0  0  0  0  0
    2.7043   53.2965   20.1197 H   0  0  0  0  0  0
    3.8639   53.8369   24.9680 H   0  0  0  0  0  0
    1.0385   52.9567   22.3184 H   0  0  0  0  0  0
    1.7959   53.1330   23.8791 H   0  0  0  0  0  0
    2.6673   50.7110   23.6678 H   0  0  0  0  0  0
    1.8062   50.5815   22.1777 H   0  0  0  0  0  0
   -0.0082   49.9876   23.3830 H   0  0  0  0  0  0
   -1.6644   51.1191   26.1481 H   0  0  0  0  0  0
   -0.7233   49.6935   26.5059 H   0  0  0  0  0  0
   -5.3042   48.8582   26.1980 H   0  0  0  0  0  0
   -4.7901   49.8464   24.8806 H   0  0  0  0  0  0
   -6.3230   48.3348   23.9104 H   0  0  0  0  0  0
   -5.8039   46.9894   24.8569 H   0  0  0  0  0  0
   -5.7951   48.1779   21.6161 H   0  0  0  0  0  0
   -4.3854   47.3943   19.7627 H   0  0  0  0  0  0
   -2.3287   46.1034   20.2354 H   0  0  0  0  0  0
   -1.7008   45.5987   22.5515 H   0  0  0  0  0  0
   -2.1442   47.1847   27.4797 H   0  0  0  0  0  0
    5.1865   53.6635   19.7255 H   0  0  0  0  0  0
  1  2  1  0  0  0
  1 32  1  0  0  0
  1 33  1  0  0  0
  1 34  1  0  0  0
  2  3  1  0  0  0
  3 11  2  0  0  0
  3  4  1  0  0  0
  4  5  2  0  0  0
  4 35  1  0  0  0
  5  6  1  0  0  0
  5 36  1  0  0  0
  6 10  1  0  0  0
  6  7  2  0  0  0
  7  8  1  0  0  0
  7 56  1  0  0  0
  8  9  1  0  0  0
  8 37  1  0  0  0
  8 38  1  0  0  0
  9 10  2  0  0  0
  9 12  1  0  0  0
 10 11  1  0  0  0
 11 39  1  0  0  0
 12 13  1  0  0  0
 12 40  1  0  0  0
 12 41  1  0  0  0
 13 14  1  0  0  0
 13 42  1  0  0  0
 13 43  1  0  0  0
 14 15  1  0  0  0
 14 44  1  0  0  0
 15 16  2  0  0  0
 15 17  1  0  0  0
 17 18  1  0  0  0
 17 45  1  0  0  0
 17 46  1  0  0  0
 18 19  1  0  0  0
 19 20  1  0  0  0
 19 30  1  0  0  0
 19 21  1  0  0  0
 21 22  1  0  0  0
 21 47  1  0  0  0
 21 48  1  0  0  0
 22 23  1  0  0  0
 22 49  1  0  0  0
 22 50  1  0  0  0
 23 28  2  0  0  0
 23 24  1  0  0  0
 24 25  2  0  0  0
 24 51  1  0  0  0
 25 26  1  0  0  0
 25 52  1  0  0  0
 26 27  2  0  0  0
 26 53  1  0  0  0
 27 28  1  0  0  0
 27 54  1  0  0  0
 28 29  1  0  0  0
 29 30  2  0  0  0
 30 31  1  0  0  0
 31 55  1  0  0  0
M  CHG  1   7   1
M  END
> <i_i_glide_confnum>
173

> <i_i_glide_lignum>
142

> <i_i_glide_posenum>
170

> <i_i_glide_rotatable_bonds>
9

> <i_m_Source_File_Index>
1934

> <b_m_subgroup_collapsed>
0

> <r_i_docking_score>
-5.59757

> <r_i_glide_ecoul>
-13.7383

> <r_i_glide_eff_state_penalty>
0

> <r_i_glide_einternal>
8.24603

> <r_i_glide_emodel>
-56.7478

> <r_i_glide_energy>
-41.613

> <r_i_glide_erotb>
0.770145

> <r_i_glide_esite>
-0.0921676

> <r_i_glide_evdw>
-27.8748

> <r_i_glide_gscore>
-5.59757

> <r_i_glide_hbond>
-0.215965

> <r_i_glide_ligand_efficiency>
-0.186586

> <r_i_glide_ligand_efficiency_ln>
-1.27183

> <r_i_glide_ligand_efficiency_sa>
-0.579765

> <r_i_glide_lipo>
-2.07017

> <r_i_glide_metal>
0

> <r_i_glide_rewards>
-0.534931

> <s_i_glide_gridfile>
wee1_glide-grid

> <s_m_Source_File>
wee1_decoys_glide_SP.sdf

> <s_m_Source_Path>
/Users/zhangxujun/Desktop

> <s_m_entry_id>
2209

> <s_m_entry_name>
wee1_decoys_glide_SP.1934

> <s_m_subgroup_title>
wee1_decoys_glide_SP

> <s_m_subgroupid>
wee1_decoys_glide_SP


$$$$
