ZINC08435189_4109
                    3D
 Schrodinger Suite 2024-2.
 50 53  0  0  1  0            999 V2000
    2.3044   55.8650   30.0817 C   0  0  0  0  0  0
    1.4127   56.2168   29.1215 C   0  0  0  0  0  0
    1.1041   55.2966   28.1560 C   0  0  0  0  0  0
    1.6793   54.0312   28.1104 C   0  0  0  0  0  0
    2.6439   53.7381   29.0448 C   0  0  0  0  0  0
    3.0261   54.6650   29.9991 C   0  0  0  0  0  0
    3.0422   52.3536   28.8819 C   0  0  0  0  0  0
    3.8339   51.6967   29.5540 O   0  0  0  0  0  0
    2.3044   51.8531   27.8576 O   0  0  0  0  0  0
    1.4297   52.8108   27.2475 C   0  0  0  0  0  0
    1.8891   53.0044   25.7673 C   0  0  0  0  0  0
    1.5044   52.0968   24.7644 C   0  0  0  0  0  0
    1.9041   52.2717   23.4393 C   0  0  0  0  0  0
    2.7089   53.3611   23.1011 C   0  0  0  0  0  0
    3.1190   54.2577   24.0816 C   0  0  0  0  0  0
    2.7291   54.0705   25.4023 C   0  0  0  0  0  0
    3.1075   53.6047   21.7830 N   0  0  0  0  0  0
    3.9045   52.8045   21.0414 C   0  0  0  0  0  0
    4.2933   51.6964   21.4201 O   0  0  0  0  0  0
    4.3036   53.3237   19.6441 C   0  0  0  0  0  0
    5.5246   52.8967   19.3251 F   0  0  0  0  0  0
    4.3044   54.6585   19.6139 F   0  0  0  0  0  0
    3.4321   52.8712   18.7427 F   0  0  0  0  0  0
   -0.0442   52.3553   27.4543 C   0  0  0  0  0  0
   -1.0271   52.4340   26.4530 C   0  0  0  0  0  0
   -2.2952   51.8895   26.6505 C   0  0  0  0  0  0
   -2.6148   51.2968   27.8783 C   0  0  0  0  0  0
   -1.6781   51.2967   28.9056 C   0  0  0  0  0  0
   -0.4052   51.8029   28.6915 C   0  0  0  0  0  0
   -3.8337   50.6607   28.1463 N   0  0  0  0  0  0
   -5.0557   50.9711   27.6607 C   0  0  0  0  0  0
   -5.2742   51.9467   26.9367 O   0  0  0  0  0  0
   -6.2362   50.0911   28.1190 C   0  0  0  0  0  0
   -6.9469   50.7597   29.0285 F   0  0  0  0  0  0
   -7.0253   49.8151   27.0789 F   0  0  0  0  0  0
   -5.8094   48.9468   28.6626 F   0  0  0  0  0  0
    2.3044   56.5477   30.9186 H   0  0  0  0  0  0
    0.8877   57.1563   29.1798 H   0  0  0  0  0  0
    0.3044   55.6643   27.5773 H   0  0  0  0  0  0
    3.8088   54.4117   30.6996 H   0  0  0  0  0  0
    0.9018   51.2348   25.0123 H   0  0  0  0  0  0
    1.5945   51.5636   22.6840 H   0  0  0  0  0  0
    3.7578   55.0895   23.8289 H   0  0  0  0  0  0
    3.1025   54.7699   26.1358 H   0  0  0  0  0  0
    2.8395   54.4961   21.3853 H   0  0  0  0  0  0
   -0.8184   52.8913   25.4985 H   0  0  0  0  0  0
   -3.0092   51.9128   25.8410 H   0  0  0  0  0  0
   -1.9122   50.8607   29.8674 H   0  0  0  0  0  0
    0.3073   51.7383   29.5000 H   0  0  0  0  0  0
   -3.7669   49.8959   28.8063 H   0  0  0  0  0  0
  1  6  2  0  0  0
  1  2  1  0  0  0
  1 37  1  0  0  0
  2  3  2  0  0  0
  2 38  1  0  0  0
  3  4  1  0  0  0
  3 39  1  0  0  0
  4 10  1  0  0  0
  4  5  2  0  0  0
  5  6  1  0  0  0
  5  7  1  0  0  0
  6 40  1  0  0  0
  7  8  2  0  0  0
  7  9  1  0  0  0
  9 10  1  0  0  0
 10 11  1  0  0  0
 10 24  1  0  0  0
 11 16  2  0  0  0
 11 12  1  0  0  0
 12 13  2  0  0  0
 12 41  1  0  0  0
 13 14  1  0  0  0
 13 42  1  0  0  0
 14 15  2  0  0  0
 14 17  1  0  0  0
 15 16  1  0  0  0
 15 43  1  0  0  0
 16 44  1  0  0  0
 17 18  1  0  0  0
 17 45  1  0  0  0
 18 19  2  0  0  0
 18 20  1  0  0  0
 20 21  1  0  0  0
 20 22  1  0  0  0
 20 23  1  0  0  0
 24 29  2  0  0  0
 24 25  1  0  0  0
 25 26  2  0  0  0
 25 46  1  0  0  0
 26 27  1  0  0  0
 26 47  1  0  0  0
 27 28  2  0  0  0
 27 30  1  0  0  0
 28 29  1  0  0  0
 28 48  1  0  0  0
 29 49  1  0  0  0
 30 31  1  0  0  0
 30 50  1  0  0  0
 31 32  2  0  0  0
 31 33  1  0  0  0
 33 34  1  0  0  0
 33 35  1  0  0  0
 33 36  1  0  0  0
M  END
> <i_i_glide_confnum>
35

> <i_i_glide_lignum>
4110

> <i_i_glide_posenum>
297

> <i_i_glide_rotatable_bonds>
8

> <i_m_Source_File_Index>
3154

> <b_m_subgroup_collapsed>
0

> <r_i_docking_score>
-3.0379

> <r_i_glide_ecoul>
-3.88192

> <r_i_glide_eff_state_penalty>
0

> <r_i_glide_einternal>
2.54744

> <r_i_glide_emodel>
-28.0632

> <r_i_glide_energy>
-24.3231

> <r_i_glide_erotb>
0.475303

> <r_i_glide_esite>
-0.2536

> <r_i_glide_evdw>
-20.4412

> <r_i_glide_gscore>
-3.0379

> <r_i_glide_hbond>
-0.393477

> <r_i_glide_ligand_efficiency>
-0.0843862

> <r_i_glide_ligand_efficiency_ln>
-0.662789

> <r_i_glide_ligand_efficiency_sa>
-0.278637

> <r_i_glide_lipo>
-2.06

> <r_i_glide_metal>
0

> <r_i_glide_rewards>
0.798212

> <s_i_glide_gridfile>
wee1_glide-grid

> <s_m_Source_File>
wee1_decoys_glide_SP.sdf

> <s_m_Source_Path>
/Users/zhangxujun/Desktop

> <s_m_entry_id>
3429

> <s_m_entry_name>
wee1_decoys_glide_SP.3154

> <s_m_subgroup_title>
wee1_decoys_glide_SP

> <s_m_subgroupid>
wee1_decoys_glide_SP


$$$$
