ZINC33721026_5618
                    3D
 Schrodinger Suite 2024-2.
 54 58  0  0  1  0            999 V2000
    1.1044   55.8529   30.5374 C   0  0  0  0  0  0
    0.7029   54.5266   30.6988 C   0  0  0  0  0  0
    1.0952   53.5700   29.7689 C   0  0  0  0  0  0
    1.8854   53.9387   28.6753 C   0  0  0  0  0  0
    2.2633   55.2791   28.5153 C   0  0  0  0  0  0
    1.8760   56.2340   29.4470 C   0  0  0  0  0  0
    2.3369   52.8455   27.7050 C   0  0  0  0  0  0
    2.9310   53.3042   26.4491 N   0  0  0  0  0  0
    4.2158   53.7873   26.2833 C   0  0  0  0  0  0
    5.2925   53.9891   27.1568 C   0  0  0  0  0  0
    6.4665   54.4976   26.5975 C   0  0  0  0  0  0
    6.5713   54.7923   25.2364 C   0  0  0  0  0  0
    5.4930   54.5935   24.3707 C   0  0  0  0  0  0
    4.2949   54.0972   24.9026 C   0  0  0  0  0  0
    3.1089   53.8339   24.2707 N   0  0  0  0  0  0
    2.3185   53.3700   25.2081 C   0  0  0  0  0  0
    0.6481   52.8966   24.9021 S   0  0  0  0  0  0
    0.9192   51.2452   24.2027 C   0  0  0  0  0  0
    0.7675   51.2016   22.6842 C   0  0  0  0  0  0
    0.0317   52.0079   22.1081 O   0  0  0  0  0  0
    1.4676   50.2287   22.0653 N   0  0  0  0  0  0
    1.5584   50.0772   20.6929 C   0  0  0  0  0  0
    1.4511   51.0334   19.7989 N   0  0  0  0  0  0
    1.6401   50.6153   18.5573 C   0  0  0  0  0  0
    1.9045   49.2428   18.4791 C   0  0  0  0  0  0
    1.9040   48.5114   20.0550 S   0  0  0  0  0  0
    1.5791   51.5983   17.4178 C   0  0  0  0  0  0
    1.9018   51.1922   16.1186 C   0  0  0  0  0  0
    1.8396   52.0876   15.0537 C   0  0  0  0  0  0
    1.4612   53.4193   15.2669 C   0  0  0  0  0  0
    1.1517   53.8327   16.5692 C   0  0  0  0  0  0
    1.2093   52.9325   17.6292 C   0  0  0  0  0  0
    1.3987   54.3772   14.1356 N   0  3  0  0  0  0
    1.0490   55.5315   14.3620 O   0  0  0  0  0  0
    1.6923   53.9786   13.0102 O   0  5  0  0  0  0
    0.8268   56.5882   31.2815 H   0  0  0  0  0  0
    0.1063   54.2378   31.5523 H   0  0  0  0  0  0
    0.7932   52.5398   29.9056 H   0  0  0  0  0  0
    2.8665   55.5939   27.6820 H   0  0  0  0  0  0
    2.1798   57.2646   29.3300 H   0  0  0  0  0  0
    1.5013   52.1834   27.4749 H   0  0  0  0  0  0
    3.0789   52.2220   28.2073 H   0  0  0  0  0  0
    5.2249   53.7626   28.2108 H   0  0  0  0  0  0
    7.3166   54.6627   27.2438 H   0  0  0  0  0  0
    7.5012   55.1744   24.8386 H   0  0  0  0  0  0
    5.5778   54.8256   23.3192 H   0  0  0  0  0  0
    0.1842   50.5687   24.6375 H   0  0  0  0  0  0
    1.9028   50.8780   24.4814 H   0  0  0  0  0  0
    1.8781   49.5016   22.6334 H   0  0  0  0  0  0
    2.1424   48.6543   17.6051 H   0  0  0  0  0  0
    2.2279   50.1794   15.9223 H   0  0  0  0  0  0
    2.0955   51.7371   14.0637 H   0  0  0  0  0  0
    0.8685   54.8565   16.7718 H   0  0  0  0  0  0
    0.9713   53.2925   18.6200 H   0  0  0  0  0  0
  1  6  2  0  0  0
  1  2  1  0  0  0
  1 36  1  0  0  0
  2  3  2  0  0  0
  2 37  1  0  0  0
  3  4  1  0  0  0
  3 38  1  0  0  0
  4  5  2  0  0  0
  4  7  1  0  0  0
  5  6  1  0  0  0
  5 39  1  0  0  0
  6 40  1  0  0  0
  7  8  1  0  0  0
  7 41  1  0  0  0
  7 42  1  0  0  0
  8 16  1  0  0  0
  8  9  1  0  0  0
  9 14  2  0  0  0
  9 10  1  0  0  0
 10 11  2  0  0  0
 10 43  1  0  0  0
 11 12  1  0  0  0
 11 44  1  0  0  0
 12 13  2  0  0  0
 12 45  1  0  0  0
 13 14  1  0  0  0
 13 46  1  0  0  0
 14 15  1  0  0  0
 15 16  2  0  0  0
 16 17  1  0  0  0
 17 18  1  0  0  0
 18 19  1  0  0  0
 18 47  1  0  0  0
 18 48  1  0  0  0
 19 20  2  0  0  0
 19 21  1  0  0  0
 21 22  1  0  0  0
 21 49  1  0  0  0
 22 26  1  0  0  0
 22 23  2  0  0  0
 23 24  1  0  0  0
 24 25  2  0  0  0
 24 27  1  0  0  0
 25 26  1  0  0  0
 25 50  1  0  0  0
 27 32  2  0  0  0
 27 28  1  0  0  0
 28 29  2  0  0  0
 28 51  1  0  0  0
 29 30  1  0  0  0
 29 52  1  0  0  0
 30 31  2  0  0  0
 30 33  1  0  0  0
 31 32  1  0  0  0
 31 53  1  0  0  0
 32 54  1  0  0  0
 33 34  2  0  0  0
 33 35  1  0  0  0
M  CHG  2  33   1  35  -1
M  END
> <i_i_glide_confnum>
72

> <i_i_glide_lignum>
5619

> <i_i_glide_posenum>
247

> <i_i_glide_rotatable_bonds>
9

> <i_m_Source_File_Index>
361

> <b_m_subgroup_collapsed>
0

> <r_i_docking_score>
-6.32867

> <r_i_glide_ecoul>
-4.06416

> <r_i_glide_eff_state_penalty>
0

> <r_i_glide_einternal>
8.65118

> <r_i_glide_emodel>
-68.603

> <r_i_glide_energy>
-49.3215

> <r_i_glide_erotb>
0.64956

> <r_i_glide_esite>
0

> <r_i_glide_evdw>
-45.2573

> <r_i_glide_gscore>
-6.32867

> <r_i_glide_hbond>
0

> <r_i_glide_ligand_efficiency>
-0.180819

> <r_i_glide_ligand_efficiency_ln>
-1.38928

> <r_i_glide_ligand_efficiency_sa>
-0.591472

> <r_i_glide_lipo>
-3.49273

> <r_i_glide_metal>
0

> <r_i_glide_rewards>
-0.613011

> <s_i_glide_gridfile>
wee1_glide-grid

> <s_m_Source_File>
wee1_decoys_glide_SP.sdf

> <s_m_Source_Path>
/Users/zhangxujun/Desktop

> <s_m_entry_id>
636

> <s_m_entry_name>
wee1_decoys_glide_SP.361

> <s_m_subgroup_title>
wee1_decoys_glide_SP

> <s_m_subgroupid>
wee1_decoys_glide_SP


$$$$
