ZINC65021468_1976
                    3D
 Schrodinger Suite 2024-2.
 49 52  0  0  1  0            999 V2000
    1.8017   52.4960   31.0678 C   0  0  0  0  0  0
    2.5928   53.0797   29.9152 C   0  0  0  0  0  0
    2.0136   54.0309   29.0815 C   0  0  0  0  0  0
    2.7563   54.5725   28.0376 C   0  0  0  0  0  0
    4.0873   54.2164   27.8005 C   0  0  0  0  0  0
    4.6495   53.2475   28.6475 C   0  0  0  0  0  0
    3.9061   52.6729   29.6816 C   0  0  0  0  0  0
    4.4590   51.7210   30.4666 F   0  0  0  0  0  0
    4.7113   54.8966   26.7837 N   0  5  0  0  0  0
    6.1056   54.5830   26.1405 S   0  0  0  0  0  0
    6.6997   53.2968   26.4818 O   0  0  0  0  0  0
    7.0303   55.7108   26.1458 O   0  0  0  0  0  0
    5.6421   54.4650   24.4031 C   0  0  0  0  0  0
    4.4087   53.9509   23.9854 C   0  0  0  0  0  0
    4.1092   53.8621   22.6262 C   0  0  0  0  0  0
    5.0292   54.3051   21.6754 C   0  0  0  0  0  0
    6.2554   54.8454   22.0829 C   0  0  0  0  0  0
    6.5601   54.8969   23.4416 C   0  0  0  0  0  0
    7.1985   55.3330   21.1758 N   0  0  0  0  0  0
    7.0729   55.6676   19.8784 C   0  0  0  0  0  0
    8.0396   56.1200   19.2696 O   0  0  0  0  0  0
    5.6384   55.4903   19.2971 C   0  0  2  0  0  0
    5.1052   56.4120   19.5247 H   0  0  0  0  0  0
    4.7041   54.0602   19.9637 S   0  0  0  0  0  0
    5.6102   55.3570   17.7501 C   0  0  0  0  0  0
    4.8466   56.1125   17.1435 O   0  0  0  0  0  0
    6.3727   54.4435   17.0840 N   0  0  0  0  0  0
    6.2780   54.2827   15.6252 C   0  0  0  0  0  0
    6.5785   52.7965   15.4432 C   0  0  0  0  0  0
    7.5963   52.5032   16.5261 C   0  0  0  0  0  0
    7.1275   53.3443   17.7112 C   0  0  0  0  0  0
    1.5042   51.4874   30.8052 H   0  0  0  0  0  0
    2.4112   52.4410   31.9704 H   0  0  0  0  0  0
    0.9153   53.0857   31.3055 H   0  0  0  0  0  0
    0.9923   54.3500   29.2331 H   0  0  0  0  0  0
    2.2847   55.2965   27.3970 H   0  0  0  0  0  0
    5.6721   52.9300   28.5363 H   0  0  0  0  0  0
    3.6908   53.5971   24.7115 H   0  0  0  0  0  0
    3.1686   53.4344   22.3101 H   0  0  0  0  0  0
    7.5042   55.3091   23.7608 H   0  0  0  0  0  0
    8.1235   55.5327   21.5274 H   0  0  0  0  0  0
    7.0741   54.8485   15.1393 H   0  0  0  0  0  0
    5.2898   54.5045   15.2184 H   0  0  0  0  0  0
    6.9320   52.5596   14.4388 H   0  0  0  0  0  0
    5.6735   52.2087   15.6134 H   0  0  0  0  0  0
    7.6761   51.4440   16.7752 H   0  0  0  0  0  0
    8.5841   52.8367   16.2028 H   0  0  0  0  0  0
    6.4738   52.7235   18.3256 H   0  0  0  0  0  0
    7.9924   53.6908   18.2772 H   0  0  0  0  0  0
  1  2  1  0  0  0
  1 32  1  0  0  0
  1 33  1  0  0  0
  1 34  1  0  0  0
  2  7  2  0  0  0
  2  3  1  0  0  0
  3  4  2  0  0  0
  3 35  1  0  0  0
  4  5  1  0  0  0
  4 36  1  0  0  0
  5  6  2  0  0  0
  5  9  1  0  0  0
  6  7  1  0  0  0
  6 37  1  0  0  0
  7  8  1  0  0  0
  9 10  1  0  0  0
 10 11  2  0  0  0
 10 12  2  0  0  0
 10 13  1  0  0  0
 13 18  2  0  0  0
 13 14  1  0  0  0
 14 15  2  0  0  0
 14 38  1  0  0  0
 15 16  1  0  0  0
 15 39  1  0  0  0
 16 24  1  0  0  0
 16 17  2  0  0  0
 17 18  1  0  0  0
 17 19  1  0  0  0
 18 40  1  0  0  0
 19 20  1  0  0  0
 19 41  1  0  0  0
 20 21  2  0  0  0
 20 22  1  0  0  0
 22 23  1  0  0  0
 22 24  1  0  0  0
 22 25  1  0  0  0
 25 26  2  0  0  0
 25 27  1  0  0  0
 27 31  1  0  0  0
 27 28  1  0  0  0
 28 29  1  0  0  0
 28 42  1  0  0  0
 28 43  1  0  0  0
 29 30  1  0  0  0
 29 44  1  0  0  0
 29 45  1  0  0  0
 30 31  1  0  0  0
 30 46  1  0  0  0
 30 47  1  0  0  0
 31 48  1  0  0  0
 31 49  1  0  0  0
M  CHG  1   9  -1
M  END
> <i_i_glide_confnum>
17

> <i_i_glide_lignum>
1977

> <i_i_glide_posenum>
35

> <i_i_glide_rotatable_bonds>
5

> <i_m_Source_File_Index>
2667

> <b_m_subgroup_collapsed>
0

> <r_i_docking_score>
-6.0592

> <r_i_glide_ecoul>
-7.30852

> <r_i_glide_eff_state_penalty>
0

> <r_i_glide_einternal>
6.97997

> <r_i_glide_emodel>
-57.2224

> <r_i_glide_energy>
-46.0797

> <r_i_glide_erotb>
0.497937

> <r_i_glide_esite>
-0.0280698

> <r_i_glide_evdw>
-38.7712

> <r_i_glide_gscore>
-6.0592

> <r_i_glide_hbond>
0

> <r_i_glide_ligand_efficiency>
-0.201973

> <r_i_glide_ligand_efficiency_ln>
-1.37672

> <r_i_glide_ligand_efficiency_sa>
-0.627578

> <r_i_glide_lipo>
-2.8304

> <r_i_glide_metal>
0

> <r_i_glide_rewards>
-0.663821

> <s_i_glide_gridfile>
wee1_glide-grid

> <s_m_Source_File>
wee1_decoys_glide_SP.sdf

> <s_m_Source_Path>
/Users/zhangxujun/Desktop

> <s_m_entry_id>
2942

> <s_m_entry_name>
wee1_decoys_glide_SP.2667

> <s_m_subgroup_title>
wee1_decoys_glide_SP

> <s_m_subgroupid>
wee1_decoys_glide_SP


$$$$
