ZINC40752195_3946
                    3D
 Schrodinger Suite 2024-2.
 40 43  0  0  1  0            999 V2000
    4.4278   54.2716   29.1145 C   0  0  0  0  0  0
    3.4787   53.4826   29.7523 C   0  0  0  0  0  0
    2.4028   52.9387   29.0169 C   0  0  0  0  0  0
    1.3642   52.1984   29.6337 C   0  0  0  0  0  0
    0.3272   51.6956   28.8549 C   0  0  0  0  0  0
    0.3478   51.9193   27.4837 C   0  0  0  0  0  0
    1.3192   52.6229   26.8571 N   0  0  0  0  0  0
    2.3408   53.1450   27.6009 C   0  0  0  0  0  0
    3.3577   53.9119   26.9539 C   0  0  0  0  0  0
    4.3536   54.4965   27.7466 C   0  0  0  0  0  0
    3.2590   54.1003   25.5816 O   0  0  0  0  0  0
    4.3152   54.1312   24.6775 C   0  0  0  0  0  0
    4.0318   54.0966   23.2971 C   0  0  0  0  0  0
    5.1440   54.0956   22.4187 C   0  0  0  0  0  0
    6.4144   54.2122   22.8815 N   0  0  0  0  0  0
    6.5824   54.2388   24.2199 C   0  0  0  0  0  0
    5.5975   54.1761   25.1426 N   0  0  0  0  0  0
    5.0846   53.9815   21.0200 N   0  0  0  0  0  0
    4.1571   53.3464   20.1783 C   0  0  0  0  0  0
    3.9048   53.9189   18.9282 C   0  0  0  0  0  0
    3.0335   53.3016   18.0292 C   0  0  0  0  0  0
    2.4229   52.0949   18.3646 C   0  0  0  0  0  0
    2.7052   51.4913   19.5886 C   0  0  0  0  0  0
    3.5828   52.1003   20.4865 C   0  0  0  0  0  0
    3.8771   51.4612   21.6429 F   0  0  0  0  0  0
    1.2198   51.2661   17.1471 Br  0  0  0  0  0  0
    2.6987   54.0901   22.8589 N   0  0  0  0  0  0
    5.2309   54.7235   29.6813 H   0  0  0  0  0  0
    3.5476   53.2952   30.8127 H   0  0  0  0  0  0
    1.3739   52.0364   30.7032 H   0  0  0  0  0  0
   -0.4752   51.1249   29.3031 H   0  0  0  0  0  0
   -0.4352   51.5158   26.8552 H   0  0  0  0  0  0
    5.0937   55.1459   27.3109 H   0  0  0  0  0  0
    7.5963   54.3098   24.5770 H   0  0  0  0  0  0
    5.9662   54.1899   20.5715 H   0  0  0  0  0  0
    4.3712   54.8537   18.6523 H   0  0  0  0  0  0
    2.8317   53.7600   17.0715 H   0  0  0  0  0  0
    2.2609   50.5383   19.8337 H   0  0  0  0  0  0
    2.4907   54.1496   21.8676 H   0  0  0  0  0  0
    1.9600   54.0732   23.5485 H   0  0  0  0  0  0
  1 10  2  0  0  0
  1  2  1  0  0  0
  1 28  1  0  0  0
  2  3  2  0  0  0
  2 29  1  0  0  0
  3  8  1  0  0  0
  3  4  1  0  0  0
  4  5  2  0  0  0
  4 30  1  0  0  0
  5  6  1  0  0  0
  5 31  1  0  0  0
  6  7  2  0  0  0
  6 32  1  0  0  0
  7  8  1  0  0  0
  8  9  2  0  0  0
  9 10  1  0  0  0
  9 11  1  0  0  0
 10 33  1  0  0  0
 11 12  1  0  0  0
 12 17  2  0  0  0
 12 13  1  0  0  0
 13 14  2  0  0  0
 13 27  1  0  0  0
 14 15  1  0  0  0
 14 18  1  0  0  0
 15 16  2  0  0  0
 16 17  1  0  0  0
 16 34  1  0  0  0
 18 19  1  0  0  0
 18 35  1  0  0  0
 19 24  2  0  0  0
 19 20  1  0  0  0
 20 21  2  0  0  0
 20 36  1  0  0  0
 21 22  1  0  0  0
 21 37  1  0  0  0
 22 23  2  0  0  0
 22 26  1  0  0  0
 23 24  1  0  0  0
 23 38  1  0  0  0
 24 25  1  0  0  0
 27 39  1  0  0  0
 27 40  1  0  0  0
M  END
> <i_i_glide_confnum>
16

> <i_i_glide_lignum>
3947

> <i_i_glide_posenum>
91

> <i_i_glide_rotatable_bonds>
4

> <i_m_Source_File_Index>
5325

> <b_m_subgroup_collapsed>
0

> <r_i_docking_score>
-4.75973

> <r_i_glide_ecoul>
-1.22737

> <r_i_glide_eff_state_penalty>
0

> <r_i_glide_einternal>
10.1979

> <r_i_glide_emodel>
-50.5005

> <r_i_glide_energy>
-42.0289

> <r_i_glide_erotb>
0.436903

> <r_i_glide_esite>
0

> <r_i_glide_evdw>
-40.8015

> <r_i_glide_gscore>
-4.75973

> <r_i_glide_hbond>
-0.0813232

> <r_i_glide_ligand_efficiency>
-0.176286

> <r_i_glide_ligand_efficiency_ln>
-1.10799

> <r_i_glide_ligand_efficiency_sa>
-0.528859

> <r_i_glide_lipo>
-1.93421

> <r_i_glide_metal>
0

> <r_i_glide_rewards>
-0.956914

> <s_i_glide_gridfile>
wee1_glide-grid

> <s_m_Source_File>
wee1_decoys_glide_SP.sdf

> <s_m_Source_Path>
/Users/zhangxujun/Desktop

> <s_m_entry_id>
5600

> <s_m_entry_name>
wee1_decoys_glide_SP.5325

> <s_m_subgroup_title>
wee1_decoys_glide_SP

> <s_m_subgroupid>
wee1_decoys_glide_SP


$$$$
