ZINC02310865_557
                    3D
 Schrodinger Suite 2024-2.
 55 58  0  0  1  0            999 V2000
   -0.0733   53.2387   31.2818 C   0  0  0  0  0  0
    0.7235   53.9138   30.1956 C   0  0  0  0  0  0
    1.1045   55.2211   29.9416 C   0  0  0  0  0  0
    1.8787   55.1949   28.7808 C   0  0  0  0  0  0
    1.9572   53.8682   28.3768 C   0  0  0  0  0  0
    1.2313   53.1019   29.2348 O   0  0  0  0  0  0
    2.7138   53.1205   27.2864 C   0  0  1  0  0  0
    2.7033   52.0657   27.5594 H   0  0  0  0  0  0
    2.0472   53.2117   25.9169 C   0  0  0  0  0  0
    2.6842   53.8233   24.8951 C   0  0  0  0  0  0
    3.9380   54.3458   24.9673 N   0  0  0  0  0  0
    4.6905   54.1812   25.9908 C   0  0  0  0  0  0
    4.2069   53.5440   27.2169 C   0  0  0  0  0  0
    5.0542   53.2963   28.2393 C   0  0  0  0  0  0
    6.5430   53.6139   28.2544 C   0  0  0  0  0  0
    6.8241   54.7733   27.2819 C   0  0  0  0  0  0
    6.1638   54.6135   25.8923 C   0  0  0  0  0  0
    4.7043   52.6287   29.2822 O   0  5  0  0  0  0
    1.9802   54.0968   23.2812 S   0  0  0  0  0  0
    3.3205   53.6919   22.0968 C   0  0  0  0  0  0
    3.3178   52.2549   21.5594 C   0  0  0  0  0  0
    4.3919   51.7171   21.2820 O   0  0  0  0  0  0
    2.1103   51.6687   21.4254 N   0  0  0  0  0  0
    1.7822   50.4525   20.8058 C   0  0  0  0  0  0
    2.5676   49.8440   19.8191 C   0  0  0  0  0  0
    2.1358   48.6688   19.2097 C   0  0  0  0  0  0
    0.9108   48.0880   19.5659 C   0  0  0  0  0  0
    0.1271   48.7088   20.5498 C   0  0  0  0  0  0
    0.5595   49.8826   21.1622 C   0  0  0  0  0  0
    0.4675   46.8278   18.8842 C   0  0  0  0  0  0
    1.1041   46.2677   17.9943 O   0  0  0  0  0  0
   -0.8400   46.1824   19.3454 C   0  0  0  0  0  0
    0.7552   52.6360   25.7314 C   0  0  0  0  0  0
   -0.2824   52.1542   25.5420 N   0  0  0  0  0  0
   -0.4953   53.9524   31.9886 H   0  0  0  0  0  0
    0.5437   52.5513   31.8604 H   0  0  0  0  0  0
   -0.8951   52.6521   30.8717 H   0  0  0  0  0  0
    0.8548   56.0910   30.5340 H   0  0  0  0  0  0
    2.3590   56.0359   28.3056 H   0  0  0  0  0  0
    7.1164   52.7244   27.9908 H   0  0  0  0  0  0
    6.8873   53.8968   29.2569 H   0  0  0  0  0  0
    7.9030   54.8950   27.2039 H   0  0  0  0  0  0
    6.4431   55.6983   27.7090 H   0  0  0  0  0  0
    6.7048   53.8717   25.3035 H   0  0  0  0  0  0
    6.2366   55.5590   25.3516 H   0  0  0  0  0  0
    3.1754   54.3292   21.2273 H   0  0  0  0  0  0
    4.3029   53.9457   22.4929 H   0  0  0  0  0  0
    1.3398   52.1521   21.8589 H   0  0  0  0  0  0
    3.5038   50.2752   19.4902 H   0  0  0  0  0  0
    2.7636   48.2295   18.4453 H   0  0  0  0  0  0
   -0.8252   48.3025   20.8579 H   0  0  0  0  0  0
   -0.0636   50.3465   21.9136 H   0  0  0  0  0  0
   -1.6718   46.8726   19.2050 H   0  0  0  0  0  0
   -1.0438   45.2719   18.7821 H   0  0  0  0  0  0
   -0.7834   45.9358   20.4052 H   0  0  0  0  0  0
  1  2  1  0  0  0
  1 35  1  0  0  0
  1 36  1  0  0  0
  1 37  1  0  0  0
  2  6  1  0  0  0
  2  3  2  0  0  0
  3  4  1  0  0  0
  3 38  1  0  0  0
  4  5  2  0  0  0
  4 39  1  0  0  0
  5  6  1  0  0  0
  5  7  1  0  0  0
  7  8  1  0  0  0
  7 13  1  0  0  0
  7  9  1  0  0  0
  9 10  2  0  0  0
  9 33  1  0  0  0
 10 11  1  0  0  0
 10 19  1  0  0  0
 11 12  2  0  0  0
 12 17  1  0  0  0
 12 13  1  0  0  0
 13 14  2  0  0  0
 14 15  1  0  0  0
 14 18  1  0  0  0
 15 16  1  0  0  0
 15 40  1  0  0  0
 15 41  1  0  0  0
 16 17  1  0  0  0
 16 42  1  0  0  0
 16 43  1  0  0  0
 17 44  1  0  0  0
 17 45  1  0  0  0
 19 20  1  0  0  0
 20 21  1  0  0  0
 20 46  1  0  0  0
 20 47  1  0  0  0
 21 22  2  0  0  0
 21 23  1  0  0  0
 23 24  1  0  0  0
 23 48  1  0  0  0
 24 29  2  0  0  0
 24 25  1  0  0  0
 25 26  2  0  0  0
 25 49  1  0  0  0
 26 27  1  0  0  0
 26 50  1  0  0  0
 27 28  2  0  0  0
 27 30  1  0  0  0
 28 29  1  0  0  0
 28 51  1  0  0  0
 29 52  1  0  0  0
 30 31  2  0  0  0
 30 32  1  0  0  0
 32 53  1  0  0  0
 32 54  1  0  0  0
 32 55  1  0  0  0
 33 34  3  0  0  0
M  CHG  1  18  -1
M  END
> <i_i_glide_confnum>
56

> <i_i_glide_lignum>
558

> <i_i_glide_posenum>
210

> <i_i_glide_rotatable_bonds>
8

> <i_m_Source_File_Index>
2663

> <b_m_subgroup_collapsed>
0

> <r_i_docking_score>
-6.24552

> <r_i_glide_ecoul>
-3.13603

> <r_i_glide_eff_state_penalty>
0

> <r_i_glide_einternal>
8.43989

> <r_i_glide_emodel>
-70.2927

> <r_i_glide_energy>
-52.5253

> <r_i_glide_erotb>
0.569466

> <r_i_glide_esite>
-0.0106974

> <r_i_glide_evdw>
-49.3893

> <r_i_glide_gscore>
-6.24552

> <r_i_glide_hbond>
0

> <r_i_glide_ligand_efficiency>
-0.189258

> <r_i_glide_ligand_efficiency_ln>
-1.38897

> <r_i_glide_ligand_efficiency_sa>
-0.607052

> <r_i_glide_lipo>
-3.15473

> <r_i_glide_metal>
0

> <r_i_glide_rewards>
-0.709693

> <s_i_glide_gridfile>
wee1_glide-grid

> <s_m_Source_File>
wee1_decoys_glide_SP.sdf

> <s_m_Source_Path>
/Users/zhangxujun/Desktop

> <s_m_entry_id>
2938

> <s_m_entry_name>
wee1_decoys_glide_SP.2663

> <s_m_subgroup_title>
wee1_decoys_glide_SP

> <s_m_subgroupid>
wee1_decoys_glide_SP


$$$$
