ZINC09295270_2289
                    3D
 Schrodinger Suite 2024-2.
 53 57  0  0  1  0            999 V2000
   10.6717   49.8690   15.2764 C   0  0  0  0  0  0
   10.1046   50.2608   16.4884 C   0  0  0  0  0  0
    9.1046   51.2307   16.5017 C   0  0  0  0  0  0
    8.6660   51.8088   15.3025 C   0  0  0  0  0  0
    9.2608   51.4246   14.0982 C   0  0  0  0  0  0
   10.2560   50.4493   14.0815 C   0  0  0  0  0  0
    7.6656   52.7608   15.2346 O   0  0  0  0  0  0
    6.6019   52.7228   16.1923 C   0  0  0  0  0  0
    6.8627   53.6153   17.3982 C   0  0  0  0  0  0
    7.8483   54.4746   17.4994 N   0  0  0  0  0  0
    7.6914   55.1431   18.7074 N   0  0  0  0  0  0
    6.6166   54.6697   19.2843 C   0  0  0  0  0  0
    6.0616   53.6648   18.5219 N   0  0  0  0  0  0
    4.9226   52.8968   18.7864 N   0  0  0  0  0  0
    4.5781   52.7902   20.2076 C   0  0  1  0  0  0
    5.4141   52.2793   20.6901 H   0  0  0  0  0  0
    4.4255   54.1955   20.8748 C   0  0  2  0  0  0
    3.6380   54.7585   20.3716 H   0  0  0  0  0  0
    5.9573   55.2224   20.8216 S   0  0  0  0  0  0
    3.9631   54.0967   22.3629 C   0  0  0  0  0  0
    2.7534   54.0540   22.5850 O   0  0  0  0  0  0
    4.9001   54.0981   23.3416 N   0  0  0  0  0  0
    4.7524   54.1601   24.7464 C   0  0  0  0  0  0
    3.5330   54.0002   25.4287 C   0  0  0  0  0  0
    3.4877   54.0830   26.8218 C   0  0  0  0  0  0
    4.6506   54.3255   27.5500 C   0  0  0  0  0  0
    5.8625   54.4958   26.8848 C   0  0  0  0  0  0
    5.9141   54.4183   25.4925 C   0  0  0  0  0  0
    7.1044   54.5959   24.8736 F   0  0  0  0  0  0
    3.3483   51.8896   20.3915 C   0  0  0  0  0  0
    3.3464   50.9489   21.4197 C   0  0  0  0  0  0
    2.2503   50.1145   21.6167 C   0  0  0  0  0  0
    1.1420   50.2315   20.7821 C   0  0  0  0  0  0
    1.1198   51.1857   19.7671 C   0  0  0  0  0  0
    2.2187   52.0194   19.5734 C   0  0  0  0  0  0
    0.0769   49.4188   20.9646 F   0  0  0  0  0  0
   11.4456   49.1146   15.2614 H   0  0  0  0  0  0
   10.4391   49.8144   17.4142 H   0  0  0  0  0  0
    8.6764   51.5216   17.4488 H   0  0  0  0  0  0
    8.9330   51.8716   13.1720 H   0  0  0  0  0  0
   10.7026   50.1445   13.1445 H   0  0  0  0  0  0
    6.3926   51.6967   16.4867 H   0  0  0  0  0  0
    5.7020   53.0614   15.6789 H   0  0  0  0  0  0
    5.1048   51.9358   18.4720 H   0  0  0  0  0  0
    5.8579   54.1709   23.0298 H   0  0  0  0  0  0
    2.6107   53.7957   24.9105 H   0  0  0  0  0  0
    2.5462   53.9513   27.3346 H   0  0  0  0  0  0
    4.6123   54.3852   28.6282 H   0  0  0  0  0  0
    6.7611   54.6910   27.4514 H   0  0  0  0  0  0
    4.1997   50.8962   22.0742 H   0  0  0  0  0  0
    2.2585   49.3843   22.4138 H   0  0  0  0  0  0
    0.2518   51.2760   19.1323 H   0  0  0  0  0  0
    2.1922   52.7616   18.7887 H   0  0  0  0  0  0
  1  6  2  0  0  0
  1  2  1  0  0  0
  1 37  1  0  0  0
  2  3  2  0  0  0
  2 38  1  0  0  0
  3  4  1  0  0  0
  3 39  1  0  0  0
  4  5  2  0  0  0
  4  7  1  0  0  0
  5  6  1  0  0  0
  5 40  1  0  0  0
  6 41  1  0  0  0
  7  8  1  0  0  0
  8  9  1  0  0  0
  8 42  1  0  0  0
  8 43  1  0  0  0
  9 13  1  0  0  0
  9 10  2  0  0  0
 10 11  1  0  0  0
 11 12  2  0  0  0
 12 19  1  0  0  0
 12 13  1  0  0  0
 13 14  1  0  0  0
 14 15  1  0  0  0
 14 44  1  0  0  0
 15 16  1  0  0  0
 15 17  1  0  0  0
 15 30  1  0  0  0
 17 18  1  0  0  0
 17 19  1  0  0  0
 17 20  1  0  0  0
 20 21  2  0  0  0
 20 22  1  0  0  0
 22 23  1  0  0  0
 22 45  1  0  0  0
 23 28  2  0  0  0
 23 24  1  0  0  0
 24 25  2  0  0  0
 24 46  1  0  0  0
 25 26  1  0  0  0
 25 47  1  0  0  0
 26 27  2  0  0  0
 26 48  1  0  0  0
 27 28  1  0  0  0
 27 49  1  0  0  0
 28 29  1  0  0  0
 30 35  2  0  0  0
 30 31  1  0  0  0
 31 32  2  0  0  0
 31 50  1  0  0  0
 32 33  1  0  0  0
 32 51  1  0  0  0
 33 34  2  0  0  0
 33 36  1  0  0  0
 34 35  1  0  0  0
 34 52  1  0  0  0
 35 53  1  0  0  0
M  END
> <i_i_glide_confnum>
72

> <i_i_glide_lignum>
2290

> <i_i_glide_posenum>
130

> <i_i_glide_rotatable_bonds>
7

> <i_m_Source_File_Index>
3341

> <b_m_subgroup_collapsed>
0

> <r_i_docking_score>
-5.51733

> <r_i_glide_ecoul>
-5.47571

> <r_i_glide_eff_state_penalty>
0

> <r_i_glide_einternal>
8.91566

> <r_i_glide_emodel>
-61.5914

> <r_i_glide_energy>
-48.9537

> <r_i_glide_erotb>
0.617188

> <r_i_glide_esite>
-0.159718

> <r_i_glide_evdw>
-43.478

> <r_i_glide_gscore>
-5.51733

> <r_i_glide_hbond>
-0.16

> <r_i_glide_ligand_efficiency>
-0.162274

> <r_i_glide_ligand_efficiency_ln>
-1.21893

> <r_i_glide_ligand_efficiency_sa>
-0.525706

> <r_i_glide_lipo>
-2.41597

> <r_i_glide_metal>
0

> <r_i_glide_rewards>
-0.403579

> <s_i_glide_gridfile>
wee1_glide-grid

> <s_m_Source_File>
wee1_decoys_glide_SP.sdf

> <s_m_Source_Path>
/Users/zhangxujun/Desktop

> <s_m_entry_id>
3616

> <s_m_entry_name>
wee1_decoys_glide_SP.3341

> <s_m_subgroup_title>
wee1_decoys_glide_SP

> <s_m_subgroupid>
wee1_decoys_glide_SP


$$$$
