ZINC13416068_553
                    3D
 Schrodinger Suite 2024-2.
 52 56  0  0  1  0            999 V2000
   -1.1615   47.8586   19.4180 C   0  0  0  0  0  0
   -1.2667   47.8371   20.9270 C   0  0  0  0  0  0
   -1.6964   46.8801   21.8653 C   0  0  0  0  0  0
   -1.5247   47.5077   23.1275 C   0  0  0  0  0  0
   -1.7361   47.1413   24.5410 C   0  0  0  0  0  0
   -2.1661   46.0969   25.0212 O   0  0  0  0  0  0
   -1.3602   48.1680   25.3695 N   0  0  0  0  0  0
   -1.4544   47.9699   26.3608 H   0  0  0  0  0  0
   -0.8540   49.4063   25.0201 C   0  0  0  0  0  0
   -0.6585   49.7184   23.7804 N   0  0  0  0  0  0
   -0.9994   48.7681   22.8679 C   0  0  0  0  0  0
   -0.8380   48.9689   21.5446 O   0  0  0  0  0  0
   -0.5210   50.3593   26.1616 C   0  0  0  0  0  0
   -0.9302   52.0962   25.7694 S   0  0  0  0  0  0
    0.7042   52.6965   25.2959 C   0  0  0  0  0  0
    0.9389   52.6456   24.0365 N   0  0  0  0  0  0
    2.1379   53.0940   23.6030 C   0  0  0  0  0  0
    3.1321   53.6446   24.4011 C   0  0  0  0  0  0
    4.2548   54.0584   23.6448 C   0  0  0  0  0  0
    4.0833   53.7696   22.2776 C   0  0  0  0  0  0
    2.5817   52.9689   21.9482 S   0  0  0  0  0  0
    5.1026   54.0236   21.1799 C   0  0  0  0  0  0
    6.2311   54.9361   21.7112 C   0  0  0  0  0  0
    6.6820   54.5588   23.1364 C   0  0  0  0  0  0
    5.5538   54.6558   24.1904 C   0  0  0  0  0  0
    2.9085   53.7006   25.8524 C   0  0  0  0  0  0
    3.7205   54.1378   26.6733 O   0  0  0  0  0  0
    1.6408   53.2221   26.1994 N   0  0  0  0  0  0
    1.2595   53.4180   27.6270 C   0  0  0  0  0  0
    1.1303   52.1454   28.4440 C   0  0  0  0  0  0
    0.0215   51.8219   29.1299 C   0  0  0  0  0  0
   -2.1876   45.5250   21.5647 C   0  0  0  0  0  0
   -2.7597   44.8968   22.4813 O   0  0  0  0  0  0
   -1.9826   45.0747   20.4153 O   0  5  0  0  0  0
   -2.0067   47.3538   18.9486 H   0  0  0  0  0  0
   -1.1355   48.8755   19.0228 H   0  0  0  0  0  0
   -0.2562   47.3539   19.0775 H   0  0  0  0  0  0
    0.5301   50.2446   26.4239 H   0  0  0  0  0  0
   -1.0918   50.0970   27.0507 H   0  0  0  0  0  0
    4.6356   54.4846   20.3078 H   0  0  0  0  0  0
    5.5054   53.0656   20.8510 H   0  0  0  0  0  0
    5.9043   55.9751   21.6827 H   0  0  0  0  0  0
    7.0836   54.8957   21.0324 H   0  0  0  0  0  0
    7.5041   55.2039   23.4394 H   0  0  0  0  0  0
    7.0798   53.5424   23.1250 H   0  0  0  0  0  0
    5.8672   54.1454   25.1025 H   0  0  0  0  0  0
    5.4015   55.6955   24.4827 H   0  0  0  0  0  0
    1.9764   54.0418   28.1640 H   0  0  0  0  0  0
    0.3231   53.9732   27.6830 H   0  0  0  0  0  0
    1.9819   51.4801   28.4514 H   0  0  0  0  0  0
   -0.0552   50.8974   29.6814 H   0  0  0  0  0  0
   -0.8417   52.4708   29.1422 H   0  0  0  0  0  0
  1  2  1  0  0  0
  1 35  1  0  0  0
  1 36  1  0  0  0
  1 37  1  0  0  0
  2 12  1  0  0  0
  2  3  2  0  0  0
  3  4  1  0  0  0
  3 32  1  0  0  0
  4 11  2  0  0  0
  4  5  1  0  0  0
  5  6  2  0  0  0
  5  7  1  0  0  0
  7  8  1  0  0  0
  7  9  1  0  0  0
  9 10  2  0  0  0
  9 13  1  0  0  0
 10 11  1  0  0  0
 11 12  1  0  0  0
 13 14  1  0  0  0
 13 38  1  0  0  0
 13 39  1  0  0  0
 14 15  1  0  0  0
 15 28  1  0  0  0
 15 16  2  0  0  0
 16 17  1  0  0  0
 17 21  1  0  0  0
 17 18  2  0  0  0
 18 19  1  0  0  0
 18 26  1  0  0  0
 19 25  1  0  0  0
 19 20  2  0  0  0
 20 21  1  0  0  0
 20 22  1  0  0  0
 22 23  1  0  0  0
 22 40  1  0  0  0
 22 41  1  0  0  0
 23 24  1  0  0  0
 23 42  1  0  0  0
 23 43  1  0  0  0
 24 25  1  0  0  0
 24 44  1  0  0  0
 24 45  1  0  0  0
 25 46  1  0  0  0
 25 47  1  0  0  0
 26 27  2  0  0  0
 26 28  1  0  0  0
 28 29  1  0  0  0
 29 30  1  0  0  0
 29 48  1  0  0  0
 29 49  1  0  0  0
 30 31  2  0  0  0
 30 50  1  0  0  0
 31 51  1  0  0  0
 31 52  1  0  0  0
 32 33  2  0  0  0
 32 34  1  0  0  0
M  CHG  1  34  -1
M  END
> <i_i_glide_confnum>
144

> <i_i_glide_lignum>
554

> <i_i_glide_posenum>
170

> <i_i_glide_rotatable_bonds>
6

> <i_m_Source_File_Index>
3570

> <b_m_subgroup_collapsed>
0

> <r_i_docking_score>
-5.90223

> <r_i_glide_ecoul>
-7.87029

> <r_i_glide_eff_state_penalty>
0

> <r_i_glide_einternal>
10.8898

> <r_i_glide_emodel>
-63.9483

> <r_i_glide_energy>
-45.9537

> <r_i_glide_erotb>
0.43414

> <r_i_glide_esite>
-0.168989

> <r_i_glide_evdw>
-38.0834

> <r_i_glide_gscore>
-5.90223

> <r_i_glide_hbond>
-0.31346

> <r_i_glide_ligand_efficiency>
-0.178856

> <r_i_glide_ligand_efficiency_ln>
-1.31263

> <r_i_glide_ligand_efficiency_sa>
-0.573685

> <r_i_glide_lipo>
-2.31423

> <r_i_glide_metal>
0

> <r_i_glide_rewards>
-0.454984

> <s_i_glide_gridfile>
wee1_glide-grid

> <s_m_Source_File>
wee1_decoys_glide_SP.sdf

> <s_m_Source_Path>
/Users/zhangxujun/Desktop

> <s_m_entry_id>
3845

> <s_m_entry_name>
wee1_decoys_glide_SP.3570

> <s_m_subgroup_title>
wee1_decoys_glide_SP

> <s_m_subgroupid>
wee1_decoys_glide_SP


$$$$
