ZINC02853175_4567
                    3D
 Schrodinger Suite 2024-2.
 51 52  0  0  1  0            999 V2000
    1.5741   54.0034   27.5253 C   0  0  0  0  0  0
    2.9346   54.0706   26.8461 C   0  0  0  0  0  0
    2.9835   54.0950   25.4487 C   0  0  0  0  0  0
    4.1962   54.1031   24.7640 C   0  0  0  0  0  0
    5.3844   54.0966   25.5082 C   0  0  0  0  0  0
    5.3609   54.0587   26.9037 C   0  0  0  0  0  0
    4.1305   54.0635   27.5809 C   0  0  0  0  0  0
    4.0827   54.0597   29.3156 Cl  0  0  0  0  0  0
    6.6811   53.9830   27.6544 C   0  0  0  0  0  0
    4.1303   54.0950   23.3819 O   0  0  0  0  0  0
    5.2793   53.7037   22.6238 C   0  0  2  0  0  0
    5.8434   52.9426   23.1655 H   0  0  0  0  0  0
    6.1983   54.9061   22.3223 C   0  0  0  0  0  0
    4.8172   53.0182   21.3258 C   0  0  0  0  0  0
    5.4994   52.0964   20.8820 O   0  0  0  0  0  0
    3.7094   53.4845   20.7118 N   0  0  0  0  0  0
    3.2927   52.8821   19.5212 N   0  0  0  0  0  0
    3.5758   53.4814   18.3465 C   0  0  0  0  0  0
    4.2077   54.5351   18.2239 O   0  0  0  0  0  0
    3.0831   52.7800   17.3099 N   0  0  0  0  0  0
    3.2961   53.0926   15.8949 C   0  0  0  0  0  0
    4.5399   52.3821   15.3026 C   0  0  0  0  0  0
    4.7480   52.6511   13.7995 C   0  0  0  0  0  0
    3.4841   52.3377   12.9810 C   0  0  0  0  0  0
    2.2614   53.0938   13.5285 C   0  0  0  0  0  0
    2.0394   52.8270   15.0313 C   0  0  0  0  0  0
    0.8590   53.4655   26.9007 H   0  0  0  0  0  0
    1.1902   55.0048   27.7204 H   0  0  0  0  0  0
    1.6116   53.4487   28.4617 H   0  0  0  0  0  0
    2.0666   54.0896   24.8798 H   0  0  0  0  0  0
    6.3429   54.0870   25.0123 H   0  0  0  0  0  0
    7.5298   54.2224   27.0153 H   0  0  0  0  0  0
    6.6955   54.6877   28.4817 H   0  0  0  0  0  0
    6.8202   52.9846   28.0670 H   0  0  0  0  0  0
    7.1139   54.5890   21.8228 H   0  0  0  0  0  0
    5.7066   55.6359   21.6748 H   0  0  0  0  0  0
    6.4975   55.4288   23.2302 H   0  0  0  0  0  0
    3.0512   54.1555   21.0847 H   0  0  0  0  0  0
    2.6193   52.1402   19.6494 H   0  0  0  0  0  0
    2.7561   51.8415   17.4939 H   0  0  0  0  0  0
    3.4938   54.1648   15.8061 H   0  0  0  0  0  0
    5.4363   52.6720   15.8544 H   0  0  0  0  0  0
    4.4277   51.3033   15.4365 H   0  0  0  0  0  0
    5.0255   53.6970   13.6556 H   0  0  0  0  0  0
    5.5897   52.0600   13.4300 H   0  0  0  0  0  0
    3.6443   52.5951   11.9333 H   0  0  0  0  0  0
    3.2916   51.2632   13.0058 H   0  0  0  0  0  0
    2.3958   54.1653   13.3680 H   0  0  0  0  0  0
    1.3700   52.8140   12.9653 H   0  0  0  0  0  0
    1.7328   51.7851   15.1500 H   0  0  0  0  0  0
    1.2083   53.4398   15.3875 H   0  0  0  0  0  0
  1  2  1  0  0  0
  1 27  1  0  0  0
  1 28  1  0  0  0
  1 29  1  0  0  0
  2  7  2  0  0  0
  2  3  1  0  0  0
  3  4  2  0  0  0
  3 30  1  0  0  0
  4  5  1  0  0  0
  4 10  1  0  0  0
  5  6  2  0  0  0
  5 31  1  0  0  0
  6  7  1  0  0  0
  6  9  1  0  0  0
  7  8  1  0  0  0
  9 32  1  0  0  0
  9 33  1  0  0  0
  9 34  1  0  0  0
 10 11  1  0  0  0
 11 12  1  0  0  0
 11 13  1  0  0  0
 11 14  1  0  0  0
 13 35  1  0  0  0
 13 36  1  0  0  0
 13 37  1  0  0  0
 14 15  2  0  0  0
 14 16  1  0  0  0
 16 17  1  0  0  0
 16 38  1  0  0  0
 17 18  1  0  0  0
 17 39  1  0  0  0
 18 19  2  0  0  0
 18 20  1  0  0  0
 20 21  1  0  0  0
 20 40  1  0  0  0
 21 26  1  0  0  0
 21 22  1  0  0  0
 21 41  1  0  0  0
 22 23  1  0  0  0
 22 42  1  0  0  0
 22 43  1  0  0  0
 23 24  1  0  0  0
 23 44  1  0  0  0
 23 45  1  0  0  0
 24 25  1  0  0  0
 24 46  1  0  0  0
 24 47  1  0  0  0
 25 26  1  0  0  0
 25 48  1  0  0  0
 25 49  1  0  0  0
 26 50  1  0  0  0
 26 51  1  0  0  0
M  END
> <i_i_glide_confnum>
132

> <i_i_glide_lignum>
4568

> <i_i_glide_posenum>
192

> <i_i_glide_rotatable_bonds>
8

> <i_m_Source_File_Index>
5843

> <b_m_subgroup_collapsed>
0

> <r_i_docking_score>
-4.78554

> <r_i_glide_ecoul>
-3.05958

> <r_i_glide_eff_state_penalty>
0

> <r_i_glide_einternal>
6.69242

> <r_i_glide_emodel>
-41.4028

> <r_i_glide_energy>
-31.2762

> <r_i_glide_erotb>
0.996425

> <r_i_glide_esite>
-0.0909272

> <r_i_glide_evdw>
-28.2166

> <r_i_glide_gscore>
-4.78554

> <r_i_glide_hbond>
-0.126234

> <r_i_glide_ligand_efficiency>
-0.191422

> <r_i_glide_ligand_efficiency_ln>
-1.13432

> <r_i_glide_ligand_efficiency_sa>
-0.559721

> <r_i_glide_lipo>
-2.62021

> <r_i_glide_metal>
0

> <r_i_glide_rewards>
-1.07482

> <s_i_glide_gridfile>
wee1_glide-grid

> <s_m_Source_File>
wee1_decoys_glide_SP.sdf

> <s_m_Source_Path>
/Users/zhangxujun/Desktop

> <s_m_entry_id>
6118

> <s_m_entry_name>
wee1_decoys_glide_SP.5843

> <s_m_subgroup_title>
wee1_decoys_glide_SP

> <s_m_subgroupid>
wee1_decoys_glide_SP


$$$$
