ZINC08455960_2392
                    3D
 Schrodinger Suite 2024-2.
 57 61  0  0  1  0            999 V2000
   -0.0951   49.0486   22.4838 C   0  0  0  0  0  0
    0.7139   49.9083   23.2205 C   0  0  0  0  0  0
    1.7034   50.6457   22.5765 C   0  0  0  0  0  0
    1.9054   50.5253   21.1900 C   0  0  0  0  0  0
    1.1083   49.6178   20.4750 C   0  0  0  0  0  0
    0.1033   48.8971   21.1142 C   0  0  0  0  0  0
    2.9462   51.3923   20.4426 C   0  0  2  0  0  0
    3.7499   50.7040   20.1706 H   0  0  0  0  0  0
    3.4623   52.5911   21.2678 C   0  0  0  0  0  0
    4.3883   53.5546   20.4917 C   0  0  0  0  0  0
    4.3440   53.6022   19.1211 C   0  0  0  0  0  0
    5.3446   54.4485   18.2861 C   0  0  2  0  0  0
    5.9139   53.7386   17.6823 H   0  0  0  0  0  0
    6.3572   55.1423   19.1947 C   0  0  0  0  0  0
    6.3066   55.0782   20.5412 C   0  0  0  0  0  0
    5.3576   54.2888   21.2313 N   0  0  0  0  0  0
    5.3577   54.2513   22.6685 C   0  0  0  0  0  0
    4.1898   54.4964   23.4083 C   0  0  0  0  0  0
    4.1966   54.4967   24.8020 C   0  0  0  0  0  0
    5.3926   54.3124   25.5041 C   0  0  0  0  0  0
    6.5653   54.0960   24.7770 C   0  0  0  0  0  0
    6.5385   54.0119   23.3889 C   0  0  0  0  0  0
    5.4199   54.3273   26.9891 N   0  3  0  0  0  0
    4.3642   54.4974   27.5918 O   0  0  0  0  0  0
    6.4993   54.1732   27.5550 O   0  5  0  0  0  0
    7.2137   55.8035   21.2848 N   0  0  0  0  0  0
    7.3588   55.9420   18.5547 C   0  0  0  0  0  0
    8.1845   56.6029   18.0870 N   0  0  0  0  0  0
    4.7366   55.4168   17.2538 C   0  0  0  0  0  0
    4.1327   56.6038   17.6827 C   0  0  0  0  0  0
    3.6050   57.5019   16.7578 C   0  0  0  0  0  0
    3.6781   57.2109   15.3965 C   0  0  0  0  0  0
    4.2791   56.0334   14.9549 C   0  0  0  0  0  0
    4.8112   55.1388   15.8810 C   0  0  0  0  0  0
    3.3395   52.8219   18.3474 C   0  0  0  0  0  0
    3.1970   52.9295   17.1318 O   0  0  0  0  0  0
    2.3705   51.9188   19.1121 C   0  0  0  0  0  0
   -0.8691   48.4847   22.9846 H   0  0  0  0  0  0
    0.5693   50.0109   24.2858 H   0  0  0  0  0  0
    2.2973   51.3140   23.1815 H   0  0  0  0  0  0
    1.2476   49.4704   19.4146 H   0  0  0  0  0  0
   -0.5162   48.2148   20.5510 H   0  0  0  0  0  0
    4.0175   52.1290   22.0830 H   0  0  0  0  0  0
    2.6246   53.1728   21.6502 H   0  0  0  0  0  0
    3.2672   54.7412   22.9059 H   0  0  0  0  0  0
    3.2711   54.6804   25.3314 H   0  0  0  0  0  0
    7.5023   53.9384   25.2881 H   0  0  0  0  0  0
    7.4632   53.7818   22.8817 H   0  0  0  0  0  0
    7.9847   56.2686   20.8238 H   0  0  0  0  0  0
    7.2670   55.6969   22.2885 H   0  0  0  0  0  0
    4.0846   56.8324   18.7372 H   0  0  0  0  0  0
    3.1467   58.4228   17.0932 H   0  0  0  0  0  0
    3.2698   57.9100   14.6802 H   0  0  0  0  0  0
    4.3315   55.8151   13.8980 H   0  0  0  0  0  0
    5.2707   54.2246   15.5305 H   0  0  0  0  0  0
    2.0966   51.1165   18.4284 H   0  0  0  0  0  0
    1.4750   52.5066   19.3170 H   0  0  0  0  0  0
  1  6  2  0  0  0
  1  2  1  0  0  0
  1 38  1  0  0  0
  2  3  2  0  0  0
  2 39  1  0  0  0
  3  4  1  0  0  0
  3 40  1  0  0  0
  4  5  2  0  0  0
  4  7  1  0  0  0
  5  6  1  0  0  0
  5 41  1  0  0  0
  6 42  1  0  0  0
  7  8  1  0  0  0
  7 37  1  0  0  0
  7  9  1  0  0  0
  9 10  1  0  0  0
  9 43  1  0  0  0
  9 44  1  0  0  0
 10 16  1  0  0  0
 10 11  2  0  0  0
 11 12  1  0  0  0
 11 35  1  0  0  0
 12 13  1  0  0  0
 12 14  1  0  0  0
 12 29  1  0  0  0
 14 15  2  0  0  0
 14 27  1  0  0  0
 15 16  1  0  0  0
 15 26  1  0  0  0
 16 17  1  0  0  0
 17 22  2  0  0  0
 17 18  1  0  0  0
 18 19  2  0  0  0
 18 45  1  0  0  0
 19 20  1  0  0  0
 19 46  1  0  0  0
 20 21  2  0  0  0
 20 23  1  0  0  0
 21 22  1  0  0  0
 21 47  1  0  0  0
 22 48  1  0  0  0
 23 24  2  0  0  0
 23 25  1  0  0  0
 26 49  1  0  0  0
 26 50  1  0  0  0
 27 28  3  0  0  0
 29 34  2  0  0  0
 29 30  1  0  0  0
 30 31  2  0  0  0
 30 51  1  0  0  0
 31 32  1  0  0  0
 31 52  1  0  0  0
 32 33  2  0  0  0
 32 53  1  0  0  0
 33 34  1  0  0  0
 33 54  1  0  0  0
 34 55  1  0  0  0
 35 36  2  0  0  0
 35 37  1  0  0  0
 37 56  1  0  0  0
 37 57  1  0  0  0
M  CHG  2  23   1  25  -1
M  END
> <i_i_glide_confnum>
10

> <i_i_glide_lignum>
2393

> <i_i_glide_posenum>
317

> <i_i_glide_rotatable_bonds>
5

> <i_m_Source_File_Index>
5552

> <b_m_subgroup_collapsed>
0

> <r_i_docking_score>
-4.78591

> <r_i_glide_ecoul>
1.00391

> <r_i_glide_eff_state_penalty>
0

> <r_i_glide_einternal>
8.77267

> <r_i_glide_emodel>
-49.0574

> <r_i_glide_energy>
-41.7157

> <r_i_glide_erotb>
0.282523

> <r_i_glide_esite>
-0.0471196

> <r_i_glide_evdw>
-42.7196

> <r_i_glide_gscore>
-4.78591

> <r_i_glide_hbond>
0

> <r_i_glide_ligand_efficiency>
-0.13674

> <r_i_glide_ligand_efficiency_ln>
-1.05061

> <r_i_glide_ligand_efficiency_sa>
-0.447287

> <r_i_glide_lipo>
-2.1103

> <r_i_glide_metal>
0

> <r_i_glide_rewards>
-0.925619

> <s_i_glide_gridfile>
wee1_glide-grid

> <s_m_Source_File>
wee1_decoys_glide_SP.sdf

> <s_m_Source_Path>
/Users/zhangxujun/Desktop

> <s_m_entry_id>
5827

> <s_m_entry_name>
wee1_decoys_glide_SP.5552

> <s_m_subgroup_title>
wee1_decoys_glide_SP

> <s_m_subgroupid>
wee1_decoys_glide_SP


$$$$
