ZINC13946251_5297
                    3D
 Schrodinger Suite 2024-2.
 71 74  0  0  1  0            999 V2000
   -0.4822   51.6877   30.1316 C   0  0  0  0  0  0
    0.4635   52.8717   30.4930 C   0  0  0  0  0  0
    0.0336   54.1081   29.6626 C   0  0  0  0  0  0
    0.2208   53.2957   31.9680 C   0  0  0  0  0  0
    1.9779   52.4970   30.2887 C   0  0  0  0  0  0
    2.6382   52.0974   31.2548 O   0  0  0  0  0  0
    2.5737   52.6660   29.0803 N   0  0  0  0  0  0
    4.0197   52.8925   28.9566 C   0  0  0  0  0  0
    4.2144   54.1451   28.0656 C   0  0  0  0  0  0
    3.5073   54.0955   26.7688 N   0  0  0  0  0  0
    2.0922   53.7116   26.9416 C   0  0  0  0  0  0
    1.8721   52.4659   27.8114 C   0  0  0  0  0  0
    4.1062   54.2100   25.5115 C   0  0  0  0  0  0
    3.3133   54.4436   24.3793 C   0  0  0  0  0  0
    3.8715   54.4964   23.1141 C   0  0  0  0  0  0
    5.2507   54.3534   22.9551 C   0  0  0  0  0  0
    6.0683   54.1752   24.0682 C   0  0  0  0  0  0
    5.4963   54.0968   25.3372 C   0  0  0  0  0  0
    5.8550   54.5019   21.6992 N   0  0  0  0  0  0
    5.5046   54.0129   20.4663 C   0  0  0  0  0  0
    4.3038   52.8982   20.1697 S   0  0  0  0  0  0
    6.1884   54.4758   19.3772 N   0  0  0  0  0  0
    7.2730   55.2850   19.2796 C   0  0  0  0  0  0
    7.8910   55.7378   20.2501 O   0  0  0  0  0  0
    7.7398   55.5715   17.8319 C   0  0  0  0  0  0
    8.3458   56.9791   17.6266 C   0  0  0  0  0  0
    9.4525   57.4279   18.3652 C   0  0  0  0  0  0
    9.9657   58.7060   18.1676 C   0  0  0  0  0  0
    9.3650   59.5528   17.2428 C   0  0  0  0  0  0
    8.2568   59.1330   16.5146 C   0  0  0  0  0  0
    7.7500   57.8506   16.7065 C   0  0  0  0  0  0
    8.5522   54.3765   17.2922 C   0  0  0  0  0  0
    9.9519   54.3251   17.3677 C   0  0  0  0  0  0
   10.6426   53.2199   16.8814 C   0  0  0  0  0  0
    9.9428   52.1479   16.3356 C   0  0  0  0  0  0
    8.5534   52.1756   16.2639 C   0  0  0  0  0  0
    7.8619   53.2870   16.7365 C   0  0  0  0  0  0
   -1.3525   52.0128   29.5630 H   0  0  0  0  0  0
   -0.8910   51.1855   31.0079 H   0  0  0  0  0  0
   -0.0075   50.9124   29.5259 H   0  0  0  0  0  0
    0.7660   54.9145   29.7008 H   0  0  0  0  0  0
   -0.1860   53.8990   28.6188 H   0  0  0  0  0  0
   -0.8952   54.4967   30.0713 H   0  0  0  0  0  0
    0.7044   54.2369   32.2248 H   0  0  0  0  0  0
   -0.8392   53.4682   32.1325 H   0  0  0  0  0  0
    0.5424   52.5384   32.6851 H   0  0  0  0  0  0
    4.5014   53.0415   29.9241 H   0  0  0  0  0  0
    4.5002   52.0343   28.4876 H   0  0  0  0  0  0
    5.2798   54.3442   27.9583 H   0  0  0  0  0  0
    3.8126   55.0201   28.5812 H   0  0  0  0  0  0
    1.5906   53.5073   25.9985 H   0  0  0  0  0  0
    1.5944   54.5820   27.3715 H   0  0  0  0  0  0
    2.3052   51.6054   27.3086 H   0  0  0  0  0  0
    0.8192   52.2217   27.9175 H   0  0  0  0  0  0
    2.2502   54.6072   24.4502 H   0  0  0  0  0  0
    3.2292   54.6943   22.2667 H   0  0  0  0  0  0
    7.1399   54.0910   23.9575 H   0  0  0  0  0  0
    6.1548   53.9138   26.1697 H   0  0  0  0  0  0
    6.7220   55.0240   21.7168 H   0  0  0  0  0  0
    5.8292   54.1383   18.4974 H   0  0  0  0  0  0
    6.8262   55.5743   17.2341 H   0  0  0  0  0  0
    9.9058   56.7910   19.1091 H   0  0  0  0  0  0
   10.8187   59.0352   18.7427 H   0  0  0  0  0  0
    9.7557   60.5486   17.0899 H   0  0  0  0  0  0
    7.7786   59.8054   15.8146 H   0  0  0  0  0  0
    6.8860   57.5443   16.1343 H   0  0  0  0  0  0
   10.5252   55.1291   17.8025 H   0  0  0  0  0  0
   11.7200   53.1839   16.9442 H   0  0  0  0  0  0
   10.4800   51.2858   15.9673 H   0  0  0  0  0  0
    8.0117   51.3364   15.8496 H   0  0  0  0  0  0
    6.7818   53.2881   16.6793 H   0  0  0  0  0  0
  1  2  1  0  0  0
  1 38  1  0  0  0
  1 39  1  0  0  0
  1 40  1  0  0  0
  2  3  1  0  0  0
  2  4  1  0  0  0
  2  5  1  0  0  0
  3 41  1  0  0  0
  3 42  1  0  0  0
  3 43  1  0  0  0
  4 44  1  0  0  0
  4 45  1  0  0  0
  4 46  1  0  0  0
  5  6  2  0  0  0
  5  7  1  0  0  0
  7 12  1  0  0  0
  7  8  1  0  0  0
  8  9  1  0  0  0
  8 47  1  0  0  0
  8 48  1  0  0  0
  9 10  1  0  0  0
  9 49  1  0  0  0
  9 50  1  0  0  0
 10 11  1  0  0  0
 10 13  1  0  0  0
 11 12  1  0  0  0
 11 51  1  0  0  0
 11 52  1  0  0  0
 12 53  1  0  0  0
 12 54  1  0  0  0
 13 18  2  0  0  0
 13 14  1  0  0  0
 14 15  2  0  0  0
 14 55  1  0  0  0
 15 16  1  0  0  0
 15 56  1  0  0  0
 16 17  2  0  0  0
 16 19  1  0  0  0
 17 18  1  0  0  0
 17 57  1  0  0  0
 18 58  1  0  0  0
 19 20  1  0  0  0
 19 59  1  0  0  0
 20 21  2  0  0  0
 20 22  1  0  0  0
 22 23  1  0  0  0
 22 60  1  0  0  0
 23 24  2  0  0  0
 23 25  1  0  0  0
 25 26  1  0  0  0
 25 32  1  0  0  0
 25 61  1  0  0  0
 26 31  2  0  0  0
 26 27  1  0  0  0
 27 28  2  0  0  0
 27 62  1  0  0  0
 28 29  1  0  0  0
 28 63  1  0  0  0
 29 30  2  0  0  0
 29 64  1  0  0  0
 30 31  1  0  0  0
 30 65  1  0  0  0
 31 66  1  0  0  0
 32 37  2  0  0  0
 32 33  1  0  0  0
 33 34  2  0  0  0
 33 67  1  0  0  0
 34 35  1  0  0  0
 34 68  1  0  0  0
 35 36  2  0  0  0
 35 69  1  0  0  0
 36 37  1  0  0  0
 36 70  1  0  0  0
 37 71  1  0  0  0
M  END
> <i_i_glide_confnum>
220

> <i_i_glide_lignum>
5298

> <i_i_glide_posenum>
186

> <i_i_glide_rotatable_bonds>
10

> <i_m_Source_File_Index>
4440

> <b_m_subgroup_collapsed>
0

> <r_i_docking_score>
-5.42336

> <r_i_glide_ecoul>
-4.51717

> <r_i_glide_eff_state_penalty>
0

> <r_i_glide_einternal>
13.5321

> <r_i_glide_emodel>
-60.1254

> <r_i_glide_energy>
-52.4564

> <r_i_glide_erotb>
0.696977

> <r_i_glide_esite>
-0.027442

> <r_i_glide_evdw>
-47.9393

> <r_i_glide_gscore>
-5.42336

> <r_i_glide_hbond>
-0.32

> <r_i_glide_ligand_efficiency>
-0.146577

> <r_i_glide_ligand_efficiency_ln>
-1.1762

> <r_i_glide_ligand_efficiency_sa>
-0.488428

> <r_i_glide_lipo>
-2.52159

> <r_i_glide_metal>
0

> <r_i_glide_rewards>
-0.176768

> <s_i_glide_gridfile>
wee1_glide-grid

> <s_m_Source_File>
wee1_decoys_glide_SP.sdf

> <s_m_Source_Path>
/Users/zhangxujun/Desktop

> <s_m_entry_id>
4715

> <s_m_entry_name>
wee1_decoys_glide_SP.4440

> <s_m_subgroup_title>
wee1_decoys_glide_SP

> <s_m_subgroupid>
wee1_decoys_glide_SP


$$$$
