ZINC39602539_2202
                    3D
 Schrodinger Suite 2024-2.
 73 77  0  0  1  0            999 V2000
    5.0970   54.8486   28.3939 C   0  0  0  0  0  0
    4.8394   54.5202   26.9103 C   0  0  0  0  0  0
    6.1082   53.8634   26.3180 C   0  0  0  0  0  0
    3.5375   53.6876   26.6107 C   0  0  2  0  0  0
    3.7342   52.6314   26.7811 H   0  0  0  0  0  0
    3.0972   53.7446   25.1145 C   0  0  0  0  0  0
    3.6939   54.4982   24.3394 O   0  0  0  0  0  0
    2.1136   52.9242   24.6608 N   0  0  0  0  0  0
    1.7581   52.8716   23.2390 C   0  0  0  0  0  0
    0.2766   52.4569   23.2638 C   0  0  2  0  0  0
   -0.3322   53.3529   23.3842 H   0  0  0  0  0  0
    0.1440   51.5522   24.5206 C   0  0  0  0  0  0
    1.1221   52.2454   25.5022 C   0  0  0  0  0  0
    0.5709   50.0631   24.2798 C   0  0  0  0  0  0
    0.4624   49.1956   25.5530 C   0  0  0  0  0  0
   -0.9838   49.2965   26.0815 N   0  3  0  0  0  0
   -1.4633   50.7387   26.3330 C   0  0  0  0  0  0
   -1.3267   51.5027   25.0098 C   0  0  0  0  0  0
   -0.1033   51.7770   21.9233 C   0  0  0  0  0  0
    0.7372   51.2214   21.2151 O   0  0  0  0  0  0
   -1.3974   51.8774   21.5773 N   0  0  0  0  0  0
   -1.9803   51.3500   20.3490 C   0  0  1  0  0  0
   -1.8616   52.0081   19.4858 H   0  0  0  0  0  0
   -1.8301   49.8875   19.9833 C   0  0  0  0  0  0
   -3.1605   50.4014   20.4808 C   0  0  2  0  0  0
   -3.3876   50.0460   21.4869 H   0  0  0  0  0  0
   -4.3965   50.5078   19.5945 C   0  0  0  0  0  0
   -5.6457   50.1715   20.1252 C   0  0  0  0  0  0
   -6.7916   50.2853   19.3425 C   0  0  0  0  0  0
   -6.6874   50.7320   18.0276 C   0  0  0  0  0  0
   -5.4467   51.0602   17.4857 C   0  0  0  0  0  0
   -4.3006   50.9464   18.2685 C   0  0  0  0  0  0
    2.4118   54.0981   27.4054 O   0  0  0  0  0  0
    2.1516   53.5102   28.6335 C   0  0  0  0  0  0
    0.9468   53.8635   29.2401 C   0  0  0  0  0  0
    0.5988   53.3489   30.4877 C   0  0  0  0  0  0
    1.4772   52.4968   31.1494 C   0  0  0  0  0  0
    2.6963   52.1547   30.5715 C   0  0  0  0  0  0
    3.0169   52.6272   29.3028 C   0  0  0  0  0  0
    5.4048   53.9733   28.9647 H   0  0  0  0  0  0
    5.9041   55.5727   28.4816 H   0  0  0  0  0  0
    4.2253   55.2931   28.8754 H   0  0  0  0  0  0
    4.7255   55.4914   26.4257 H   0  0  0  0  0  0
    6.3045   52.8969   26.7850 H   0  0  0  0  0  0
    6.0243   53.6995   25.2431 H   0  0  0  0  0  0
    6.9888   54.4879   26.4726 H   0  0  0  0  0  0
    1.8742   53.8124   22.6962 H   0  0  0  0  0  0
    2.3559   52.0628   22.8138 H   0  0  0  0  0  0
    1.4952   51.6309   26.3198 H   0  0  0  0  0  0
    0.5627   53.0470   25.9869 H   0  0  0  0  0  0
   -0.0190   49.5990   23.4878 H   0  0  0  0  0  0
    1.6022   50.0213   23.9221 H   0  0  0  0  0  0
    0.6487   48.1377   25.3561 H   0  0  0  0  0  0
    1.1037   49.5097   26.3755 H   0  0  0  0  0  0
   -1.6174   48.8325   25.4482 H   0  0  0  0  0  0
   -2.4964   50.6577   26.6754 H   0  0  0  0  0  0
   -0.8529   51.1376   27.1448 H   0  0  0  0  0  0
   -1.6864   52.5190   25.1795 H   0  0  0  0  0  0
   -1.9867   51.0855   24.2475 H   0  0  0  0  0  0
   -2.0026   52.4384   22.1565 H   0  0  0  0  0  0
   -1.7182   49.6144   18.9339 H   0  0  0  0  0  0
   -1.2371   49.2407   20.6298 H   0  0  0  0  0  0
   -5.7360   49.8315   21.1462 H   0  0  0  0  0  0
   -7.7579   50.0303   19.7538 H   0  0  0  0  0  0
   -7.5773   50.8210   17.4204 H   0  0  0  0  0  0
   -5.3749   51.4012   16.4632 H   0  0  0  0  0  0
   -3.3441   51.2028   17.8386 H   0  0  0  0  0  0
    0.2864   54.5469   28.7304 H   0  0  0  0  0  0
   -0.3385   53.6162   30.9527 H   0  0  0  0  0  0
    1.2149   52.1176   32.1289 H   0  0  0  0  0  0
    3.3983   51.5354   31.1092 H   0  0  0  0  0  0
    3.9603   52.3252   28.8788 H   0  0  0  0  0  0
   -1.0762   48.8010   26.9857 H   0  0  0  0  0  0
  1  2  1  0  0  0
  1 40  1  0  0  0
  1 41  1  0  0  0
  1 42  1  0  0  0
  2  3  1  0  0  0
  2  4  1  0  0  0
  2 43  1  0  0  0
  3 44  1  0  0  0
  3 45  1  0  0  0
  3 46  1  0  0  0
  4  5  1  0  0  0
  4  6  1  0  0  0
  4 33  1  0  0  0
  6  7  2  0  0  0
  6  8  1  0  0  0
  8 13  1  0  0  0
  8  9  1  0  0  0
  9 10  1  0  0  0
  9 47  1  0  0  0
  9 48  1  0  0  0
 10 11  1  0  0  0
 10 12  1  0  0  0
 10 19  1  0  0  0
 12 18  1  0  0  0
 12 13  1  0  0  0
 12 14  1  0  0  0
 13 49  1  0  0  0
 13 50  1  0  0  0
 14 15  1  0  0  0
 14 51  1  0  0  0
 14 52  1  0  0  0
 15 16  1  0  0  0
 15 53  1  0  0  0
 15 54  1  0  0  0
 16 17  1  0  0  0
 16 55  1  0  0  0
 16 73  1  0  0  0
 17 18  1  0  0  0
 17 56  1  0  0  0
 17 57  1  0  0  0
 18 58  1  0  0  0
 18 59  1  0  0  0
 19 20  2  0  0  0
 19 21  1  0  0  0
 21 22  1  0  0  0
 21 60  1  0  0  0
 22 23  1  0  0  0
 22 25  1  0  0  0
 22 24  1  0  0  0
 24 25  1  0  0  0
 24 61  1  0  0  0
 24 62  1  0  0  0
 25 26  1  0  0  0
 25 27  1  0  0  0
 27 32  2  0  0  0
 27 28  1  0  0  0
 28 29  2  0  0  0
 28 63  1  0  0  0
 29 30  1  0  0  0
 29 64  1  0  0  0
 30 31  2  0  0  0
 30 65  1  0  0  0
 31 32  1  0  0  0
 31 66  1  0  0  0
 32 67  1  0  0  0
 33 34  1  0  0  0
 34 39  2  0  0  0
 34 35  1  0  0  0
 35 36  2  0  0  0
 35 68  1  0  0  0
 36 37  1  0  0  0
 36 69  1  0  0  0
 37 38  2  0  0  0
 37 70  1  0  0  0
 38 39  1  0  0  0
 38 71  1  0  0  0
 39 72  1  0  0  0
M  CHG  1  16   1
M  END
> <i_i_glide_confnum>
3

> <i_i_glide_lignum>
2203

> <i_i_glide_posenum>
220

> <i_i_glide_rotatable_bonds>
9

> <i_m_Source_File_Index>
3296

> <b_m_subgroup_collapsed>
0

> <r_i_docking_score>
-5.00985

> <r_i_glide_ecoul>
-4.76893

> <r_i_glide_eff_state_penalty>
0

> <r_i_glide_einternal>
11.0471

> <r_i_glide_emodel>
-54.9493

> <r_i_glide_energy>
-41.6836

> <r_i_glide_erotb>
0.624001

> <r_i_glide_esite>
-0.117288

> <r_i_glide_evdw>
-36.9147

> <r_i_glide_gscore>
-5.00985

> <r_i_glide_hbond>
-0.189831

> <r_i_glide_ligand_efficiency>
-0.143139

> <r_i_glide_ligand_efficiency_ln>
-1.09977

> <r_i_glide_ligand_efficiency_sa>
-0.468216

> <r_i_glide_lipo>
-2.02515

> <r_i_glide_metal>
0

> <r_i_glide_rewards>
-0.740517

> <s_i_glide_gridfile>
wee1_glide-grid

> <s_m_Source_File>
wee1_decoys_glide_SP.sdf

> <s_m_Source_Path>
/Users/zhangxujun/Desktop

> <s_m_entry_id>
3571

> <s_m_entry_name>
wee1_decoys_glide_SP.3296

> <s_m_subgroup_title>
wee1_decoys_glide_SP

> <s_m_subgroupid>
wee1_decoys_glide_SP


$$$$
