ZINC35668244_5645
                    3D
 Schrodinger Suite 2024-2.
 50 52  0  0  1  0            999 V2000
    7.0616   53.2805   27.6769 C   0  0  0  0  0  0
    7.1044   54.3099   26.6894 O   0  0  0  0  0  0
    6.1084   54.3086   25.7398 C   0  0  0  0  0  0
    6.4728   54.2307   24.3862 C   0  0  0  0  0  0
    5.5048   54.3021   23.3774 C   0  0  0  0  0  0
    4.1763   54.4967   23.7403 C   0  0  0  0  0  0
    3.8147   54.5891   25.0709 C   0  0  0  0  0  0
    4.7581   54.4753   26.0969 C   0  0  0  0  0  0
    4.4290   54.5479   27.4417 O   0  0  0  0  0  0
    3.0720   54.7324   27.8512 C   0  0  0  0  0  0
    2.2441   53.4489   27.7389 C   0  0  0  0  0  0
    1.2837   53.2967   26.7265 C   0  0  0  0  0  0
    0.4744   52.1703   26.6419 C   0  0  0  0  0  0
    0.6139   51.1663   27.5838 C   0  0  0  0  0  0
    1.5734   51.2967   28.5821 C   0  0  0  0  0  0
    2.3918   52.4177   28.6721 C   0  0  0  0  0  0
    3.6754   52.4968   30.0817 Br  0  0  0  0  0  0
    5.8516   54.2667   21.9435 C   0  0  0  0  0  0
    5.2464   53.5410   20.9606 C   0  0  0  0  0  0
    4.1850   52.4521   21.2238 C   0  0  0  0  0  0
    3.0065   52.8583   21.3174 O   0  0  0  0  0  0
    4.6554   51.2967   21.2817 O   0  5  0  0  0  0
    5.5051   53.6017   19.6172 N   0  0  0  0  0  0
    5.9042   54.6780   18.9012 C   0  0  0  0  0  0
    6.0928   55.7971   19.3889 O   0  0  0  0  0  0
    6.1413   54.4443   17.4227 C   0  0  0  0  0  0
    5.6627   53.2962   16.7669 C   0  0  0  0  0  0
    5.9006   53.1056   15.4089 C   0  0  0  0  0  0
    6.6125   54.0607   14.6901 C   0  0  0  0  0  0
    7.0882   55.2073   15.3193 C   0  0  0  0  0  0
    6.8524   55.3980   16.6782 C   0  0  0  0  0  0
    7.3376   53.6996   28.6451 H   0  0  0  0  0  0
    6.0931   52.7922   27.7929 H   0  0  0  0  0  0
    7.7841   52.4999   27.4448 H   0  0  0  0  0  0
    7.5127   54.1211   24.1202 H   0  0  0  0  0  0
    3.4135   54.6242   22.9861 H   0  0  0  0  0  0
    2.7882   54.8114   25.2580 H   0  0  0  0  0  0
    3.0737   55.0607   28.8908 H   0  0  0  0  0  0
    2.6218   55.5616   27.3151 H   0  0  0  0  0  0
    1.1049   54.0699   26.0008 H   0  0  0  0  0  0
   -0.2652   52.0834   25.8590 H   0  0  0  0  0  0
   -0.0137   50.2860   27.5368 H   0  0  0  0  0  0
    1.6903   50.4967   29.2818 H   0  0  0  0  0  0
    6.6472   54.9442   21.6709 H   0  0  0  0  0  0
    5.3183   52.7473   19.1081 H   0  0  0  0  0  0
    5.1054   52.5282   17.2865 H   0  0  0  0  0  0
    5.5326   52.2162   14.9186 H   0  0  0  0  0  0
    6.7966   53.9112   13.6363 H   0  0  0  0  0  0
    7.6387   55.9465   14.7567 H   0  0  0  0  0  0
    7.2311   56.2954   17.1482 H   0  0  0  0  0  0
  1  2  1  0  0  0
  1 32  1  0  0  0
  1 33  1  0  0  0
  1 34  1  0  0  0
  2  3  1  0  0  0
  3  8  2  0  0  0
  3  4  1  0  0  0
  4  5  2  0  0  0
  4 35  1  0  0  0
  5  6  1  0  0  0
  5 18  1  0  0  0
  6  7  2  0  0  0
  6 36  1  0  0  0
  7  8  1  0  0  0
  7 37  1  0  0  0
  8  9  1  0  0  0
  9 10  1  0  0  0
 10 11  1  0  0  0
 10 38  1  0  0  0
 10 39  1  0  0  0
 11 16  2  0  0  0
 11 12  1  0  0  0
 12 13  2  0  0  0
 12 40  1  0  0  0
 13 14  1  0  0  0
 13 41  1  0  0  0
 14 15  2  0  0  0
 14 42  1  0  0  0
 15 16  1  0  0  0
 15 43  1  0  0  0
 16 17  1  0  0  0
 18 19  2  0  0  0
 18 44  1  0  0  0
 19 20  1  0  0  0
 19 23  1  0  0  0
 20 21  2  0  0  0
 20 22  1  0  0  0
 23 24  1  0  0  0
 23 45  1  0  0  0
 24 25  2  0  0  0
 24 26  1  0  0  0
 26 31  2  0  0  0
 26 27  1  0  0  0
 27 28  2  0  0  0
 27 46  1  0  0  0
 28 29  1  0  0  0
 28 47  1  0  0  0
 29 30  2  0  0  0
 29 48  1  0  0  0
 30 31  1  0  0  0
 30 49  1  0  0  0
 31 50  1  0  0  0
M  CHG  1  22  -1
M  END
> <i_i_glide_confnum>
167

> <i_i_glide_lignum>
5646

> <i_i_glide_posenum>
381

> <i_i_glide_rotatable_bonds>
9

> <i_m_Source_File_Index>
2249

> <b_m_subgroup_collapsed>
0

> <r_i_docking_score>
-5.45847

> <r_i_glide_ecoul>
-4.94029

> <r_i_glide_eff_state_penalty>
0

> <r_i_glide_einternal>
10.2194

> <r_i_glide_emodel>
-52.9025

> <r_i_glide_energy>
-42.5961

> <r_i_glide_erotb>
0.612947

> <r_i_glide_esite>
-0.0370114

> <r_i_glide_evdw>
-37.6558

> <r_i_glide_gscore>
-5.45847

> <r_i_glide_hbond>
-0.166577

> <r_i_glide_ligand_efficiency>
-0.17608

> <r_i_glide_ligand_efficiency_ln>
-1.23105

> <r_i_glide_ligand_efficiency_sa>
-0.553133

> <r_i_glide_lipo>
-2.98292

> <r_i_glide_metal>
0

> <r_i_glide_rewards>
-0.261077

> <s_i_glide_gridfile>
wee1_glide-grid

> <s_m_Source_File>
wee1_decoys_glide_SP.sdf

> <s_m_Source_Path>
/Users/zhangxujun/Desktop

> <s_m_entry_id>
2524

> <s_m_entry_name>
wee1_decoys_glide_SP.2249

> <s_m_subgroup_title>
wee1_decoys_glide_SP

> <s_m_subgroupid>
wee1_decoys_glide_SP


$$$$
