ZINC64930547_2791
                    3D
 Schrodinger Suite 2024-2.
 50 53  0  0  1  0            999 V2000
   -0.4633   49.4706   21.4707 C   0  0  0  0  0  0
   -1.2797   49.8232   22.5426 C   0  0  0  0  0  0
   -0.7093   50.1134   23.7801 C   0  0  0  0  0  0
    0.6706   50.0449   23.9585 C   0  0  0  0  0  0
    1.4884   49.6961   22.8877 C   0  0  0  0  0  0
    0.9234   49.4232   21.6391 C   0  0  0  0  0  0
    1.8210   49.0393   20.4687 C   0  0  0  0  0  0
    2.2226   50.2006   19.6767 N   0  0  0  0  0  0
    3.1041   51.1351   20.0807 C   0  0  0  0  0  0
    3.9065   50.8967   20.9840 O   0  0  0  0  0  0
    3.0753   52.3243   19.4143 N   0  0  0  0  0  0
    2.0992   52.6457   18.3502 C   0  0  0  0  0  0
    2.9306   53.4706   17.3708 C   0  0  0  0  0  0
    3.9099   54.2155   18.2523 C   0  0  0  0  0  0
    4.2813   53.1822   19.3197 C   0  0  1  0  0  0
    5.0978   52.5655   18.9355 H   0  0  0  0  0  0
    4.8024   53.8320   20.6028 C   0  0  0  0  0  0
    5.9051   54.5386   20.6190 N   0  0  0  0  0  0
    6.3218   54.9013   21.8929 N   0  0  0  0  0  0
    5.5215   54.4965   22.8505 C   0  0  0  0  0  0
    4.1027   53.6992   22.1940 S   0  0  0  0  0  0
    5.6995   54.6550   24.2798 C   0  0  0  0  0  0
    6.7044   55.2140   24.7225 O   0  0  0  0  0  0
    4.6881   54.1712   25.0332 N   0  0  0  0  0  0
    4.5513   54.1117   26.4273 C   0  0  0  0  0  0
    3.3022   53.6967   26.8963 C   0  0  0  0  0  0
    3.0792   53.5631   28.2631 C   0  0  0  0  0  0
    4.1057   53.8481   29.1571 C   0  0  0  0  0  0
    5.3478   54.2760   28.6998 C   0  0  0  0  0  0
    5.5789   54.4041   27.3363 C   0  0  0  0  0  0
    3.8979   53.6968   30.4812 F   0  0  0  0  0  0
   -1.5028   50.4679   24.8152 F   0  0  0  0  0  0
   -0.9054   49.2494   20.5094 H   0  0  0  0  0  0
   -2.3513   49.8739   22.4187 H   0  0  0  0  0  0
    1.1036   50.2563   24.9243 H   0  0  0  0  0  0
    2.5592   49.6407   23.0289 H   0  0  0  0  0  0
    1.2950   48.3397   19.8175 H   0  0  0  0  0  0
    2.7036   48.5030   20.8294 H   0  0  0  0  0  0
    1.6849   50.3900   18.8465 H   0  0  0  0  0  0
    1.3285   53.3123   18.7368 H   0  0  0  0  0  0
    1.7147   51.7900   17.7945 H   0  0  0  0  0  0
    2.3183   54.1256   16.7505 H   0  0  0  0  0  0
    3.4719   52.8042   16.6949 H   0  0  0  0  0  0
    3.4250   55.0870   18.6956 H   0  0  0  0  0  0
    4.7799   54.5586   17.6911 H   0  0  0  0  0  0
    3.9143   53.7779   24.5209 H   0  0  0  0  0  0
    2.5018   53.4614   26.2088 H   0  0  0  0  0  0
    2.1190   53.2303   28.6282 H   0  0  0  0  0  0
    6.1406   54.4969   29.3979 H   0  0  0  0  0  0
    6.5622   54.7124   27.0226 H   0  0  0  0  0  0
  1  6  2  0  0  0
  1  2  1  0  0  0
  1 33  1  0  0  0
  2  3  2  0  0  0
  2 34  1  0  0  0
  3  4  1  0  0  0
  3 32  1  0  0  0
  4  5  2  0  0  0
  4 35  1  0  0  0
  5  6  1  0  0  0
  5 36  1  0  0  0
  6  7  1  0  0  0
  7  8  1  0  0  0
  7 37  1  0  0  0
  7 38  1  0  0  0
  8  9  1  0  0  0
  8 39  1  0  0  0
  9 10  2  0  0  0
  9 11  1  0  0  0
 11 15  1  0  0  0
 11 12  1  0  0  0
 12 13  1  0  0  0
 12 40  1  0  0  0
 12 41  1  0  0  0
 13 14  1  0  0  0
 13 42  1  0  0  0
 13 43  1  0  0  0
 14 15  1  0  0  0
 14 44  1  0  0  0
 14 45  1  0  0  0
 15 16  1  0  0  0
 15 17  1  0  0  0
 17 21  1  0  0  0
 17 18  2  0  0  0
 18 19  1  0  0  0
 19 20  2  0  0  0
 20 21  1  0  0  0
 20 22  1  0  0  0
 22 23  2  0  0  0
 22 24  1  0  0  0
 24 25  1  0  0  0
 24 46  1  0  0  0
 25 30  2  0  0  0
 25 26  1  0  0  0
 26 27  2  0  0  0
 26 47  1  0  0  0
 27 28  1  0  0  0
 27 48  1  0  0  0
 28 29  2  0  0  0
 28 31  1  0  0  0
 29 30  1  0  0  0
 29 49  1  0  0  0
 30 50  1  0  0  0
M  END
> <i_i_glide_confnum>
218

> <i_i_glide_lignum>
2792

> <i_i_glide_posenum>
106

> <i_i_glide_rotatable_bonds>
8

> <i_m_Source_File_Index>
4138

> <b_m_subgroup_collapsed>
0

> <r_i_docking_score>
-5.10911

> <r_i_glide_ecoul>
-5.77126

> <r_i_glide_eff_state_penalty>
0

> <r_i_glide_einternal>
11.097

> <r_i_glide_emodel>
-56.9197

> <r_i_glide_energy>
-48.1024

> <r_i_glide_erotb>
0.711579

> <r_i_glide_esite>
-0.198051

> <r_i_glide_evdw>
-42.3311

> <r_i_glide_gscore>
-5.10911

> <r_i_glide_hbond>
-0.0217597

> <r_i_glide_ligand_efficiency>
-0.16481

> <r_i_glide_ligand_efficiency_ln>
-1.15226

> <r_i_glide_ligand_efficiency_sa>
-0.517731

> <r_i_glide_lipo>
-1.87037

> <r_i_glide_metal>
0

> <r_i_glide_rewards>
-0.748267

> <s_i_glide_gridfile>
wee1_glide-grid

> <s_m_Source_File>
wee1_decoys_glide_SP.sdf

> <s_m_Source_Path>
/Users/zhangxujun/Desktop

> <s_m_entry_id>
4413

> <s_m_entry_name>
wee1_decoys_glide_SP.4138

> <s_m_subgroup_title>
wee1_decoys_glide_SP

> <s_m_subgroupid>
wee1_decoys_glide_SP


$$$$
