ZINC09064673_1980
                    3D
 Schrodinger Suite 2024-2.
 52 54  0  0  1  0            999 V2000
    0.6304   49.7995   26.8815 C   0  0  0  0  0  0
   -0.1273   50.6633   25.9287 C   0  0  0  0  0  0
   -0.0402   50.3931   24.5690 C   0  0  0  0  0  0
   -0.8264   51.1115   23.6845 C   0  0  0  0  0  0
   -1.7152   52.0899   24.1560 C   0  0  0  0  0  0
   -1.7883   52.3615   25.5276 C   0  0  0  0  0  0
   -0.9841   51.6653   26.4150 C   0  0  0  0  0  0
   -1.0150   52.0144   27.7815 N   0  0  0  0  0  0
   -0.0035   52.6213   28.4690 C   0  0  0  0  0  0
   -0.0954   52.7183   30.1274 S   0  0  0  0  0  0
    1.0006   53.0821   27.6660 N   0  0  0  0  0  0
    2.1772   53.7003   27.8760 C   0  0  0  0  0  0
    2.6057   54.0853   28.9685 O   0  0  0  0  0  0
    2.9809   53.8884   26.6092 C   0  0  0  0  0  0
    2.4333   53.6965   25.3292 C   0  0  0  0  0  0
    3.1992   53.9067   24.1892 C   0  0  0  0  0  0
    4.5365   54.3182   24.2705 C   0  0  0  0  0  0
    5.0822   54.5354   25.5621 C   0  0  0  0  0  0
    4.3083   54.2938   26.7002 C   0  0  0  0  0  0
    6.3989   55.1539   25.7908 N   0  3  0  0  0  0
    7.0466   54.7871   26.7656 O   0  0  0  0  0  0
    6.7502   56.0688   25.0602 O   0  5  0  0  0  0
    5.2687   54.4967   23.0925 N   0  0  0  0  0  0
    6.6213   53.9461   22.9422 C   0  0  0  0  0  0
    7.5045   54.8966   22.1060 C   0  0  0  0  0  0
    6.9535   55.1373   20.6958 C   0  0  0  0  0  0
    5.5059   55.5850   20.8238 C   0  0  0  0  0  0
    4.6621   54.6661   21.7523 C   0  0  0  0  0  0
   -2.5765   52.8315   23.2077 C   0  0  0  0  0  0
   -2.4955   52.4966   22.0035 O   0  0  0  0  0  0
    0.8663   48.8114   26.4829 H   0  0  0  0  0  0
    1.5114   50.2926   27.2821 H   0  0  0  0  0  0
   -0.0958   49.6967   27.6818 H   0  0  0  0  0  0
    0.6150   49.6164   24.2008 H   0  0  0  0  0  0
   -0.7539   50.8847   22.6295 H   0  0  0  0  0  0
   -2.4573   53.1235   25.9051 H   0  0  0  0  0  0
   -1.8000   51.6694   28.3161 H   0  0  0  0  0  0
    0.8519   52.8475   26.6973 H   0  0  0  0  0  0
    1.4081   53.3875   25.1814 H   0  0  0  0  0  0
    2.7327   53.7234   23.2330 H   0  0  0  0  0  0
    4.7399   54.4780   27.6763 H   0  0  0  0  0  0
    7.1128   53.7560   23.8943 H   0  0  0  0  0  0
    6.5116   52.9658   22.4819 H   0  0  0  0  0  0
    7.6040   55.8513   22.6236 H   0  0  0  0  0  0
    8.5101   54.4969   22.0718 H   0  0  0  0  0  0
    6.9886   54.2472   20.0709 H   0  0  0  0  0  0
    7.5468   55.8934   20.1797 H   0  0  0  0  0  0
    5.0578   55.6135   19.8299 H   0  0  0  0  0  0
    5.5042   56.6151   21.1785 H   0  0  0  0  0  0
    4.4975   53.6877   21.2976 H   0  0  0  0  0  0
    3.6842   55.1360   21.8602 H   0  0  0  0  0  0
   -3.3073   53.7330   23.6815 O   0  5  0  0  0  0
  1  2  1  0  0  0
  1 31  1  0  0  0
  1 32  1  0  0  0
  1 33  1  0  0  0
  2  7  2  0  0  0
  2  3  1  0  0  0
  3  4  2  0  0  0
  3 34  1  0  0  0
  4  5  1  0  0  0
  4 35  1  0  0  0
  5  6  2  0  0  0
  5 29  1  0  0  0
  6  7  1  0  0  0
  6 36  1  0  0  0
  7  8  1  0  0  0
  8  9  1  0  0  0
  8 37  1  0  0  0
  9 10  2  0  0  0
  9 11  1  0  0  0
 11 12  1  0  0  0
 11 38  1  0  0  0
 12 13  2  0  0  0
 12 14  1  0  0  0
 14 19  2  0  0  0
 14 15  1  0  0  0
 15 16  2  0  0  0
 15 39  1  0  0  0
 16 17  1  0  0  0
 16 40  1  0  0  0
 17 18  2  0  0  0
 17 23  1  0  0  0
 18 19  1  0  0  0
 18 20  1  0  0  0
 19 41  1  0  0  0
 20 21  2  0  0  0
 20 22  1  0  0  0
 23 28  1  0  0  0
 23 24  1  0  0  0
 24 25  1  0  0  0
 24 42  1  0  0  0
 24 43  1  0  0  0
 25 26  1  0  0  0
 25 44  1  0  0  0
 25 45  1  0  0  0
 26 27  1  0  0  0
 26 46  1  0  0  0
 26 47  1  0  0  0
 27 28  1  0  0  0
 27 48  1  0  0  0
 27 49  1  0  0  0
 28 50  1  0  0  0
 28 51  1  0  0  0
 29 30  2  0  0  0
 29 52  1  0  0  0
M  CHG  3  20   1  22  -1  52  -1
M  END
> <i_i_glide_confnum>
132

> <i_i_glide_lignum>
1981

> <i_i_glide_posenum>
353

> <i_i_glide_rotatable_bonds>
8

> <i_m_Source_File_Index>
4417

> <b_m_subgroup_collapsed>
0

> <r_i_docking_score>
-5.61865

> <r_i_glide_ecoul>
-6.03889

> <r_i_glide_eff_state_penalty>
0

> <r_i_glide_einternal>
8.53595

> <r_i_glide_emodel>
-50.8078

> <r_i_glide_energy>
-41.0439

> <r_i_glide_erotb>
0.614924

> <r_i_glide_esite>
-0.0618236

> <r_i_glide_evdw>
-35.005

> <r_i_glide_gscore>
-5.61865

> <r_i_glide_hbond>
-0.00574099

> <r_i_glide_ligand_efficiency>
-0.181247

> <r_i_glide_ligand_efficiency_ln>
-1.26718

> <r_i_glide_ligand_efficiency_sa>
-0.569365

> <r_i_glide_lipo>
-1.95264

> <r_i_glide_metal>
0

> <r_i_glide_rewards>
-1.55728

> <s_i_glide_gridfile>
wee1_glide-grid

> <s_m_Source_File>
wee1_decoys_glide_SP.sdf

> <s_m_Source_Path>
/Users/zhangxujun/Desktop

> <s_m_entry_id>
4692

> <s_m_entry_name>
wee1_decoys_glide_SP.4417

> <s_m_subgroup_title>
wee1_decoys_glide_SP

> <s_m_subgroupid>
wee1_decoys_glide_SP


$$$$
