ZINC33260009_3385
                    3D
 Schrodinger Suite 2024-2.
 65 67  0  0  1  0            999 V2000
    6.7074   54.8507   22.9692 C   0  0  0  0  0  0
    5.8582   54.5323   24.1868 C   0  0  0  0  0  0
    4.4898   54.3375   24.0602 C   0  0  0  0  0  0
    3.6823   54.1045   25.1777 C   0  0  0  0  0  0
    4.2527   54.0876   26.4784 C   0  0  0  0  0  0
    5.6608   54.2126   26.5838 C   0  0  0  0  0  0
    6.4362   54.4481   25.4451 C   0  0  0  0  0  0
    6.4180   54.0572   27.8915 C   0  0  0  0  0  0
    3.2013   54.0468   27.9818 S   0  0  0  0  0  0
    1.9393   54.7278   27.6821 O   0  0  0  0  0  0
    3.9695   54.5056   29.1431 O   0  0  0  0  0  0
    2.8184   52.3490   28.2822 N   0  0  0  0  0  0
    1.4688   51.9876   28.3825 C   0  0  0  0  0  0
    0.8818   51.4224   27.2582 C   0  0  0  0  0  0
   -0.4897   51.1918   27.2013 C   0  0  0  0  0  0
   -1.3074   51.4900   28.2942 C   0  0  0  0  0  0
   -0.6977   51.9790   29.4571 C   0  0  0  0  0  0
    0.6790   52.2356   29.5215 C   0  0  0  0  0  0
    1.2552   52.7589   30.7933 C   0  0  0  0  0  0
    0.6424   53.6989   31.3473 O   0  0  0  0  0  0
    2.3070   52.2217   31.2176 O   0  5  0  0  0  0
   -2.6851   51.2966   28.2351 N   0  0  0  0  0  0
   -3.4886   50.7626   29.3495 C   0  0  0  0  0  0
   -4.3587   49.5313   28.9910 C   0  0  0  0  0  0
   -5.1433   49.7341   27.7646 N   0  0  0  0  0  0
   -4.2151   50.0817   26.6793 C   0  0  0  0  0  0
   -3.4966   51.4038   27.0141 C   0  0  0  0  0  0
   -5.9105   48.5086   27.4665 C   0  0  0  0  0  0
   -7.0525   48.7193   26.4292 C   0  0  0  0  0  0
   -7.2967   49.8488   25.9917 O   0  0  0  0  0  0
   -7.7693   47.6348   26.0295 N   0  0  0  0  0  0
   -8.8473   47.7342   25.0395 C   0  0  0  0  0  0
   -7.5738   46.2690   26.5226 C   0  0  0  0  0  0
    2.2173   53.8148   24.8786 C   0  0  0  0  0  0
    7.5031   55.5555   23.2184 H   0  0  0  0  0  0
    7.1680   53.9483   22.5733 H   0  0  0  0  0  0
    6.1134   55.3156   22.1824 H   0  0  0  0  0  0
    4.0512   54.3734   23.0723 H   0  0  0  0  0  0
    7.5046   54.5591   25.5313 H   0  0  0  0  0  0
    7.4815   53.8702   27.7384 H   0  0  0  0  0  0
    6.3046   54.9595   28.4868 H   0  0  0  0  0  0
    6.0365   53.2070   28.4584 H   0  0  0  0  0  0
    3.3255   51.7665   27.6344 H   0  0  0  0  0  0
    1.4949   51.1963   26.4050 H   0  0  0  0  0  0
   -0.9060   50.7624   26.3030 H   0  0  0  0  0  0
   -1.2956   52.1726   30.3342 H   0  0  0  0  0  0
   -2.8594   50.5012   30.2012 H   0  0  0  0  0  0
   -4.1417   51.5678   29.6819 H   0  0  0  0  0  0
   -5.0124   49.3123   29.8371 H   0  0  0  0  0  0
   -3.6959   48.6763   28.8502 H   0  0  0  0  0  0
   -3.4849   49.2871   26.5089 H   0  0  0  0  0  0
   -4.7666   50.2300   25.7504 H   0  0  0  0  0  0
   -2.8773   51.6973   26.1672 H   0  0  0  0  0  0
   -4.2131   52.2176   27.1363 H   0  0  0  0  0  0
   -6.3877   48.1483   28.3810 H   0  0  0  0  0  0
   -5.2329   47.7220   27.1227 H   0  0  0  0  0  0
   -9.0089   48.7515   24.6803 H   0  0  0  0  0  0
   -9.7864   47.3839   25.4685 H   0  0  0  0  0  0
   -8.6236   47.1090   24.1749 H   0  0  0  0  0  0
   -6.8003   46.1692   27.2834 H   0  0  0  0  0  0
   -8.5019   45.8957   26.9584 H   0  0  0  0  0  0
   -7.3096   45.6079   25.6962 H   0  0  0  0  0  0
    1.9926   53.8517   23.8128 H   0  0  0  0  0  0
    1.9769   52.8143   25.2116 H   0  0  0  0  0  0
    1.5263   54.4965   25.3572 H   0  0  0  0  0  0
  1  2  1  0  0  0
  1 35  1  0  0  0
  1 36  1  0  0  0
  1 37  1  0  0  0
  2  7  2  0  0  0
  2  3  1  0  0  0
  3  4  2  0  0  0
  3 38  1  0  0  0
  4  5  1  0  0  0
  4 34  1  0  0  0
  5  6  2  0  0  0
  5  9  1  0  0  0
  6  7  1  0  0  0
  6  8  1  0  0  0
  7 39  1  0  0  0
  8 40  1  0  0  0
  8 41  1  0  0  0
  8 42  1  0  0  0
  9 10  2  0  0  0
  9 11  2  0  0  0
  9 12  1  0  0  0
 12 13  1  0  0  0
 12 43  1  0  0  0
 13 18  2  0  0  0
 13 14  1  0  0  0
 14 15  2  0  0  0
 14 44  1  0  0  0
 15 16  1  0  0  0
 15 45  1  0  0  0
 16 17  2  0  0  0
 16 22  1  0  0  0
 17 18  1  0  0  0
 17 46  1  0  0  0
 18 19  1  0  0  0
 19 20  2  0  0  0
 19 21  1  0  0  0
 22 27  1  0  0  0
 22 23  1  0  0  0
 23 24  1  0  0  0
 23 47  1  0  0  0
 23 48  1  0  0  0
 24 25  1  0  0  0
 24 49  1  0  0  0
 24 50  1  0  0  0
 25 26  1  0  0  0
 25 28  1  0  0  0
 26 27  1  0  0  0
 26 51  1  0  0  0
 26 52  1  0  0  0
 27 53  1  0  0  0
 27 54  1  0  0  0
 28 29  1  0  0  0
 28 55  1  0  0  0
 28 56  1  0  0  0
 29 30  2  0  0  0
 29 31  1  0  0  0
 31 32  1  0  0  0
 31 33  1  0  0  0
 32 57  1  0  0  0
 32 58  1  0  0  0
 32 59  1  0  0  0
 33 60  1  0  0  0
 33 61  1  0  0  0
 33 62  1  0  0  0
 34 63  1  0  0  0
 34 64  1  0  0  0
 34 65  1  0  0  0
M  CHG  1  21  -1
M  END
> <i_i_glide_confnum>
80

> <i_i_glide_lignum>
3386

> <i_i_glide_posenum>
210

> <i_i_glide_rotatable_bonds>
8

> <i_m_Source_File_Index>
298

> <b_m_subgroup_collapsed>
0

> <r_i_docking_score>
-5.21

> <r_i_glide_ecoul>
-5.05912

> <r_i_glide_eff_state_penalty>
0

> <r_i_glide_einternal>
16.0185

> <r_i_glide_emodel>
-48.5994

> <r_i_glide_energy>
-43.2327

> <r_i_glide_erotb>
0.513078

> <r_i_glide_esite>
-0.123152

> <r_i_glide_evdw>
-38.1736

> <r_i_glide_gscore>
-5.21

> <r_i_glide_hbond>
-0.114623

> <r_i_glide_ligand_efficiency>
-0.153235

> <r_i_glide_ligand_efficiency_ln>
-1.15104

> <r_i_glide_ligand_efficiency_sa>
-0.496423

> <r_i_glide_lipo>
-2.6582

> <r_i_glide_metal>
0

> <r_i_glide_rewards>
-0.159554

> <s_i_glide_gridfile>
wee1_glide-grid

> <s_m_Source_File>
wee1_decoys_glide_SP.sdf

> <s_m_Source_Path>
/Users/zhangxujun/Desktop

> <s_m_entry_id>
573

> <s_m_entry_name>
wee1_decoys_glide_SP.298

> <s_m_subgroup_title>
wee1_decoys_glide_SP

> <s_m_subgroupid>
wee1_decoys_glide_SP


$$$$
