ZINC49741019_3785
                    3D
 Schrodinger Suite 2024-2.
 44 47  0  0  1  0            999 V2000
    3.2483   53.7837   24.2752 C   0  0  0  0  0  0
    4.0877   54.2450   25.2914 C   0  0  0  0  0  0
    3.6740   54.1261   26.6144 C   0  0  0  0  0  0
    2.4473   53.5784   26.9385 C   0  0  0  0  0  0
    1.6064   53.1080   25.9284 C   0  0  0  0  0  0
    2.0077   53.2106   24.5832 C   0  0  0  0  0  0
    1.2640   52.6947   23.5102 N   0  0  0  0  0  0
   -0.0673   52.4958   23.4373 C   0  0  0  0  0  0
   -0.8777   52.8852   24.2817 O   0  0  0  0  0  0
   -0.5429   51.7785   22.1606 C   0  0  0  0  0  0
   -0.3225   50.2549   22.2062 C   0  0  0  0  0  0
   -1.6658   50.1268   21.4677 C   0  0  0  0  0  0
   -2.0562   51.4805   22.0858 C   0  0  0  0  0  0
    2.2859   53.6477   28.4325 C   0  0  0  0  0  0
    2.0468   52.2540   29.0921 C   0  0  0  0  0  0
    1.8482   52.3381   30.6269 C   0  0  0  0  0  0
    0.7009   53.3004   31.0005 C   0  0  0  0  0  0
    0.8237   54.6858   30.3260 C   0  0  0  0  0  0
    1.0906   54.5681   28.8078 C   0  0  0  0  0  0
    3.6337   54.2602   28.8899 C   0  0  0  0  0  0
    3.9963   54.4958   30.0409 O   0  0  0  0  0  0
    4.3381   54.4968   27.7713 N   0  0  0  0  0  0
    3.5773   53.8600   23.2472 H   0  0  0  0  0  0
    5.0462   54.6755   25.0393 H   0  0  0  0  0  0
    0.6611   52.6544   26.1923 H   0  0  0  0  0  0
    1.7972   52.4778   22.6799 H   0  0  0  0  0  0
   -0.1510   52.2555   21.2575 H   0  0  0  0  0  0
   -0.3602   49.8091   23.2047 H   0  0  0  0  0  0
    0.5571   49.8805   21.6778 H   0  0  0  0  0  0
   -2.2878   49.2786   21.7579 H   0  0  0  0  0  0
   -1.5744   50.1470   20.3793 H   0  0  0  0  0  0
   -2.6408   52.1409   21.4478 H   0  0  0  0  0  0
   -2.5631   51.3566   23.0460 H   0  0  0  0  0  0
    1.1420   51.8117   28.6691 H   0  0  0  0  0  0
    2.8377   51.5521   28.8260 H   0  0  0  0  0  0
    1.6352   51.3559   31.0364 H   0  0  0  0  0  0
    2.7696   52.6400   31.1230 H   0  0  0  0  0  0
   -0.2485   52.8466   30.7094 H   0  0  0  0  0  0
    0.6500   53.4154   32.0861 H   0  0  0  0  0  0
   -0.0927   55.2558   30.4885 H   0  0  0  0  0  0
    1.6119   55.2715   30.8042 H   0  0  0  0  0  0
    1.1827   55.5544   28.3424 H   0  0  0  0  0  0
    0.1827   54.1499   28.3658 H   0  0  0  0  0  0
    5.2655   54.8945   27.7967 H   0  0  0  0  0  0
  1  6  2  0  0  0
  1  2  1  0  0  0
  1 23  1  0  0  0
  2  3  2  0  0  0
  2 24  1  0  0  0
  3 22  1  0  0  0
  3  4  1  0  0  0
  4  5  2  0  0  0
  4 14  1  0  0  0
  5  6  1  0  0  0
  5 25  1  0  0  0
  6  7  1  0  0  0
  7  8  1  0  0  0
  7 26  1  0  0  0
  8  9  2  0  0  0
  8 10  1  0  0  0
 10 13  1  0  0  0
 10 11  1  0  0  0
 10 27  1  0  0  0
 11 12  1  0  0  0
 11 28  1  0  0  0
 11 29  1  0  0  0
 12 13  1  0  0  0
 12 30  1  0  0  0
 12 31  1  0  0  0
 13 32  1  0  0  0
 13 33  1  0  0  0
 14 19  1  0  0  0
 14 15  1  0  0  0
 14 20  1  0  0  0
 15 16  1  0  0  0
 15 34  1  0  0  0
 15 35  1  0  0  0
 16 17  1  0  0  0
 16 36  1  0  0  0
 16 37  1  0  0  0
 17 18  1  0  0  0
 17 38  1  0  0  0
 17 39  1  0  0  0
 18 19  1  0  0  0
 18 40  1  0  0  0
 18 41  1  0  0  0
 19 42  1  0  0  0
 19 43  1  0  0  0
 20 21  2  0  0  0
 20 22  1  0  0  0
 22 44  1  0  0  0
M  END
> <i_i_glide_confnum>
5

> <i_i_glide_lignum>
3786

> <i_i_glide_posenum>
169

> <i_i_glide_rotatable_bonds>
3

> <i_m_Source_File_Index>
1511

> <b_m_subgroup_collapsed>
0

> <r_i_docking_score>
-5.76675

> <r_i_glide_ecoul>
-2.63855

> <r_i_glide_eff_state_penalty>
0

> <r_i_glide_einternal>
3.84808

> <r_i_glide_emodel>
-48.3111

> <r_i_glide_energy>
-35.5977

> <r_i_glide_erotb>
0.618332

> <r_i_glide_esite>
0

> <r_i_glide_evdw>
-32.9592

> <r_i_glide_gscore>
-5.76675

> <r_i_glide_hbond>
-0.32

> <r_i_glide_ligand_efficiency>
-0.262125

> <r_i_glide_ligand_efficiency_ln>
-1.4096

> <r_i_glide_ligand_efficiency_sa>
-0.734485

> <r_i_glide_lipo>
-2.18004

> <r_i_glide_metal>
0

> <r_i_glide_rewards>
-1.8413

> <s_i_glide_gridfile>
wee1_glide-grid

> <s_m_Source_File>
wee1_decoys_glide_SP.sdf

> <s_m_Source_Path>
/Users/zhangxujun/Desktop

> <s_m_entry_id>
1786

> <s_m_entry_name>
wee1_decoys_glide_SP.1511

> <s_m_subgroup_title>
wee1_decoys_glide_SP

> <s_m_subgroupid>
wee1_decoys_glide_SP


$$$$
