ZINC09131709_1774
                    3D
 Schrodinger Suite 2024-2.
 33 35  0  0  1  0            999 V2000
    3.6615   54.0990   26.4475 C   0  0  0  0  0  0
    3.1318   53.9735   27.7291 C   0  0  0  0  0  0
    3.9470   54.1766   28.8372 C   0  0  0  0  0  0
    5.2899   54.4964   28.6724 C   0  0  0  0  0  0
    5.8285   54.6041   27.3946 C   0  0  0  0  0  0
    5.0191   54.4202   26.2643 C   0  0  0  0  0  0
    5.6116   54.6141   24.8845 C   0  0  0  0  0  0
    6.6718   55.2323   24.7495 O   0  0  0  0  0  0
    4.9134   54.0589   23.8665 N   0  0  0  0  0  0
    5.2000   54.1365   22.5106 C   0  0  0  0  0  0
    6.0702   54.9403   21.9315 N   0  0  0  0  0  0
    5.9923   54.8485   20.6164 C   0  0  0  0  0  0
    5.0932   53.9372   20.1189 C   0  0  0  0  0  0
    4.2417   53.1699   21.4197 S   0  0  0  0  0  0
    5.0884   53.8632   18.6201 C   0  0  0  0  0  0
    6.3684   54.6530   18.2745 C   0  0  0  0  0  0
    6.7266   55.5580   19.4895 C   0  0  2  0  0  0
    6.3509   56.5716   19.3504 H   0  0  0  0  0  0
    8.2480   55.6945   19.7452 C   0  0  0  0  0  0
    8.7038   55.6963   20.8822 O   0  0  0  0  0  0
    9.0668   55.8363   18.7047 N   0  0  0  0  0  0
    3.4288   54.0757   30.0816 F   0  0  0  0  0  0
    2.9921   53.9625   25.6099 H   0  0  0  0  0  0
    2.0880   53.7310   27.8652 H   0  0  0  0  0  0
    5.9105   54.6793   29.5352 H   0  0  0  0  0  0
    6.8752   54.8596   27.2980 H   0  0  0  0  0  0
    4.1546   53.4474   24.1209 H   0  0  0  0  0  0
    4.1986   54.3236   18.1914 H   0  0  0  0  0  0
    5.1465   52.8427   18.2412 H   0  0  0  0  0  0
    6.2483   55.2275   17.3567 H   0  0  0  0  0  0
    7.1618   53.9265   18.0836 H   0  0  0  0  0  0
    8.7222   55.8265   17.7572 H   0  0  0  0  0  0
   10.0590   55.9135   18.8913 H   0  0  0  0  0  0
  1  6  2  0  0  0
  1  2  1  0  0  0
  1 23  1  0  0  0
  2  3  2  0  0  0
  2 24  1  0  0  0
  3  4  1  0  0  0
  3 22  1  0  0  0
  4  5  2  0  0  0
  4 25  1  0  0  0
  5  6  1  0  0  0
  5 26  1  0  0  0
  6  7  1  0  0  0
  7  8  2  0  0  0
  7  9  1  0  0  0
  9 10  1  0  0  0
  9 27  1  0  0  0
 10 14  1  0  0  0
 10 11  2  0  0  0
 11 12  1  0  0  0
 12 17  1  0  0  0
 12 13  2  0  0  0
 13 14  1  0  0  0
 13 15  1  0  0  0
 15 16  1  0  0  0
 15 28  1  0  0  0
 15 29  1  0  0  0
 16 17  1  0  0  0
 16 30  1  0  0  0
 16 31  1  0  0  0
 17 18  1  0  0  0
 17 19  1  0  0  0
 19 20  2  0  0  0
 19 21  1  0  0  0
 21 32  1  0  0  0
 21 33  1  0  0  0
M  END
> <i_i_glide_confnum>
6

> <i_i_glide_lignum>
1775

> <i_i_glide_posenum>
148

> <i_i_glide_rotatable_bonds>
4

> <i_m_Source_File_Index>
372

> <b_m_subgroup_collapsed>
0

> <r_i_docking_score>
-6.22544

> <r_i_glide_ecoul>
-4.36346

> <r_i_glide_eff_state_penalty>
0

> <r_i_glide_einternal>
8.23797

> <r_i_glide_emodel>
-52.8712

> <r_i_glide_energy>
-41.9037

> <r_i_glide_erotb>
0.5939

> <r_i_glide_esite>
-0.0741536

> <r_i_glide_evdw>
-37.5403

> <r_i_glide_gscore>
-6.22544

> <r_i_glide_hbond>
-0.229163

> <r_i_glide_ligand_efficiency>
-0.296449

> <r_i_glide_ligand_efficiency_ln>
-1.53923

> <r_i_glide_ligand_efficiency_sa>
-0.817881

> <r_i_glide_lipo>
-1.97219

> <r_i_glide_metal>
0

> <r_i_glide_rewards>
-2.0123

> <s_i_glide_gridfile>
wee1_glide-grid

> <s_m_Source_File>
wee1_decoys_glide_SP.sdf

> <s_m_Source_Path>
/Users/zhangxujun/Desktop

> <s_m_entry_id>
647

> <s_m_entry_name>
wee1_decoys_glide_SP.372

> <s_m_subgroup_title>
wee1_decoys_glide_SP

> <s_m_subgroupid>
wee1_decoys_glide_SP


$$$$
