ZINC17397468_3526
                    3D
 Schrodinger Suite 2024-2.
 45 47  0  0  1  0            999 V2000
   -0.0953   48.5461   24.5102 C   0  0  0  0  0  0
    0.7047   49.2496   23.6127 C   0  0  0  0  0  0
    0.6575   50.6482   23.5368 C   0  0  0  0  0  0
   -0.2573   51.3290   24.3578 C   0  0  0  0  0  0
   -1.0530   50.6224   25.2706 C   0  0  0  0  0  0
   -0.9655   49.2329   25.3492 C   0  0  0  0  0  0
   -2.1486   51.4729   26.3970 S   0  0  0  0  0  0
   -2.1453   52.8967   26.0537 O   0  0  0  0  0  0
   -3.4018   50.7113   26.4381 O   0  0  0  0  0  0
   -1.4093   51.2967   27.9977 N   0  0  0  0  0  0
   -0.3095   52.0338   28.4643 C   0  0  0  0  0  0
   -0.0957   52.0970   29.8447 C   0  0  0  0  0  0
    1.0266   52.7491   30.3521 C   0  0  0  0  0  0
    1.9404   53.3342   29.4747 C   0  0  0  0  0  0
    1.7221   53.3005   28.1003 C   0  0  0  0  0  0
    0.5990   52.6507   27.5990 C   0  0  0  0  0  0
    3.3620   54.0977   30.0817 Cl  0  0  0  0  0  0
    1.6236   51.3645   22.6153 C   0  0  0  0  0  0
    2.1571   50.7455   21.6890 O   0  0  0  0  0  0
    1.9025   52.6556   22.9115 N   0  0  0  0  0  0
    2.8884   53.2990   22.1514 N   0  0  0  0  0  0
    3.9813   53.7684   22.8026 C   0  0  0  0  0  0
    4.0926   53.6982   24.0290 O   0  0  0  0  0  0
    5.0807   54.3980   21.9454 C   0  0  0  0  0  0
    4.9121   54.4964   20.5485 C   0  0  0  0  0  0
    5.8813   55.0762   19.7310 C   0  0  0  0  0  0
    7.0540   55.5714   20.2885 C   0  0  0  0  0  0
    7.2569   55.4774   21.6594 C   0  0  0  0  0  0
    6.2977   54.8966   22.4914 C   0  0  0  0  0  0
    6.7033   54.8516   24.1781 Cl  0  0  0  0  0  0
    8.2583   56.2889   19.2851 Cl  0  0  0  0  0  0
   -0.0142   47.4720   24.5851 H   0  0  0  0  0  0
    1.4039   48.6926   23.0046 H   0  0  0  0  0  0
   -0.3342   52.4067   24.3220 H   0  0  0  0  0  0
   -1.5495   48.6880   26.0807 H   0  0  0  0  0  0
   -1.7637   50.5451   28.5754 H   0  0  0  0  0  0
   -0.7910   51.6284   30.5303 H   0  0  0  0  0  0
    1.1885   52.7792   31.4204 H   0  0  0  0  0  0
    2.4289   53.7583   27.4233 H   0  0  0  0  0  0
    0.4593   52.6213   26.5332 H   0  0  0  0  0  0
    1.2206   53.2924   23.2939 H   0  0  0  0  0  0
    2.5157   53.7410   21.3226 H   0  0  0  0  0  0
    4.0213   54.1294   20.0579 H   0  0  0  0  0  0
    5.7208   55.1366   18.6641 H   0  0  0  0  0  0
    8.1779   55.8540   22.0815 H   0  0  0  0  0  0
  1  6  2  0  0  0
  1  2  1  0  0  0
  1 32  1  0  0  0
  2  3  2  0  0  0
  2 33  1  0  0  0
  3  4  1  0  0  0
  3 18  1  0  0  0
  4  5  2  0  0  0
  4 34  1  0  0  0
  5  6  1  0  0  0
  5  7  1  0  0  0
  6 35  1  0  0  0
  7  8  2  0  0  0
  7  9  2  0  0  0
  7 10  1  0  0  0
 10 11  1  0  0  0
 10 36  1  0  0  0
 11 16  2  0  0  0
 11 12  1  0  0  0
 12 13  2  0  0  0
 12 37  1  0  0  0
 13 14  1  0  0  0
 13 38  1  0  0  0
 14 15  2  0  0  0
 14 17  1  0  0  0
 15 16  1  0  0  0
 15 39  1  0  0  0
 16 40  1  0  0  0
 18 19  2  0  0  0
 18 20  1  0  0  0
 20 21  1  0  0  0
 20 41  1  0  0  0
 21 22  1  0  0  0
 21 42  1  0  0  0
 22 23  2  0  0  0
 22 24  1  0  0  0
 24 29  2  0  0  0
 24 25  1  0  0  0
 25 26  2  0  0  0
 25 43  1  0  0  0
 26 27  1  0  0  0
 26 44  1  0  0  0
 27 28  2  0  0  0
 27 31  1  0  0  0
 28 29  1  0  0  0
 28 45  1  0  0  0
 29 30  1  0  0  0
M  END
> <i_i_glide_confnum>
8

> <i_i_glide_lignum>
3527

> <i_i_glide_posenum>
370

> <i_i_glide_rotatable_bonds>
8

> <i_m_Source_File_Index>
3001

> <b_m_subgroup_collapsed>
0

> <r_i_docking_score>
-4.79856

> <r_i_glide_ecoul>
-6.7714

> <r_i_glide_eff_state_penalty>
0

> <r_i_glide_einternal>
3.73605

> <r_i_glide_emodel>
-64.1206

> <r_i_glide_energy>
-51.4449

> <r_i_glide_erotb>
0.57426

> <r_i_glide_esite>
-0.180022

> <r_i_glide_evdw>
-44.6735

> <r_i_glide_gscore>
-4.79856

> <r_i_glide_hbond>
-0.226096

> <r_i_glide_ligand_efficiency>
-0.154792

> <r_i_glide_ligand_efficiency_ln>
-1.08222

> <r_i_glide_ligand_efficiency_sa>
-0.486262

> <r_i_glide_lipo>
-1.65003

> <r_i_glide_metal>
0

> <r_i_glide_rewards>
-0.0672937

> <s_i_glide_gridfile>
wee1_glide-grid

> <s_m_Source_File>
wee1_decoys_glide_SP.sdf

> <s_m_Source_Path>
/Users/zhangxujun/Desktop

> <s_m_entry_id>
3276

> <s_m_entry_name>
wee1_decoys_glide_SP.3001

> <s_m_subgroup_title>
wee1_decoys_glide_SP

> <s_m_subgroupid>
wee1_decoys_glide_SP


$$$$
