ZINC20744557_1566
                    3D
 Schrodinger Suite 2024-2.
 41 45  0  0  1  0            999 V2000
    0.7053   52.4959   26.6575 C   0  0  0  0  0  0
    1.7652   53.0294   25.7188 C   0  0  0  0  0  0
    2.9683   53.6992   25.9914 C   0  0  0  0  0  0
    3.5675   53.8585   24.7515 C   0  0  0  0  0  0
    2.7303   53.2874   23.8070 N   0  0  0  0  0  0
    1.6136   52.8472   24.4284 N   0  0  0  0  0  0
    2.9066   53.0014   22.4099 C   0  0  0  0  0  0
    3.9047   53.5711   21.5772 C   0  0  0  0  0  0
    3.9309   53.1103   20.2306 C   0  0  0  0  0  0
    4.9690   53.7820   19.6383 N   0  0  0  0  0  0
    5.3038   53.7140   18.6880 H   0  0  0  0  0  0
    5.5025   54.5951   20.6087 C   0  0  0  0  0  0
    4.9007   54.4968   21.7683 N   0  0  0  0  0  0
    3.1150   52.2089   19.6836 N   0  0  0  0  0  0
    2.2049   51.7297   20.5667 C   0  0  0  0  0  0
    2.0595   52.0667   21.8727 N   0  0  0  0  0  0
    4.8360   54.3884   24.5992 N   0  0  0  0  0  0
    5.6684   54.7027   25.6176 C   0  0  0  0  0  0
    6.7049   55.3432   25.4576 O   0  0  0  0  0  0
    5.2327   54.0966   26.9786 C   0  0  0  0  0  0
    3.6896   54.2300   27.2312 C   0  0  2  0  0  0
    3.4839   55.2966   27.3067 H   0  0  0  0  0  0
    3.1833   53.6501   28.5569 C   0  0  0  0  0  0
    3.8936   52.6524   29.2414 C   0  0  0  0  0  0
    3.3792   52.0968   30.4097 C   0  0  0  0  0  0
    2.1335   52.4970   30.8839 C   0  0  0  0  0  0
    1.4335   53.5101   30.2346 C   0  0  0  0  0  0
    1.9669   54.1040   29.0920 C   0  0  0  0  0  0
    1.2788   55.1000   28.4861 F   0  0  0  0  0  0
    1.6282   51.9391   32.0043 F   0  0  0  0  0  0
    1.1443   51.8995   27.4572 H   0  0  0  0  0  0
    0.1320   53.2942   27.1244 H   0  0  0  0  0  0
   -0.0123   51.8457   26.1554 H   0  0  0  0  0  0
    6.3453   55.2315   20.3766 H   0  0  0  0  0  0
    1.5175   50.9888   20.1848 H   0  0  0  0  0  0
    5.1106   54.7859   23.7106 H   0  0  0  0  0  0
    5.5269   53.0472   26.9271 H   0  0  0  0  0  0
    5.8066   54.5643   27.7803 H   0  0  0  0  0  0
    4.8415   52.2860   28.8774 H   0  0  0  0  0  0
    3.9415   51.3489   30.9460 H   0  0  0  0  0  0
    0.4803   53.8383   30.6228 H   0  0  0  0  0  0
  1  2  1  0  0  0
  1 31  1  0  0  0
  1 32  1  0  0  0
  1 33  1  0  0  0
  2  6  2  0  0  0
  2  3  1  0  0  0
  3 21  1  0  0  0
  3  4  2  0  0  0
  4  5  1  0  0  0
  4 17  1  0  0  0
  5  6  1  0  0  0
  5  7  1  0  0  0
  7 16  2  0  0  0
  7  8  1  0  0  0
  8 13  1  0  0  0
  8  9  2  0  0  0
  9 10  1  0  0  0
  9 14  1  0  0  0
 10 11  1  0  0  0
 10 12  1  0  0  0
 12 13  2  0  0  0
 12 34  1  0  0  0
 14 15  2  0  0  0
 15 16  1  0  0  0
 15 35  1  0  0  0
 17 18  1  0  0  0
 17 36  1  0  0  0
 18 19  2  0  0  0
 18 20  1  0  0  0
 20 21  1  0  0  0
 20 37  1  0  0  0
 20 38  1  0  0  0
 21 22  1  0  0  0
 21 23  1  0  0  0
 23 28  2  0  0  0
 23 24  1  0  0  0
 24 25  2  0  0  0
 24 39  1  0  0  0
 25 26  1  0  0  0
 25 40  1  0  0  0
 26 27  2  0  0  0
 26 30  1  0  0  0
 27 28  1  0  0  0
 27 41  1  0  0  0
 28 29  1  0  0  0
M  END
> <i_i_glide_confnum>
2

> <i_i_glide_lignum>
1567

> <i_i_glide_posenum>
159

> <i_i_glide_rotatable_bonds>
2

> <i_m_Source_File_Index>
6069

> <b_m_subgroup_collapsed>
0

> <r_i_docking_score>
-7.35952

> <r_i_glide_ecoul>
-1.47497

> <r_i_glide_eff_state_penalty>
0

> <r_i_glide_einternal>
8.48221

> <r_i_glide_emodel>
-62.7134

> <r_i_glide_energy>
-46.1883

> <r_i_glide_erotb>
0.266952

> <r_i_glide_esite>
-0.112328

> <r_i_glide_evdw>
-44.7134

> <r_i_glide_gscore>
-7.35952

> <r_i_glide_hbond>
-0.271868

> <r_i_glide_ligand_efficiency>
-0.26284

> <r_i_glide_ligand_efficiency_ln>
-1.69879

> <r_i_glide_ligand_efficiency_sa>
-0.798137

> <r_i_glide_lipo>
-2.14364

> <r_i_glide_metal>
0

> <r_i_glide_rewards>
-2.64172

> <s_i_glide_gridfile>
wee1_glide-grid

> <s_m_Source_File>
wee1_decoys_glide_SP.sdf

> <s_m_Source_Path>
/Users/zhangxujun/Desktop

> <s_m_entry_id>
6344

> <s_m_entry_name>
wee1_decoys_glide_SP.6069

> <s_m_subgroup_title>
wee1_decoys_glide_SP

> <s_m_subgroupid>
wee1_decoys_glide_SP


$$$$
