ZINC11695906_5927
                    3D
 Schrodinger Suite 2024-2.
 48 51  0  0  1  0            999 V2000
   -1.4438   46.5445   25.0736 C   0  0  0  0  0  0
   -1.3251   47.9249   24.4749 C   0  0  0  0  0  0
   -0.9295   48.9950   25.2795 C   0  0  0  0  0  0
   -0.8350   50.2679   24.7309 C   0  0  0  0  0  0
   -1.1329   50.4592   23.3802 C   0  0  0  0  0  0
   -1.5163   49.3880   22.5710 C   0  0  0  0  0  0
   -1.6164   48.1159   23.1234 C   0  0  0  0  0  0
   -1.0203   52.0970   22.6914 S   0  0  0  0  0  0
   -1.4491   53.0361   23.7359 O   0  0  0  0  0  0
   -1.6822   52.0962   21.3806 O   0  0  0  0  0  0
    0.7643   52.3489   22.4187 C   0  0  0  0  0  0
    1.5736   51.7757   21.4583 C   0  0  0  0  0  0
    2.7907   52.2225   21.6335 N   0  0  0  0  0  0
    2.6939   53.0118   22.6793 C   0  0  0  0  0  0
    1.4887   53.1262   23.1877 N   0  5  0  0  0  0
    3.8953   53.6989   23.2746 C   0  0  0  0  0  0
    5.0671   53.8709   22.5225 C   0  0  0  0  0  0
    6.1961   54.4562   23.0917 C   0  0  0  0  0  0
    6.1621   54.8724   24.4206 C   0  0  0  0  0  0
    5.0070   54.7137   25.1828 C   0  0  0  0  0  0
    3.8770   54.1321   24.6098 C   0  0  0  0  0  0
    1.1562   50.6241   20.1913 S   0  0  0  0  0  0
    1.5013   51.6738   18.7351 C   0  0  0  0  0  0
    0.2999   52.4963   18.2451 C   0  0  0  0  0  0
   -0.8468   52.0577   18.3694 O   0  0  0  0  0  0
    0.5998   53.6876   17.6816 N   0  0  0  0  0  0
   -0.3006   54.6635   17.2803 C   0  0  0  0  0  0
   -1.6159   54.5938   17.2652 N   0  0  0  0  0  0
   -2.1519   55.7247   16.8441 C   0  0  0  0  0  0
   -1.2667   56.7522   16.5298 C   0  0  0  0  0  0
    0.3571   56.1867   16.7688 S   0  0  0  0  0  0
   -1.6598   46.5913   26.1426 H   0  0  0  0  0  0
   -2.2528   45.9866   24.6039 H   0  0  0  0  0  0
   -0.5005   46.0292   24.9101 H   0  0  0  0  0  0
   -0.6976   48.8426   26.3249 H   0  0  0  0  0  0
   -0.5357   51.1011   25.3510 H   0  0  0  0  0  0
   -1.7363   49.5403   21.5238 H   0  0  0  0  0  0
   -1.9136   47.2835   22.4997 H   0  0  0  0  0  0
    5.1014   53.5416   21.4944 H   0  0  0  0  0  0
    7.0945   54.5807   22.5063 H   0  0  0  0  0  0
    7.0391   55.3226   24.8594 H   0  0  0  0  0  0
    4.9870   55.0356   26.2134 H   0  0  0  0  0  0
    2.9877   54.0022   25.2097 H   0  0  0  0  0  0
    1.7970   51.0108   17.9212 H   0  0  0  0  0  0
    2.3644   52.3112   18.9370 H   0  0  0  0  0  0
    1.5751   53.9455   17.6392 H   0  0  0  0  0  0
   -3.2270   55.7884   16.7606 H   0  0  0  0  0  0
   -1.4704   57.7504   16.1702 H   0  0  0  0  0  0
  1  2  1  0  0  0
  1 32  1  0  0  0
  1 33  1  0  0  0
  1 34  1  0  0  0
  2  7  2  0  0  0
  2  3  1  0  0  0
  3  4  2  0  0  0
  3 35  1  0  0  0
  4  5  1  0  0  0
  4 36  1  0  0  0
  5  6  2  0  0  0
  5  8  1  0  0  0
  6  7  1  0  0  0
  6 37  1  0  0  0
  7 38  1  0  0  0
  8  9  2  0  0  0
  8 10  2  0  0  0
  8 11  1  0  0  0
 11 12  2  0  0  0
 11 15  1  0  0  0
 12 22  1  0  0  0
 12 13  1  0  0  0
 13 14  2  0  0  0
 14 15  1  0  0  0
 14 16  1  0  0  0
 16 21  2  0  0  0
 16 17  1  0  0  0
 17 18  2  0  0  0
 17 39  1  0  0  0
 18 19  1  0  0  0
 18 40  1  0  0  0
 19 20  2  0  0  0
 19 41  1  0  0  0
 20 21  1  0  0  0
 20 42  1  0  0  0
 21 43  1  0  0  0
 22 23  1  0  0  0
 23 24  1  0  0  0
 23 44  1  0  0  0
 23 45  1  0  0  0
 24 25  2  0  0  0
 24 26  1  0  0  0
 26 27  1  0  0  0
 26 46  1  0  0  0
 27 31  1  0  0  0
 27 28  2  0  0  0
 28 29  1  0  0  0
 29 30  2  0  0  0
 29 47  1  0  0  0
 30 31  1  0  0  0
 30 48  1  0  0  0
M  CHG  1  15  -1
M  END
> <i_i_glide_confnum>
135

> <i_i_glide_lignum>
5928

> <i_i_glide_posenum>
225

> <i_i_glide_rotatable_bonds>
8

> <i_m_Source_File_Index>
4445

> <b_m_subgroup_collapsed>
0

> <r_i_docking_score>
-4.37393

> <r_i_glide_ecoul>
-5.26446

> <r_i_glide_eff_state_penalty>
0

> <r_i_glide_einternal>
5.12316

> <r_i_glide_emodel>
-53.7965

> <r_i_glide_energy>
-43.7525

> <r_i_glide_erotb>
0.641203

> <r_i_glide_esite>
-0.0592293

> <r_i_glide_evdw>
-38.488

> <r_i_glide_gscore>
-4.37393

> <r_i_glide_hbond>
0

> <r_i_glide_ligand_efficiency>
-0.141094

> <r_i_glide_ligand_efficiency_ln>
-0.986454

> <r_i_glide_ligand_efficiency_sa>
-0.443231

> <r_i_glide_lipo>
-1.80932

> <r_i_glide_metal>
0

> <r_i_glide_rewards>
-0.432508

> <s_i_glide_gridfile>
wee1_glide-grid

> <s_m_Source_File>
wee1_decoys_glide_SP.sdf

> <s_m_Source_Path>
/Users/zhangxujun/Desktop

> <s_m_entry_id>
4720

> <s_m_entry_name>
wee1_decoys_glide_SP.4445

> <s_m_subgroup_title>
wee1_decoys_glide_SP

> <s_m_subgroupid>
wee1_decoys_glide_SP


$$$$
