ZINC66856611_1407
                    3D
 Schrodinger Suite 2024-2.
 46 50  0  0  1  0            999 V2000
    7.9971   57.4832   15.3003 C   0  0  0  0  0  0
    7.1709   57.1196   16.3644 C   0  0  0  0  0  0
    7.9990   56.7132   17.4017 C   0  0  0  0  0  0
    9.2978   56.8201   17.0102 O   0  0  0  0  0  0
    9.2964   57.2831   15.7338 C   0  0  0  0  0  0
    7.7429   56.2344   18.7391 C   0  0  0  0  0  0
    6.5933   55.8126   19.3817 C   0  0  0  0  0  0
    6.9522   55.4649   20.6986 C   0  0  0  0  0  0
    8.2412   55.6843   20.8825 N   0  0  0  0  0  0
    8.7044   56.0961   19.7002 N   0  0  0  0  0  0
    9.6846   56.3032   19.5568 H   0  0  0  0  0  0
    6.0386   54.8966   21.6664 C   0  0  0  0  0  0
    4.9306   54.4957   21.3084 O   0  0  0  0  0  0
    6.4971   54.8790   22.9406 N   0  0  0  0  0  0
    5.7891   54.5753   24.1212 C   0  0  0  0  0  0
    4.3920   54.4825   24.1996 C   0  0  0  0  0  0
    3.7707   54.2424   25.4188 C   0  0  0  0  0  0
    4.5238   54.0685   26.5832 C   0  0  0  0  0  0
    5.9200   54.1712   26.5013 C   0  0  0  0  0  0
    6.5445   54.4291   25.2827 C   0  0  0  0  0  0
    3.8782   53.8041   27.9166 C   0  0  0  0  0  0
    4.4679   54.0921   29.0530 N   0  0  0  0  0  0
    3.6184   53.7211   30.0818 N   0  0  0  0  0  0
    2.5298   53.2474   29.5416 C   0  0  0  0  0  0
    2.6428   53.2184   28.1631 N   0  0  0  0  0  0
    1.5930   52.7607   27.2447 C   0  0  0  0  0  0
    0.5729   51.8818   28.0069 C   0  0  0  0  0  0
    0.1457   52.5071   29.3466 C   0  0  0  0  0  0
    1.3430   52.6697   30.3040 C   0  0  0  0  0  0
    7.6845   57.8483   14.3331 H   0  0  0  0  0  0
    6.0916   57.1524   16.3822 H   0  0  0  0  0  0
   10.2644   57.4190   15.2741 H   0  0  0  0  0  0
    5.6062   55.7442   18.9463 H   0  0  0  0  0  0
    7.4626   55.1472   23.0699 H   0  0  0  0  0  0
    3.7569   54.6262   23.3404 H   0  0  0  0  0  0
    2.6953   54.2195   25.4333 H   0  0  0  0  0  0
    6.5296   54.0492   27.3856 H   0  0  0  0  0  0
    7.6183   54.5060   25.2415 H   0  0  0  0  0  0
    1.1003   53.6473   26.8470 H   0  0  0  0  0  0
    2.0375   52.2173   26.4112 H   0  0  0  0  0  0
   -0.3036   51.7089   27.3809 H   0  0  0  0  0  0
    1.0035   50.8961   28.1876 H   0  0  0  0  0  0
   -0.3153   53.4791   29.1637 H   0  0  0  0  0  0
   -0.6221   51.8934   29.8212 H   0  0  0  0  0  0
    1.6125   51.6981   30.7163 H   0  0  0  0  0  0
    1.0698   53.2938   31.1562 H   0  0  0  0  0  0
  1  5  2  0  0  0
  1  2  1  0  0  0
  1 30  1  0  0  0
  2  3  2  0  0  0
  2 31  1  0  0  0
  3  4  1  0  0  0
  3  6  1  0  0  0
  4  5  1  0  0  0
  5 32  1  0  0  0
  6 10  1  0  0  0
  6  7  2  0  0  0
  7  8  1  0  0  0
  7 33  1  0  0  0
  8  9  2  0  0  0
  8 12  1  0  0  0
  9 10  1  0  0  0
 10 11  1  0  0  0
 12 13  2  0  0  0
 12 14  1  0  0  0
 14 15  1  0  0  0
 14 34  1  0  0  0
 15 20  2  0  0  0
 15 16  1  0  0  0
 16 17  2  0  0  0
 16 35  1  0  0  0
 17 18  1  0  0  0
 17 36  1  0  0  0
 18 19  2  0  0  0
 18 21  1  0  0  0
 19 20  1  0  0  0
 19 37  1  0  0  0
 20 38  1  0  0  0
 21 25  1  0  0  0
 21 22  2  0  0  0
 22 23  1  0  0  0
 23 24  2  0  0  0
 24 29  1  0  0  0
 24 25  1  0  0  0
 25 26  1  0  0  0
 26 27  1  0  0  0
 26 39  1  0  0  0
 26 40  1  0  0  0
 27 28  1  0  0  0
 27 41  1  0  0  0
 27 42  1  0  0  0
 28 29  1  0  0  0
 28 43  1  0  0  0
 28 44  1  0  0  0
 29 45  1  0  0  0
 29 46  1  0  0  0
M  END
> <i_i_glide_confnum>
15

> <i_i_glide_lignum>
1408

> <i_i_glide_posenum>
393

> <i_i_glide_rotatable_bonds>
5

> <i_m_Source_File_Index>
3258

> <b_m_subgroup_collapsed>
0

> <r_i_docking_score>
-6.46976

> <r_i_glide_ecoul>
-3.80701

> <r_i_glide_eff_state_penalty>
0

> <r_i_glide_einternal>
1.81751

> <r_i_glide_emodel>
-64.5354

> <r_i_glide_energy>
-47.2047

> <r_i_glide_erotb>
0.689706

> <r_i_glide_esite>
-0.0401749

> <r_i_glide_evdw>
-43.3977

> <r_i_glide_gscore>
-6.46976

> <r_i_glide_hbond>
-0.243732

> <r_i_glide_ligand_efficiency>
-0.231063

> <r_i_glide_ligand_efficiency_ln>
-1.49341

> <r_i_glide_ligand_efficiency_sa>
-0.701643

> <r_i_glide_lipo>
-2.19617

> <r_i_glide_metal>
0

> <r_i_glide_rewards>
-1.93845

> <s_i_glide_gridfile>
wee1_glide-grid

> <s_m_Source_File>
wee1_decoys_glide_SP.sdf

> <s_m_Source_Path>
/Users/zhangxujun/Desktop

> <s_m_entry_id>
3533

> <s_m_entry_name>
wee1_decoys_glide_SP.3258

> <s_m_subgroup_title>
wee1_decoys_glide_SP

> <s_m_subgroupid>
wee1_decoys_glide_SP


$$$$
