ZINC39595692_623
                    3D
 Schrodinger Suite 2024-2.
 72 75  0  0  1  0            999 V2000
    0.2653   51.9450   25.8570 C   0  0  0  0  0  0
   -0.2820   50.7874   24.9875 C   0  0  2  0  0  0
    0.2433   49.8972   25.3415 H   0  0  0  0  0  0
    0.0087   50.8388   23.4599 C   0  0  0  0  0  0
    1.2075   51.6065   23.0979 N   0  0  0  0  0  0
    1.3374   52.4069   22.0204 C   0  0  0  0  0  0
    0.4327   52.5024   21.1944 O   0  0  0  0  0  0
    2.6942   53.1421   21.7688 C   0  0  1  0  0  0
    2.5382   54.0926   21.2855 H   0  0  0  0  0  0
    3.2968   53.5588   23.1241 C   0  0  0  0  0  0
    4.7343   53.5271   22.9092 N   0  0  0  0  0  0
    5.0977   52.9166   21.6236 C   0  0  0  0  0  0
    3.7894   52.3988   20.9644 C   0  0  0  0  0  0
    3.7534   50.8454   21.0575 C   0  0  0  0  0  0
    2.6707   50.1338   20.1898 C   0  0  0  0  0  0
    2.7044   50.6750   18.7472 N   0  3  0  0  0  0
    2.6509   52.2101   18.6536 C   0  0  0  0  0  0
    3.8530   52.7358   19.4475 C   0  0  0  0  0  0
    5.6724   54.0817   23.7235 C   0  0  0  0  0  0
    6.8577   54.0943   23.3952 O   0  0  0  0  0  0
    5.3265   54.7188   25.0934 C   0  0  0  0  0  0
    4.1552   54.1275   25.9221 C   0  0  0  0  0  0
    4.3070   54.2845   27.4498 C   0  0  0  0  0  0
    2.9799   54.0382   28.2030 C   0  0  0  0  0  0
    3.0778   52.6139   28.7441 C   0  0  0  0  0  0
    4.5467   52.5044   29.1336 C   0  0  0  0  0  0
    5.3103   53.2714   28.0520 C   0  0  0  0  0  0
   -1.6566   50.4943   25.2743 O   0  0  0  0  0  0
   -2.6659   51.4393   25.2084 C   0  0  0  0  0  0
   -3.8237   51.1357   25.9260 C   0  0  0  0  0  0
   -4.9014   52.0176   25.9471 C   0  0  0  0  0  0
   -4.8298   53.2100   25.2260 C   0  0  0  0  0  0
   -3.6943   53.5145   24.4810 C   0  0  0  0  0  0
   -2.6090   52.6398   24.4800 C   0  0  0  0  0  0
   -5.8601   54.0839   25.2620 F   0  0  0  0  0  0
    1.3435   52.0560   25.7556 H   0  0  0  0  0  0
   -0.1854   52.8971   25.5983 H   0  0  0  0  0  0
    0.0609   51.7591   26.9124 H   0  0  0  0  0  0
   -0.8651   51.2025   22.9222 H   0  0  0  0  0  0
    0.1379   49.8214   23.0921 H   0  0  0  0  0  0
    2.0142   51.4638   23.6847 H   0  0  0  0  0  0
    3.1027   52.8139   23.8885 H   0  0  0  0  0  0
    2.9361   54.5506   23.4050 H   0  0  0  0  0  0
    5.4655   53.7555   21.0292 H   0  0  0  0  0  0
    5.9033   52.1787   21.6672 H   0  0  0  0  0  0
    4.7235   50.4969   20.7174 H   0  0  0  0  0  0
    3.6802   50.5134   22.0881 H   0  0  0  0  0  0
    2.8159   49.0574   20.1145 H   0  0  0  0  0  0
    1.6486   50.2813   20.5270 H   0  0  0  0  0  0
    3.5928   50.3873   18.3220 H   0  0  0  0  0  0
    2.7350   52.4361   17.5880 H   0  0  0  0  0  0
    1.6852   52.5590   19.0209 H   0  0  0  0  0  0
    3.9319   53.8162   19.3065 H   0  0  0  0  0  0
    4.7604   52.3163   19.0083 H   0  0  0  0  0  0
    5.1779   55.7864   24.9451 H   0  0  0  0  0  0
    6.2323   54.6460   25.6939 H   0  0  0  0  0  0
    4.0272   53.0655   25.7225 H   0  0  0  0  0  0
    3.2302   54.6147   25.6127 H   0  0  0  0  0  0
    4.6450   55.2985   27.6705 H   0  0  0  0  0  0
    2.0884   54.2135   27.6005 H   0  0  0  0  0  0
    2.9129   54.7328   29.0455 H   0  0  0  0  0  0
    2.8321   51.8960   27.9619 H   0  0  0  0  0  0
    2.4032   52.4311   29.5794 H   0  0  0  0  0  0
    4.8812   51.4748   29.2507 H   0  0  0  0  0  0
    4.6973   52.9923   30.0881 H   0  0  0  0  0  0
    6.1680   53.7761   28.4987 H   0  0  0  0  0  0
    5.6851   52.5681   27.3013 H   0  0  0  0  0  0
   -3.8678   50.2125   26.4877 H   0  0  0  0  0  0
   -5.7833   51.7826   26.5273 H   0  0  0  0  0  0
   -3.6482   54.4416   23.9266 H   0  0  0  0  0  0
   -1.7346   52.9197   23.9138 H   0  0  0  0  0  0
    1.9808   50.2514   18.1829 H   0  0  0  0  0  0
  1  2  1  0  0  0
  1 36  1  0  0  0
  1 37  1  0  0  0
  1 38  1  0  0  0
  2  3  1  0  0  0
  2  4  1  0  0  0
  2 28  1  0  0  0
  4  5  1  0  0  0
  4 39  1  0  0  0
  4 40  1  0  0  0
  5  6  1  0  0  0
  5 41  1  0  0  0
  6  7  2  0  0  0
  6  8  1  0  0  0
  8  9  1  0  0  0
  8 13  1  0  0  0
  8 10  1  0  0  0
 10 11  1  0  0  0
 10 42  1  0  0  0
 10 43  1  0  0  0
 11 12  1  0  0  0
 11 19  1  0  0  0
 12 13  1  0  0  0
 12 44  1  0  0  0
 12 45  1  0  0  0
 13 18  1  0  0  0
 13 14  1  0  0  0
 14 15  1  0  0  0
 14 46  1  0  0  0
 14 47  1  0  0  0
 15 16  1  0  0  0
 15 48  1  0  0  0
 15 49  1  0  0  0
 16 17  1  0  0  0
 16 50  1  0  0  0
 16 72  1  0  0  0
 17 18  1  0  0  0
 17 51  1  0  0  0
 17 52  1  0  0  0
 18 53  1  0  0  0
 18 54  1  0  0  0
 19 20  2  0  0  0
 19 21  1  0  0  0
 21 22  1  0  0  0
 21 55  1  0  0  0
 21 56  1  0  0  0
 22 23  1  0  0  0
 22 57  1  0  0  0
 22 58  1  0  0  0
 23 27  1  0  0  0
 23 24  1  0  0  0
 23 59  1  0  0  0
 24 25  1  0  0  0
 24 60  1  0  0  0
 24 61  1  0  0  0
 25 26  1  0  0  0
 25 62  1  0  0  0
 25 63  1  0  0  0
 26 27  1  0  0  0
 26 64  1  0  0  0
 26 65  1  0  0  0
 27 66  1  0  0  0
 27 67  1  0  0  0
 28 29  1  0  0  0
 29 34  2  0  0  0
 29 30  1  0  0  0
 30 31  2  0  0  0
 30 68  1  0  0  0
 31 32  1  0  0  0
 31 69  1  0  0  0
 32 33  2  0  0  0
 32 35  1  0  0  0
 33 34  1  0  0  0
 33 70  1  0  0  0
 34 71  1  0  0  0
M  CHG  1  16   1
M  END
> <i_i_glide_confnum>
49

> <i_i_glide_lignum>
624

> <i_i_glide_posenum>
230

> <i_i_glide_rotatable_bonds>
10

> <i_m_Source_File_Index>
110

> <b_m_subgroup_collapsed>
0

> <r_i_docking_score>
-5.24794

> <r_i_glide_ecoul>
-3.08315

> <r_i_glide_eff_state_penalty>
0

> <r_i_glide_einternal>
12.56

> <r_i_glide_emodel>
-45.3988

> <r_i_glide_energy>
-37.5361

> <r_i_glide_erotb>
0.759051

> <r_i_glide_esite>
-0.102544

> <r_i_glide_evdw>
-34.4529

> <r_i_glide_gscore>
-5.24794

> <r_i_glide_hbond>
-0.315117

> <r_i_glide_ligand_efficiency>
-0.159028

> <r_i_glide_ligand_efficiency_ln>
-1.16711

> <r_i_glide_ligand_efficiency_sa>
-0.510089

> <r_i_glide_lipo>
-2.43767

> <r_i_glide_metal>
0

> <r_i_glide_rewards>
-0.966541

> <s_i_glide_gridfile>
wee1_glide-grid

> <s_m_Source_File>
wee1_decoys_glide_SP.sdf

> <s_m_Source_Path>
/Users/zhangxujun/Desktop

> <s_m_entry_id>
385

> <s_m_entry_name>
wee1_decoys_glide_SP.110

> <s_m_subgroup_title>
wee1_decoys_glide_SP

> <s_m_subgroupid>
wee1_decoys_glide_SP


$$$$
