ZINC09642754_2395
                    3D
 Schrodinger Suite 2024-2.
 49 52  0  0  1  0            999 V2000
    4.7778   56.5323   17.7906 C   0  0  0  0  0  0
    3.9617   55.4697   17.4083 C   0  0  0  0  0  0
    4.0635   54.2572   18.1038 C   0  0  0  0  0  0
    4.9685   54.1502   19.1735 C   0  0  0  0  0  0
    5.7416   55.2840   19.5090 C   0  0  0  0  0  0
    5.6578   56.4514   18.8182 N   0  0  0  0  0  0
    6.6912   55.2990   20.6517 C   0  0  0  0  0  0
    7.8813   55.6045   20.5654 O   0  0  0  0  0  0
    6.0604   54.9815   21.7956 O   0  0  0  0  0  0
    6.7431   54.8750   23.0423 C   0  0  0  0  0  0
    5.7350   54.4947   24.1384 C   0  0  0  0  0  0
    4.6061   54.0963   23.8267 O   0  0  0  0  0  0
    6.1970   54.5844   25.4077 N   0  0  0  0  0  0
    5.5801   54.3107   26.5839 C   0  0  0  0  0  0
    6.1890   54.4940   27.6322 O   0  0  0  0  0  0
    4.3082   53.8544   26.5439 N   0  0  0  0  0  0
    3.3477   53.6466   27.6292 C   0  0  0  0  0  0
    3.8417   52.6383   28.7119 C   0  0  0  0  0  0
    2.7584   52.3624   29.7763 C   0  0  2  0  0  0
    1.4761   51.8083   29.1089 C   0  0  0  0  0  0
    0.9431   52.8324   28.0810 C   0  0  2  0  0  0
    2.0302   53.0814   27.0068 C   0  0  0  0  0  0
    0.6230   54.1688   28.7988 C   0  0  0  0  0  0
    1.9058   54.7239   29.4604 C   0  0  1  0  0  0
    2.4495   53.6922   30.4740 C   0  0  0  0  0  0
    2.9831   54.9632   28.3754 C   0  0  0  0  0  0
    5.1048   52.6531   20.0497 Cl  0  0  0  0  0  0
    3.0714   52.9101   17.6520 Cl  0  0  0  0  0  0
    2.8539   55.6882   16.0961 Cl  0  0  0  0  0  0
    4.7318   57.4814   17.2746 H   0  0  0  0  0  0
    7.5180   54.1058   22.9923 H   0  0  0  0  0  0
    7.2200   55.8257   23.2946 H   0  0  0  0  0  0
    7.1457   54.8979   25.5103 H   0  0  0  0  0  0
    3.9614   53.6326   25.6191 H   0  0  0  0  0  0
    4.1122   51.7029   28.2609 H   0  0  0  0  0  0
    4.7524   52.9988   29.1923 H   0  0  0  0  0  0
    3.1448   51.6603   30.5127 H   0  0  0  0  0  0
    1.6882   50.8593   28.6163 H   0  0  0  0  0  0
    0.7133   51.6051   29.8610 H   0  0  0  0  0  0
    0.0407   52.4428   27.6101 H   0  0  0  0  0  0
    1.6455   53.7652   26.2491 H   0  0  0  0  0  0
    2.2349   52.1483   26.4817 H   0  0  0  0  0  0
    0.2439   54.8964   28.0819 H   0  0  0  0  0  0
   -0.1599   54.0261   29.5420 H   0  0  0  0  0  0
    1.6857   55.6645   29.9713 H   0  0  0  0  0  0
    1.7321   53.5313   31.2811 H   0  0  0  0  0  0
    3.3956   54.0462   30.8758 H   0  0  0  0  0  0
    3.8762   55.3916   28.8355 H   0  0  0  0  0  0
    2.6152   55.6971   27.6699 H   0  0  0  0  0  0
  1  6  2  0  0  0
  1  2  1  0  0  0
  1 30  1  0  0  0
  2  3  2  0  0  0
  2 29  1  0  0  0
  3  4  1  0  0  0
  3 28  1  0  0  0
  4  5  2  0  0  0
  4 27  1  0  0  0
  5  6  1  0  0  0
  5  7  1  0  0  0
  7  8  2  0  0  0
  7  9  1  0  0  0
  9 10  1  0  0  0
 10 11  1  0  0  0
 10 31  1  0  0  0
 10 32  1  0  0  0
 11 12  2  0  0  0
 11 13  1  0  0  0
 13 14  1  0  0  0
 13 33  1  0  0  0
 14 15  2  0  0  0
 14 16  1  0  0  0
 16 17  1  0  0  0
 16 34  1  0  0  0
 17 22  1  0  0  0
 17 26  1  0  0  0
 17 18  1  0  0  0
 18 19  1  0  0  0
 18 35  1  0  0  0
 18 36  1  0  0  0
 19 25  1  0  0  0
 19 20  1  0  0  0
 19 37  1  0  0  0
 20 21  1  0  0  0
 20 38  1  0  0  0
 20 39  1  0  0  0
 21 22  1  0  0  0
 21 23  1  0  0  0
 21 40  1  0  0  0
 22 41  1  0  0  0
 22 42  1  0  0  0
 23 24  1  0  0  0
 23 43  1  0  0  0
 23 44  1  0  0  0
 24 25  1  0  0  0
 24 26  1  0  0  0
 24 45  1  0  0  0
 25 46  1  0  0  0
 25 47  1  0  0  0
 26 48  1  0  0  0
 26 49  1  0  0  0
M  END
> <i_i_glide_confnum>
8

> <i_i_glide_lignum>
2396

> <i_i_glide_posenum>
211

> <i_i_glide_rotatable_bonds>
8

> <i_m_Source_File_Index>
3822

> <b_m_subgroup_collapsed>
0

> <r_i_docking_score>
-3.67155

> <r_i_glide_ecoul>
2.87862

> <r_i_glide_eff_state_penalty>
0

> <r_i_glide_einternal>
3.16181

> <r_i_glide_emodel>
-43.4467

> <r_i_glide_energy>
-36.4601

> <r_i_glide_erotb>
0.568988

> <r_i_glide_esite>
0

> <r_i_glide_evdw>
-39.3387

> <r_i_glide_gscore>
-3.67155

> <r_i_glide_hbond>
0

> <r_i_glide_ligand_efficiency>
-0.126605

> <r_i_glide_ligand_efficiency_ln>
-0.840691

> <r_i_glide_ligand_efficiency_sa>
-0.388971

> <r_i_glide_lipo>
-2.06848

> <r_i_glide_metal>
0

> <r_i_glide_rewards>
-0.636909

> <s_i_glide_gridfile>
wee1_glide-grid

> <s_m_Source_File>
wee1_decoys_glide_SP.sdf

> <s_m_Source_Path>
/Users/zhangxujun/Desktop

> <s_m_entry_id>
4097

> <s_m_entry_name>
wee1_decoys_glide_SP.3822

> <s_m_subgroup_title>
wee1_decoys_glide_SP

> <s_m_subgroupid>
wee1_decoys_glide_SP


$$$$
