ZINC44784609_4737
                    3D
 Schrodinger Suite 2024-2.
 50 51  0  0  1  0            999 V2000
    4.9674   54.6120   28.7891 C   0  0  0  0  0  0
    3.9823   53.6997   28.0526 C   0  0  2  0  0  0
    3.2609   54.4938   26.9517 C   0  0  0  0  0  0
    2.3184   53.5884   26.1446 C   0  0  0  0  0  0
    1.3066   52.8334   27.0350 C   0  0  2  0  0  0
    1.9385   52.1864   28.2988 C   0  0  0  0  0  0
    2.9272   53.1270   29.0183 C   0  0  0  0  0  0
    0.4297   51.9875   26.2353 N   0  0  0  0  0  0
   -0.7312   51.4262   26.6196 C   0  0  0  0  0  0
   -1.1420   51.5266   27.7771 O   0  0  0  0  0  0
   -1.5582   50.6568   25.5198 C   0  0  0  0  0  0
   -3.1051   50.8263   25.8321 C   0  0  0  0  0  0
   -3.6689   52.2550   26.0698 C   0  0  0  0  0  0
   -3.9712   53.1102   24.8270 C   0  0  0  0  0  0
   -3.1312   52.8519   23.5673 C   0  0  0  0  0  0
   -1.6222   52.6421   23.7473 C   0  0  0  0  0  0
   -1.2421   51.1859   24.0739 C   0  0  0  0  0  0
   -1.1448   49.1335   25.5059 C   0  0  0  0  0  0
   -2.0688   48.2733   25.2822 N   0  0  0  0  0  0
   -1.6959   46.9242   25.4595 O   0  0  0  0  0  0
    0.2143   48.8964   25.6830 N   0  0  0  0  0  0
    4.4478   55.4312   29.2836 H   0  0  0  0  0  0
    5.5043   54.0745   29.5545 H   0  0  0  0  0  0
    5.7088   55.0370   28.1114 H   0  0  0  0  0  0
    4.5278   52.8740   27.5903 H   0  0  0  0  0  0
    3.9874   54.9606   26.2870 H   0  0  0  0  0  0
    2.7079   55.3239   27.3913 H   0  0  0  0  0  0
    2.9334   52.8670   25.6060 H   0  0  0  0  0  0
    1.7970   54.1741   25.3884 H   0  0  0  0  0  0
    0.6657   53.6226   27.4429 H   0  0  0  0  0  0
    1.1667   51.8711   29.0011 H   0  0  0  0  0  0
    2.4843   51.2932   28.0041 H   0  0  0  0  0  0
    2.3804   53.9423   29.4957 H   0  0  0  0  0  0
    3.4157   52.6052   29.8423 H   0  0  0  0  0  0
    0.7440   51.8102   25.2946 H   0  0  0  0  0  0
   -3.3363   50.2507   26.7320 H   0  0  0  0  0  0
   -3.7002   50.3575   25.0467 H   0  0  0  0  0  0
   -3.0194   52.8297   26.7292 H   0  0  0  0  0  0
   -4.5937   52.1619   26.6405 H   0  0  0  0  0  0
   -3.8891   54.1621   25.1033 H   0  0  0  0  0  0
   -5.0208   52.9725   24.5564 H   0  0  0  0  0  0
   -3.2832   53.6884   22.8835 H   0  0  0  0  0  0
   -3.5463   51.9918   23.0403 H   0  0  0  0  0  0
   -1.2219   53.3399   24.4819 H   0  0  0  0  0  0
   -1.1311   52.8968   22.8070 H   0  0  0  0  0  0
   -1.7337   50.5469   23.3361 H   0  0  0  0  0  0
   -0.1797   51.0632   23.8475 H   0  0  0  0  0  0
   -0.8760   47.0014   25.9667 H   0  0  0  0  0  0
    0.5753   47.9514   25.7283 H   0  0  0  0  0  0
    0.7554   49.5985   26.1599 H   0  0  0  0  0  0
  1  2  1  0  0  0
  1 22  1  0  0  0
  1 23  1  0  0  0
  1 24  1  0  0  0
  2  7  1  0  0  0
  2  3  1  0  0  0
  2 25  1  0  0  0
  3  4  1  0  0  0
  3 26  1  0  0  0
  3 27  1  0  0  0
  4  5  1  0  0  0
  4 28  1  0  0  0
  4 29  1  0  0  0
  5  6  1  0  0  0
  5  8  1  0  0  0
  5 30  1  0  0  0
  6  7  1  0  0  0
  6 31  1  0  0  0
  6 32  1  0  0  0
  7 33  1  0  0  0
  7 34  1  0  0  0
  8  9  1  0  0  0
  8 35  1  0  0  0
  9 10  2  0  0  0
  9 11  1  0  0  0
 11 17  1  0  0  0
 11 12  1  0  0  0
 11 18  1  0  0  0
 12 13  1  0  0  0
 12 36  1  0  0  0
 12 37  1  0  0  0
 13 14  1  0  0  0
 13 38  1  0  0  0
 13 39  1  0  0  0
 14 15  1  0  0  0
 14 40  1  0  0  0
 14 41  1  0  0  0
 15 16  1  0  0  0
 15 42  1  0  0  0
 15 43  1  0  0  0
 16 17  1  0  0  0
 16 44  1  0  0  0
 16 45  1  0  0  0
 17 46  1  0  0  0
 17 47  1  0  0  0
 18 19  2  0  0  0
 18 21  1  0  0  0
 19 20  1  0  0  0
 20 48  1  0  0  0
 21 49  1  0  0  0
 21 50  1  0  0  0
M  END
> <i_i_glide_confnum>
239

> <i_i_glide_lignum>
4738

> <i_i_glide_posenum>
390

> <i_i_glide_rotatable_bonds>
5

> <i_m_Source_File_Index>
1382

> <b_m_subgroup_collapsed>
0

> <r_i_docking_score>
-4.87663

> <r_i_glide_ecoul>
-3.88097

> <r_i_glide_eff_state_penalty>
0

> <r_i_glide_einternal>
4.43667

> <r_i_glide_emodel>
-39.6967

> <r_i_glide_energy>
-31.5219

> <r_i_glide_erotb>
1.04866

> <r_i_glide_esite>
-0.415358

> <r_i_glide_evdw>
-27.6409

> <r_i_glide_gscore>
-4.87663

> <r_i_glide_hbond>
-0.585516

> <r_i_glide_ligand_efficiency>
-0.232221

> <r_i_glide_ligand_efficiency_ln>
-1.20574

> <r_i_glide_ligand_efficiency_sa>
-0.640679

> <r_i_glide_lipo>
-1.56552

> <r_i_glide_metal>
0

> <r_i_glide_rewards>
-1.39471

> <s_i_glide_gridfile>
wee1_glide-grid

> <s_m_Source_File>
wee1_decoys_glide_SP.sdf

> <s_m_Source_Path>
/Users/zhangxujun/Desktop

> <s_m_entry_id>
1657

> <s_m_entry_name>
wee1_decoys_glide_SP.1382

> <s_m_subgroup_title>
wee1_decoys_glide_SP

> <s_m_subgroupid>
wee1_decoys_glide_SP


$$$$
