ZINC10031261_4820
                    3D
 Schrodinger Suite 2024-2.
 63 66  0  0  1  0            999 V2000
    6.5985   54.1774   27.5490 C   0  0  0  0  0  0
    5.4003   54.8938   27.8357 O   0  0  0  0  0  0
    4.3924   54.2610   28.5399 C   0  0  0  0  0  0
    3.3079   55.0456   28.9377 C   0  0  0  0  0  0
    2.2660   54.5061   29.6804 C   0  0  0  0  0  0
    2.3071   53.1611   30.0262 C   0  0  0  0  0  0
    3.3666   52.3527   29.6223 C   0  0  0  0  0  0
    4.4077   52.9010   28.8798 C   0  0  0  0  0  0
    1.0514   52.4968   31.0582 S   0  0  0  0  0  0
   -0.5133   52.3647   30.1317 C   0  0  0  0  0  0
   -0.6218   51.4080   28.9192 C   0  0  0  0  0  0
   -0.0095   51.9002   27.6047 C   0  0  0  0  0  0
    0.5347   53.0016   27.5666 O   0  0  0  0  0  0
   -0.1397   51.0631   26.5502 N   0  0  0  0  0  0
    0.3088   51.2315   25.2323 C   0  0  0  0  0  0
    0.2221   50.2779   24.1806 C   0  0  0  0  0  0
    0.9655   50.7398   23.0476 C   0  0  0  0  0  0
    1.3959   52.0624   23.1729 C   0  0  0  0  0  0
    1.0676   52.7183   24.7157 S   0  0  0  0  0  0
    2.0680   52.8654   22.0840 C   0  0  0  0  0  0
    2.0764   50.7746   20.7011 C   0  0  0  0  0  0
    1.3093   49.9420   21.7758 C   0  0  0  0  0  0
    3.8516   52.5628   20.3105 C   0  0  0  0  0  0
    4.8836   53.5690   20.8315 C   0  0  0  0  0  0
    5.4122   54.5008   19.9332 C   0  0  0  0  0  0
    6.3735   55.4166   20.3534 C   0  0  0  0  0  0
    6.8055   55.4068   21.6778 C   0  0  0  0  0  0
    6.2734   54.4998   22.5899 C   0  0  0  0  0  0
    5.3200   53.5763   22.1654 C   0  0  0  0  0  0
   -0.4885   48.9769   24.2292 C   0  0  0  0  0  0
   -0.4947   48.1542   23.3107 O   0  0  0  0  0  0
   -1.1836   48.8169   25.3730 O   0  0  0  0  0  0
   -1.9449   47.6420   25.6169 C   0  0  0  0  0  0
    7.3149   54.8473   27.0714 H   0  0  0  0  0  0
    6.4127   53.3475   26.8658 H   0  0  0  0  0  0
    7.0679   53.7960   28.4578 H   0  0  0  0  0  0
    3.2844   56.0957   28.7024 H   0  0  0  0  0  0
    1.4452   55.1316   29.9989 H   0  0  0  0  0  0
    3.3956   51.3075   29.8853 H   0  0  0  0  0  0
    5.2198   52.2569   28.5817 H   0  0  0  0  0  0
   -1.2020   51.9688   30.8781 H   0  0  0  0  0  0
   -0.8885   53.3587   29.8874 H   0  0  0  0  0  0
   -0.0873   50.4978   29.1746 H   0  0  0  0  0  0
   -1.6538   51.0862   28.7737 H   0  0  0  0  0  0
   -0.5987   50.1753   26.7299 H   0  0  0  0  0  0
    1.3719   53.2968   21.3621 H   0  0  0  0  0  0
    2.6887   53.6725   22.4731 H   0  0  0  0  0  0
    1.4020   51.3064   20.0256 H   0  0  0  0  0  0
    2.7217   50.1245   20.1046 H   0  0  0  0  0  0
    1.9315   49.0953   22.0720 H   0  0  0  0  0  0
    0.4195   49.5078   21.3192 H   0  0  0  0  0  0
    4.3666   51.7675   19.7658 H   0  0  0  0  0  0
    3.1523   53.0414   19.6204 H   0  0  0  0  0  0
    5.0898   54.5076   18.9016 H   0  0  0  0  0  0
    6.7926   56.1205   19.6486 H   0  0  0  0  0  0
    7.5644   56.1043   22.0038 H   0  0  0  0  0  0
    6.6127   54.5006   23.6165 H   0  0  0  0  0  0
    4.9322   52.8719   22.8836 H   0  0  0  0  0  0
   -2.5867   47.7933   26.4834 H   0  0  0  0  0  0
   -2.5864   47.3992   24.7682 H   0  0  0  0  0  0
   -1.2951   46.7906   25.8196 H   0  0  0  0  0  0
    2.9766   51.8437   21.3695 N   0  3  1  0  0  0
    3.5953   51.3986   22.0311 H   0  0  0  0  0  0
  1  2  1  0  0  0
  1 34  1  0  0  0
  1 35  1  0  0  0
  1 36  1  0  0  0
  2  3  1  0  0  0
  3  8  2  0  0  0
  3  4  1  0  0  0
  4  5  2  0  0  0
  4 37  1  0  0  0
  5  6  1  0  0  0
  5 38  1  0  0  0
  6  7  2  0  0  0
  6  9  1  0  0  0
  7  8  1  0  0  0
  7 39  1  0  0  0
  8 40  1  0  0  0
  9 10  1  0  0  0
 10 11  1  0  0  0
 10 41  1  0  0  0
 10 42  1  0  0  0
 11 12  1  0  0  0
 11 43  1  0  0  0
 11 44  1  0  0  0
 12 13  2  0  0  0
 12 14  1  0  0  0
 14 15  1  0  0  0
 14 45  1  0  0  0
 15 19  1  0  0  0
 15 16  2  0  0  0
 16 17  1  0  0  0
 16 30  1  0  0  0
 17 22  1  0  0  0
 17 18  2  0  0  0
 18 19  1  0  0  0
 18 20  1  0  0  0
 20 46  1  0  0  0
 20 47  1  0  0  0
 20 62  1  0  0  0
 21 22  1  0  0  0
 21 48  1  0  0  0
 21 49  1  0  0  0
 21 62  1  0  0  0
 22 50  1  0  0  0
 22 51  1  0  0  0
 23 24  1  0  0  0
 23 52  1  0  0  0
 23 53  1  0  0  0
 23 62  1  0  0  0
 24 29  2  0  0  0
 24 25  1  0  0  0
 25 26  2  0  0  0
 25 54  1  0  0  0
 26 27  1  0  0  0
 26 55  1  0  0  0
 27 28  2  0  0  0
 27 56  1  0  0  0
 28 29  1  0  0  0
 28 57  1  0  0  0
 29 58  1  0  0  0
 30 31  2  0  0  0
 30 32  1  0  0  0
 32 33  1  0  0  0
 33 59  1  0  0  0
 33 60  1  0  0  0
 33 61  1  0  0  0
 62 63  1  0  0  0
M  CHG  1  62   1
M  END
> <i_i_glide_confnum>
77

> <i_i_glide_lignum>
4821

> <i_i_glide_posenum>
264

> <i_i_glide_rotatable_bonds>
11

> <i_m_Source_File_Index>
3120

> <b_m_subgroup_collapsed>
0

> <r_i_docking_score>
-5.43658

> <r_i_glide_ecoul>
-3.54492

> <r_i_glide_eff_state_penalty>
0

> <r_i_glide_einternal>
15.3091

> <r_i_glide_emodel>
-65.3003

> <r_i_glide_energy>
-54.4178

> <r_i_glide_erotb>
0.741371

> <r_i_glide_esite>
-0.0731543

> <r_i_glide_evdw>
-50.8729

> <r_i_glide_gscore>
-5.43658

> <r_i_glide_hbond>
0

> <r_i_glide_ligand_efficiency>
-0.159899

> <r_i_glide_ligand_efficiency_ln>
-1.20109

> <r_i_glide_ligand_efficiency_sa>
-0.518012

> <r_i_glide_lipo>
-2.96999

> <r_i_glide_metal>
0

> <r_i_glide_rewards>
-0.0594311

> <s_i_glide_gridfile>
wee1_glide-grid

> <s_m_Source_File>
wee1_decoys_glide_SP.sdf

> <s_m_Source_Path>
/Users/zhangxujun/Desktop

> <s_m_entry_id>
3395

> <s_m_entry_name>
wee1_decoys_glide_SP.3120

> <s_m_subgroup_title>
wee1_decoys_glide_SP

> <s_m_subgroupid>
wee1_decoys_glide_SP


$$$$
