ZINC35095088_4550
                    3D
 Schrodinger Suite 2024-2.
 59 61  0  0  1  0            999 V2000
    4.1862   54.6881   29.3898 C   0  0  0  0  0  0
    3.9295   54.3805   27.9311 C   0  0  0  0  0  0
    2.6524   53.9893   27.5316 C   0  0  0  0  0  0
    2.4023   53.6900   26.1965 C   0  0  0  0  0  0
    3.4357   53.7836   25.2536 C   0  0  0  0  0  0
    4.7109   54.1878   25.6609 C   0  0  0  0  0  0
    4.9589   54.4879   26.9968 C   0  0  0  0  0  0
    3.3088   53.4524   23.8932 N   0  0  0  0  0  0
    2.2166   53.2158   23.1290 C   0  0  0  0  0  0
    1.0764   53.2564   23.6022 O   0  0  0  0  0  0
    2.4727   52.8736   21.8124 N   0  0  0  0  0  0
    1.2719   52.4248   21.0378 C   0  0  0  0  0  0
    1.3958   51.3226   19.9701 C   0  0  0  0  0  0
    1.9820   49.9959   20.4925 C   0  0  0  0  0  0
    2.3026   49.0855   19.3962 N   0  0  0  0  0  0
    1.5590   48.0297   19.0421 C   0  0  0  0  0  0
    0.6710   47.5548   19.7498 O   0  0  0  0  0  0
    1.9074   47.5878   17.8205 N   0  0  0  0  0  0
    1.4671   46.4412   17.1352 C   0  0  0  0  0  0
    1.8800   46.3218   15.8059 C   0  0  0  0  0  0
    1.5212   45.2039   15.0546 C   0  0  0  0  0  0
    0.7694   44.1816   15.6315 C   0  0  0  0  0  0
    0.3585   44.2721   16.9677 C   0  0  0  0  0  0
    0.7040   45.4087   17.7082 C   0  0  0  0  0  0
   -0.4372   43.1488   17.6356 C   0  0  0  0  0  0
   -1.5741   43.6274   18.1403 F   0  0  0  0  0  0
    0.2790   42.6216   18.6308 F   0  0  0  0  0  0
   -0.7432   42.1645   16.7882 F   0  0  0  0  0  0
    3.6748   53.2831   21.1111 C   0  0  0  0  0  0
    4.2431   52.5452   20.0577 C   0  0  0  0  0  0
    5.3209   53.0430   19.3244 C   0  0  0  0  0  0
    5.9057   54.2502   19.6673 C   0  0  0  0  0  0
    5.4211   54.9655   20.7456 C   0  0  0  0  0  0
    4.3063   54.4970   21.4323 C   0  0  0  0  0  0
    6.9583   54.7199   18.9629 F   0  0  0  0  0  0
    3.9168   53.8308   30.0071 H   0  0  0  0  0  0
    5.2292   54.9410   29.5877 H   0  0  0  0  0  0
    3.5530   55.5245   29.6810 H   0  0  0  0  0  0
    1.8537   53.9055   28.2542 H   0  0  0  0  0  0
    1.4090   53.3672   25.9308 H   0  0  0  0  0  0
    5.5219   54.2579   24.9496 H   0  0  0  0  0  0
    5.9480   54.7954   27.3054 H   0  0  0  0  0  0
    4.1871   53.4015   23.4009 H   0  0  0  0  0  0
    0.7674   53.2965   20.6201 H   0  0  0  0  0  0
    0.5551   51.9898   21.7364 H   0  0  0  0  0  0
    1.9141   51.6951   19.0873 H   0  0  0  0  0  0
    0.3926   51.1132   19.5965 H   0  0  0  0  0  0
    1.3075   49.5571   21.2322 H   0  0  0  0  0  0
    2.8965   50.1682   21.0588 H   0  0  0  0  0  0
    3.1376   49.2893   18.8615 H   0  0  0  0  0  0
    2.5901   48.1483   17.3211 H   0  0  0  0  0  0
    2.4788   47.0997   15.3501 H   0  0  0  0  0  0
    1.8323   45.1247   14.0235 H   0  0  0  0  0  0
    0.5173   43.3174   15.0342 H   0  0  0  0  0  0
    0.3844   45.4533   18.7374 H   0  0  0  0  0  0
    3.8902   51.5800   19.7539 H   0  0  0  0  0  0
    5.7186   52.5024   18.4813 H   0  0  0  0  0  0
    5.8709   55.9105   21.0100 H   0  0  0  0  0  0
    3.8956   55.1534   22.1835 H   0  0  0  0  0  0
  1  2  1  0  0  0
  1 36  1  0  0  0
  1 37  1  0  0  0
  1 38  1  0  0  0
  2  7  2  0  0  0
  2  3  1  0  0  0
  3  4  2  0  0  0
  3 39  1  0  0  0
  4  5  1  0  0  0
  4 40  1  0  0  0
  5  6  2  0  0  0
  5  8  1  0  0  0
  6  7  1  0  0  0
  6 41  1  0  0  0
  7 42  1  0  0  0
  8  9  1  0  0  0
  8 43  1  0  0  0
  9 10  2  0  0  0
  9 11  1  0  0  0
 11 12  1  0  0  0
 11 29  1  0  0  0
 12 13  1  0  0  0
 12 44  1  0  0  0
 12 45  1  0  0  0
 13 14  1  0  0  0
 13 46  1  0  0  0
 13 47  1  0  0  0
 14 15  1  0  0  0
 14 48  1  0  0  0
 14 49  1  0  0  0
 15 16  1  0  0  0
 15 50  1  0  0  0
 16 17  2  0  0  0
 16 18  1  0  0  0
 18 19  1  0  0  0
 18 51  1  0  0  0
 19 24  2  0  0  0
 19 20  1  0  0  0
 20 21  2  0  0  0
 20 52  1  0  0  0
 21 22  1  0  0  0
 21 53  1  0  0  0
 22 23  2  0  0  0
 22 54  1  0  0  0
 23 24  1  0  0  0
 23 25  1  0  0  0
 24 55  1  0  0  0
 25 26  1  0  0  0
 25 27  1  0  0  0
 25 28  1  0  0  0
 29 34  2  0  0  0
 29 30  1  0  0  0
 30 31  2  0  0  0
 30 56  1  0  0  0
 31 32  1  0  0  0
 31 57  1  0  0  0
 32 33  2  0  0  0
 32 35  1  0  0  0
 33 34  1  0  0  0
 33 58  1  0  0  0
 34 59  1  0  0  0
M  END
> <i_i_glide_confnum>
288

> <i_i_glide_lignum>
4551

> <i_i_glide_posenum>
335

> <i_i_glide_rotatable_bonds>
12

> <i_m_Source_File_Index>
4224

> <b_m_subgroup_collapsed>
0

> <r_i_docking_score>
-4.12393

> <r_i_glide_ecoul>
-4.33758

> <r_i_glide_eff_state_penalty>
0

> <r_i_glide_einternal>
6.99759

> <r_i_glide_emodel>
-50.4042

> <r_i_glide_energy>
-41.303

> <r_i_glide_erotb>
0.852299

> <r_i_glide_esite>
-0.301965

> <r_i_glide_evdw>
-36.9654

> <r_i_glide_gscore>
-4.12393

> <r_i_glide_hbond>
-0.16

> <r_i_glide_ligand_efficiency>
-0.117826

> <r_i_glide_ligand_efficiency_ln>
-0.905294

> <r_i_glide_ligand_efficiency_sa>
-0.385418

> <r_i_glide_lipo>
-1.71457

> <r_i_glide_metal>
0

> <r_i_glide_rewards>
-0.300789

> <s_i_glide_gridfile>
wee1_glide-grid

> <s_m_Source_File>
wee1_decoys_glide_SP.sdf

> <s_m_Source_Path>
/Users/zhangxujun/Desktop

> <s_m_entry_id>
4499

> <s_m_entry_name>
wee1_decoys_glide_SP.4224

> <s_m_subgroup_title>
wee1_decoys_glide_SP

> <s_m_subgroupid>
wee1_decoys_glide_SP


$$$$
