ZINC25247279_2501
                    3D
 Schrodinger Suite 2024-2.
 53 56  0  0  1  0            999 V2000
    1.1282   52.1862   32.2174 C   0  0  0  0  0  0
    0.8235   52.2269   30.7160 C   0  0  0  0  0  0
    1.3320   53.4207   30.0282 N   0  0  0  0  0  0
    0.6251   54.6565   30.4068 C   0  0  0  0  0  0
    1.2225   55.9712   29.8686 C   0  0  0  0  0  0
    1.4618   53.2493   28.6225 C   0  0  0  0  0  0
    2.6313   53.6299   27.9330 C   0  0  0  0  0  0
    2.6554   53.5195   26.4937 C   0  0  0  0  0  0
    3.7719   53.8993   25.6685 C   0  0  0  0  0  0
    3.6801   53.7901   24.2955 C   0  0  0  0  0  0
    2.5813   53.3427   23.6527 N   0  0  0  0  0  0
    1.5475   52.9061   24.3937 C   0  0  0  0  0  0
    1.5037   52.9748   25.8247 C   0  0  0  0  0  0
    0.4186   52.5607   26.6520 C   0  0  0  0  0  0
    0.4003   52.7045   27.9833 N   0  0  0  0  0  0
   -0.7813   52.0554   26.1676 N   0  0  0  0  0  0
    0.5461   52.3433   23.6082 N   0  0  0  0  0  0
    4.9121   54.0967   23.6765 N   0  0  0  0  0  0
    5.8199   54.4969   24.6079 C   0  0  0  0  0  0
    6.9824   54.8629   24.4474 O   0  0  0  0  0  0
    5.1468   54.4085   25.9681 C   0  0  0  0  0  0
    5.1662   53.9983   22.2802 C   0  0  0  0  0  0
    4.6929   52.8898   21.5640 C   0  0  0  0  0  0
    4.8525   52.8175   20.1835 C   0  0  0  0  0  0
    5.5139   53.8380   19.5049 C   0  0  0  0  0  0
    6.0427   54.9175   20.2118 C   0  0  0  0  0  0
    5.8790   54.9932   21.5922 C   0  0  0  0  0  0
    5.7038   53.7454   18.0026 C   0  0  0  0  0  0
    3.7903   54.1142   28.6851 C   0  0  0  0  0  0
    4.7028   54.4968   29.2813 N   0  0  0  0  0  0
    0.7046   51.2953   32.6727 H   0  0  0  0  0  0
    0.6991   53.0258   32.7622 H   0  0  0  0  0  0
    2.2025   52.1665   32.4027 H   0  0  0  0  0  0
    1.2597   51.3471   30.2387 H   0  0  0  0  0  0
   -0.2548   52.1449   30.5595 H   0  0  0  0  0  0
   -0.4135   54.5688   30.0822 H   0  0  0  0  0  0
    0.5975   54.7429   31.4926 H   0  0  0  0  0  0
    0.7037   56.8310   30.2925 H   0  0  0  0  0  0
    2.2739   56.0775   30.1402 H   0  0  0  0  0  0
    1.1372   56.0451   28.7841 H   0  0  0  0  0  0
   -0.9951   52.1486   25.1870 H   0  0  0  0  0  0
   -1.4905   51.8124   26.8438 H   0  0  0  0  0  0
    0.1343   51.5077   23.9947 H   0  0  0  0  0  0
    0.7715   52.3313   22.6234 H   0  0  0  0  0  0
    5.1384   55.3947   26.4326 H   0  0  0  0  0  0
    5.7177   53.7189   26.5925 H   0  0  0  0  0  0
    4.1729   52.0850   22.0608 H   0  0  0  0  0  0
    4.4630   51.9648   19.6443 H   0  0  0  0  0  0
    6.5809   55.6987   19.6939 H   0  0  0  0  0  0
    6.3020   55.8376   22.1160 H   0  0  0  0  0  0
    5.8199   52.7066   17.6888 H   0  0  0  0  0  0
    4.8448   54.1702   17.4834 H   0  0  0  0  0  0
    6.6064   54.2688   17.6849 H   0  0  0  0  0  0
  1  2  1  0  0  0
  1 31  1  0  0  0
  1 32  1  0  0  0
  1 33  1  0  0  0
  2  3  1  0  0  0
  2 34  1  0  0  0
  2 35  1  0  0  0
  3  4  1  0  0  0
  3  6  1  0  0  0
  4  5  1  0  0  0
  4 36  1  0  0  0
  4 37  1  0  0  0
  5 38  1  0  0  0
  5 39  1  0  0  0
  5 40  1  0  0  0
  6 15  2  0  0  0
  6  7  1  0  0  0
  7  8  2  0  0  0
  7 29  1  0  0  0
  8 13  1  0  0  0
  8  9  1  0  0  0
  9 21  1  0  0  0
  9 10  2  0  0  0
 10 11  1  0  0  0
 10 18  1  0  0  0
 11 12  2  0  0  0
 12 13  1  0  0  0
 12 17  1  0  0  0
 13 14  2  0  0  0
 14 15  1  0  0  0
 14 16  1  0  0  0
 16 41  1  0  0  0
 16 42  1  0  0  0
 17 43  1  0  0  0
 17 44  1  0  0  0
 18 19  1  0  0  0
 18 22  1  0  0  0
 19 20  2  0  0  0
 19 21  1  0  0  0
 21 45  1  0  0  0
 21 46  1  0  0  0
 22 27  2  0  0  0
 22 23  1  0  0  0
 23 24  2  0  0  0
 23 47  1  0  0  0
 24 25  1  0  0  0
 24 48  1  0  0  0
 25 26  2  0  0  0
 25 28  1  0  0  0
 26 27  1  0  0  0
 26 49  1  0  0  0
 27 50  1  0  0  0
 28 51  1  0  0  0
 28 52  1  0  0  0
 28 53  1  0  0  0
 29 30  3  0  0  0
M  END
> <i_i_glide_confnum>
5

> <i_i_glide_lignum>
2502

> <i_i_glide_posenum>
375

> <i_i_glide_rotatable_bonds>
5

> <i_m_Source_File_Index>
6025

> <b_m_subgroup_collapsed>
0

> <r_i_docking_score>
-7.43537

> <r_i_glide_ecoul>
-1.47304

> <r_i_glide_eff_state_penalty>
0

> <r_i_glide_einternal>
7.24855

> <r_i_glide_emodel>
-66.8298

> <r_i_glide_energy>
-49.1488

> <r_i_glide_erotb>
0.243394

> <r_i_glide_esite>
-0.0145302

> <r_i_glide_evdw>
-47.6757

> <r_i_glide_gscore>
-7.43537

> <r_i_glide_hbond>
0

> <r_i_glide_ligand_efficiency>
-0.247846

> <r_i_glide_ligand_efficiency_ln>
-1.6894

> <r_i_glide_ligand_efficiency_sa>
-0.770114

> <r_i_glide_lipo>
-3.0322

> <r_i_glide_metal>
0

> <r_i_glide_rewards>
-2.02729

> <s_i_glide_gridfile>
wee1_glide-grid

> <s_m_Source_File>
wee1_decoys_glide_SP.sdf

> <s_m_Source_Path>
/Users/zhangxujun/Desktop

> <s_m_entry_id>
6300

> <s_m_entry_name>
wee1_decoys_glide_SP.6025

> <s_m_subgroup_title>
wee1_decoys_glide_SP

> <s_m_subgroupid>
wee1_decoys_glide_SP


$$$$
