ZINC13261371_1934
                    3D
 Schrodinger Suite 2024-2.
 50 53  0  0  1  0            999 V2000
    0.9813   55.6585   16.4821 C   0  0  0  0  0  0
    1.8127   54.6209   16.8796 C   0  0  0  0  0  0
    3.1728   54.8515   17.0622 C   0  0  0  0  0  0
    3.7414   56.1222   16.8695 C   0  0  0  0  0  0
    2.8817   57.1749   16.4597 C   0  0  0  0  0  0
    1.5178   56.9222   16.2703 C   0  0  0  0  0  0
    3.4108   58.5773   16.2208 C   0  0  0  0  0  0
    4.8906   58.5211   15.8540 C   0  0  0  0  0  0
    5.6483   57.7324   16.9232 C   0  0  0  0  0  0
    5.1463   56.3538   17.0547 N   0  0  0  0  0  0
    6.3579   55.0915   17.5063 S   0  0  0  0  0  0
    7.6933   55.6589   17.2809 O   0  0  0  0  0  0
    5.9895   53.8275   16.8621 O   0  0  0  0  0  0
    6.1841   54.8825   19.2812 C   0  0  0  0  0  0
    5.2133   54.0166   19.7909 C   0  0  0  0  0  0
    5.0926   53.8399   21.1618 C   0  0  0  0  0  0
    5.9653   54.4967   22.0339 C   0  0  0  0  0  0
    6.9463   55.3543   21.5263 C   0  0  0  0  0  0
    7.0438   55.5622   20.1510 C   0  0  0  0  0  0
    5.9209   54.1823   23.4980 C   0  0  0  0  0  0
    6.9170   53.6995   24.0346 O   0  0  0  0  0  0
    4.7252   54.4194   24.0771 N   0  0  0  0  0  0
    4.2563   54.1021   25.3697 C   0  0  0  0  0  0
    2.9136   53.7050   25.3803 C   0  0  0  0  0  0
    2.2876   53.3045   26.5569 C   0  0  0  0  0  0
    2.9951   53.2998   27.7499 C   0  0  0  0  0  0
    4.3203   53.7223   27.7679 C   0  0  0  0  0  0
    4.9741   54.1540   26.5987 C   0  0  0  0  0  0
    6.3660   54.6868   26.7523 C   0  0  0  0  0  0
    6.7042   55.6967   26.0878 O   0  0  0  0  0  0
   -0.0735   55.4843   16.3333 H   0  0  0  0  0  0
    1.4073   53.6326   17.0401 H   0  0  0  0  0  0
    3.7538   53.9962   17.3446 H   0  0  0  0  0  0
    0.8636   57.7267   15.9667 H   0  0  0  0  0  0
    3.2810   59.1689   17.1289 H   0  0  0  0  0  0
    2.8480   59.0877   15.4369 H   0  0  0  0  0  0
    5.3007   59.5285   15.7720 H   0  0  0  0  0  0
    5.0281   58.0560   14.8761 H   0  0  0  0  0  0
    5.4660   58.1842   17.8985 H   0  0  0  0  0  0
    6.7261   57.7922   16.7763 H   0  0  0  0  0  0
    4.5707   53.4450   19.1429 H   0  0  0  0  0  0
    4.3538   53.1428   21.5300 H   0  0  0  0  0  0
    7.6516   55.8346   22.1912 H   0  0  0  0  0  0
    7.8116   56.2159   19.7609 H   0  0  0  0  0  0
    3.9973   54.6846   23.4319 H   0  0  0  0  0  0
    2.3398   53.6783   24.4654 H   0  0  0  0  0  0
    1.2561   52.9851   26.5377 H   0  0  0  0  0  0
    2.5149   52.9816   28.6628 H   0  0  0  0  0  0
    4.8397   53.7340   28.7152 H   0  0  0  0  0  0
    7.1044   54.0987   27.5715 O   0  5  0  0  0  0
  1  6  2  0  0  0
  1  2  1  0  0  0
  1 31  1  0  0  0
  2  3  2  0  0  0
  2 32  1  0  0  0
  3  4  1  0  0  0
  3 33  1  0  0  0
  4 10  1  0  0  0
  4  5  2  0  0  0
  5  6  1  0  0  0
  5  7  1  0  0  0
  6 34  1  0  0  0
  7  8  1  0  0  0
  7 35  1  0  0  0
  7 36  1  0  0  0
  8  9  1  0  0  0
  8 37  1  0  0  0
  8 38  1  0  0  0
  9 10  1  0  0  0
  9 39  1  0  0  0
  9 40  1  0  0  0
 10 11  1  0  0  0
 11 12  2  0  0  0
 11 13  2  0  0  0
 11 14  1  0  0  0
 14 19  2  0  0  0
 14 15  1  0  0  0
 15 16  2  0  0  0
 15 41  1  0  0  0
 16 17  1  0  0  0
 16 42  1  0  0  0
 17 18  2  0  0  0
 17 20  1  0  0  0
 18 19  1  0  0  0
 18 43  1  0  0  0
 19 44  1  0  0  0
 20 21  2  0  0  0
 20 22  1  0  0  0
 22 23  1  0  0  0
 22 45  1  0  0  0
 23 28  2  0  0  0
 23 24  1  0  0  0
 24 25  2  0  0  0
 24 46  1  0  0  0
 25 26  1  0  0  0
 25 47  1  0  0  0
 26 27  2  0  0  0
 26 48  1  0  0  0
 27 28  1  0  0  0
 27 49  1  0  0  0
 28 29  1  0  0  0
 29 30  2  0  0  0
 29 50  1  0  0  0
M  CHG  1  50  -1
M  END
> <i_i_glide_confnum>
742

> <i_i_glide_lignum>
1935

> <i_i_glide_posenum>
199

> <i_i_glide_rotatable_bonds>
6

> <i_m_Source_File_Index>
970

> <b_m_subgroup_collapsed>
0

> <r_i_docking_score>
-5.53816

> <r_i_glide_ecoul>
-3.04082

> <r_i_glide_eff_state_penalty>
0

> <r_i_glide_einternal>
7.03064

> <r_i_glide_emodel>
-56.5508

> <r_i_glide_energy>
-42.9254

> <r_i_glide_erotb>
0.525335

> <r_i_glide_esite>
-0.0167293

> <r_i_glide_evdw>
-39.8846

> <r_i_glide_gscore>
-5.53816

> <r_i_glide_hbond>
-0.173703

> <r_i_glide_ligand_efficiency>
-0.17865

> <r_i_glide_ligand_efficiency_ln>
-1.24902

> <r_i_glide_ligand_efficiency_sa>
-0.561208

> <r_i_glide_lipo>
-2.06817

> <r_i_glide_metal>
0

> <r_i_glide_rewards>
-1.35454

> <s_i_glide_gridfile>
wee1_glide-grid

> <s_m_Source_File>
wee1_decoys_glide_SP.sdf

> <s_m_Source_Path>
/Users/zhangxujun/Desktop

> <s_m_entry_id>
1245

> <s_m_entry_name>
wee1_decoys_glide_SP.970

> <s_m_subgroup_title>
wee1_decoys_glide_SP

> <s_m_subgroupid>
wee1_decoys_glide_SP


$$$$
