ZINC13564737_5158
                    3D
 Schrodinger Suite 2024-2.
 65 70  0  0  1  0            999 V2000
   -2.7580   50.8337   26.6454 C   0  0  0  0  0  0
   -2.5196   51.2094   25.2926 O   0  0  0  0  0  0
   -1.2856   51.7267   24.9363 C   0  0  0  0  0  0
   -0.2697   52.0040   25.8613 C   0  0  0  0  0  0
    0.9529   52.5146   25.4390 C   0  0  0  0  0  0
    1.2058   52.7849   24.0906 C   0  0  0  0  0  0
    0.1881   52.4961   23.1699 C   0  0  0  0  0  0
   -1.0508   51.9661   23.5751 C   0  0  0  0  0  0
   -2.0717   51.6507   22.6949 O   0  0  0  0  0  0
   -1.8238   51.6604   21.2953 C   0  0  0  0  0  0
    2.5336   53.3378   23.6232 C   0  0  0  0  0  0
    3.6649   53.7484   24.3637 C   0  0  0  0  0  0
    4.1102   53.8198   25.7542 C   0  0  0  0  0  0
    5.3902   54.1635   26.0704 C   0  0  0  0  0  0
    6.3542   54.5471   25.0398 C   0  0  0  0  0  0
    7.5009   54.9001   25.2811 O   0  0  0  0  0  0
    5.9130   54.4791   23.7611 N   0  0  0  0  0  0
    6.5947   54.7435   23.0670 H   0  0  0  0  0  0
    4.6226   54.0966   23.4285 C   0  0  0  0  0  0
    4.0694   53.8806   22.1902 N   0  0  0  0  0  0
    2.7966   53.4512   22.3280 N   0  0  0  0  0  0
    4.6585   54.0336   20.9071 C   0  0  0  0  0  0
    5.6172   55.0289   20.6775 C   0  0  0  0  0  0
    6.2127   55.1554   19.4246 C   0  0  0  0  0  0
    5.8501   54.2853   18.3980 C   0  0  0  0  0  0
    4.8939   53.2966   18.6129 C   0  0  0  0  0  0
    4.2954   53.1706   19.8629 C   0  0  0  0  0  0
    5.9676   54.1192   27.4925 C   0  0  0  0  0  0
    5.2849   53.2962   28.4815 N   0  0  0  0  0  0
    4.0436   53.6662   29.0092 C   0  0  0  0  0  0
    3.4919   54.9381   28.8324 C   0  0  0  0  0  0
    2.2161   55.2473   29.2935 C   0  0  0  0  0  0
    1.4904   54.2718   29.9680 C   0  0  0  0  0  0
    2.0405   53.0032   30.1586 C   0  0  0  0  0  0
    3.3121   52.6973   29.6830 C   0  0  0  0  0  0
    1.0517   52.0970   30.8218 C   0  0  0  0  0  0
   -0.0817   53.0180   31.2547 C   0  0  0  0  0  0
    0.0802   54.3297   30.4927 C   0  0  0  0  0  0
   -3.7457   50.3776   26.7292 H   0  0  0  0  0  0
   -2.0299   50.0969   26.9852 H   0  0  0  0  0  0
   -2.7325   51.6946   27.3152 H   0  0  0  0  0  0
   -0.4058   51.8186   26.9160 H   0  0  0  0  0  0
    1.6891   52.6894   26.1980 H   0  0  0  0  0  0
    0.3681   52.6854   22.1244 H   0  0  0  0  0  0
   -2.7008   51.2756   20.7714 H   0  0  0  0  0  0
   -1.6407   52.6697   20.9329 H   0  0  0  0  0  0
   -0.9775   51.0252   21.0320 H   0  0  0  0  0  0
    3.4546   53.5282   26.5465 H   0  0  0  0  0  0
    5.9025   55.7225   21.4526 H   0  0  0  0  0  0
    6.9511   55.9232   19.2449 H   0  0  0  0  0  0
    6.3176   54.3742   17.4281 H   0  0  0  0  0  0
    4.6320   52.6107   17.8199 H   0  0  0  0  0  0
    3.5687   52.3859   20.0143 H   0  0  0  0  0  0
    6.0966   55.1354   27.8670 H   0  0  0  0  0  0
    6.9753   53.6999   27.4388 H   0  0  0  0  0  0
    5.4492   52.3024   28.4064 H   0  0  0  0  0  0
    4.0306   55.6921   28.2937 H   0  0  0  0  0  0
    1.8025   56.2297   29.1157 H   0  0  0  0  0  0
    3.7226   51.7070   29.8115 H   0  0  0  0  0  0
    1.4729   51.5761   31.6817 H   0  0  0  0  0  0
    0.6844   51.3789   30.0826 H   0  0  0  0  0  0
   -1.0388   52.5405   31.0669 H   0  0  0  0  0  0
   -0.0134   53.2182   32.3239 H   0  0  0  0  0  0
   -0.6317   54.3624   29.6715 H   0  0  0  0  0  0
   -0.0963   55.1883   31.1402 H   0  0  0  0  0  0
  1  2  1  0  0  0
  1 39  1  0  0  0
  1 40  1  0  0  0
  1 41  1  0  0  0
  2  3  1  0  0  0
  3  8  2  0  0  0
  3  4  1  0  0  0
  4  5  2  0  0  0
  4 42  1  0  0  0
  5  6  1  0  0  0
  5 43  1  0  0  0
  6  7  2  0  0  0
  6 11  1  0  0  0
  7  8  1  0  0  0
  7 44  1  0  0  0
  8  9  1  0  0  0
  9 10  1  0  0  0
 10 45  1  0  0  0
 10 46  1  0  0  0
 10 47  1  0  0  0
 11 21  2  0  0  0
 11 12  1  0  0  0
 12 19  2  0  0  0
 12 13  1  0  0  0
 13 14  2  0  0  0
 13 48  1  0  0  0
 14 15  1  0  0  0
 14 28  1  0  0  0
 15 16  2  0  0  0
 15 17  1  0  0  0
 17 18  1  0  0  0
 17 19  1  0  0  0
 19 20  1  0  0  0
 20 21  1  0  0  0
 20 22  1  0  0  0
 22 27  2  0  0  0
 22 23  1  0  0  0
 23 24  2  0  0  0
 23 49  1  0  0  0
 24 25  1  0  0  0
 24 50  1  0  0  0
 25 26  2  0  0  0
 25 51  1  0  0  0
 26 27  1  0  0  0
 26 52  1  0  0  0
 27 53  1  0  0  0
 28 29  1  0  0  0
 28 54  1  0  0  0
 28 55  1  0  0  0
 29 30  1  0  0  0
 29 56  1  0  0  0
 30 35  2  0  0  0
 30 31  1  0  0  0
 31 32  2  0  0  0
 31 57  1  0  0  0
 32 33  1  0  0  0
 32 58  1  0  0  0
 33 38  1  0  0  0
 33 34  2  0  0  0
 34 35  1  0  0  0
 34 36  1  0  0  0
 35 59  1  0  0  0
 36 37  1  0  0  0
 36 60  1  0  0  0
 36 61  1  0  0  0
 37 38  1  0  0  0
 37 62  1  0  0  0
 37 63  1  0  0  0
 38 64  1  0  0  0
 38 65  1  0  0  0
M  END
> <i_i_glide_confnum>
130

> <i_i_glide_lignum>
5159

> <i_i_glide_posenum>
357

> <i_i_glide_rotatable_bonds>
7

> <i_m_Source_File_Index>
2054

> <b_m_subgroup_collapsed>
0

> <r_i_docking_score>
-7.76776

> <r_i_glide_ecoul>
-3.98387

> <r_i_glide_eff_state_penalty>
0

> <r_i_glide_einternal>
2.9731

> <r_i_glide_emodel>
-76.8367

> <r_i_glide_energy>
-51.9164

> <r_i_glide_erotb>
0.419692

> <r_i_glide_esite>
0

> <r_i_glide_evdw>
-47.9326

> <r_i_glide_gscore>
-7.76776

> <r_i_glide_hbond>
-0.307757

> <r_i_glide_ligand_efficiency>
-0.209939

> <r_i_glide_ligand_efficiency_ln>
-1.68464

> <r_i_glide_ligand_efficiency_sa>
-0.699565

> <r_i_glide_lipo>
-3.75542

> <r_i_glide_metal>
0

> <r_i_glide_rewards>
-1.13006

> <s_i_glide_gridfile>
wee1_glide-grid

> <s_m_Source_File>
wee1_decoys_glide_SP.sdf

> <s_m_Source_Path>
/Users/zhangxujun/Desktop

> <s_m_entry_id>
2329

> <s_m_entry_name>
wee1_decoys_glide_SP.2054

> <s_m_subgroup_title>
wee1_decoys_glide_SP

> <s_m_subgroupid>
wee1_decoys_glide_SP


$$$$
