ZINC63480012_4098
                    3D
 Schrodinger Suite 2024-2.
 61 67  0  0  1  0            999 V2000
    2.3006   49.6357   18.5960 C   0  0  0  0  0  0
    1.4696   50.0869   19.7814 C   0  0  0  0  0  0
    0.2728   50.7706   19.5613 C   0  0  0  0  0  0
   -0.5033   51.1818   20.6413 C   0  0  0  0  0  0
   -0.0803   50.9095   21.9484 C   0  0  0  0  0  0
    1.1235   50.2229   22.1648 C   0  0  0  0  0  0
    1.8949   49.8112   21.0820 C   0  0  0  0  0  0
   -0.8681   51.3042   23.0524 N   0  0  0  0  0  0
   -0.4197   52.1352   24.0289 C   0  0  0  0  0  0
    0.6574   52.7339   24.0662 O   0  0  0  0  0  0
   -1.5184   52.2796   25.0792 C   0  0  2  0  0  0
   -1.8405   53.3121   25.0621 H   0  0  0  0  0  0
   -1.1214   51.8309   26.5023 C   0  0  1  0  0  0
   -1.8302   52.3126   27.1748 H   0  0  0  0  0  0
   -1.3992   50.4012   26.4808 N   0  0  0  0  0  0
   -2.6596   50.2119   25.7509 C   0  0  1  0  0  0
   -2.6031   51.3342   24.6440 C   0  0  2  0  0  0
   -3.5434   51.8752   24.5140 H   0  0  0  0  0  0
   -2.1395   50.8679   23.2636 C   0  0  0  0  0  0
   -2.8448   50.2202   22.4879 O   0  0  0  0  0  0
   -2.9420   48.7876   25.3217 C   0  0  0  0  0  0
   -2.2095   47.8885   24.5383 C   0  0  0  0  0  0
   -2.7729   46.6598   24.1879 C   0  0  0  0  0  0
   -4.0441   46.3101   24.6542 C   0  0  0  0  0  0
   -4.7514   47.1819   25.4837 C   0  0  0  0  0  0
   -4.1840   48.4143   25.8018 C   0  0  0  0  0  0
   -4.6910   49.4180   26.6027 N   0  0  0  0  0  0
   -3.8803   50.4841   26.6902 C   0  0  0  0  0  0
   -4.0928   51.4933   27.3647 O   0  0  0  0  0  0
   -2.0969   45.8141   23.3777 F   0  0  0  0  0  0
    0.2705   52.2604   27.0148 C   0  0  0  0  0  0
    0.5027   52.2091   28.5140 C   0  0  0  0  0  0
    1.6615   52.2691   29.1867 C   0  0  0  0  0  0
    3.0405   52.4170   28.6997 C   0  0  0  0  0  0
    4.0801   52.3793   29.5551 C   0  0  0  0  0  0
    3.7918   52.1823   30.9668 C   0  0  0  0  0  0
    2.5175   52.0967   31.4306 C   0  0  0  0  0  0
    1.4293   52.1615   30.5580 C   0  0  0  0  0  0
    0.1403   52.0972   30.8142 N   0  3  0  0  0  0
   -0.6024   52.0652   29.5449 C   0  0  0  0  0  0
    1.6778   49.1126   17.8704 H   0  0  0  0  0  0
    2.7356   50.4963   18.0865 H   0  0  0  0  0  0
    3.0991   48.9525   18.8834 H   0  0  0  0  0  0
   -0.0553   50.9815   18.5536 H   0  0  0  0  0  0
   -1.4311   51.7048   20.4608 H   0  0  0  0  0  0
    1.4598   50.0010   23.1684 H   0  0  0  0  0  0
    2.8201   49.2805   21.2551 H   0  0  0  0  0  0
   -1.3848   49.8799   27.3650 H   0  0  0  0  0  0
   -1.2321   48.1513   24.1622 H   0  0  0  0  0  0
   -4.4888   45.3683   24.3709 H   0  0  0  0  0  0
   -5.7260   46.9000   25.8544 H   0  0  0  0  0  0
   -5.5440   49.3456   27.1350 H   0  0  0  0  0  0
    0.4531   53.2956   26.7263 H   0  0  0  0  0  0
    1.0454   51.6715   26.5227 H   0  0  0  0  0  0
    3.2564   52.5557   27.6491 H   0  0  0  0  0  0
    5.0967   52.4892   29.2019 H   0  0  0  0  0  0
    4.6132   52.0980   31.6654 H   0  0  0  0  0  0
    2.3566   51.9466   32.4818 H   0  0  0  0  0  0
   -1.1472   51.1189   29.4930 H   0  0  0  0  0  0
   -1.2955   52.8966   29.5614 H   0  0  0  0  0  0
   -0.3015   52.0019   31.7363 H   0  0  0  0  0  0
  1  2  1  0  0  0
  1 41  1  0  0  0
  1 42  1  0  0  0
  1 43  1  0  0  0
  2  7  2  0  0  0
  2  3  1  0  0  0
  3  4  2  0  0  0
  3 44  1  0  0  0
  4  5  1  0  0  0
  4 45  1  0  0  0
  5  6  2  0  0  0
  5  8  1  0  0  0
  6  7  1  0  0  0
  6 46  1  0  0  0
  7 47  1  0  0  0
  8 19  1  0  0  0
  8  9  1  0  0  0
  9 10  2  0  0  0
  9 11  1  0  0  0
 11 12  1  0  0  0
 11 17  1  0  0  0
 11 13  1  0  0  0
 13 14  1  0  0  0
 13 15  1  0  0  0
 13 31  1  0  0  0
 15 16  1  0  0  0
 15 48  1  0  0  0
 16 28  1  0  0  0
 16 17  1  0  0  0
 16 21  1  0  0  0
 17 18  1  0  0  0
 17 19  1  0  0  0
 19 20  2  0  0  0
 21 26  2  0  0  0
 21 22  1  0  0  0
 22 23  2  0  0  0
 22 49  1  0  0  0
 23 24  1  0  0  0
 23 30  1  0  0  0
 24 25  2  0  0  0
 24 50  1  0  0  0
 25 26  1  0  0  0
 25 51  1  0  0  0
 26 27  1  0  0  0
 27 28  1  0  0  0
 27 52  1  0  0  0
 28 29  2  0  0  0
 31 32  1  0  0  0
 31 53  1  0  0  0
 31 54  1  0  0  0
 32 40  1  0  0  0
 32 33  2  0  0  0
 33 38  1  0  0  0
 33 34  1  0  0  0
 34 35  2  0  0  0
 34 55  1  0  0  0
 35 36  1  0  0  0
 35 56  1  0  0  0
 36 37  2  0  0  0
 36 57  1  0  0  0
 37 38  1  0  0  0
 37 58  1  0  0  0
 38 39  2  0  0  0
 39 40  1  0  0  0
 39 61  1  0  0  0
 40 59  1  0  0  0
 40 60  1  0  0  0
M  CHG  1  39   1
M  END
> <i_i_glide_confnum>
21

> <i_i_glide_lignum>
4099

> <i_i_glide_posenum>
101

> <i_i_glide_rotatable_bonds>
3

> <i_m_Source_File_Index>
5547

> <b_m_subgroup_collapsed>
0

> <r_i_docking_score>
-4.02819

> <r_i_glide_ecoul>
-6.24605

> <r_i_glide_eff_state_penalty>
0

> <r_i_glide_einternal>
3.85583

> <r_i_glide_emodel>
-47.5104

> <r_i_glide_energy>
-38.4012

> <r_i_glide_erotb>
0.249071

> <r_i_glide_esite>
-0.226338

> <r_i_glide_evdw>
-32.1551

> <r_i_glide_gscore>
-4.02819

> <r_i_glide_hbond>
-0.36

> <r_i_glide_ligand_efficiency>
-0.10887

> <r_i_glide_ligand_efficiency_ln>
-0.873621

> <r_i_glide_ligand_efficiency_sa>
-0.362779

> <r_i_glide_lipo>
-1.0203

> <r_i_glide_metal>
0

> <r_i_glide_rewards>
-0.125965

> <s_i_glide_gridfile>
wee1_glide-grid

> <s_m_Source_File>
wee1_decoys_glide_SP.sdf

> <s_m_Source_Path>
/Users/zhangxujun/Desktop

> <s_m_entry_id>
5822

> <s_m_entry_name>
wee1_decoys_glide_SP.5547

> <s_m_subgroup_title>
wee1_decoys_glide_SP

> <s_m_subgroupid>
wee1_decoys_glide_SP


$$$$
