ZINC02546462_5079
                    3D
 Schrodinger Suite 2024-2.
 62 65  0  0  1  0            999 V2000
   -3.2288   51.3040   27.0766 C   0  0  0  0  0  0
   -2.5651   52.0285   25.9189 C   0  0  0  0  0  0
   -3.3244   52.8067   25.0362 C   0  0  0  0  0  0
   -2.3870   53.2923   23.6815 S   0  0  0  0  0  0
   -0.9822   52.5261   24.2938 C   0  0  0  0  0  0
   -1.1896   51.9181   25.5366 C   0  0  0  0  0  0
   -0.0963   51.1373   26.2792 C   0  0  1  0  0  0
    0.8270   51.1570   25.7010 H   0  0  0  0  0  0
    0.2442   51.7551   27.6409 C   0  0  0  0  0  0
   -0.5055   51.4704   28.7825 C   0  0  0  0  0  0
   -0.2389   52.0967   29.9921 C   0  0  0  0  0  0
    0.8060   53.0230   30.0978 C   0  0  0  0  0  0
    1.6082   53.2875   28.9759 C   0  0  0  0  0  0
    1.3137   52.6487   27.7566 C   0  0  0  0  0  0
    2.6553   54.1789   29.1396 O   0  0  0  0  0  0
    3.5186   54.4523   28.0408 C   0  0  0  0  0  0
    1.1004   53.6964   31.2664 O   0  0  0  0  0  0
    0.3070   53.4720   32.4306 C   0  0  0  0  0  0
   -0.3885   49.6971   26.3394 N   0  0  0  0  0  0
   -0.6411   48.9177   25.1781 C   0  0  0  0  0  0
   -1.3363   47.7107   25.2812 C   0  0  0  0  0  0
   -1.6958   47.0197   24.1214 C   0  0  0  0  0  0
   -1.3340   47.5354   22.8718 C   0  0  0  0  0  0
   -0.6066   48.7266   22.8071 C   0  0  0  0  0  0
    0.1219   52.5037   23.4562 N   0  0  0  0  0  0
    1.2970   53.1211   23.7008 C   0  0  0  0  0  0
    1.5046   53.8330   24.6846 O   0  0  0  0  0  0
    2.3747   52.9259   22.6546 C   0  0  0  0  0  0
    3.4279   53.8505   22.5637 C   0  0  0  0  0  0
    4.4374   53.6850   21.6175 C   0  0  0  0  0  0
    4.4067   52.5917   20.7564 C   0  0  0  0  0  0
    3.3737   51.6625   20.8335 C   0  0  0  0  0  0
    2.3636   51.8250   21.7791 C   0  0  0  0  0  0
   -4.7897   53.1775   25.0922 C   0  0  0  0  0  0
   -2.8106   50.3125   27.2435 H   0  0  0  0  0  0
   -3.1634   51.8592   28.0100 H   0  0  0  0  0  0
   -4.2870   51.1139   26.8923 H   0  0  0  0  0  0
   -1.3068   50.7522   28.7563 H   0  0  0  0  0  0
   -0.8565   51.8394   30.8417 H   0  0  0  0  0  0
    1.9139   52.8438   26.8842 H   0  0  0  0  0  0
    4.2817   55.1635   28.3546 H   0  0  0  0  0  0
    4.0267   53.5512   27.6959 H   0  0  0  0  0  0
    2.9761   54.8969   27.2062 H   0  0  0  0  0  0
    0.6513   54.1132   33.2394 H   0  0  0  0  0  0
   -0.7442   53.6995   32.2639 H   0  0  0  0  0  0
    0.4115   52.4430   32.7733 H   0  0  0  0  0  0
   -0.7046   49.3082   27.2287 H   0  0  0  0  0  0
   -1.6189   47.3336   26.2573 H   0  0  0  0  0  0
   -2.2531   46.0978   24.1931 H   0  0  0  0  0  0
   -1.6086   47.0112   21.9666 H   0  0  0  0  0  0
   -0.2753   49.1924   21.8887 H   0  0  0  0  0  0
   -0.0238   52.1669   22.5160 H   0  0  0  0  0  0
    3.4682   54.7071   23.2210 H   0  0  0  0  0  0
    5.2394   54.4059   21.5493 H   0  0  0  0  0  0
    5.1814   52.4632   20.0133 H   0  0  0  0  0  0
    3.3631   50.8211   20.1549 H   0  0  0  0  0  0
    1.5848   51.0793   21.8174 H   0  0  0  0  0  0
   -5.1369   53.3139   26.1197 H   0  0  0  0  0  0
   -5.0008   54.1108   24.5619 H   0  0  0  0  0  0
   -5.4175   52.4046   24.6384 H   0  0  0  0  0  0
   -0.2888   49.3610   23.9528 N   0  3  0  0  0  0
    0.2147   50.2346   23.9047 H   0  0  0  0  0  0
  1  2  1  0  0  0
  1 35  1  0  0  0
  1 36  1  0  0  0
  1 37  1  0  0  0
  2  6  1  0  0  0
  2  3  2  0  0  0
  3  4  1  0  0  0
  3 34  1  0  0  0
  4  5  1  0  0  0
  5  6  2  0  0  0
  5 25  1  0  0  0
  6  7  1  0  0  0
  7  8  1  0  0  0
  7  9  1  0  0  0
  7 19  1  0  0  0
  9 14  2  0  0  0
  9 10  1  0  0  0
 10 11  2  0  0  0
 10 38  1  0  0  0
 11 12  1  0  0  0
 11 39  1  0  0  0
 12 13  2  0  0  0
 12 17  1  0  0  0
 13 14  1  0  0  0
 13 15  1  0  0  0
 14 40  1  0  0  0
 15 16  1  0  0  0
 16 41  1  0  0  0
 16 42  1  0  0  0
 16 43  1  0  0  0
 17 18  1  0  0  0
 18 44  1  0  0  0
 18 45  1  0  0  0
 18 46  1  0  0  0
 19 20  1  0  0  0
 19 47  1  0  0  0
 20 21  2  0  0  0
 20 61  1  0  0  0
 21 22  1  0  0  0
 21 48  1  0  0  0
 22 23  2  0  0  0
 22 49  1  0  0  0
 23 24  1  0  0  0
 23 50  1  0  0  0
 24 51  1  0  0  0
 24 61  2  0  0  0
 25 26  1  0  0  0
 25 52  1  0  0  0
 26 27  2  0  0  0
 26 28  1  0  0  0
 28 33  2  0  0  0
 28 29  1  0  0  0
 29 30  2  0  0  0
 29 53  1  0  0  0
 30 31  1  0  0  0
 30 54  1  0  0  0
 31 32  2  0  0  0
 31 55  1  0  0  0
 32 33  1  0  0  0
 32 56  1  0  0  0
 33 57  1  0  0  0
 34 58  1  0  0  0
 34 59  1  0  0  0
 34 60  1  0  0  0
 61 62  1  0  0  0
M  CHG  1  61   1
M  END
> <i_i_glide_confnum>
42

> <i_i_glide_lignum>
5080

> <i_i_glide_posenum>
398

> <i_i_glide_rotatable_bonds>
9

> <i_m_Source_File_Index>
5642

> <b_m_subgroup_collapsed>
0

> <r_i_docking_score>
-4.60001

> <r_i_glide_ecoul>
-5.27496

> <r_i_glide_eff_state_penalty>
0

> <r_i_glide_einternal>
8.59692

> <r_i_glide_emodel>
-56.8901

> <r_i_glide_energy>
-45.7742

> <r_i_glide_erotb>
0.628895

> <r_i_glide_esite>
-0.11056

> <r_i_glide_evdw>
-40.4992

> <r_i_glide_gscore>
-4.60001

> <r_i_glide_hbond>
-0.243146

> <r_i_glide_ligand_efficiency>
-0.135295

> <r_i_glide_ligand_efficiency_ln>
-1.01627

> <r_i_glide_ligand_efficiency_sa>
-0.438302

> <r_i_glide_lipo>
-1.62533

> <r_i_glide_metal>
0

> <r_i_glide_rewards>
-0.433666

> <s_i_glide_gridfile>
wee1_glide-grid

> <s_m_Source_File>
wee1_decoys_glide_SP.sdf

> <s_m_Source_Path>
/Users/zhangxujun/Desktop

> <s_m_entry_id>
5917

> <s_m_entry_name>
wee1_decoys_glide_SP.5642

> <s_m_subgroup_title>
wee1_decoys_glide_SP

> <s_m_subgroupid>
wee1_decoys_glide_SP


$$$$
