ZINC46793171_95
                    3D
 Schrodinger Suite 2024-2.
 64 67  0  0  1  0            999 V2000
    7.5725   51.5440   14.4773 C   0  0  0  0  0  0
    7.0317   52.6050   15.4165 C   0  0  0  0  0  0
    5.7285   52.5267   15.8997 C   0  0  0  0  0  0
    5.2436   53.5001   16.7692 C   0  0  0  0  0  0
    6.0439   54.5793   17.1650 C   0  0  0  0  0  0
    7.3573   54.6775   16.6513 C   0  0  0  0  0  0
    7.8357   53.6799   15.7928 C   0  0  0  0  0  0
    8.3002   55.8285   16.9711 C   0  0  0  0  0  0
    5.2712   55.8078   18.2525 S   0  0  0  0  0  0
    3.8217   55.7030   18.0472 O   0  0  0  0  0  0
    5.9354   57.0982   18.0399 O   0  0  0  0  0  0
    5.6133   55.2907   19.9161 N   0  0  0  0  0  0
    4.9388   54.0673   20.4048 C   0  0  0  0  0  0
    4.8107   54.1164   21.9460 C   0  0  0  0  0  0
    6.1531   54.4867   22.6670 C   0  0  0  0  0  0
    7.0673   55.4939   21.8995 C   0  0  0  0  0  0
    7.0104   55.3960   20.3671 C   0  0  0  0  0  0
    5.9224   54.8829   24.1543 C   0  0  0  0  0  0
    6.4372   55.8973   24.6235 O   0  0  0  0  0  0
    5.1912   54.0255   24.8917 N   0  0  0  0  0  0
    4.7892   54.1434   26.2347 C   0  0  0  0  0  0
    3.4460   53.8581   26.4868 C   0  0  0  0  0  0
    2.9408   53.8709   27.7878 C   0  0  0  0  0  0
    3.7778   54.2305   28.8501 C   0  0  0  0  0  0
    5.1194   54.4974   28.6135 C   0  0  0  0  0  0
    5.6425   54.4284   27.3218 C   0  0  0  0  0  0
    7.1365   54.5929   27.1811 C   0  0  0  0  0  0
    1.6009   53.4988   27.9356 N   0  0  0  0  0  0
    0.9657   53.0370   29.0308 C   0  0  0  0  0  0
    1.4769   52.9198   30.1443 O   0  0  0  0  0  0
   -0.4959   52.6099   28.8480 C   0  0  0  0  0  0
   -1.0601   52.4774   27.4357 C   0  0  0  0  0  0
   -0.7111   51.2461   28.2453 C   0  0  0  0  0  0
    8.0669   52.0106   13.6252 H   0  0  0  0  0  0
    8.3090   50.9233   14.9893 H   0  0  0  0  0  0
    6.7815   50.9062   14.0826 H   0  0  0  0  0  0
    5.0901   51.6978   15.6264 H   0  0  0  0  0  0
    4.2329   53.4012   17.1377 H   0  0  0  0  0  0
    8.8417   53.7404   15.4035 H   0  0  0  0  0  0
    9.3044   55.6625   16.5794 H   0  0  0  0  0  0
    7.9264   56.7599   16.5458 H   0  0  0  0  0  0
    8.4047   55.9632   18.0431 H   0  0  0  0  0  0
    5.5565   53.2041   20.1527 H   0  0  0  0  0  0
    3.9602   53.9658   19.9328 H   0  0  0  0  0  0
    4.4246   53.1498   22.2732 H   0  0  0  0  0  0
    4.0647   54.8952   22.1144 H   0  0  0  0  0  0
    6.6752   53.5312   22.7188 H   0  0  0  0  0  0
    6.7023   56.4969   22.0824 H   0  0  0  0  0  0
    8.1148   55.4085   22.1700 H   0  0  0  0  0  0
    7.5472   54.4966   20.0709 H   0  0  0  0  0  0
    7.4742   56.2795   19.9316 H   0  0  0  0  0  0
    4.7423   53.2796   24.3846 H   0  0  0  0  0  0
    2.7958   53.5935   25.6648 H   0  0  0  0  0  0
    3.4159   54.2915   29.8631 H   0  0  0  0  0  0
    5.7637   54.7479   29.4440 H   0  0  0  0  0  0
    7.5044   54.0412   26.3201 H   0  0  0  0  0  0
    7.3759   55.6492   27.0876 H   0  0  0  0  0  0
    7.6552   54.1939   28.0530 H   0  0  0  0  0  0
    1.0669   53.4793   27.0827 H   0  0  0  0  0  0
   -1.1413   52.8939   29.6795 H   0  0  0  0  0  0
   -0.4605   52.6916   26.5510 H   0  0  0  0  0  0
   -2.1171   52.6582   27.2473 H   0  0  0  0  0  0
   -1.5281   50.6394   28.6374 H   0  0  0  0  0  0
    0.1416   50.6346   27.9452 H   0  0  0  0  0  0
  1  2  1  0  0  0
  1 34  1  0  0  0
  1 35  1  0  0  0
  1 36  1  0  0  0
  2  7  2  0  0  0
  2  3  1  0  0  0
  3  4  2  0  0  0
  3 37  1  0  0  0
  4  5  1  0  0  0
  4 38  1  0  0  0
  5  6  2  0  0  0
  5  9  1  0  0  0
  6  7  1  0  0  0
  6  8  1  0  0  0
  7 39  1  0  0  0
  8 40  1  0  0  0
  8 41  1  0  0  0
  8 42  1  0  0  0
  9 10  2  0  0  0
  9 11  2  0  0  0
  9 12  1  0  0  0
 12 17  1  0  0  0
 12 13  1  0  0  0
 13 14  1  0  0  0
 13 43  1  0  0  0
 13 44  1  0  0  0
 14 15  1  0  0  0
 14 45  1  0  0  0
 14 46  1  0  0  0
 15 16  1  0  0  0
 15 18  1  0  0  0
 15 47  1  0  0  0
 16 17  1  0  0  0
 16 48  1  0  0  0
 16 49  1  0  0  0
 17 50  1  0  0  0
 17 51  1  0  0  0
 18 19  2  0  0  0
 18 20  1  0  0  0
 20 21  1  0  0  0
 20 52  1  0  0  0
 21 26  2  0  0  0
 21 22  1  0  0  0
 22 23  2  0  0  0
 22 53  1  0  0  0
 23 24  1  0  0  0
 23 28  1  0  0  0
 24 25  2  0  0  0
 24 54  1  0  0  0
 25 26  1  0  0  0
 25 55  1  0  0  0
 26 27  1  0  0  0
 27 56  1  0  0  0
 27 57  1  0  0  0
 27 58  1  0  0  0
 28 29  1  0  0  0
 28 59  1  0  0  0
 29 30  2  0  0  0
 29 31  1  0  0  0
 31 33  1  0  0  0
 31 32  1  0  0  0
 31 60  1  0  0  0
 32 33  1  0  0  0
 32 61  1  0  0  0
 32 62  1  0  0  0
 33 63  1  0  0  0
 33 64  1  0  0  0
M  END
> <i_i_glide_confnum>
190

> <i_i_glide_lignum>
96

> <i_i_glide_posenum>
295

> <i_i_glide_rotatable_bonds>
8

> <i_m_Source_File_Index>
2418

> <b_m_subgroup_collapsed>
0

> <r_i_docking_score>
-4.77714

> <r_i_glide_ecoul>
-1.61179

> <r_i_glide_eff_state_penalty>
0

> <r_i_glide_einternal>
10.229

> <r_i_glide_emodel>
-53.0128

> <r_i_glide_energy>
-43.4794

> <r_i_glide_erotb>
0.732761

> <r_i_glide_esite>
0

> <r_i_glide_evdw>
-41.8676

> <r_i_glide_gscore>
-4.77714

> <r_i_glide_hbond>
0

> <r_i_glide_ligand_efficiency>
-0.144762

> <r_i_glide_ligand_efficiency_ln>
-1.06241

> <r_i_glide_ligand_efficiency_sa>
-0.464328

> <r_i_glide_lipo>
-2.1809

> <r_i_glide_metal>
0

> <r_i_glide_rewards>
-0.993846

> <s_i_glide_gridfile>
wee1_glide-grid

> <s_m_Source_File>
wee1_decoys_glide_SP.sdf

> <s_m_Source_Path>
/Users/zhangxujun/Desktop

> <s_m_entry_id>
2693

> <s_m_entry_name>
wee1_decoys_glide_SP.2418

> <s_m_subgroup_title>
wee1_decoys_glide_SP

> <s_m_subgroupid>
wee1_decoys_glide_SP


$$$$
