ZINC63426685_5520
                    3D
 Schrodinger Suite 2024-2.
 69 75  0  0  1  0            999 V2000
    3.2076   52.3358   30.1325 C   0  0  0  0  0  0
    2.9335   52.5456   28.7799 C   0  0  0  0  0  0
    1.5830   52.8506   28.6759 C   0  0  0  0  0  0
    1.0240   52.8153   29.9142 O   0  0  0  0  0  0
    2.0032   52.4957   30.7987 C   0  0  0  0  0  0
    0.6432   53.2452   27.5509 C   0  0  0  0  0  0
    0.7720   52.4965   26.2786 N   0  0  0  0  0  0
    1.3467   53.2391   25.1115 C   0  0  1  0  0  0
    0.7043   54.0967   24.9180 H   0  0  0  0  0  0
    2.7659   53.7746   25.4206 C   0  0  0  0  0  0
    3.3733   54.5484   24.2489 C   0  0  0  0  0  0
    3.4027   53.7115   22.9663 C   0  0  0  0  0  0
    2.0132   53.1596   22.6105 C   0  0  0  0  0  0
    1.3888   52.4292   23.8050 C   0  0  0  0  0  0
    0.8698   51.1968   23.7341 C   0  0  0  0  0  0
    0.1146   50.5461   24.8725 C   0  0  1  0  0  0
    0.4407   49.5142   25.0070 H   0  0  0  0  0  0
    0.3048   51.2061   26.2609 C   0  0  0  0  0  0
   -0.0548   50.6278   27.2822 O   0  0  0  0  0  0
   -1.4093   50.4853   24.5912 C   0  0  0  0  0  0
   -1.8992   49.4129   24.2372 O   0  0  0  0  0  0
   -2.1081   51.6451   24.7057 N   0  0  0  0  0  0
   -3.4812   51.8017   24.6396 C   0  0  0  0  0  0
   -4.3708   50.9278   24.2238 N   0  0  0  0  0  0
   -1.5870   52.4598   24.9925 H   0  0  0  0  0  0
   -5.6124   51.3780   24.3350 C   0  0  0  0  0  0
   -5.7115   52.6658   24.8725 C   0  0  0  0  0  0
   -4.1302   53.2929   25.2197 S   0  0  0  0  0  0
   -6.7404   50.4437   23.8709 C   0  0  0  0  0  0
   -6.7743   49.1339   24.7268 C   0  0  0  0  0  0
   -7.9091   48.1842   24.2582 C   0  0  2  0  0  0
   -7.6810   47.8043   22.7718 C   0  0  0  0  0  0
   -7.6918   49.0880   21.9008 C   0  0  2  0  0  0
   -6.5563   50.0325   22.3703 C   0  0  0  0  0  0
   -9.0552   49.8084   22.0506 C   0  0  0  0  0  0
   -9.2833   50.1841   23.5360 C   0  0  1  0  0  0
   -9.2756   48.9006   24.4032 C   0  0  0  0  0  0
   -8.1423   51.1254   24.0058 C   0  0  0  0  0  0
    0.8889   50.4019   22.6275 O   0  0  0  0  0  0
    4.1680   52.0956   30.5695 H   0  0  0  0  0  0
    3.6486   52.4974   27.9700 H   0  0  0  0  0  0
    1.6990   52.4217   31.8341 H   0  0  0  0  0  0
   -0.3854   53.1184   27.8976 H   0  0  0  0  0  0
    0.7206   54.3170   27.3814 H   0  0  0  0  0  0
    2.7347   54.4376   26.2862 H   0  0  0  0  0  0
    3.4151   52.9462   25.7165 H   0  0  0  0  0  0
    4.3725   54.9034   24.4979 H   0  0  0  0  0  0
    2.7465   55.4222   24.0814 H   0  0  0  0  0  0
    4.1178   52.8973   23.0746 H   0  0  0  0  0  0
    3.7731   54.3165   22.1392 H   0  0  0  0  0  0
    2.0894   52.5136   21.7391 H   0  0  0  0  0  0
    1.3644   53.9806   22.3017 H   0  0  0  0  0  0
   -6.5987   53.2511   25.0521 H   0  0  0  0  0  0
   -5.8173   48.6119   24.6667 H   0  0  0  0  0  0
   -6.9092   49.3786   25.7817 H   0  0  0  0  0  0
   -7.9040   47.2820   24.8692 H   0  0  0  0  0  0
   -6.7327   47.2792   22.6584 H   0  0  0  0  0  0
   -8.4539   47.1115   22.4365 H   0  0  0  0  0  0
   -7.5338   48.8204   20.8557 H   0  0  0  0  0  0
   -6.5311   50.9200   21.7381 H   0  0  0  0  0  0
   -5.5948   49.5390   22.2232 H   0  0  0  0  0  0
   -9.0777   50.7049   21.4280 H   0  0  0  0  0  0
   -9.8649   49.1711   21.6928 H   0  0  0  0  0  0
  -10.2437   50.6905   23.6418 H   0  0  0  0  0  0
  -10.0866   48.2372   24.1019 H   0  0  0  0  0  0
   -9.4603   49.1504   25.4501 H   0  0  0  0  0  0
   -8.3235   51.4167   25.0417 H   0  0  0  0  0  0
   -8.1729   52.0493   23.4253 H   0  0  0  0  0  0
    0.4277   49.5782   22.8074 H   0  0  0  0  0  0
  1  5  2  0  0  0
  1  2  1  0  0  0
  1 40  1  0  0  0
  2  3  2  0  0  0
  2 41  1  0  0  0
  3  4  1  0  0  0
  3  6  1  0  0  0
  4  5  1  0  0  0
  5 42  1  0  0  0
  6  7  1  0  0  0
  6 43  1  0  0  0
  6 44  1  0  0  0
  7 18  1  0  0  0
  7  8  1  0  0  0
  8  9  1  0  0  0
  8 14  1  0  0  0
  8 10  1  0  0  0
 10 11  1  0  0  0
 10 45  1  0  0  0
 10 46  1  0  0  0
 11 12  1  0  0  0
 11 47  1  0  0  0
 11 48  1  0  0  0
 12 13  1  0  0  0
 12 49  1  0  0  0
 12 50  1  0  0  0
 13 14  1  0  0  0
 13 51  1  0  0  0
 13 52  1  0  0  0
 14 15  2  0  0  0
 15 16  1  0  0  0
 15 39  1  0  0  0
 16 17  1  0  0  0
 16 18  1  0  0  0
 16 20  1  0  0  0
 18 19  2  0  0  0
 20 22  1  0  0  0
 20 21  2  0  0  0
 22 23  1  0  0  0
 22 25  1  0  0  0
 23 28  1  0  0  0
 23 24  2  0  0  0
 24 26  1  0  0  0
 26 29  1  0  0  0
 26 27  2  0  0  0
 27 53  1  0  0  0
 27 28  1  0  0  0
 29 34  1  0  0  0
 29 38  1  0  0  0
 29 30  1  0  0  0
 30 31  1  0  0  0
 30 54  1  0  0  0
 30 55  1  0  0  0
 31 37  1  0  0  0
 31 32  1  0  0  0
 31 56  1  0  0  0
 32 33  1  0  0  0
 32 57  1  0  0  0
 32 58  1  0  0  0
 33 34  1  0  0  0
 33 35  1  0  0  0
 33 59  1  0  0  0
 34 60  1  0  0  0
 34 61  1  0  0  0
 35 36  1  0  0  0
 35 62  1  0  0  0
 35 63  1  0  0  0
 36 37  1  0  0  0
 36 38  1  0  0  0
 36 64  1  0  0  0
 37 65  1  0  0  0
 37 66  1  0  0  0
 38 67  1  0  0  0
 38 68  1  0  0  0
 39 69  1  0  0  0
M  END
> <i_i_glide_confnum>
128

> <i_i_glide_lignum>
5521

> <i_i_glide_posenum>
326

> <i_i_glide_rotatable_bonds>
7

> <i_m_Source_File_Index>
975

> <b_m_subgroup_collapsed>
0

> <r_i_docking_score>
-3.10337

> <r_i_glide_ecoul>
0.527762

> <r_i_glide_eff_state_penalty>
0

> <r_i_glide_einternal>
8.50428

> <r_i_glide_emodel>
-37.6751

> <r_i_glide_energy>
-32.7986

> <r_i_glide_erotb>
0.476548

> <r_i_glide_esite>
-0.037947

> <r_i_glide_evdw>
-33.3263

> <r_i_glide_gscore>
-3.10337

> <r_i_glide_hbond>
0

> <r_i_glide_ligand_efficiency>
-0.0862047

> <r_i_glide_ligand_efficiency_ln>
-0.677072

> <r_i_glide_ligand_efficiency_sa>
-0.284642

> <r_i_glide_lipo>
-1.87672

> <r_i_glide_metal>
0

> <r_i_glide_rewards>
-0.0781038

> <s_i_glide_gridfile>
wee1_glide-grid

> <s_m_Source_File>
wee1_decoys_glide_SP.sdf

> <s_m_Source_Path>
/Users/zhangxujun/Desktop

> <s_m_entry_id>
1250

> <s_m_entry_name>
wee1_decoys_glide_SP.975

> <s_m_subgroup_title>
wee1_decoys_glide_SP

> <s_m_subgroupid>
wee1_decoys_glide_SP


$$$$
