ZINC46841262_1200
                    3D
 Schrodinger Suite 2024-2.
 60 63  0  0  1  0            999 V2000
    1.9090   49.4885   22.4666 C   0  0  0  0  0  0
    0.5081   49.8508   21.9359 C   0  0  2  0  0  0
    0.6418   50.2088   20.9137 H   0  0  0  0  0  0
   -0.1897   50.9582   22.7530 C   0  0  0  0  0  0
   -0.5938   50.4316   24.0832 N   0  0  0  0  0  0
   -1.4702   49.2446   23.9450 C   0  0  0  0  0  0
   -0.7656   48.1683   23.0992 C   0  0  2  0  0  0
    0.1101   47.7911   23.6296 H   0  0  0  0  0  0
   -0.3918   48.7457   21.8486 O   0  0  0  0  0  0
   -1.7098   46.9973   22.8001 C   0  0  0  0  0  0
   -0.3024   51.0548   25.3426 C   0  0  0  0  0  0
    0.5076   52.1960   25.4579 C   0  0  0  0  0  0
    0.7492   52.7593   26.7132 C   0  0  0  0  0  0
    0.1604   52.2041   27.8597 C   0  0  0  0  0  0
   -0.6182   51.0586   27.7044 C   0  0  0  0  0  0
   -0.8040   50.5282   26.4815 N   0  3  0  0  0  0
    0.3618   52.7923   29.2602 C   0  0  0  0  0  0
    1.4334   53.7847   29.3570 N   0  0  0  0  0  0
    2.7402   53.4832   29.3790 C   0  0  0  0  0  0
    3.1657   52.3348   29.5127 O   0  0  0  0  0  0
    3.7065   54.6559   29.1944 C   0  0  0  0  0  0
    4.6654   54.4529   28.0359 C   0  0  0  0  0  0
    6.0293   54.2225   28.1333 C   0  0  0  0  0  0
    6.7046   54.0991   26.5561 S   0  0  0  0  0  0
    5.1268   54.3547   25.8917 C   0  0  0  0  0  0
    4.1858   54.4971   26.7991 N   0  0  0  0  0  0
    4.9134   54.3305   24.4052 C   0  0  0  0  0  0
    3.6427   54.0966   23.8721 C   0  0  0  0  0  0
    3.4707   53.9396   22.4961 C   0  0  0  0  0  0
    4.5676   54.0435   21.6338 C   0  0  0  0  0  0
    5.8199   54.3694   22.1574 C   0  0  0  0  0  0
    5.9954   54.4970   23.5313 C   0  0  0  0  0  0
    4.4248   53.7537   20.1371 C   0  0  0  0  0  0
    4.3045   54.8964   19.4648 F   0  0  0  0  0  0
    5.5030   53.1169   19.6822 F   0  0  0  0  0  0
    3.3643   52.9850   19.8893 F   0  0  0  0  0  0
    2.6075   50.3078   22.3017 H   0  0  0  0  0  0
    2.3138   48.6101   21.9647 H   0  0  0  0  0  0
    1.9039   49.2962   23.5413 H   0  0  0  0  0  0
    0.4629   51.8204   22.8340 H   0  0  0  0  0  0
   -1.0937   51.3148   22.2554 H   0  0  0  0  0  0
   -1.7084   48.8252   24.9205 H   0  0  0  0  0  0
   -2.4157   49.5727   23.5096 H   0  0  0  0  0  0
   -1.9798   46.4719   23.7165 H   0  0  0  0  0  0
   -2.6298   47.3449   22.3289 H   0  0  0  0  0  0
   -1.2505   46.2787   22.1245 H   0  0  0  0  0  0
    0.9606   52.6632   24.5987 H   0  0  0  0  0  0
    1.3742   53.6375   26.7784 H   0  0  0  0  0  0
   -1.0975   50.5136   28.5097 H   0  0  0  0  0  0
   -0.5664   53.2775   29.5681 H   0  0  0  0  0  0
    0.5364   51.9852   29.9772 H   0  0  0  0  0  0
    1.1669   54.7528   29.2610 H   0  0  0  0  0  0
    3.1565   55.5896   29.0672 H   0  0  0  0  0  0
    4.2628   54.7723   30.1242 H   0  0  0  0  0  0
    6.6506   54.1455   29.0120 H   0  0  0  0  0  0
    2.7910   53.9862   24.5266 H   0  0  0  0  0  0
    2.4895   53.7134   22.1043 H   0  0  0  0  0  0
    6.6716   54.4987   21.5050 H   0  0  0  0  0  0
    6.9886   54.7092   23.9001 H   0  0  0  0  0  0
   -1.3312   49.6668   26.4283 H   0  0  0  0  0  0
  1  2  1  0  0  0
  1 37  1  0  0  0
  1 38  1  0  0  0
  1 39  1  0  0  0
  2  3  1  0  0  0
  2  9  1  0  0  0
  2  4  1  0  0  0
  4  5  1  0  0  0
  4 40  1  0  0  0
  4 41  1  0  0  0
  5  6  1  0  0  0
  5 11  1  0  0  0
  6  7  1  0  0  0
  6 42  1  0  0  0
  6 43  1  0  0  0
  7  8  1  0  0  0
  7  9  1  0  0  0
  7 10  1  0  0  0
 10 44  1  0  0  0
 10 45  1  0  0  0
 10 46  1  0  0  0
 11 16  2  0  0  0
 11 12  1  0  0  0
 12 13  2  0  0  0
 12 47  1  0  0  0
 13 14  1  0  0  0
 13 48  1  0  0  0
 14 15  2  0  0  0
 14 17  1  0  0  0
 15 16  1  0  0  0
 15 49  1  0  0  0
 16 60  1  0  0  0
 17 18  1  0  0  0
 17 50  1  0  0  0
 17 51  1  0  0  0
 18 19  1  0  0  0
 18 52  1  0  0  0
 19 20  2  0  0  0
 19 21  1  0  0  0
 21 22  1  0  0  0
 21 53  1  0  0  0
 21 54  1  0  0  0
 22 26  1  0  0  0
 22 23  2  0  0  0
 23 24  1  0  0  0
 23 55  1  0  0  0
 24 25  1  0  0  0
 25 26  2  0  0  0
 25 27  1  0  0  0
 27 32  2  0  0  0
 27 28  1  0  0  0
 28 29  2  0  0  0
 28 56  1  0  0  0
 29 30  1  0  0  0
 29 57  1  0  0  0
 30 31  2  0  0  0
 30 33  1  0  0  0
 31 32  1  0  0  0
 31 58  1  0  0  0
 32 59  1  0  0  0
 33 34  1  0  0  0
 33 35  1  0  0  0
 33 36  1  0  0  0
M  CHG  1  16   1
M  END
> <i_i_glide_confnum>
272

> <i_i_glide_lignum>
1201

> <i_i_glide_posenum>
90

> <i_i_glide_rotatable_bonds>
8

> <i_m_Source_File_Index>
2607

> <b_m_subgroup_collapsed>
0

> <r_i_docking_score>
-5.58932

> <r_i_glide_ecoul>
-2.49881

> <r_i_glide_eff_state_penalty>
0

> <r_i_glide_einternal>
3.48954

> <r_i_glide_emodel>
-66.2613

> <r_i_glide_energy>
-47.8529

> <r_i_glide_erotb>
0.5898

> <r_i_glide_esite>
-0.149294

> <r_i_glide_evdw>
-45.3541

> <r_i_glide_gscore>
-5.58932

> <r_i_glide_hbond>
-0.012831

> <r_i_glide_ligand_efficiency>
-0.164392

> <r_i_glide_ligand_efficiency_ln>
-1.23484

> <r_i_glide_ligand_efficiency_sa>
-0.532565

> <r_i_glide_lipo>
-3.10306

> <r_i_glide_metal>
0

> <r_i_glide_rewards>
-0.271404

> <s_i_glide_gridfile>
wee1_glide-grid

> <s_m_Source_File>
wee1_decoys_glide_SP.sdf

> <s_m_Source_Path>
/Users/zhangxujun/Desktop

> <s_m_entry_id>
2882

> <s_m_entry_name>
wee1_decoys_glide_SP.2607

> <s_m_subgroup_title>
wee1_decoys_glide_SP

> <s_m_subgroupid>
wee1_decoys_glide_SP


$$$$
