ZINC61671015_1769
                    3D
 Schrodinger Suite 2024-2.
 38 39  0  0  1  0            999 V2000
   -1.8469   50.7835   26.6218 C   0  0  0  0  0  0
   -0.9171   51.5523   27.5531 C   0  0  0  0  0  0
   -1.2934   51.6961   28.8878 C   0  0  0  0  0  0
   -0.4954   52.3946   29.7810 C   0  0  0  0  0  0
    0.6944   52.9676   29.3496 C   0  0  0  0  0  0
    1.1263   52.7928   28.0158 C   0  0  0  0  0  0
    0.2990   52.0973   27.1040 C   0  0  0  0  0  0
    0.7069   51.8921   25.6393 C   0  0  0  0  0  0
    2.3551   53.2988   27.5393 N   0  0  0  0  0  0
    3.5803   53.1185   28.0792 C   0  0  0  0  0  0
    3.7708   52.6247   29.1940 O   0  0  0  0  0  0
    4.8000   53.4858   27.2012 C   0  0  0  0  0  0
    4.4635   54.3333   25.9446 C   0  0  0  0  0  0
    5.7604   54.6345   25.1644 C   0  0  0  0  0  0
    6.7389   55.2349   26.0140 O   0  0  0  0  0  0
    7.1038   54.4405   27.1431 C   0  0  0  0  0  0
    5.8880   54.1842   28.0473 C   0  0  0  0  0  0
    1.4272   53.6992   30.2774 N   0  0  0  0  0  0
   -2.0551   51.3617   25.7214 H   0  0  0  0  0  0
   -1.3853   49.8414   26.3206 H   0  0  0  0  0  0
   -2.8044   50.5544   27.0942 H   0  0  0  0  0  0
   -2.2059   51.2420   29.2462 H   0  0  0  0  0  0
   -0.8139   52.4878   30.8098 H   0  0  0  0  0  0
    0.5541   50.8525   25.3485 H   0  0  0  0  0  0
    0.0896   52.5109   24.9873 H   0  0  0  0  0  0
    1.7546   52.1005   25.4319 H   0  0  0  0  0  0
    2.3347   53.6524   26.5965 H   0  0  0  0  0  0
    5.1920   52.5034   26.9310 H   0  0  0  0  0  0
    4.0385   55.2994   26.2213 H   0  0  0  0  0  0
    3.8153   53.7944   25.2513 H   0  0  0  0  0  0
    5.5613   55.2953   24.3206 H   0  0  0  0  0  0
    6.1589   53.7057   24.7502 H   0  0  0  0  0  0
    7.9040   54.9379   27.6819 H   0  0  0  0  0  0
    7.5044   53.4823   26.8093 H   0  0  0  0  0  0
    6.2387   53.5615   28.8726 H   0  0  0  0  0  0
    5.5623   55.1639   28.4004 H   0  0  0  0  0  0
    1.1044   53.6080   31.2287 H   0  0  0  0  0  0
    2.4205   53.5795   30.0909 H   0  0  0  0  0  0
  1  2  1  0  0  0
  1 19  1  0  0  0
  1 20  1  0  0  0
  1 21  1  0  0  0
  2  7  2  0  0  0
  2  3  1  0  0  0
  3  4  2  0  0  0
  3 22  1  0  0  0
  4  5  1  0  0  0
  4 23  1  0  0  0
  5  6  2  0  0  0
  5 18  1  0  0  0
  6  7  1  0  0  0
  6  9  1  0  0  0
  7  8  1  0  0  0
  8 24  1  0  0  0
  8 25  1  0  0  0
  8 26  1  0  0  0
  9 10  1  0  0  0
  9 27  1  0  0  0
 10 11  2  0  0  0
 10 12  1  0  0  0
 12 17  1  0  0  0
 12 13  1  0  0  0
 12 28  1  0  0  0
 13 14  1  0  0  0
 13 29  1  0  0  0
 13 30  1  0  0  0
 14 15  1  0  0  0
 14 31  1  0  0  0
 14 32  1  0  0  0
 15 16  1  0  0  0
 16 17  1  0  0  0
 16 33  1  0  0  0
 16 34  1  0  0  0
 17 35  1  0  0  0
 17 36  1  0  0  0
 18 37  1  0  0  0
 18 38  1  0  0  0
M  END
> <i_i_glide_confnum>
9

> <i_i_glide_lignum>
1770

> <i_i_glide_posenum>
167

> <i_i_glide_rotatable_bonds>
3

> <i_m_Source_File_Index>
3839

> <b_m_subgroup_collapsed>
0

> <r_i_docking_score>
-5.32608

> <r_i_glide_ecoul>
-4.09987

> <r_i_glide_eff_state_penalty>
0

> <r_i_glide_einternal>
7.83502

> <r_i_glide_emodel>
-39.6077

> <r_i_glide_energy>
-32.7848

> <r_i_glide_erotb>
0.849757

> <r_i_glide_esite>
0

> <r_i_glide_evdw>
-28.6849

> <r_i_glide_gscore>
-5.32608

> <r_i_glide_hbond>
-0.32

> <r_i_glide_ligand_efficiency>
-0.295893

> <r_i_glide_ligand_efficiency_ln>
-1.36904

> <r_i_glide_ligand_efficiency_sa>
-0.77546

> <r_i_glide_lipo>
-1.4924

> <r_i_glide_metal>
0

> <r_i_glide_rewards>
-2.31422

> <s_i_glide_gridfile>
wee1_glide-grid

> <s_m_Source_File>
wee1_decoys_glide_SP.sdf

> <s_m_Source_Path>
/Users/zhangxujun/Desktop

> <s_m_entry_id>
4114

> <s_m_entry_name>
wee1_decoys_glide_SP.3839

> <s_m_subgroup_title>
wee1_decoys_glide_SP

> <s_m_subgroupid>
wee1_decoys_glide_SP


$$$$
