ZINC07453286_6184
                    3D
 Schrodinger Suite 2024-2.
 50 51  0  0  1  0            999 V2000
    6.0311   54.1473   23.1168 C   0  0  0  0  0  0
    5.1873   54.1330   24.3853 C   0  0  0  0  0  0
    5.8343   54.0968   25.6222 C   0  0  0  0  0  0
    5.1088   54.0374   26.8240 C   0  0  0  0  0  0
    3.7084   54.0468   26.7832 C   0  0  0  0  0  0
    3.0622   54.0967   25.5393 C   0  0  0  0  0  0
    3.7837   54.1254   24.3417 C   0  0  0  0  0  0
    3.0136   54.1799   23.0216 C   0  0  0  0  0  0
    2.0747   52.8632   20.9892 C   0  0  0  0  0  0
    2.0915   51.7549   23.2569 C   0  0  0  0  0  0
    0.6472   52.0670   23.6945 C   0  0  0  0  0  0
    0.1925   53.2101   23.6803 O   0  0  0  0  0  0
   -0.0126   50.9756   24.1180 N   0  0  0  0  0  0
   -1.2763   50.8630   24.6865 C   0  0  0  0  0  0
   -1.8535   49.6509   25.1065 C   0  0  0  0  0  0
   -3.1255   49.8685   25.6814 C   0  0  0  0  0  0
   -3.5028   51.2022   25.7186 C   0  0  0  0  0  0
   -2.3054   52.2381   25.0288 S   0  0  0  0  0  0
   -1.2549   48.3429   24.8967 C   0  0  0  0  0  0
   -0.3651   48.1374   24.0733 O   0  0  0  0  0  0
   -1.6969   47.3672   25.6829 N   0  0  0  0  0  0
    3.0400   53.9868   27.9948 O   0  0  0  0  0  0
    1.6173   53.9633   28.0242 C   0  0  0  0  0  0
    5.6988   53.9476   28.0720 O   0  0  0  0  0  0
    7.1052   53.7725   28.1655 C   0  0  0  0  0  0
    7.0881   53.9721   23.3197 H   0  0  0  0  0  0
    5.7058   53.3645   22.4329 H   0  0  0  0  0  0
    5.9359   55.1015   22.6003 H   0  0  0  0  0  0
    6.9128   54.0874   25.6338 H   0  0  0  0  0  0
    1.9846   54.0989   25.4869 H   0  0  0  0  0  0
    3.5543   54.7499   22.2638 H   0  0  0  0  0  0
    2.0469   54.6697   23.1342 H   0  0  0  0  0  0
    1.0810   53.2965   21.1111 H   0  0  0  0  0  0
    2.7148   53.4749   20.3532 H   0  0  0  0  0  0
    2.0179   51.8480   20.5929 H   0  0  0  0  0  0
    2.7014   51.7092   24.1535 H   0  0  0  0  0  0
    2.1735   50.7998   22.7322 H   0  0  0  0  0  0
    0.4730   50.0907   24.0452 H   0  0  0  0  0  0
   -3.7562   49.0749   26.0582 H   0  0  0  0  0  0
   -4.4191   51.6156   26.1116 H   0  0  0  0  0  0
   -2.0734   47.6340   26.5912 H   0  0  0  0  0  0
   -1.1931   46.4958   25.6375 H   0  0  0  0  0  0
    1.2872   53.8201   29.0528 H   0  0  0  0  0  0
    1.1975   54.9083   27.6796 H   0  0  0  0  0  0
    1.2077   53.1416   27.4346 H   0  0  0  0  0  0
    7.3986   53.6981   29.2124 H   0  0  0  0  0  0
    7.4279   52.8559   27.6704 H   0  0  0  0  0  0
    7.6382   54.6186   27.7296 H   0  0  0  0  0  0
    2.7455   52.7947   22.3776 N   0  3  2  0  0  0
    3.6748   52.4450   22.1859 H   0  0  0  0  0  0
  1  2  1  0  0  0
  1 26  1  0  0  0
  1 27  1  0  0  0
  1 28  1  0  0  0
  2  7  2  0  0  0
  2  3  1  0  0  0
  3  4  2  0  0  0
  3 29  1  0  0  0
  4  5  1  0  0  0
  4 24  1  0  0  0
  5  6  2  0  0  0
  5 22  1  0  0  0
  6  7  1  0  0  0
  6 30  1  0  0  0
  7  8  1  0  0  0
  8 31  1  0  0  0
  8 32  1  0  0  0
  8 49  1  0  0  0
  9 33  1  0  0  0
  9 34  1  0  0  0
  9 35  1  0  0  0
  9 49  1  0  0  0
 10 11  1  0  0  0
 10 36  1  0  0  0
 10 37  1  0  0  0
 10 49  1  0  0  0
 11 12  2  0  0  0
 11 13  1  0  0  0
 13 14  1  0  0  0
 13 38  1  0  0  0
 14 18  1  0  0  0
 14 15  2  0  0  0
 15 16  1  0  0  0
 15 19  1  0  0  0
 16 17  2  0  0  0
 16 39  1  0  0  0
 17 18  1  0  0  0
 17 40  1  0  0  0
 19 20  2  0  0  0
 19 21  1  0  0  0
 21 41  1  0  0  0
 21 42  1  0  0  0
 22 23  1  0  0  0
 23 43  1  0  0  0
 23 44  1  0  0  0
 23 45  1  0  0  0
 24 25  1  0  0  0
 25 46  1  0  0  0
 25 47  1  0  0  0
 25 48  1  0  0  0
 49 50  1  0  0  0
M  CHG  1  49   1
M  END
> <i_i_glide_confnum>
8

> <i_i_glide_lignum>
6185

> <i_i_glide_posenum>
191

> <i_i_glide_rotatable_bonds>
9

> <i_m_Source_File_Index>
5651

> <b_m_subgroup_collapsed>
0

> <r_i_docking_score>
-5.63904

> <r_i_glide_ecoul>
-5.65621

> <r_i_glide_eff_state_penalty>
0

> <r_i_glide_einternal>
2.68362

> <r_i_glide_emodel>
-56.7162

> <r_i_glide_energy>
-40.7709

> <r_i_glide_erotb>
0.811779

> <r_i_glide_esite>
-0.163107

> <r_i_glide_evdw>
-35.1147

> <r_i_glide_gscore>
-5.63904

> <r_i_glide_hbond>
-0.17337

> <r_i_glide_ligand_efficiency>
-0.216886

> <r_i_glide_ligand_efficiency_ln>
-1.32431

> <r_i_glide_ligand_efficiency_sa>
-0.642525

> <r_i_glide_lipo>
-2.48292

> <r_i_glide_metal>
0

> <r_i_glide_rewards>
-1.02726

> <s_i_glide_gridfile>
wee1_glide-grid

> <s_m_Source_File>
wee1_decoys_glide_SP.sdf

> <s_m_Source_Path>
/Users/zhangxujun/Desktop

> <s_m_entry_id>
5926

> <s_m_entry_name>
wee1_decoys_glide_SP.5651

> <s_m_subgroup_title>
wee1_decoys_glide_SP

> <s_m_subgroupid>
wee1_decoys_glide_SP


$$$$
