ZINC44885138_4651
                    3D
 Schrodinger Suite 2024-2.
 55 57  0  0  1  0            999 V2000
    6.4937   54.6297   27.5069 C   0  0  0  0  0  0
    5.6117   54.3599   26.3037 C   0  0  0  0  0  0
    4.2650   54.0314   26.4795 C   0  0  0  0  0  0
    3.4740   53.7151   25.3761 C   0  0  0  0  0  0
    4.0348   53.7098   24.0935 C   0  0  0  0  0  0
    5.3690   54.0968   23.9181 C   0  0  0  0  0  0
    6.1585   54.4115   25.0204 C   0  0  0  0  0  0
    3.0432   53.3023   22.6471 S   0  0  0  0  0  0
    4.0240   53.0388   21.5889 O   0  0  0  0  0  0
    2.2074   54.4912   22.4895 O   0  0  0  0  0  0
    2.3044   51.9961   23.1154 N   0  5  0  0  0  0
    1.0356   51.8680   23.6279 C   0  0  0  0  0  0
    0.1032   52.8967   23.8241 C   0  0  0  0  0  0
   -1.1729   52.6296   24.3076 C   0  0  0  0  0  0
   -1.5493   51.3326   24.6612 C   0  0  0  0  0  0
   -0.6280   50.2883   24.4905 C   0  0  0  0  0  0
    0.6401   50.5702   23.9773 C   0  0  0  0  0  0
   -1.0095   48.6414   24.8761 Cl  0  0  0  0  0  0
   -2.9510   51.1177   25.1442 C   0  0  0  0  0  0
   -3.8947   51.2461   24.3608 O   0  0  0  0  0  0
   -3.0637   50.9135   26.4718 N   0  0  0  0  0  0
   -4.2048   51.1369   27.2633 C   0  0  0  0  0  0
   -4.2877   50.4755   28.4905 C   0  0  0  0  0  0
   -5.3478   50.7367   29.3726 C   0  0  0  0  0  0
   -6.3484   51.6446   28.9930 C   0  0  0  0  0  0
   -6.2889   52.3163   27.7624 C   0  0  0  0  0  0
   -5.2033   52.0617   26.9134 C   0  0  0  0  0  0
   -7.3217   53.3203   27.3499 C   0  0  0  0  0  0
   -7.1817   54.0816   26.3885 O   0  0  0  0  0  0
   -8.4377   53.2866   28.1190 O   0  0  0  0  0  0
   -9.5469   54.1231   27.8257 C   0  0  0  0  0  0
   -5.4130   50.0205   30.6844 C   0  0  0  0  0  0
   -4.8958   48.9193   30.8812 O   0  0  0  0  0  0
   -6.0256   50.7560   31.6465 O   0  0  0  0  0  0
   -6.1177   50.2742   32.9797 C   0  0  0  0  0  0
    6.0567   54.2345   28.4238 H   0  0  0  0  0  0
    7.4609   54.1401   27.3855 H   0  0  0  0  0  0
    6.6661   55.6978   27.6236 H   0  0  0  0  0  0
    3.8344   53.9982   27.4683 H   0  0  0  0  0  0
    2.4360   53.4527   25.5185 H   0  0  0  0  0  0
    5.8061   54.1265   22.9307 H   0  0  0  0  0  0
    7.1950   54.6728   24.8715 H   0  0  0  0  0  0
    0.3281   53.9240   23.6068 H   0  0  0  0  0  0
   -1.8690   53.4472   24.4125 H   0  0  0  0  0  0
    1.3340   49.7508   23.8502 H   0  0  0  0  0  0
   -2.2288   50.6316   26.9658 H   0  0  0  0  0  0
   -3.5129   49.7674   28.7679 H   0  0  0  0  0  0
   -7.1758   51.8318   29.6663 H   0  0  0  0  0  0
   -5.1272   52.6034   25.9810 H   0  0  0  0  0  0
  -10.3151   54.0090   28.5907 H   0  0  0  0  0  0
   -9.9881   53.8625   26.8600 H   0  0  0  0  0  0
   -9.2533   55.1737   27.7960 H   0  0  0  0  0  0
   -6.6203   51.0117   33.6057 H   0  0  0  0  0  0
   -6.6847   49.3426   33.0248 H   0  0  0  0  0  0
   -5.1268   50.0967   33.4039 H   0  0  0  0  0  0
  1  2  1  0  0  0
  1 36  1  0  0  0
  1 37  1  0  0  0
  1 38  1  0  0  0
  2  7  2  0  0  0
  2  3  1  0  0  0
  3  4  2  0  0  0
  3 39  1  0  0  0
  4  5  1  0  0  0
  4 40  1  0  0  0
  5  6  2  0  0  0
  5  8  1  0  0  0
  6  7  1  0  0  0
  6 41  1  0  0  0
  7 42  1  0  0  0
  8  9  2  0  0  0
  8 10  2  0  0  0
  8 11  1  0  0  0
 11 12  1  0  0  0
 12 17  2  0  0  0
 12 13  1  0  0  0
 13 14  2  0  0  0
 13 43  1  0  0  0
 14 15  1  0  0  0
 14 44  1  0  0  0
 15 16  2  0  0  0
 15 19  1  0  0  0
 16 17  1  0  0  0
 16 18  1  0  0  0
 17 45  1  0  0  0
 19 20  2  0  0  0
 19 21  1  0  0  0
 21 22  1  0  0  0
 21 46  1  0  0  0
 22 27  2  0  0  0
 22 23  1  0  0  0
 23 24  2  0  0  0
 23 47  1  0  0  0
 24 25  1  0  0  0
 24 32  1  0  0  0
 25 26  2  0  0  0
 25 48  1  0  0  0
 26 27  1  0  0  0
 26 28  1  0  0  0
 27 49  1  0  0  0
 28 29  2  0  0  0
 28 30  1  0  0  0
 30 31  1  0  0  0
 31 50  1  0  0  0
 31 51  1  0  0  0
 31 52  1  0  0  0
 32 33  2  0  0  0
 32 34  1  0  0  0
 34 35  1  0  0  0
 35 53  1  0  0  0
 35 54  1  0  0  0
 35 55  1  0  0  0
M  CHG  1  11  -1
M  END
> <i_i_glide_confnum>
138

> <i_i_glide_lignum>
4652

> <i_i_glide_posenum>
12

> <i_i_glide_rotatable_bonds>
10

> <i_m_Source_File_Index>
1238

> <b_m_subgroup_collapsed>
0

> <r_i_docking_score>
-3.25697

> <r_i_glide_ecoul>
-0.0527437

> <r_i_glide_eff_state_penalty>
0

> <r_i_glide_einternal>
9.23022

> <r_i_glide_emodel>
-44.1762

> <r_i_glide_energy>
-40.5491

> <r_i_glide_erotb>
0.616756

> <r_i_glide_esite>
-0.099973

> <r_i_glide_evdw>
-40.4964

> <r_i_glide_gscore>
-3.25697

> <r_i_glide_hbond>
0

> <r_i_glide_ligand_efficiency>
-0.0930561

> <r_i_glide_ligand_efficiency_ln>
-0.714976

> <r_i_glide_ligand_efficiency_sa>
-0.304393

> <r_i_glide_lipo>
-2.17985

> <r_i_glide_metal>
0

> <r_i_glide_rewards>
0.438832

> <s_i_glide_gridfile>
wee1_glide-grid

> <s_m_Source_File>
wee1_decoys_glide_SP.sdf

> <s_m_Source_Path>
/Users/zhangxujun/Desktop

> <s_m_entry_id>
1513

> <s_m_entry_name>
wee1_decoys_glide_SP.1238

> <s_m_subgroup_title>
wee1_decoys_glide_SP

> <s_m_subgroupid>
wee1_decoys_glide_SP


$$$$
