ZINC13018473_3011
                    3D
 Schrodinger Suite 2024-2.
 60 63  0  0  1  0            999 V2000
    1.7828   53.1462   23.4957 C   0  0  0  0  0  0
    2.2946   53.4010   24.9145 C   0  0  0  0  0  0
    1.7793   52.9369   26.0987 C   0  0  0  0  0  0
    2.5508   53.1412   27.4446 C   0  0  1  0  0  0
    2.9716   52.1629   27.6820 H   0  0  0  0  0  0
    3.7698   54.0635   27.2394 C   0  0  0  0  0  0
    4.1906   54.4397   26.0161 C   0  0  0  0  0  0
    3.4822   54.0956   24.8979 N   0  0  0  0  0  0
    5.6477   55.4141   25.6825 S   0  0  0  0  0  0
    6.6699   54.3117   24.6695 C   0  0  0  0  0  0
    6.3036   54.3460   23.1870 C   0  0  0  0  0  0
    5.3460   53.6855   22.7862 O   0  0  0  0  0  0
    7.1042   55.0934   22.4062 N   0  0  0  0  0  0
    7.0170   55.3099   21.0219 C   0  0  0  0  0  0
    8.1984   55.6968   20.3884 C   0  0  0  0  0  0
    8.2119   55.9393   19.0196 C   0  0  0  0  0  0
    7.0370   55.8074   18.2848 C   0  0  0  0  0  0
    5.8487   55.4327   18.9070 C   0  0  0  0  0  0
    5.8342   55.1827   20.2768 C   0  0  0  0  0  0
    4.5051   54.4962   28.3782 C   0  0  0  0  0  0
    5.1043   54.8893   29.2822 N   0  0  0  0  0  0
    1.7077   53.5956   28.6421 C   0  0  0  0  0  0
    1.0783   52.7840   29.6003 C   0  0  0  0  0  0
    0.4782   53.6006   30.5404 C   0  0  0  0  0  0
    0.7037   54.8965   30.2216 O   0  0  0  0  0  0
    1.4258   54.8924   29.0724 C   0  0  0  0  0  0
    0.5729   52.1202   26.1806 C   0  0  0  0  0  0
    0.4876   51.1854   26.9781 O   0  0  0  0  0  0
   -0.4280   52.4934   25.3545 N   0  0  0  0  0  0
   -1.6842   51.8814   25.2116 C   0  0  0  0  0  0
   -2.4143   51.4106   26.3159 C   0  0  0  0  0  0
   -3.6614   50.8161   26.1286 C   0  0  0  0  0  0
   -4.1871   50.6933   24.8434 C   0  0  0  0  0  0
   -3.4655   51.1560   23.7433 C   0  0  0  0  0  0
   -2.2047   51.7542   23.9124 C   0  0  0  0  0  0
   -1.4426   52.2331   22.8595 O   0  0  0  0  0  0
   -1.7744   51.8604   21.5288 C   0  0  0  0  0  0
    1.1522   53.9729   23.1612 H   0  0  0  0  0  0
    2.6093   53.0460   22.7853 H   0  0  0  0  0  0
    1.2199   52.2157   23.4137 H   0  0  0  0  0  0
    3.9176   54.2571   23.9990 H   0  0  0  0  0  0
    6.5914   53.2973   25.0557 H   0  0  0  0  0  0
    7.7060   54.6126   24.8035 H   0  0  0  0  0  0
    7.9549   55.4389   22.8377 H   0  0  0  0  0  0
    9.1107   55.8070   20.9560 H   0  0  0  0  0  0
    9.1325   56.2281   18.5324 H   0  0  0  0  0  0
    7.0470   55.9964   17.2200 H   0  0  0  0  0  0
    4.9410   55.3321   18.3302 H   0  0  0  0  0  0
    4.8975   54.9009   20.7345 H   0  0  0  0  0  0
    1.0689   51.7030   29.6020 H   0  0  0  0  0  0
   -0.0970   53.4047   31.4369 H   0  0  0  0  0  0
    1.6906   55.8662   28.6873 H   0  0  0  0  0  0
   -0.1974   53.1741   24.6468 H   0  0  0  0  0  0
   -2.0219   51.4953   27.3192 H   0  0  0  0  0  0
   -4.2135   50.4493   26.9814 H   0  0  0  0  0  0
   -5.1548   50.2319   24.6998 H   0  0  0  0  0  0
   -3.9032   51.0442   22.7652 H   0  0  0  0  0  0
   -1.0010   52.2205   20.8497 H   0  0  0  0  0  0
   -1.8299   50.7757   21.4172 H   0  0  0  0  0  0
   -2.7184   52.3028   21.2144 H   0  0  0  0  0  0
  1  2  1  0  0  0
  1 38  1  0  0  0
  1 39  1  0  0  0
  1 40  1  0  0  0
  2  8  1  0  0  0
  2  3  2  0  0  0
  3  4  1  0  0  0
  3 27  1  0  0  0
  4  5  1  0  0  0
  4  6  1  0  0  0
  4 22  1  0  0  0
  6  7  2  0  0  0
  6 20  1  0  0  0
  7  8  1  0  0  0
  7  9  1  0  0  0
  8 41  1  0  0  0
  9 10  1  0  0  0
 10 11  1  0  0  0
 10 42  1  0  0  0
 10 43  1  0  0  0
 11 12  2  0  0  0
 11 13  1  0  0  0
 13 14  1  0  0  0
 13 44  1  0  0  0
 14 19  2  0  0  0
 14 15  1  0  0  0
 15 16  2  0  0  0
 15 45  1  0  0  0
 16 17  1  0  0  0
 16 46  1  0  0  0
 17 18  2  0  0  0
 17 47  1  0  0  0
 18 19  1  0  0  0
 18 48  1  0  0  0
 19 49  1  0  0  0
 20 21  3  0  0  0
 22 26  2  0  0  0
 22 23  1  0  0  0
 23 24  2  0  0  0
 23 50  1  0  0  0
 24 25  1  0  0  0
 24 51  1  0  0  0
 25 26  1  0  0  0
 26 52  1  0  0  0
 27 28  2  0  0  0
 27 29  1  0  0  0
 29 30  1  0  0  0
 29 53  1  0  0  0
 30 35  2  0  0  0
 30 31  1  0  0  0
 31 32  2  0  0  0
 31 54  1  0  0  0
 32 33  1  0  0  0
 32 55  1  0  0  0
 33 34  2  0  0  0
 33 56  1  0  0  0
 34 35  1  0  0  0
 34 57  1  0  0  0
 35 36  1  0  0  0
 36 37  1  0  0  0
 37 58  1  0  0  0
 37 59  1  0  0  0
 37 60  1  0  0  0
M  END
> <i_i_glide_confnum>
215

> <i_i_glide_lignum>
3012

> <i_i_glide_posenum>
166

> <i_i_glide_rotatable_bonds>
11

> <i_m_Source_File_Index>
4966

> <b_m_subgroup_collapsed>
0

> <r_i_docking_score>
-6.77929

> <r_i_glide_ecoul>
-2.86135

> <r_i_glide_eff_state_penalty>
0

> <r_i_glide_einternal>
15.1529

> <r_i_glide_emodel>
-71.847

> <r_i_glide_energy>
-55.6936

> <r_i_glide_erotb>
0.65197

> <r_i_glide_esite>
0

> <r_i_glide_evdw>
-52.8322

> <r_i_glide_gscore>
-6.77929

> <r_i_glide_hbond>
-0.32

> <r_i_glide_ligand_efficiency>
-0.188313

> <r_i_glide_ligand_efficiency_ln>
-1.47906

> <r_i_glide_ligand_efficiency_sa>
-0.621797

> <r_i_glide_lipo>
-3.15544

> <r_i_glide_metal>
0

> <r_i_glide_rewards>
-0.885

> <s_i_glide_gridfile>
wee1_glide-grid

> <s_m_Source_File>
wee1_decoys_glide_SP.sdf

> <s_m_Source_Path>
/Users/zhangxujun/Desktop

> <s_m_entry_id>
5241

> <s_m_entry_name>
wee1_decoys_glide_SP.4966

> <s_m_subgroup_title>
wee1_decoys_glide_SP

> <s_m_subgroupid>
wee1_decoys_glide_SP


$$$$
