ZINC44830936_4406
                    3D
 Schrodinger Suite 2024-2.
 70 73  0  0  1  0            999 V2000
   -0.1388   49.4489   17.1140 C   0  0  0  0  0  0
   -0.1604   48.3820   18.2311 C   0  0  2  0  0  0
   -0.2505   47.4138   17.7392 H   0  0  0  0  0  0
   -1.3450   48.5061   19.2223 C   0  0  0  0  0  0
   -2.7127   48.9513   18.6562 C   0  0  0  0  0  0
   -3.7161   49.3391   19.7650 C   0  0  0  0  0  0
   -3.2253   50.5009   20.6476 C   0  0  0  0  0  0
   -2.8960   51.5642   20.1160 O   0  0  0  0  0  0
   -3.1470   50.2576   22.0897 C   0  0  0  0  0  0
   -2.4289   50.9323   23.0204 C   0  0  0  0  0  0
   -1.4896   52.0350   22.8361 C   0  0  0  0  0  0
   -1.7118   53.1410   23.3323 O   0  0  0  0  0  0
   -0.2836   51.6595   22.2549 O   0  0  0  0  0  0
    0.9779   51.4995   22.9920 C   0  0  1  0  0  0
    2.0488   50.9606   21.9651 C   0  0  1  0  0  0
    2.8611   50.5266   22.5543 H   0  0  0  0  0  0
    1.6090   49.7456   21.1191 C   0  0  0  0  0  0
    1.4639   49.6579   19.7819 C   0  0  0  0  0  0
    1.1738   48.3731   19.0151 C   0  0  0  0  0  0
    2.7272   52.1274   21.1937 C   0  0  1  0  0  0
    1.9653   52.7924   20.7821 H   0  0  0  0  0  0
    3.6006   52.8943   22.1967 C   0  0  0  0  0  0
    4.9191   53.1331   21.9975 C   0  0  0  0  0  0
    2.9209   53.3076   23.5164 C   0  0  2  0  0  0
    3.4960   52.8313   24.3025 H   0  0  0  0  0  0
    1.4259   52.8300   23.6996 C   0  0  2  0  0  0
    0.8394   53.6342   23.2535 H   0  0  0  0  0  0
    0.9441   52.6486   25.1746 C   0  0  1  0  0  0
   -0.0195   53.1448   25.2844 H   0  0  0  0  0  0
    0.6905   51.2180   25.2722 N   0  0  0  0  0  0
    0.7541   50.4949   24.1497 C   0  0  0  0  0  0
    0.5716   49.2852   24.0557 O   0  0  0  0  0  0
    1.8690   53.1166   26.3428 C   0  0  0  0  0  0
    1.2353   53.1892   27.7385 C   0  0  0  0  0  0
    0.6481   52.0630   28.3266 C   0  0  0  0  0  0
    0.1049   52.1464   29.6044 C   0  0  0  0  0  0
    0.1811   53.3392   30.3145 C   0  0  0  0  0  0
    0.7614   54.4667   29.7456 C   0  0  0  0  0  0
    1.2883   54.3915   28.4589 C   0  0  0  0  0  0
    3.2336   54.7997   23.7005 C   0  0  0  0  0  0
    3.5200   51.7069   20.0938 O   0  0  0  0  0  0
    0.7727   49.3771   16.5177 H   0  0  0  0  0  0
   -0.9758   49.3267   16.4266 H   0  0  0  0  0  0
   -0.1882   50.4603   17.5160 H   0  0  0  0  0  0
   -1.4718   47.5527   19.7398 H   0  0  0  0  0  0
   -1.0542   49.2059   20.0039 H   0  0  0  0  0  0
   -2.5954   49.8132   17.9971 H   0  0  0  0  0  0
   -3.1302   48.1582   18.0350 H   0  0  0  0  0  0
   -4.6733   49.6250   19.3245 H   0  0  0  0  0  0
   -3.9122   48.4670   20.3894 H   0  0  0  0  0  0
   -3.7612   49.4398   22.4369 H   0  0  0  0  0  0
   -2.5220   50.6226   24.0514 H   0  0  0  0  0  0
    1.4813   48.8364   21.6890 H   0  0  0  0  0  0
    1.5629   50.5307   19.1571 H   0  0  0  0  0  0
    1.1918   47.5241   19.7023 H   0  0  0  0  0  0
    2.0059   48.2083   18.3270 H   0  0  0  0  0  0
    5.4144   52.8321   21.0887 H   0  0  0  0  0  0
    5.5322   53.6273   22.7352 H   0  0  0  0  0  0
    0.3665   50.7977   26.1302 H   0  0  0  0  0  0
    2.7617   52.4973   26.4128 H   0  0  0  0  0  0
    2.2419   54.1083   26.1273 H   0  0  0  0  0  0
    0.6144   51.1112   27.8220 H   0  0  0  0  0  0
   -0.3661   51.2907   30.0621 H   0  0  0  0  0  0
   -0.2138   53.3853   31.3199 H   0  0  0  0  0  0
    0.8083   55.3929   30.2994 H   0  0  0  0  0  0
    1.7451   55.2722   28.0318 H   0  0  0  0  0  0
    3.0707   55.2968   22.7503 H   0  0  0  0  0  0
    2.6592   55.2980   24.4655 H   0  0  0  0  0  0
    4.2757   54.9480   23.9829 H   0  0  0  0  0  0
    3.0186   51.1141   19.5324 H   0  0  0  0  0  0
  1  2  1  0  0  0
  1 42  1  0  0  0
  1 43  1  0  0  0
  1 44  1  0  0  0
  2  3  1  0  0  0
  2 19  1  0  0  0
  2  4  1  0  0  0
  4  5  1  0  0  0
  4 45  1  0  0  0
  4 46  1  0  0  0
  5  6  1  0  0  0
  5 47  1  0  0  0
  5 48  1  0  0  0
  6  7  1  0  0  0
  6 49  1  0  0  0
  6 50  1  0  0  0
  7  8  2  0  0  0
  7  9  1  0  0  0
  9 10  2  0  0  0
  9 51  1  0  0  0
 10 11  1  0  0  0
 10 52  1  0  0  0
 11 12  2  0  0  0
 11 13  1  0  0  0
 13 14  1  0  0  0
 14 26  1  0  0  0
 14 31  1  0  0  0
 14 15  1  0  0  0
 15 16  1  0  0  0
 15 17  1  0  0  0
 15 20  1  0  0  0
 17 18  2  0  0  0
 17 53  1  0  0  0
 18 19  1  0  0  0
 18 54  1  0  0  0
 19 55  1  0  0  0
 19 56  1  0  0  0
 20 21  1  0  0  0
 20 22  1  0  0  0
 20 41  1  0  0  0
 22 23  2  0  0  0
 22 24  1  0  0  0
 23 57  1  0  0  0
 23 58  1  0  0  0
 24 25  1  0  0  0
 24 26  1  0  0  0
 24 40  1  0  0  0
 26 27  1  0  0  0
 26 28  1  0  0  0
 28 29  1  0  0  0
 28 30  1  0  0  0
 28 33  1  0  0  0
 30 31  1  0  0  0
 30 59  1  0  0  0
 31 32  2  0  0  0
 33 34  1  0  0  0
 33 60  1  0  0  0
 33 61  1  0  0  0
 34 39  2  0  0  0
 34 35  1  0  0  0
 35 36  2  0  0  0
 35 62  1  0  0  0
 36 37  1  0  0  0
 36 63  1  0  0  0
 37 38  2  0  0  0
 37 64  1  0  0  0
 38 39  1  0  0  0
 38 65  1  0  0  0
 39 66  1  0  0  0
 40 67  1  0  0  0
 40 68  1  0  0  0
 40 69  1  0  0  0
 41 70  1  0  0  0
M  END
> <i_i_glide_confnum>
6

> <i_i_glide_lignum>
4407

> <i_i_glide_posenum>
334

> <i_i_glide_rotatable_bonds>
3

> <i_m_Source_File_Index>
2861

> <b_m_subgroup_collapsed>
0

> <r_i_docking_score>
-4.35988

> <r_i_glide_ecoul>
-3.10188

> <r_i_glide_eff_state_penalty>
0

> <r_i_glide_einternal>
4.59581

> <r_i_glide_emodel>
-44.9073

> <r_i_glide_energy>
-37.16

> <r_i_glide_erotb>
0.177631

> <r_i_glide_esite>
-0.00179056

> <r_i_glide_evdw>
-34.0581

> <r_i_glide_gscore>
-4.35988

> <r_i_glide_hbond>
-0.101018

> <r_i_glide_ligand_efficiency>
-0.124568

> <r_i_glide_ligand_efficiency_ln>
-0.957092

> <r_i_glide_ligand_efficiency_sa>
-0.407471

> <r_i_glide_lipo>
-2.06573

> <r_i_glide_metal>
0

> <r_i_glide_rewards>
-0.20079

> <s_i_glide_gridfile>
wee1_glide-grid

> <s_m_Source_File>
wee1_decoys_glide_SP.sdf

> <s_m_Source_Path>
/Users/zhangxujun/Desktop

> <s_m_entry_id>
3136

> <s_m_entry_name>
wee1_decoys_glide_SP.2861

> <s_m_subgroup_title>
wee1_decoys_glide_SP

> <s_m_subgroupid>
wee1_decoys_glide_SP


$$$$
