ZINC15435512_1429
                    3D
 Schrodinger Suite 2024-2.
 52 54  0  0  1  0            999 V2000
    3.8582   51.9257   31.6816 C   0  0  0  0  0  0
    3.0918   52.4820   30.4879 C   0  0  1  0  0  0
    2.8499   53.5276   30.6661 H   0  0  0  0  0  0
    3.8976   52.3181   29.1946 C   0  0  0  0  0  0
    3.0491   52.5692   28.0037 N   0  0  0  0  0  0
    1.7281   51.8787   28.0366 C   0  0  0  0  0  0
    0.9861   52.0804   29.3721 C   0  0  1  0  0  0
    0.1757   51.3479   29.3965 H   0  0  0  0  0  0
    1.9044   51.6992   30.3931 O   0  0  0  0  0  0
    0.3047   53.4397   29.6232 C   0  0  0  0  0  0
    3.1951   54.1418   27.2097 S   0  0  0  0  0  0
    2.1489   54.9955   27.7729 O   0  0  0  0  0  0
    4.6009   54.5550   27.2989 O   0  0  0  0  0  0
    2.8230   53.8963   25.4643 C   0  0  0  0  0  0
    1.5046   53.6948   25.0509 C   0  0  0  0  0  0
    1.1994   53.5319   23.7032 C   0  0  0  0  0  0
    2.2144   53.5592   22.7514 C   0  0  0  0  0  0
    3.5479   53.7418   23.1433 C   0  0  0  0  0  0
    3.8402   53.9205   24.5062 C   0  0  0  0  0  0
    4.6706   53.6715   22.1405 C   0  0  0  0  0  0
    5.7743   53.2550   22.5028 O   0  0  0  0  0  0
    4.3951   54.0999   20.8872 N   0  0  0  0  0  0
    5.3723   53.8613   19.9204 N   0  0  0  0  0  0
    6.0743   54.8959   19.4120 C   0  0  0  0  0  0
    5.9061   56.0777   19.7295 O   0  0  0  0  0  0
    7.1943   54.4969   18.4792 C   0  0  0  0  0  0
    7.1088   53.3429   17.6818 C   0  0  0  0  0  0
    8.1790   52.9655   16.8751 C   0  0  0  0  0  0
    9.3381   53.7372   16.8596 C   0  0  0  0  0  0
    9.4352   54.8873   17.6361 C   0  0  0  0  0  0
    8.3644   55.2685   18.4399 C   0  0  0  0  0  0
    4.7043   52.5432   31.9693 H   0  0  0  0  0  0
    4.2092   50.9062   31.5159 H   0  0  0  0  0  0
    3.1761   51.8776   32.5217 H   0  0  0  0  0  0
    4.7718   52.9692   29.1780 H   0  0  0  0  0  0
    4.2546   51.2967   29.1139 H   0  0  0  0  0  0
    1.1227   52.1476   27.1771 H   0  0  0  0  0  0
    1.9517   50.8144   27.9408 H   0  0  0  0  0  0
   -0.3127   53.7270   28.7726 H   0  0  0  0  0  0
   -0.3432   53.3800   30.4966 H   0  0  0  0  0  0
    1.0036   54.2495   29.8095 H   0  0  0  0  0  0
    0.7085   53.6648   25.7737 H   0  0  0  0  0  0
    0.1765   53.3695   23.3981 H   0  0  0  0  0  0
    1.9462   53.4083   21.7146 H   0  0  0  0  0  0
    4.8655   54.0524   24.8261 H   0  0  0  0  0  0
    3.4615   54.0996   20.4992 H   0  0  0  0  0  0
    5.2274   52.9961   19.4183 H   0  0  0  0  0  0
    6.2276   52.7146   17.6827 H   0  0  0  0  0  0
    8.1122   52.0725   16.2706 H   0  0  0  0  0  0
   10.1700   53.4393   16.2406 H   0  0  0  0  0  0
   10.3400   55.4758   17.6254 H   0  0  0  0  0  0
    8.4640   56.1560   19.0498 H   0  0  0  0  0  0
  1  2  1  0  0  0
  1 32  1  0  0  0
  1 33  1  0  0  0
  1 34  1  0  0  0
  2  3  1  0  0  0
  2  9  1  0  0  0
  2  4  1  0  0  0
  4  5  1  0  0  0
  4 35  1  0  0  0
  4 36  1  0  0  0
  5  6  1  0  0  0
  5 11  1  0  0  0
  6  7  1  0  0  0
  6 37  1  0  0  0
  6 38  1  0  0  0
  7  8  1  0  0  0
  7  9  1  0  0  0
  7 10  1  0  0  0
 10 39  1  0  0  0
 10 40  1  0  0  0
 10 41  1  0  0  0
 11 12  2  0  0  0
 11 13  2  0  0  0
 11 14  1  0  0  0
 14 19  2  0  0  0
 14 15  1  0  0  0
 15 16  2  0  0  0
 15 42  1  0  0  0
 16 17  1  0  0  0
 16 43  1  0  0  0
 17 18  2  0  0  0
 17 44  1  0  0  0
 18 19  1  0  0  0
 18 20  1  0  0  0
 19 45  1  0  0  0
 20 21  2  0  0  0
 20 22  1  0  0  0
 22 23  1  0  0  0
 22 46  1  0  0  0
 23 24  1  0  0  0
 23 47  1  0  0  0
 24 25  2  0  0  0
 24 26  1  0  0  0
 26 31  2  0  0  0
 26 27  1  0  0  0
 27 28  2  0  0  0
 27 48  1  0  0  0
 28 29  1  0  0  0
 28 49  1  0  0  0
 29 30  2  0  0  0
 29 50  1  0  0  0
 30 31  1  0  0  0
 30 51  1  0  0  0
 31 52  1  0  0  0
M  END
> <i_i_glide_confnum>
49

> <i_i_glide_lignum>
1430

> <i_i_glide_posenum>
144

> <i_i_glide_rotatable_bonds>
7

> <i_m_Source_File_Index>
1545

> <b_m_subgroup_collapsed>
0

> <r_i_docking_score>
-5.05453

> <r_i_glide_ecoul>
-5.6204

> <r_i_glide_eff_state_penalty>
0

> <r_i_glide_einternal>
4.5396

> <r_i_glide_emodel>
-53.9769

> <r_i_glide_energy>
-42.29

> <r_i_glide_erotb>
0.680438

> <r_i_glide_esite>
-0.0153181

> <r_i_glide_evdw>
-36.6696

> <r_i_glide_gscore>
-5.05453

> <r_i_glide_hbond>
-0.265151

> <r_i_glide_ligand_efficiency>
-0.174294

> <r_i_glide_ligand_efficiency_ln>
-1.15736

> <r_i_glide_ligand_efficiency_sa>
-0.535487

> <r_i_glide_lipo>
-2.41299

> <r_i_glide_metal>
0

> <r_i_glide_rewards>
-0.364976

> <s_i_glide_gridfile>
wee1_glide-grid

> <s_m_Source_File>
wee1_decoys_glide_SP.sdf

> <s_m_Source_Path>
/Users/zhangxujun/Desktop

> <s_m_entry_id>
1820

> <s_m_entry_name>
wee1_decoys_glide_SP.1545

> <s_m_subgroup_title>
wee1_decoys_glide_SP

> <s_m_subgroupid>
wee1_decoys_glide_SP


$$$$
