ZINC12642171_5479
                    3D
 Schrodinger Suite 2024-2.
 77 82  0  0  1  0            999 V2000
    0.7041   49.4519   26.1888 C   0  0  0  0  0  0
    0.3976   50.3169   24.9489 C   0  0  2  0  0  0
   -0.5759   49.6389   23.9859 C   0  0  0  0  0  0
   -0.2347   50.0530   22.7523 C   0  0  0  0  0  0
    0.8619   51.0754   22.9973 C   0  0  2  0  0  0
    1.5043   50.4397   24.0818 O   0  0  0  0  0  0
    0.3660   52.3495   23.6519 C   0  0  1  0  0  0
   -0.5498   52.7000   23.1750 H   0  0  0  0  0  0
    0.0813   51.8427   25.1168 C   0  0  2  0  0  0
   -0.9701   51.9739   25.3730 H   0  0  0  0  0  0
    0.9109   52.4962   26.2679 C   0  0  0  0  0  0
    2.1261   52.6364   26.1645 O   0  0  0  0  0  0
    0.2616   52.8963   27.3764 N   0  0  0  0  0  0
    0.8977   53.5712   28.5155 C   0  0  0  0  0  0
    1.5014   54.9699   28.2054 C   0  0  0  0  0  0
    2.1171   55.6815   29.4261 C   0  0  0  0  0  0
    1.1471   55.7166   30.6142 C   0  0  0  0  0  0
    0.6645   54.3003   30.9810 C   0  0  0  0  0  0
    0.0254   53.5737   29.7885 C   0  0  0  0  0  0
    1.4641   53.3818   23.3547 C   0  0  0  0  0  0
    1.5046   54.5000   23.8459 O   0  0  0  0  0  0
    2.3011   52.8483   22.4290 N   0  0  0  0  0  0
    1.9064   51.5070   21.9564 C   0  0  2  0  0  0
    2.7568   50.8243   21.9694 H   0  0  0  0  0  0
    1.3905   51.5649   20.4979 C   0  0  0  0  0  0
    0.2017   51.7884   20.2565 O   0  0  0  0  0  0
    2.3177   51.3751   19.5401 N   0  0  0  0  0  0
    2.0952   51.3942   18.0937 C   0  0  0  0  0  0
    1.3182   50.1724   17.5408 C   0  0  0  0  0  0
    1.1329   50.2048   16.0097 C   0  0  0  0  0  0
    0.5404   51.5371   15.5226 C   0  0  0  0  0  0
    1.3921   52.7289   15.9928 C   0  0  0  0  0  0
    1.5777   52.7426   17.5232 C   0  0  0  0  0  0
    3.4269   53.6340   21.8840 C   0  0  0  0  0  0
    4.7456   53.5230   22.6854 C   0  0  2  0  0  0
    5.1049   52.4968   22.6171 H   0  0  0  0  0  0
    4.7153   54.0407   24.1237 C   0  0  0  0  0  0
    6.1361   54.4728   24.4121 C   0  0  0  0  0  0
    6.7599   54.6468   23.0272 C   0  0  0  0  0  0
    5.7121   54.3833   22.0906 O   0  0  0  0  0  0
   -0.2038   49.2786   26.7610 H   0  0  0  0  0  0
    1.1041   48.4860   25.8878 H   0  0  0  0  0  0
    1.4220   49.8921   26.8818 H   0  0  0  0  0  0
   -1.3650   48.9659   24.2858 H   0  0  0  0  0  0
   -0.6838   49.8227   21.7978 H   0  0  0  0  0  0
   -0.7387   52.7797   27.4203 H   0  0  0  0  0  0
    1.7570   52.9497   28.7835 H   0  0  0  0  0  0
    0.7044   55.6088   27.8228 H   0  0  0  0  0  0
    2.2576   54.8967   27.4231 H   0  0  0  0  0  0
    2.4060   56.6983   29.1578 H   0  0  0  0  0  0
    3.0374   55.1721   29.7143 H   0  0  0  0  0  0
    0.3044   56.3551   30.3684 H   0  0  0  0  0  0
    1.6061   56.2042   31.4723 H   0  0  0  0  0  0
   -0.0380   54.3438   31.8147 H   0  0  0  0  0  0
    1.5041   53.6966   31.3209 H   0  0  0  0  0  0
   -0.2416   52.5556   30.0790 H   0  0  0  0  0  0
   -0.8956   54.0961   29.5636 H   0  0  0  0  0  0
    3.2275   51.0378   19.8174 H   0  0  0  0  0  0
    3.1036   51.2968   17.6808 H   0  0  0  0  0  0
    1.8290   49.2487   17.8193 H   0  0  0  0  0  0
    0.3279   50.1430   18.0005 H   0  0  0  0  0  0
    2.1006   50.0422   15.5309 H   0  0  0  0  0  0
    0.4984   49.3756   15.6957 H   0  0  0  0  0  0
    0.4712   51.5358   14.4334 H   0  0  0  0  0  0
   -0.4793   51.6439   15.8976 H   0  0  0  0  0  0
    2.3725   52.6876   15.5123 H   0  0  0  0  0  0
    0.9337   53.6632   15.6658 H   0  0  0  0  0  0
    0.6105   52.9794   17.9697 H   0  0  0  0  0  0
    2.2559   53.5511   17.8006 H   0  0  0  0  0  0
    3.6090   53.3411   20.8506 H   0  0  0  0  0  0
    3.1308   54.6838   21.8445 H   0  0  0  0  0  0
    4.0424   54.8961   24.1918 H   0  0  0  0  0  0
    4.3063   53.3060   24.8189 H   0  0  0  0  0  0
    6.1640   55.3966   24.9922 H   0  0  0  0  0  0
    6.6658   53.7043   24.9781 H   0  0  0  0  0  0
    7.1585   55.6506   22.8728 H   0  0  0  0  0  0
    7.5783   53.9403   22.8814 H   0  0  0  0  0  0
  1  2  1  0  0  0
  1 41  1  0  0  0
  1 42  1  0  0  0
  1 43  1  0  0  0
  2  6  1  0  0  0
  2  9  1  0  0  0
  2  3  1  0  0  0
  3  4  2  0  0  0
  3 44  1  0  0  0
  4  5  1  0  0  0
  4 45  1  0  0  0
  5 23  1  0  0  0
  5  6  1  0  0  0
  5  7  1  0  0  0
  7  8  1  0  0  0
  7  9  1  0  0  0
  7 20  1  0  0  0
  9 10  1  0  0  0
  9 11  1  0  0  0
 11 12  2  0  0  0
 11 13  1  0  0  0
 13 14  1  0  0  0
 13 46  1  0  0  0
 14 19  1  0  0  0
 14 15  1  0  0  0
 14 47  1  0  0  0
 15 16  1  0  0  0
 15 48  1  0  0  0
 15 49  1  0  0  0
 16 17  1  0  0  0
 16 50  1  0  0  0
 16 51  1  0  0  0
 17 18  1  0  0  0
 17 52  1  0  0  0
 17 53  1  0  0  0
 18 19  1  0  0  0
 18 54  1  0  0  0
 18 55  1  0  0  0
 19 56  1  0  0  0
 19 57  1  0  0  0
 20 21  2  0  0  0
 20 22  1  0  0  0
 22 23  1  0  0  0
 22 34  1  0  0  0
 23 24  1  0  0  0
 23 25  1  0  0  0
 25 26  2  0  0  0
 25 27  1  0  0  0
 27 28  1  0  0  0
 27 58  1  0  0  0
 28 33  1  0  0  0
 28 29  1  0  0  0
 28 59  1  0  0  0
 29 30  1  0  0  0
 29 60  1  0  0  0
 29 61  1  0  0  0
 30 31  1  0  0  0
 30 62  1  0  0  0
 30 63  1  0  0  0
 31 32  1  0  0  0
 31 64  1  0  0  0
 31 65  1  0  0  0
 32 33  1  0  0  0
 32 66  1  0  0  0
 32 67  1  0  0  0
 33 68  1  0  0  0
 33 69  1  0  0  0
 34 35  1  0  0  0
 34 70  1  0  0  0
 34 71  1  0  0  0
 35 36  1  0  0  0
 35 40  1  0  0  0
 35 37  1  0  0  0
 37 38  1  0  0  0
 37 72  1  0  0  0
 37 73  1  0  0  0
 38 39  1  0  0  0
 38 74  1  0  0  0
 38 75  1  0  0  0
 39 40  1  0  0  0
 39 76  1  0  0  0
 39 77  1  0  0  0
M  END
> <i_i_glide_confnum>
1073

> <i_i_glide_lignum>
5480

> <i_i_glide_posenum>
333

> <i_i_glide_rotatable_bonds>
8

> <i_m_Source_File_Index>
1975

> <b_m_subgroup_collapsed>
0

> <r_i_docking_score>
-4.96123

> <r_i_glide_ecoul>
-2.78589

> <r_i_glide_eff_state_penalty>
0

> <r_i_glide_einternal>
10.4468

> <r_i_glide_emodel>
-48.361

> <r_i_glide_energy>
-41.8096

> <r_i_glide_erotb>
0.654191

> <r_i_glide_esite>
-0.0492811

> <r_i_glide_evdw>
-39.0237

> <r_i_glide_gscore>
-4.96123

> <r_i_glide_hbond>
0

> <r_i_glide_ligand_efficiency>
-0.137812

> <r_i_glide_ligand_efficiency_ln>
-1.08241

> <r_i_glide_ligand_efficiency_sa>
-0.455045

> <r_i_glide_lipo>
-2.66358

> <r_i_glide_metal>
0

> <r_i_glide_rewards>
-0.533498

> <s_i_glide_gridfile>
wee1_glide-grid

> <s_m_Source_File>
wee1_decoys_glide_SP.sdf

> <s_m_Source_Path>
/Users/zhangxujun/Desktop

> <s_m_entry_id>
2250

> <s_m_entry_name>
wee1_decoys_glide_SP.1975

> <s_m_subgroup_title>
wee1_decoys_glide_SP

> <s_m_subgroupid>
wee1_decoys_glide_SP


$$$$
