ZINC20570474_4327
                    3D
 Schrodinger Suite 2024-2.
 52 55  0  0  1  0            999 V2000
    3.9943   54.0891   29.6681 C   0  0  0  0  0  0
    3.6455   54.2098   28.1754 C   0  0  2  0  0  0
    3.1560   55.1808   28.0507 H   0  0  0  0  0  0
    2.7076   53.0700   27.7355 C   0  0  0  0  0  0
    2.1484   53.3054   26.3181 C   0  0  0  0  0  0
    3.2736   53.7245   25.3628 C   0  0  0  0  0  0
    4.5288   54.1328   25.8385 C   0  0  0  0  0  0
    5.6227   54.4970   24.5449 S   0  0  0  0  0  0
    4.4012   54.1273   23.3472 C   0  0  0  0  0  0
    3.2141   53.6969   23.9519 C   0  0  0  0  0  0
    2.0361   53.2540   23.2110 C   0  0  0  0  0  0
    1.1052   52.8957   22.6255 N   0  0  0  0  0  0
    4.6000   54.2779   21.9687 N   0  0  0  0  0  0
    5.6480   54.8276   21.3148 C   0  0  0  0  0  0
    6.6486   55.2966   21.8611 O   0  0  0  0  0  0
    5.5043   54.8983   19.8120 C   0  0  0  0  0  0
    6.1546   55.9222   19.1065 C   0  0  0  0  0  0
    6.0294   56.0248   17.7232 C   0  0  0  0  0  0
    5.2616   55.0985   17.0207 C   0  0  0  0  0  0
    4.6002   54.0675   17.6980 C   0  0  0  0  0  0
    4.7339   53.9681   19.0876 C   0  0  0  0  0  0
    3.8456   53.0928   17.0283 N   0  0  0  0  0  0
    2.7337   53.4355   15.6853 S   0  0  0  0  0  0
    3.4171   54.3061   14.7207 O   0  0  0  0  0  0
    2.1955   52.1382   15.2616 O   0  0  0  0  0  0
    1.3685   54.3649   16.3828 C   0  0  0  0  0  0
    0.2321   53.6874   16.8332 C   0  0  0  0  0  0
   -0.8706   54.4136   17.2811 C   0  0  0  0  0  0
   -0.8313   55.8059   17.2840 C   0  0  0  0  0  0
    0.3174   56.4846   16.8790 C   0  0  0  0  0  0
    1.4217   55.7630   16.4259 C   0  0  0  0  0  0
   -1.9114   56.4983   17.7117 F   0  0  0  0  0  0
    4.9324   54.1927   27.3093 C   0  0  0  0  0  0
    4.4551   53.1231   29.8858 H   0  0  0  0  0  0
    4.6853   54.8739   29.9772 H   0  0  0  0  0  0
    3.0965   54.1761   30.2789 H   0  0  0  0  0  0
    1.8657   53.0003   28.4268 H   0  0  0  0  0  0
    3.2037   52.1031   27.8261 H   0  0  0  0  0  0
    1.6304   52.4117   25.9685 H   0  0  0  0  0  0
    1.4027   54.0954   26.3545 H   0  0  0  0  0  0
    3.8135   54.0168   21.3916 H   0  0  0  0  0  0
    6.7620   56.6525   19.6255 H   0  0  0  0  0  0
    6.5365   56.8161   17.1900 H   0  0  0  0  0  0
    5.2151   55.1855   15.9489 H   0  0  0  0  0  0
    4.2369   53.1508   19.5970 H   0  0  0  0  0  0
    3.6585   52.2365   17.5325 H   0  0  0  0  0  0
    0.1892   52.6078   16.8072 H   0  0  0  0  0  0
   -1.7592   53.8966   17.6078 H   0  0  0  0  0  0
    0.3485   57.5645   16.9021 H   0  0  0  0  0  0
    2.3026   56.2865   16.0849 H   0  0  0  0  0  0
    5.5485   55.0690   27.5180 H   0  0  0  0  0  0
    5.5348   53.3160   27.5551 H   0  0  0  0  0  0
  1  2  1  0  0  0
  1 34  1  0  0  0
  1 35  1  0  0  0
  1 36  1  0  0  0
  2  3  1  0  0  0
  2 33  1  0  0  0
  2  4  1  0  0  0
  4  5  1  0  0  0
  4 37  1  0  0  0
  4 38  1  0  0  0
  5  6  1  0  0  0
  5 39  1  0  0  0
  5 40  1  0  0  0
  6 10  1  0  0  0
  6  7  2  0  0  0
  7  8  1  0  0  0
  7 33  1  0  0  0
  8  9  1  0  0  0
  9 10  2  0  0  0
  9 13  1  0  0  0
 10 11  1  0  0  0
 11 12  3  0  0  0
 13 14  1  0  0  0
 13 41  1  0  0  0
 14 15  2  0  0  0
 14 16  1  0  0  0
 16 21  2  0  0  0
 16 17  1  0  0  0
 17 18  2  0  0  0
 17 42  1  0  0  0
 18 19  1  0  0  0
 18 43  1  0  0  0
 19 20  2  0  0  0
 19 44  1  0  0  0
 20 21  1  0  0  0
 20 22  1  0  0  0
 21 45  1  0  0  0
 22 23  1  0  0  0
 22 46  1  0  0  0
 23 24  2  0  0  0
 23 25  2  0  0  0
 23 26  1  0  0  0
 26 31  2  0  0  0
 26 27  1  0  0  0
 27 28  2  0  0  0
 27 47  1  0  0  0
 28 29  1  0  0  0
 28 48  1  0  0  0
 29 30  2  0  0  0
 29 32  1  0  0  0
 30 31  1  0  0  0
 30 49  1  0  0  0
 31 50  1  0  0  0
 33 51  1  0  0  0
 33 52  1  0  0  0
M  END
> <i_i_glide_confnum>
5

> <i_i_glide_lignum>
4328

> <i_i_glide_posenum>
231

> <i_i_glide_rotatable_bonds>
7

> <i_m_Source_File_Index>
2341

> <b_m_subgroup_collapsed>
0

> <r_i_docking_score>
-4.98361

> <r_i_glide_ecoul>
-1.13704

> <r_i_glide_eff_state_penalty>
0

> <r_i_glide_einternal>
3.45192

> <r_i_glide_emodel>
-58.4098

> <r_i_glide_energy>
-44.1284

> <r_i_glide_erotb>
0.549664

> <r_i_glide_esite>
-0.0984654

> <r_i_glide_evdw>
-42.9914

> <r_i_glide_gscore>
-4.98361

> <r_i_glide_hbond>
0

> <r_i_glide_ligand_efficiency>
-0.155738

> <r_i_glide_ligand_efficiency_ln>
-1.11597

> <r_i_glide_ligand_efficiency_sa>
-0.494437

> <r_i_glide_lipo>
-2.3914

> <r_i_glide_metal>
0

> <r_i_glide_rewards>
-0.723287

> <s_i_glide_gridfile>
wee1_glide-grid

> <s_m_Source_File>
wee1_decoys_glide_SP.sdf

> <s_m_Source_Path>
/Users/zhangxujun/Desktop

> <s_m_entry_id>
2616

> <s_m_entry_name>
wee1_decoys_glide_SP.2341

> <s_m_subgroup_title>
wee1_decoys_glide_SP

> <s_m_subgroupid>
wee1_decoys_glide_SP


$$$$
