ZINC20478470_3792
                    3D
 Schrodinger Suite 2024-2.
 29 31  0  0  1  0            999 V2000
    1.9047   53.6969   26.9288 C   0  0  0  0  0  0
    1.7724   53.7177   28.3139 C   0  0  0  0  0  0
    0.8656   52.8647   28.9360 C   0  0  0  0  0  0
    0.0858   51.9916   28.1806 C   0  0  0  0  0  0
    0.2106   51.9754   26.7939 C   0  0  0  0  0  0
    1.1202   52.8288   26.1470 C   0  0  0  0  0  0
    1.2483   52.7879   24.6363 C   0  0  0  0  0  0
    0.3483   52.2994   23.9507 O   0  0  0  0  0  0
    2.3987   53.2827   24.1266 N   0  0  0  0  0  0
    2.9229   53.1307   22.8318 C   0  0  0  0  0  0
    2.6101   52.0444   21.9975 C   0  0  0  0  0  0
    3.2397   51.8454   20.7670 C   0  0  0  0  0  0
    4.1958   52.7922   20.3894 C   0  0  0  0  0  0
    4.5177   53.9082   21.1972 C   0  0  0  0  0  0
    3.8803   54.0678   22.4372 C   0  0  0  0  0  0
    5.5046   54.6127   20.4429 C   0  0  0  0  0  0
    5.7828   53.9998   19.3206 N   0  0  0  0  0  0
    5.0126   52.8968   19.2817 N   0  0  0  0  0  0
    5.1019   52.2253   18.5209 H   0  0  0  0  0  0
    0.7033   52.8967   30.8309 Br  0  0  0  0  0  0
    2.6178   54.3748   26.4825 H   0  0  0  0  0  0
    2.3755   54.3936   28.9008 H   0  0  0  0  0  0
   -0.6105   51.3242   28.6689 H   0  0  0  0  0  0
   -0.4017   51.2853   26.2279 H   0  0  0  0  0  0
    3.0039   53.7621   24.7703 H   0  0  0  0  0  0
    1.8919   51.3039   22.3167 H   0  0  0  0  0  0
    3.0057   50.9937   20.1442 H   0  0  0  0  0  0
    4.1369   54.8967   23.0766 H   0  0  0  0  0  0
    6.0086   55.5291   20.7072 H   0  0  0  0  0  0
  1  6  2  0  0  0
  1  2  1  0  0  0
  1 21  1  0  0  0
  2  3  2  0  0  0
  2 22  1  0  0  0
  3  4  1  0  0  0
  3 20  1  0  0  0
  4  5  2  0  0  0
  4 23  1  0  0  0
  5  6  1  0  0  0
  5 24  1  0  0  0
  6  7  1  0  0  0
  7  8  2  0  0  0
  7  9  1  0  0  0
  9 10  1  0  0  0
  9 25  1  0  0  0
 10 15  2  0  0  0
 10 11  1  0  0  0
 11 12  2  0  0  0
 11 26  1  0  0  0
 12 13  1  0  0  0
 12 27  1  0  0  0
 13 18  1  0  0  0
 13 14  2  0  0  0
 14 15  1  0  0  0
 14 16  1  0  0  0
 15 28  1  0  0  0
 16 17  2  0  0  0
 16 29  1  0  0  0
 17 18  1  0  0  0
 18 19  1  0  0  0
M  END
> <i_i_glide_confnum>
4

> <i_i_glide_lignum>
3793

> <i_i_glide_posenum>
312

> <i_i_glide_rotatable_bonds>
3

> <i_m_Source_File_Index>
1728

> <b_m_subgroup_collapsed>
0

> <r_i_docking_score>
-4.29493

> <r_i_glide_ecoul>
-3.10766

> <r_i_glide_eff_state_penalty>
0

> <r_i_glide_einternal>
3.55345

> <r_i_glide_emodel>
-40.3445

> <r_i_glide_energy>
-32.4963

> <r_i_glide_erotb>
0.558647

> <r_i_glide_esite>
-0.0838034

> <r_i_glide_evdw>
-29.3887

> <r_i_glide_gscore>
-4.29493

> <r_i_glide_hbond>
-0.138286

> <r_i_glide_ligand_efficiency>
-0.226049

> <r_i_glide_ligand_efficiency_ln>
-1.08886

> <r_i_glide_ligand_efficiency_sa>
-0.603189

> <r_i_glide_lipo>
-1.22259

> <r_i_glide_metal>
0

> <r_i_glide_rewards>
-1.47332

> <s_i_glide_gridfile>
wee1_glide-grid

> <s_m_Source_File>
wee1_decoys_glide_SP.sdf

> <s_m_Source_Path>
/Users/zhangxujun/Desktop

> <s_m_entry_id>
2003

> <s_m_entry_name>
wee1_decoys_glide_SP.1728

> <s_m_subgroup_title>
wee1_decoys_glide_SP

> <s_m_subgroupid>
wee1_decoys_glide_SP


$$$$
