ZINC13148798_5031
                    3D
 Schrodinger Suite 2024-2.
 62 65  0  0  1  0            999 V2000
    2.1460   48.9034   19.1260 C   0  0  0  0  0  0
    1.7321   50.1091   19.9862 C   0  0  2  0  0  0
    1.5028   49.7408   20.9865 H   0  0  0  0  0  0
    0.4990   50.8027   19.3789 C   0  0  0  0  0  0
    0.0625   52.0980   20.0823 C   0  0  0  0  0  0
    0.2476   52.0797   21.5426 N   0  0  0  0  0  0
    1.4280   52.6021   22.1354 C   0  0  0  0  0  0
    1.3535   53.4575   23.2511 C   0  0  0  0  0  0
    2.4734   54.0967   23.7720 C   0  0  0  0  0  0
    3.7116   53.9098   23.1758 C   0  0  0  0  0  0
    3.8260   53.0617   22.0815 C   0  0  0  0  0  0
    2.7153   52.3905   21.5617 C   0  0  0  0  0  0
    3.0867   51.2960   20.1976 S   0  0  0  0  0  0
   -0.7024   51.4078   22.2718 C   0  0  0  0  0  0
   -1.8119   51.1448   21.7951 O   0  0  0  0  0  0
   -0.4136   50.8420   23.6788 C   0  0  0  0  0  0
   -1.6765   51.3486   24.9048 S   0  0  0  0  0  0
   -0.6761   51.8912   26.2548 C   0  0  0  0  0  0
    0.4807   52.4898   26.1350 N   0  0  0  0  0  0
    0.9044   52.8320   27.4082 N   0  0  0  0  0  0
   -0.0020   52.4184   28.2610 C   0  0  0  0  0  0
   -1.0400   51.8262   27.5829 N   0  0  0  0  0  0
   -2.1936   51.2961   28.1172 N   0  0  0  0  0  0
    0.0438   52.5953   29.7875 C   0  0  0  0  0  0
    1.3144   52.2701   30.3737 O   0  0  0  0  0  0
    2.4273   52.9221   29.8972 C   0  0  0  0  0  0
    2.4484   54.3040   29.6817 C   0  0  0  0  0  0
    3.5358   54.8876   29.0447 C   0  0  0  0  0  0
    4.6069   54.0944   28.6132 C   0  0  0  0  0  0
    4.5970   52.7255   28.8827 C   0  0  0  0  0  0
    3.5213   52.1445   29.5375 C   0  0  0  0  0  0
    5.7511   54.7164   27.8133 C   0  0  0  0  0  0
    7.1043   53.9869   27.9428 C   0  0  0  0  0  0
    5.3658   54.8930   26.3356 C   0  0  0  0  0  0
    1.3729   48.1358   19.1292 H   0  0  0  0  0  0
    2.3062   49.1963   18.0860 H   0  0  0  0  0  0
    3.0662   48.4454   19.4894 H   0  0  0  0  0  0
   -0.3361   50.0989   19.3919 H   0  0  0  0  0  0
    0.6680   51.0331   18.3259 H   0  0  0  0  0  0
   -0.9643   52.3532   19.8179 H   0  0  0  0  0  0
    0.6733   52.9144   19.6958 H   0  0  0  0  0  0
    0.3940   53.6678   23.7013 H   0  0  0  0  0  0
    2.3754   54.7517   24.6241 H   0  0  0  0  0  0
    4.5835   54.4210   23.5578 H   0  0  0  0  0  0
    4.7981   52.9147   21.6325 H   0  0  0  0  0  0
    0.6013   51.0289   24.0206 H   0  0  0  0  0  0
   -0.4773   49.7568   23.5963 H   0  0  0  0  0  0
   -3.0092   51.5914   27.5981 H   0  0  0  0  0  0
   -2.1169   50.2795   28.1684 H   0  0  0  0  0  0
   -0.6714   51.9224   30.2670 H   0  0  0  0  0  0
   -0.2794   53.5880   30.1032 H   0  0  0  0  0  0
    1.6045   54.9174   29.9597 H   0  0  0  0  0  0
    3.5043   55.9494   28.8667 H   0  0  0  0  0  0
    5.4068   52.0967   28.5489 H   0  0  0  0  0  0
    3.5024   51.0771   29.6805 H   0  0  0  0  0  0
    5.9046   55.6965   28.2505 H   0  0  0  0  0  0
    7.3616   53.7979   28.9851 H   0  0  0  0  0  0
    7.9039   54.5918   27.5241 H   0  0  0  0  0  0
    7.1104   53.0327   27.4140 H   0  0  0  0  0  0
    4.4218   55.4254   26.2194 H   0  0  0  0  0  0
    6.1264   55.4555   25.7921 H   0  0  0  0  0  0
    5.2567   53.9240   25.8437 H   0  0  0  0  0  0
  1  2  1  0  0  0
  1 35  1  0  0  0
  1 36  1  0  0  0
  1 37  1  0  0  0
  2  3  1  0  0  0
  2 13  1  0  0  0
  2  4  1  0  0  0
  4  5  1  0  0  0
  4 38  1  0  0  0
  4 39  1  0  0  0
  5  6  1  0  0  0
  5 40  1  0  0  0
  5 41  1  0  0  0
  6  7  1  0  0  0
  6 14  1  0  0  0
  7 12  2  0  0  0
  7  8  1  0  0  0
  8  9  2  0  0  0
  8 42  1  0  0  0
  9 10  1  0  0  0
  9 43  1  0  0  0
 10 11  2  0  0  0
 10 44  1  0  0  0
 11 12  1  0  0  0
 11 45  1  0  0  0
 12 13  1  0  0  0
 14 15  2  0  0  0
 14 16  1  0  0  0
 16 17  1  0  0  0
 16 46  1  0  0  0
 16 47  1  0  0  0
 17 18  1  0  0  0
 18 22  1  0  0  0
 18 19  2  0  0  0
 19 20  1  0  0  0
 20 21  2  0  0  0
 21 22  1  0  0  0
 21 24  1  0  0  0
 22 23  1  0  0  0
 23 48  1  0  0  0
 23 49  1  0  0  0
 24 25  1  0  0  0
 24 50  1  0  0  0
 24 51  1  0  0  0
 25 26  1  0  0  0
 26 31  2  0  0  0
 26 27  1  0  0  0
 27 28  2  0  0  0
 27 52  1  0  0  0
 28 29  1  0  0  0
 28 53  1  0  0  0
 29 30  2  0  0  0
 29 32  1  0  0  0
 30 31  1  0  0  0
 30 54  1  0  0  0
 31 55  1  0  0  0
 32 33  1  0  0  0
 32 34  1  0  0  0
 32 56  1  0  0  0
 33 57  1  0  0  0
 33 58  1  0  0  0
 33 59  1  0  0  0
 34 60  1  0  0  0
 34 61  1  0  0  0
 34 62  1  0  0  0
M  END
> <i_i_glide_confnum>
204

> <i_i_glide_lignum>
5032

> <i_i_glide_posenum>
331

> <i_i_glide_rotatable_bonds>
8

> <i_m_Source_File_Index>
1052

> <b_m_subgroup_collapsed>
0

> <r_i_docking_score>
-5.05951

> <r_i_glide_ecoul>
-3.27559

> <r_i_glide_eff_state_penalty>
0

> <r_i_glide_einternal>
13.9556

> <r_i_glide_emodel>
-59.5018

> <r_i_glide_energy>
-51.3798

> <r_i_glide_erotb>
0.607545

> <r_i_glide_esite>
-0.168082

> <r_i_glide_evdw>
-48.1042

> <r_i_glide_gscore>
-5.05951

> <r_i_glide_hbond>
-0.16

> <r_i_glide_ligand_efficiency>
-0.153318

> <r_i_glide_ligand_efficiency_ln>
-1.12521

> <r_i_glide_ligand_efficiency_sa>
-0.491774

> <r_i_glide_lipo>
-2.88022

> <r_i_glide_metal>
0

> <r_i_glide_rewards>
0.437797

> <s_i_glide_gridfile>
wee1_glide-grid

> <s_m_Source_File>
wee1_decoys_glide_SP.sdf

> <s_m_Source_Path>
/Users/zhangxujun/Desktop

> <s_m_entry_id>
1327

> <s_m_entry_name>
wee1_decoys_glide_SP.1052

> <s_m_subgroup_title>
wee1_decoys_glide_SP

> <s_m_subgroupid>
wee1_decoys_glide_SP


$$$$
