ZINC63376149_655
                    3D
 Schrodinger Suite 2024-2.
 63 68  0  0  1  0            999 V2000
    1.9810   47.9378   19.9942 C   0  0  0  0  0  0
    1.8721   49.1962   20.8424 C   0  0  0  0  0  0
    0.7460   50.1505   20.3981 C   0  0  2  0  0  0
   -0.1170   49.5213   20.1727 H   0  0  0  0  0  0
    1.0747   50.9024   19.0880 C   0  0  0  0  0  0
    0.3696   51.0493   21.5068 N   0  0  0  0  0  0
    1.2152   51.9642   22.0497 C   0  0  0  0  0  0
    2.3712   52.2354   21.7229 O   0  0  0  0  0  0
    0.4682   52.6580   23.1663 C   0  0  2  0  0  0
    0.3047   53.6966   22.9150 H   0  0  0  0  0  0
    1.1536   52.5098   24.5305 C   0  0  2  0  0  0
    1.7997   51.6270   24.5345 H   0  0  0  0  0  0
    0.0427   52.2703   25.4402 N   0  0  0  0  0  0
   -0.9394   51.4348   24.7461 C   0  0  2  0  0  0
   -0.8540   51.9621   23.2715 C   0  0  2  0  0  0
   -1.6511   52.6799   23.0712 H   0  0  0  0  0  0
   -0.8365   50.9552   22.1249 C   0  0  0  0  0  0
   -1.7824   50.2237   21.8327 O   0  0  0  0  0  0
   -2.3103   51.4763   25.3595 C   0  0  0  0  0  0
   -3.2452   52.5105   25.4597 C   0  0  0  0  0  0
   -4.4636   52.2855   26.1128 C   0  0  0  0  0  0
   -4.7309   51.0285   26.6717 C   0  0  0  0  0  0
   -3.7931   49.9981   26.5724 C   0  0  0  0  0  0
   -2.5961   50.2389   25.9010 C   0  0  0  0  0  0
   -1.5349   49.3788   25.6817 N   0  0  0  0  0  0
   -0.5355   49.9401   24.9848 C   0  0  0  0  0  0
    0.5157   49.3982   24.6412 O   0  0  0  0  0  0
   -5.4924   53.3949   26.2255 C   0  0  0  0  0  0
    2.0262   53.7323   24.8546 C   0  0  0  0  0  0
    2.8345   53.6966   26.1420 C   0  0  0  0  0  0
    4.1297   53.9939   26.3553 C   0  0  0  0  0  0
    5.1814   54.4286   25.4223 C   0  0  0  0  0  0
    6.4334   54.6687   25.8584 C   0  0  0  0  0  0
    6.7042   54.4966   27.2800 C   0  0  0  0  0  0
    5.7439   54.1005   28.1546 C   0  0  0  0  0  0
    4.4443   53.8404   27.7083 C   0  0  0  0  0  0
    3.3920   53.4527   28.3859 N   0  3  0  0  0  0
    2.2405   53.3036   27.4809 C   0  0  0  0  0  0
    2.7044   47.2967   20.4811 H   0  0  0  0  0  0
    1.0357   47.3965   19.9367 H   0  0  0  0  0  0
    2.3349   48.1465   18.9827 H   0  0  0  0  0  0
    2.8330   49.7136   20.8512 H   0  0  0  0  0  0
    1.7008   48.8861   21.8755 H   0  0  0  0  0  0
    1.3246   50.2032   18.2898 H   0  0  0  0  0  0
    0.2293   51.4961   18.7411 H   0  0  0  0  0  0
    1.9429   51.5534   19.1934 H   0  0  0  0  0  0
    0.3281   51.8257   26.3011 H   0  0  0  0  0  0
   -3.0321   53.4800   25.0346 H   0  0  0  0  0  0
   -5.6656   50.8487   27.1853 H   0  0  0  0  0  0
   -3.9979   49.0347   27.0174 H   0  0  0  0  0  0
   -1.4384   48.4870   26.1511 H   0  0  0  0  0  0
   -6.4309   53.0822   25.7625 H   0  0  0  0  0  0
   -5.1619   54.3173   25.7432 H   0  0  0  0  0  0
   -5.7015   53.6087   27.2745 H   0  0  0  0  0  0
    2.7112   53.9097   24.0248 H   0  0  0  0  0  0
    1.3698   54.5950   24.8812 H   0  0  0  0  0  0
    4.9849   54.5506   24.3660 H   0  0  0  0  0  0
    7.2077   54.9682   25.1654 H   0  0  0  0  0  0
    7.6924   54.7065   27.6660 H   0  0  0  0  0  0
    6.0084   54.0108   29.1980 H   0  0  0  0  0  0
    1.4437   53.9673   27.8214 H   0  0  0  0  0  0
    1.9157   52.2636   27.5302 H   0  0  0  0  0  0
    3.3654   53.2706   29.3851 H   0  0  0  0  0  0
  1  2  1  0  0  0
  1 39  1  0  0  0
  1 40  1  0  0  0
  1 41  1  0  0  0
  2  3  1  0  0  0
  2 42  1  0  0  0
  2 43  1  0  0  0
  3  4  1  0  0  0
  3  5  1  0  0  0
  3  6  1  0  0  0
  5 44  1  0  0  0
  5 45  1  0  0  0
  5 46  1  0  0  0
  6 17  1  0  0  0
  6  7  1  0  0  0
  7  8  2  0  0  0
  7  9  1  0  0  0
  9 10  1  0  0  0
  9 15  1  0  0  0
  9 11  1  0  0  0
 11 12  1  0  0  0
 11 13  1  0  0  0
 11 29  1  0  0  0
 13 14  1  0  0  0
 13 47  1  0  0  0
 14 26  1  0  0  0
 14 15  1  0  0  0
 14 19  1  0  0  0
 15 16  1  0  0  0
 15 17  1  0  0  0
 17 18  2  0  0  0
 19 24  2  0  0  0
 19 20  1  0  0  0
 20 21  2  0  0  0
 20 48  1  0  0  0
 21 22  1  0  0  0
 21 28  1  0  0  0
 22 23  2  0  0  0
 22 49  1  0  0  0
 23 24  1  0  0  0
 23 50  1  0  0  0
 24 25  1  0  0  0
 25 26  1  0  0  0
 25 51  1  0  0  0
 26 27  2  0  0  0
 28 52  1  0  0  0
 28 53  1  0  0  0
 28 54  1  0  0  0
 29 30  1  0  0  0
 29 55  1  0  0  0
 29 56  1  0  0  0
 30 38  1  0  0  0
 30 31  2  0  0  0
 31 36  1  0  0  0
 31 32  1  0  0  0
 32 33  2  0  0  0
 32 57  1  0  0  0
 33 34  1  0  0  0
 33 58  1  0  0  0
 34 35  2  0  0  0
 34 59  1  0  0  0
 35 36  1  0  0  0
 35 60  1  0  0  0
 36 37  2  0  0  0
 37 38  1  0  0  0
 37 63  1  0  0  0
 38 61  1  0  0  0
 38 62  1  0  0  0
M  CHG  1  37   1
M  END
> <i_i_glide_confnum>
16

> <i_i_glide_lignum>
656

> <i_i_glide_posenum>
203

> <i_i_glide_rotatable_bonds>
4

> <i_m_Source_File_Index>
2192

> <b_m_subgroup_collapsed>
0

> <r_i_docking_score>
-4.80869

> <r_i_glide_ecoul>
1.38487

> <r_i_glide_eff_state_penalty>
0

> <r_i_glide_einternal>
2.49811

> <r_i_glide_emodel>
-49.7222

> <r_i_glide_energy>
-38.0822

> <r_i_glide_erotb>
0.288121

> <r_i_glide_esite>
-0.128134

> <r_i_glide_evdw>
-39.467

> <r_i_glide_gscore>
-4.80869

> <r_i_glide_hbond>
-0.0358586

> <r_i_glide_ligand_efficiency>
-0.141432

> <r_i_glide_ligand_efficiency_ln>
-1.06237

> <r_i_glide_ligand_efficiency_sa>
-0.458185

> <r_i_glide_lipo>
-2.71539

> <r_i_glide_metal>
0

> <r_i_glide_rewards>
-0.451809

> <s_i_glide_gridfile>
wee1_glide-grid

> <s_m_Source_File>
wee1_decoys_glide_SP.sdf

> <s_m_Source_Path>
/Users/zhangxujun/Desktop

> <s_m_entry_id>
2467

> <s_m_entry_name>
wee1_decoys_glide_SP.2192

> <s_m_subgroup_title>
wee1_decoys_glide_SP

> <s_m_subgroupid>
wee1_decoys_glide_SP


$$$$
