ZINC22822589_5197
                    3D
 Schrodinger Suite 2024-2.
 58 63  0  0  1  0            999 V2000
    1.2875   48.6744   17.9679 C   0  0  0  0  0  0
    1.0692   50.1761   17.9579 C   0  0  0  0  0  0
   -0.1852   50.7186   17.6681 C   0  0  0  0  0  0
   -0.3628   52.1019   17.6607 C   0  0  0  0  0  0
    0.7123   52.9452   17.9437 C   0  0  0  0  0  0
    1.9741   52.4156   18.2377 C   0  0  0  0  0  0
    2.1376   51.0262   18.2483 C   0  0  0  0  0  0
    3.1486   53.3426   18.5626 C   0  0  1  0  0  0
    2.7856   54.3674   18.4805 H   0  0  0  0  0  0
    3.6499   53.0738   20.0067 C   0  0  0  0  0  0
    4.9120   53.8756   20.2707 C   0  0  0  0  0  0
    5.7975   54.2796   19.3348 C   0  0  0  0  0  0
    7.0546   55.1041   19.7457 C   0  0  2  0  0  0
    7.9153   54.4927   19.4665 H   0  0  0  0  0  0
    7.1815   55.3767   21.1968 N   0  0  0  0  0  0
    6.3406   54.8964   22.0313 C   0  0  0  0  0  0
    5.1692   54.2156   21.5925 N   0  0  0  0  0  0
    6.6544   55.0280   23.4188 N   0  0  0  0  0  0
    5.8970   54.6977   24.5346 C   0  0  0  0  0  0
    6.3731   54.8105   25.7447 N   0  0  0  0  0  0
    5.4429   54.4750   26.6841 C   0  0  0  0  0  0
    5.6479   54.4968   28.0701 C   0  0  0  0  0  0
    4.5817   54.1621   28.9080 C   0  0  0  0  0  0
    3.3415   53.7951   28.3929 C   0  0  0  0  0  0
    3.1116   53.7465   27.0215 C   0  0  0  0  0  0
    4.1716   54.0984   26.1749 C   0  0  0  0  0  0
    4.2175   54.1592   24.4314 S   0  0  0  0  0  0
    7.2598   56.4148   18.9814 C   0  0  0  0  0  0
    8.5538   56.9006   18.7579 C   0  0  0  0  0  0
    8.7523   58.0743   18.0267 C   0  0  0  0  0  0
    7.6598   58.7526   17.4875 C   0  0  0  0  0  0
    6.3696   58.2685   17.6955 C   0  0  0  0  0  0
    6.1698   57.1230   18.4597 C   0  0  0  0  0  0
    5.3074   58.8960   17.1415 F   0  0  0  0  0  0
   10.0048   58.5526   17.8392 F   0  0  0  0  0  0
    5.6089   53.8883   17.9218 C   0  0  0  0  0  0
    6.5113   54.0183   17.0962 O   0  0  0  0  0  0
    4.3060   53.1528   17.5418 C   0  0  0  0  0  0
    0.3505   48.1272   18.0876 H   0  0  0  0  0  0
    1.9328   48.3938   18.8032 H   0  0  0  0  0  0
    1.7822   48.3584   17.0469 H   0  0  0  0  0  0
   -1.0210   50.0713   17.4448 H   0  0  0  0  0  0
   -1.3296   52.5204   17.4310 H   0  0  0  0  0  0
    0.5627   54.0156   17.9395 H   0  0  0  0  0  0
    3.1039   50.5939   18.4691 H   0  0  0  0  0  0
    2.8587   53.2984   20.7250 H   0  0  0  0  0  0
    3.9344   52.0330   20.1475 H   0  0  0  0  0  0
    4.5869   53.8452   22.3294 H   0  0  0  0  0  0
    7.5814   55.3875   23.5983 H   0  0  0  0  0  0
    6.6026   54.7839   28.4813 H   0  0  0  0  0  0
    4.7048   54.1970   29.9806 H   0  0  0  0  0  0
    2.5428   53.5363   29.0721 H   0  0  0  0  0  0
    2.1489   53.4558   26.6264 H   0  0  0  0  0  0
    9.4110   56.3769   19.1590 H   0  0  0  0  0  0
    7.8024   59.6540   16.9097 H   0  0  0  0  0  0
    5.1591   56.7716   18.6086 H   0  0  0  0  0  0
    4.5455   52.0976   17.4629 H   0  0  0  0  0  0
    4.0106   53.4856   16.5462 H   0  0  0  0  0  0
  1  2  1  0  0  0
  1 39  1  0  0  0
  1 40  1  0  0  0
  1 41  1  0  0  0
  2  7  2  0  0  0
  2  3  1  0  0  0
  3  4  2  0  0  0
  3 42  1  0  0  0
  4  5  1  0  0  0
  4 43  1  0  0  0
  5  6  2  0  0  0
  5 44  1  0  0  0
  6  7  1  0  0  0
  6  8  1  0  0  0
  7 45  1  0  0  0
  8  9  1  0  0  0
  8 38  1  0  0  0
  8 10  1  0  0  0
 10 11  1  0  0  0
 10 46  1  0  0  0
 10 47  1  0  0  0
 11 17  1  0  0  0
 11 12  2  0  0  0
 12 13  1  0  0  0
 12 36  1  0  0  0
 13 14  1  0  0  0
 13 15  1  0  0  0
 13 28  1  0  0  0
 15 16  2  0  0  0
 16 17  1  0  0  0
 16 18  1  0  0  0
 17 48  1  0  0  0
 18 19  1  0  0  0
 18 49  1  0  0  0
 19 27  1  0  0  0
 19 20  2  0  0  0
 20 21  1  0  0  0
 21 26  2  0  0  0
 21 22  1  0  0  0
 22 23  2  0  0  0
 22 50  1  0  0  0
 23 24  1  0  0  0
 23 51  1  0  0  0
 24 25  2  0  0  0
 24 52  1  0  0  0
 25 26  1  0  0  0
 25 53  1  0  0  0
 26 27  1  0  0  0
 28 33  2  0  0  0
 28 29  1  0  0  0
 29 30  2  0  0  0
 29 54  1  0  0  0
 30 31  1  0  0  0
 30 35  1  0  0  0
 31 32  2  0  0  0
 31 55  1  0  0  0
 32 33  1  0  0  0
 32 34  1  0  0  0
 33 56  1  0  0  0
 36 37  2  0  0  0
 36 38  1  0  0  0
 38 57  1  0  0  0
 38 58  1  0  0  0
M  END
> <i_i_glide_confnum>
24

> <i_i_glide_lignum>
5198

> <i_i_glide_posenum>
143

> <i_i_glide_rotatable_bonds>
4

> <i_m_Source_File_Index>
2741

> <b_m_subgroup_collapsed>
0

> <r_i_docking_score>
-6.3645

> <r_i_glide_ecoul>
-4.669

> <r_i_glide_eff_state_penalty>
0

> <r_i_glide_einternal>
4.80358

> <r_i_glide_emodel>
-65.0111

> <r_i_glide_energy>
-48.9604

> <r_i_glide_erotb>
0.325993

> <r_i_glide_esite>
-0.13245

> <r_i_glide_evdw>
-44.2914

> <r_i_glide_gscore>
-6.3645

> <r_i_glide_hbond>
-0.26963

> <r_i_glide_ligand_efficiency>
-0.176792

> <r_i_glide_ligand_efficiency_ln>
-1.38856

> <r_i_glide_ligand_efficiency_sa>
-0.583753

> <r_i_glide_lipo>
-2.5285

> <r_i_glide_metal>
0

> <r_i_glide_rewards>
-0.845

> <s_i_glide_gridfile>
wee1_glide-grid

> <s_m_Source_File>
wee1_decoys_glide_SP.sdf

> <s_m_Source_Path>
/Users/zhangxujun/Desktop

> <s_m_entry_id>
3016

> <s_m_entry_name>
wee1_decoys_glide_SP.2741

> <s_m_subgroup_title>
wee1_decoys_glide_SP

> <s_m_subgroupid>
wee1_decoys_glide_SP


$$$$
