ZINC14971492_3048
                    3D
 Schrodinger Suite 2024-2.
 72 76  0  0  1  0            999 V2000
   -4.7155   53.9621   24.8817 C   0  0  0  0  0  0
   -3.5400   53.2315   24.7316 C   0  0  0  0  0  0
   -3.3506   52.0655   25.4688 C   0  0  0  0  0  0
   -4.3412   51.6251   26.3551 C   0  0  0  0  0  0
   -5.5231   52.3606   26.4876 C   0  0  0  0  0  0
   -5.7093   53.5310   25.7579 C   0  0  0  0  0  0
   -4.1874   50.3305   27.1597 C   0  0  0  0  0  0
   -3.2956   49.2986   26.6209 N   0  0  0  0  0  0
   -3.4538   48.6473   25.4613 C   0  0  0  0  0  0
   -4.3947   48.8406   24.6941 O   0  0  0  0  0  0
   -2.3679   47.6287   25.0933 C   0  0  0  0  0  0
   -1.4007   48.2282   24.0794 C   0  0  0  0  0  0
   -1.7952   48.4033   22.7512 C   0  0  0  0  0  0
   -0.9501   49.0417   21.8510 C   0  0  0  0  0  0
    0.3051   49.5087   22.2645 C   0  0  0  0  0  0
    0.7044   49.2985   23.5899 C   0  0  0  0  0  0
   -0.1408   48.6645   24.4930 C   0  0  0  0  0  0
    1.1376   50.2265   21.4183 N   0  0  0  0  0  0
    2.4753   49.7078   21.0791 C   0  0  0  0  0  0
    3.4835   50.8527   20.8468 C   0  0  0  0  0  0
    2.9461   51.9447   19.8990 C   0  0  0  0  0  0
    1.4493   52.2627   20.0518 C   0  0  0  0  0  0
    0.6055   50.9972   20.2803 C   0  0  0  0  0  0
    3.7567   53.9307   21.3955 C   0  0  0  0  0  0
    5.1765   54.3458   21.7949 C   0  0  0  0  0  0
    5.4957   54.1511   23.2921 C   0  0  1  0  0  0
    5.7189   53.0930   23.4470 H   0  0  0  0  0  0
    6.7225   54.9789   23.7408 C   0  0  0  0  0  0
    7.1036   54.6509   25.0827 O   0  0  0  0  0  0
    6.0302   54.5464   25.9484 C   0  0  0  0  0  0
    6.3001   54.4928   27.3141 C   0  0  0  0  0  0
    5.2524   54.3243   28.2204 C   0  0  0  0  0  0
    3.9378   54.1985   27.7624 C   0  0  0  0  0  0
    3.6638   54.2495   26.3920 C   0  0  0  0  0  0
    4.7088   54.4200   25.4862 C   0  0  0  0  0  0
    4.3951   54.4964   24.1407 O   0  0  0  0  0  0
   -4.8602   54.8650   24.3047 H   0  0  0  0  0  0
   -2.7779   53.5673   24.0444 H   0  0  0  0  0  0
   -2.4387   51.5021   25.3420 H   0  0  0  0  0  0
   -6.3040   52.0227   27.1571 H   0  0  0  0  0  0
   -6.6265   54.0946   25.8627 H   0  0  0  0  0  0
   -3.8226   50.6002   28.1525 H   0  0  0  0  0  0
   -5.1662   49.8748   27.3175 H   0  0  0  0  0  0
   -2.5666   48.9638   27.2569 H   0  0  0  0  0  0
   -1.8319   47.3123   25.9901 H   0  0  0  0  0  0
   -2.8475   46.7436   24.6791 H   0  0  0  0  0  0
   -2.7743   48.0764   22.4247 H   0  0  0  0  0  0
   -1.2841   49.1836   20.8348 H   0  0  0  0  0  0
    1.6670   49.6552   23.9339 H   0  0  0  0  0  0
    0.1694   48.5372   25.5232 H   0  0  0  0  0  0
    2.8426   49.0923   21.9034 H   0  0  0  0  0  0
    2.4163   49.0507   20.2066 H   0  0  0  0  0  0
    3.7171   51.2406   21.8352 H   0  0  0  0  0  0
    4.4452   50.4966   20.4856 H   0  0  0  0  0  0
    3.0663   51.5401   18.8874 H   0  0  0  0  0  0
    1.0940   52.8723   19.2188 H   0  0  0  0  0  0
    1.2752   52.8968   20.9198 H   0  0  0  0  0  0
    0.5733   50.3680   19.3865 H   0  0  0  0  0  0
   -0.4165   51.3165   20.4925 H   0  0  0  0  0  0
    3.1065   54.7940   21.2823 H   0  0  0  0  0  0
    3.2976   53.2520   22.1122 H   0  0  0  0  0  0
    5.9037   53.7867   21.2106 H   0  0  0  0  0  0
    5.3259   55.3893   21.5130 H   0  0  0  0  0  0
    7.5412   54.7677   23.0641 H   0  0  0  0  0  0
    6.5034   56.0440   23.6798 H   0  0  0  0  0  0
    7.3144   54.5766   27.6739 H   0  0  0  0  0  0
    5.4623   54.2902   29.2803 H   0  0  0  0  0  0
    3.1310   54.0672   28.4667 H   0  0  0  0  0  0
    2.6487   54.1551   26.0372 H   0  0  0  0  0  0
    3.7851   53.2338   20.0146 N   0  3  0  0  0  0
    4.7382   52.9953   19.7812 H   0  0  0  0  0  0
    3.4593   53.8928   19.3213 H   0  0  0  0  0  0
  1  6  2  0  0  0
  1  2  1  0  0  0
  1 37  1  0  0  0
  2  3  2  0  0  0
  2 38  1  0  0  0
  3  4  1  0  0  0
  3 39  1  0  0  0
  4  5  2  0  0  0
  4  7  1  0  0  0
  5  6  1  0  0  0
  5 40  1  0  0  0
  6 41  1  0  0  0
  7  8  1  0  0  0
  7 42  1  0  0  0
  7 43  1  0  0  0
  8  9  1  0  0  0
  8 44  1  0  0  0
  9 10  2  0  0  0
  9 11  1  0  0  0
 11 12  1  0  0  0
 11 45  1  0  0  0
 11 46  1  0  0  0
 12 17  2  0  0  0
 12 13  1  0  0  0
 13 14  2  0  0  0
 13 47  1  0  0  0
 14 15  1  0  0  0
 14 48  1  0  0  0
 15 16  2  0  0  0
 15 18  1  0  0  0
 16 17  1  0  0  0
 16 49  1  0  0  0
 17 50  1  0  0  0
 18 23  1  0  0  0
 18 19  1  0  0  0
 19 20  1  0  0  0
 19 51  1  0  0  0
 19 52  1  0  0  0
 20 21  1  0  0  0
 20 53  1  0  0  0
 20 54  1  0  0  0
 21 22  1  0  0  0
 21 55  1  0  0  0
 21 70  1  0  0  0
 22 23  1  0  0  0
 22 56  1  0  0  0
 22 57  1  0  0  0
 23 58  1  0  0  0
 23 59  1  0  0  0
 24 25  1  0  0  0
 24 60  1  0  0  0
 24 61  1  0  0  0
 24 70  1  0  0  0
 25 26  1  0  0  0
 25 62  1  0  0  0
 25 63  1  0  0  0
 26 27  1  0  0  0
 26 36  1  0  0  0
 26 28  1  0  0  0
 28 29  1  0  0  0
 28 64  1  0  0  0
 28 65  1  0  0  0
 29 30  1  0  0  0
 30 35  2  0  0  0
 30 31  1  0  0  0
 31 32  2  0  0  0
 31 66  1  0  0  0
 32 33  1  0  0  0
 32 67  1  0  0  0
 33 34  2  0  0  0
 33 68  1  0  0  0
 34 35  1  0  0  0
 34 69  1  0  0  0
 35 36  1  0  0  0
 70 71  1  0  0  0
 70 72  1  0  0  0
M  CHG  1  70   1
M  END
> <i_i_glide_confnum>
16

> <i_i_glide_lignum>
3049

> <i_i_glide_posenum>
166

> <i_i_glide_rotatable_bonds>
10

> <i_m_Source_File_Index>
4857

> <b_m_subgroup_collapsed>
0

> <r_i_docking_score>
-6.03435

> <r_i_glide_ecoul>
-6.28724

> <r_i_glide_eff_state_penalty>
0

> <r_i_glide_einternal>
9.23156

> <r_i_glide_emodel>
-65.8945

> <r_i_glide_energy>
-48.3048

> <r_i_glide_erotb>
0.686595

> <r_i_glide_esite>
-0.156184

> <r_i_glide_evdw>
-42.0175

> <r_i_glide_gscore>
-6.03435

> <r_i_glide_hbond>
-0.355021

> <r_i_glide_ligand_efficiency>
-0.167621

> <r_i_glide_ligand_efficiency_ln>
-1.31653

> <r_i_glide_ligand_efficiency_sa>
-0.553472

> <r_i_glide_lipo>
-2.80832

> <r_i_glide_metal>
0

> <r_i_glide_rewards>
-0.357452

> <s_i_glide_gridfile>
wee1_glide-grid

> <s_m_Source_File>
wee1_decoys_glide_SP.sdf

> <s_m_Source_Path>
/Users/zhangxujun/Desktop

> <s_m_entry_id>
5132

> <s_m_entry_name>
wee1_decoys_glide_SP.4857

> <s_m_subgroup_title>
wee1_decoys_glide_SP

> <s_m_subgroupid>
wee1_decoys_glide_SP


$$$$
