ZINC39361905_3137
                    3D
 Schrodinger Suite 2024-2.
 58 61  0  0  1  0            999 V2000
    2.8905   52.1455   16.9933 C   0  0  0  0  0  0
    1.9038   51.1475   17.6185 C   0  0  0  0  0  0
    2.1124   50.8773   19.0969 C   0  0  0  0  0  0
    3.0998   51.3434   19.8322 N   0  0  0  0  0  0
    3.0398   50.9552   21.1653 N   0  0  0  0  0  0
    1.9920   50.2161   21.4225 C   0  0  0  0  0  0
    1.0214   49.8786   20.0107 S   0  0  0  0  0  0
    1.6847   49.8269   22.7165 N   0  0  0  0  0  0
    0.5239   49.2963   23.1535 C   0  0  0  0  0  0
   -0.3896   48.8951   22.4351 O   0  0  0  0  0  0
    0.3362   49.2360   24.6689 C   0  0  0  0  0  0
   -1.0548   50.2733   25.2223 S   0  0  0  0  0  0
   -0.4752   52.0067   25.0954 C   0  0  2  0  0  0
   -1.3095   52.6383   25.3915 H   0  0  0  0  0  0
   -0.2469   52.3504   23.7226 N   0  0  0  0  0  0
    0.9297   52.7378   23.5577 N   0  0  0  0  0  0
    1.6326   52.7430   24.8058 C   0  0  2  0  0  0
    2.4014   51.9777   24.7381 H   0  0  0  0  0  0
    0.7071   52.3593   25.8762 N   0  0  0  0  0  0
    0.9717   52.3117   27.2745 C   0  0  0  0  0  0
    2.3043   52.4968   27.6899 C   0  0  0  0  0  0
    2.6825   52.5354   29.0311 C   0  0  0  0  0  0
    1.7142   52.3740   30.0128 C   0  0  0  0  0  0
    0.3936   52.1495   29.6462 C   0  0  0  0  0  0
    0.0054   52.1095   28.3008 C   0  0  0  0  0  0
   -1.4757   51.8530   28.0646 C   0  0  0  0  0  0
    4.1365   52.7314   29.4143 C   0  0  0  0  0  0
    2.3021   54.1303   24.9700 C   0  0  0  0  0  0
    3.7434   54.2174   24.4897 C   0  0  0  0  0  0
    4.6739   54.4724   25.4690 N   0  0  0  0  0  0
    6.0024   54.6340   25.2106 C   0  0  0  0  0  0
    6.8282   54.8950   26.0801 O   0  0  0  0  0  0
    6.3239   54.5144   23.8852 N   0  0  0  0  0  0
    5.5058   54.3145   22.8132 C   0  0  0  0  0  0
    5.8996   54.4246   21.6576 O   0  0  0  0  0  0
    4.1212   54.0984   23.1940 C   0  0  0  0  0  0
    2.8720   53.1062   17.5116 H   0  0  0  0  0  0
    3.9045   51.7568   17.0406 H   0  0  0  0  0  0
    2.6555   52.3279   15.9446 H   0  0  0  0  0  0
    0.8933   51.5231   17.4615 H   0  0  0  0  0  0
    1.9588   50.2103   17.0632 H   0  0  0  0  0  0
    2.3658   50.0708   23.4183 H   0  0  0  0  0  0
    0.1222   48.2062   24.9490 H   0  0  0  0  0  0
    1.2377   49.5151   25.2095 H   0  0  0  0  0  0
    3.0910   52.5928   26.9591 H   0  0  0  0  0  0
    1.9815   52.4008   31.0601 H   0  0  0  0  0  0
   -0.3373   51.9970   30.4286 H   0  0  0  0  0  0
   -1.6523   50.8036   27.8351 H   0  0  0  0  0  0
   -2.0620   52.0785   28.9548 H   0  0  0  0  0  0
   -1.8972   52.4777   27.2821 H   0  0  0  0  0  0
    4.3136   53.7657   29.7098 H   0  0  0  0  0  0
    4.4046   52.0848   30.2517 H   0  0  0  0  0  0
    4.8097   52.4783   28.5921 H   0  0  0  0  0  0
    1.7315   54.8960   24.4374 H   0  0  0  0  0  0
    2.2539   54.4659   26.0030 H   0  0  0  0  0  0
    7.2955   54.6750   23.6677 H   0  0  0  0  0  0
    3.3944   53.9062   22.4155 H   0  0  0  0  0  0
    4.4085   54.5653   26.4394 H   0  0  0  0  0  0
  1  2  1  0  0  0
  1 37  1  0  0  0
  1 38  1  0  0  0
  1 39  1  0  0  0
  2  3  1  0  0  0
  2 40  1  0  0  0
  2 41  1  0  0  0
  3  7  1  0  0  0
  3  4  2  0  0  0
  4  5  1  0  0  0
  5  6  2  0  0  0
  6  7  1  0  0  0
  6  8  1  0  0  0
  8  9  1  0  0  0
  8 42  1  0  0  0
  9 10  2  0  0  0
  9 11  1  0  0  0
 11 12  1  0  0  0
 11 43  1  0  0  0
 11 44  1  0  0  0
 12 13  1  0  0  0
 13 14  1  0  0  0
 13 19  1  0  0  0
 13 15  1  0  0  0
 15 16  2  0  0  0
 16 17  1  0  0  0
 17 18  1  0  0  0
 17 19  1  0  0  0
 17 28  1  0  0  0
 19 20  1  0  0  0
 20 25  2  0  0  0
 20 21  1  0  0  0
 21 22  2  0  0  0
 21 45  1  0  0  0
 22 23  1  0  0  0
 22 27  1  0  0  0
 23 24  2  0  0  0
 23 46  1  0  0  0
 24 25  1  0  0  0
 24 47  1  0  0  0
 25 26  1  0  0  0
 26 48  1  0  0  0
 26 49  1  0  0  0
 26 50  1  0  0  0
 27 51  1  0  0  0
 27 52  1  0  0  0
 27 53  1  0  0  0
 28 54  1  0  0  0
 28 55  1  0  0  0
 28 29  1  0  0  0
 29 36  2  0  0  0
 29 30  1  0  0  0
 30 31  1  0  0  0
 30 58  1  0  0  0
 31 32  2  0  0  0
 31 33  1  0  0  0
 33 56  1  0  0  0
 33 34  1  0  0  0
 34 35  2  0  0  0
 34 36  1  0  0  0
 36 57  1  0  0  0
M  END
> <i_i_glide_confnum>
165

> <i_i_glide_lignum>
3138

> <i_i_glide_posenum>
339

> <i_i_glide_rotatable_bonds>
9

> <i_m_Source_File_Index>
2443

> <b_m_subgroup_collapsed>
0

> <r_i_docking_score>
-6.45242

> <r_i_glide_ecoul>
-4.90462

> <r_i_glide_eff_state_penalty>
0

> <r_i_glide_einternal>
8.47724

> <r_i_glide_emodel>
-71.2199

> <r_i_glide_energy>
-54.9628

> <r_i_glide_erotb>
0.45633

> <r_i_glide_esite>
-0.0683059

> <r_i_glide_evdw>
-50.0581

> <r_i_glide_gscore>
-6.45242

> <r_i_glide_hbond>
-0.336871

> <r_i_glide_ligand_efficiency>
-0.189777

> <r_i_glide_ligand_efficiency_ln>
-1.42552

> <r_i_glide_ligand_efficiency_sa>
-0.614804

> <r_i_glide_lipo>
-1.63177

> <r_i_glide_metal>
0

> <r_i_glide_rewards>
-1.63321

> <s_i_glide_gridfile>
wee1_glide-grid

> <s_m_Source_File>
wee1_decoys_glide_SP.sdf

> <s_m_Source_Path>
/Users/zhangxujun/Desktop

> <s_m_entry_id>
2718

> <s_m_entry_name>
wee1_decoys_glide_SP.2443

> <s_m_subgroup_title>
wee1_decoys_glide_SP

> <s_m_subgroupid>
wee1_decoys_glide_SP


$$$$
