ZINC40381431_4686
                    3D
 Schrodinger Suite 2024-2.
 36 38  0  0  1  0            999 V2000
    5.4867   54.0960   23.0807 C   0  0  0  0  0  0
    5.1129   54.1258   24.4261 C   0  0  0  0  0  0
    3.7608   54.1325   24.7870 C   0  0  0  0  0  0
    2.7813   54.1564   23.7770 C   0  0  0  0  0  0
    3.1602   54.0983   22.4382 C   0  0  0  0  0  0
    4.5095   54.0713   22.0803 C   0  0  0  0  0  0
    4.9810   53.9449   20.3529 S   0  0  0  0  0  0
    3.9045   54.4705   19.5176 O   0  0  0  0  0  0
    6.3290   54.4971   20.2177 O   0  0  0  0  0  0
    5.0434   52.2222   20.0818 N   0  0  0  0  0  0
    1.4628   54.2503   24.0678 F   0  0  0  0  0  0
    3.4510   54.1829   26.1594 N   0  0  0  0  0  0
    2.5412   53.4066   26.7858 C   0  0  0  0  0  0
    1.8925   52.5325   26.2081 O   0  0  0  0  0  0
    2.4176   53.5803   28.3213 C   0  0  1  0  0  0
    3.3917   53.8924   28.7022 H   0  0  0  0  0  0
    1.2581   54.5472   28.7151 C   0  0  0  0  0  0
    0.3350   53.6556   29.5961 C   0  0  1  0  0  0
   -0.6860   54.0139   29.7236 H   0  0  0  0  0  0
    0.4474   52.2899   28.9429 C   0  0  0  0  0  0
    1.9740   52.2628   29.0351 C   0  0  2  0  0  0
    2.4239   51.3387   28.6678 H   0  0  0  0  0  0
    2.0915   52.4965   30.5399 C   0  0  0  0  0  0
    1.0771   53.3189   30.8813 C   0  0  0  0  0  0
    6.5354   54.0713   22.8188 H   0  0  0  0  0  0
    5.8823   54.1277   25.1853 H   0  0  0  0  0  0
    2.3896   54.0927   21.6824 H   0  0  0  0  0  0
    4.1001   51.8336   20.0156 H   0  0  0  0  0  0
    5.5052   51.9581   19.1986 H   0  0  0  0  0  0
    4.0109   54.8000   26.7247 H   0  0  0  0  0  0
    0.7042   54.9145   27.8502 H   0  0  0  0  0  0
    1.6188   55.4176   29.2667 H   0  0  0  0  0  0
    0.0584   52.2742   27.9235 H   0  0  0  0  0  0
   -0.0511   51.4832   29.4906 H   0  0  0  0  0  0
    2.8571   52.0767   31.1756 H   0  0  0  0  0  0
    0.8159   53.7108   31.8541 H   0  0  0  0  0  0
  1  6  2  0  0  0
  1  2  1  0  0  0
  1 25  1  0  0  0
  2  3  2  0  0  0
  2 26  1  0  0  0
  3  4  1  0  0  0
  3 12  1  0  0  0
  4  5  2  0  0  0
  4 11  1  0  0  0
  5  6  1  0  0  0
  5 27  1  0  0  0
  6  7  1  0  0  0
  7  8  2  0  0  0
  7  9  2  0  0  0
  7 10  1  0  0  0
 10 28  1  0  0  0
 10 29  1  0  0  0
 12 13  1  0  0  0
 12 30  1  0  0  0
 13 14  2  0  0  0
 13 15  1  0  0  0
 15 16  1  0  0  0
 15 21  1  0  0  0
 15 17  1  0  0  0
 17 18  1  0  0  0
 17 31  1  0  0  0
 17 32  1  0  0  0
 18 19  1  0  0  0
 18 24  1  0  0  0
 18 20  1  0  0  0
 20 21  1  0  0  0
 20 33  1  0  0  0
 20 34  1  0  0  0
 21 22  1  0  0  0
 21 23  1  0  0  0
 23 24  2  0  0  0
 23 35  1  0  0  0
 24 36  1  0  0  0
M  END
> <i_i_glide_confnum>
21

> <i_i_glide_lignum>
4687

> <i_i_glide_posenum>
316

> <i_i_glide_rotatable_bonds>
4

> <i_m_Source_File_Index>
4915

> <b_m_subgroup_collapsed>
0

> <r_i_docking_score>
-5.69363

> <r_i_glide_ecoul>
-2.82456

> <r_i_glide_eff_state_penalty>
0

> <r_i_glide_einternal>
3.40204

> <r_i_glide_emodel>
-45.8646

> <r_i_glide_energy>
-33.3948

> <r_i_glide_erotb>
0.577157

> <r_i_glide_esite>
-0.1169

> <r_i_glide_evdw>
-30.5702

> <r_i_glide_gscore>
-5.69363

> <r_i_glide_hbond>
-0.101233

> <r_i_glide_ligand_efficiency>
-0.271125

> <r_i_glide_ligand_efficiency_ln>
-1.40774

> <r_i_glide_ligand_efficiency_sa>
-0.748014

> <r_i_glide_lipo>
-2.15001

> <r_i_glide_metal>
0

> <r_i_glide_rewards>
-1.95045

> <s_i_glide_gridfile>
wee1_glide-grid

> <s_m_Source_File>
wee1_decoys_glide_SP.sdf

> <s_m_Source_Path>
/Users/zhangxujun/Desktop

> <s_m_entry_id>
5190

> <s_m_entry_name>
wee1_decoys_glide_SP.4915

> <s_m_subgroup_title>
wee1_decoys_glide_SP

> <s_m_subgroupid>
wee1_decoys_glide_SP


$$$$
