ZINC59017594_3752
                    3D
 Schrodinger Suite 2024-2.
 65 67  0  0  1  0            999 V2000
    5.4004   54.8492   25.8146 C   0  0  0  0  0  0
    4.0248   54.2600   25.5585 C   0  0  0  0  0  0
    3.2143   53.8584   26.6214 C   0  0  0  0  0  0
    1.9614   53.2982   26.3746 C   0  0  0  0  0  0
    1.5000   53.1201   25.0634 C   0  0  0  0  0  0
    2.3099   53.5388   23.9879 C   0  0  0  0  0  0
    3.5659   54.0999   24.2509 C   0  0  0  0  0  0
    1.8909   53.3847   22.5340 C   0  0  0  0  0  0
   -0.1480   52.4036   24.8500 S   0  0  0  0  0  0
   -0.7664   53.0391   23.6819 O   0  0  0  0  0  0
   -0.8120   52.4793   26.1571 O   0  0  0  0  0  0
    0.1602   50.6999   24.4813 N   0  0  0  0  0  0
   -0.0155   50.1194   23.1275 C   0  0  0  0  0  0
   -1.1389   49.0496   23.1178 C   0  0  0  0  0  0
   -0.9961   48.0689   24.3194 C   0  0  0  0  0  0
   -0.7735   48.7790   25.6854 C   0  0  0  0  0  0
    0.4160   49.7443   25.5710 C   0  0  0  0  0  0
   -2.1370   47.0253   24.3232 C   0  0  0  0  0  0
   -2.0958   46.1052   23.5054 O   0  0  0  0  0  0
   -3.1662   47.2040   25.1838 N   0  0  0  0  0  0
   -4.2795   46.3488   25.3834 C   0  0  0  0  0  0
   -4.8290   45.5954   24.3277 C   0  0  0  0  0  0
   -5.9107   44.7417   24.5395 C   0  0  0  0  0  0
   -6.4799   44.6414   25.8047 C   0  0  0  0  0  0
   -5.9795   45.4116   26.8517 C   0  0  0  0  0  0
   -4.8941   46.2798   26.6537 C   0  0  0  0  0  0
   -4.4363   47.0951   27.7096 N   0  0  0  0  0  0
   -5.2253   47.8534   28.4922 C   0  0  0  0  0  0
   -6.4560   47.8295   28.5018 O   0  0  0  0  0  0
   -4.4942   48.6975   29.2302 N   0  0  0  0  0  0
   -4.9866   49.8983   29.8976 C   0  0  0  0  0  0
   -3.9812   50.2944   30.9785 C   0  0  0  0  0  0
   -5.2401   51.0547   28.9131 C   0  0  0  0  0  0
    6.1425   54.3427   25.1964 H   0  0  0  0  0  0
    5.4142   55.9069   25.5496 H   0  0  0  0  0  0
    5.7073   54.7357   26.8555 H   0  0  0  0  0  0
    3.5549   53.9745   27.6399 H   0  0  0  0  0  0
    1.3566   52.9980   27.2174 H   0  0  0  0  0  0
    4.1961   54.4141   23.4314 H   0  0  0  0  0  0
    2.7228   53.5407   21.8439 H   0  0  0  0  0  0
    1.5155   52.3806   22.3459 H   0  0  0  0  0  0
    1.1050   54.0956   22.2884 H   0  0  0  0  0  0
    0.9418   49.7047   22.8106 H   0  0  0  0  0  0
   -0.2543   50.9156   22.4231 H   0  0  0  0  0  0
   -1.0790   48.5281   22.1622 H   0  0  0  0  0  0
   -2.0731   49.6083   23.1918 H   0  0  0  0  0  0
   -0.1071   47.4528   24.1598 H   0  0  0  0  0  0
   -1.6325   49.3865   25.9785 H   0  0  0  0  0  0
   -0.4958   48.0949   26.4817 H   0  0  0  0  0  0
    1.3497   49.2164   25.3677 H   0  0  0  0  0  0
    0.5469   50.2901   26.5059 H   0  0  0  0  0  0
   -2.9860   47.8618   25.9286 H   0  0  0  0  0  0
   -4.4376   45.6658   23.3259 H   0  0  0  0  0  0
   -6.3154   44.1700   23.7182 H   0  0  0  0  0  0
   -7.3203   43.9827   25.9706 H   0  0  0  0  0  0
   -6.4575   45.3408   27.8190 H   0  0  0  0  0  0
   -3.4795   47.4183   27.6525 H   0  0  0  0  0  0
   -3.5093   48.4967   29.3648 H   0  0  0  0  0  0
   -5.9280   49.6558   30.3994 H   0  0  0  0  0  0
   -4.3047   51.1737   31.5365 H   0  0  0  0  0  0
   -2.9997   50.5014   30.5527 H   0  0  0  0  0  0
   -3.8475   49.4831   31.6848 H   0  0  0  0  0  0
   -5.5869   51.9428   29.4439 H   0  0  0  0  0  0
   -4.3270   51.3368   28.3884 H   0  0  0  0  0  0
   -6.0035   50.7994   28.1771 H   0  0  0  0  0  0
  1  2  1  0  0  0
  1 34  1  0  0  0
  1 35  1  0  0  0
  1 36  1  0  0  0
  2  7  2  0  0  0
  2  3  1  0  0  0
  3  4  2  0  0  0
  3 37  1  0  0  0
  4  5  1  0  0  0
  4 38  1  0  0  0
  5  6  2  0  0  0
  5  9  1  0  0  0
  6  7  1  0  0  0
  6  8  1  0  0  0
  7 39  1  0  0  0
  8 40  1  0  0  0
  8 41  1  0  0  0
  8 42  1  0  0  0
  9 10  2  0  0  0
  9 11  2  0  0  0
  9 12  1  0  0  0
 12 17  1  0  0  0
 12 13  1  0  0  0
 13 14  1  0  0  0
 13 43  1  0  0  0
 13 44  1  0  0  0
 14 15  1  0  0  0
 14 45  1  0  0  0
 14 46  1  0  0  0
 15 16  1  0  0  0
 15 18  1  0  0  0
 15 47  1  0  0  0
 16 17  1  0  0  0
 16 48  1  0  0  0
 16 49  1  0  0  0
 17 50  1  0  0  0
 17 51  1  0  0  0
 18 19  2  0  0  0
 18 20  1  0  0  0
 20 21  1  0  0  0
 20 52  1  0  0  0
 21 26  2  0  0  0
 21 22  1  0  0  0
 22 23  2  0  0  0
 22 53  1  0  0  0
 23 24  1  0  0  0
 23 54  1  0  0  0
 24 25  2  0  0  0
 24 55  1  0  0  0
 25 26  1  0  0  0
 25 56  1  0  0  0
 26 27  1  0  0  0
 27 28  1  0  0  0
 27 57  1  0  0  0
 28 29  2  0  0  0
 28 30  1  0  0  0
 30 31  1  0  0  0
 30 58  1  0  0  0
 31 32  1  0  0  0
 31 33  1  0  0  0
 31 59  1  0  0  0
 32 60  1  0  0  0
 32 61  1  0  0  0
 32 62  1  0  0  0
 33 63  1  0  0  0
 33 64  1  0  0  0
 33 65  1  0  0  0
M  END
> <i_i_glide_confnum>
195

> <i_i_glide_lignum>
3753

> <i_i_glide_posenum>
229

> <i_i_glide_rotatable_bonds>
9

> <i_m_Source_File_Index>
2077

> <b_m_subgroup_collapsed>
0

> <r_i_docking_score>
-4.80452

> <r_i_glide_ecoul>
-8.06341

> <r_i_glide_eff_state_penalty>
0

> <r_i_glide_einternal>
6.84341

> <r_i_glide_emodel>
-55.1675

> <r_i_glide_energy>
-43.1715

> <r_i_glide_erotb>
0.724284

> <r_i_glide_esite>
-0.334761

> <r_i_glide_evdw>
-35.1081

> <r_i_glide_gscore>
-4.80452

> <r_i_glide_hbond>
-0.257265

> <r_i_glide_ligand_efficiency>
-0.145592

> <r_i_glide_ligand_efficiency_ln>
-1.0685

> <r_i_glide_ligand_efficiency_sa>
-0.46699

> <r_i_glide_lipo>
-1.69506

> <r_i_glide_metal>
0

> <r_i_glide_rewards>
-0.276798

> <s_i_glide_gridfile>
wee1_glide-grid

> <s_m_Source_File>
wee1_decoys_glide_SP.sdf

> <s_m_Source_Path>
/Users/zhangxujun/Desktop

> <s_m_entry_id>
2352

> <s_m_entry_name>
wee1_decoys_glide_SP.2077

> <s_m_subgroup_title>
wee1_decoys_glide_SP

> <s_m_subgroupid>
wee1_decoys_glide_SP


$$$$
