ZINC08721074_4114
                    3D
 Schrodinger Suite 2024-2.
 71 77  0  0  1  0            999 V2000
   11.5030   50.8874   16.0992 C   0  0  0  0  0  0
   10.8218   52.2514   15.8657 C   0  0  0  0  0  0
   11.6972   53.3556   16.5289 C   0  0  0  0  0  0
   10.9143   54.6521   16.7282 C   0  0  0  0  0  0
    9.5606   54.7618   16.8139 C   0  0  0  0  0  0
    8.8988   56.1602   17.0006 C   0  0  2  0  0  0
    8.6672   56.4940   15.9984 H   0  0  0  0  0  0
    9.9632   57.1685   17.4798 C   0  0  0  0  0  0
   11.2749   56.8997   17.3135 C   0  0  0  0  0  0
   11.7556   55.7058   16.8942 O   0  0  0  0  0  0
   12.3405   57.6879   17.6611 N   0  0  0  0  0  0
    9.5692   58.4266   18.0414 C   0  0  0  0  0  0
    9.3212   59.4714   18.4814 N   0  0  0  0  0  0
    7.7033   56.1070   17.9602 C   0  0  0  0  0  0
    7.8068   55.7349   19.2905 C   0  0  0  0  0  0
    6.5459   55.6425   19.8048 N   0  0  0  0  0  0
    5.6443   56.0113   18.8894 N   0  0  0  0  0  0
    6.2975   56.2937   17.7728 C   0  0  0  0  0  0
    5.4345   56.6881   16.5471 C   0  0  0  0  0  0
    4.4656   55.5202   16.1541 C   0  0  0  0  0  0
    3.5369   55.9128   14.9731 C   0  0  1  0  0  0
    2.6826   57.1460   15.3709 C   0  0  0  0  0  0
    3.6195   58.3337   15.7098 C   0  0  1  0  0  0
    4.5452   57.9315   16.8843 C   0  0  0  0  0  0
    4.4893   58.6829   14.4781 C   0  0  0  0  0  0
    5.3375   57.4494   14.0821 C   0  0  2  0  0  0
    4.4007   56.2640   13.7362 C   0  0  0  0  0  0
    6.2550   57.0448   15.2667 C   0  0  0  0  0  0
    6.1645   55.1618   21.0790 C   0  0  0  0  0  0
    7.0410   55.2965   22.1647 C   0  0  0  0  0  0
    6.7034   54.7592   23.4033 C   0  0  0  0  0  0
    5.4904   54.0988   23.5639 C   0  0  0  0  0  0
    4.6061   53.9675   22.4974 C   0  0  0  0  0  0
    4.9414   54.4966   21.2537 C   0  0  0  0  0  0
    8.7158   53.5603   16.6124 C   0  0  0  0  0  0
    7.5120   53.6235   16.3705 O   0  0  0  0  0  0
    9.4402   52.2047   16.5775 C   0  0  0  0  0  0
   10.6336   52.5662   14.3598 C   0  0  0  0  0  0
   12.5080   50.8695   15.6714 H   0  0  0  0  0  0
   11.5938   50.6510   17.1613 H   0  0  0  0  0  0
   10.9389   50.0793   15.6315 H   0  0  0  0  0  0
   12.0356   53.0666   17.5268 H   0  0  0  0  0  0
   12.5880   53.5271   15.9204 H   0  0  0  0  0  0
   12.1985   58.6516   17.9300 H   0  0  0  0  0  0
   13.2272   57.2616   17.8844 H   0  0  0  0  0  0
    8.6688   55.4488   19.8739 H   0  0  0  0  0  0
    5.0382   54.6286   15.8923 H   0  0  0  0  0  0
    3.8516   55.2293   17.0085 H   0  0  0  0  0  0
    2.8796   55.0770   14.7330 H   0  0  0  0  0  0
    2.0057   57.4163   14.5598 H   0  0  0  0  0  0
    2.0507   56.9075   16.2290 H   0  0  0  0  0  0
    3.0235   59.2039   15.9951 H   0  0  0  0  0  0
    3.9179   57.7052   17.7482 H   0  0  0  0  0  0
    5.1664   58.7817   17.1754 H   0  0  0  0  0  0
    3.8590   58.9962   13.6454 H   0  0  0  0  0  0
    5.1340   59.5354   14.7065 H   0  0  0  0  0  0
    5.9505   57.6954   13.2129 H   0  0  0  0  0  0
    4.9861   55.3972   13.4250 H   0  0  0  0  0  0
    3.7631   56.5201   12.8878 H   0  0  0  0  0  0
    6.9474   57.8621   15.4788 H   0  0  0  0  0  0
    6.8452   56.1839   14.9530 H   0  0  0  0  0  0
    7.9901   55.8031   22.0605 H   0  0  0  0  0  0
    7.3854   54.8575   24.2340 H   0  0  0  0  0  0
    5.2330   53.6845   24.5270 H   0  0  0  0  0  0
    3.6677   53.4512   22.6294 H   0  0  0  0  0  0
    4.2528   54.3714   20.4289 H   0  0  0  0  0  0
    9.5780   51.9221   17.6217 H   0  0  0  0  0  0
    8.7751   51.4569   16.1448 H   0  0  0  0  0  0
   11.5894   52.5389   13.8333 H   0  0  0  0  0  0
    9.9862   51.8295   13.8814 H   0  0  0  0  0  0
   10.1971   53.5488   14.1795 H   0  0  0  0  0  0
  1  2  1  0  0  0
  1 39  1  0  0  0
  1 40  1  0  0  0
  1 41  1  0  0  0
  2 37  1  0  0  0
  2  3  1  0  0  0
  2 38  1  0  0  0
  3  4  1  0  0  0
  3 42  1  0  0  0
  3 43  1  0  0  0
  4 10  1  0  0  0
  4  5  2  0  0  0
  5  6  1  0  0  0
  5 35  1  0  0  0
  6  7  1  0  0  0
  6  8  1  0  0  0
  6 14  1  0  0  0
  8  9  2  0  0  0
  8 12  1  0  0  0
  9 10  1  0  0  0
  9 11  1  0  0  0
 11 44  1  0  0  0
 11 45  1  0  0  0
 12 13  3  0  0  0
 14 18  1  0  0  0
 14 15  2  0  0  0
 15 16  1  0  0  0
 15 46  1  0  0  0
 16 17  1  0  0  0
 16 29  1  0  0  0
 17 18  2  0  0  0
 18 19  1  0  0  0
 19 24  1  0  0  0
 19 28  1  0  0  0
 19 20  1  0  0  0
 20 21  1  0  0  0
 20 47  1  0  0  0
 20 48  1  0  0  0
 21 27  1  0  0  0
 21 22  1  0  0  0
 21 49  1  0  0  0
 22 23  1  0  0  0
 22 50  1  0  0  0
 22 51  1  0  0  0
 23 24  1  0  0  0
 23 25  1  0  0  0
 23 52  1  0  0  0
 24 53  1  0  0  0
 24 54  1  0  0  0
 25 26  1  0  0  0
 25 55  1  0  0  0
 25 56  1  0  0  0
 26 27  1  0  0  0
 26 28  1  0  0  0
 26 57  1  0  0  0
 27 58  1  0  0  0
 27 59  1  0  0  0
 28 60  1  0  0  0
 28 61  1  0  0  0
 29 34  2  0  0  0
 29 30  1  0  0  0
 30 31  2  0  0  0
 30 62  1  0  0  0
 31 32  1  0  0  0
 31 63  1  0  0  0
 32 33  2  0  0  0
 32 64  1  0  0  0
 33 34  1  0  0  0
 33 65  1  0  0  0
 34 66  1  0  0  0
 35 36  2  0  0  0
 35 37  1  0  0  0
 37 67  1  0  0  0
 37 68  1  0  0  0
 38 69  1  0  0  0
 38 70  1  0  0  0
 38 71  1  0  0  0
M  END
> <i_i_glide_confnum>
11

> <i_i_glide_lignum>
4115

> <i_i_glide_posenum>
396

> <i_i_glide_rotatable_bonds>
4

> <i_m_Source_File_Index>
2410

> <b_m_subgroup_collapsed>
0

> <r_i_docking_score>
-3.57771

> <r_i_glide_ecoul>
-2.85378

> <r_i_glide_eff_state_penalty>
0

> <r_i_glide_einternal>
1.83819

> <r_i_glide_emodel>
-43.3424

> <r_i_glide_energy>
-36.9468

> <r_i_glide_erotb>
0.249899

> <r_i_glide_esite>
-0.0173207

> <r_i_glide_evdw>
-34.093

> <r_i_glide_gscore>
-3.57771

> <r_i_glide_hbond>
0

> <r_i_glide_ligand_efficiency>
-0.096695

> <r_i_glide_ligand_efficiency_ln>
-0.775922

> <r_i_glide_ligand_efficiency_sa>
-0.322209

> <r_i_glide_lipo>
-1.39208

> <r_i_glide_metal>
0

> <r_i_glide_rewards>
-0.285497

> <s_i_glide_gridfile>
wee1_glide-grid

> <s_m_Source_File>
wee1_decoys_glide_SP.sdf

> <s_m_Source_Path>
/Users/zhangxujun/Desktop

> <s_m_entry_id>
2685

> <s_m_entry_name>
wee1_decoys_glide_SP.2410

> <s_m_subgroup_title>
wee1_decoys_glide_SP

> <s_m_subgroupid>
wee1_decoys_glide_SP


$$$$
