ZINC39724666_5969
                    3D
 Schrodinger Suite 2024-2.
 56 59  0  0  1  0            999 V2000
   -2.7851   51.9821   18.4324 C   0  0  0  0  0  0
   -1.2882   52.2580   18.2013 C   0  0  0  0  0  0
   -0.4587   51.2914   18.8403 O   0  0  0  0  0  0
   -0.2645   51.2935   20.1793 C   0  0  0  0  0  0
   -0.7466   52.0976   20.9794 O   0  0  0  0  0  0
    0.6621   50.1514   20.6464 C   0  0  1  0  0  0
    1.0322   49.6722   19.7395 H   0  0  0  0  0  0
    1.9019   50.5888   21.4821 C   0  0  2  0  0  0
    2.6971   49.8833   21.2236 H   0  0  0  0  0  0
    1.5563   50.1725   23.2020 S   0  0  0  0  0  0
    0.2099   49.1070   22.7803 C   0  0  0  0  0  0
   -0.1051   49.1203   21.4666 C   0  0  0  0  0  0
   -1.2600   48.2985   20.8937 C   0  0  0  0  0  0
   -1.6535   47.1359   21.8283 C   0  0  0  0  0  0
   -1.7714   47.5988   23.2915 C   0  0  0  0  0  0
   -0.4599   48.2191   23.8247 C   0  0  0  0  0  0
    2.3608   51.9750   21.2888 N   0  0  0  0  0  0
    3.6450   52.3813   21.2547 C   0  0  0  0  0  0
    4.5977   51.6001   21.2817 O   0  0  0  0  0  0
    3.8768   53.8971   21.1740 C   0  0  0  0  0  0
    5.4881   54.4779   21.8302 S   0  0  0  0  0  0
    5.2287   54.4618   23.6232 C   0  0  0  0  0  0
    6.2576   54.8516   24.2883 N   0  5  0  0  0  0
    6.2063   54.9151   25.6176 C   0  0  0  0  0  0
    7.0985   55.2961   26.3652 O   0  0  0  0  0  0
    4.9657   54.5051   26.2695 C   0  0  0  0  0  0
    3.9287   54.0949   25.4779 C   0  0  0  0  0  0
    4.0748   54.0966   24.1019 N   0  0  0  0  0  0
    2.6287   53.5712   26.0210 C   0  0  0  0  0  0
    1.6340   53.0640   25.1666 C   0  0  0  0  0  0
    0.4674   52.4957   25.6703 C   0  0  0  0  0  0
    0.2658   52.4431   27.0453 C   0  0  0  0  0  0
    1.2168   52.9627   27.9170 C   0  0  0  0  0  0
    2.3846   53.5222   27.4059 C   0  0  0  0  0  0
   -3.4008   52.6799   17.8635 H   0  0  0  0  0  0
   -3.0462   50.9709   18.1176 H   0  0  0  0  0  0
   -3.0579   52.0820   19.4830 H   0  0  0  0  0  0
   -1.0220   53.2661   18.5172 H   0  0  0  0  0  0
   -1.0797   52.2119   17.1313 H   0  0  0  0  0  0
   -1.0315   47.9319   19.8920 H   0  0  0  0  0  0
   -2.1258   48.9447   20.7405 H   0  0  0  0  0  0
   -2.5953   46.6954   21.4976 H   0  0  0  0  0  0
   -0.9054   46.3463   21.7541 H   0  0  0  0  0  0
   -2.5685   48.3391   23.3664 H   0  0  0  0  0  0
   -2.0707   46.7673   23.9307 H   0  0  0  0  0  0
   -0.6671   48.7694   24.7441 H   0  0  0  0  0  0
    0.2272   47.4282   24.1280 H   0  0  0  0  0  0
    1.6427   52.6839   21.3265 H   0  0  0  0  0  0
    3.8212   54.1826   20.1246 H   0  0  0  0  0  0
    3.0715   54.4274   21.6842 H   0  0  0  0  0  0
    4.9333   54.5126   27.3449 H   0  0  0  0  0  0
    1.7704   53.0779   24.0967 H   0  0  0  0  0  0
   -0.2719   52.0880   24.9962 H   0  0  0  0  0  0
   -0.6358   51.9948   27.4388 H   0  0  0  0  0  0
    1.0536   52.9207   28.9824 H   0  0  0  0  0  0
    3.1043   53.8959   28.1147 H   0  0  0  0  0  0
  1  2  1  0  0  0
  1 35  1  0  0  0
  1 36  1  0  0  0
  1 37  1  0  0  0
  2  3  1  0  0  0
  2 38  1  0  0  0
  2 39  1  0  0  0
  3  4  1  0  0  0
  4  5  2  0  0  0
  4  6  1  0  0  0
  6  7  1  0  0  0
  6 12  1  0  0  0
  6  8  1  0  0  0
  8  9  1  0  0  0
  8 10  1  0  0  0
  8 17  1  0  0  0
 10 11  1  0  0  0
 11 16  1  0  0  0
 11 12  2  0  0  0
 12 13  1  0  0  0
 13 14  1  0  0  0
 13 40  1  0  0  0
 13 41  1  0  0  0
 14 15  1  0  0  0
 14 42  1  0  0  0
 14 43  1  0  0  0
 15 16  1  0  0  0
 15 44  1  0  0  0
 15 45  1  0  0  0
 16 46  1  0  0  0
 16 47  1  0  0  0
 17 18  1  0  0  0
 17 48  1  0  0  0
 18 19  2  0  0  0
 18 20  1  0  0  0
 20 21  1  0  0  0
 20 49  1  0  0  0
 20 50  1  0  0  0
 21 22  1  0  0  0
 22 28  2  0  0  0
 22 23  1  0  0  0
 23 24  1  0  0  0
 24 25  2  0  0  0
 24 26  1  0  0  0
 26 27  2  0  0  0
 26 51  1  0  0  0
 27 28  1  0  0  0
 27 29  1  0  0  0
 29 34  2  0  0  0
 29 30  1  0  0  0
 30 31  2  0  0  0
 30 52  1  0  0  0
 31 32  1  0  0  0
 31 53  1  0  0  0
 32 33  2  0  0  0
 32 54  1  0  0  0
 33 34  1  0  0  0
 33 55  1  0  0  0
 34 56  1  0  0  0
M  CHG  1  23  -1
M  END
> <i_i_glide_confnum>
269

> <i_i_glide_lignum>
5970

> <i_i_glide_posenum>
277

> <i_i_glide_rotatable_bonds>
9

> <i_m_Source_File_Index>
3027

> <b_m_subgroup_collapsed>
0

> <r_i_docking_score>
-6.09254

> <r_i_glide_ecoul>
-9.15924

> <r_i_glide_eff_state_penalty>
0

> <r_i_glide_einternal>
3.963

> <r_i_glide_emodel>
-67.2699

> <r_i_glide_energy>
-49.2177

> <r_i_glide_erotb>
0.729954

> <r_i_glide_esite>
-0.00738327

> <r_i_glide_evdw>
-40.0585

> <r_i_glide_gscore>
-6.09254

> <r_i_glide_hbond>
-0.32

> <r_i_glide_ligand_efficiency>
-0.190392

> <r_i_glide_ligand_efficiency_ln>
-1.36429

> <r_i_glide_ligand_efficiency_sa>
-0.604457

> <r_i_glide_lipo>
-2.08866

> <r_i_glide_metal>
0

> <r_i_glide_rewards>
-1.02964

> <s_i_glide_gridfile>
wee1_glide-grid

> <s_m_Source_File>
wee1_decoys_glide_SP.sdf

> <s_m_Source_Path>
/Users/zhangxujun/Desktop

> <s_m_entry_id>
3302

> <s_m_entry_name>
wee1_decoys_glide_SP.3027

> <s_m_subgroup_title>
wee1_decoys_glide_SP

> <s_m_subgroupid>
wee1_decoys_glide_SP


$$$$
