ZINC22707748_4558
                    3D
 Schrodinger Suite 2024-2.
 59 62  0  0  1  0            999 V2000
    3.7517   52.9742   28.7098 C   0  0  0  0  0  0
    2.7848   53.6256   27.6830 C   0  0  0  0  0  0
    1.5918   52.6442   27.5209 C   0  0  0  0  0  0
    2.2455   54.9401   28.2918 C   0  0  0  0  0  0
    3.5097   53.9169   26.3366 C   0  0  0  0  0  0
    2.8929   53.6962   25.0935 C   0  0  0  0  0  0
    3.5805   53.9073   23.8974 C   0  0  0  0  0  0
    4.9140   54.3488   23.9075 C   0  0  0  0  0  0
    5.5162   54.6039   25.1475 C   0  0  0  0  0  0
    4.8248   54.4013   26.3375 C   0  0  0  0  0  0
    5.7124   54.5776   22.6335 C   0  0  0  0  0  0
    6.8981   54.8949   22.7166 O   0  0  0  0  0  0
    5.0496   54.4708   21.4574 N   0  0  0  0  0  0
    5.5070   54.7370   20.1449 C   0  0  0  0  0  0
    6.8467   54.9612   19.7839 C   0  0  0  0  0  0
    7.1868   55.2563   18.4649 C   0  0  0  0  0  0
    6.1980   55.3318   17.4864 C   0  0  0  0  0  0
    4.8632   55.0886   17.8130 C   0  0  0  0  0  0
    4.5307   54.7915   19.1463 C   0  0  0  0  0  0
    3.9201   55.2151   16.7711 N   0  0  0  0  0  0
    2.6355   54.7673   16.6601 C   0  0  0  0  0  0
    1.6849   55.4935   15.4944 S   0  0  0  0  0  0
    2.3030   53.7018   17.4553 N   0  0  0  0  0  0
    1.1108   53.2351   17.8938 C   0  0  0  0  0  0
   -0.0085   53.5219   17.4606 O   0  0  0  0  0  0
    1.2757   52.4262   19.0683 C   0  0  0  0  0  0
    2.2650   51.5056   19.4209 C   0  0  0  0  0  0
    1.9441   51.0702   20.7410 C   0  0  0  0  0  0
    2.5241   50.2205   21.6904 C   0  0  0  0  0  0
    1.8959   50.0748   22.9309 C   0  0  0  0  0  0
    0.7028   50.7357   23.2298 C   0  0  0  0  0  0
    0.0867   51.5718   22.2974 C   0  0  0  0  0  0
    0.7311   51.7211   21.0634 C   0  0  0  0  0  0
    0.3039   52.4967   20.0271 O   0  0  0  0  0  0
    3.2277   52.6503   29.6104 H   0  0  0  0  0  0
    4.5304   53.6597   29.0452 H   0  0  0  0  0  0
    4.2453   52.0972   28.2927 H   0  0  0  0  0  0
    0.7891   53.0653   26.9144 H   0  0  0  0  0  0
    1.9000   51.7040   27.0628 H   0  0  0  0  0  0
    1.1424   52.3942   28.4830 H   0  0  0  0  0  0
    1.4506   55.3654   27.6823 H   0  0  0  0  0  0
    1.8194   54.7763   29.2827 H   0  0  0  0  0  0
    3.0242   55.6961   28.3997 H   0  0  0  0  0  0
    1.8771   53.3398   25.0290 H   0  0  0  0  0  0
    3.0582   53.7010   22.9745 H   0  0  0  0  0  0
    6.5350   54.9617   25.2032 H   0  0  0  0  0  0
    5.3362   54.6142   27.2632 H   0  0  0  0  0  0
    4.0731   54.2318   21.5207 H   0  0  0  0  0  0
    7.6512   54.9057   20.4991 H   0  0  0  0  0  0
    8.2205   55.4288   18.2020 H   0  0  0  0  0  0
    6.4805   55.5714   16.4711 H   0  0  0  0  0  0
    3.5047   54.6508   19.4369 H   0  0  0  0  0  0
    4.2132   55.8468   16.0395 H   0  0  0  0  0  0
    3.0962   53.2466   17.8821 H   0  0  0  0  0  0
    3.1218   51.2168   18.8219 H   0  0  0  0  0  0
    3.4390   49.6965   21.4639 H   0  0  0  0  0  0
    2.3333   49.4280   23.6782 H   0  0  0  0  0  0
    0.2480   50.5874   24.1999 H   0  0  0  0  0  0
   -0.8383   52.0826   22.5173 H   0  0  0  0  0  0
  1  2  1  0  0  0
  1 35  1  0  0  0
  1 36  1  0  0  0
  1 37  1  0  0  0
  2  3  1  0  0  0
  2  4  1  0  0  0
  2  5  1  0  0  0
  3 38  1  0  0  0
  3 39  1  0  0  0
  3 40  1  0  0  0
  4 41  1  0  0  0
  4 42  1  0  0  0
  4 43  1  0  0  0
  5 10  2  0  0  0
  5  6  1  0  0  0
  6  7  2  0  0  0
  6 44  1  0  0  0
  7  8  1  0  0  0
  7 45  1  0  0  0
  8  9  2  0  0  0
  8 11  1  0  0  0
  9 10  1  0  0  0
  9 46  1  0  0  0
 10 47  1  0  0  0
 11 12  2  0  0  0
 11 13  1  0  0  0
 13 14  1  0  0  0
 13 48  1  0  0  0
 14 19  2  0  0  0
 14 15  1  0  0  0
 15 16  2  0  0  0
 15 49  1  0  0  0
 16 17  1  0  0  0
 16 50  1  0  0  0
 17 18  2  0  0  0
 17 51  1  0  0  0
 18 19  1  0  0  0
 18 20  1  0  0  0
 19 52  1  0  0  0
 20 21  1  0  0  0
 20 53  1  0  0  0
 21 22  2  0  0  0
 21 23  1  0  0  0
 23 24  1  0  0  0
 23 54  1  0  0  0
 24 25  2  0  0  0
 24 26  1  0  0  0
 26 34  1  0  0  0
 26 27  2  0  0  0
 27 28  1  0  0  0
 27 55  1  0  0  0
 28 33  2  0  0  0
 28 29  1  0  0  0
 29 30  2  0  0  0
 29 56  1  0  0  0
 30 31  1  0  0  0
 30 57  1  0  0  0
 31 32  2  0  0  0
 31 58  1  0  0  0
 32 33  1  0  0  0
 32 59  1  0  0  0
 33 34  1  0  0  0
M  END
> <i_i_glide_confnum>
18

> <i_i_glide_lignum>
4559

> <i_i_glide_posenum>
246

> <i_i_glide_rotatable_bonds>
9

> <i_m_Source_File_Index>
186

> <b_m_subgroup_collapsed>
0

> <r_i_docking_score>
-5.33225

> <r_i_glide_ecoul>
-3.29244

> <r_i_glide_eff_state_penalty>
0

> <r_i_glide_einternal>
8.75406

> <r_i_glide_emodel>
-52.9643

> <r_i_glide_energy>
-41.9864

> <r_i_glide_erotb>
0.636276

> <r_i_glide_esite>
-0.0290762

> <r_i_glide_evdw>
-38.694

> <r_i_glide_gscore>
-5.33225

> <r_i_glide_hbond>
0

> <r_i_glide_ligand_efficiency>
-0.156831

> <r_i_glide_ligand_efficiency_ln>
-1.17804

> <r_i_glide_ligand_efficiency_sa>
-0.508071

> <r_i_glide_lipo>
-3.02713

> <r_i_glide_metal>
0

> <r_i_glide_rewards>
-0.483756

> <s_i_glide_gridfile>
wee1_glide-grid

> <s_m_Source_File>
wee1_decoys_glide_SP.sdf

> <s_m_Source_Path>
/Users/zhangxujun/Desktop

> <s_m_entry_id>
461

> <s_m_entry_name>
wee1_decoys_glide_SP.186

> <s_m_subgroup_title>
wee1_decoys_glide_SP

> <s_m_subgroupid>
wee1_decoys_glide_SP


$$$$
