ZINC44785203_1688
                    3D
 Schrodinger Suite 2024-2.
 45 46  0  0  1  0            999 V2000
    1.6383   53.2396   22.5714 C   0  0  0  0  0  0
    0.7034   53.2189   23.7872 C   0  0  2  0  0  0
    0.2979   54.2247   23.9136 H   0  0  0  0  0  0
    1.4724   52.8053   25.0622 C   0  0  0  0  0  0
    0.5517   52.4849   26.1828 N   0  0  0  0  0  0
   -0.6484   51.6733   25.8110 C   0  0  1  0  0  0
   -1.4152   51.7475   26.5848 H   0  0  0  0  0  0
   -1.3063   52.2824   24.5547 C   0  0  0  0  0  0
   -0.3735   52.3474   23.4941 O   0  0  0  0  0  0
   -0.3416   50.1707   25.6474 C   0  0  0  0  0  0
    0.8285   52.6144   27.5311 C   0  0  0  0  0  0
    0.0077   52.1646   28.3411 O   0  0  0  0  0  0
    2.0960   53.2972   28.2095 C   0  0  0  0  0  0
    2.7482   52.1533   29.0847 C   0  0  0  0  0  0
    4.0735   52.5510   29.7743 C   0  0  0  0  0  0
    5.1044   53.1006   28.7741 C   0  0  0  0  0  0
    4.5291   54.2445   27.9453 C   0  0  0  0  0  0
    3.2335   53.8042   27.2420 C   0  0  0  0  0  0
    1.5559   54.4707   29.1139 C   0  0  0  0  0  0
    1.2230   54.2032   30.3175 N   0  0  0  0  0  0
    0.7044   55.2941   31.0345 O   0  0  0  0  0  0
    1.5046   55.6982   28.4817 N   0  0  0  0  0  0
    2.4799   53.9168   22.7209 H   0  0  0  0  0  0
    2.0367   52.2461   22.3604 H   0  0  0  0  0  0
    1.1054   53.5726   21.6814 H   0  0  0  0  0  0
    2.0559   53.7014   25.1970 H   0  0  0  0  0  0
    2.1025   51.9425   24.8429 H   0  0  0  0  0  0
   -1.6722   53.2873   24.7815 H   0  0  0  0  0  0
   -2.1778   51.7037   24.2473 H   0  0  0  0  0  0
   -1.2324   49.6240   25.3365 H   0  0  0  0  0  0
    0.4195   49.9914   24.8875 H   0  0  0  0  0  0
   -0.0141   49.7262   26.5887 H   0  0  0  0  0  0
    2.9554   51.2967   28.4480 H   0  0  0  0  0  0
    2.0612   51.7709   29.8453 H   0  0  0  0  0  0
    4.4953   51.6959   30.3007 H   0  0  0  0  0  0
    3.8795   53.2999   30.5421 H   0  0  0  0  0  0
    5.4324   52.3022   28.1081 H   0  0  0  0  0  0
    6.0031   53.4472   29.2802 H   0  0  0  0  0  0
    5.2648   54.5684   27.2081 H   0  0  0  0  0  0
    4.3459   55.1075   28.5864 H   0  0  0  0  0  0
    2.9206   54.6569   26.6425 H   0  0  0  0  0  0
    3.5269   53.0035   26.5605 H   0  0  0  0  0  0
    0.7080   55.9957   30.3838 H   0  0  0  0  0  0
    1.2304   56.5499   28.9426 H   0  0  0  0  0  0
    1.7379   55.7532   27.5031 H   0  0  0  0  0  0
  1  2  1  0  0  0
  1 23  1  0  0  0
  1 24  1  0  0  0
  1 25  1  0  0  0
  2  3  1  0  0  0
  2  9  1  0  0  0
  2  4  1  0  0  0
  4  5  1  0  0  0
  4 26  1  0  0  0
  4 27  1  0  0  0
  5  6  1  0  0  0
  5 11  1  0  0  0
  6  7  1  0  0  0
  6  8  1  0  0  0
  6 10  1  0  0  0
  8  9  1  0  0  0
  8 28  1  0  0  0
  8 29  1  0  0  0
 10 30  1  0  0  0
 10 31  1  0  0  0
 10 32  1  0  0  0
 11 12  2  0  0  0
 11 13  1  0  0  0
 13 18  1  0  0  0
 13 14  1  0  0  0
 13 19  1  0  0  0
 14 15  1  0  0  0
 14 33  1  0  0  0
 14 34  1  0  0  0
 15 16  1  0  0  0
 15 35  1  0  0  0
 15 36  1  0  0  0
 16 17  1  0  0  0
 16 37  1  0  0  0
 16 38  1  0  0  0
 17 18  1  0  0  0
 17 39  1  0  0  0
 17 40  1  0  0  0
 18 41  1  0  0  0
 18 42  1  0  0  0
 19 20  2  0  0  0
 19 22  1  0  0  0
 20 21  1  0  0  0
 21 43  1  0  0  0
 22 44  1  0  0  0
 22 45  1  0  0  0
M  END
> <i_i_glide_confnum>
6

> <i_i_glide_lignum>
1689

> <i_i_glide_posenum>
226

> <i_i_glide_rotatable_bonds>
4

> <i_m_Source_File_Index>
21

> <b_m_subgroup_collapsed>
0

> <r_i_docking_score>
-4.60083

> <r_i_glide_ecoul>
-1.05612

> <r_i_glide_eff_state_penalty>
0

> <r_i_glide_einternal>
7.69249

> <r_i_glide_emodel>
-39.0656

> <r_i_glide_energy>
-33.0145

> <r_i_glide_erotb>
0.902118

> <r_i_glide_esite>
0

> <r_i_glide_evdw>
-31.9583

> <r_i_glide_gscore>
-4.60083

> <r_i_glide_hbond>
0

> <r_i_glide_ligand_efficiency>
-0.230041

> <r_i_glide_ligand_efficiency_ln>
-1.15144

> <r_i_glide_ligand_efficiency_sa>
-0.624429

> <r_i_glide_lipo>
-1.70285

> <r_i_glide_metal>
0

> <r_i_glide_rewards>
-2.04376

> <s_i_glide_gridfile>
wee1_glide-grid

> <s_m_Source_File>
wee1_decoys_glide_SP.sdf

> <s_m_Source_Path>
/Users/zhangxujun/Desktop

> <s_m_entry_id>
296

> <s_m_entry_name>
wee1_decoys_glide_SP.21

> <s_m_subgroup_title>
wee1_decoys_glide_SP

> <s_m_subgroupid>
wee1_decoys_glide_SP


$$$$
