ZINC12711332_3133
                    3D
 Schrodinger Suite 2024-2.
 56 59  0  0  1  0            999 V2000
   -2.4612   51.6968   27.1586 C   0  0  0  0  0  0
   -2.1662   51.4132   25.8265 C   0  0  0  0  0  0
   -0.8742   51.0017   25.4395 C   0  0  0  0  0  0
    0.1115   50.9537   26.4360 C   0  0  0  0  0  0
   -0.1622   51.3010   27.7553 C   0  0  0  0  0  0
   -1.4538   51.6608   28.1203 C   0  0  0  0  0  0
    0.8273   51.2964   28.6777 F   0  0  0  0  0  0
   -0.5263   50.7523   24.0619 N   0  0  0  0  0  0
    0.7805   51.3126   23.5500 C   0  0  1  0  0  0
    1.4982   50.8849   24.2460 H   0  0  0  0  0  0
    1.2992   50.8465   22.2128 C   0  0  0  0  0  0
    1.9114   49.6228   21.9693 C   0  0  0  0  0  0
    2.2641   49.4365   20.6290 C   0  0  0  0  0  0
    1.9590   50.5326   19.8375 C   0  0  0  0  0  0
    1.1820   51.7908   20.7435 S   0  0  0  0  0  0
    1.0164   52.8286   23.7838 C   0  0  0  0  0  0
    0.0761   53.5639   24.0818 O   0  0  0  0  0  0
    2.2893   53.2505   23.6804 N   0  0  0  0  0  0
    2.7482   54.5893   24.0492 C   0  0  0  0  0  0
    3.5043   54.6460   25.4007 C   0  0  2  0  0  0
    3.5800   55.6968   25.6819 H   0  0  0  0  0  0
    4.9470   54.1599   25.3619 C   0  0  0  0  0  0
    5.2271   53.7808   26.8025 C   0  0  0  0  0  0
    3.8438   53.5362   27.4230 C   0  0  0  0  0  0
    2.8877   53.8555   26.4115 O   0  0  0  0  0  0
   -1.4409   50.1658   23.2119 C   0  0  0  0  0  0
   -1.4901   50.3554   21.9954 O   0  0  0  0  0  0
   -2.3729   49.2206   23.7961 C   0  0  0  0  0  0
   -2.1437   48.1334   24.6407 C   0  0  0  0  0  0
   -3.3571   47.4926   24.9780 C   0  0  0  0  0  0
   -4.4492   47.9326   24.3793 N   0  0  0  0  0  0
   -4.0456   49.2320   23.3450 S   0  0  0  0  0  0
   -3.5266   46.3569   25.8552 C   0  0  0  0  0  0
   -4.0954   45.3221   25.4986 O   0  0  0  0  0  0
   -3.0220   46.4960   27.0826 N   0  0  0  0  0  0
   -0.8956   47.7593   25.0760 N   0  0  0  0  0  0
   -3.4644   51.9802   27.4395 H   0  0  0  0  0  0
   -2.9562   51.5193   25.0988 H   0  0  0  0  0  0
    1.1044   50.6368   26.2076 H   0  0  0  0  0  0
   -1.6721   51.8945   29.1514 H   0  0  0  0  0  0
    2.0846   48.8895   22.7422 H   0  0  0  0  0  0
    2.7266   48.5381   20.2486 H   0  0  0  0  0  0
    2.1470   50.6519   18.7789 H   0  0  0  0  0  0
    2.9915   52.5930   23.3772 H   0  0  0  0  0  0
    1.9147   55.2917   24.0819 H   0  0  0  0  0  0
    3.3870   54.9663   23.2506 H   0  0  0  0  0  0
    5.6303   54.8916   24.9285 H   0  0  0  0  0  0
    5.0229   53.2967   24.7045 H   0  0  0  0  0  0
    5.7317   54.5979   27.3208 H   0  0  0  0  0  0
    5.8671   52.9005   26.8765 H   0  0  0  0  0  0
    3.6958   54.1784   28.2915 H   0  0  0  0  0  0
    3.7238   52.4962   27.7245 H   0  0  0  0  0  0
   -2.5324   47.3397   27.3963 H   0  0  0  0  0  0
   -3.1056   45.7301   27.7354 H   0  0  0  0  0  0
   -0.7582   47.1177   25.8516 H   0  0  0  0  0  0
   -0.0736   48.2843   24.8156 H   0  0  0  0  0  0
  1  6  2  0  0  0
  1  2  1  0  0  0
  1 37  1  0  0  0
  2  3  2  0  0  0
  2 38  1  0  0  0
  3  4  1  0  0  0
  3  8  1  0  0  0
  4  5  2  0  0  0
  4 39  1  0  0  0
  5  6  1  0  0  0
  5  7  1  0  0  0
  6 40  1  0  0  0
  8  9  1  0  0  0
  8 26  1  0  0  0
  9 10  1  0  0  0
  9 11  1  0  0  0
  9 16  1  0  0  0
 11 15  1  0  0  0
 11 12  2  0  0  0
 12 13  1  0  0  0
 12 41  1  0  0  0
 13 14  2  0  0  0
 13 42  1  0  0  0
 14 15  1  0  0  0
 14 43  1  0  0  0
 16 17  2  0  0  0
 16 18  1  0  0  0
 18 19  1  0  0  0
 18 44  1  0  0  0
 19 20  1  0  0  0
 19 45  1  0  0  0
 19 46  1  0  0  0
 20 21  1  0  0  0
 20 25  1  0  0  0
 20 22  1  0  0  0
 22 23  1  0  0  0
 22 47  1  0  0  0
 22 48  1  0  0  0
 23 24  1  0  0  0
 23 49  1  0  0  0
 23 50  1  0  0  0
 24 25  1  0  0  0
 24 51  1  0  0  0
 24 52  1  0  0  0
 26 27  2  0  0  0
 26 28  1  0  0  0
 28 32  1  0  0  0
 28 29  2  0  0  0
 29 30  1  0  0  0
 29 36  1  0  0  0
 30 31  2  0  0  0
 30 33  1  0  0  0
 31 32  1  0  0  0
 33 34  2  0  0  0
 33 35  1  0  0  0
 35 53  1  0  0  0
 35 54  1  0  0  0
 36 55  1  0  0  0
 36 56  1  0  0  0
M  END
> <i_i_glide_confnum>
172

> <i_i_glide_lignum>
3134

> <i_i_glide_posenum>
185

> <i_i_glide_rotatable_bonds>
10

> <i_m_Source_File_Index>
2200

> <b_m_subgroup_collapsed>
0

> <r_i_docking_score>
-4.9742

> <r_i_glide_ecoul>
-11.628

> <r_i_glide_eff_state_penalty>
0

> <r_i_glide_einternal>
12.6011

> <r_i_glide_emodel>
-53.5939

> <r_i_glide_energy>
-46.9408

> <r_i_glide_erotb>
0.644861

> <r_i_glide_esite>
-0.269581

> <r_i_glide_evdw>
-35.3128

> <r_i_glide_gscore>
-4.9742

> <r_i_glide_hbond>
-0.547447

> <r_i_glide_ligand_efficiency>
-0.1463

> <r_i_glide_ligand_efficiency_ln>
-1.09894

> <r_i_glide_ligand_efficiency_sa>
-0.473955

> <r_i_glide_lipo>
-1.42764

> <r_i_glide_metal>
0

> <r_i_glide_rewards>
0.135445

> <s_i_glide_gridfile>
wee1_glide-grid

> <s_m_Source_File>
wee1_decoys_glide_SP.sdf

> <s_m_Source_Path>
/Users/zhangxujun/Desktop

> <s_m_entry_id>
2475

> <s_m_entry_name>
wee1_decoys_glide_SP.2200

> <s_m_subgroup_title>
wee1_decoys_glide_SP

> <s_m_subgroupid>
wee1_decoys_glide_SP


$$$$
