ZINC44031187_4585
                    3D
 Schrodinger Suite 2024-2.
 49 51  0  0  1  0            999 V2000
    3.5491   57.0884   17.0085 C   0  0  0  0  0  0
    5.0044   57.1084   16.5071 C   0  0  0  0  0  0
    5.6222   58.5152   16.6419 C   0  0  0  0  0  0
    5.8670   55.9766   17.1298 C   0  0  0  0  0  0
    6.0568   56.0422   18.6554 C   0  0  0  0  0  0
    6.6877   56.9812   19.1453 O   0  0  0  0  0  0
    5.5054   55.0372   19.3724 N   0  0  0  0  0  0
    5.5924   54.8319   20.7613 C   0  0  0  0  0  0
    4.5745   54.0952   21.3733 C   0  0  0  0  0  0
    4.6080   53.8584   22.7470 C   0  0  0  0  0  0
    5.6557   54.3643   23.5217 C   0  0  0  0  0  0
    6.6890   55.0700   22.8943 C   0  0  0  0  0  0
    6.6669   55.2967   21.5284 C   0  0  0  0  0  0
    5.6190   54.1165   24.9109 N   0  0  0  0  0  0
    6.3186   54.7393   25.8902 C   0  0  0  0  0  0
    7.0626   55.6967   25.7086 O   0  0  0  0  0  0
    6.1941   54.2540   27.1366 N   0  0  0  0  0  0
    5.3941   53.1190   27.6024 C   0  0  0  0  0  0
    4.1655   53.5068   28.3965 C   0  0  0  0  0  0
    3.7725   54.7407   28.5521 N   0  0  0  0  0  0
    2.6422   54.8244   29.2906 C   0  0  0  0  0  0
    2.0276   56.0252   29.6579 C   0  0  0  0  0  0
    0.9111   55.9588   30.4817 C   0  0  0  0  0  0
    0.3730   54.7343   30.8825 C   0  0  0  0  0  0
    0.9493   53.5233   30.5049 C   0  0  0  0  0  0
    2.1105   53.5846   29.7277 C   0  0  0  0  0  0
    3.1488   52.2994   29.1603 S   0  0  0  0  0  0
    3.5048   57.2721   18.0815 H   0  0  0  0  0  0
    3.0732   56.1242   16.8175 H   0  0  0  0  0  0
    2.9488   57.8583   16.5189 H   0  0  0  0  0  0
    4.9623   56.9011   15.4348 H   0  0  0  0  0  0
    5.6097   58.8753   17.6706 H   0  0  0  0  0  0
    6.6559   58.5351   16.2977 H   0  0  0  0  0  0
    5.0708   59.2489   16.0505 H   0  0  0  0  0  0
    5.4407   55.0100   16.8564 H   0  0  0  0  0  0
    6.8658   55.9966   16.6915 H   0  0  0  0  0  0
    4.9100   54.3933   18.8738 H   0  0  0  0  0  0
    3.7459   53.7202   20.7913 H   0  0  0  0  0  0
    3.8059   53.2989   23.2052 H   0  0  0  0  0  0
    7.5044   55.4759   23.4501 H   0  0  0  0  0  0
    7.4958   55.8291   21.0870 H   0  0  0  0  0  0
    4.9508   53.4242   25.2087 H   0  0  0  0  0  0
    6.6856   54.7642   27.8585 H   0  0  0  0  0  0
    5.0947   52.4966   26.7692 H   0  0  0  0  0  0
    6.0452   52.4989   28.2151 H   0  0  0  0  0  0
    2.4327   56.9746   29.3460 H   0  0  0  0  0  0
    0.4452   56.8779   30.8094 H   0  0  0  0  0  0
   -0.4949   54.7220   31.5226 H   0  0  0  0  0  0
    0.5398   52.5802   30.8388 H   0  0  0  0  0  0
  1  2  1  0  0  0
  1 28  1  0  0  0
  1 29  1  0  0  0
  1 30  1  0  0  0
  2  3  1  0  0  0
  2  4  1  0  0  0
  2 31  1  0  0  0
  3 32  1  0  0  0
  3 33  1  0  0  0
  3 34  1  0  0  0
  4  5  1  0  0  0
  4 35  1  0  0  0
  4 36  1  0  0  0
  5  6  2  0  0  0
  5  7  1  0  0  0
  7  8  1  0  0  0
  7 37  1  0  0  0
  8 13  2  0  0  0
  8  9  1  0  0  0
  9 10  2  0  0  0
  9 38  1  0  0  0
 10 11  1  0  0  0
 10 39  1  0  0  0
 11 12  2  0  0  0
 11 14  1  0  0  0
 12 13  1  0  0  0
 12 40  1  0  0  0
 13 41  1  0  0  0
 14 15  1  0  0  0
 14 42  1  0  0  0
 15 16  2  0  0  0
 15 17  1  0  0  0
 17 18  1  0  0  0
 17 43  1  0  0  0
 18 19  1  0  0  0
 18 44  1  0  0  0
 18 45  1  0  0  0
 19 27  1  0  0  0
 19 20  2  0  0  0
 20 21  1  0  0  0
 21 26  2  0  0  0
 21 22  1  0  0  0
 22 23  2  0  0  0
 22 46  1  0  0  0
 23 24  1  0  0  0
 23 47  1  0  0  0
 24 25  2  0  0  0
 24 48  1  0  0  0
 25 26  1  0  0  0
 25 49  1  0  0  0
 26 27  1  0  0  0
M  END
> <i_i_glide_confnum>
66

> <i_i_glide_lignum>
4586

> <i_i_glide_posenum>
315

> <i_i_glide_rotatable_bonds>
9

> <i_m_Source_File_Index>
2888

> <b_m_subgroup_collapsed>
0

> <r_i_docking_score>
-6.38287

> <r_i_glide_ecoul>
-9.76984

> <r_i_glide_eff_state_penalty>
0

> <r_i_glide_einternal>
7.5306

> <r_i_glide_emodel>
-69.2417

> <r_i_glide_energy>
-54.276

> <r_i_glide_erotb>
0.650539

> <r_i_glide_esite>
0

> <r_i_glide_evdw>
-44.5062

> <r_i_glide_gscore>
-6.38287

> <r_i_glide_hbond>
-0.32

> <r_i_glide_ligand_efficiency>
-0.236402

> <r_i_glide_ligand_efficiency_ln>
-1.48583

> <r_i_glide_ligand_efficiency_sa>
-0.709207

> <r_i_glide_lipo>
-2.94136

> <r_i_glide_metal>
0

> <r_i_glide_rewards>
-0.0812642

> <s_i_glide_gridfile>
wee1_glide-grid

> <s_m_Source_File>
wee1_decoys_glide_SP.sdf

> <s_m_Source_Path>
/Users/zhangxujun/Desktop

> <s_m_entry_id>
3163

> <s_m_entry_name>
wee1_decoys_glide_SP.2888

> <s_m_subgroup_title>
wee1_decoys_glide_SP

> <s_m_subgroupid>
wee1_decoys_glide_SP


$$$$
