ZINC67388809_6229
                    3D
 Schrodinger Suite 2024-2.
 61 62  0  0  1  0            999 V2000
    5.8548   60.4288   14.4451 C   0  0  0  0  0  0
    6.2596   58.9484   14.5539 C   0  0  0  0  0  0
    7.7956   58.8159   14.5986 C   0  0  0  0  0  0
    5.5602   58.2616   15.7525 C   0  0  0  0  0  0
    5.8196   56.7354   15.8280 C   0  0  0  0  0  0
    4.9754   55.9842   16.8657 C   0  0  0  0  0  0
    3.8794   56.4224   17.2244 O   0  0  0  0  0  0
    5.5263   54.8408   17.3287 N   0  0  0  0  0  0
    4.7936   54.0176   18.1821 N   0  0  0  0  0  0
    5.1118   54.0138   19.4903 C   0  0  0  0  0  0
    5.9044   54.7950   20.0289 O   0  0  0  0  0  0
    4.4196   53.0857   20.1655 N   0  0  0  0  0  0
    4.3416   53.0161   21.6269 C   0  0  0  0  0  0
    3.0052   52.5125   22.1632 C   0  0  0  0  0  0
    2.5095   51.3029   21.6433 C   0  0  0  0  0  0
    1.2950   50.7815   22.0842 C   0  0  0  0  0  0
    0.5594   51.4573   23.0523 C   0  0  0  0  0  0
    1.0398   52.6557   23.5780 C   0  0  0  0  0  0
    2.2676   53.1904   23.1631 C   0  0  0  0  0  0
    2.6833   54.5390   23.7801 C   0  0  0  0  0  0
    3.5566   54.4942   24.9673 N   0  0  0  0  0  0
    3.0305   53.6113   26.0186 C   0  0  0  0  0  0
    3.8843   53.6691   27.2992 C   0  0  0  0  0  0
    5.3436   53.3219   26.9384 N   0  3  0  0  0  0
    5.8743   54.3297   25.8987 C   0  0  0  0  0  0
    4.9738   54.2898   24.6454 C   0  0  0  0  0  0
    6.2328   53.3052   28.1993 C   0  0  0  0  0  0
    6.2411   61.0123   15.2828 H   0  0  0  0  0  0
    4.7701   60.5463   14.4392 H   0  0  0  0  0  0
    6.2325   60.8791   13.5265 H   0  0  0  0  0  0
    5.9138   58.4573   13.6435 H   0  0  0  0  0  0
    8.2035   59.2522   15.5138 H   0  0  0  0  0  0
    8.1142   57.7736   14.5531 H   0  0  0  0  0  0
    8.2606   59.3264   13.7522 H   0  0  0  0  0  0
    5.8756   58.7395   16.6822 H   0  0  0  0  0  0
    4.4862   58.4458   15.6711 H   0  0  0  0  0  0
    5.6044   56.2833   14.8587 H   0  0  0  0  0  0
    6.8759   56.5549   16.0359 H   0  0  0  0  0  0
    6.3491   54.3984   16.9432 H   0  0  0  0  0  0
    4.3649   53.2384   17.7055 H   0  0  0  0  0  0
    4.0399   52.3038   19.6478 H   0  0  0  0  0  0
    5.1231   52.3352   21.9716 H   0  0  0  0  0  0
    4.5958   53.9840   22.0532 H   0  0  0  0  0  0
    3.0659   50.7619   20.8910 H   0  0  0  0  0  0
    0.9259   49.8525   21.6738 H   0  0  0  0  0  0
   -0.3835   51.0560   23.3935 H   0  0  0  0  0  0
    0.4518   53.1667   24.3249 H   0  0  0  0  0  0
    3.1125   55.1786   23.0103 H   0  0  0  0  0  0
    1.7788   55.0780   24.0713 H   0  0  0  0  0  0
    1.9932   53.8571   26.2582 H   0  0  0  0  0  0
    3.0748   52.5887   25.6395 H   0  0  0  0  0  0
    3.5540   52.9058   28.0062 H   0  0  0  0  0  0
    3.8717   54.6527   27.7742 H   0  0  0  0  0  0
    6.8843   54.0000   25.6473 H   0  0  0  0  0  0
    5.9055   55.3156   26.3660 H   0  0  0  0  0  0
    5.0594   53.2937   24.2185 H   0  0  0  0  0  0
    5.3287   55.0235   23.9225 H   0  0  0  0  0  0
    6.2564   54.3112   28.6259 H   0  0  0  0  0  0
    5.7688   52.5946   28.8817 H   0  0  0  0  0  0
    7.2260   52.9711   27.9001 H   0  0  0  0  0  0
    5.3552   52.3952   26.5257 H   0  0  0  0  0  0
  1  2  1  0  0  0
  1 28  1  0  0  0
  1 29  1  0  0  0
  1 30  1  0  0  0
  2  3  1  0  0  0
  2  4  1  0  0  0
  2 31  1  0  0  0
  3 32  1  0  0  0
  3 33  1  0  0  0
  3 34  1  0  0  0
  4  5  1  0  0  0
  4 35  1  0  0  0
  4 36  1  0  0  0
  5  6  1  0  0  0
  5 37  1  0  0  0
  5 38  1  0  0  0
  6  7  2  0  0  0
  6  8  1  0  0  0
  8  9  1  0  0  0
  8 39  1  0  0  0
  9 10  1  0  0  0
  9 40  1  0  0  0
 10 11  2  0  0  0
 10 12  1  0  0  0
 12 13  1  0  0  0
 12 41  1  0  0  0
 13 14  1  0  0  0
 13 42  1  0  0  0
 13 43  1  0  0  0
 14 19  2  0  0  0
 14 15  1  0  0  0
 15 16  2  0  0  0
 15 44  1  0  0  0
 16 17  1  0  0  0
 16 45  1  0  0  0
 17 18  2  0  0  0
 17 46  1  0  0  0
 18 19  1  0  0  0
 18 47  1  0  0  0
 19 20  1  0  0  0
 20 21  1  0  0  0
 20 48  1  0  0  0
 20 49  1  0  0  0
 21 26  1  0  0  0
 21 22  1  0  0  0
 22 23  1  0  0  0
 22 50  1  0  0  0
 22 51  1  0  0  0
 23 24  1  0  0  0
 23 52  1  0  0  0
 23 53  1  0  0  0
 24 25  1  0  0  0
 24 27  1  0  0  0
 24 61  1  0  0  0
 25 26  1  0  0  0
 25 54  1  0  0  0
 25 55  1  0  0  0
 26 56  1  0  0  0
 26 57  1  0  0  0
 27 58  1  0  0  0
 27 59  1  0  0  0
 27 60  1  0  0  0
M  CHG  1  24   1
M  END
> <i_i_glide_confnum>
269

> <i_i_glide_lignum>
6230

> <i_i_glide_posenum>
108

> <i_i_glide_rotatable_bonds>
11

> <i_m_Source_File_Index>
289

> <b_m_subgroup_collapsed>
0

> <r_i_docking_score>
-3.51076

> <r_i_glide_ecoul>
-1.46822

> <r_i_glide_eff_state_penalty>
0

> <r_i_glide_einternal>
9.86386

> <r_i_glide_emodel>
-37.7617

> <r_i_glide_energy>
-32.2691

> <r_i_glide_erotb>
1.36554

> <r_i_glide_esite>
-0.0510961

> <r_i_glide_evdw>
-30.8009

> <r_i_glide_gscore>
-3.51076

> <r_i_glide_hbond>
0

> <r_i_glide_ligand_efficiency>
-0.130028

> <r_i_glide_ligand_efficiency_ln>
-0.817246

> <r_i_glide_ligand_efficiency_sa>
-0.390084

> <r_i_glide_lipo>
-2.19096

> <r_i_glide_metal>
0

> <r_i_glide_rewards>
-0.873965

> <s_i_glide_gridfile>
wee1_glide-grid

> <s_m_Source_File>
wee1_decoys_glide_SP.sdf

> <s_m_Source_Path>
/Users/zhangxujun/Desktop

> <s_m_entry_id>
564

> <s_m_entry_name>
wee1_decoys_glide_SP.289

> <s_m_subgroup_title>
wee1_decoys_glide_SP

> <s_m_subgroupid>
wee1_decoys_glide_SP


$$$$
