ZINC16804781_2254
                    3D
 Schrodinger Suite 2024-2.
 38 40  0  0  1  0            999 V2000
    3.2460   54.0507   26.1894 C   0  0  0  0  0  0
    4.5398   54.5215   25.9951 C   0  0  0  0  0  0
    5.5039   54.3071   26.9742 C   0  0  0  0  0  0
    5.1883   53.6141   28.1379 C   0  0  0  0  0  0
    3.8962   53.1308   28.3293 C   0  0  0  0  0  0
    2.9050   53.3557   27.3598 C   0  0  0  0  0  0
    1.5854   52.8444   27.5124 N   0  0  0  0  0  0
    0.7993   52.9677   28.6338 C   0  0  0  0  0  0
    1.0355   53.7576   30.0817 S   0  0  0  0  0  0
   -0.6857   52.0950   28.3636 S   0  0  0  0  0  0
   -0.1477   51.8190   26.7106 C   0  0  0  0  0  0
    1.0143   52.2343   26.4383 N   0  0  0  0  0  0
   -1.2485   51.0620   25.5089 S   0  0  0  0  0  0
   -1.1700   52.3002   24.1671 C   0  0  0  0  0  0
    0.0370   52.1039   23.2471 C   0  0  0  0  0  0
    1.0434   53.0747   23.2819 C   0  0  0  0  0  0
    2.1977   52.9429   22.5163 C   0  0  0  0  0  0
    2.3698   51.8346   21.6833 C   0  0  0  0  0  0
    1.3604   50.8616   21.6398 C   0  0  0  0  0  0
    0.1851   50.9843   22.3970 C   0  0  0  0  0  0
   -0.8491   49.9299   22.2697 N   0  3  0  0  0  0
   -0.4753   48.7698   22.1261 O   0  0  0  0  0  0
   -2.0315   50.2562   22.2562 O   0  5  0  0  0  0
    3.6299   51.6958   20.8673 C   0  0  0  0  0  0
    4.7142   52.0984   21.2817 O   0  0  0  0  0  0
    3.5043   51.1008   19.6818 N   0  0  0  0  0  0
    7.1044   54.8967   26.7378 Cl  0  0  0  0  0  0
    2.5153   54.2118   25.4147 H   0  0  0  0  0  0
    4.7956   55.0465   25.0868 H   0  0  0  0  0  0
    5.9510   53.4408   28.8810 H   0  0  0  0  0  0
    3.6788   52.5671   29.2245 H   0  0  0  0  0  0
   -1.1653   53.2971   24.6093 H   0  0  0  0  0  0
   -2.0923   52.2636   23.5909 H   0  0  0  0  0  0
    0.9332   53.9433   23.9127 H   0  0  0  0  0  0
    2.9554   53.7130   22.5698 H   0  0  0  0  0  0
    1.4834   49.9902   21.0097 H   0  0  0  0  0  0
    2.5948   50.8827   19.3093 H   0  0  0  0  0  0
    4.3336   50.9000   19.0968 H   0  0  0  0  0  0
  1  6  2  0  0  0
  1  2  1  0  0  0
  1 28  1  0  0  0
  2  3  2  0  0  0
  2 29  1  0  0  0
  3  4  1  0  0  0
  3 27  1  0  0  0
  4  5  2  0  0  0
  4 30  1  0  0  0
  5  6  1  0  0  0
  5 31  1  0  0  0
  6  7  1  0  0  0
  7 12  1  0  0  0
  7  8  1  0  0  0
  8  9  2  0  0  0
  8 10  1  0  0  0
 10 11  1  0  0  0
 11 12  2  0  0  0
 11 13  1  0  0  0
 13 14  1  0  0  0
 14 15  1  0  0  0
 14 32  1  0  0  0
 14 33  1  0  0  0
 15 20  2  0  0  0
 15 16  1  0  0  0
 16 17  2  0  0  0
 16 34  1  0  0  0
 17 18  1  0  0  0
 17 35  1  0  0  0
 18 19  2  0  0  0
 18 24  1  0  0  0
 19 20  1  0  0  0
 19 36  1  0  0  0
 20 21  1  0  0  0
 21 22  2  0  0  0
 21 23  1  0  0  0
 24 25  2  0  0  0
 24 26  1  0  0  0
 26 37  1  0  0  0
 26 38  1  0  0  0
M  CHG  2  21   1  23  -1
M  END
> <i_i_glide_confnum>
13

> <i_i_glide_lignum>
2255

> <i_i_glide_posenum>
228

> <i_i_glide_rotatable_bonds>
6

> <i_m_Source_File_Index>
5172

> <b_m_subgroup_collapsed>
0

> <r_i_docking_score>
-6.0425

> <r_i_glide_ecoul>
-6.58918

> <r_i_glide_eff_state_penalty>
0

> <r_i_glide_einternal>
6.40696

> <r_i_glide_emodel>
-62.4232

> <r_i_glide_energy>
-47.9809

> <r_i_glide_erotb>
0.414277

> <r_i_glide_esite>
-0.116911

> <r_i_glide_evdw>
-41.3917

> <r_i_glide_gscore>
-6.0425

> <r_i_glide_hbond>
-0.151432

> <r_i_glide_ligand_efficiency>
-0.223796

> <r_i_glide_ligand_efficiency_ln>
-1.40659

> <r_i_glide_ligand_efficiency_sa>
-0.671389

> <r_i_glide_lipo>
-2.17325

> <r_i_glide_metal>
0

> <r_i_glide_rewards>
-0.957227

> <s_i_glide_gridfile>
wee1_glide-grid

> <s_m_Source_File>
wee1_decoys_glide_SP.sdf

> <s_m_Source_Path>
/Users/zhangxujun/Desktop

> <s_m_entry_id>
5447

> <s_m_entry_name>
wee1_decoys_glide_SP.5172

> <s_m_subgroup_title>
wee1_decoys_glide_SP

> <s_m_subgroupid>
wee1_decoys_glide_SP


$$$$
