ZINC46816578_747
                    3D
 Schrodinger Suite 2024-2.
 69 72  0  0  1  0            999 V2000
    3.0173   58.8976   16.3535 C   0  0  0  0  0  0
    3.6073   57.5155   16.4865 C   0  0  0  0  0  0
    2.9704   56.2760   16.4235 C   0  0  0  0  0  0
    3.8352   55.1804   16.5168 C   0  0  0  0  0  0
    5.1542   55.5677   16.6758 C   0  0  0  0  0  0
    5.3148   57.2912   16.7499 S   0  0  0  0  0  0
    6.5774   54.4558   16.7235 S   0  0  0  0  0  0
    6.2088   53.2709   15.9418 O   0  0  0  0  0  0
    7.7572   55.2618   16.3871 O   0  0  0  0  0  0
    6.6411   54.0317   18.4422 N   0  0  0  0  0  0
    7.2112   55.0050   19.4097 C   0  0  0  0  0  0
    6.1324   55.6273   20.3225 C   0  0  0  0  0  0
    5.2451   54.5495   20.9789 C   0  0  0  0  0  0
    4.6205   53.6527   19.8807 C   0  0  1  0  0  0
    3.9118   54.2215   19.2756 H   0  0  0  0  0  0
    5.7039   53.0083   18.9813 C   0  0  0  0  0  0
    3.8393   52.5180   20.5715 C   0  0  0  0  0  0
    4.4229   51.6971   21.2815 O   0  0  0  0  0  0
    2.5099   52.4958   20.3752 N   0  0  0  0  0  0
    1.5940   51.5223   20.9711 C   0  0  0  0  0  0
    1.2700   51.7406   22.4513 C   0  0  0  0  0  0
    0.9883   50.6364   23.2607 C   0  0  0  0  0  0
    0.7040   50.8101   24.6113 C   0  0  0  0  0  0
    0.7202   52.0899   25.1699 C   0  0  0  0  0  0
    0.9980   53.1977   24.3637 C   0  0  0  0  0  0
    1.2781   53.0210   23.0136 C   0  0  0  0  0  0
    0.4147   52.2643   26.6508 C   0  0  0  0  0  0
    1.6585   52.1584   27.5649 N   0  3  2  0  0  0
    1.2290   51.9853   29.0409 C   0  0  0  0  0  0
    2.4928   51.8404   29.9059 C   0  0  0  0  0  0
    3.4171   53.0558   29.7480 C   0  0  0  0  0  0
    3.8540   53.2019   28.2796 C   0  0  1  0  0  0
    4.3614   52.2830   27.9886 H   0  0  0  0  0  0
    2.6150   53.3668   27.3663 C   0  0  0  0  0  0
    4.8522   54.3573   28.1028 C   0  0  0  0  0  0
    3.1049   59.4677   17.2786 H   0  0  0  0  0  0
    1.9599   58.8720   16.0853 H   0  0  0  0  0  0
    3.5232   59.4771   15.5810 H   0  0  0  0  0  0
    1.9055   56.1725   16.2845 H   0  0  0  0  0  0
    3.5156   54.1501   16.4490 H   0  0  0  0  0  0
    7.9959   54.5004   19.9760 H   0  0  0  0  0  0
    7.7153   55.7982   18.8533 H   0  0  0  0  0  0
    6.6066   56.2407   21.0873 H   0  0  0  0  0  0
    5.5099   56.3069   19.7348 H   0  0  0  0  0  0
    5.9077   53.9801   21.6349 H   0  0  0  0  0  0
    4.4793   55.0678   21.5588 H   0  0  0  0  0  0
    5.2385   52.5030   18.1317 H   0  0  0  0  0  0
    6.3040   52.2658   19.5026 H   0  0  0  0  0  0
    2.0901   53.2666   19.8716 H   0  0  0  0  0  0
    0.6548   51.5515   20.4200 H   0  0  0  0  0  0
    2.0062   50.5200   20.8310 H   0  0  0  0  0  0
    0.9892   49.6369   22.8471 H   0  0  0  0  0  0
    0.4870   49.9456   25.2240 H   0  0  0  0  0  0
    1.0146   54.1946   24.7794 H   0  0  0  0  0  0
    1.5030   53.8847   22.4006 H   0  0  0  0  0  0
   -0.0367   53.2278   26.8833 H   0  0  0  0  0  0
   -0.2705   51.4837   26.9861 H   0  0  0  0  0  0
    0.6176   52.8468   29.3178 H   0  0  0  0  0  0
    0.6282   51.0729   29.0936 H   0  0  0  0  0  0
    2.2130   51.6979   30.9509 H   0  0  0  0  0  0
    3.0403   50.9517   29.5954 H   0  0  0  0  0  0
    2.9264   53.9703   30.0820 H   0  0  0  0  0  0
    4.2959   52.9472   30.3858 H   0  0  0  0  0  0
    2.9290   53.3573   26.3198 H   0  0  0  0  0  0
    2.0528   54.2806   27.5709 H   0  0  0  0  0  0
    4.4081   55.2965   28.4262 H   0  0  0  0  0  0
    5.7576   54.1993   28.6936 H   0  0  0  0  0  0
    5.1584   54.4681   27.0590 H   0  0  0  0  0  0
    2.1665   51.3251   27.2942 H   0  0  0  0  0  0
  1  2  1  0  0  0
  1 36  1  0  0  0
  1 37  1  0  0  0
  1 38  1  0  0  0
  2  6  1  0  0  0
  2  3  2  0  0  0
  3  4  1  0  0  0
  3 39  1  0  0  0
  4  5  2  0  0  0
  4 40  1  0  0  0
  5  6  1  0  0  0
  5  7  1  0  0  0
  7  8  2  0  0  0
  7  9  2  0  0  0
  7 10  1  0  0  0
 10 16  1  0  0  0
 10 11  1  0  0  0
 11 12  1  0  0  0
 11 41  1  0  0  0
 11 42  1  0  0  0
 12 13  1  0  0  0
 12 43  1  0  0  0
 12 44  1  0  0  0
 13 14  1  0  0  0
 13 45  1  0  0  0
 13 46  1  0  0  0
 14 15  1  0  0  0
 14 16  1  0  0  0
 14 17  1  0  0  0
 16 47  1  0  0  0
 16 48  1  0  0  0
 17 18  2  0  0  0
 17 19  1  0  0  0
 19 20  1  0  0  0
 19 49  1  0  0  0
 20 21  1  0  0  0
 20 50  1  0  0  0
 20 51  1  0  0  0
 21 26  2  0  0  0
 21 22  1  0  0  0
 22 23  2  0  0  0
 22 52  1  0  0  0
 23 24  1  0  0  0
 23 53  1  0  0  0
 24 25  2  0  0  0
 24 27  1  0  0  0
 25 26  1  0  0  0
 25 54  1  0  0  0
 26 55  1  0  0  0
 27 28  1  0  0  0
 27 56  1  0  0  0
 27 57  1  0  0  0
 28 34  1  0  0  0
 28 29  1  0  0  0
 28 69  1  0  0  0
 29 30  1  0  0  0
 29 58  1  0  0  0
 29 59  1  0  0  0
 30 31  1  0  0  0
 30 60  1  0  0  0
 30 61  1  0  0  0
 31 32  1  0  0  0
 31 62  1  0  0  0
 31 63  1  0  0  0
 32 33  1  0  0  0
 32 34  1  0  0  0
 32 35  1  0  0  0
 34 64  1  0  0  0
 34 65  1  0  0  0
 35 66  1  0  0  0
 35 67  1  0  0  0
 35 68  1  0  0  0
M  CHG  1  28   1
M  END
> <i_i_glide_confnum>
233

> <i_i_glide_lignum>
748

> <i_i_glide_posenum>
367

> <i_i_glide_rotatable_bonds>
8

> <i_m_Source_File_Index>
5736

> <b_m_subgroup_collapsed>
0

> <r_i_docking_score>
-3.84645

> <r_i_glide_ecoul>
-1.75927

> <r_i_glide_eff_state_penalty>
0

> <r_i_glide_einternal>
2.13371

> <r_i_glide_emodel>
-48.3924

> <r_i_glide_energy>
-38.0823

> <r_i_glide_erotb>
0.676188

> <r_i_glide_esite>
-0.0609793

> <r_i_glide_evdw>
-36.323

> <r_i_glide_gscore>
-3.84645

> <r_i_glide_hbond>
-0.229234

> <r_i_glide_ligand_efficiency>
-0.116559

> <r_i_glide_ligand_efficiency_ln>
-0.855431

> <r_i_glide_ligand_efficiency_sa>
-0.373868

> <r_i_glide_lipo>
-2.09398

> <r_i_glide_metal>
0

> <r_i_glide_rewards>
-0.0584061

> <s_i_glide_gridfile>
wee1_glide-grid

> <s_m_Source_File>
wee1_decoys_glide_SP.sdf

> <s_m_Source_Path>
/Users/zhangxujun/Desktop

> <s_m_entry_id>
6011

> <s_m_entry_name>
wee1_decoys_glide_SP.5736

> <s_m_subgroup_title>
wee1_decoys_glide_SP

> <s_m_subgroupid>
wee1_decoys_glide_SP


$$$$
