ZINC20570485_681
                    3D
 Schrodinger Suite 2024-2.
 48 52  0  0  1  0            999 V2000
    0.3944   52.9422   28.4783 C   0  0  0  0  0  0
    1.8180   53.3753   28.2164 C   0  0  0  0  0  0
    2.2768   53.5579   27.0058 N   0  0  0  0  0  0
    3.5864   53.9181   27.0294 C   0  0  0  0  0  0
    4.1880   54.0360   28.2973 C   0  0  0  0  0  0
    2.9762   53.6556   29.5101 S   0  0  0  0  0  0
    5.5357   54.3944   28.4315 C   0  0  0  0  0  0
    6.3150   54.6108   27.2888 C   0  0  0  0  0  0
    5.7409   54.4967   26.0123 C   0  0  0  0  0  0
    4.3737   54.1588   25.8826 C   0  0  0  0  0  0
    3.9296   54.0969   24.1869 S   0  0  0  0  0  0
    5.6118   54.4893   23.8110 C   0  0  0  0  0  0
    6.3990   54.6743   24.8361 N   0  0  0  0  0  0
    6.1219   54.6369   22.5266 N   0  0  0  0  0  0
    5.4706   54.4979   21.3505 C   0  0  0  0  0  0
    4.2957   54.1469   21.2396 O   0  0  0  0  0  0
    6.3005   54.7444   20.1114 C   0  0  0  0  0  0
    7.4233   55.5880   20.1262 C   0  0  0  0  0  0
    8.1918   55.7607   18.9766 C   0  0  0  0  0  0
    7.8521   55.0942   17.7974 C   0  0  0  0  0  0
    6.7396   54.2422   17.7573 C   0  0  0  0  0  0
    5.9720   54.0866   18.9146 C   0  0  0  0  0  0
    6.3229   53.5202   16.6260 N   0  0  0  0  0  0
    7.1634   53.3907   15.0641 S   0  0  0  0  0  0
    7.8430   54.6579   14.7807 O   0  0  0  0  0  0
    6.1689   52.8597   14.1258 O   0  0  0  0  0  0
    8.4242   52.1273   15.2483 C   0  0  0  0  0  0
    9.2950   52.1496   16.3391 C   0  0  0  0  0  0
   10.2888   51.1810   16.4489 C   0  0  0  0  0  0
   10.4120   50.1978   15.4732 C   0  0  0  0  0  0
    9.5424   50.1644   14.3862 C   0  0  0  0  0  0
    8.5468   51.1351   14.2702 C   0  0  0  0  0  0
   11.3932   49.2785   15.5782 F   0  0  0  0  0  0
    0.1749   51.9842   28.0064 H   0  0  0  0  0  0
    0.1889   52.8236   29.5424 H   0  0  0  0  0  0
   -0.3237   53.6659   28.0907 H   0  0  0  0  0  0
    5.9882   54.4963   29.4037 H   0  0  0  0  0  0
    7.3584   54.8658   27.4077 H   0  0  0  0  0  0
    7.0992   54.8783   22.4798 H   0  0  0  0  0  0
    7.7210   56.1078   21.0254 H   0  0  0  0  0  0
    9.0571   56.4065   18.9996 H   0  0  0  0  0  0
    8.4831   55.2503   16.9388 H   0  0  0  0  0  0
    5.1158   53.4234   18.8856 H   0  0  0  0  0  0
    5.5212   52.9187   16.7348 H   0  0  0  0  0  0
    9.2182   52.9100   17.1016 H   0  0  0  0  0  0
   10.9715   51.1929   17.2815 H   0  0  0  0  0  0
    9.6491   49.3997   13.6318 H   0  0  0  0  0  0
    7.8820   51.1122   13.4178 H   0  0  0  0  0  0
  1  2  1  0  0  0
  1 34  1  0  0  0
  1 35  1  0  0  0
  1 36  1  0  0  0
  2  6  1  0  0  0
  2  3  2  0  0  0
  3  4  1  0  0  0
  4 10  2  0  0  0
  4  5  1  0  0  0
  5  6  1  0  0  0
  5  7  2  0  0  0
  7  8  1  0  0  0
  7 37  1  0  0  0
  8  9  2  0  0  0
  8 38  1  0  0  0
  9 13  1  0  0  0
  9 10  1  0  0  0
 10 11  1  0  0  0
 11 12  1  0  0  0
 12 13  2  0  0  0
 12 14  1  0  0  0
 14 15  1  0  0  0
 14 39  1  0  0  0
 15 16  2  0  0  0
 15 17  1  0  0  0
 17 22  2  0  0  0
 17 18  1  0  0  0
 18 19  2  0  0  0
 18 40  1  0  0  0
 19 20  1  0  0  0
 19 41  1  0  0  0
 20 21  2  0  0  0
 20 42  1  0  0  0
 21 22  1  0  0  0
 21 23  1  0  0  0
 22 43  1  0  0  0
 23 24  1  0  0  0
 23 44  1  0  0  0
 24 25  2  0  0  0
 24 26  2  0  0  0
 24 27  1  0  0  0
 27 32  2  0  0  0
 27 28  1  0  0  0
 28 29  2  0  0  0
 28 45  1  0  0  0
 29 30  1  0  0  0
 29 46  1  0  0  0
 30 31  2  0  0  0
 30 33  1  0  0  0
 31 32  1  0  0  0
 31 47  1  0  0  0
 32 48  1  0  0  0
M  END
> <i_i_glide_confnum>
12

> <i_i_glide_lignum>
682

> <i_i_glide_posenum>
209

> <i_i_glide_rotatable_bonds>
6

> <i_m_Source_File_Index>
1570

> <b_m_subgroup_collapsed>
0

> <r_i_docking_score>
-5.08928

> <r_i_glide_ecoul>
-0.974562

> <r_i_glide_eff_state_penalty>
0

> <r_i_glide_einternal>
1.4166

> <r_i_glide_emodel>
-63.7619

> <r_i_glide_energy>
-50.7872

> <r_i_glide_erotb>
0.492569

> <r_i_glide_esite>
-0.0247466

> <r_i_glide_evdw>
-49.8126

> <r_i_glide_gscore>
-5.08928

> <r_i_glide_hbond>
0

> <r_i_glide_ligand_efficiency>
-0.154221

> <r_i_glide_ligand_efficiency_ln>
-1.13183

> <r_i_glide_ligand_efficiency_sa>
-0.494668

> <r_i_glide_lipo>
-3.22762

> <r_i_glide_metal>
0

> <r_i_glide_rewards>
0.307334

> <s_i_glide_gridfile>
wee1_glide-grid

> <s_m_Source_File>
wee1_decoys_glide_SP.sdf

> <s_m_Source_Path>
/Users/zhangxujun/Desktop

> <s_m_entry_id>
1845

> <s_m_entry_name>
wee1_decoys_glide_SP.1570

> <s_m_subgroup_title>
wee1_decoys_glide_SP

> <s_m_subgroupid>
wee1_decoys_glide_SP


$$$$
