ZINC36019356_4039
                    3D
 Schrodinger Suite 2024-2.
 69 73  0  0  1  0            999 V2000
    5.9560   55.0849   19.5585 C   0  0  0  0  0  0
    5.9043   54.8412   21.0551 C   0  0  0  0  0  0
    6.7804   55.5063   21.9097 C   0  0  0  0  0  0
    6.7044   55.2967   23.2845 C   0  0  0  0  0  0
    5.7541   54.4218   23.8326 C   0  0  0  0  0  0
    4.9391   53.6967   22.9459 C   0  0  0  0  0  0
    4.9951   53.9227   21.5736 C   0  0  0  0  0  0
    5.6893   54.2634   25.3486 C   0  0  0  0  0  0
    6.7368   54.4471   25.9805 O   0  0  0  0  0  0
    4.5129   53.9627   25.9854 N   0  0  0  0  0  0
    3.2113   54.3038   25.3806 C   0  0  0  0  0  0
    2.0231   54.0885   26.3429 C   0  0  0  0  0  0
    2.1248   52.9061   27.1941 N   0  0  0  0  0  0
    3.3500   53.0374   28.0153 C   0  0  0  0  0  0
    4.5488   53.8601   27.4577 C   0  0  0  0  0  0
    0.9251   52.3495   27.6707 C   0  0  0  0  0  0
    0.7058   52.3015   29.0624 C   0  0  0  0  0  0
   -0.4934   51.8542   29.6074 C   0  0  0  0  0  0
   -1.4989   51.3895   28.7727 C   0  0  0  0  0  0
   -1.2749   51.3482   27.4034 C   0  0  0  0  0  0
   -0.1225   51.8859   26.8143 C   0  0  0  0  0  0
    0.0257   51.7416   25.3042 C   0  0  0  0  0  0
    1.1044   51.3634   24.8534 O   0  0  0  0  0  0
   -1.0199   52.0230   24.4675 N   0  0  0  0  0  0
   -0.8917   51.7810   23.0156 C   0  0  0  0  0  0
   -1.8453   50.6134   22.6797 C   0  0  0  0  0  0
   -3.2974   50.9166   23.1001 C   0  0  0  0  0  0
   -3.3858   51.4145   24.5509 C   0  0  0  0  0  0
   -2.3516   52.5302   24.8577 C   0  0  0  0  0  0
   -2.6674   50.8967   29.3624 N   0  0  0  0  0  0
   -3.9274   50.8967   28.8818 C   0  0  0  0  0  0
   -4.2651   51.3654   27.7924 O   0  0  0  0  0  0
   -4.8936   50.3481   29.8053 C   0  0  0  0  0  0
   -4.7580   50.0968   31.1779 C   0  0  0  0  0  0
   -5.9360   49.6348   31.7729 C   0  0  0  0  0  0
   -6.9858   49.5382   30.8721 C   0  0  0  0  0  0
   -6.5251   50.0352   29.2760 S   0  0  0  0  0  0
    4.9539   55.2891   19.1786 H   0  0  0  0  0  0
    6.5853   55.9376   19.3011 H   0  0  0  0  0  0
    6.3288   54.1989   19.0427 H   0  0  0  0  0  0
    7.5208   56.1867   21.5169 H   0  0  0  0  0  0
    7.3885   55.8388   23.9231 H   0  0  0  0  0  0
    4.2624   52.9306   23.2828 H   0  0  0  0  0  0
    4.3414   53.3711   20.9127 H   0  0  0  0  0  0
    2.9936   53.5734   24.6084 H   0  0  0  0  0  0
    3.1925   55.2967   24.9353 H   0  0  0  0  0  0
    1.1044   54.0967   25.7663 H   0  0  0  0  0  0
    1.9786   54.8967   27.0680 H   0  0  0  0  0  0
    3.1335   53.4580   28.9954 H   0  0  0  0  0  0
    3.7109   52.0183   28.1263 H   0  0  0  0  0  0
    4.3738   54.8799   27.8044 H   0  0  0  0  0  0
    5.4838   53.4756   27.8697 H   0  0  0  0  0  0
    1.4456   52.6438   29.7651 H   0  0  0  0  0  0
   -0.6291   51.8542   30.6812 H   0  0  0  0  0  0
   -2.0100   50.8459   26.8044 H   0  0  0  0  0  0
   -1.2143   52.6878   22.5034 H   0  0  0  0  0  0
    0.1353   51.6269   22.6791 H   0  0  0  0  0  0
   -1.8081   50.4093   21.6093 H   0  0  0  0  0  0
   -1.4926   49.7023   23.1665 H   0  0  0  0  0  0
   -3.9314   50.0408   22.9547 H   0  0  0  0  0  0
   -3.6956   51.6967   22.4644 H   0  0  0  0  0  0
   -3.2680   50.5602   25.2142 H   0  0  0  0  0  0
   -4.3895   51.7898   24.7536 H   0  0  0  0  0  0
   -2.4012   52.9534   25.8606 H   0  0  0  0  0  0
   -2.5535   53.3865   24.2129 H   0  0  0  0  0  0
   -2.5136   50.3963   30.2303 H   0  0  0  0  0  0
   -3.8441   50.2461   31.7386 H   0  0  0  0  0  0
   -6.0152   49.3872   32.8218 H   0  0  0  0  0  0
   -7.9970   49.2129   31.0675 H   0  0  0  0  0  0
  1  2  1  0  0  0
  1 38  1  0  0  0
  1 39  1  0  0  0
  1 40  1  0  0  0
  2  7  2  0  0  0
  2  3  1  0  0  0
  3  4  2  0  0  0
  3 41  1  0  0  0
  4  5  1  0  0  0
  4 42  1  0  0  0
  5  6  2  0  0  0
  5  8  1  0  0  0
  6  7  1  0  0  0
  6 43  1  0  0  0
  7 44  1  0  0  0
  8  9  2  0  0  0
  8 10  1  0  0  0
 10 15  1  0  0  0
 10 11  1  0  0  0
 11 12  1  0  0  0
 11 45  1  0  0  0
 11 46  1  0  0  0
 12 13  1  0  0  0
 12 47  1  0  0  0
 12 48  1  0  0  0
 13 14  1  0  0  0
 13 16  1  0  0  0
 14 15  1  0  0  0
 14 49  1  0  0  0
 14 50  1  0  0  0
 15 51  1  0  0  0
 15 52  1  0  0  0
 16 21  2  0  0  0
 16 17  1  0  0  0
 17 18  2  0  0  0
 17 53  1  0  0  0
 18 19  1  0  0  0
 18 54  1  0  0  0
 19 20  2  0  0  0
 19 30  1  0  0  0
 20 21  1  0  0  0
 20 55  1  0  0  0
 21 22  1  0  0  0
 22 23  2  0  0  0
 22 24  1  0  0  0
 24 29  1  0  0  0
 24 25  1  0  0  0
 25 26  1  0  0  0
 25 56  1  0  0  0
 25 57  1  0  0  0
 26 27  1  0  0  0
 26 58  1  0  0  0
 26 59  1  0  0  0
 27 28  1  0  0  0
 27 60  1  0  0  0
 27 61  1  0  0  0
 28 29  1  0  0  0
 28 62  1  0  0  0
 28 63  1  0  0  0
 29 64  1  0  0  0
 29 65  1  0  0  0
 30 31  1  0  0  0
 30 66  1  0  0  0
 31 32  2  0  0  0
 31 33  1  0  0  0
 33 37  1  0  0  0
 33 34  2  0  0  0
 34 35  1  0  0  0
 34 67  1  0  0  0
 35 36  2  0  0  0
 35 68  1  0  0  0
 36 37  1  0  0  0
 36 69  1  0  0  0
M  END
> <i_i_glide_confnum>
993

> <i_i_glide_lignum>
4040

> <i_i_glide_posenum>
75

> <i_i_glide_rotatable_bonds>
8

> <i_m_Source_File_Index>
5630

> <b_m_subgroup_collapsed>
0

> <r_i_docking_score>
-5.46508

> <r_i_glide_ecoul>
-3.57443

> <r_i_glide_eff_state_penalty>
0

> <r_i_glide_einternal>
6.09182

> <r_i_glide_emodel>
-55.6091

> <r_i_glide_energy>
-43.7641

> <r_i_glide_erotb>
0.615195

> <r_i_glide_esite>
-0.177859

> <r_i_glide_evdw>
-40.1897

> <r_i_glide_gscore>
-5.46508

> <r_i_glide_hbond>
-0.180327

> <r_i_glide_ligand_efficiency>
-0.147705

> <r_i_glide_ligand_efficiency_ln>
-1.18525

> <r_i_glide_ligand_efficiency_sa>
-0.492186

> <r_i_glide_lipo>
-2.34713

> <r_i_glide_metal>
0

> <r_i_glide_rewards>
-0.829313

> <s_i_glide_gridfile>
wee1_glide-grid

> <s_m_Source_File>
wee1_decoys_glide_SP.sdf

> <s_m_Source_Path>
/Users/zhangxujun/Desktop

> <s_m_entry_id>
5905

> <s_m_entry_name>
wee1_decoys_glide_SP.5630

> <s_m_subgroup_title>
wee1_decoys_glide_SP

> <s_m_subgroupid>
wee1_decoys_glide_SP


$$$$
