ZINC18096094_1975
                    3D
 Schrodinger Suite 2024-2.
 60 64  0  0  1  0            999 V2000
    4.6960   57.0321   16.7643 C   0  0  0  0  0  0
    5.1291   55.7731   17.4897 C   0  0  0  0  0  0
    6.3548   55.1686   17.1958 C   0  0  0  0  0  0
    6.7229   54.0266   17.9063 C   0  0  0  0  0  0
    5.9495   53.4848   18.8810 N   0  0  0  0  0  0
    4.7579   54.0775   19.1676 C   0  0  0  0  0  0
    4.3160   55.2164   18.4814 C   0  0  0  0  0  0
    3.9041   53.5920   20.1698 N   0  0  0  0  0  0
    4.0612   52.5365   20.9989 C   0  0  0  0  0  0
    5.0157   51.7615   21.0146 O   0  0  0  0  0  0
    2.9370   52.3798   21.8972 C   0  0  0  0  0  0
    2.6547   53.2890   22.8650 C   0  0  0  0  0  0
    1.5661   53.2264   23.6760 N   0  0  0  0  0  0
    0.7493   52.2446   23.6560 C   0  0  0  0  0  0
   -0.4287   52.2775   24.6392 C   0  0  0  0  0  0
   -1.5821   51.3293   24.2088 C   0  0  1  0  0  0
   -2.0215   51.6927   23.2757 H   0  0  0  0  0  0
   -1.0256   49.9059   23.9381 C   0  0  0  0  0  0
    0.0658   50.0405   22.8788 C   0  0  0  0  0  0
    0.9006   51.1032   22.7509 C   0  0  0  0  0  0
    2.0099   51.1731   21.6581 C   0  0  1  0  0  0
    2.6158   50.2707   21.7620 H   0  0  0  0  0  0
    1.4242   51.2114   20.2499 C   0  0  0  0  0  0
    0.2831   51.8838   19.7807 C   0  0  0  0  0  0
    0.0698   51.7381   18.4920 N   0  0  0  0  0  0
    1.0665   50.9456   18.0844 N   0  0  0  0  0  0
    1.9144   50.6045   19.1022 C   0  0  0  0  0  0
    1.1759   50.5913   16.6834 C   0  0  0  0  0  0
    0.1115   48.9963   22.1265 O   0  5  0  0  0  0
   -2.7060   51.3567   25.2501 C   0  0  0  0  0  0
   -2.5810   50.6733   26.4651 C   0  0  0  0  0  0
   -3.6156   50.7002   27.3960 C   0  0  0  0  0  0
   -4.7775   51.4121   27.1125 C   0  0  0  0  0  0
   -4.9142   52.1001   25.9104 C   0  0  0  0  0  0
   -3.8796   52.0699   24.9794 C   0  0  0  0  0  0
    3.5115   54.4943   23.2202 C   0  0  0  0  0  0
    5.5608   57.6390   16.4920 H   0  0  0  0  0  0
    4.0686   57.6555   17.4036 H   0  0  0  0  0  0
    4.1415   56.7867   15.8584 H   0  0  0  0  0  0
    7.0047   55.5747   16.4338 H   0  0  0  0  0  0
    7.6588   53.5281   17.7023 H   0  0  0  0  0  0
    3.3662   55.6695   18.7183 H   0  0  0  0  0  0
    3.0277   54.0876   20.2568 H   0  0  0  0  0  0
   -0.0581   52.0218   25.6330 H   0  0  0  0  0  0
   -0.8142   53.2962   24.6978 H   0  0  0  0  0  0
   -0.5504   49.5038   24.8359 H   0  0  0  0  0  0
   -1.8379   49.2347   23.6501 H   0  0  0  0  0  0
   -0.3661   52.4916   20.3909 H   0  0  0  0  0  0
    2.7906   49.9956   18.9175 H   0  0  0  0  0  0
    1.9038   49.7865   16.5624 H   0  0  0  0  0  0
    0.2095   50.2518   16.3106 H   0  0  0  0  0  0
    1.5086   51.4642   16.1188 H   0  0  0  0  0  0
   -1.6877   50.1141   26.7016 H   0  0  0  0  0  0
   -3.5072   50.1626   28.3282 H   0  0  0  0  0  0
   -5.5795   51.4263   27.8331 H   0  0  0  0  0  0
   -5.8189   52.6497   25.6996 H   0  0  0  0  0  0
   -3.9941   52.6036   24.0486 H   0  0  0  0  0  0
    3.2362   55.2962   22.5456 H   0  0  0  0  0  0
    3.3736   54.8344   24.2491 H   0  0  0  0  0  0
    4.5718   54.2883   23.0840 H   0  0  0  0  0  0
  1  2  1  0  0  0
  1 37  1  0  0  0
  1 38  1  0  0  0
  1 39  1  0  0  0
  2  7  2  0  0  0
  2  3  1  0  0  0
  3  4  2  0  0  0
  3 40  1  0  0  0
  4  5  1  0  0  0
  4 41  1  0  0  0
  5  6  2  0  0  0
  6  7  1  0  0  0
  6  8  1  0  0  0
  7 42  1  0  0  0
  8  9  1  0  0  0
  8 43  1  0  0  0
  9 10  2  0  0  0
  9 11  1  0  0  0
 11 21  1  0  0  0
 11 12  2  0  0  0
 12 13  1  0  0  0
 12 36  1  0  0  0
 13 14  2  0  0  0
 14 20  1  0  0  0
 14 15  1  0  0  0
 15 16  1  0  0  0
 15 44  1  0  0  0
 15 45  1  0  0  0
 16 17  1  0  0  0
 16 18  1  0  0  0
 16 30  1  0  0  0
 18 19  1  0  0  0
 18 46  1  0  0  0
 18 47  1  0  0  0
 19 20  2  0  0  0
 19 29  1  0  0  0
 20 21  1  0  0  0
 21 22  1  0  0  0
 21 23  1  0  0  0
 23 27  2  0  0  0
 23 24  1  0  0  0
 24 25  2  0  0  0
 24 48  1  0  0  0
 25 26  1  0  0  0
 26 27  1  0  0  0
 26 28  1  0  0  0
 27 49  1  0  0  0
 28 50  1  0  0  0
 28 51  1  0  0  0
 28 52  1  0  0  0
 30 35  2  0  0  0
 30 31  1  0  0  0
 31 32  2  0  0  0
 31 53  1  0  0  0
 32 33  1  0  0  0
 32 54  1  0  0  0
 33 34  2  0  0  0
 33 55  1  0  0  0
 34 35  1  0  0  0
 34 56  1  0  0  0
 35 57  1  0  0  0
 36 58  1  0  0  0
 36 59  1  0  0  0
 36 60  1  0  0  0
M  CHG  1  29  -1
M  END
> <i_i_glide_confnum>
8

> <i_i_glide_lignum>
1976

> <i_i_glide_posenum>
223

> <i_i_glide_rotatable_bonds>
5

> <i_m_Source_File_Index>
4212

> <b_m_subgroup_collapsed>
0

> <r_i_docking_score>
-3.56965

> <r_i_glide_ecoul>
-5.56697

> <r_i_glide_eff_state_penalty>
0

> <r_i_glide_einternal>
0.251336

> <r_i_glide_emodel>
-47.9136

> <r_i_glide_energy>
-39.0833

> <r_i_glide_erotb>
0.489933

> <r_i_glide_esite>
-0.0469077

> <r_i_glide_evdw>
-33.5164

> <r_i_glide_gscore>
-3.56965

> <r_i_glide_hbond>
-0.320525

> <r_i_glide_ligand_efficiency>
-0.10499

> <r_i_glide_ligand_efficiency_ln>
-0.788636

> <r_i_glide_ligand_efficiency_sa>
-0.340126

> <r_i_glide_lipo>
-0.624477

> <r_i_glide_metal>
0

> <r_i_glide_rewards>
-0.556813

> <s_i_glide_gridfile>
wee1_glide-grid

> <s_m_Source_File>
wee1_decoys_glide_SP.sdf

> <s_m_Source_Path>
/Users/zhangxujun/Desktop

> <s_m_entry_id>
4487

> <s_m_entry_name>
wee1_decoys_glide_SP.4212

> <s_m_subgroup_title>
wee1_decoys_glide_SP

> <s_m_subgroupid>
wee1_decoys_glide_SP


$$$$
