ZINC48752580_6202
                    3D
 Schrodinger Suite 2024-2.
 56 58  0  0  1  0            999 V2000
    2.9139   51.9722   17.6694 C   0  0  0  0  0  0
    3.9219   53.0101   18.2311 N   0  3  0  0  0  0
    3.6531   54.3759   17.5481 C   0  0  0  0  0  0
    4.0550   53.0491   19.7946 C   0  0  0  0  0  0
    4.5975   51.7234   20.3800 C   0  0  0  0  0  0
    3.8992   51.5197   21.7090 C   0  0  0  0  0  0
    2.4904   52.0021   21.4595 C   0  0  0  0  0  0
    2.7045   53.2138   20.5597 C   0  0  0  0  0  0
    5.0648   54.2061   20.1688 C   0  0  0  0  0  0
    5.2479   54.3761   21.6139 N   0  0  0  0  0  0
    6.3095   54.8968   22.2753 C   0  0  0  0  0  0
    7.2831   55.3604   21.6811 O   0  0  0  0  0  0
    6.2281   54.8961   23.7891 C   0  0  0  0  0  0
    7.1044   55.4136   24.4824 O   0  0  0  0  0  0
    5.1069   54.3324   24.3003 N   0  0  0  0  0  0
    4.6864   54.2024   25.6269 C   0  0  0  0  0  0
    3.3377   53.8913   25.7830 C   0  0  0  0  0  0
    2.8114   53.6961   27.0515 C   0  0  0  0  0  0
    3.6302   53.8116   28.1822 C   0  0  0  0  0  0
    4.9875   54.1170   28.0186 C   0  0  0  0  0  0
    5.5180   54.3148   26.7475 C   0  0  0  0  0  0
    3.0759   53.5788   29.5631 C   0  0  0  0  0  0
    3.8150   53.2470   30.4878 O   0  0  0  0  0  0
    1.7532   53.7687   29.7048 N   0  0  0  0  0  0
    0.9469   53.5506   30.9007 C   0  0  0  0  0  0
    0.0120   52.3687   30.8697 C   0  0  0  0  0  0
    1.1821   52.3631   31.8146 C   0  0  0  0  0  0
    1.8986   52.3053   17.8856 H   0  0  0  0  0  0
    3.0770   51.9205   16.5904 H   0  0  0  0  0  0
    3.1037   50.9856   18.0855 H   0  0  0  0  0  0
    2.7798   54.8220   18.0297 H   0  0  0  0  0  0
    4.5417   54.9996   17.6525 H   0  0  0  0  0  0
    3.4689   54.1995   16.4864 H   0  0  0  0  0  0
    5.6828   51.6968   20.4516 H   0  0  0  0  0  0
    4.3042   50.8772   19.7724 H   0  0  0  0  0  0
    4.3946   52.1039   22.4751 H   0  0  0  0  0  0
    3.8996   50.4950   22.0420 H   0  0  0  0  0  0
    1.9606   52.2458   22.3826 H   0  0  0  0  0  0
    1.9152   51.2346   20.9372 H   0  0  0  0  0  0
    1.8594   53.2966   19.8807 H   0  0  0  0  0  0
    2.7057   54.0967   21.2014 H   0  0  0  0  0  0
    6.0263   54.0369   19.6814 H   0  0  0  0  0  0
    4.7025   55.1689   19.8156 H   0  0  0  0  0  0
    4.4630   54.0350   22.1375 H   0  0  0  0  0  0
    4.4234   53.9933   23.6504 H   0  0  0  0  0  0
    2.6833   53.7850   24.9289 H   0  0  0  0  0  0
    1.7664   53.4341   27.1340 H   0  0  0  0  0  0
    5.6442   54.2017   28.8745 H   0  0  0  0  0  0
    6.5709   54.5252   26.6574 H   0  0  0  0  0  0
    1.2662   54.1805   28.9248 H   0  0  0  0  0  0
    0.5816   54.4744   31.3530 H   0  0  0  0  0  0
   -0.9830   52.4970   31.2813 H   0  0  0  0  0  0
    0.0200   51.6972   30.0105 H   0  0  0  0  0  0
    2.0213   51.6967   31.6244 H   0  0  0  0  0  0
    0.9767   52.4702   32.8804 H   0  0  0  0  0  0
    4.8187   52.6648   17.9065 H   0  0  0  0  0  0
  1  2  1  0  0  0
  1 28  1  0  0  0
  1 29  1  0  0  0
  1 30  1  0  0  0
  2  3  1  0  0  0
  2  4  1  0  0  0
  2 56  1  0  0  0
  3 31  1  0  0  0
  3 32  1  0  0  0
  3 33  1  0  0  0
  4  8  1  0  0  0
  4  5  1  0  0  0
  4  9  1  0  0  0
  5  6  1  0  0  0
  5 34  1  0  0  0
  5 35  1  0  0  0
  6  7  1  0  0  0
  6 36  1  0  0  0
  6 37  1  0  0  0
  7  8  1  0  0  0
  7 38  1  0  0  0
  7 39  1  0  0  0
  8 40  1  0  0  0
  8 41  1  0  0  0
  9 10  1  0  0  0
  9 42  1  0  0  0
  9 43  1  0  0  0
 10 11  1  0  0  0
 10 44  1  0  0  0
 11 12  2  0  0  0
 11 13  1  0  0  0
 13 14  2  0  0  0
 13 15  1  0  0  0
 15 16  1  0  0  0
 15 45  1  0  0  0
 16 21  2  0  0  0
 16 17  1  0  0  0
 17 18  2  0  0  0
 17 46  1  0  0  0
 18 19  1  0  0  0
 18 47  1  0  0  0
 19 20  2  0  0  0
 19 22  1  0  0  0
 20 21  1  0  0  0
 20 48  1  0  0  0
 21 49  1  0  0  0
 22 23  2  0  0  0
 22 24  1  0  0  0
 24 25  1  0  0  0
 24 50  1  0  0  0
 25 27  1  0  0  0
 25 26  1  0  0  0
 25 51  1  0  0  0
 26 27  1  0  0  0
 26 52  1  0  0  0
 26 53  1  0  0  0
 27 54  1  0  0  0
 27 55  1  0  0  0
M  CHG  1   2   1
M  END
> <i_i_glide_confnum>
1

> <i_i_glide_lignum>
6203

> <i_i_glide_posenum>
262

> <i_i_glide_rotatable_bonds>
10

> <i_m_Source_File_Index>
29

> <b_m_subgroup_collapsed>
0

> <r_i_docking_score>
-5.23222

> <r_i_glide_ecoul>
-5.89946

> <r_i_glide_eff_state_penalty>
0

> <r_i_glide_einternal>
8.45627

> <r_i_glide_emodel>
-51.2587

> <r_i_glide_energy>
-39.6635

> <r_i_glide_erotb>
1.24699

> <r_i_glide_esite>
-0.0658198

> <r_i_glide_evdw>
-33.7641

> <r_i_glide_gscore>
-5.23222

> <r_i_glide_hbond>
-0.431478

> <r_i_glide_ligand_efficiency>
-0.193786

> <r_i_glide_ligand_efficiency_ln>
-1.21797

> <r_i_glide_ligand_efficiency_sa>
-0.581358

> <r_i_glide_lipo>
-1.58008

> <r_i_glide_metal>
0

> <r_i_glide_rewards>
-1.82871

> <s_i_glide_gridfile>
wee1_glide-grid

> <s_m_Source_File>
wee1_decoys_glide_SP.sdf

> <s_m_Source_Path>
/Users/zhangxujun/Desktop

> <s_m_entry_id>
304

> <s_m_entry_name>
wee1_decoys_glide_SP.29

> <s_m_subgroup_title>
wee1_decoys_glide_SP

> <s_m_subgroupid>
wee1_decoys_glide_SP


$$$$
