ZINC06148075_4513
                    3D
 Schrodinger Suite 2024-2.
 55 58  0  0  1  0            999 V2000
    6.2303   54.1053   25.7180 C   0  0  0  0  0  0
    6.8790   53.7036   26.8822 C   0  0  0  0  0  0
    6.2068   53.6992   28.0894 C   0  0  0  0  0  0
    4.8764   54.0961   28.1496 C   0  0  0  0  0  0
    4.2172   54.4965   26.9799 C   0  0  0  0  0  0
    4.8953   54.4975   25.7617 C   0  0  0  0  0  0
    4.2091   54.1042   29.5212 C   0  0  0  0  0  0
    2.8100   54.3685   29.4906 O   0  0  0  0  0  0
    1.9595   53.4385   28.9283 C   0  0  0  0  0  0
    0.6784   53.8860   28.6313 C   0  0  0  0  0  0
   -0.2143   53.0564   27.9676 C   0  0  0  0  0  0
    0.1498   51.7643   27.6099 C   0  0  0  0  0  0
    1.4198   51.2965   27.9435 C   0  0  0  0  0  0
    2.3234   52.1260   28.5979 C   0  0  0  0  0  0
   -0.8538   50.8605   26.8939 C   0  0  2  0  0  0
   -0.4965   49.8410   27.0588 H   0  0  0  0  0  0
   -0.9652   51.0969   25.3475 C   0  0  2  0  0  0
   -1.1145   52.1651   25.2027 H   0  0  0  0  0  0
   -2.2239   50.3965   24.6917 C   0  0  1  0  0  0
   -3.3731   50.8082   25.5075 N   0  0  0  0  0  0
   -3.3970   50.8972   26.8627 C   0  0  0  0  0  0
   -4.8263   50.9333   27.6950 S   0  0  0  0  0  0
   -2.1991   50.8976   27.4991 N   0  0  0  0  0  0
   -2.4362   50.7906   23.1915 C   0  0  0  0  0  0
   -2.4955   52.1172   23.0429 F   0  0  0  0  0  0
   -1.4724   50.3478   22.3793 F   0  0  0  0  0  0
   -3.5880   50.3073   22.7167 F   0  0  0  0  0  0
   -2.1262   48.9797   24.7691 O   0  0  0  0  0  0
    0.3695   50.7009   24.6552 C   0  0  0  0  0  0
    0.7045   49.5169   24.6303 O   0  0  0  0  0  0
    1.1107   51.7609   23.9047 C   0  0  0  0  0  0
    1.1817   53.0737   24.3875 C   0  0  0  0  0  0
    1.8972   54.0414   23.6871 C   0  0  0  0  0  0
    2.5578   53.6943   22.5122 C   0  0  0  0  0  0
    2.5177   52.3863   22.0360 C   0  0  0  0  0  0
    1.8043   51.4169   22.7362 C   0  0  0  0  0  0
    6.7607   54.1026   24.7753 H   0  0  0  0  0  0
    7.9043   53.3844   26.8820 H   0  0  0  0  0  0
    6.7388   53.3966   28.9771 H   0  0  0  0  0  0
    3.1884   54.8221   27.0018 H   0  0  0  0  0  0
    4.3926   54.8082   24.8582 H   0  0  0  0  0  0
    4.6832   54.9011   30.0848 H   0  0  0  0  0  0
    4.4066   53.1805   30.0642 H   0  0  0  0  0  0
    0.3921   54.8959   28.8771 H   0  0  0  0  0  0
   -1.1846   53.4262   27.6809 H   0  0  0  0  0  0
    1.7183   50.2923   27.6814 H   0  0  0  0  0  0
    3.3084   51.7402   28.8088 H   0  0  0  0  0  0
   -4.2926   50.6842   25.1089 H   0  0  0  0  0  0
   -2.2762   50.6105   28.4671 H   0  0  0  0  0  0
   -1.9531   48.7396   25.6881 H   0  0  0  0  0  0
    0.7038   53.3552   25.3124 H   0  0  0  0  0  0
    1.9461   55.0545   24.0613 H   0  0  0  0  0  0
    3.1053   54.4450   21.9619 H   0  0  0  0  0  0
    3.0341   52.1253   21.1242 H   0  0  0  0  0  0
    1.7872   50.4024   22.3590 H   0  0  0  0  0  0
  1  6  2  0  0  0
  1  2  1  0  0  0
  1 37  1  0  0  0
  2  3  2  0  0  0
  2 38  1  0  0  0
  3  4  1  0  0  0
  3 39  1  0  0  0
  4  5  2  0  0  0
  4  7  1  0  0  0
  5  6  1  0  0  0
  5 40  1  0  0  0
  6 41  1  0  0  0
  7  8  1  0  0  0
  7 42  1  0  0  0
  7 43  1  0  0  0
  8  9  1  0  0  0
  9 14  2  0  0  0
  9 10  1  0  0  0
 10 11  2  0  0  0
 10 44  1  0  0  0
 11 12  1  0  0  0
 11 45  1  0  0  0
 12 13  2  0  0  0
 12 15  1  0  0  0
 13 14  1  0  0  0
 13 46  1  0  0  0
 14 47  1  0  0  0
 15 16  1  0  0  0
 15 23  1  0  0  0
 15 17  1  0  0  0
 17 18  1  0  0  0
 17 19  1  0  0  0
 17 29  1  0  0  0
 19 20  1  0  0  0
 19 24  1  0  0  0
 19 28  1  0  0  0
 20 21  1  0  0  0
 20 48  1  0  0  0
 21 22  2  0  0  0
 21 23  1  0  0  0
 23 49  1  0  0  0
 24 25  1  0  0  0
 24 26  1  0  0  0
 24 27  1  0  0  0
 28 50  1  0  0  0
 29 30  2  0  0  0
 29 31  1  0  0  0
 31 36  2  0  0  0
 31 32  1  0  0  0
 32 33  2  0  0  0
 32 51  1  0  0  0
 33 34  1  0  0  0
 33 52  1  0  0  0
 34 35  2  0  0  0
 34 53  1  0  0  0
 35 36  1  0  0  0
 35 54  1  0  0  0
 36 55  1  0  0  0
M  END
> <i_i_glide_confnum>
19

> <i_i_glide_lignum>
4514

> <i_i_glide_posenum>
188

> <i_i_glide_rotatable_bonds>
8

> <i_m_Source_File_Index>
2533

> <b_m_subgroup_collapsed>
0

> <r_i_docking_score>
-5.66738

> <r_i_glide_ecoul>
-1.53012

> <r_i_glide_eff_state_penalty>
0

> <r_i_glide_einternal>
3.17539

> <r_i_glide_emodel>
-58.5168

> <r_i_glide_energy>
-43.3146

> <r_i_glide_erotb>
0.515175

> <r_i_glide_esite>
-0.200805

> <r_i_glide_evdw>
-41.7845

> <r_i_glide_gscore>
-5.66738

> <r_i_glide_hbond>
-0.0848963

> <r_i_glide_ligand_efficiency>
-0.166688

> <r_i_glide_ligand_efficiency_ln>
-1.25208

> <r_i_glide_ligand_efficiency_sa>
-0.540004

> <r_i_glide_lipo>
-3.29829

> <r_i_glide_metal>
0

> <r_i_glide_rewards>
-0.27982

> <s_i_glide_gridfile>
wee1_glide-grid

> <s_m_Source_File>
wee1_decoys_glide_SP.sdf

> <s_m_Source_Path>
/Users/zhangxujun/Desktop

> <s_m_entry_id>
2808

> <s_m_entry_name>
wee1_decoys_glide_SP.2533

> <s_m_subgroup_title>
wee1_decoys_glide_SP

> <s_m_subgroupid>
wee1_decoys_glide_SP


$$$$
