ZINC13979376_4270
                    3D
 Schrodinger Suite 2024-2.
 35 36  0  0  1  0            999 V2000
    1.1455   52.4339   22.4473 C   0  0  0  0  0  0
    1.3927   51.1435   21.9862 C   0  0  0  0  0  0
    1.0417   50.0466   22.7706 C   0  0  0  0  0  0
    0.4509   50.2276   24.0237 C   0  0  0  0  0  0
    0.2342   51.5310   24.5144 C   0  0  0  0  0  0
    0.5694   52.6254   23.7029 C   0  0  0  0  0  0
   -0.3622   51.8070   25.8688 C   0  0  0  0  0  0
   -1.3789   52.4966   25.9720 O   0  0  0  0  0  0
    0.3480   51.3124   26.9026 N   0  0  0  0  0  0
    0.0027   51.6970   28.2037 N   0  0  0  0  0  0
    0.8280   52.4952   28.9503 C   0  0  0  0  0  0
    0.3042   52.8966   30.4817 S   0  0  0  0  0  0
    1.9995   52.8921   28.3472 N   0  0  0  0  0  0
    3.0562   53.6455   28.7454 C   0  0  0  0  0  0
    3.2378   54.0968   29.8775 O   0  0  0  0  0  0
    4.0270   53.8667   27.6968 C   0  0  0  0  0  0
    3.7052   54.0089   26.3897 C   0  0  0  0  0  0
    4.6096   54.1870   25.2723 C   0  0  0  0  0  0
    4.2606   54.0965   23.9277 C   0  0  0  0  0  0
    5.3474   54.2475   23.0628 C   0  0  0  0  0  0
    6.5287   54.4998   23.7411 C   0  0  0  0  0  0
    6.3071   54.5222   25.4608 S   0  0  0  0  0  0
   -0.0955   48.4967   25.0761 I   0  0  0  0  0  0
    1.4043   53.2849   21.8324 H   0  0  0  0  0  0
    1.8457   50.9924   21.0166 H   0  0  0  0  0  0
    1.2239   49.0481   22.4008 H   0  0  0  0  0  0
    0.3919   53.6359   24.0457 H   0  0  0  0  0  0
    0.8288   50.4246   26.8628 H   0  0  0  0  0  0
   -0.5632   50.9922   28.6593 H   0  0  0  0  0  0
    2.0979   52.5585   27.4013 H   0  0  0  0  0  0
    5.0530   53.9213   28.0318 H   0  0  0  0  0  0
    2.6692   53.9731   26.0785 H   0  0  0  0  0  0
    3.2567   53.9026   23.5828 H   0  0  0  0  0  0
    5.2695   54.1915   21.9862 H   0  0  0  0  0  0
    7.5044   54.6723   23.3144 H   0  0  0  0  0  0
  1  6  2  0  0  0
  1  2  1  0  0  0
  1 24  1  0  0  0
  2  3  2  0  0  0
  2 25  1  0  0  0
  3  4  1  0  0  0
  3 26  1  0  0  0
  4  5  2  0  0  0
  4 23  1  0  0  0
  5  6  1  0  0  0
  5  7  1  0  0  0
  6 27  1  0  0  0
  7  8  2  0  0  0
  7  9  1  0  0  0
  9 10  1  0  0  0
  9 28  1  0  0  0
 10 11  1  0  0  0
 10 29  1  0  0  0
 11 12  2  0  0  0
 11 13  1  0  0  0
 13 14  1  0  0  0
 13 30  1  0  0  0
 14 15  2  0  0  0
 14 16  1  0  0  0
 16 17  2  0  0  0
 16 31  1  0  0  0
 17 18  1  0  0  0
 17 32  1  0  0  0
 18 22  1  0  0  0
 18 19  2  0  0  0
 19 20  1  0  0  0
 19 33  1  0  0  0
 20 21  2  0  0  0
 20 34  1  0  0  0
 21 22  1  0  0  0
 21 35  1  0  0  0
M  END
> <i_i_glide_confnum>
3

> <i_i_glide_lignum>
4271

> <i_i_glide_posenum>
31

> <i_i_glide_rotatable_bonds>
8

> <i_m_Source_File_Index>
5824

> <b_m_subgroup_collapsed>
0

> <r_i_docking_score>
-5.75011

> <r_i_glide_ecoul>
-5.37007

> <r_i_glide_eff_state_penalty>
0

> <r_i_glide_einternal>
4.50501

> <r_i_glide_emodel>
-62.1404

> <r_i_glide_energy>
-47.361

> <r_i_glide_erotb>
0.576777

> <r_i_glide_esite>
-0.0689811

> <r_i_glide_evdw>
-41.9909

> <r_i_glide_gscore>
-5.75011

> <r_i_glide_hbond>
-0.32

> <r_i_glide_ligand_efficiency>
-0.250005

> <r_i_glide_ligand_efficiency_ln>
-1.39043

> <r_i_glide_ligand_efficiency_sa>
-0.710981

> <r_i_glide_lipo>
-2.22732

> <r_i_glide_metal>
0

> <r_i_glide_rewards>
-0.805532

> <s_i_glide_gridfile>
wee1_glide-grid

> <s_m_Source_File>
wee1_decoys_glide_SP.sdf

> <s_m_Source_Path>
/Users/zhangxujun/Desktop

> <s_m_entry_id>
6099

> <s_m_entry_name>
wee1_decoys_glide_SP.5824

> <s_m_subgroup_title>
wee1_decoys_glide_SP

> <s_m_subgroupid>
wee1_decoys_glide_SP


$$$$
