ZINC65993698_1399
                    3D
 Schrodinger Suite 2024-2.
 51 54  0  0  1  0            999 V2000
    6.6601   55.8677   25.2748 C   0  0  0  0  0  0
    6.0996   54.4393   25.0845 C   0  0  1  0  0  0
    5.1145   54.1518   26.2226 C   0  0  0  0  0  0
    5.5976   53.6642   27.4385 C   0  0  0  0  0  0
    4.7203   53.3899   28.4840 C   0  0  0  0  0  0
    3.3423   53.6149   28.3460 C   0  0  0  0  0  0
    2.8653   54.0973   27.1204 C   0  0  0  0  0  0
    3.7390   54.3588   26.0688 C   0  0  0  0  0  0
    2.4277   53.4102   29.4148 N   0  0  0  0  0  0
    1.1068   54.0586   29.4633 C   0  0  0  0  0  0
    0.5858   53.8158   30.8588 C   0  0  0  0  0  0
    1.3046   52.5630   31.2779 C   0  0  0  0  0  0
    2.5676   52.4964   30.4217 C   0  0  0  0  0  0
    3.5027   51.7268   30.6509 O   0  0  0  0  0  0
    5.4996   54.1907   23.7618 N   0  0  0  0  0  0
    6.0116   54.4969   22.5595 C   0  0  0  0  0  0
    7.1043   55.0384   22.3962 O   0  0  0  0  0  0
    5.1730   54.1731   21.5569 N   0  0  0  0  0  0
    5.4030   54.4316   20.1966 C   0  0  0  0  0  0
    5.0922   53.4449   19.2573 C   0  0  0  0  0  0
    5.3022   53.6962   17.9007 C   0  0  0  0  0  0
    5.8106   54.9456   17.5067 C   0  0  0  0  0  0
    6.1032   55.9196   18.4145 N   0  0  0  0  0  0
    5.9041   55.6554   19.7293 C   0  0  0  0  0  0
    6.0307   55.2668   16.1397 N   0  0  0  0  0  0
    6.3848   56.4854   15.5973 C   0  0  0  0  0  0
    6.4866   56.2945   14.2328 C   0  0  0  0  0  0
    6.1834   54.9457   14.0447 C   0  0  0  0  0  0
    5.9103   54.3328   15.1738 N   0  0  0  0  0  0
    7.0149   56.0206   26.2934 H   0  0  0  0  0  0
    7.4990   56.0909   24.6146 H   0  0  0  0  0  0
    5.8905   56.6128   25.0788 H   0  0  0  0  0  0
    6.9227   53.7278   25.1729 H   0  0  0  0  0  0
    6.6551   53.4914   27.5783 H   0  0  0  0  0  0
    5.1311   53.0251   29.4095 H   0  0  0  0  0  0
    1.8125   54.2773   26.9643 H   0  0  0  0  0  0
    3.3381   54.7416   25.1411 H   0  0  0  0  0  0
    1.1814   55.1254   29.2435 H   0  0  0  0  0  0
    0.4520   53.6094   28.7143 H   0  0  0  0  0  0
   -0.4958   53.7108   30.8892 H   0  0  0  0  0  0
    0.8426   54.6490   31.5146 H   0  0  0  0  0  0
    0.6898   51.6969   31.0370 H   0  0  0  0  0  0
    1.5111   52.5237   32.3480 H   0  0  0  0  0  0
    4.7355   53.5334   23.7768 H   0  0  0  0  0  0
    4.3421   53.6466   21.7740 H   0  0  0  0  0  0
    4.7037   52.4829   19.5605 H   0  0  0  0  0  0
    5.0709   52.9233   17.1812 H   0  0  0  0  0  0
    6.1458   56.4559   20.4124 H   0  0  0  0  0  0
    6.5244   57.3593   16.2177 H   0  0  0  0  0  0
    6.7424   57.0251   13.4794 H   0  0  0  0  0  0
    6.1603   54.4221   13.1002 H   0  0  0  0  0  0
  1  2  1  0  0  0
  1 30  1  0  0  0
  1 31  1  0  0  0
  1 32  1  0  0  0
  2  3  1  0  0  0
  2 15  1  0  0  0
  2 33  1  0  0  0
  3  8  2  0  0  0
  3  4  1  0  0  0
  4  5  2  0  0  0
  4 34  1  0  0  0
  5  6  1  0  0  0
  5 35  1  0  0  0
  6  7  2  0  0  0
  6  9  1  0  0  0
  7  8  1  0  0  0
  7 36  1  0  0  0
  8 37  1  0  0  0
  9 13  1  0  0  0
  9 10  1  0  0  0
 10 11  1  0  0  0
 10 38  1  0  0  0
 10 39  1  0  0  0
 11 12  1  0  0  0
 11 40  1  0  0  0
 11 41  1  0  0  0
 12 13  1  0  0  0
 12 42  1  0  0  0
 12 43  1  0  0  0
 13 14  2  0  0  0
 15 16  1  0  0  0
 15 44  1  0  0  0
 16 17  2  0  0  0
 16 18  1  0  0  0
 18 19  1  0  0  0
 18 45  1  0  0  0
 19 24  2  0  0  0
 19 20  1  0  0  0
 20 21  2  0  0  0
 20 46  1  0  0  0
 21 22  1  0  0  0
 21 47  1  0  0  0
 22 23  2  0  0  0
 22 25  1  0  0  0
 23 24  1  0  0  0
 24 48  1  0  0  0
 25 29  1  0  0  0
 25 26  1  0  0  0
 26 27  2  0  0  0
 26 49  1  0  0  0
 27 28  1  0  0  0
 27 50  1  0  0  0
 28 29  2  0  0  0
 28 51  1  0  0  0
M  END
> <i_i_glide_confnum>
212

> <i_i_glide_lignum>
1400

> <i_i_glide_posenum>
243

> <i_i_glide_rotatable_bonds>
7

> <i_m_Source_File_Index>
2541

> <b_m_subgroup_collapsed>
0

> <r_i_docking_score>
-5.51187

> <r_i_glide_ecoul>
-2.72555

> <r_i_glide_eff_state_penalty>
0

> <r_i_glide_einternal>
6.17512

> <r_i_glide_emodel>
-57.9137

> <r_i_glide_energy>
-44.4214

> <r_i_glide_erotb>
0.895627

> <r_i_glide_esite>
-0.0152573

> <r_i_glide_evdw>
-41.6958

> <r_i_glide_gscore>
-5.51187

> <r_i_glide_hbond>
-0.32

> <r_i_glide_ligand_efficiency>
-0.190065

> <r_i_glide_ligand_efficiency_ln>
-1.26208

> <r_i_glide_ligand_efficiency_sa>
-0.583939

> <r_i_glide_lipo>
-2.52445

> <r_i_glide_metal>
0

> <r_i_glide_rewards>
-1.05417

> <s_i_glide_gridfile>
wee1_glide-grid

> <s_m_Source_File>
wee1_decoys_glide_SP.sdf

> <s_m_Source_Path>
/Users/zhangxujun/Desktop

> <s_m_entry_id>
2816

> <s_m_entry_name>
wee1_decoys_glide_SP.2541

> <s_m_subgroup_title>
wee1_decoys_glide_SP

> <s_m_subgroupid>
wee1_decoys_glide_SP


$$$$
