ZINC13686131_4019
                    3D
 Schrodinger Suite 2024-2.
 57 60  0  0  1  0            999 V2000
    4.7630   54.5874   28.6019 C   0  0  0  0  0  0
    5.8641   54.6849   27.5209 C   0  0  0  0  0  0
    7.0140   53.7227   27.8918 C   0  0  0  0  0  0
    5.3765   54.4901   26.0692 C   0  0  0  0  0  0
    6.3105   54.3955   25.0339 C   0  0  0  0  0  0
    5.9073   54.0963   23.7362 C   0  0  0  0  0  0
    4.5549   53.9102   23.4121 C   0  0  0  0  0  0
    3.6179   54.1014   24.4423 C   0  0  0  0  0  0
    4.0183   54.3793   25.7471 C   0  0  0  0  0  0
    4.1688   53.4765   22.1040 N   0  0  0  0  0  0
    5.0478   53.6477   20.9404 C   0  0  2  0  0  0
    5.7060   52.7867   20.8148 H   0  0  0  0  0  0
    5.8909   54.9279   20.7250 C   0  0  0  0  0  0
    6.2346   54.9750   18.8760 S   0  0  0  0  0  0
    7.5929   54.4960   18.6078 O   0  0  0  0  0  0
    5.7778   56.2666   18.3572 O   0  0  0  0  0  0
    5.0050   53.6289   18.4564 C   0  0  0  0  0  0
    4.1484   53.5999   19.7178 C   0  0  1  0  0  0
    3.5043   54.4810   19.6745 H   0  0  0  0  0  0
    3.0717   52.2238   20.0551 S   0  0  0  0  0  0
    3.0936   52.5915   21.8433 C   0  0  0  0  0  0
    2.3057   52.0671   22.7050 N   0  0  0  0  0  0
    1.4309   51.0643   22.4398 C   0  0  0  0  0  0
    0.5726   50.5872   23.3714 C   0  0  0  0  0  0
    0.5056   51.1654   24.6823 C   0  0  0  0  0  0
    0.4197   51.6428   25.7327 N   0  0  0  0  0  0
   -0.3023   49.4665   23.0515 C   0  0  0  0  0  0
   -0.3406   48.9730   21.9238 O   0  0  0  0  0  0
   -1.0537   49.0202   24.0858 N   0  0  0  0  0  0
   -2.0356   48.0115   24.1116 C   0  0  0  0  0  0
   -2.4154   47.5580   25.3781 C   0  0  0  0  0  0
   -3.4168   46.6014   25.5145 C   0  0  0  0  0  0
   -4.0484   46.0968   24.3788 C   0  0  0  0  0  0
   -3.6752   46.5358   23.1097 C   0  0  0  0  0  0
   -2.6718   47.4929   22.9716 C   0  0  0  0  0  0
   -5.2952   44.9138   24.5449 Cl  0  0  0  0  0  0
    3.9541   55.2965   28.4331 H   0  0  0  0  0  0
    4.3293   53.5872   28.6388 H   0  0  0  0  0  0
    5.1675   54.8066   29.5916 H   0  0  0  0  0  0
    6.2680   55.6968   27.5716 H   0  0  0  0  0  0
    7.8986   53.8934   27.2820 H   0  0  0  0  0  0
    7.3253   53.8543   28.9286 H   0  0  0  0  0  0
    6.7162   52.6813   27.7697 H   0  0  0  0  0  0
    7.3671   54.4925   25.2290 H   0  0  0  0  0  0
    6.6861   53.9174   23.0158 H   0  0  0  0  0  0
    2.5590   54.0141   24.2530 H   0  0  0  0  0  0
    3.2505   54.4686   26.4982 H   0  0  0  0  0  0
    5.2681   55.7844   20.9638 H   0  0  0  0  0  0
    6.8284   55.0540   21.2593 H   0  0  0  0  0  0
    5.5282   52.6746   18.3775 H   0  0  0  0  0  0
    4.5151   53.8117   17.5024 H   0  0  0  0  0  0
    1.4545   50.6279   21.4472 H   0  0  0  0  0  0
   -0.8612   49.4262   24.9909 H   0  0  0  0  0  0
   -1.9429   47.9462   26.2713 H   0  0  0  0  0  0
   -3.7042   46.2664   26.5013 H   0  0  0  0  0  0
   -4.1710   46.1470   22.2315 H   0  0  0  0  0  0
   -2.4268   47.8318   21.9765 H   0  0  0  0  0  0
  1  2  1  0  0  0
  1 37  1  0  0  0
  1 38  1  0  0  0
  1 39  1  0  0  0
  2  3  1  0  0  0
  2  4  1  0  0  0
  2 40  1  0  0  0
  3 41  1  0  0  0
  3 42  1  0  0  0
  3 43  1  0  0  0
  4  9  2  0  0  0
  4  5  1  0  0  0
  5  6  2  0  0  0
  5 44  1  0  0  0
  6  7  1  0  0  0
  6 45  1  0  0  0
  7  8  2  0  0  0
  7 10  1  0  0  0
  8  9  1  0  0  0
  8 46  1  0  0  0
  9 47  1  0  0  0
 10 21  1  0  0  0
 10 11  1  0  0  0
 11 12  1  0  0  0
 11 18  1  0  0  0
 11 13  1  0  0  0
 13 14  1  0  0  0
 13 48  1  0  0  0
 13 49  1  0  0  0
 14 15  2  0  0  0
 14 16  2  0  0  0
 14 17  1  0  0  0
 17 18  1  0  0  0
 17 50  1  0  0  0
 17 51  1  0  0  0
 18 19  1  0  0  0
 18 20  1  0  0  0
 20 21  1  0  0  0
 21 22  2  0  0  0
 22 23  1  0  0  0
 23 24  2  0  0  0
 23 52  1  0  0  0
 24 25  1  0  0  0
 24 27  1  0  0  0
 25 26  3  0  0  0
 27 28  2  0  0  0
 27 29  1  0  0  0
 29 30  1  0  0  0
 29 53  1  0  0  0
 30 35  2  0  0  0
 30 31  1  0  0  0
 31 32  2  0  0  0
 31 54  1  0  0  0
 32 33  1  0  0  0
 32 55  1  0  0  0
 33 34  2  0  0  0
 33 36  1  0  0  0
 34 35  1  0  0  0
 34 56  1  0  0  0
 35 57  1  0  0  0
M  END
> <i_i_glide_confnum>
1

> <i_i_glide_lignum>
4020

> <i_i_glide_posenum>
205

> <i_i_glide_rotatable_bonds>
7

> <i_m_Source_File_Index>
5803

> <b_m_subgroup_collapsed>
0

> <r_i_docking_score>
-5.50498

> <r_i_glide_ecoul>
-2.30222

> <r_i_glide_eff_state_penalty>
0

> <r_i_glide_einternal>
5.08521

> <r_i_glide_emodel>
-57.5497

> <r_i_glide_energy>
-45.6264

> <r_i_glide_erotb>
0.386703

> <r_i_glide_esite>
-0.0167775

> <r_i_glide_evdw>
-43.3241

> <r_i_glide_gscore>
-5.50498

> <r_i_glide_hbond>
0

> <r_i_glide_ligand_efficiency>
-0.161911

> <r_i_glide_ligand_efficiency_ln>
-1.2162

> <r_i_glide_ligand_efficiency_sa>
-0.524529

> <r_i_glide_lipo>
-2.83304

> <r_i_glide_metal>
0

> <r_i_glide_rewards>
-0.53032

> <s_i_glide_gridfile>
wee1_glide-grid

> <s_m_Source_File>
wee1_decoys_glide_SP.sdf

> <s_m_Source_Path>
/Users/zhangxujun/Desktop

> <s_m_entry_id>
6078

> <s_m_entry_name>
wee1_decoys_glide_SP.5803

> <s_m_subgroup_title>
wee1_decoys_glide_SP

> <s_m_subgroupid>
wee1_decoys_glide_SP


$$$$
