ZINC20833698_2869
                    3D
 Schrodinger Suite 2024-2.
 56 58  0  0  1  0            999 V2000
    1.5890   56.1576   29.7235 C   0  0  0  0  0  0
    1.2504   54.6600   29.8307 C   0  0  0  0  0  0
    2.4755   53.7187   29.6897 C   0  0  1  0  0  0
    3.1743   53.9767   30.4820 H   0  0  0  0  0  0
    2.0952   52.2437   29.9190 C   0  0  0  0  0  0
    3.2274   53.9065   28.3752 C   0  0  0  0  0  0
    2.5732   53.7099   27.1573 C   0  0  0  0  0  0
    3.2499   53.9324   25.9636 C   0  0  0  0  0  0
    4.5833   54.3462   25.9791 C   0  0  0  0  0  0
    5.2540   54.5015   27.1991 C   0  0  0  0  0  0
    4.5711   54.2902   28.3914 C   0  0  0  0  0  0
    5.1682   54.5415   24.7208 N   0  0  0  0  0  0
    6.3241   55.1436   24.3828 C   0  0  0  0  0  0
    7.0812   55.6939   25.1828 O   0  0  0  0  0  0
    6.7059   55.1392   22.8883 C   0  0  0  0  0  0
    5.6683   54.6157   21.8543 C   0  0  0  0  0  0
    5.1044   52.8967   22.0825 S   0  0  0  0  0  0
    4.1313   52.6066   20.6549 C   0  0  0  0  0  0
    3.5863   51.4144   20.4730 N   0  0  0  0  0  0
    2.9780   51.5506   19.3247 C   0  0  0  0  0  0
    3.1323   52.8229   18.8688 N   0  0  0  0  0  0
    3.9040   53.5079   19.7164 N   0  0  0  0  0  0
    2.3043   50.5751   18.6298 N   0  0  0  0  0  0
    1.2533   49.8729   19.2247 N   0  0  0  0  0  0
    1.0630   48.6787   18.8364 C   0  0  0  0  0  0
    0.0767   47.7763   19.4483 C   0  0  0  0  0  0
   -0.0169   46.4562   18.9920 C   0  0  0  0  0  0
   -0.8979   45.5579   19.5928 C   0  0  0  0  0  0
   -1.6940   45.9768   20.6562 C   0  0  0  0  0  0
   -1.6339   47.2931   21.1044 C   0  0  0  0  0  0
   -0.7529   48.1880   20.5028 C   0  0  0  0  0  0
   -2.8550   44.7391   21.5235 Br  0  0  0  0  0  0
    0.7043   56.7747   29.8684 H   0  0  0  0  0  0
    2.0112   56.4108   28.7508 H   0  0  0  0  0  0
    2.3020   56.4587   30.4854 H   0  0  0  0  0  0
    0.7676   54.4834   30.7935 H   0  0  0  0  0  0
    0.5005   54.4081   29.0789 H   0  0  0  0  0  0
    2.9649   51.5984   29.7964 H   0  0  0  0  0  0
    1.7035   52.0906   30.9271 H   0  0  0  0  0  0
    1.3328   51.9063   29.2143 H   0  0  0  0  0  0
    1.5390   53.4004   27.1342 H   0  0  0  0  0  0
    2.7291   53.7855   25.0281 H   0  0  0  0  0  0
    6.2934   54.7891   27.2512 H   0  0  0  0  0  0
    5.0940   54.4345   29.3250 H   0  0  0  0  0  0
    4.6414   54.1537   23.9512 H   0  0  0  0  0  0
    7.1380   56.0929   22.5855 H   0  0  0  0  0  0
    7.5188   54.4149   22.8862 H   0  0  0  0  0  0
    4.8078   55.2819   21.7919 H   0  0  0  0  0  0
    6.1264   54.6716   20.8647 H   0  0  0  0  0  0
    2.8551   50.0127   17.9804 H   0  0  0  0  0  0
    1.6532   48.2405   18.0325 H   0  0  0  0  0  0
    0.6065   46.1078   18.1820 H   0  0  0  0  0  0
   -0.9487   44.5377   19.2451 H   0  0  0  0  0  0
   -2.2542   47.6173   21.9262 H   0  0  0  0  0  0
   -0.7090   49.2026   20.8755 H   0  0  0  0  0  0
    2.7718   53.1944   18.0040 H   0  0  0  0  0  0
  1  2  1  0  0  0
  1 33  1  0  0  0
  1 34  1  0  0  0
  1 35  1  0  0  0
  2  3  1  0  0  0
  2 36  1  0  0  0
  2 37  1  0  0  0
  3  4  1  0  0  0
  3  5  1  0  0  0
  3  6  1  0  0  0
  5 38  1  0  0  0
  5 39  1  0  0  0
  5 40  1  0  0  0
  6 11  2  0  0  0
  6  7  1  0  0  0
  7  8  2  0  0  0
  7 41  1  0  0  0
  8  9  1  0  0  0
  8 42  1  0  0  0
  9 10  2  0  0  0
  9 12  1  0  0  0
 10 11  1  0  0  0
 10 43  1  0  0  0
 11 44  1  0  0  0
 12 13  1  0  0  0
 12 45  1  0  0  0
 13 14  2  0  0  0
 13 15  1  0  0  0
 15 16  1  0  0  0
 15 46  1  0  0  0
 15 47  1  0  0  0
 16 17  1  0  0  0
 16 48  1  0  0  0
 16 49  1  0  0  0
 17 18  1  0  0  0
 18 22  2  0  0  0
 18 19  1  0  0  0
 19 20  2  0  0  0
 20 21  1  0  0  0
 20 23  1  0  0  0
 21 22  1  0  0  0
 21 56  1  0  0  0
 23 24  1  0  0  0
 23 50  1  0  0  0
 24 25  2  0  0  0
 25 26  1  0  0  0
 25 51  1  0  0  0
 26 31  2  0  0  0
 26 27  1  0  0  0
 27 28  2  0  0  0
 27 52  1  0  0  0
 28 29  1  0  0  0
 28 53  1  0  0  0
 29 30  2  0  0  0
 29 32  1  0  0  0
 30 31  1  0  0  0
 30 54  1  0  0  0
 31 55  1  0  0  0
M  END
> <i_i_glide_confnum>
38

> <i_i_glide_lignum>
2870

> <i_i_glide_posenum>
377

> <i_i_glide_rotatable_bonds>
11

> <i_m_Source_File_Index>
1392

> <b_m_subgroup_collapsed>
0

> <r_i_docking_score>
-6.1552

> <r_i_glide_ecoul>
-5.58169

> <r_i_glide_eff_state_penalty>
0

> <r_i_glide_einternal>
4.80676

> <r_i_glide_emodel>
-67.9384

> <r_i_glide_energy>
-50.1877

> <r_i_glide_erotb>
0.731125

> <r_i_glide_esite>
-0.241402

> <r_i_glide_evdw>
-44.606

> <r_i_glide_gscore>
-6.1552

> <r_i_glide_hbond>
-0.448259

> <r_i_glide_ligand_efficiency>
-0.198555

> <r_i_glide_ligand_efficiency_ln>
-1.38819

> <r_i_glide_ligand_efficiency_sa>
-0.623736

> <r_i_glide_lipo>
-2.62954

> <r_i_glide_metal>
0

> <r_i_glide_rewards>
-0.499567

> <s_i_glide_gridfile>
wee1_glide-grid

> <s_m_Source_File>
wee1_decoys_glide_SP.sdf

> <s_m_Source_Path>
/Users/zhangxujun/Desktop

> <s_m_entry_id>
1667

> <s_m_entry_name>
wee1_decoys_glide_SP.1392

> <s_m_subgroup_title>
wee1_decoys_glide_SP

> <s_m_subgroupid>
wee1_decoys_glide_SP


$$$$
