ZINC35871555_5246
                    3D
 Schrodinger Suite 2024-2.
 70 74  0  0  1  0            999 V2000
   -0.1996   51.4712   20.0977 C   0  0  0  0  0  0
    1.1040   51.3034   20.8902 C   0  0  2  0  0  0
    1.3926   50.2520   20.7998 H   0  0  0  0  0  0
    0.8849   51.6097   22.3792 C   0  0  0  0  0  0
    1.1043   52.8952   22.8951 C   0  0  0  0  0  0
    0.9139   53.1451   24.2510 C   0  0  0  0  0  0
    0.5166   52.1102   25.0962 C   0  0  0  0  0  0
    0.3083   50.8269   24.5974 C   0  0  0  0  0  0
    0.4981   50.5770   23.2403 C   0  0  0  0  0  0
    2.1740   52.0904   20.2702 N   0  0  0  0  0  0
    3.4847   51.9337   20.5293 C   0  0  0  0  0  0
    3.9033   51.0513   21.2777 O   0  0  0  0  0  0
    4.4912   52.9450   19.9311 C   0  0  1  0  0  0
    5.3628   52.3307   19.6908 H   0  0  0  0  0  0
    3.9942   53.5867   18.6266 C   0  0  0  0  0  0
    5.0617   54.5308   18.0967 C   0  0  0  0  0  0
    5.1183   54.7891   16.7233 C   0  0  0  0  0  0
    6.0291   55.6959   16.1827 C   0  0  0  0  0  0
    6.9095   56.3519   17.0413 C   0  0  0  0  0  0
    6.8840   56.0923   18.4075 C   0  0  0  0  0  0
    5.9649   55.1888   18.9731 C   0  0  0  0  0  0
    6.0257   54.8446   20.3440 N   0  0  0  0  0  0
    4.8906   54.0758   20.9329 C   0  0  2  0  0  0
    4.0865   54.8154   20.9241 H   0  0  0  0  0  0
    5.1031   53.5806   22.3954 C   0  0  0  0  0  0
    5.6052   54.7044   23.3198 N   0  3  2  0  0  0
    6.9202   55.2258   22.7136 C   0  0  0  0  0  0
    6.6598   55.7742   21.2988 C   0  0  0  0  0  0
    5.6796   54.1854   24.7861 C   0  0  0  0  0  0
    6.7045   54.9297   25.6629 C   0  0  0  0  0  0
    6.7560   54.3233   27.0791 C   0  0  0  0  0  0
    5.3797   54.2943   27.7712 C   0  0  0  0  0  0
    4.2749   53.6965   26.8822 C   0  0  0  0  0  0
    4.2785   54.2581   25.4425 C   0  0  0  0  0  0
    6.0586   55.9523   14.6760 C   0  0  0  0  0  0
    5.8645   54.8187   13.9999 F   0  0  0  0  0  0
    5.0864   56.8073   14.3610 F   0  0  0  0  0  0
    7.2227   56.4732   14.2833 F   0  0  0  0  0  0
   -0.9809   50.8163   20.4827 H   0  0  0  0  0  0
   -0.5689   52.4948   20.1519 H   0  0  0  0  0  0
   -0.0563   51.2246   19.0449 H   0  0  0  0  0  0
    1.4109   53.7010   22.2434 H   0  0  0  0  0  0
    1.0758   54.1372   24.6467 H   0  0  0  0  0  0
    0.3706   52.3025   26.1494 H   0  0  0  0  0  0
    0.0071   50.0280   25.2609 H   0  0  0  0  0  0
    0.3422   49.5773   22.8615 H   0  0  0  0  0  0
    1.8848   52.8575   19.6819 H   0  0  0  0  0  0
    3.7309   52.8282   17.8849 H   0  0  0  0  0  0
    3.1124   54.2028   18.8137 H   0  0  0  0  0  0
    4.4247   54.2845   16.0650 H   0  0  0  0  0  0
    7.6296   57.0586   16.6542 H   0  0  0  0  0  0
    7.6188   56.6099   19.0005 H   0  0  0  0  0  0
    4.1410   53.2869   22.8129 H   0  0  0  0  0  0
    5.8125   52.7524   22.4604 H   0  0  0  0  0  0
    7.6483   54.4132   22.7378 H   0  0  0  0  0  0
    7.2518   56.0591   23.3374 H   0  0  0  0  0  0
    7.6373   56.0936   20.9446 H   0  0  0  0  0  0
    5.9910   56.6338   21.3585 H   0  0  0  0  0  0
    5.9997   53.1520   24.7558 H   0  0  0  0  0  0
    7.6946   54.8967   25.2144 H   0  0  0  0  0  0
    6.4467   55.9893   25.7132 H   0  0  0  0  0  0
    7.1439   53.3041   27.0214 H   0  0  0  0  0  0
    7.4712   54.8790   27.6834 H   0  0  0  0  0  0
    5.4501   53.7331   28.7045 H   0  0  0  0  0  0
    5.0926   55.2977   28.0623 H   0  0  0  0  0  0
    4.4140   52.6164   26.8514 H   0  0  0  0  0  0
    3.2985   53.8543   27.3427 H   0  0  0  0  0  0
    3.9456   55.2965   25.4598 H   0  0  0  0  0  0
    3.5295   53.7512   24.8388 H   0  0  0  0  0  0
    4.9297   55.4550   23.3032 H   0  0  0  0  0  0
  1  2  1  0  0  0
  1 39  1  0  0  0
  1 40  1  0  0  0
  1 41  1  0  0  0
  2  3  1  0  0  0
  2  4  1  0  0  0
  2 10  1  0  0  0
  4  9  2  0  0  0
  4  5  1  0  0  0
  5  6  2  0  0  0
  5 42  1  0  0  0
  6  7  1  0  0  0
  6 43  1  0  0  0
  7  8  2  0  0  0
  7 44  1  0  0  0
  8  9  1  0  0  0
  8 45  1  0  0  0
  9 46  1  0  0  0
 10 11  1  0  0  0
 10 47  1  0  0  0
 11 12  2  0  0  0
 11 13  1  0  0  0
 13 14  1  0  0  0
 13 23  1  0  0  0
 13 15  1  0  0  0
 15 16  1  0  0  0
 15 48  1  0  0  0
 15 49  1  0  0  0
 16 21  2  0  0  0
 16 17  1  0  0  0
 17 18  2  0  0  0
 17 50  1  0  0  0
 18 19  1  0  0  0
 18 35  1  0  0  0
 19 20  2  0  0  0
 19 51  1  0  0  0
 20 21  1  0  0  0
 20 52  1  0  0  0
 21 22  1  0  0  0
 22 28  1  0  0  0
 22 23  1  0  0  0
 23 24  1  0  0  0
 23 25  1  0  0  0
 25 26  1  0  0  0
 25 53  1  0  0  0
 25 54  1  0  0  0
 26 27  1  0  0  0
 26 29  1  0  0  0
 26 70  1  0  0  0
 27 28  1  0  0  0
 27 55  1  0  0  0
 27 56  1  0  0  0
 28 57  1  0  0  0
 28 58  1  0  0  0
 29 34  1  0  0  0
 29 30  1  0  0  0
 29 59  1  0  0  0
 30 31  1  0  0  0
 30 60  1  0  0  0
 30 61  1  0  0  0
 31 32  1  0  0  0
 31 62  1  0  0  0
 31 63  1  0  0  0
 32 33  1  0  0  0
 32 64  1  0  0  0
 32 65  1  0  0  0
 33 34  1  0  0  0
 33 66  1  0  0  0
 33 67  1  0  0  0
 34 68  1  0  0  0
 34 69  1  0  0  0
 35 36  1  0  0  0
 35 37  1  0  0  0
 35 38  1  0  0  0
M  CHG  1  26   1
M  END
> <i_i_glide_confnum>
19

> <i_i_glide_lignum>
5247

> <i_i_glide_posenum>
160

> <i_i_glide_rotatable_bonds>
6

> <i_m_Source_File_Index>
1953

> <b_m_subgroup_collapsed>
0

> <r_i_docking_score>
-5.36751

> <r_i_glide_ecoul>
-2.90371

> <r_i_glide_eff_state_penalty>
0

> <r_i_glide_einternal>
7.24867

> <r_i_glide_emodel>
-57.032

> <r_i_glide_energy>
-45.0062

> <r_i_glide_erotb>
0.34334

> <r_i_glide_esite>
-0.0518139

> <r_i_glide_evdw>
-42.1025

> <r_i_glide_gscore>
-5.36751

> <r_i_glide_hbond>
0

> <r_i_glide_ligand_efficiency>
-0.153357

> <r_i_glide_ligand_efficiency_ln>
-1.17829

> <r_i_glide_ligand_efficiency_sa>
-0.501642

> <r_i_glide_lipo>
-2.74754

> <r_i_glide_metal>
0

> <r_i_glide_rewards>
-0.370816

> <s_i_glide_gridfile>
wee1_glide-grid

> <s_m_Source_File>
wee1_decoys_glide_SP.sdf

> <s_m_Source_Path>
/Users/zhangxujun/Desktop

> <s_m_entry_id>
2228

> <s_m_entry_name>
wee1_decoys_glide_SP.1953

> <s_m_subgroup_title>
wee1_decoys_glide_SP

> <s_m_subgroupid>
wee1_decoys_glide_SP


$$$$
