ZINC59038781_455
                    3D
 Schrodinger Suite 2024-2.
 44 46  0  0  1  0            999 V2000
    8.5766   55.9386   20.2237 C   0  0  0  0  0  0
    7.1991   55.3040   20.2316 C   0  0  0  0  0  0
    6.6816   54.7665   19.0513 C   0  0  0  0  0  0
    5.4481   54.1182   19.0585 C   0  0  0  0  0  0
    4.7302   53.9868   20.2503 C   0  0  0  0  0  0
    5.2293   54.5531   21.4364 C   0  0  0  0  0  0
    6.4611   55.2135   21.4168 C   0  0  0  0  0  0
    4.2533   54.4793   23.0773 Br  0  0  0  0  0  0
    3.5157   53.2968   20.2024 N   0  0  0  0  0  0
    3.3429   52.0521   20.6867 C   0  0  0  0  0  0
    4.2210   51.4215   21.2813 O   0  0  0  0  0  0
    1.9612   51.4416   20.4236 C   0  0  0  0  0  0
    1.7540   49.7158   20.9852 S   0  0  0  0  0  0
    1.1134   49.9352   22.6145 C   0  0  0  0  0  0
    1.0512   51.1060   23.2446 N   0  0  0  0  0  0
    0.5256   50.7780   24.3959 C   0  0  0  0  0  0
    0.3058   49.4379   24.4463 N   0  0  0  0  0  0
    0.6615   48.8968   23.2862 N   0  0  0  0  0  0
    0.1725   51.6064   25.4280 N   0  0  0  0  0  0
    1.1007   52.2821   26.2348 N   0  0  0  0  0  0
    0.7065   52.7535   27.3552 C   0  0  0  0  0  0
   -0.6866   52.4746   27.9351 C   0  0  0  0  0  0
    1.6092   53.6167   28.1344 C   0  0  0  0  0  0
    1.2878   54.4689   29.1975 C   0  0  0  0  0  0
    2.3738   55.2021   29.6808 C   0  0  0  0  0  0
    3.5558   54.8943   29.0285 C   0  0  0  0  0  0
    3.3170   53.7302   27.7679 S   0  0  0  0  0  0
    8.9603   56.0966   21.2325 H   0  0  0  0  0  0
    9.2835   55.2813   19.7150 H   0  0  0  0  0  0
    8.5654   56.8842   19.6807 H   0  0  0  0  0  0
    7.2440   54.8267   18.1307 H   0  0  0  0  0  0
    5.0730   53.6831   18.1422 H   0  0  0  0  0  0
    6.8544   55.6311   22.3320 H   0  0  0  0  0  0
    2.7530   53.7580   19.7252 H   0  0  0  0  0  0
    1.8260   51.4249   19.3415 H   0  0  0  0  0  0
    1.1771   52.0833   20.8239 H   0  0  0  0  0  0
   -0.7065   51.4576   25.9017 H   0  0  0  0  0  0
   -0.8246   52.8316   28.9545 H   0  0  0  0  0  0
   -1.4539   52.8980   27.2847 H   0  0  0  0  0  0
   -0.8748   51.4005   27.9672 H   0  0  0  0  0  0
    0.2957   54.5887   29.6033 H   0  0  0  0  0  0
    2.3007   55.9255   30.4806 H   0  0  0  0  0  0
    4.5415   55.2968   29.2111 H   0  0  0  0  0  0
   -0.0751   48.9135   25.2224 H   0  0  0  0  0  0
  1  2  1  0  0  0
  1 28  1  0  0  0
  1 29  1  0  0  0
  1 30  1  0  0  0
  2  7  2  0  0  0
  2  3  1  0  0  0
  3  4  2  0  0  0
  3 31  1  0  0  0
  4  5  1  0  0  0
  4 32  1  0  0  0
  5  6  2  0  0  0
  5  9  1  0  0  0
  6  7  1  0  0  0
  6  8  1  0  0  0
  7 33  1  0  0  0
  9 10  1  0  0  0
  9 34  1  0  0  0
 10 11  2  0  0  0
 10 12  1  0  0  0
 12 13  1  0  0  0
 12 35  1  0  0  0
 12 36  1  0  0  0
 13 14  1  0  0  0
 14 18  2  0  0  0
 14 15  1  0  0  0
 15 16  2  0  0  0
 16 17  1  0  0  0
 16 19  1  0  0  0
 17 18  1  0  0  0
 17 44  1  0  0  0
 19 20  1  0  0  0
 19 37  1  0  0  0
 20 21  2  0  0  0
 21 22  1  0  0  0
 21 23  1  0  0  0
 22 38  1  0  0  0
 22 39  1  0  0  0
 22 40  1  0  0  0
 23 27  1  0  0  0
 23 24  2  0  0  0
 24 25  1  0  0  0
 24 41  1  0  0  0
 25 26  2  0  0  0
 25 42  1  0  0  0
 26 27  1  0  0  0
 26 43  1  0  0  0
M  END
> <i_i_glide_confnum>
212

> <i_i_glide_lignum>
456

> <i_i_glide_posenum>
108

> <i_i_glide_rotatable_bonds>
8

> <i_m_Source_File_Index>
2074

> <b_m_subgroup_collapsed>
0

> <r_i_docking_score>
-5.18009

> <r_i_glide_ecoul>
-6.40445

> <r_i_glide_eff_state_penalty>
0

> <r_i_glide_einternal>
6.92463

> <r_i_glide_emodel>
-62.6937

> <r_i_glide_energy>
-47.7955

> <r_i_glide_erotb>
0.651771

> <r_i_glide_esite>
-0.0453497

> <r_i_glide_evdw>
-41.391

> <r_i_glide_gscore>
-5.18009

> <r_i_glide_hbond>
-0.239873

> <r_i_glide_ligand_efficiency>
-0.191855

> <r_i_glide_ligand_efficiency_ln>
-1.20584

> <r_i_glide_ligand_efficiency_sa>
-0.575566

> <r_i_glide_lipo>
-1.95097

> <r_i_glide_metal>
0

> <r_i_glide_rewards>
-0.565454

> <s_i_glide_gridfile>
wee1_glide-grid

> <s_m_Source_File>
wee1_decoys_glide_SP.sdf

> <s_m_Source_Path>
/Users/zhangxujun/Desktop

> <s_m_entry_id>
2349

> <s_m_entry_name>
wee1_decoys_glide_SP.2074

> <s_m_subgroup_title>
wee1_decoys_glide_SP

> <s_m_subgroupid>
wee1_decoys_glide_SP


$$$$
