ZINC50694116_3597
                    3D
 Schrodinger Suite 2024-2.
 33 34  0  0  1  0            999 V2000
   -3.7457   50.8933   26.6620 C   0  0  0  0  0  0
   -2.3807   51.4072   26.2404 C   0  0  0  0  0  0
   -2.2061   52.0050   24.9900 C   0  0  0  0  0  0
   -0.9514   52.4776   24.6052 C   0  0  0  0  0  0
    0.1463   52.3668   25.4765 C   0  0  0  0  0  0
   -0.0365   51.7701   26.7356 C   0  0  0  0  0  0
   -1.2953   51.2974   27.1102 C   0  0  0  0  0  0
    1.4045   51.5895   27.9819 Br  0  0  0  0  0  0
    1.4383   52.8342   25.1773 N   0  0  0  0  0  0
    1.8731   53.6432   24.1861 C   0  0  0  0  0  0
    1.1691   54.0959   23.2828 O   0  0  0  0  0  0
    3.3502   53.9657   24.2579 C   0  0  0  0  0  0
    3.9497   54.1318   25.5175 C   0  0  0  0  0  0
    5.3157   54.3951   25.6555 C   0  0  0  0  0  0
    6.0995   54.4999   24.4996 C   0  0  0  0  0  0
    5.5237   54.3505   23.2406 C   0  0  0  0  0  0
    4.1577   54.0968   23.1078 C   0  0  0  0  0  0
    3.6547   53.9627   21.8135 N   0  0  0  0  0  0
    5.9117   54.5418   27.0031 N   0  3  0  0  0  0
    5.1928   54.4055   27.9892 O   0  0  0  0  0  0
    7.1043   54.8040   27.0749 O   0  5  0  0  0  0
   -4.5452   51.4489   26.1718 H   0  0  0  0  0  0
   -3.8873   51.0160   27.7380 H   0  0  0  0  0  0
   -3.8407   49.8326   26.4197 H   0  0  0  0  0  0
   -3.0412   52.0920   24.3090 H   0  0  0  0  0  0
   -0.8591   52.9168   23.6252 H   0  0  0  0  0  0
   -1.4234   50.8277   28.0772 H   0  0  0  0  0  0
    2.1395   52.5302   25.8365 H   0  0  0  0  0  0
    3.3477   54.0558   26.4150 H   0  0  0  0  0  0
    7.1608   54.6958   24.5651 H   0  0  0  0  0  0
    6.1509   54.4412   22.3641 H   0  0  0  0  0  0
    4.2571   54.1160   21.0186 H   0  0  0  0  0  0
    2.6469   53.9701   21.6928 H   0  0  0  0  0  0
  1  2  1  0  0  0
  1 22  1  0  0  0
  1 23  1  0  0  0
  1 24  1  0  0  0
  2  7  2  0  0  0
  2  3  1  0  0  0
  3  4  2  0  0  0
  3 25  1  0  0  0
  4  5  1  0  0  0
  4 26  1  0  0  0
  5  6  2  0  0  0
  5  9  1  0  0  0
  6  7  1  0  0  0
  6  8  1  0  0  0
  7 27  1  0  0  0
  9 10  1  0  0  0
  9 28  1  0  0  0
 10 11  2  0  0  0
 10 12  1  0  0  0
 12 17  2  0  0  0
 12 13  1  0  0  0
 13 14  2  0  0  0
 13 29  1  0  0  0
 14 15  1  0  0  0
 14 19  1  0  0  0
 15 16  2  0  0  0
 15 30  1  0  0  0
 16 17  1  0  0  0
 16 31  1  0  0  0
 17 18  1  0  0  0
 18 32  1  0  0  0
 18 33  1  0  0  0
 19 20  2  0  0  0
 19 21  1  0  0  0
M  CHG  2  19   1  21  -1
M  END
> <i_i_glide_confnum>
5

> <i_i_glide_lignum>
3598

> <i_i_glide_posenum>
365

> <i_i_glide_rotatable_bonds>
4

> <i_m_Source_File_Index>
5973

> <b_m_subgroup_collapsed>
0

> <r_i_docking_score>
-5.22084

> <r_i_glide_ecoul>
-2.78218

> <r_i_glide_eff_state_penalty>
0

> <r_i_glide_einternal>
0.261277

> <r_i_glide_emodel>
-47.9754

> <r_i_glide_energy>
-36.3499

> <r_i_glide_erotb>
0.46627

> <r_i_glide_esite>
0

> <r_i_glide_evdw>
-33.5678

> <r_i_glide_gscore>
-5.22084

> <r_i_glide_hbond>
-0.0252209

> <r_i_glide_ligand_efficiency>
-0.248612

> <r_i_glide_ligand_efficiency_ln>
-1.29084

> <r_i_glide_ligand_efficiency_sa>
-0.685901

> <r_i_glide_lipo>
-1.73073

> <r_i_glide_metal>
0

> <r_i_glide_rewards>
-1.83545

> <s_i_glide_gridfile>
wee1_glide-grid

> <s_m_Source_File>
wee1_decoys_glide_SP.sdf

> <s_m_Source_Path>
/Users/zhangxujun/Desktop

> <s_m_entry_id>
6248

> <s_m_entry_name>
wee1_decoys_glide_SP.5973

> <s_m_subgroup_title>
wee1_decoys_glide_SP

> <s_m_subgroupid>
wee1_decoys_glide_SP


$$$$
