ZINC04151687_459
                    3D
 Schrodinger Suite 2024-2.
 67 70  0  0  1  0            999 V2000
    1.5957   54.4756   23.4497 C   0  0  0  0  0  0
    2.5325   53.5101   23.9101 O   0  0  0  0  0  0
    3.8415   53.9250   23.8658 C   0  0  0  0  0  0
    4.4568   54.1311   25.1012 C   0  0  0  0  0  0
    5.7808   54.5603   25.1680 C   0  0  0  0  0  0
    6.4924   54.7677   23.9929 C   0  0  0  0  0  0
    5.9143   54.4963   22.7558 C   0  0  0  0  0  0
    4.5902   54.0482   22.6650 C   0  0  0  0  0  0
    4.0496   53.6618   21.3014 C   0  0  0  0  0  0
    4.6062   54.0098   20.2600 O   0  0  0  0  0  0
    2.9790   52.8610   21.3293 N   0  0  0  0  0  0
    2.3167   52.1551   20.2386 C   0  0  2  0  0  0
    2.4479   52.7331   19.3212 H   0  0  0  0  0  0
    0.8128   52.0957   20.5237 C   0  0  0  0  0  0
    0.0333   51.0015   20.3550 C   0  0  0  0  0  0
    0.5735   49.6786   19.7898 C   0  0  0  0  0  0
    1.9823   49.8334   19.1572 C   0  0  2  0  0  0
    2.4317   48.8416   19.0728 H   0  0  0  0  0  0
    2.8933   50.7286   20.0354 C   0  0  2  0  0  0
    3.8937   50.8203   19.6130 H   0  0  0  0  0  0
    3.1036   50.0961   21.2861 O   0  0  0  0  0  0
    1.9044   50.2885   17.8161 O   0  0  0  0  0  0
   -1.3683   50.9724   20.7426 C   0  0  0  0  0  0
   -2.2158   50.8267   19.8585 O   0  0  0  0  0  0
   -1.7025   50.9974   22.0735 N   0  0  0  0  0  0
   -3.0757   50.5689   22.4531 C   0  0  0  0  0  0
   -3.6421   51.2860   23.6805 C   0  0  0  0  0  0
   -4.9512   51.0226   24.1009 C   0  0  0  0  0  0
   -5.4760   51.6220   25.2432 C   0  0  0  0  0  0
   -4.6878   52.4898   25.9908 C   0  0  0  0  0  0
   -3.3836   52.7624   25.5847 C   0  0  0  0  0  0
   -2.8547   52.1801   24.4275 C   0  0  0  0  0  0
   -1.4462   52.5093   23.9523 C   0  0  0  0  0  0
   -0.7680   51.3332   23.1907 C   0  0  1  0  0  0
    0.1952   51.6752   22.8272 H   0  0  0  0  0  0
   -0.3768   50.1703   24.1396 C   0  0  0  0  0  0
    0.1832   50.4103   25.2125 O   0  0  0  0  0  0
   -0.6682   48.9347   23.6777 O   0  0  0  0  0  0
   -0.3694   47.7961   24.4735 C   0  0  0  0  0  0
    6.5918   54.8519   26.7123 S   0  0  0  0  0  0
    5.5005   54.3282   28.0637 C   0  0  0  0  0  0
    0.6205   54.0182   23.3587 H   0  0  0  0  0  0
    1.5123   55.2967   24.1434 H   0  0  0  0  0  0
    1.8428   54.8965   22.4816 H   0  0  0  0  0  0
    3.8825   53.9732   26.0002 H   0  0  0  0  0  0
    7.5045   55.1222   24.0384 H   0  0  0  0  0  0
    6.5177   54.6248   21.8662 H   0  0  0  0  0  0
    2.6207   52.6565   22.2517 H   0  0  0  0  0  0
    0.3574   52.9876   20.9298 H   0  0  0  0  0  0
    0.6453   48.9701   20.6173 H   0  0  0  0  0  0
   -0.1164   49.2332   19.0701 H   0  0  0  0  0  0
    3.4876   49.2263   21.1341 H   0  0  0  0  0  0
    2.7526   50.0816   17.3826 H   0  0  0  0  0  0
   -3.7866   50.6832   21.6329 H   0  0  0  0  0  0
   -3.0484   49.5015   22.6718 H   0  0  0  0  0  0
   -5.5698   50.3386   23.5390 H   0  0  0  0  0  0
   -6.4874   51.4059   25.5523 H   0  0  0  0  0  0
   -5.0867   52.9480   26.8827 H   0  0  0  0  0  0
   -2.7825   53.4383   26.1731 H   0  0  0  0  0  0
   -0.8316   52.8416   24.7912 H   0  0  0  0  0  0
   -1.5358   53.3615   23.2830 H   0  0  0  0  0  0
   -0.6853   46.8961   23.9490 H   0  0  0  0  0  0
    0.7036   47.7227   24.6660 H   0  0  0  0  0  0
   -0.8888   47.8362   25.4338 H   0  0  0  0  0  0
    5.9944   54.4970   29.0208 H   0  0  0  0  0  0
    5.2694   53.2654   27.9765 H   0  0  0  0  0  0
    4.5733   54.9000   28.0584 H   0  0  0  0  0  0
  1  2  1  0  0  0
  1 42  1  0  0  0
  1 43  1  0  0  0
  1 44  1  0  0  0
  2  3  1  0  0  0
  3  8  2  0  0  0
  3  4  1  0  0  0
  4  5  2  0  0  0
  4 45  1  0  0  0
  5  6  1  0  0  0
  5 40  1  0  0  0
  6  7  2  0  0  0
  6 46  1  0  0  0
  7  8  1  0  0  0
  7 47  1  0  0  0
  8  9  1  0  0  0
  9 10  2  0  0  0
  9 11  1  0  0  0
 11 12  1  0  0  0
 11 48  1  0  0  0
 12 13  1  0  0  0
 12 19  1  0  0  0
 12 14  1  0  0  0
 14 15  2  0  0  0
 14 49  1  0  0  0
 15 16  1  0  0  0
 15 23  1  0  0  0
 16 17  1  0  0  0
 16 50  1  0  0  0
 16 51  1  0  0  0
 17 18  1  0  0  0
 17 19  1  0  0  0
 17 22  1  0  0  0
 19 20  1  0  0  0
 19 21  1  0  0  0
 21 52  1  0  0  0
 22 53  1  0  0  0
 23 24  2  0  0  0
 23 25  1  0  0  0
 25 34  1  0  0  0
 25 26  1  0  0  0
 26 27  1  0  0  0
 26 54  1  0  0  0
 26 55  1  0  0  0
 27 32  2  0  0  0
 27 28  1  0  0  0
 28 29  2  0  0  0
 28 56  1  0  0  0
 29 30  1  0  0  0
 29 57  1  0  0  0
 30 31  2  0  0  0
 30 58  1  0  0  0
 31 32  1  0  0  0
 31 59  1  0  0  0
 32 33  1  0  0  0
 33 34  1  0  0  0
 33 60  1  0  0  0
 33 61  1  0  0  0
 34 35  1  0  0  0
 34 36  1  0  0  0
 36 37  2  0  0  0
 36 38  1  0  0  0
 38 39  1  0  0  0
 39 62  1  0  0  0
 39 63  1  0  0  0
 39 64  1  0  0  0
 40 41  1  0  0  0
 41 65  1  0  0  0
 41 66  1  0  0  0
 41 67  1  0  0  0
M  END
> <i_i_glide_confnum>
249

> <i_i_glide_lignum>
460

> <i_i_glide_posenum>
51

> <i_i_glide_rotatable_bonds>
11

> <i_m_Source_File_Index>
2370

> <b_m_subgroup_collapsed>
0

> <r_i_docking_score>
-6.02275

> <r_i_glide_ecoul>
-7.17434

> <r_i_glide_eff_state_penalty>
0

> <r_i_glide_einternal>
13.518

> <r_i_glide_emodel>
-63.7757

> <r_i_glide_energy>
-51.2059

> <r_i_glide_erotb>
0.445495

> <r_i_glide_esite>
-0.00713742

> <r_i_glide_evdw>
-44.0315

> <r_i_glide_gscore>
-6.02275

> <r_i_glide_hbond>
-0.436958

> <r_i_glide_ligand_efficiency>
-0.162777

> <r_i_glide_ligand_efficiency_ln>
-1.30619

> <r_i_glide_ligand_efficiency_sa>
-0.542409

> <r_i_glide_lipo>
-2.59012

> <r_i_glide_metal>
0

> <r_i_glide_rewards>
-0.156305

> <s_i_glide_gridfile>
wee1_glide-grid

> <s_m_Source_File>
wee1_decoys_glide_SP.sdf

> <s_m_Source_Path>
/Users/zhangxujun/Desktop

> <s_m_entry_id>
2645

> <s_m_entry_name>
wee1_decoys_glide_SP.2370

> <s_m_subgroup_title>
wee1_decoys_glide_SP

> <s_m_subgroupid>
wee1_decoys_glide_SP


$$$$
