ZINC64202137_4917
                    3D
 Schrodinger Suite 2024-2.
 57 59  0  0  1  0            999 V2000
    3.5227   52.2851   15.9911 C   0  0  0  0  0  0
    2.2486   51.6644   16.5867 C   0  0  0  0  0  0
    1.9430   52.1360   18.0205 C   0  0  0  0  0  0
    2.8689   51.5794   19.1302 C   0  0  2  0  0  0
    3.9044   51.8051   18.8789 H   0  0  0  0  0  0
    2.6961   50.0592   19.3313 C   0  0  0  0  0  0
    2.5400   52.2688   20.3657 N   0  0  0  0  0  0
    3.2462   52.3003   21.5114 C   0  0  0  0  0  0
    4.3913   51.8589   21.6030 O   0  0  0  0  0  0
    2.5603   52.9245   22.7603 C   0  0  1  0  0  0
    2.6546   52.2276   23.5971 H   0  0  0  0  0  0
    3.1473   54.2953   23.1560 C   0  0  0  0  0  0
    4.4455   54.2541   23.9400 C   0  0  0  0  0  0
    4.6536   54.2687   25.2671 C   0  0  0  0  0  0
    3.7004   54.2149   26.3873 C   0  0  0  0  0  0
    4.1312   54.2716   27.6620 C   0  0  0  0  0  0
    5.5652   54.3886   27.8922 C   0  0  0  0  0  0
    6.4596   54.4240   26.8705 C   0  0  0  0  0  0
    6.0223   54.3683   25.5416 C   0  0  0  0  0  0
    6.7110   54.4040   24.4230 N   0  3  0  0  0  0
    5.8034   54.2992   23.2671 C   0  0  0  0  0  0
    1.1043   53.1042   22.5040 N   0  0  0  0  0  0
    0.0160   51.7117   22.4557 S   0  0  0  0  0  0
    0.7849   50.5069   22.1323 O   0  0  0  0  0  0
   -1.1500   52.0979   21.6542 O   0  0  0  0  0  0
   -0.5510   51.5732   24.1358 C   0  0  0  0  0  0
   -0.0366   50.5768   24.9619 C   0  0  0  0  0  0
   -0.4779   50.4900   26.2776 C   0  0  0  0  0  0
   -1.4210   51.3956   26.7620 C   0  0  0  0  0  0
   -1.9392   52.3867   25.9297 C   0  0  0  0  0  0
   -1.5022   52.4792   24.6132 C   0  0  0  0  0  0
   -1.9556   51.2975   28.3990 Cl  0  0  0  0  0  0
    3.7295   51.8734   15.0034 H   0  0  0  0  0  0
    3.4240   53.3664   15.8873 H   0  0  0  0  0  0
    4.3986   52.0962   16.6116 H   0  0  0  0  0  0
    2.3046   50.5764   16.5479 H   0  0  0  0  0  0
    1.4090   51.9295   15.9418 H   0  0  0  0  0  0
    0.9090   51.8813   18.2588 H   0  0  0  0  0  0
    1.9767   53.2265   18.0294 H   0  0  0  0  0  0
    3.0694   49.4926   18.4819 H   0  0  0  0  0  0
    3.2281   49.6978   20.2143 H   0  0  0  0  0  0
    1.6441   49.7900   19.4525 H   0  0  0  0  0  0
    1.6613   52.7663   20.3682 H   0  0  0  0  0  0
    3.2788   54.9232   22.2734 H   0  0  0  0  0  0
    2.4325   54.8311   23.7846 H   0  0  0  0  0  0
    2.6378   54.1000   26.2189 H   0  0  0  0  0  0
    3.4389   54.2194   28.4899 H   0  0  0  0  0  0
    5.9309   54.4439   28.9069 H   0  0  0  0  0  0
    7.5051   54.4967   27.1241 H   0  0  0  0  0  0
    6.0486   53.3818   22.7307 H   0  0  0  0  0  0
    5.9706   55.1646   22.6229 H   0  0  0  0  0  0
    0.7102   53.8686   23.0586 H   0  0  0  0  0  0
    0.6949   49.8669   24.6015 H   0  0  0  0  0  0
   -0.0932   49.6971   26.8979 H   0  0  0  0  0  0
   -2.6796   53.0775   26.3066 H   0  0  0  0  0  0
   -1.9014   53.2485   23.9676 H   0  0  0  0  0  0
    7.7236   54.4855   24.3403 H   0  0  0  0  0  0
  1  2  1  0  0  0
  1 33  1  0  0  0
  1 34  1  0  0  0
  1 35  1  0  0  0
  2  3  1  0  0  0
  2 36  1  0  0  0
  2 37  1  0  0  0
  3  4  1  0  0  0
  3 38  1  0  0  0
  3 39  1  0  0  0
  4  5  1  0  0  0
  4  6  1  0  0  0
  4  7  1  0  0  0
  6 40  1  0  0  0
  6 41  1  0  0  0
  6 42  1  0  0  0
  7  8  1  0  0  0
  7 43  1  0  0  0
  8  9  2  0  0  0
  8 10  1  0  0  0
 10 11  1  0  0  0
 10 12  1  0  0  0
 10 22  1  0  0  0
 12 13  1  0  0  0
 12 44  1  0  0  0
 12 45  1  0  0  0
 13 21  1  0  0  0
 13 14  2  0  0  0
 14 19  1  0  0  0
 14 15  1  0  0  0
 15 16  2  0  0  0
 15 46  1  0  0  0
 16 17  1  0  0  0
 16 47  1  0  0  0
 17 18  2  0  0  0
 17 48  1  0  0  0
 18 19  1  0  0  0
 18 49  1  0  0  0
 19 20  2  0  0  0
 20 21  1  0  0  0
 20 57  1  0  0  0
 21 50  1  0  0  0
 21 51  1  0  0  0
 22 23  1  0  0  0
 22 52  1  0  0  0
 23 24  2  0  0  0
 23 25  2  0  0  0
 23 26  1  0  0  0
 26 31  2  0  0  0
 26 27  1  0  0  0
 27 28  2  0  0  0
 27 53  1  0  0  0
 28 29  1  0  0  0
 28 54  1  0  0  0
 29 30  2  0  0  0
 29 32  1  0  0  0
 30 31  1  0  0  0
 30 55  1  0  0  0
 31 56  1  0  0  0
M  CHG  1  20   1
M  END
> <i_i_glide_confnum>
100

> <i_i_glide_lignum>
4918

> <i_i_glide_posenum>
234

> <i_i_glide_rotatable_bonds>
10

> <i_m_Source_File_Index>
4196

> <b_m_subgroup_collapsed>
0

> <r_i_docking_score>
-4.6571

> <r_i_glide_ecoul>
-3.66647

> <r_i_glide_eff_state_penalty>
0

> <r_i_glide_einternal>
9.78488

> <r_i_glide_emodel>
-52.2824

> <r_i_glide_energy>
-44.3996

> <r_i_glide_erotb>
0.695775

> <r_i_glide_esite>
-0.0280588

> <r_i_glide_evdw>
-40.7331

> <r_i_glide_gscore>
-4.6571

> <r_i_glide_hbond>
0

> <r_i_glide_ligand_efficiency>
-0.155237

> <r_i_glide_ligand_efficiency_ln>
-1.05814

> <r_i_glide_ligand_efficiency_sa>
-0.482356

> <r_i_glide_lipo>
-2.44903

> <r_i_glide_metal>
0

> <r_i_glide_rewards>
-0.289154

> <s_i_glide_gridfile>
wee1_glide-grid

> <s_m_Source_File>
wee1_decoys_glide_SP.sdf

> <s_m_Source_Path>
/Users/zhangxujun/Desktop

> <s_m_entry_id>
4471

> <s_m_entry_name>
wee1_decoys_glide_SP.4196

> <s_m_subgroup_title>
wee1_decoys_glide_SP

> <s_m_subgroupid>
wee1_decoys_glide_SP


$$$$
