ZINC45470684_5262
                    3D
 Schrodinger Suite 2024-2.
 63 67  0  0  1  0            999 V2000
    5.7325   54.1943   28.8672 C   0  0  0  0  0  0
    5.3398   53.8756   27.4188 C   0  0  1  0  0  0
    5.4991   52.8037   27.2775 H   0  0  0  0  0  0
    3.8570   54.2335   27.1968 C   0  0  0  0  0  0
    3.3269   53.7866   25.8255 C   0  0  0  0  0  0
    4.3612   54.0962   24.7385 C   0  0  0  0  0  0
    5.6816   54.4785   25.0191 C   0  0  0  0  0  0
    6.6099   54.7515   23.5720 S   0  0  0  0  0  0
    5.2524   54.3200   22.5829 C   0  0  0  0  0  0
    4.1376   53.9822   23.3561 C   0  0  0  0  0  0
    2.9183   53.5484   22.6700 C   0  0  0  0  0  0
    1.8299   53.2230   23.1382 O   0  0  0  0  0  0
    3.1094   53.5491   21.3206 N   0  0  0  0  0  0
    2.2689   53.3227   20.8117 H   0  0  0  0  0  0
    4.2143   53.9617   20.5974 C   0  0  0  0  0  0
    5.2885   54.3365   21.2132 N   0  0  0  0  0  0
    4.0066   54.0364   19.0606 C   0  0  2  0  0  0
    3.3275   54.8612   18.8479 H   0  0  0  0  0  0
    3.3658   52.7613   18.4603 C   0  0  0  0  0  0
    5.2645   54.4321   18.2224 N   0  3  2  0  0  0
    6.4768   53.4848   18.3410 C   0  0  0  0  0  0
    7.4210   53.5745   17.1360 C   0  0  0  0  0  0
    8.4558   54.7098   17.2069 C   0  0  0  0  0  0
    7.9889   56.1010   17.3053 N   0  0  0  0  0  0
    6.5535   56.3954   17.1469 C   0  0  0  0  0  0
    5.6138   55.9387   18.2786 C   0  0  0  0  0  0
    8.9188   57.1316   17.5896 C   0  0  0  0  0  0
   10.2936   56.8859   17.7323 C   0  0  0  0  0  0
   11.1478   57.9306   18.0783 C   0  0  0  0  0  0
   10.6365   59.2205   18.2471 C   0  0  0  0  0  0
    9.2663   59.4073   18.0386 C   0  0  0  0  0  0
    8.4239   58.3928   17.7380 N   0  0  0  0  0  0
   11.5448   60.3799   18.6362 C   0  0  0  0  0  0
   11.1317   61.5212   18.0794 F   0  0  0  0  0  0
   11.5066   60.5120   19.9630 F   0  0  0  0  0  0
   12.8104   60.1689   18.2650 F   0  0  0  0  0  0
    6.2491   54.6432   26.4230 C   0  0  0  0  0  0
    5.5965   55.2518   29.0964 H   0  0  0  0  0  0
    5.1044   53.6315   29.5603 H   0  0  0  0  0  0
    6.7749   53.9405   29.0643 H   0  0  0  0  0  0
    3.7072   55.2969   27.3395 H   0  0  0  0  0  0
    3.2419   53.7736   27.9720 H   0  0  0  0  0  0
    3.1056   52.7198   25.8428 H   0  0  0  0  0  0
    2.3807   54.2835   25.6195 H   0  0  0  0  0  0
    2.3313   52.6471   18.7828 H   0  0  0  0  0  0
    3.3493   52.7861   17.3695 H   0  0  0  0  0  0
    3.8937   51.8564   18.7619 H   0  0  0  0  0  0
    6.9756   53.7007   19.2823 H   0  0  0  0  0  0
    6.0398   52.4962   18.3877 H   0  0  0  0  0  0
    7.9714   52.6351   17.0916 H   0  0  0  0  0  0
    6.8718   53.6074   16.1950 H   0  0  0  0  0  0
    9.0598   54.6337   16.2985 H   0  0  0  0  0  0
    9.0822   54.4943   18.0751 H   0  0  0  0  0  0
    6.2328   55.9278   16.2153 H   0  0  0  0  0  0
    6.3642   57.4377   16.8910 H   0  0  0  0  0  0
    4.6715   56.4780   18.1816 H   0  0  0  0  0  0
    5.9960   56.1748   19.2729 H   0  0  0  0  0  0
   10.7135   55.8982   17.6197 H   0  0  0  0  0  0
   12.1995   57.7247   18.2232 H   0  0  0  0  0  0
    8.8038   60.3801   18.1140 H   0  0  0  0  0  0
    6.2916   55.6987   26.6890 H   0  0  0  0  0  0
    7.2666   54.2556   26.4814 H   0  0  0  0  0  0
    4.9473   54.2912   17.2731 H   0  0  0  0  0  0
  1  2  1  0  0  0
  1 38  1  0  0  0
  1 39  1  0  0  0
  1 40  1  0  0  0
  2  3  1  0  0  0
  2 37  1  0  0  0
  2  4  1  0  0  0
  4  5  1  0  0  0
  4 41  1  0  0  0
  4 42  1  0  0  0
  5  6  1  0  0  0
  5 43  1  0  0  0
  5 44  1  0  0  0
  6 10  1  0  0  0
  6  7  2  0  0  0
  7  8  1  0  0  0
  7 37  1  0  0  0
  8  9  1  0  0  0
  9 16  1  0  0  0
  9 10  2  0  0  0
 10 11  1  0  0  0
 11 12  2  0  0  0
 11 13  1  0  0  0
 13 14  1  0  0  0
 13 15  1  0  0  0
 15 16  2  0  0  0
 15 17  1  0  0  0
 17 18  1  0  0  0
 17 19  1  0  0  0
 17 20  1  0  0  0
 19 45  1  0  0  0
 19 46  1  0  0  0
 19 47  1  0  0  0
 20 26  1  0  0  0
 20 21  1  0  0  0
 20 63  1  0  0  0
 21 22  1  0  0  0
 21 48  1  0  0  0
 21 49  1  0  0  0
 22 23  1  0  0  0
 22 50  1  0  0  0
 22 51  1  0  0  0
 23 24  1  0  0  0
 23 52  1  0  0  0
 23 53  1  0  0  0
 24 25  1  0  0  0
 24 27  1  0  0  0
 25 26  1  0  0  0
 25 54  1  0  0  0
 25 55  1  0  0  0
 26 56  1  0  0  0
 26 57  1  0  0  0
 27 32  2  0  0  0
 27 28  1  0  0  0
 28 29  2  0  0  0
 28 58  1  0  0  0
 29 30  1  0  0  0
 29 59  1  0  0  0
 30 31  2  0  0  0
 30 33  1  0  0  0
 31 32  1  0  0  0
 31 60  1  0  0  0
 33 34  1  0  0  0
 33 35  1  0  0  0
 33 36  1  0  0  0
 37 61  1  0  0  0
 37 62  1  0  0  0
M  CHG  1  20   1
M  END
> <i_i_glide_confnum>
11

> <i_i_glide_lignum>
5263

> <i_i_glide_posenum>
39

> <i_i_glide_rotatable_bonds>
4

> <i_m_Source_File_Index>
1784

> <b_m_subgroup_collapsed>
0

> <r_i_docking_score>
-5.18734

> <r_i_glide_ecoul>
-4.56726

> <r_i_glide_eff_state_penalty>
0

> <r_i_glide_einternal>
2.47783

> <r_i_glide_emodel>
-52.9666

> <r_i_glide_energy>
-40.0729

> <r_i_glide_erotb>
0.251803

> <r_i_glide_esite>
-0.144156

> <r_i_glide_evdw>
-35.5057

> <r_i_glide_gscore>
-5.18734

> <r_i_glide_hbond>
-0.0248187

> <r_i_glide_ligand_efficiency>
-0.152569

> <r_i_glide_ligand_efficiency_ln>
-1.14603

> <r_i_glide_ligand_efficiency_sa>
-0.494264

> <r_i_glide_lipo>
-2.62462

> <r_i_glide_metal>
0

> <r_i_glide_rewards>
-0.185181

> <s_i_glide_gridfile>
wee1_glide-grid

> <s_m_Source_File>
wee1_decoys_glide_SP.sdf

> <s_m_Source_Path>
/Users/zhangxujun/Desktop

> <s_m_entry_id>
2059

> <s_m_entry_name>
wee1_decoys_glide_SP.1784

> <s_m_subgroup_title>
wee1_decoys_glide_SP

> <s_m_subgroupid>
wee1_decoys_glide_SP


$$$$
