ZINC04070211_3552
                    3D
 Schrodinger Suite 2024-2.
 34 36  0  0  1  0            999 V2000
    4.4524   53.2866   19.5618 C   0  0  0  0  0  0
    5.3399   53.6979   18.5610 C   0  0  0  0  0  0
    6.1968   54.7051   18.9821 C   0  0  0  0  0  0
    5.9046   55.1555   20.6289 S   0  0  0  0  0  0
    4.6532   53.9369   20.7790 C   0  0  0  0  0  0
    3.9047   53.7348   21.9985 C   0  0  0  0  0  0
    2.8124   53.1669   21.9853 O   0  0  0  0  0  0
    4.5493   54.1635   23.1007 N   0  0  0  0  0  0
    4.1746   54.0910   24.4412 C   0  0  0  0  0  0
    5.0332   54.2721   25.5485 C   0  0  0  0  0  0
    4.3312   54.1595   26.7828 C   0  0  0  0  0  0
    2.9762   53.8407   26.5989 C   0  0  0  0  0  0
    2.5491   53.6970   24.9322 S   0  0  0  0  0  0
    1.9735   53.5653   27.7106 C   0  0  0  0  0  0
    2.5234   54.1176   29.0384 C   0  0  0  0  0  0
    3.9786   53.6807   29.2624 C   0  0  0  0  0  0
    4.9387   54.2563   28.1931 C   0  0  0  0  0  0
    6.4454   54.6200   25.4602 C   0  0  0  0  0  0
    7.0132   55.2969   26.3090 O   0  0  0  0  0  0
    7.1043   54.1852   24.3829 N   0  0  0  0  0  0
    7.5636   55.5732   17.9845 Br  0  0  0  0  0  0
    3.7091   52.5160   19.4067 H   0  0  0  0  0  0
    5.3536   53.2716   17.5677 H   0  0  0  0  0  0
    5.4706   54.5445   22.9458 H   0  0  0  0  0  0
    1.8121   52.4901   27.8049 H   0  0  0  0  0  0
    1.0040   54.0121   27.4944 H   0  0  0  0  0  0
    1.8951   53.7759   29.8621 H   0  0  0  0  0  0
    2.4616   55.2078   29.0442 H   0  0  0  0  0  0
    4.0324   52.5901   29.2546 H   0  0  0  0  0  0
    4.3051   53.9897   30.2552 H   0  0  0  0  0  0
    5.1623   55.2966   28.4267 H   0  0  0  0  0  0
    5.8972   53.7369   28.2467 H   0  0  0  0  0  0
    6.7180   53.4411   23.8237 H   0  0  0  0  0  0
    8.0561   54.4968   24.2102 H   0  0  0  0  0  0
  1  5  2  0  0  0
  1  2  1  0  0  0
  1 22  1  0  0  0
  2  3  2  0  0  0
  2 23  1  0  0  0
  3  4  1  0  0  0
  3 21  1  0  0  0
  4  5  1  0  0  0
  5  6  1  0  0  0
  6  7  2  0  0  0
  6  8  1  0  0  0
  8  9  1  0  0  0
  8 24  1  0  0  0
  9 13  1  0  0  0
  9 10  2  0  0  0
 10 11  1  0  0  0
 10 18  1  0  0  0
 11 17  1  0  0  0
 11 12  2  0  0  0
 12 13  1  0  0  0
 12 14  1  0  0  0
 14 15  1  0  0  0
 14 25  1  0  0  0
 14 26  1  0  0  0
 15 16  1  0  0  0
 15 27  1  0  0  0
 15 28  1  0  0  0
 16 17  1  0  0  0
 16 29  1  0  0  0
 16 30  1  0  0  0
 17 31  1  0  0  0
 17 32  1  0  0  0
 18 19  2  0  0  0
 18 20  1  0  0  0
 20 33  1  0  0  0
 20 34  1  0  0  0
M  END
> <i_i_glide_confnum>
5

> <i_i_glide_lignum>
3553

> <i_i_glide_posenum>
359

> <i_i_glide_rotatable_bonds>
4

> <i_m_Source_File_Index>
2175

> <b_m_subgroup_collapsed>
0

> <r_i_docking_score>
-6.68239

> <r_i_glide_ecoul>
-5.20174

> <r_i_glide_eff_state_penalty>
0

> <r_i_glide_einternal>
3.52337

> <r_i_glide_emodel>
-59.3468

> <r_i_glide_energy>
-43.1974

> <r_i_glide_erotb>
0.393075

> <r_i_glide_esite>
0

> <r_i_glide_evdw>
-37.9957

> <r_i_glide_gscore>
-6.68239

> <r_i_glide_hbond>
-0.608

> <r_i_glide_ligand_efficiency>
-0.318209

> <r_i_glide_ligand_efficiency_ln>
-1.65221

> <r_i_glide_ligand_efficiency_sa>
-0.877914

> <r_i_glide_lipo>
-2.29294

> <r_i_glide_metal>
0

> <r_i_glide_rewards>
-1.49448

> <s_i_glide_gridfile>
wee1_glide-grid

> <s_m_Source_File>
wee1_decoys_glide_SP.sdf

> <s_m_Source_Path>
/Users/zhangxujun/Desktop

> <s_m_entry_id>
2450

> <s_m_entry_name>
wee1_decoys_glide_SP.2175

> <s_m_subgroup_title>
wee1_decoys_glide_SP

> <s_m_subgroupid>
wee1_decoys_glide_SP


$$$$
