ZINC34923108_5640
                    3D
 Schrodinger Suite 2024-2.
 56 59  0  0  1  0            999 V2000
   -1.6340   50.6361   26.9231 C   0  0  0  0  0  0
   -1.5957   52.0378   26.3112 C   0  0  0  0  0  0
   -0.3649   52.2946   25.4392 C   0  0  0  0  0  0
   -0.3244   52.3683   24.0710 C   0  0  0  0  0  0
    0.9745   52.8433   23.3507 C   0  0  1  0  0  0
    0.7062   53.7343   22.7855 H   0  0  0  0  0  0
    1.9827   53.3118   24.3507 N   0  0  0  0  0  0
    3.1678   53.9783   24.0682 C   0  0  0  0  0  0
    3.8948   54.2177   25.1756 C   0  0  0  0  0  0
    3.1213   53.6898   26.6597 S   0  0  0  0  0  0
    1.7424   53.1064   25.7084 C   0  0  0  0  0  0
    0.7027   52.5966   26.2375 N   0  0  0  0  0  0
    3.6109   54.3874   22.7444 C   0  0  0  0  0  0
    4.8733   54.3943   22.2757 C   0  0  0  0  0  0
    5.9752   54.0208   22.8269 O   0  5  0  0  0  0
    5.1037   54.8962   21.0168 N   0  0  0  0  0  0
    6.0583   54.4892   19.9997 C   0  0  0  0  0  0
    6.0612   55.4411   18.7933 C   0  0  0  0  0  0
    4.8098   55.3719   17.9373 C   0  0  0  0  0  0
    4.0502   56.4248   17.4275 C   0  0  0  0  0  0
    2.9259   56.0299   16.6948 C   0  0  0  0  0  0
    2.8034   54.6543   16.6209 C   0  0  0  0  0  0
    4.0865   53.8523   17.4617 S   0  0  0  0  0  0
    1.5582   51.8422   22.3417 C   0  0  0  0  0  0
    1.8444   52.2653   21.0382 C   0  0  0  0  0  0
    2.3651   51.3784   20.0985 C   0  0  0  0  0  0
    2.5929   50.0509   20.4495 C   0  0  0  0  0  0
    2.3042   49.6134   21.7420 C   0  0  0  0  0  0
    1.7915   50.5028   22.6860 C   0  0  0  0  0  0
    1.5049   50.0525   23.9273 F   0  0  0  0  0  0
   -1.4511   51.9854   23.1944 C   0  0  0  0  0  0
   -1.6323   52.4957   22.0860 O   0  0  0  0  0  0
   -2.2096   50.9745   23.6781 O   0  0  0  0  0  0
   -3.3109   50.4671   22.9399 C   0  0  0  0  0  0
   -2.5391   50.4889   27.5115 H   0  0  0  0  0  0
   -1.5963   49.8546   26.1642 H   0  0  0  0  0  0
   -0.7842   50.4954   27.5917 H   0  0  0  0  0  0
   -1.6246   52.7769   27.1138 H   0  0  0  0  0  0
   -2.5131   52.2231   25.7557 H   0  0  0  0  0  0
    4.8554   54.7092   25.2069 H   0  0  0  0  0  0
    2.8378   54.7573   22.0872 H   0  0  0  0  0  0
    4.2466   55.1644   20.5590 H   0  0  0  0  0  0
    5.9139   53.4534   19.6922 H   0  0  0  0  0  0
    7.0573   54.4978   20.4305 H   0  0  0  0  0  0
    6.8650   55.0871   18.1478 H   0  0  0  0  0  0
    6.4108   56.4380   19.0630 H   0  0  0  0  0  0
    4.3028   57.4635   17.5914 H   0  0  0  0  0  0
    2.2335   56.7224   16.2386 H   0  0  0  0  0  0
    2.0356   54.0784   16.1240 H   0  0  0  0  0  0
    1.6771   53.2926   20.7522 H   0  0  0  0  0  0
    2.5958   51.7177   19.0985 H   0  0  0  0  0  0
    2.9955   49.3648   19.7178 H   0  0  0  0  0  0
    2.4857   48.5839   22.0163 H   0  0  0  0  0  0
   -3.7689   49.6399   23.4830 H   0  0  0  0  0  0
   -4.0685   51.2387   22.7930 H   0  0  0  0  0  0
   -2.9929   50.0972   21.9634 H   0  0  0  0  0  0
  1  2  1  0  0  0
  1 35  1  0  0  0
  1 36  1  0  0  0
  1 37  1  0  0  0
  2  3  1  0  0  0
  2 38  1  0  0  0
  2 39  1  0  0  0
  3 12  1  0  0  0
  3  4  2  0  0  0
  4  5  1  0  0  0
  4 31  1  0  0  0
  5  6  1  0  0  0
  5  7  1  0  0  0
  5 24  1  0  0  0
  7 11  1  0  0  0
  7  8  1  0  0  0
  8  9  2  0  0  0
  8 13  1  0  0  0
  9 10  1  0  0  0
  9 40  1  0  0  0
 10 11  1  0  0  0
 11 12  2  0  0  0
 13 14  2  0  0  0
 13 41  1  0  0  0
 14 15  1  0  0  0
 14 16  1  0  0  0
 16 17  1  0  0  0
 16 42  1  0  0  0
 17 18  1  0  0  0
 17 43  1  0  0  0
 17 44  1  0  0  0
 18 19  1  0  0  0
 18 45  1  0  0  0
 18 46  1  0  0  0
 19 23  1  0  0  0
 19 20  2  0  0  0
 20 21  1  0  0  0
 20 47  1  0  0  0
 21 22  2  0  0  0
 21 48  1  0  0  0
 22 23  1  0  0  0
 22 49  1  0  0  0
 24 29  2  0  0  0
 24 25  1  0  0  0
 25 26  2  0  0  0
 25 50  1  0  0  0
 26 27  1  0  0  0
 26 51  1  0  0  0
 27 28  2  0  0  0
 27 52  1  0  0  0
 28 29  1  0  0  0
 28 53  1  0  0  0
 29 30  1  0  0  0
 31 32  2  0  0  0
 31 33  1  0  0  0
 33 34  1  0  0  0
 34 54  1  0  0  0
 34 55  1  0  0  0
 34 56  1  0  0  0
M  CHG  1  15  -1
M  END
> <i_i_glide_confnum>
101

> <i_i_glide_lignum>
5641

> <i_i_glide_posenum>
302

> <i_i_glide_rotatable_bonds>
9

> <i_m_Source_File_Index>
1305

> <b_m_subgroup_collapsed>
0

> <r_i_docking_score>
-4.27558

> <r_i_glide_ecoul>
-3.10011

> <r_i_glide_eff_state_penalty>
0

> <r_i_glide_einternal>
4.89463

> <r_i_glide_emodel>
-48.3874

> <r_i_glide_energy>
-38.7539

> <r_i_glide_erotb>
0.518913

> <r_i_glide_esite>
-0.0164632

> <r_i_glide_evdw>
-35.6538

> <r_i_glide_gscore>
-4.27558

> <r_i_glide_hbond>
0

> <r_i_glide_ligand_efficiency>
-0.129563

> <r_i_glide_ligand_efficiency_ln>
-0.950867

> <r_i_glide_ligand_efficiency_sa>
-0.415578

> <r_i_glide_lipo>
-1.85633

> <r_i_glide_metal>
0

> <r_i_glide_rewards>
-0.673999

> <s_i_glide_gridfile>
wee1_glide-grid

> <s_m_Source_File>
wee1_decoys_glide_SP.sdf

> <s_m_Source_Path>
/Users/zhangxujun/Desktop

> <s_m_entry_id>
1580

> <s_m_entry_name>
wee1_decoys_glide_SP.1305

> <s_m_subgroup_title>
wee1_decoys_glide_SP

> <s_m_subgroupid>
wee1_decoys_glide_SP


$$$$
