ZINC36293381_2771
                    3D
 Schrodinger Suite 2024-2.
 50 53  0  0  1  0            999 V2000
    4.3675   54.0968   22.0379 C   0  0  0  0  0  0
    5.5120   54.5025   21.3608 C   0  0  0  0  0  0
    6.6338   54.9057   22.0807 C   0  0  0  0  0  0
    6.6259   54.8947   23.4728 C   0  0  0  0  0  0
    5.4796   54.4927   24.1531 C   0  0  0  0  0  0
    4.3419   54.1015   23.4377 C   0  0  0  0  0  0
    3.0986   53.7021   24.1541 C   0  0  0  0  0  0
    1.9647   53.3269   23.6150 N   0  0  0  0  0  0
    1.2255   52.9284   24.6312 C   0  0  0  0  0  0
    1.8845   53.1662   25.8347 C   0  0  0  0  0  0
    3.0971   53.6795   25.5121 O   0  0  0  0  0  0
    1.6004   53.0226   27.1594 N   0  0  0  0  0  0
    2.1314   53.9471   28.1658 C   0  0  0  0  0  0
    1.0609   54.2485   29.2318 C   0  0  0  0  0  0
    0.3672   53.0194   29.8797 C   0  0  0  0  0  0
    0.1423   51.8986   28.8298 C   0  0  0  0  0  0
    1.2594   51.7343   27.7755 C   0  0  0  0  0  0
    1.2651   52.4967   31.0274 C   0  0  0  0  0  0
    2.4752   52.3302   30.8805 O   0  0  0  0  0  0
    0.7046   52.2682   32.2135 N   0  0  0  0  0  0
   -0.4110   52.2342   24.2963 S   0  0  0  0  0  0
   -0.8665   51.5267   25.4951 O   0  0  0  0  0  0
   -1.2160   53.2966   23.6823 O   0  0  0  0  0  0
   -0.0642   51.0220   23.0288 C   0  0  0  0  0  0
    1.0115   50.1477   23.1978 C   0  0  0  0  0  0
    1.3724   49.2967   22.1606 C   0  0  0  0  0  0
    0.6315   49.2873   20.9812 C   0  0  0  0  0  0
   -0.4610   50.1369   20.8220 C   0  0  0  0  0  0
   -0.8081   51.0137   21.8463 C   0  0  0  0  0  0
    0.9714   48.4385   19.9863 F   0  0  0  0  0  0
    7.7381   55.3169   21.4187 F   0  0  0  0  0  0
    3.4988   53.7990   21.4669 H   0  0  0  0  0  0
    5.5294   54.5124   20.2809 H   0  0  0  0  0  0
    7.5036   55.2065   24.0178 H   0  0  0  0  0  0
    5.4768   54.4928   25.2338 H   0  0  0  0  0  0
    2.4126   54.8854   27.6843 H   0  0  0  0  0  0
    3.0471   53.5386   28.5961 H   0  0  0  0  0  0
    0.3045   54.8999   28.8101 H   0  0  0  0  0  0
    1.4305   54.9315   29.9988 H   0  0  0  0  0  0
   -0.5557   53.3022   30.3878 H   0  0  0  0  0  0
   -0.0924   50.9493   29.3171 H   0  0  0  0  0  0
   -0.8274   52.0423   28.3504 H   0  0  0  0  0  0
    0.9381   51.0262   27.0130 H   0  0  0  0  0  0
    2.1572   51.2962   28.2144 H   0  0  0  0  0  0
   -0.3055   52.1442   32.3623 H   0  0  0  0  0  0
    1.3113   52.0755   32.9998 H   0  0  0  0  0  0
    1.5904   50.1535   24.1104 H   0  0  0  0  0  0
    2.2212   48.6376   22.2738 H   0  0  0  0  0  0
   -1.0253   50.1219   19.9014 H   0  0  0  0  0  0
   -1.6380   51.6924   21.7142 H   0  0  0  0  0  0
  1  6  2  0  0  0
  1  2  1  0  0  0
  1 32  1  0  0  0
  2  3  2  0  0  0
  2 33  1  0  0  0
  3  4  1  0  0  0
  3 31  1  0  0  0
  4  5  2  0  0  0
  4 34  1  0  0  0
  5  6  1  0  0  0
  5 35  1  0  0  0
  6  7  1  0  0  0
  7 11  1  0  0  0
  7  8  2  0  0  0
  8  9  1  0  0  0
  9 10  2  0  0  0
  9 21  1  0  0  0
 10 11  1  0  0  0
 10 12  1  0  0  0
 12 17  1  0  0  0
 12 13  1  0  0  0
 13 14  1  0  0  0
 13 36  1  0  0  0
 13 37  1  0  0  0
 14 15  1  0  0  0
 14 38  1  0  0  0
 14 39  1  0  0  0
 15 16  1  0  0  0
 15 18  1  0  0  0
 15 40  1  0  0  0
 16 17  1  0  0  0
 16 41  1  0  0  0
 16 42  1  0  0  0
 17 43  1  0  0  0
 17 44  1  0  0  0
 18 19  2  0  0  0
 18 20  1  0  0  0
 20 45  1  0  0  0
 20 46  1  0  0  0
 21 22  2  0  0  0
 21 23  2  0  0  0
 21 24  1  0  0  0
 24 29  2  0  0  0
 24 25  1  0  0  0
 25 26  2  0  0  0
 25 47  1  0  0  0
 26 27  1  0  0  0
 26 48  1  0  0  0
 27 28  2  0  0  0
 27 30  1  0  0  0
 28 29  1  0  0  0
 28 49  1  0  0  0
 29 50  1  0  0  0
M  END
> <i_i_glide_confnum>
38

> <i_i_glide_lignum>
2772

> <i_i_glide_posenum>
278

> <i_i_glide_rotatable_bonds>
5

> <i_m_Source_File_Index>
2339

> <b_m_subgroup_collapsed>
0

> <r_i_docking_score>
-7.73815

> <r_i_glide_ecoul>
-10.5822

> <r_i_glide_eff_state_penalty>
0

> <r_i_glide_einternal>
8.51268

> <r_i_glide_emodel>
-72.2096

> <r_i_glide_energy>
-52.6861

> <r_i_glide_erotb>
0.400061

> <r_i_glide_esite>
-0.188682

> <r_i_glide_evdw>
-42.1039

> <r_i_glide_gscore>
-7.73815

> <r_i_glide_hbond>
-0.622429

> <r_i_glide_ligand_efficiency>
-0.249618

> <r_i_glide_ligand_efficiency_ln>
-1.74519

> <r_i_glide_ligand_efficiency_sa>
-0.784144

> <r_i_glide_lipo>
-2.79797

> <r_i_glide_metal>
0

> <r_i_glide_rewards>
-0.836597

> <s_i_glide_gridfile>
wee1_glide-grid

> <s_m_Source_File>
wee1_decoys_glide_SP.sdf

> <s_m_Source_Path>
/Users/zhangxujun/Desktop

> <s_m_entry_id>
2614

> <s_m_entry_name>
wee1_decoys_glide_SP.2339

> <s_m_subgroup_title>
wee1_decoys_glide_SP

> <s_m_subgroupid>
wee1_decoys_glide_SP


$$$$
