ZINC01735890_3503
                    3D
 Schrodinger Suite 2024-2.
 66 68  0  0  1  0            999 V2000
    4.1870   54.0625   28.2425 C   0  0  0  0  0  0
    4.1578   54.0611   26.7063 C   0  0  0  0  0  0
    5.3166   54.4174   25.9933 C   0  0  0  0  0  0
    5.2847   54.4960   24.5872 C   0  0  0  0  0  0
    4.1076   54.1486   23.8858 C   0  0  0  0  0  0
    2.9772   53.6972   24.6007 C   0  0  0  0  0  0
    2.9868   53.6984   26.0120 C   0  0  0  0  0  0
    1.7377   53.3070   26.8140 C   0  0  0  0  0  0
    1.7564   53.1501   23.8476 C   0  0  0  0  0  0
    4.0357   54.3103   22.3554 C   0  0  0  0  0  0
    4.8260   53.3102   21.6497 N   0  0  0  0  0  0
    4.7306   53.5059   20.2577 N   0  0  0  0  0  0
    5.7101   54.0852   19.5051 C   0  0  0  0  0  0
    6.3044   55.6260   19.8097 S   0  0  0  0  0  0
    6.0908   53.2722   18.4752 N   0  0  0  0  0  0
    7.0543   53.3997   17.4599 C   0  0  0  0  0  0
    8.3409   53.9066   17.6816 C   0  0  0  0  0  0
    9.2692   53.9206   16.6452 C   0  0  0  0  0  0
    8.9210   53.4092   15.3931 C   0  0  0  0  0  0
    7.6380   52.9077   15.1689 C   0  0  0  0  0  0
    6.7090   52.8969   16.2048 C   0  0  0  0  0  0
   10.1291   53.3907   14.0684 S   0  0  0  0  0  0
   11.0890   54.4599   14.3708 O   0  0  0  0  0  0
    9.3713   53.3941   12.8110 O   0  0  0  0  0  0
   10.9894   51.8363   14.1902 N   0  0  0  0  0  0
   10.3337   50.6023   13.6838 C   0  0  0  0  0  0
    9.5855   49.8519   14.8073 C   0  0  0  0  0  0
   10.4910   49.6140   16.0368 C   0  0  0  0  0  0
   11.2102   50.8986   16.5016 C   0  0  0  0  0  0
   11.9147   51.6165   15.3299 C   0  0  0  0  0  0
    6.5375   54.9740   23.8407 C   0  0  0  0  0  0
    6.6226   54.6752   26.7570 C   0  0  0  0  0  0
    4.8099   54.8702   28.6276 H   0  0  0  0  0  0
    3.2150   54.2394   28.6995 H   0  0  0  0  0  0
    4.5824   53.1157   28.6145 H   0  0  0  0  0  0
    1.9624   52.4613   27.4656 H   0  0  0  0  0  0
    1.4269   54.1377   27.4486 H   0  0  0  0  0  0
    0.8594   53.0470   26.2288 H   0  0  0  0  0  0
    0.9712   53.9026   23.7714 H   0  0  0  0  0  0
    1.9942   52.7670   22.8572 H   0  0  0  0  0  0
    1.3524   52.2683   24.3422 H   0  0  0  0  0  0
    4.3911   55.2967   22.0815 H   0  0  0  0  0  0
    3.0114   54.3119   21.9867 H   0  0  0  0  0  0
    5.7998   53.4043   21.8985 H   0  0  0  0  0  0
    4.2289   52.7340   19.8427 H   0  0  0  0  0  0
    5.5679   52.4056   18.3922 H   0  0  0  0  0  0
    8.6416   54.2619   18.6556 H   0  0  0  0  0  0
   10.2631   54.3057   16.8249 H   0  0  0  0  0  0
    7.3646   52.5096   14.2023 H   0  0  0  0  0  0
    5.7268   52.4770   16.0332 H   0  0  0  0  0  0
   11.1154   49.9554   13.2810 H   0  0  0  0  0  0
    9.6792   50.8532   12.8492 H   0  0  0  0  0  0
    9.2141   48.8978   14.4299 H   0  0  0  0  0  0
    8.7030   50.4144   15.1061 H   0  0  0  0  0  0
    9.9109   49.1889   16.8575 H   0  0  0  0  0  0
   11.2455   48.8693   15.7792 H   0  0  0  0  0  0
   10.4924   51.5639   16.9780 H   0  0  0  0  0  0
   11.9375   50.6573   17.2775 H   0  0  0  0  0  0
   12.7374   50.9956   14.9716 H   0  0  0  0  0  0
   12.3444   52.5706   15.6367 H   0  0  0  0  0  0
    7.2589   54.1619   23.7446 H   0  0  0  0  0  0
    6.3412   55.3803   22.8544 H   0  0  0  0  0  0
    7.0175   55.7953   24.3726 H   0  0  0  0  0  0
    7.5043   54.4790   26.1537 H   0  0  0  0  0  0
    6.6635   55.6967   27.1331 H   0  0  0  0  0  0
    6.7267   53.9967   27.6044 H   0  0  0  0  0  0
  1  2  1  0  0  0
  1 33  1  0  0  0
  1 34  1  0  0  0
  1 35  1  0  0  0
  2  7  2  0  0  0
  2  3  1  0  0  0
  3  4  2  0  0  0
  3 32  1  0  0  0
  4  5  1  0  0  0
  4 31  1  0  0  0
  5  6  2  0  0  0
  5 10  1  0  0  0
  6  7  1  0  0  0
  6  9  1  0  0  0
  7  8  1  0  0  0
  8 36  1  0  0  0
  8 37  1  0  0  0
  8 38  1  0  0  0
  9 39  1  0  0  0
  9 40  1  0  0  0
  9 41  1  0  0  0
 10 11  1  0  0  0
 10 42  1  0  0  0
 10 43  1  0  0  0
 11 12  1  0  0  0
 11 44  1  0  0  0
 12 13  1  0  0  0
 12 45  1  0  0  0
 13 14  2  0  0  0
 13 15  1  0  0  0
 15 16  1  0  0  0
 15 46  1  0  0  0
 16 21  2  0  0  0
 16 17  1  0  0  0
 17 18  2  0  0  0
 17 47  1  0  0  0
 18 19  1  0  0  0
 18 48  1  0  0  0
 19 20  2  0  0  0
 19 22  1  0  0  0
 20 21  1  0  0  0
 20 49  1  0  0  0
 21 50  1  0  0  0
 22 23  2  0  0  0
 22 24  2  0  0  0
 22 25  1  0  0  0
 25 30  1  0  0  0
 25 26  1  0  0  0
 26 27  1  0  0  0
 26 51  1  0  0  0
 26 52  1  0  0  0
 27 28  1  0  0  0
 27 53  1  0  0  0
 27 54  1  0  0  0
 28 29  1  0  0  0
 28 55  1  0  0  0
 28 56  1  0  0  0
 29 30  1  0  0  0
 29 57  1  0  0  0
 29 58  1  0  0  0
 30 59  1  0  0  0
 30 60  1  0  0  0
 31 61  1  0  0  0
 31 62  1  0  0  0
 31 63  1  0  0  0
 32 64  1  0  0  0
 32 65  1  0  0  0
 32 66  1  0  0  0
M  END
> <i_i_glide_confnum>
108

> <i_i_glide_lignum>
3504

> <i_i_glide_posenum>
128

> <i_i_glide_rotatable_bonds>
8

> <i_m_Source_File_Index>
3845

> <b_m_subgroup_collapsed>
0

> <r_i_docking_score>
-5.59459

> <r_i_glide_ecoul>
-2.84909

> <r_i_glide_eff_state_penalty>
0

> <r_i_glide_einternal>
5.25995

> <r_i_glide_emodel>
-56.9615

> <r_i_glide_energy>
-44.2977

> <r_i_glide_erotb>
0.718492

> <r_i_glide_esite>
-0.0898567

> <r_i_glide_evdw>
-41.4486

> <r_i_glide_gscore>
-5.59459

> <r_i_glide_hbond>
-0.152995

> <r_i_glide_ligand_efficiency>
-0.174831

> <r_i_glide_ligand_efficiency_ln>
-1.25278

> <r_i_glide_ligand_efficiency_sa>
-0.555053

> <r_i_glide_lipo>
-3.34439

> <r_i_glide_metal>
0

> <r_i_glide_rewards>
-0.226045

> <s_i_glide_gridfile>
wee1_glide-grid

> <s_m_Source_File>
wee1_decoys_glide_SP.sdf

> <s_m_Source_Path>
/Users/zhangxujun/Desktop

> <s_m_entry_id>
4120

> <s_m_entry_name>
wee1_decoys_glide_SP.3845

> <s_m_subgroup_title>
wee1_decoys_glide_SP

> <s_m_subgroupid>
wee1_decoys_glide_SP


$$$$
