ZINC02862001_3145
                    3D
 Schrodinger Suite 2024-2.
 53 55  0  0  1  0            999 V2000
    1.5042   56.3723   30.4207 C   0  0  0  0  0  0
    1.8766   56.3330   29.1303 C   0  0  0  0  0  0
    2.3409   55.1255   28.3188 C   0  0  0  0  0  0
    2.7173   53.9279   29.0676 N   0  0  0  0  0  0
    3.9648   53.3469   29.1854 C   0  0  0  0  0  0
    3.9044   52.2760   29.9380 N   0  0  0  0  0  0
    2.5745   52.1041   30.3072 N   0  0  0  0  0  0
    1.8865   53.0805   29.7692 C   0  0  0  0  0  0
    0.1330   53.2367   29.8510 S   0  0  0  0  0  0
   -0.3075   51.6975   28.9852 C   0  0  0  0  0  0
   -0.0370   51.6371   27.4761 C   0  0  0  0  0  0
    0.5161   52.5704   26.8944 O   0  0  0  0  0  0
   -0.4462   50.4970   26.8814 N   0  0  0  0  0  0
   -0.3541   50.0985   25.5388 C   0  0  0  0  0  0
    0.4160   50.7415   24.5543 C   0  0  0  0  0  0
    0.4311   50.2541   23.2493 C   0  0  0  0  0  0
   -0.3225   49.1309   22.9112 C   0  0  0  0  0  0
   -1.0945   48.4777   23.8808 C   0  0  0  0  0  0
   -1.0915   48.9631   25.1930 C   0  0  0  0  0  0
   -1.9397   47.2557   23.5358 C   0  0  0  0  0  0
   -1.6975   46.7983   22.3051 F   0  0  0  0  0  0
   -3.2313   47.5757   23.6090 F   0  0  0  0  0  0
   -1.6970   46.2687   24.4010 F   0  0  0  0  0  0
    5.2454   53.8594   28.5372 C   0  0  0  0  0  0
    5.1675   53.7314   27.0827 N   0  0  0  0  0  0
    5.8084   54.5122   26.1966 C   0  0  0  0  0  0
    6.7043   55.2967   26.5070 O   0  0  0  0  0  0
    5.3693   54.3830   24.7595 C   0  0  0  0  0  0
    6.3044   54.5774   23.7341 C   0  0  0  0  0  0
    5.9156   54.4656   22.4038 C   0  0  0  0  0  0
    4.5964   54.1522   22.0882 C   0  0  0  0  0  0
    3.6505   53.9801   23.0966 C   0  0  0  0  0  0
    4.0337   54.0967   24.4303 C   0  0  0  0  0  0
    4.1295   53.9963   20.4360 Cl  0  0  0  0  0  0
    1.1952   57.2967   30.8824 H   0  0  0  0  0  0
    1.5025   55.4949   31.0446 H   0  0  0  0  0  0
    1.8450   57.2602   28.5754 H   0  0  0  0  0  0
    3.1773   55.4134   27.6863 H   0  0  0  0  0  0
    1.5401   54.8468   27.6335 H   0  0  0  0  0  0
   -1.3667   51.5080   29.1593 H   0  0  0  0  0  0
    0.2370   50.8966   29.4648 H   0  0  0  0  0  0
   -0.8954   49.8066   27.4838 H   0  0  0  0  0  0
    1.0193   51.6061   24.7789 H   0  0  0  0  0  0
    1.0291   50.7465   22.4967 H   0  0  0  0  0  0
   -0.3022   48.7748   21.8904 H   0  0  0  0  0  0
   -1.6770   48.4566   25.9498 H   0  0  0  0  0  0
    5.4207   54.8975   28.8301 H   0  0  0  0  0  0
    6.1159   53.2968   28.8816 H   0  0  0  0  0  0
    4.5755   52.9936   26.7257 H   0  0  0  0  0  0
    7.3350   54.8137   23.9608 H   0  0  0  0  0  0
    6.6402   54.6142   21.6164 H   0  0  0  0  0  0
    2.6245   53.7566   22.8429 H   0  0  0  0  0  0
    3.2837   53.9634   25.1968 H   0  0  0  0  0  0
  1  2  2  0  0  0
  1 35  1  0  0  0
  1 36  1  0  0  0
  2  3  1  0  0  0
  2 37  1  0  0  0
  3  4  1  0  0  0
  3 38  1  0  0  0
  3 39  1  0  0  0
  4  8  1  0  0  0
  4  5  1  0  0  0
  5  6  2  0  0  0
  5 24  1  0  0  0
  6  7  1  0  0  0
  7  8  2  0  0  0
  8  9  1  0  0  0
  9 10  1  0  0  0
 10 11  1  0  0  0
 10 40  1  0  0  0
 10 41  1  0  0  0
 11 12  2  0  0  0
 11 13  1  0  0  0
 13 14  1  0  0  0
 13 42  1  0  0  0
 14 19  2  0  0  0
 14 15  1  0  0  0
 15 16  2  0  0  0
 15 43  1  0  0  0
 16 17  1  0  0  0
 16 44  1  0  0  0
 17 18  2  0  0  0
 17 45  1  0  0  0
 18 19  1  0  0  0
 18 20  1  0  0  0
 19 46  1  0  0  0
 20 21  1  0  0  0
 20 22  1  0  0  0
 20 23  1  0  0  0
 24 25  1  0  0  0
 24 47  1  0  0  0
 24 48  1  0  0  0
 25 26  1  0  0  0
 25 49  1  0  0  0
 26 27  2  0  0  0
 26 28  1  0  0  0
 28 33  2  0  0  0
 28 29  1  0  0  0
 29 30  2  0  0  0
 29 50  1  0  0  0
 30 31  1  0  0  0
 30 51  1  0  0  0
 31 32  2  0  0  0
 31 34  1  0  0  0
 32 33  1  0  0  0
 32 52  1  0  0  0
 33 53  1  0  0  0
M  END
> <i_i_glide_confnum>
254

> <i_i_glide_lignum>
3146

> <i_i_glide_posenum>
360

> <i_i_glide_rotatable_bonds>
12

> <i_m_Source_File_Index>
94

> <b_m_subgroup_collapsed>
0

> <r_i_docking_score>
-8.10658

> <r_i_glide_ecoul>
-9.35629

> <r_i_glide_eff_state_penalty>
0

> <r_i_glide_einternal>
7.38096

> <r_i_glide_emodel>
-96.0609

> <r_i_glide_energy>
-65.6049

> <r_i_glide_erotb>
0.78772

> <r_i_glide_esite>
-0.242464

> <r_i_glide_evdw>
-56.2486

> <r_i_glide_gscore>
-8.10658

> <r_i_glide_hbond>
-0.456

> <r_i_glide_ligand_efficiency>
-0.238429

> <r_i_glide_ligand_efficiency_ln>
-1.79097

> <r_i_glide_ligand_efficiency_sa>
-0.772417

> <r_i_glide_lipo>
-2.76981

> <r_i_glide_metal>
0

> <r_i_glide_rewards>
-1.21015

> <s_i_glide_gridfile>
wee1_glide-grid

> <s_m_Source_File>
wee1_decoys_glide_SP.sdf

> <s_m_Source_Path>
/Users/zhangxujun/Desktop

> <s_m_entry_id>
369

> <s_m_entry_name>
wee1_decoys_glide_SP.94

> <s_m_subgroup_title>
wee1_decoys_glide_SP

> <s_m_subgroupid>
wee1_decoys_glide_SP


$$$$
