ZINC30038387_5495
                    3D
 Schrodinger Suite 2024-2.
 58 61  0  0  1  0            999 V2000
   -2.8619   51.4025   15.2296 C   0  0  0  0  0  0
   -4.0967   50.8048   15.4590 C   0  0  0  0  0  0
   -4.5098   50.5372   16.7586 C   0  0  0  0  0  0
   -3.6949   50.8591   17.8613 C   0  0  0  0  0  0
   -2.4314   51.4429   17.6242 C   0  0  0  0  0  0
   -2.0402   51.7264   16.3069 C   0  0  0  0  0  0
   -1.5193   51.8035   18.7787 C   0  0  0  0  0  0
   -1.9951   52.4952   19.6823 O   0  0  0  0  0  0
   -0.2224   51.3746   18.7786 N   0  0  0  0  0  0
    0.3103   50.3746   17.8324 C   0  0  0  0  0  0
    1.5063   51.0308   17.1203 C   0  0  0  0  0  0
    2.6060   51.4398   18.1175 C   0  0  0  0  0  0
    2.0189   52.3071   19.2577 C   0  0  1  0  0  0
    1.7865   53.2963   18.8627 H   0  0  0  0  0  0
    0.7029   51.7364   19.8786 C   0  0  0  0  0  0
    3.0985   52.4866   20.3505 C   0  0  0  0  0  0
    3.1930   51.6494   21.2527 O   0  0  0  0  0  0
    3.9029   53.5726   20.2427 N   0  0  0  0  0  0
    4.8273   54.0484   21.1951 C   0  0  0  0  0  0
    5.9039   54.8237   20.7544 C   0  0  0  0  0  0
    6.8490   55.2993   21.6713 C   0  0  0  0  0  0
    6.6996   55.0487   23.0368 C   0  0  0  0  0  0
    5.5813   54.3323   23.4933 C   0  0  0  0  0  0
    4.6653   53.8307   22.5689 C   0  0  0  0  0  0
    5.2440   54.0971   24.8311 N   0  0  0  0  0  0
    5.7437   54.6161   25.9671 C   0  0  0  0  0  0
    6.7541   55.3121   26.0512 O   0  0  0  0  0  0
    4.9521   54.3148   27.1393 C   0  0  0  0  0  0
    5.3263   54.4850   28.4724 C   0  0  0  0  0  0
    4.3036   54.1719   29.3771 C   0  0  0  0  0  0
    3.1317   53.7775   28.7536 C   0  0  0  0  0  0
    3.2769   53.8060   27.0315 S   0  0  0  0  0  0
   -4.0729   50.6218   19.1735 O   0  0  0  0  0  0
   -5.2404   49.8542   19.4699 C   0  0  0  0  0  0
   -6.3724   50.4559   19.0904 F   0  0  0  0  0  0
   -5.1622   48.6079   18.9932 F   0  0  0  0  0  0
   -2.5418   51.6174   14.2210 H   0  0  0  0  0  0
   -4.7376   50.5534   14.6243 H   0  0  0  0  0  0
   -5.4787   50.0844   16.8890 H   0  0  0  0  0  0
   -1.0893   52.1954   16.1064 H   0  0  0  0  0  0
   -0.4246   49.9600   17.1432 H   0  0  0  0  0  0
    0.6609   49.5226   18.4144 H   0  0  0  0  0  0
    1.1800   51.8913   16.5323 H   0  0  0  0  0  0
    1.9208   50.3217   16.4022 H   0  0  0  0  0  0
    3.3805   51.9711   17.5574 H   0  0  0  0  0  0
    2.9983   50.4967   18.5095 H   0  0  0  0  0  0
    0.9139   50.8143   20.4293 H   0  0  0  0  0  0
    0.2699   52.4706   20.5597 H   0  0  0  0  0  0
    3.8279   54.1085   19.3910 H   0  0  0  0  0  0
    6.0406   55.0286   19.7025 H   0  0  0  0  0  0
    7.7046   55.8603   21.3252 H   0  0  0  0  0  0
    7.4393   55.4371   23.7184 H   0  0  0  0  0  0
    3.7991   53.2948   22.9266 H   0  0  0  0  0  0
    4.4390   53.5049   24.9576 H   0  0  0  0  0  0
    6.3025   54.8287   28.7845 H   0  0  0  0  0  0
    4.4149   54.2392   30.4484 H   0  0  0  0  0  0
    2.1966   53.4894   29.2130 H   0  0  0  0  0  0
   -5.3144   49.7542   20.5527 H   0  0  0  0  0  0
  1  6  2  0  0  0
  1  2  1  0  0  0
  1 37  1  0  0  0
  2  3  2  0  0  0
  2 38  1  0  0  0
  3  4  1  0  0  0
  3 39  1  0  0  0
  4  5  2  0  0  0
  4 33  1  0  0  0
  5  6  1  0  0  0
  5  7  1  0  0  0
  6 40  1  0  0  0
  7  8  2  0  0  0
  7  9  1  0  0  0
  9 15  1  0  0  0
  9 10  1  0  0  0
 10 11  1  0  0  0
 10 41  1  0  0  0
 10 42  1  0  0  0
 11 12  1  0  0  0
 11 43  1  0  0  0
 11 44  1  0  0  0
 12 13  1  0  0  0
 12 45  1  0  0  0
 12 46  1  0  0  0
 13 14  1  0  0  0
 13 15  1  0  0  0
 13 16  1  0  0  0
 15 47  1  0  0  0
 15 48  1  0  0  0
 16 17  2  0  0  0
 16 18  1  0  0  0
 18 19  1  0  0  0
 18 49  1  0  0  0
 19 24  2  0  0  0
 19 20  1  0  0  0
 20 21  2  0  0  0
 20 50  1  0  0  0
 21 22  1  0  0  0
 21 51  1  0  0  0
 22 23  2  0  0  0
 22 52  1  0  0  0
 23 24  1  0  0  0
 23 25  1  0  0  0
 24 53  1  0  0  0
 25 26  1  0  0  0
 25 54  1  0  0  0
 26 27  2  0  0  0
 26 28  1  0  0  0
 28 32  1  0  0  0
 28 29  2  0  0  0
 29 30  1  0  0  0
 29 55  1  0  0  0
 30 31  2  0  0  0
 30 56  1  0  0  0
 31 32  1  0  0  0
 31 57  1  0  0  0
 33 34  1  0  0  0
 34 35  1  0  0  0
 34 36  1  0  0  0
 34 58  1  0  0  0
M  END
> <i_i_glide_confnum>
59

> <i_i_glide_lignum>
5496

> <i_i_glide_posenum>
319

> <i_i_glide_rotatable_bonds>
10

> <i_m_Source_File_Index>
1882

> <b_m_subgroup_collapsed>
0

> <r_i_docking_score>
-6.13917

> <r_i_glide_ecoul>
-11.7582

> <r_i_glide_eff_state_penalty>
0

> <r_i_glide_einternal>
8.50503

> <r_i_glide_emodel>
-66.1383

> <r_i_glide_energy>
-50.4841

> <r_i_glide_erotb>
0.736267

> <r_i_glide_esite>
-0.0504374

> <r_i_glide_evdw>
-38.726

> <r_i_glide_gscore>
-6.13917

> <r_i_glide_hbond>
-0.608

> <r_i_glide_ligand_efficiency>
-0.175405

> <r_i_glide_ligand_efficiency_ln>
-1.34768

> <r_i_glide_ligand_efficiency_sa>
-0.573761

> <r_i_glide_lipo>
-2.10899

> <r_i_glide_metal>
0

> <r_i_glide_rewards>
-0.40799

> <s_i_glide_gridfile>
wee1_glide-grid

> <s_m_Source_File>
wee1_decoys_glide_SP.sdf

> <s_m_Source_Path>
/Users/zhangxujun/Desktop

> <s_m_entry_id>
2157

> <s_m_entry_name>
wee1_decoys_glide_SP.1882

> <s_m_subgroup_title>
wee1_decoys_glide_SP

> <s_m_subgroupid>
wee1_decoys_glide_SP


$$$$
