ZINC39676560_898
                    3D
 Schrodinger Suite 2024-2.
 76 79  0  0  1  0            999 V2000
   -6.3279   50.1828   20.4054 C   0  0  0  0  0  0
   -4.9539   50.6256   19.8708 C   0  0  0  0  0  0
   -3.7583   50.2832   20.8165 C   0  0  1  0  0  0
   -4.1020   50.4948   21.8303 H   0  0  0  0  0  0
   -3.4214   48.7722   20.7075 C   0  0  0  0  0  0
   -2.5205   51.2043   20.5937 C   0  0  0  0  0  0
   -2.5342   52.0069   19.6551 O   0  0  0  0  0  0
   -1.4711   51.1781   21.4540 N   0  0  0  0  0  0
   -0.2501   51.9330   21.1640 C   0  0  0  0  0  0
    0.8037   51.0979   21.8923 C   0  0  2  0  0  0
    1.0224   50.2604   21.2237 H   0  0  0  0  0  0
    0.1085   50.6156   23.1917 C   0  0  0  0  0  0
   -1.2821   50.2667   22.5944 C   0  0  0  0  0  0
    0.8366   49.4345   23.8725 C   0  0  0  0  0  0
    0.0114   48.8411   25.0327 C   0  0  0  0  0  0
   -0.2869   49.9366   26.0816 N   0  3  0  0  0  0
   -0.8668   51.2486   25.5002 C   0  0  0  0  0  0
    0.0113   51.7057   24.3064 C   0  0  0  0  0  0
    2.1506   51.8346   22.0413 C   0  0  0  0  0  0
    3.1541   51.1388   22.0816 O   0  0  0  0  0  0
    2.2000   53.1817   22.0457 N   0  0  0  0  0  0
    3.3941   54.0490   22.1305 C   0  0  0  0  0  0
    4.0179   54.0966   23.5465 C   0  0  0  0  0  0
    3.1773   54.3617   24.6338 C   0  0  0  0  0  0
    3.6922   54.4725   25.9227 C   0  0  0  0  0  0
    5.0571   54.3307   26.1558 C   0  0  0  0  0  0
    5.9116   54.0964   25.0696 C   0  0  0  0  0  0
    5.3914   53.9477   23.7852 C   0  0  0  0  0  0
    5.4686   54.4148   27.4715 O   0  0  0  0  0  0
    6.8169   54.0966   27.7971 C   0  0  0  0  0  0
    4.3423   54.0522   20.8986 C   0  0  0  0  0  0
    5.4501   54.9131   20.8606 C   0  0  0  0  0  0
    6.3066   54.9411   19.7632 C   0  0  0  0  0  0
    6.0733   54.1182   18.6660 C   0  0  0  0  0  0
    4.9402   53.2969   18.6675 C   0  0  0  0  0  0
    4.0922   53.2605   19.7696 C   0  0  0  0  0  0
    6.9955   54.1701   17.6408 O   0  0  0  0  0  0
    6.8716   53.2541   16.5569 C   0  0  0  0  0  0
   -7.1220   50.4612   19.7113 H   0  0  0  0  0  0
   -6.5513   50.6575   21.3615 H   0  0  0  0  0  0
   -6.3874   49.1023   20.5448 H   0  0  0  0  0  0
   -4.7838   50.1872   18.8851 H   0  0  0  0  0  0
   -5.0236   51.6967   19.6816 H   0  0  0  0  0  0
   -2.9353   48.3811   21.5988 H   0  0  0  0  0  0
   -4.3178   48.1642   20.5780 H   0  0  0  0  0  0
   -2.7793   48.5608   19.8497 H   0  0  0  0  0  0
    0.0010   52.0240   20.1045 H   0  0  0  0  0  0
   -0.3369   52.8967   21.6523 H   0  0  0  0  0  0
   -2.1060   50.1972   23.3022 H   0  0  0  0  0  0
   -1.1683   49.2703   22.1710 H   0  0  0  0  0  0
    0.9837   48.6385   23.1433 H   0  0  0  0  0  0
    1.8457   49.7065   24.1843 H   0  0  0  0  0  0
   -0.9476   48.4224   24.7269 H   0  0  0  0  0  0
    0.5829   48.0968   25.5779 H   0  0  0  0  0  0
   -0.8954   49.5468   26.7999 H   0  0  0  0  0  0
   -1.9032   51.0414   25.2332 H   0  0  0  0  0  0
   -0.8619   51.9701   26.3190 H   0  0  0  0  0  0
    1.0011   52.0158   24.6450 H   0  0  0  0  0  0
   -0.4483   52.6078   23.9011 H   0  0  0  0  0  0
    1.3504   53.6771   21.8309 H   0  0  0  0  0  0
    2.9513   55.0410   22.0510 H   0  0  0  0  0  0
    2.1157   54.4933   24.4808 H   0  0  0  0  0  0
    3.0286   54.6647   26.7534 H   0  0  0  0  0  0
    6.9748   53.9735   25.2072 H   0  0  0  0  0  0
    6.0782   53.7051   22.9907 H   0  0  0  0  0  0
    6.9386   54.0965   28.8800 H   0  0  0  0  0  0
    7.0976   53.1039   27.4404 H   0  0  0  0  0  0
    7.5045   54.8345   27.3853 H   0  0  0  0  0  0
    5.6566   55.5828   21.6816 H   0  0  0  0  0  0
    7.1649   55.5961   19.7637 H   0  0  0  0  0  0
    4.7136   52.6442   17.8383 H   0  0  0  0  0  0
    3.2395   52.6029   19.7154 H   0  0  0  0  0  0
    7.7020   53.3968   15.8652 H   0  0  0  0  0  0
    6.9030   52.2180   16.9004 H   0  0  0  0  0  0
    5.9490   53.4177   15.9980 H   0  0  0  0  0  0
    0.5773   50.1522   26.5588 H   0  0  0  0  0  0
  1  2  1  0  0  0
  1 39  1  0  0  0
  1 40  1  0  0  0
  1 41  1  0  0  0
  2  3  1  0  0  0
  2 42  1  0  0  0
  2 43  1  0  0  0
  3  4  1  0  0  0
  3  5  1  0  0  0
  3  6  1  0  0  0
  5 44  1  0  0  0
  5 45  1  0  0  0
  5 46  1  0  0  0
  6  7  2  0  0  0
  6  8  1  0  0  0
  8 13  1  0  0  0
  8  9  1  0  0  0
  9 10  1  0  0  0
  9 47  1  0  0  0
  9 48  1  0  0  0
 10 11  1  0  0  0
 10 12  1  0  0  0
 10 19  1  0  0  0
 12 18  1  0  0  0
 12 13  1  0  0  0
 12 14  1  0  0  0
 13 49  1  0  0  0
 13 50  1  0  0  0
 14 15  1  0  0  0
 14 51  1  0  0  0
 14 52  1  0  0  0
 15 16  1  0  0  0
 15 53  1  0  0  0
 15 54  1  0  0  0
 16 17  1  0  0  0
 16 55  1  0  0  0
 16 76  1  0  0  0
 17 18  1  0  0  0
 17 56  1  0  0  0
 17 57  1  0  0  0
 18 58  1  0  0  0
 18 59  1  0  0  0
 19 20  2  0  0  0
 19 21  1  0  0  0
 21 22  1  0  0  0
 21 60  1  0  0  0
 22 23  1  0  0  0
 22 31  1  0  0  0
 22 61  1  0  0  0
 23 28  2  0  0  0
 23 24  1  0  0  0
 24 25  2  0  0  0
 24 62  1  0  0  0
 25 26  1  0  0  0
 25 63  1  0  0  0
 26 27  2  0  0  0
 26 29  1  0  0  0
 27 28  1  0  0  0
 27 64  1  0  0  0
 28 65  1  0  0  0
 29 30  1  0  0  0
 30 66  1  0  0  0
 30 67  1  0  0  0
 30 68  1  0  0  0
 31 36  2  0  0  0
 31 32  1  0  0  0
 32 33  2  0  0  0
 32 69  1  0  0  0
 33 34  1  0  0  0
 33 70  1  0  0  0
 34 35  2  0  0  0
 34 37  1  0  0  0
 35 36  1  0  0  0
 35 71  1  0  0  0
 36 72  1  0  0  0
 37 38  1  0  0  0
 38 73  1  0  0  0
 38 74  1  0  0  0
 38 75  1  0  0  0
M  CHG  1  16   1
M  END
> <i_i_glide_confnum>
165

> <i_i_glide_lignum>
899

> <i_i_glide_posenum>
337

> <i_i_glide_rotatable_bonds>
10

> <i_m_Source_File_Index>
4766

> <b_m_subgroup_collapsed>
0

> <r_i_docking_score>
-5.62685

> <r_i_glide_ecoul>
-7.83989

> <r_i_glide_eff_state_penalty>
0

> <r_i_glide_einternal>
10.696

> <r_i_glide_emodel>
-59.2079

> <r_i_glide_energy>
-45.62

> <r_i_glide_erotb>
0.583058

> <r_i_glide_esite>
-0.101394

> <r_i_glide_evdw>
-37.7801

> <r_i_glide_gscore>
-5.62685

> <r_i_glide_hbond>
-0.547017

> <r_i_glide_ligand_efficiency>
-0.156301

> <r_i_glide_ligand_efficiency_ln>
-1.22763

> <r_i_glide_ligand_efficiency_sa>
-0.516096

> <r_i_glide_lipo>
-2.28626

> <r_i_glide_metal>
0

> <r_i_glide_rewards>
-0.210243

> <s_i_glide_gridfile>
wee1_glide-grid

> <s_m_Source_File>
wee1_decoys_glide_SP.sdf

> <s_m_Source_Path>
/Users/zhangxujun/Desktop

> <s_m_entry_id>
5041

> <s_m_entry_name>
wee1_decoys_glide_SP.4766

> <s_m_subgroup_title>
wee1_decoys_glide_SP

> <s_m_subgroupid>
wee1_decoys_glide_SP


$$$$
