ZINC00676474_4569
                    3D
 Schrodinger Suite 2024-2.
 49 51  0  0  1  0            999 V2000
   -6.7048   51.1758   31.3744 C   0  0  0  0  0  0
   -5.5575   50.4689   31.7257 C   0  0  0  0  0  0
   -4.5581   50.2550   30.7798 C   0  0  0  0  0  0
   -4.7008   50.7579   29.4836 C   0  0  0  0  0  0
   -5.8678   51.4563   29.1311 C   0  0  0  0  0  0
   -6.8654   51.6685   30.0804 C   0  0  0  0  0  0
   -3.6405   50.4974   28.5977 N   0  0  0  0  0  0
   -3.3363   51.1006   27.4296 C   0  0  0  0  0  0
   -3.9463   52.0513   26.9353 O   0  0  0  0  0  0
   -2.2669   50.4967   26.8806 N   0  0  0  0  0  0
   -1.6909   50.6529   25.6066 C   0  0  0  0  0  0
   -0.6897   49.7347   25.2788 C   0  0  0  0  0  0
   -0.1142   49.7425   24.0125 C   0  0  0  0  0  0
   -0.5413   50.6744   23.0633 C   0  0  0  0  0  0
   -1.5068   51.6248   23.3959 C   0  0  0  0  0  0
   -2.0803   51.6182   24.6644 C   0  0  0  0  0  0
    0.1019   50.6268   21.3935 S   0  0  0  0  0  0
    1.0192   49.4852   21.3002 O   0  0  0  0  0  0
   -1.0552   50.7473   20.5008 O   0  0  0  0  0  0
    1.0396   52.0960   21.2086 N   0  0  0  0  0  0
    2.2995   52.2762   21.9454 C   0  0  0  0  0  0
    3.3950   52.6395   20.9265 C   0  0  0  0  0  0
    4.7283   52.8526   21.6657 C   0  0  0  0  0  0
    4.5957   53.9236   22.7764 C   0  0  0  0  0  0
    3.3687   53.7279   23.7055 C   0  0  0  0  0  0
    2.0801   53.4622   22.9060 C   0  0  0  0  0  0
   -7.4785   51.3391   32.1115 H   0  0  0  0  0  0
   -5.4328   50.0974   32.7340 H   0  0  0  0  0  0
   -3.6723   49.7033   31.0638 H   0  0  0  0  0  0
   -6.0217   51.8298   28.1298 H   0  0  0  0  0  0
   -7.7641   52.2033   29.8124 H   0  0  0  0  0  0
   -2.9948   49.7799   28.9101 H   0  0  0  0  0  0
   -1.8670   49.7373   27.4275 H   0  0  0  0  0  0
   -0.3755   48.9860   25.9968 H   0  0  0  0  0  0
    0.6378   49.0052   23.7678 H   0  0  0  0  0  0
   -1.8350   52.3482   22.6636 H   0  0  0  0  0  0
   -2.8401   52.3519   24.8760 H   0  0  0  0  0  0
    0.5851   52.9281   20.8264 H   0  0  0  0  0  0
    2.5479   51.4012   22.5491 H   0  0  0  0  0  0
    3.4973   51.8537   20.1756 H   0  0  0  0  0  0
    3.1318   53.5481   20.3822 H   0  0  0  0  0  0
    5.0655   51.9048   22.0816 H   0  0  0  0  0  0
    5.5000   53.1520   20.9551 H   0  0  0  0  0  0
    5.5104   53.9593   23.3695 H   0  0  0  0  0  0
    4.5099   54.8954   22.2921 H   0  0  0  0  0  0
    3.5393   52.8972   24.3911 H   0  0  0  0  0  0
    3.2384   54.6084   24.3355 H   0  0  0  0  0  0
    1.8121   54.3660   22.3567 H   0  0  0  0  0  0
    1.2496   53.2625   23.5846 H   0  0  0  0  0  0
  1  6  2  0  0  0
  1  2  1  0  0  0
  1 27  1  0  0  0
  2  3  2  0  0  0
  2 28  1  0  0  0
  3  4  1  0  0  0
  3 29  1  0  0  0
  4  5  2  0  0  0
  4  7  1  0  0  0
  5  6  1  0  0  0
  5 30  1  0  0  0
  6 31  1  0  0  0
  7  8  1  0  0  0
  7 32  1  0  0  0
  8  9  2  0  0  0
  8 10  1  0  0  0
 10 11  1  0  0  0
 10 33  1  0  0  0
 11 16  2  0  0  0
 11 12  1  0  0  0
 12 13  2  0  0  0
 12 34  1  0  0  0
 13 14  1  0  0  0
 13 35  1  0  0  0
 14 15  2  0  0  0
 14 17  1  0  0  0
 15 16  1  0  0  0
 15 36  1  0  0  0
 16 37  1  0  0  0
 17 18  2  0  0  0
 17 19  2  0  0  0
 17 20  1  0  0  0
 20 21  1  0  0  0
 20 38  1  0  0  0
 21 26  1  0  0  0
 21 22  1  0  0  0
 21 39  1  0  0  0
 22 23  1  0  0  0
 22 40  1  0  0  0
 22 41  1  0  0  0
 23 24  1  0  0  0
 23 42  1  0  0  0
 23 43  1  0  0  0
 24 25  1  0  0  0
 24 44  1  0  0  0
 24 45  1  0  0  0
 25 26  1  0  0  0
 25 46  1  0  0  0
 25 47  1  0  0  0
 26 48  1  0  0  0
 26 49  1  0  0  0
M  END
> <i_i_glide_confnum>
45

> <i_i_glide_lignum>
4570

> <i_i_glide_posenum>
286

> <i_i_glide_rotatable_bonds>
7

> <i_m_Source_File_Index>
2542

> <b_m_subgroup_collapsed>
0

> <r_i_docking_score>
-3.51751

> <r_i_glide_ecoul>
-7.41233

> <r_i_glide_eff_state_penalty>
0

> <r_i_glide_einternal>
4.18824

> <r_i_glide_emodel>
-43.9549

> <r_i_glide_energy>
-37.2673

> <r_i_glide_erotb>
0.831321

> <r_i_glide_esite>
-0.270322

> <r_i_glide_evdw>
-29.8549

> <r_i_glide_gscore>
-3.51751

> <r_i_glide_hbond>
-0.277538

> <r_i_glide_ligand_efficiency>
-0.135289

> <r_i_glide_ligand_efficiency_ln>
-0.826077

> <r_i_glide_ligand_efficiency_sa>
-0.400793

> <r_i_glide_lipo>
-0.840644

> <r_i_glide_metal>
0

> <r_i_glide_rewards>
-0.355737

> <s_i_glide_gridfile>
wee1_glide-grid

> <s_m_Source_File>
wee1_decoys_glide_SP.sdf

> <s_m_Source_Path>
/Users/zhangxujun/Desktop

> <s_m_entry_id>
2817

> <s_m_entry_name>
wee1_decoys_glide_SP.2542

> <s_m_subgroup_title>
wee1_decoys_glide_SP

> <s_m_subgroupid>
wee1_decoys_glide_SP


$$$$
