ZINC57898302_2571
                    3D
 Schrodinger Suite 2024-2.
 53 55  0  0  1  0            999 V2000
    5.3656   56.0669   17.8639 C   0  0  0  0  0  0
    6.0166   54.7592   18.3706 C   0  0  1  0  0  0
    5.4389   53.9582   17.9032 H   0  0  0  0  0  0
    7.4727   54.5811   17.9182 C   0  0  0  0  0  0
    8.4151   55.6052   18.0904 C   0  0  0  0  0  0
    9.7340   55.4368   17.6781 C   0  0  0  0  0  0
   10.1256   54.2500   17.0661 C   0  0  0  0  0  0
    9.1936   53.2312   16.8584 C   0  0  0  0  0  0
    7.8717   53.3957   17.2817 C   0  0  0  0  0  0
    9.6976   51.7118   16.0611 S   0  0  0  0  0  0
    8.7190   51.4249   15.0083 O   0  0  0  0  0  0
   11.1299   51.8003   15.7637 O   0  0  0  0  0  0
    9.5047   50.4969   17.2816 N   0  0  0  0  0  0
    5.8243   54.5474   19.8106 N   0  0  0  0  0  0
    6.2365   55.3421   20.8187 C   0  0  0  0  0  0
    6.8341   56.4066   20.6502 O   0  0  0  0  0  0
    5.9038   54.8821   22.2165 C   0  0  0  0  0  0
    4.7630   54.1158   22.4910 C   0  0  0  0  0  0
    4.4172   53.8265   23.8090 C   0  0  0  0  0  0
    5.2066   54.2711   24.8791 C   0  0  0  0  0  0
    6.3645   54.9987   24.5949 C   0  0  0  0  0  0
    6.7044   55.2967   23.2821 C   0  0  0  0  0  0
    4.8022   53.9312   26.3289 C   0  0  0  0  0  0
    5.7364   54.5088   27.4267 C   0  0  0  0  0  0
    5.2786   54.1620   28.8528 C   0  0  0  0  0  0
    3.8014   54.4969   29.1097 C   0  0  0  0  0  0
    2.8912   53.8517   28.0560 C   0  0  0  0  0  0
    3.3098   54.2359   26.6265 C   0  0  0  0  0  0
    5.3919   56.1237   16.7747 H   0  0  0  0  0  0
    4.3181   56.1242   18.1666 H   0  0  0  0  0  0
    5.8621   56.9563   18.2531 H   0  0  0  0  0  0
    8.1349   56.5382   18.5544 H   0  0  0  0  0  0
   10.4545   56.2252   17.8404 H   0  0  0  0  0  0
   11.1535   54.1298   16.7543 H   0  0  0  0  0  0
    7.1602   52.5934   17.1240 H   0  0  0  0  0  0
    9.4996   49.5519   16.8936 H   0  0  0  0  0  0
   10.2309   50.5764   18.0066 H   0  0  0  0  0  0
    5.4377   53.6510   20.0673 H   0  0  0  0  0  0
    4.1052   53.7864   21.6997 H   0  0  0  0  0  0
    3.5224   53.2511   23.9877 H   0  0  0  0  0  0
    7.0135   55.3607   25.3757 H   0  0  0  0  0  0
    7.5823   55.8997   23.0992 H   0  0  0  0  0  0
    4.9268   52.8559   26.3792 H   0  0  0  0  0  0
    6.7429   54.1012   27.3139 H   0  0  0  0  0  0
    5.7996   55.5938   27.3412 H   0  0  0  0  0  0
    5.4456   53.0986   29.0346 H   0  0  0  0  0  0
    5.9017   54.7021   29.5667 H   0  0  0  0  0  0
    3.5126   54.1584   30.1025 H   0  0  0  0  0  0
    3.6602   55.5790   29.1014 H   0  0  0  0  0  0
    2.9236   52.7662   28.1633 H   0  0  0  0  0  0
    1.8535   54.1444   28.2295 H   0  0  0  0  0  0
    3.1161   55.2965   26.4734 H   0  0  0  0  0  0
    2.6587   53.6721   25.9576 H   0  0  0  0  0  0
  1  2  1  0  0  0
  1 29  1  0  0  0
  1 30  1  0  0  0
  1 31  1  0  0  0
  2  3  1  0  0  0
  2  4  1  0  0  0
  2 14  1  0  0  0
  4  9  2  0  0  0
  4  5  1  0  0  0
  5  6  2  0  0  0
  5 32  1  0  0  0
  6  7  1  0  0  0
  6 33  1  0  0  0
  7  8  2  0  0  0
  7 34  1  0  0  0
  8  9  1  0  0  0
  8 10  1  0  0  0
  9 35  1  0  0  0
 10 11  2  0  0  0
 10 12  2  0  0  0
 10 13  1  0  0  0
 13 36  1  0  0  0
 13 37  1  0  0  0
 14 15  1  0  0  0
 14 38  1  0  0  0
 15 16  2  0  0  0
 15 17  1  0  0  0
 17 22  2  0  0  0
 17 18  1  0  0  0
 18 19  2  0  0  0
 18 39  1  0  0  0
 19 20  1  0  0  0
 19 40  1  0  0  0
 20 21  2  0  0  0
 20 23  1  0  0  0
 21 22  1  0  0  0
 21 41  1  0  0  0
 22 42  1  0  0  0
 23 28  1  0  0  0
 23 24  1  0  0  0
 23 43  1  0  0  0
 24 25  1  0  0  0
 24 44  1  0  0  0
 24 45  1  0  0  0
 25 26  1  0  0  0
 25 46  1  0  0  0
 25 47  1  0  0  0
 26 27  1  0  0  0
 26 48  1  0  0  0
 26 49  1  0  0  0
 27 28  1  0  0  0
 27 50  1  0  0  0
 27 51  1  0  0  0
 28 52  1  0  0  0
 28 53  1  0  0  0
M  END
> <i_i_glide_confnum>
121

> <i_i_glide_lignum>
2572

> <i_i_glide_posenum>
239

> <i_i_glide_rotatable_bonds>
6

> <i_m_Source_File_Index>
4997

> <b_m_subgroup_collapsed>
0

> <r_i_docking_score>
-6.24088

> <r_i_glide_ecoul>
-5.69423

> <r_i_glide_eff_state_penalty>
0

> <r_i_glide_einternal>
4.82307

> <r_i_glide_emodel>
-55.6952

> <r_i_glide_energy>
-42.6153

> <r_i_glide_erotb>
0.651458

> <r_i_glide_esite>
-0.00639347

> <r_i_glide_evdw>
-36.9211

> <r_i_glide_gscore>
-6.24088

> <r_i_glide_hbond>
-0.477445

> <r_i_glide_ligand_efficiency>
-0.231144

> <r_i_glide_ligand_efficiency_ln>
-1.45277

> <r_i_glide_ligand_efficiency_sa>
-0.693431

> <r_i_glide_lipo>
-3.06443

> <r_i_glide_metal>
0

> <r_i_glide_rewards>
-0.643877

> <s_i_glide_gridfile>
wee1_glide-grid

> <s_m_Source_File>
wee1_decoys_glide_SP.sdf

> <s_m_Source_Path>
/Users/zhangxujun/Desktop

> <s_m_entry_id>
5272

> <s_m_entry_name>
wee1_decoys_glide_SP.4997

> <s_m_subgroup_title>
wee1_decoys_glide_SP

> <s_m_subgroupid>
wee1_decoys_glide_SP


$$$$
