ZINC43213497_3485
                    3D
 Schrodinger Suite 2024-2.
 78 81  0  0  1  0            999 V2000
    9.8759   57.6875   13.5073 C   0  0  0  0  0  0
    8.5079   57.3088   14.0994 C   0  0  0  0  0  0
    7.7681   58.4699   14.8121 C   0  0  2  0  0  0
    7.7261   59.2995   14.1039 H   0  0  0  0  0  0
    8.5535   58.9831   16.0432 C   0  0  0  0  0  0
    6.2970   58.0801   15.1264 C   0  0  1  0  0  0
    5.7392   57.8767   14.2086 H   0  0  0  0  0  0
    6.1384   56.9539   16.1319 C   0  0  0  0  0  0
    6.2447   57.0186   17.4368 N   0  0  0  0  0  0
    5.8424   55.8348   17.8750 C   0  0  0  0  0  0
    5.5919   55.0035   16.7858 C   0  0  0  0  0  0
    5.7563   55.7365   15.6615 O   0  0  0  0  0  0
    5.7295   55.5044   19.2623 C   0  0  0  0  0  0
    6.4540   56.0335   20.1074 O   0  0  0  0  0  0
    4.6857   54.7042   19.5445 N   0  0  0  0  0  0
    4.1442   54.4976   20.8910 C   0  0  0  0  0  0
    4.3000   53.0933   21.5163 C   0  0  1  0  0  0
    5.5989   53.1833   22.3457 C   0  0  0  0  0  0
    5.5718   54.0418   23.6139 C   0  0  0  0  0  0
    4.3806   53.7470   24.5173 C   0  0  0  0  0  0
    2.9950   53.5256   23.8190 C   0  0  1  0  0  0
    3.1108   52.6869   22.4805 C   0  0  1  0  0  0
    3.3074   51.6729   22.7701 H   0  0  0  0  0  0
    1.7120   52.5209   21.8307 C   0  0  0  0  0  0
    0.7734   51.7297   22.7599 C   0  0  0  0  0  0
    0.8501   52.1727   24.2232 C   0  0  0  0  0  0
    1.9691   52.8684   24.7426 C   0  0  0  0  0  0
    2.0374   53.1206   26.1202 C   0  0  0  0  0  0
    0.9995   52.7939   26.9589 C   0  0  0  0  0  0
   -0.1524   52.2219   26.4360 C   0  0  0  0  0  0
   -0.2076   51.8778   25.0837 C   0  0  0  0  0  0
   -1.3080   52.0177   27.3843 C   0  0  0  0  0  0
   -2.6954   51.8742   26.7171 C   0  0  0  0  0  0
   -0.9788   50.8966   28.3472 C   0  0  0  0  0  0
    2.4129   54.8966   23.5512 C   0  0  0  0  0  0
    4.5175   51.9520   20.4809 C   0  0  0  0  0  0
    5.5381   59.2968   15.6819 N   0  3  0  0  0  0
   10.2968   56.8532   12.9427 H   0  0  0  0  0  0
   10.5977   57.9487   14.2810 H   0  0  0  0  0  0
    9.7913   58.5352   12.8249 H   0  0  0  0  0  0
    7.8800   56.9202   13.2936 H   0  0  0  0  0  0
    8.6392   56.4775   14.7960 H   0  0  0  0  0  0
    8.7256   58.1922   16.7740 H   0  0  0  0  0  0
    9.5312   59.3687   15.7581 H   0  0  0  0  0  0
    8.0412   59.8011   16.5529 H   0  0  0  0  0  0
    5.2663   53.9765   16.6653 H   0  0  0  0  0  0
    4.1753   54.2757   18.7873 H   0  0  0  0  0  0
    4.5470   55.2832   21.5285 H   0  0  0  0  0  0
    3.1051   54.7329   20.8918 H   0  0  0  0  0  0
    5.9631   52.1874   22.5968 H   0  0  0  0  0  0
    6.3033   53.6832   21.6896 H   0  0  0  0  0  0
    6.4965   53.8838   24.1692 H   0  0  0  0  0  0
    5.5878   55.1017   23.3704 H   0  0  0  0  0  0
    4.6264   52.9005   25.1375 H   0  0  0  0  0  0
    4.3178   54.5507   25.2519 H   0  0  0  0  0  0
    1.2797   53.4549   21.4883 H   0  0  0  0  0  0
    1.7989   51.9286   20.9209 H   0  0  0  0  0  0
   -0.2503   51.7848   22.3883 H   0  0  0  0  0  0
    1.0493   50.6742   22.7266 H   0  0  0  0  0  0
    2.8696   53.6422   26.5653 H   0  0  0  0  0  0
    1.0687   53.0435   28.0084 H   0  0  0  0  0  0
   -1.0804   51.3798   24.6863 H   0  0  0  0  0  0
   -1.2948   52.9125   27.9892 H   0  0  0  0  0  0
   -2.8911   52.6869   26.0188 H   0  0  0  0  0  0
   -2.7845   50.9312   26.1811 H   0  0  0  0  0  0
   -3.4858   51.8865   27.4679 H   0  0  0  0  0  0
   -0.2756   51.2092   29.1161 H   0  0  0  0  0  0
   -1.8662   50.5085   28.8488 H   0  0  0  0  0  0
   -0.4997   50.0972   27.7772 H   0  0  0  0  0  0
    3.1048   55.4502   22.9629 H   0  0  0  0  0  0
    1.4367   54.8975   23.0677 H   0  0  0  0  0  0
    2.3073   55.4415   24.4817 H   0  0  0  0  0  0
    4.5848   50.9720   20.9514 H   0  0  0  0  0  0
    3.7137   51.9040   19.7435 H   0  0  0  0  0  0
    5.4395   52.0986   19.9171 H   0  0  0  0  0  0
    4.5691   59.0809   15.8588 H   0  0  0  0  0  0
    5.9369   59.6271   16.5514 H   0  0  0  0  0  0
    5.5590   60.0837   15.0478 H   0  0  0  0  0  0
  1  2  1  0  0  0
  1 38  1  0  0  0
  1 39  1  0  0  0
  1 40  1  0  0  0
  2  3  1  0  0  0
  2 41  1  0  0  0
  2 42  1  0  0  0
  3  4  1  0  0  0
  3  5  1  0  0  0
  3  6  1  0  0  0
  5 43  1  0  0  0
  5 44  1  0  0  0
  5 45  1  0  0  0
  6  7  1  0  0  0
  6  8  1  0  0  0
  6 37  1  0  0  0
  8 12  1  0  0  0
  8  9  2  0  0  0
  9 10  1  0  0  0
 10 11  2  0  0  0
 10 13  1  0  0  0
 11 12  1  0  0  0
 11 46  1  0  0  0
 13 14  2  0  0  0
 13 15  1  0  0  0
 15 16  1  0  0  0
 15 47  1  0  0  0
 16 17  1  0  0  0
 16 48  1  0  0  0
 16 49  1  0  0  0
 17 22  1  0  0  0
 17 18  1  0  0  0
 17 36  1  0  0  0
 18 19  1  0  0  0
 18 50  1  0  0  0
 18 51  1  0  0  0
 19 20  1  0  0  0
 19 52  1  0  0  0
 19 53  1  0  0  0
 20 21  1  0  0  0
 20 54  1  0  0  0
 20 55  1  0  0  0
 21 27  1  0  0  0
 21 22  1  0  0  0
 21 35  1  0  0  0
 22 23  1  0  0  0
 22 24  1  0  0  0
 24 25  1  0  0  0
 24 56  1  0  0  0
 24 57  1  0  0  0
 25 26  1  0  0  0
 25 58  1  0  0  0
 25 59  1  0  0  0
 26 31  2  0  0  0
 26 27  1  0  0  0
 27 28  2  0  0  0
 28 29  1  0  0  0
 28 60  1  0  0  0
 29 30  2  0  0  0
 29 61  1  0  0  0
 30 31  1  0  0  0
 30 32  1  0  0  0
 31 62  1  0  0  0
 32 33  1  0  0  0
 32 34  1  0  0  0
 32 63  1  0  0  0
 33 64  1  0  0  0
 33 65  1  0  0  0
 33 66  1  0  0  0
 34 67  1  0  0  0
 34 68  1  0  0  0
 34 69  1  0  0  0
 35 70  1  0  0  0
 35 71  1  0  0  0
 35 72  1  0  0  0
 36 73  1  0  0  0
 36 74  1  0  0  0
 36 75  1  0  0  0
 37 76  1  0  0  0
 37 77  1  0  0  0
 37 78  1  0  0  0
M  CHG  1  37   1
M  END
> <i_i_glide_confnum>
49

> <i_i_glide_lignum>
3486

> <i_i_glide_posenum>
156

> <i_i_glide_rotatable_bonds>
8

> <i_m_Source_File_Index>
3384

> <b_m_subgroup_collapsed>
0

> <r_i_docking_score>
-3.42525

> <r_i_glide_ecoul>
-6.44264

> <r_i_glide_eff_state_penalty>
0

> <r_i_glide_einternal>
9.22119

> <r_i_glide_emodel>
-24.6366

> <r_i_glide_energy>
-18.4395

> <r_i_glide_erotb>
0.555857

> <r_i_glide_esite>
-0.0971181

> <r_i_glide_evdw>
-11.9968

> <r_i_glide_gscore>
-3.42525

> <r_i_glide_hbond>
-0.0809907

> <r_i_glide_ligand_efficiency>
-0.100743

> <r_i_glide_ligand_efficiency_ln>
-0.756733

> <r_i_glide_ligand_efficiency_sa>
-0.326367

> <r_i_glide_lipo>
-1.91599

> <r_i_glide_metal>
0

> <r_i_glide_rewards>
-0.320767

> <s_i_glide_gridfile>
wee1_glide-grid

> <s_m_Source_File>
wee1_decoys_glide_SP.sdf

> <s_m_Source_Path>
/Users/zhangxujun/Desktop

> <s_m_entry_id>
3659

> <s_m_entry_name>
wee1_decoys_glide_SP.3384

> <s_m_subgroup_title>
wee1_decoys_glide_SP

> <s_m_subgroupid>
wee1_decoys_glide_SP


$$$$
