ZINC60344421_602
                    3D
 Schrodinger Suite 2024-2.
 70 73  0  0  1  0            999 V2000
   10.5638   55.0678   17.1090 C   0  0  0  0  0  0
    9.0343   55.0826   17.3290 N   0  3  0  0  0  0
    8.6686   56.0862   18.4433 C   0  0  0  0  0  0
    7.1421   56.0562   18.6612 C   0  0  0  0  0  0
    6.7144   54.7132   19.0717 N   0  0  0  0  0  0
    7.0187   53.6997   18.0460 C   0  0  0  0  0  0
    8.5245   53.6646   17.6790 C   0  0  0  0  0  0
    5.2875   54.7028   19.4373 C   0  0  0  0  0  0
    4.9130   53.6677   20.5442 C   0  0  1  0  0  0
    5.5022   52.7681   20.3531 H   0  0  0  0  0  0
    5.2585   54.1054   21.9977 C   0  0  0  0  0  0
    6.3857   54.8967   22.2555 C   0  0  0  0  0  0
    6.7045   55.2877   23.5514 C   0  0  0  0  0  0
    5.9397   54.8746   24.6347 C   0  0  0  0  0  0
    4.7995   54.0984   24.3937 C   0  0  0  0  0  0
    4.4591   53.7342   23.0921 C   0  0  0  0  0  0
    6.3793   55.2748   25.8825 O   0  0  0  0  0  0
    5.7041   54.7911   27.0393 C   0  0  0  0  0  0
    3.5052   53.2956   20.3366 N   0  0  0  0  0  0
    2.9578   52.0966   20.5834 C   0  0  0  0  0  0
    3.4861   51.2282   21.2805 O   0  0  0  0  0  0
    1.7739   51.9721   19.9576 N   0  0  0  0  0  0
    0.8731   50.9166   20.1597 C   0  0  0  0  0  0
    0.5522   50.1518   19.0338 C   0  0  0  0  0  0
   -0.3197   49.0708   19.1421 C   0  0  0  0  0  0
   -0.8974   48.7610   20.3710 C   0  0  0  0  0  0
   -0.6107   49.5388   21.4923 C   0  0  0  0  0  0
    0.2652   50.6278   21.4039 C   0  0  0  0  0  0
    0.5422   51.6555   22.8388 S   0  0  0  0  0  0
    0.1058   50.7612   24.3617 C   0  0  0  0  0  0
    0.8498   49.4432   24.5799 C   0  0  0  0  0  0
    0.7025   49.1692   26.0819 C   0  0  0  0  0  0
    0.4384   50.5261   26.7595 C   0  0  0  0  0  0
    0.3613   51.5711   25.6362 C   0  0  0  0  0  0
   11.0426   54.7858   18.0502 H   0  0  0  0  0  0
   10.7809   54.3453   16.3218 H   0  0  0  0  0  0
   10.8617   56.0720   16.8027 H   0  0  0  0  0  0
    8.9832   57.0706   18.0926 H   0  0  0  0  0  0
    9.2293   55.8173   19.3413 H   0  0  0  0  0  0
    6.8840   56.7889   19.4270 H   0  0  0  0  0  0
    6.6252   56.3249   17.7368 H   0  0  0  0  0  0
    6.4626   53.9842   17.1507 H   0  0  0  0  0  0
    6.6876   52.7044   18.3510 H   0  0  0  0  0  0
    8.6797   53.0606   16.7825 H   0  0  0  0  0  0
    9.1552   53.2962   18.4828 H   0  0  0  0  0  0
    4.9497   55.6854   19.7623 H   0  0  0  0  0  0
    4.7148   54.5048   18.5282 H   0  0  0  0  0  0
    7.0391   55.2255   21.4662 H   0  0  0  0  0  0
    7.5541   55.9239   23.7218 H   0  0  0  0  0  0
    4.1683   53.7658   25.2029 H   0  0  0  0  0  0
    3.5681   53.1403   22.9666 H   0  0  0  0  0  0
    6.1932   55.1833   27.9318 H   0  0  0  0  0  0
    4.6650   55.1185   27.0634 H   0  0  0  0  0  0
    5.7357   53.7012   27.0949 H   0  0  0  0  0  0
    2.8765   54.0434   20.0715 H   0  0  0  0  0  0
    1.7511   52.3905   19.0420 H   0  0  0  0  0  0
    1.0005   50.3712   18.0761 H   0  0  0  0  0  0
   -0.5474   48.4723   18.2719 H   0  0  0  0  0  0
   -1.5816   47.9291   20.4521 H   0  0  0  0  0  0
   -1.1015   49.2979   22.4217 H   0  0  0  0  0  0
   -0.9659   50.5806   24.2629 H   0  0  0  0  0  0
    0.4375   48.6157   24.0024 H   0  0  0  0  0  0
    1.9042   49.5545   24.3213 H   0  0  0  0  0  0
   -0.1394   48.4982   26.2603 H   0  0  0  0  0  0
    1.5861   48.6741   26.4841 H   0  0  0  0  0  0
   -0.5003   50.4886   27.3155 H   0  0  0  0  0  0
    1.2204   50.7741   27.4776 H   0  0  0  0  0  0
    1.3116   52.1046   25.5701 H   0  0  0  0  0  0
   -0.4347   52.2897   25.8331 H   0  0  0  0  0  0
    8.5637   55.3823   16.4844 H   0  0  0  0  0  0
  1  2  1  0  0  0
  1 35  1  0  0  0
  1 36  1  0  0  0
  1 37  1  0  0  0
  2  7  1  0  0  0
  2  3  1  0  0  0
  2 70  1  0  0  0
  3  4  1  0  0  0
  3 38  1  0  0  0
  3 39  1  0  0  0
  4  5  1  0  0  0
  4 40  1  0  0  0
  4 41  1  0  0  0
  5  6  1  0  0  0
  5  8  1  0  0  0
  6  7  1  0  0  0
  6 42  1  0  0  0
  6 43  1  0  0  0
  7 44  1  0  0  0
  7 45  1  0  0  0
  8  9  1  0  0  0
  8 46  1  0  0  0
  8 47  1  0  0  0
  9 10  1  0  0  0
  9 11  1  0  0  0
  9 19  1  0  0  0
 11 16  2  0  0  0
 11 12  1  0  0  0
 12 13  2  0  0  0
 12 48  1  0  0  0
 13 14  1  0  0  0
 13 49  1  0  0  0
 14 15  2  0  0  0
 14 17  1  0  0  0
 15 16  1  0  0  0
 15 50  1  0  0  0
 16 51  1  0  0  0
 17 18  1  0  0  0
 18 52  1  0  0  0
 18 53  1  0  0  0
 18 54  1  0  0  0
 19 20  1  0  0  0
 19 55  1  0  0  0
 20 21  2  0  0  0
 20 22  1  0  0  0
 22 23  1  0  0  0
 22 56  1  0  0  0
 23 28  2  0  0  0
 23 24  1  0  0  0
 24 25  2  0  0  0
 24 57  1  0  0  0
 25 26  1  0  0  0
 25 58  1  0  0  0
 26 27  2  0  0  0
 26 59  1  0  0  0
 27 28  1  0  0  0
 27 60  1  0  0  0
 28 29  1  0  0  0
 29 30  1  0  0  0
 30 34  1  0  0  0
 30 31  1  0  0  0
 30 61  1  0  0  0
 31 32  1  0  0  0
 31 62  1  0  0  0
 31 63  1  0  0  0
 32 33  1  0  0  0
 32 64  1  0  0  0
 32 65  1  0  0  0
 33 34  1  0  0  0
 33 66  1  0  0  0
 33 67  1  0  0  0
 34 68  1  0  0  0
 34 69  1  0  0  0
M  CHG  1   2   1
M  END
> <i_i_glide_confnum>
230

> <i_i_glide_lignum>
603

> <i_i_glide_posenum>
351

> <i_i_glide_rotatable_bonds>
10

> <i_m_Source_File_Index>
5584

> <b_m_subgroup_collapsed>
0

> <r_i_docking_score>
-5.31033

> <r_i_glide_ecoul>
-9.23025

> <r_i_glide_eff_state_penalty>
0

> <r_i_glide_einternal>
8.88635

> <r_i_glide_emodel>
-60.3516

> <r_i_glide_energy>
-47.7988

> <r_i_glide_erotb>
0.824144

> <r_i_glide_esite>
-0.0396608

> <r_i_glide_evdw>
-38.5686

> <r_i_glide_gscore>
-5.31033

> <r_i_glide_hbond>
-0.409299

> <r_i_glide_ligand_efficiency>
-0.160919

> <r_i_glide_ligand_efficiency_ln>
-1.18099

> <r_i_glide_ligand_efficiency_sa>
-0.516154

> <r_i_glide_lipo>
-2.1478

> <r_i_glide_metal>
0

> <r_i_glide_rewards>
-0.224752

> <s_i_glide_gridfile>
wee1_glide-grid

> <s_m_Source_File>
wee1_decoys_glide_SP.sdf

> <s_m_Source_Path>
/Users/zhangxujun/Desktop

> <s_m_entry_id>
5859

> <s_m_entry_name>
wee1_decoys_glide_SP.5584

> <s_m_subgroup_title>
wee1_decoys_glide_SP

> <s_m_subgroupid>
wee1_decoys_glide_SP


$$$$
