ZINC17410574_1493
                    3D
 Schrodinger Suite 2024-2.
 50 52  0  0  1  0            999 V2000
    5.6049   53.4537   19.2411 C   0  0  0  0  0  0
    4.6805   53.2837   20.4320 C   0  0  0  0  0  0
    4.6459   54.2477   21.4404 C   0  0  0  0  0  0
    3.7866   54.0970   22.5280 C   0  0  0  0  0  0
    2.9443   52.9851   22.6221 C   0  0  0  0  0  0
    3.0011   51.9957   21.6152 C   0  0  0  0  0  0
    3.8662   52.1540   20.5314 C   0  0  0  0  0  0
    2.2406   50.8566   21.6656 O   0  0  0  0  0  0
    2.1777   52.8862   23.8018 N   0  0  0  0  0  0
    0.8945   52.4834   23.9213 C   0  0  0  0  0  0
    0.2058   52.1457   22.9570 O   0  0  0  0  0  0
    0.2528   52.4632   25.3301 C   0  0  1  0  0  0
   -0.5736   53.1663   25.2126 H   0  0  0  0  0  0
   -0.3490   51.0640   25.6313 C   0  0  0  0  0  0
   -1.0705   51.0969   27.0019 C   0  0  0  0  0  0
   -0.1834   51.6610   28.1343 C   0  0  0  0  0  0
    0.3893   52.9704   27.7286 N   0  0  0  0  0  0
    1.1941   52.9136   26.4826 C   0  0  0  0  0  0
    0.9561   54.0281   29.0348 S   0  0  0  0  0  0
    1.5656   55.2369   28.4717 O   0  0  0  0  0  0
   -0.0952   54.1029   30.0520 O   0  0  0  0  0  0
    2.2824   53.0642   29.7718 C   0  0  0  0  0  0
    3.5833   52.8573   29.3036 C   0  0  0  0  0  0
    4.2634   52.0969   30.1300 N   0  0  0  0  0  0
    3.4098   51.7852   31.1869 O   0  0  0  0  0  0
    2.2012   52.3489   30.9459 C   0  0  0  0  0  0
    1.1178   52.1056   31.9729 C   0  0  0  0  0  0
    4.2719   53.3662   28.0587 C   0  0  0  0  0  0
    6.4371   54.1204   19.4680 H   0  0  0  0  0  0
    5.0539   53.8475   18.3870 H   0  0  0  0  0  0
    6.0373   52.4969   18.9483 H   0  0  0  0  0  0
    5.2781   55.1216   21.3796 H   0  0  0  0  0  0
    3.7794   54.8579   23.2956 H   0  0  0  0  0  0
    3.8991   51.3974   19.7577 H   0  0  0  0  0  0
    1.4797   50.9934   22.2438 H   0  0  0  0  0  0
    2.6104   53.2701   24.6273 H   0  0  0  0  0  0
   -1.0988   50.7700   24.8931 H   0  0  0  0  0  0
    0.4345   50.3075   25.7201 H   0  0  0  0  0  0
   -1.9757   51.7013   26.9256 H   0  0  0  0  0  0
   -1.4131   50.0982   27.2692 H   0  0  0  0  0  0
   -0.7560   51.7667   29.0569 H   0  0  0  0  0  0
    0.6332   50.9497   28.2665 H   0  0  0  0  0  0
    1.9474   52.1378   26.6322 H   0  0  0  0  0  0
    1.6175   53.9022   26.3000 H   0  0  0  0  0  0
    0.1644   51.8534   31.5084 H   0  0  0  0  0  0
    1.3673   51.2991   32.6609 H   0  0  0  0  0  0
    0.9343   52.9891   32.5816 H   0  0  0  0  0  0
    3.6600   54.0648   27.4913 H   0  0  0  0  0  0
    5.1977   53.8895   28.3006 H   0  0  0  0  0  0
    4.5343   52.5461   27.3887 H   0  0  0  0  0  0
  1  2  1  0  0  0
  1 29  1  0  0  0
  1 30  1  0  0  0
  1 31  1  0  0  0
  2  7  2  0  0  0
  2  3  1  0  0  0
  3  4  2  0  0  0
  3 32  1  0  0  0
  4  5  1  0  0  0
  4 33  1  0  0  0
  5  6  2  0  0  0
  5  9  1  0  0  0
  6  7  1  0  0  0
  6  8  1  0  0  0
  7 34  1  0  0  0
  8 35  1  0  0  0
  9 10  1  0  0  0
  9 36  1  0  0  0
 10 11  2  0  0  0
 10 12  1  0  0  0
 12 13  1  0  0  0
 12 18  1  0  0  0
 12 14  1  0  0  0
 14 15  1  0  0  0
 14 37  1  0  0  0
 14 38  1  0  0  0
 15 16  1  0  0  0
 15 39  1  0  0  0
 15 40  1  0  0  0
 16 17  1  0  0  0
 16 41  1  0  0  0
 16 42  1  0  0  0
 17 18  1  0  0  0
 17 19  1  0  0  0
 18 43  1  0  0  0
 18 44  1  0  0  0
 19 20  2  0  0  0
 19 21  2  0  0  0
 19 22  1  0  0  0
 22 26  2  0  0  0
 22 23  1  0  0  0
 23 24  2  0  0  0
 23 28  1  0  0  0
 24 25  1  0  0  0
 25 26  1  0  0  0
 26 27  1  0  0  0
 27 45  1  0  0  0
 27 46  1  0  0  0
 27 47  1  0  0  0
 28 48  1  0  0  0
 28 49  1  0  0  0
 28 50  1  0  0  0
M  END
> <i_i_glide_confnum>
136

> <i_i_glide_lignum>
1494

> <i_i_glide_posenum>
396

> <i_i_glide_rotatable_bonds>
6

> <i_m_Source_File_Index>
87

> <b_m_subgroup_collapsed>
0

> <r_i_docking_score>
-4.32426

> <r_i_glide_ecoul>
-3.27848

> <r_i_glide_eff_state_penalty>
0

> <r_i_glide_einternal>
8.81356

> <r_i_glide_emodel>
-50.77

> <r_i_glide_energy>
-42.9379

> <r_i_glide_erotb>
0.630938

> <r_i_glide_esite>
0

> <r_i_glide_evdw>
-39.6594

> <r_i_glide_gscore>
-4.32426

> <r_i_glide_hbond>
0

> <r_i_glide_ligand_efficiency>
-0.160158

> <r_i_glide_ligand_efficiency_ln>
-1.00662

> <r_i_glide_ligand_efficiency_sa>
-0.480474

> <r_i_glide_lipo>
-1.13321

> <r_i_glide_metal>
0

> <r_i_glide_rewards>
-1.34725

> <s_i_glide_gridfile>
wee1_glide-grid

> <s_m_Source_File>
wee1_decoys_glide_SP.sdf

> <s_m_Source_Path>
/Users/zhangxujun/Desktop

> <s_m_entry_id>
362

> <s_m_entry_name>
wee1_decoys_glide_SP.87

> <s_m_subgroup_title>
wee1_decoys_glide_SP

> <s_m_subgroupid>
wee1_decoys_glide_SP


$$$$
