ZINC36351168_4992
                    3D
 Schrodinger Suite 2024-2.
 57 61  0  0  1  0            999 V2000
    1.1650   47.6441   19.2849 C   0  0  0  0  0  0
    2.0248   48.8311   19.7178 C   0  0  0  0  0  0
    1.6785   49.2204   21.0446 O   0  0  0  0  0  0
    2.3251   50.2616   21.6189 C   0  0  0  0  0  0
    3.2461   50.8951   21.0978 O   0  0  0  0  0  0
    1.8194   50.6866   23.0183 C   0  0  1  0  0  0
    2.6694   50.5649   23.6862 H   0  0  0  0  0  0
    1.3590   52.1729   22.9895 C   0  0  1  0  0  0
    0.9213   52.4212   22.0249 H   0  0  0  0  0  0
    0.2535   52.0770   24.0641 C   0  0  2  0  0  0
   -0.4456   50.7744   23.5509 C   0  0  1  0  0  0
    0.7111   49.8724   23.5791 N   0  0  0  0  0  0
   -1.5361   50.8295   24.5259 N   0  0  0  0  0  0
   -2.3120   49.7942   25.0085 C   0  0  0  0  0  0
   -3.5288   50.0491   25.5276 C   0  0  0  0  0  0
   -3.9775   51.4353   25.5541 C   0  0  0  0  0  0
   -3.1916   52.4408   25.1068 C   0  0  0  0  0  0
   -1.9325   52.1367   24.5873 C   0  0  0  0  0  0
   -0.9442   52.8972   24.0817 N   0  3  0  0  0  0
   -4.3404   48.9535   26.1935 C   0  0  0  0  0  0
   -1.1261   50.6082   22.1514 C   0  0  0  0  0  0
   -1.5282   49.3208   21.7557 C   0  0  0  0  0  0
   -2.1492   49.1069   20.5292 C   0  0  0  0  0  0
   -2.3782   50.1813   19.6772 C   0  0  0  0  0  0
   -2.0081   51.4680   20.0539 C   0  0  0  0  0  0
   -1.4050   51.6822   21.2908 C   0  0  0  0  0  0
   -3.1312   49.9182   18.1471 Cl  0  0  0  0  0  0
    0.8296   52.1523   25.5292 C   0  0  0  0  0  0
    0.6553   51.1363   26.4866 C   0  0  0  0  0  0
    1.1062   51.2967   27.7937 C   0  0  0  0  0  0
    1.7803   52.4540   28.1629 C   0  0  0  0  0  0
    1.9866   53.4644   27.2317 C   0  0  0  0  0  0
    1.5047   53.3121   25.9345 C   0  0  0  0  0  0
    2.3621   52.6331   29.7788 Cl  0  0  0  0  0  0
    2.4072   53.1138   23.1432 O   0  0  0  0  0  0
    0.1063   47.9016   19.2751 H   0  0  0  0  0  0
    1.4390   47.3196   18.2811 H   0  0  0  0  0  0
    1.3072   46.8024   19.9589 H   0  0  0  0  0  0
    3.0803   48.5602   19.6646 H   0  0  0  0  0  0
    1.8740   49.6664   19.0301 H   0  0  0  0  0  0
    0.5598   49.0412   23.0235 H   0  0  0  0  0  0
   -1.8515   48.8168   25.0136 H   0  0  0  0  0  0
   -4.9578   51.6642   25.9484 H   0  0  0  0  0  0
   -3.5551   53.4569   25.1476 H   0  0  0  0  0  0
   -4.6765   49.2970   27.1733 H   0  0  0  0  0  0
   -5.2393   48.7293   25.6191 H   0  0  0  0  0  0
   -3.7574   48.0477   26.3679 H   0  0  0  0  0  0
   -1.3607   48.4728   22.4033 H   0  0  0  0  0  0
   -2.4460   48.1098   20.2384 H   0  0  0  0  0  0
   -2.1879   52.2944   19.3828 H   0  0  0  0  0  0
   -1.1514   52.6937   21.5551 H   0  0  0  0  0  0
    0.1686   50.2037   26.2493 H   0  0  0  0  0  0
    0.9341   50.5199   28.5197 H   0  0  0  0  0  0
    2.5048   54.3688   27.5138 H   0  0  0  0  0  0
    1.6421   54.1277   25.2430 H   0  0  0  0  0  0
    2.9915   53.0457   22.3811 H   0  0  0  0  0  0
   -0.9288   53.9072   24.0807 H   0  0  0  0  0  0
  1  2  1  0  0  0
  1 36  1  0  0  0
  1 37  1  0  0  0
  1 38  1  0  0  0
  2  3  1  0  0  0
  2 39  1  0  0  0
  2 40  1  0  0  0
  3  4  1  0  0  0
  4  5  2  0  0  0
  4  6  1  0  0  0
  6  7  1  0  0  0
  6 12  1  0  0  0
  6  8  1  0  0  0
  8  9  1  0  0  0
  8 10  1  0  0  0
  8 35  1  0  0  0
 10 19  1  0  0  0
 10 11  1  0  0  0
 10 28  1  0  0  0
 11 12  1  0  0  0
 11 13  1  0  0  0
 11 21  1  0  0  0
 12 41  1  0  0  0
 13 18  1  0  0  0
 13 14  1  0  0  0
 14 15  2  0  0  0
 14 42  1  0  0  0
 15 16  1  0  0  0
 15 20  1  0  0  0
 16 17  2  0  0  0
 16 43  1  0  0  0
 17 18  1  0  0  0
 17 44  1  0  0  0
 18 19  2  0  0  0
 19 57  1  0  0  0
 20 45  1  0  0  0
 20 46  1  0  0  0
 20 47  1  0  0  0
 21 26  2  0  0  0
 21 22  1  0  0  0
 22 23  2  0  0  0
 22 48  1  0  0  0
 23 24  1  0  0  0
 23 49  1  0  0  0
 24 25  2  0  0  0
 24 27  1  0  0  0
 25 26  1  0  0  0
 25 50  1  0  0  0
 26 51  1  0  0  0
 28 33  2  0  0  0
 28 29  1  0  0  0
 29 30  2  0  0  0
 29 52  1  0  0  0
 30 31  1  0  0  0
 30 53  1  0  0  0
 31 32  2  0  0  0
 31 34  1  0  0  0
 32 33  1  0  0  0
 32 54  1  0  0  0
 33 55  1  0  0  0
 35 56  1  0  0  0
M  CHG  1  19   1
M  END
> <i_i_glide_confnum>
5

> <i_i_glide_lignum>
4993

> <i_i_glide_posenum>
227

> <i_i_glide_rotatable_bonds>
6

> <i_m_Source_File_Index>
1202

> <b_m_subgroup_collapsed>
0

> <r_i_docking_score>
-2.59333

> <r_i_glide_ecoul>
-0.657253

> <r_i_glide_eff_state_penalty>
0

> <r_i_glide_einternal>
1.97149

> <r_i_glide_emodel>
-32.1404

> <r_i_glide_energy>
-29.7404

> <r_i_glide_erotb>
0.344908

> <r_i_glide_esite>
-0.00900608

> <r_i_glide_evdw>
-29.0832

> <r_i_glide_gscore>
-2.59333

> <r_i_glide_hbond>
0

> <r_i_glide_ligand_efficiency>
-0.0785859

> <r_i_glide_ligand_efficiency_ln>
-0.576744

> <r_i_glide_ligand_efficiency_sa>
-0.252067

> <r_i_glide_lipo>
-1.0316

> <r_i_glide_metal>
0

> <r_i_glide_rewards>
-0.344893

> <s_i_glide_gridfile>
wee1_glide-grid

> <s_m_Source_File>
wee1_decoys_glide_SP.sdf

> <s_m_Source_Path>
/Users/zhangxujun/Desktop

> <s_m_entry_id>
1477

> <s_m_entry_name>
wee1_decoys_glide_SP.1202

> <s_m_subgroup_title>
wee1_decoys_glide_SP

> <s_m_subgroupid>
wee1_decoys_glide_SP


$$$$
