ZINC39657100_5541
                    3D
 Schrodinger Suite 2024-2.
 65 69  0  0  1  0            999 V2000
    5.2077   54.3227   20.4453 C   0  0  0  0  0  0
    4.5973   53.4284   21.5419 C   0  0  1  0  0  0
    5.0719   52.4475   21.4427 H   0  0  0  0  0  0
    4.9370   53.9013   22.9702 C   0  0  0  0  0  0
    3.9545   54.0967   23.9527 C   0  0  0  0  0  0
    4.3128   54.4177   25.2607 C   0  0  0  0  0  0
    5.6585   54.5564   25.5915 C   0  0  0  0  0  0
    6.6414   54.4193   24.6179 C   0  0  0  0  0  0
    6.2815   54.0929   23.3157 C   0  0  0  0  0  0
    6.1692   54.8978   27.3915 Br  0  0  0  0  0  0
    3.1797   53.2340   21.2186 N   0  0  0  0  0  0
    2.3787   52.2363   21.6259 C   0  0  0  0  0  0
    2.7044   51.4071   22.4738 O   0  0  0  0  0  0
    0.9618   52.2265   21.0181 C   0  0  2  0  0  0
    0.7049   53.2462   20.7212 H   0  0  0  0  0  0
   -0.0214   51.7549   22.0992 C   0  0  0  0  0  0
   -1.1317   51.2092   21.3235 N   0  0  0  0  0  0
   -0.7871   51.0439   19.9064 C   0  0  0  0  0  0
    0.7498   51.2486   19.8257 C   0  0  0  0  0  0
    1.5224   49.8931   19.9678 C   0  0  0  0  0  0
    1.1972   48.8921   18.8356 C   0  0  0  0  0  0
    1.5045   49.5565   17.4721 N   0  3  0  0  0  0
    0.8644   50.9506   17.2832 C   0  0  0  0  0  0
    1.2597   51.8351   18.4844 C   0  0  0  0  0  0
   -2.3546   50.9226   21.8364 C   0  0  0  0  0  0
   -3.2673   50.4988   21.1235 O   0  0  0  0  0  0
   -2.5887   51.1223   23.3575 C   0  0  2  0  0  0
   -2.0708   52.0259   23.6766 H   0  0  0  0  0  0
   -2.0876   49.8742   24.1351 C   0  0  0  0  0  0
   -2.2496   50.1138   25.5352 O   0  0  0  0  0  0
   -3.4903   50.6169   25.8746 C   0  0  0  0  0  0
   -3.8726   50.5498   27.2146 C   0  0  0  0  0  0
   -5.0974   51.0932   27.6084 C   0  0  0  0  0  0
   -5.9297   51.7102   26.6692 C   0  0  0  0  0  0
   -5.5464   51.7841   25.3271 C   0  0  0  0  0  0
   -4.3243   51.2422   24.9303 C   0  0  0  0  0  0
   -3.9959   51.2959   23.5877 O   0  0  0  0  0  0
    6.2781   54.4844   20.5647 H   0  0  0  0  0  0
    5.0635   53.8807   19.4584 H   0  0  0  0  0  0
    4.7271   55.2967   20.4336 H   0  0  0  0  0  0
    2.9075   53.9719   23.7265 H   0  0  0  0  0  0
    3.5523   54.5338   26.0186 H   0  0  0  0  0  0
    7.6812   54.5370   24.8769 H   0  0  0  0  0  0
    7.0690   53.9587   22.5906 H   0  0  0  0  0  0
    2.7757   53.9306   20.6063 H   0  0  0  0  0  0
    0.3862   50.9141   22.6643 H   0  0  0  0  0  0
   -0.2771   52.5894   22.7535 H   0  0  0  0  0  0
   -1.2610   51.8703   19.3761 H   0  0  0  0  0  0
   -1.1464   50.1309   19.4359 H   0  0  0  0  0  0
    2.6034   50.0448   20.0173 H   0  0  0  0  0  0
    1.2591   49.4210   20.9164 H   0  0  0  0  0  0
    1.8302   48.0043   18.8831 H   0  0  0  0  0  0
    0.1542   48.5791   18.8097 H   0  0  0  0  0  0
    2.5168   49.6404   17.3616 H   0  0  0  0  0  0
    1.2525   51.3361   16.3378 H   0  0  0  0  0  0
   -0.2130   50.7972   17.1918 H   0  0  0  0  0  0
    0.8051   52.8150   18.3266 H   0  0  0  0  0  0
    2.3373   52.0163   18.5099 H   0  0  0  0  0  0
   -2.6576   48.9866   23.8490 H   0  0  0  0  0  0
   -1.0290   49.6833   23.9633 H   0  0  0  0  0  0
   -3.2222   50.0765   27.9390 H   0  0  0  0  0  0
   -5.4006   51.0313   28.6434 H   0  0  0  0  0  0
   -6.8771   52.1239   26.9795 H   0  0  0  0  0  0
   -6.1931   52.2504   24.5990 H   0  0  0  0  0  0
    1.2221   48.9421   16.7198 H   0  0  0  0  0  0
  1  2  1  0  0  0
  1 38  1  0  0  0
  1 39  1  0  0  0
  1 40  1  0  0  0
  2  3  1  0  0  0
  2  4  1  0  0  0
  2 11  1  0  0  0
  4  9  2  0  0  0
  4  5  1  0  0  0
  5  6  2  0  0  0
  5 41  1  0  0  0
  6  7  1  0  0  0
  6 42  1  0  0  0
  7  8  2  0  0  0
  7 10  1  0  0  0
  8  9  1  0  0  0
  8 43  1  0  0  0
  9 44  1  0  0  0
 11 12  1  0  0  0
 11 45  1  0  0  0
 12 13  2  0  0  0
 12 14  1  0  0  0
 14 15  1  0  0  0
 14 19  1  0  0  0
 14 16  1  0  0  0
 16 17  1  0  0  0
 16 46  1  0  0  0
 16 47  1  0  0  0
 17 18  1  0  0  0
 17 25  1  0  0  0
 18 19  1  0  0  0
 18 48  1  0  0  0
 18 49  1  0  0  0
 19 24  1  0  0  0
 19 20  1  0  0  0
 20 21  1  0  0  0
 20 50  1  0  0  0
 20 51  1  0  0  0
 21 22  1  0  0  0
 21 52  1  0  0  0
 21 53  1  0  0  0
 22 23  1  0  0  0
 22 54  1  0  0  0
 22 65  1  0  0  0
 23 24  1  0  0  0
 23 55  1  0  0  0
 23 56  1  0  0  0
 24 57  1  0  0  0
 24 58  1  0  0  0
 25 26  2  0  0  0
 25 27  1  0  0  0
 27 28  1  0  0  0
 27 37  1  0  0  0
 27 29  1  0  0  0
 29 30  1  0  0  0
 29 59  1  0  0  0
 29 60  1  0  0  0
 30 31  1  0  0  0
 31 36  2  0  0  0
 31 32  1  0  0  0
 32 33  2  0  0  0
 32 61  1  0  0  0
 33 34  1  0  0  0
 33 62  1  0  0  0
 34 35  2  0  0  0
 34 63  1  0  0  0
 35 36  1  0  0  0
 35 64  1  0  0  0
 36 37  1  0  0  0
M  CHG  1  22   1
M  END
> <i_i_glide_confnum>
97

> <i_i_glide_lignum>
5542

> <i_i_glide_posenum>
378

> <i_i_glide_rotatable_bonds>
6

> <i_m_Source_File_Index>
4177

> <b_m_subgroup_collapsed>
0

> <r_i_docking_score>
-5.36165

> <r_i_glide_ecoul>
-6.2417

> <r_i_glide_eff_state_penalty>
0

> <r_i_glide_einternal>
1.09359

> <r_i_glide_emodel>
-60.8804

> <r_i_glide_energy>
-43.1635

> <r_i_glide_erotb>
0.367583

> <r_i_glide_esite>
-0.108889

> <r_i_glide_evdw>
-36.9218

> <r_i_glide_gscore>
-5.36165

> <r_i_glide_hbond>
-0.52

> <r_i_glide_ligand_efficiency>
-0.157696

> <r_i_glide_ligand_efficiency_ln>
-1.18454

> <r_i_glide_ligand_efficiency_sa>
-0.510873

> <r_i_glide_lipo>
-2.20087

> <r_i_glide_metal>
0

> <r_i_glide_rewards>
-0.117133

> <s_i_glide_gridfile>
wee1_glide-grid

> <s_m_Source_File>
wee1_decoys_glide_SP.sdf

> <s_m_Source_Path>
/Users/zhangxujun/Desktop

> <s_m_entry_id>
4452

> <s_m_entry_name>
wee1_decoys_glide_SP.4177

> <s_m_subgroup_title>
wee1_decoys_glide_SP

> <s_m_subgroupid>
wee1_decoys_glide_SP


$$$$
