ZINC53007031_1755
                    3D
 Schrodinger Suite 2024-2.
 39 40  0  0  1  0            999 V2000
   -0.7775   51.5608   25.1209 C   0  0  0  0  0  0
   -0.5247   51.7131   26.6097 C   0  0  0  0  0  0
   -1.5623   51.5599   27.5203 C   0  0  0  0  0  0
   -1.3138   51.6945   28.8821 C   0  0  0  0  0  0
   -0.0448   52.0043   29.3739 C   0  0  0  0  0  0
    1.0190   52.1740   28.4493 C   0  0  0  0  0  0
    0.7535   52.0047   27.0783 C   0  0  0  0  0  0
    2.4551   52.4037   28.8878 C   0  0  0  0  0  0
    2.9119   51.7012   29.7968 O   0  0  0  0  0  0
    3.2168   53.3375   28.2417 N   0  0  0  0  0  0
    2.6755   54.3533   27.3068 C   0  0  0  0  0  0
    3.4803   54.2541   25.9955 C   0  0  0  0  0  0
    4.9730   54.5079   26.2417 C   0  0  0  0  0  0
    5.5080   53.5860   27.3495 C   0  0  0  0  0  0
    4.6341   53.5259   28.6324 C   0  0  1  0  0  0
    4.9861   52.6352   29.1594 H   0  0  0  0  0  0
    4.8439   54.6930   29.6083 C   0  0  0  0  0  0
    0.0535   52.0974   30.7755 N   0  0  0  0  0  0
    0.7042   53.2354   31.3846 N   0  0  0  0  0  0
   -1.8264   51.7305   24.8748 H   0  0  0  0  0  0
   -0.4880   50.5650   24.7880 H   0  0  0  0  0  0
   -0.1963   52.2924   24.5583 H   0  0  0  0  0  0
   -2.5555   51.3016   27.1853 H   0  0  0  0  0  0
   -2.1201   51.5055   29.5709 H   0  0  0  0  0  0
    1.5531   52.0755   26.3553 H   0  0  0  0  0  0
    1.5990   54.3107   27.1507 H   0  0  0  0  0  0
    2.8457   55.3326   27.7528 H   0  0  0  0  0  0
    3.3344   53.2779   25.5317 H   0  0  0  0  0  0
    3.1053   54.9776   25.2734 H   0  0  0  0  0  0
    5.5386   54.3575   25.3213 H   0  0  0  0  0  0
    5.1283   55.5483   26.5268 H   0  0  0  0  0  0
    5.5449   52.5748   26.9380 H   0  0  0  0  0  0
    6.5408   53.8347   27.5962 H   0  0  0  0  0  0
    5.9047   54.8971   29.7336 H   0  0  0  0  0  0
    4.3708   55.6122   29.2778 H   0  0  0  0  0  0
    4.4393   54.4416   30.5865 H   0  0  0  0  0  0
   -0.7371   51.8074   31.3621 H   0  0  0  0  0  0
   -0.0125   53.8809   31.6891 H   0  0  0  0  0  0
    1.2153   52.8859   32.1870 H   0  0  0  0  0  0
  1  2  1  0  0  0
  1 20  1  0  0  0
  1 21  1  0  0  0
  1 22  1  0  0  0
  2  7  2  0  0  0
  2  3  1  0  0  0
  3  4  2  0  0  0
  3 23  1  0  0  0
  4  5  1  0  0  0
  4 24  1  0  0  0
  5  6  2  0  0  0
  5 18  1  0  0  0
  6  7  1  0  0  0
  6  8  1  0  0  0
  7 25  1  0  0  0
  8  9  2  0  0  0
  8 10  1  0  0  0
 10 15  1  0  0  0
 10 11  1  0  0  0
 11 12  1  0  0  0
 11 26  1  0  0  0
 11 27  1  0  0  0
 12 13  1  0  0  0
 12 28  1  0  0  0
 12 29  1  0  0  0
 13 14  1  0  0  0
 13 30  1  0  0  0
 13 31  1  0  0  0
 14 15  1  0  0  0
 14 32  1  0  0  0
 14 33  1  0  0  0
 15 16  1  0  0  0
 15 17  1  0  0  0
 17 34  1  0  0  0
 17 35  1  0  0  0
 17 36  1  0  0  0
 18 19  1  0  0  0
 18 37  1  0  0  0
 19 38  1  0  0  0
 19 39  1  0  0  0
M  END
> <i_i_glide_confnum>
1

> <i_i_glide_lignum>
1756

> <i_i_glide_posenum>
210

> <i_i_glide_rotatable_bonds>
3

> <i_m_Source_File_Index>
2245

> <b_m_subgroup_collapsed>
0

> <r_i_docking_score>
-6.05065

> <r_i_glide_ecoul>
-7.09279

> <r_i_glide_eff_state_penalty>
0

> <r_i_glide_einternal>
4.18512

> <r_i_glide_emodel>
-41.058

> <r_i_glide_energy>
-31.8002

> <r_i_glide_erotb>
0.570373

> <r_i_glide_esite>
-0.0981457

> <r_i_glide_evdw>
-24.7074

> <r_i_glide_gscore>
-6.05065

> <r_i_glide_hbond>
-0.454603

> <r_i_glide_ligand_efficiency>
-0.336147

> <r_i_glide_ligand_efficiency_ln>
-1.55529

> <r_i_glide_ligand_efficiency_sa>
-0.880956

> <r_i_glide_lipo>
-1.44745

> <r_i_glide_metal>
0

> <r_i_glide_rewards>
-2.32154

> <s_i_glide_gridfile>
wee1_glide-grid

> <s_m_Source_File>
wee1_decoys_glide_SP.sdf

> <s_m_Source_Path>
/Users/zhangxujun/Desktop

> <s_m_entry_id>
2520

> <s_m_entry_name>
wee1_decoys_glide_SP.2245

> <s_m_subgroup_title>
wee1_decoys_glide_SP

> <s_m_subgroupid>
wee1_decoys_glide_SP


$$$$
