ZINC01033923_3196
                    3D
 Schrodinger Suite 2024-2.
 64 68  0  0  1  0            999 V2000
   -0.1750   52.1139   30.1568 C   0  0  0  0  0  0
    1.1583   52.5199   29.5692 C   0  0  0  0  0  0
    1.6498   52.6931   28.2777 C   0  0  0  0  0  0
    2.9807   53.1533   28.4851 C   0  0  0  0  0  0
    3.2752   53.1654   29.7720 N   0  0  0  0  0  0
    2.1358   52.7818   30.4663 O   0  0  0  0  0  0
    4.0499   53.6153   27.5312 C   0  0  0  0  0  0
    3.7324   54.3568   26.3905 C   0  0  0  0  0  0
    4.7301   54.7616   25.5068 C   0  0  0  0  0  0
    6.0621   54.4701   25.7851 C   0  0  0  0  0  0
    6.4012   53.7672   26.9380 C   0  0  0  0  0  0
    5.3983   53.3382   27.8028 C   0  0  0  0  0  0
    0.8472   52.5134   27.0842 C   0  0  0  0  0  0
   -0.3818   52.4964   27.1564 O   0  0  0  0  0  0
    1.5031   52.2895   25.9296 N   0  0  0  0  0  0
    0.8382   51.9105   24.6664 C   0  0  2  0  0  0
    0.0977   51.1599   24.9618 H   0  0  0  0  0  0
    1.7497   51.2020   23.6200 C   0  0  0  0  0  0
    2.7030   52.1664   22.8704 C   0  0  0  0  0  0
    1.9809   53.3636   22.2751 C   0  0  0  0  0  0
    1.1361   54.0344   23.3659 C   0  0  0  0  0  0
    0.0757   53.0685   23.9573 C   0  0  1  0  0  0
   -0.5263   53.6118   24.6841 H   0  0  0  0  0  0
   -0.8292   52.4925   22.9561 N   0  0  0  0  0  0
   -2.1187   52.1947   23.1600 C   0  0  0  0  0  0
   -2.7811   52.6152   24.1062 O   0  0  0  0  0  0
   -2.6668   51.2679   22.2074 C   0  0  0  0  0  0
   -2.4499   51.1873   20.8372 C   0  0  0  0  0  0
   -3.2720   50.2440   20.3206 O   0  0  0  0  0  0
   -4.0104   49.6728   21.3510 N   0  0  0  0  0  0
   -3.6180   50.2577   22.4629 C   0  0  0  0  0  0
   -4.1557   49.7757   23.7754 C   0  0  0  0  0  0
   -5.5171   49.4910   23.9370 C   0  0  0  0  0  0
   -5.9917   49.0156   25.1570 C   0  0  0  0  0  0
   -5.1050   48.8157   26.2136 C   0  0  0  0  0  0
   -3.7479   49.0880   26.0610 C   0  0  0  0  0  0
   -3.2761   49.5670   24.8444 C   0  0  0  0  0  0
   -1.5571   51.8773   19.8327 C   0  0  0  0  0  0
   -0.8840   52.9382   30.1307 H   0  0  0  0  0  0
   -0.6250   51.2865   29.6071 H   0  0  0  0  0  0
   -0.0965   51.7926   31.1963 H   0  0  0  0  0  0
    2.7094   54.6271   26.1887 H   0  0  0  0  0  0
    4.4703   55.2987   24.6083 H   0  0  0  0  0  0
    6.8349   54.7866   25.1002 H   0  0  0  0  0  0
    7.4340   53.5402   27.1581 H   0  0  0  0  0  0
    5.6779   52.7816   28.6849 H   0  0  0  0  0  0
    2.4972   52.4616   25.8953 H   0  0  0  0  0  0
    2.3043   50.3876   24.0820 H   0  0  0  0  0  0
    1.1251   50.6970   22.8817 H   0  0  0  0  0  0
    3.2488   51.6328   22.0896 H   0  0  0  0  0  0
    3.4451   52.5776   23.5515 H   0  0  0  0  0  0
    1.3595   53.0545   21.4340 H   0  0  0  0  0  0
    2.7064   54.0722   21.8708 H   0  0  0  0  0  0
    0.7050   54.9421   22.9629 H   0  0  0  0  0  0
    1.7872   54.3994   24.1568 H   0  0  0  0  0  0
   -0.3764   52.0628   22.1652 H   0  0  0  0  0  0
   -6.2045   49.6413   23.1171 H   0  0  0  0  0  0
   -7.0425   48.7989   25.2806 H   0  0  0  0  0  0
   -5.4677   48.4453   27.1617 H   0  0  0  0  0  0
   -3.0551   48.9245   26.8739 H   0  0  0  0  0  0
   -2.2195   49.7677   24.7375 H   0  0  0  0  0  0
   -0.8575   52.5725   20.2909 H   0  0  0  0  0  0
   -0.9520   51.1512   19.2885 H   0  0  0  0  0  0
   -2.1341   52.4306   19.0909 H   0  0  0  0  0  0
  1  2  1  0  0  0
  1 39  1  0  0  0
  1 40  1  0  0  0
  1 41  1  0  0  0
  2  6  1  0  0  0
  2  3  2  0  0  0
  3  4  1  0  0  0
  3 13  1  0  0  0
  4  5  2  0  0  0
  4  7  1  0  0  0
  5  6  1  0  0  0
  7 12  2  0  0  0
  7  8  1  0  0  0
  8  9  2  0  0  0
  8 42  1  0  0  0
  9 10  1  0  0  0
  9 43  1  0  0  0
 10 11  2  0  0  0
 10 44  1  0  0  0
 11 12  1  0  0  0
 11 45  1  0  0  0
 12 46  1  0  0  0
 13 14  2  0  0  0
 13 15  1  0  0  0
 15 16  1  0  0  0
 15 47  1  0  0  0
 16 17  1  0  0  0
 16 22  1  0  0  0
 16 18  1  0  0  0
 18 19  1  0  0  0
 18 48  1  0  0  0
 18 49  1  0  0  0
 19 20  1  0  0  0
 19 50  1  0  0  0
 19 51  1  0  0  0
 20 21  1  0  0  0
 20 52  1  0  0  0
 20 53  1  0  0  0
 21 22  1  0  0  0
 21 54  1  0  0  0
 21 55  1  0  0  0
 22 23  1  0  0  0
 22 24  1  0  0  0
 24 25  1  0  0  0
 24 56  1  0  0  0
 25 26  2  0  0  0
 25 27  1  0  0  0
 27 31  1  0  0  0
 27 28  2  0  0  0
 28 29  1  0  0  0
 28 38  1  0  0  0
 29 30  1  0  0  0
 30 31  2  0  0  0
 31 32  1  0  0  0
 32 37  2  0  0  0
 32 33  1  0  0  0
 33 34  2  0  0  0
 33 57  1  0  0  0
 34 35  1  0  0  0
 34 58  1  0  0  0
 35 36  2  0  0  0
 35 59  1  0  0  0
 36 37  1  0  0  0
 36 60  1  0  0  0
 37 61  1  0  0  0
 38 62  1  0  0  0
 38 63  1  0  0  0
 38 64  1  0  0  0
M  END
> <i_i_glide_confnum>
290

> <i_i_glide_lignum>
3197

> <i_i_glide_posenum>
284

> <i_i_glide_rotatable_bonds>
8

> <i_m_Source_File_Index>
1416

> <b_m_subgroup_collapsed>
0

> <r_i_docking_score>
-4.25141

> <r_i_glide_ecoul>
-2.2898

> <r_i_glide_eff_state_penalty>
0

> <r_i_glide_einternal>
4.92264

> <r_i_glide_emodel>
-44.4111

> <r_i_glide_energy>
-36.5094

> <r_i_glide_erotb>
0.691993

> <r_i_glide_esite>
-0.00540836

> <r_i_glide_evdw>
-34.2196

> <r_i_glide_gscore>
-4.25141

> <r_i_glide_hbond>
0

> <r_i_glide_ligand_efficiency>
-0.118095

> <r_i_glide_ligand_efficiency_ln>
-0.927543

> <r_i_glide_ligand_efficiency_sa>
-0.38994

> <r_i_glide_lipo>
-2.61286

> <r_i_glide_metal>
0

> <r_i_glide_rewards>
-0.270686

> <s_i_glide_gridfile>
wee1_glide-grid

> <s_m_Source_File>
wee1_decoys_glide_SP.sdf

> <s_m_Source_Path>
/Users/zhangxujun/Desktop

> <s_m_entry_id>
1691

> <s_m_entry_name>
wee1_decoys_glide_SP.1416

> <s_m_subgroup_title>
wee1_decoys_glide_SP

> <s_m_subgroupid>
wee1_decoys_glide_SP


$$$$
