ZINC04476910_4770
                    3D
 Schrodinger Suite 2024-2.
 29 30  0  0  1  0            999 V2000
    1.7759   53.0877   26.8426 C   0  0  0  0  0  0
    2.9131   53.8918   26.8573 C   0  0  0  0  0  0
    3.5395   54.2258   25.6589 C   0  0  0  0  0  0
    3.0353   53.7627   24.4452 C   0  0  0  0  0  0
    1.9047   52.9485   24.4290 C   0  0  0  0  0  0
    1.2680   52.6029   25.6286 C   0  0  0  0  0  0
    0.0748   51.7401   25.6173 C   0  0  0  0  0  0
   -0.8198   51.6880   26.5216 N   0  0  0  0  0  0
   -1.8069   50.8249   26.1435 N   0  0  0  0  0  0
   -1.3135   49.9001   25.1084 C   0  0  2  0  0  0
   -0.2233   50.7781   24.4939 C   0  0  0  0  0  0
   -2.3712   49.4138   24.0654 C   0  0  0  0  0  0
   -2.9497   50.4328   23.4268 F   0  0  0  0  0  0
   -1.8157   48.6408   23.1286 F   0  0  0  0  0  0
   -3.3459   48.6958   24.6272 F   0  0  0  0  0  0
   -0.7391   48.7239   25.6817 O   0  0  0  0  0  0
   -3.0347   50.9413   26.7324 C   0  0  0  0  0  0
   -4.1809   52.0436   26.2442 S   0  0  0  0  0  0
   -3.2959   50.0969   27.7555 N   0  0  0  0  0  0
    4.9463   55.2269   25.6789 Cl  0  0  0  0  0  0
    1.3015   52.8351   27.7809 H   0  0  0  0  0  0
    3.3061   54.2558   27.7952 H   0  0  0  0  0  0
    3.5219   54.0286   23.5179 H   0  0  0  0  0  0
    1.5341   52.5978   23.4764 H   0  0  0  0  0  0
   -0.5863   51.3522   23.6410 H   0  0  0  0  0  0
    0.6392   50.1911   24.1735 H   0  0  0  0  0  0
   -1.1074   48.5486   26.5656 H   0  0  0  0  0  0
   -2.5847   49.4271   28.0812 H   0  0  0  0  0  0
   -4.1925   50.1321   28.2150 H   0  0  0  0  0  0
  1  6  2  0  0  0
  1  2  1  0  0  0
  1 21  1  0  0  0
  2  3  2  0  0  0
  2 22  1  0  0  0
  3  4  1  0  0  0
  3 20  1  0  0  0
  4  5  2  0  0  0
  4 23  1  0  0  0
  5  6  1  0  0  0
  5 24  1  0  0  0
  6  7  1  0  0  0
  7 11  1  0  0  0
  7  8  2  0  0  0
  8  9  1  0  0  0
  9 10  1  0  0  0
  9 17  1  0  0  0
 10 11  1  0  0  0
 10 12  1  0  0  0
 10 16  1  0  0  0
 11 25  1  0  0  0
 11 26  1  0  0  0
 12 13  1  0  0  0
 12 14  1  0  0  0
 12 15  1  0  0  0
 16 27  1  0  0  0
 17 18  2  0  0  0
 17 19  1  0  0  0
 19 28  1  0  0  0
 19 29  1  0  0  0
M  END
> <i_i_glide_confnum>
1

> <i_i_glide_lignum>
4771

> <i_i_glide_posenum>
394

> <i_i_glide_rotatable_bonds>
4

> <i_m_Source_File_Index>
1594

> <b_m_subgroup_collapsed>
0

> <r_i_docking_score>
-5.5627

> <r_i_glide_ecoul>
-9.86325

> <r_i_glide_eff_state_penalty>
0

> <r_i_glide_einternal>
8.96548

> <r_i_glide_emodel>
-38.7309

> <r_i_glide_energy>
-30.1896

> <r_i_glide_erotb>
0.178612

> <r_i_glide_esite>
-0.264826

> <r_i_glide_evdw>
-20.3263

> <r_i_glide_gscore>
-5.5627

> <r_i_glide_hbond>
-0.304

> <r_i_glide_ligand_efficiency>
-0.278135

> <r_i_glide_ligand_efficiency_ln>
-1.39216

> <r_i_glide_ligand_efficiency_sa>
-0.754974

> <r_i_glide_lipo>
-1.39714

> <r_i_glide_metal>
0

> <r_i_glide_rewards>
-1.27954

> <s_i_glide_gridfile>
wee1_glide-grid

> <s_m_Source_File>
wee1_decoys_glide_SP.sdf

> <s_m_Source_Path>
/Users/zhangxujun/Desktop

> <s_m_entry_id>
1869

> <s_m_entry_name>
wee1_decoys_glide_SP.1594

> <s_m_subgroup_title>
wee1_decoys_glide_SP

> <s_m_subgroupid>
wee1_decoys_glide_SP


$$$$
