ZINC32522632_5794
                    3D
 Schrodinger Suite 2024-2.
 60 63  0  0  1  0            999 V2000
    0.1153   53.5968   31.0718 C   0  0  0  0  0  0
    0.0033   52.5698   29.9337 C   0  0  0  0  0  0
    0.8498   52.9048   28.8372 O   0  0  0  0  0  0
    2.1916   52.6840   28.8820 C   0  0  0  0  0  0
    2.7727   52.1547   29.8341 O   0  0  0  0  0  0
    2.8688   53.1938   27.6699 C   0  0  0  0  0  0
    4.2258   53.6180   27.6287 C   0  0  0  0  0  0
    4.6271   54.0917   26.3688 C   0  0  0  0  0  0
    3.3518   54.0584   25.2198 S   0  0  0  0  0  0
    2.2955   53.3023   26.3840 C   0  0  0  0  0  0
    1.0221   52.8554   26.0477 N   0  0  0  0  0  0
    0.3766   52.8919   24.8651 C   0  0  0  0  0  0
    0.8533   53.2940   23.8045 O   0  0  0  0  0  0
   -1.0800   52.4092   24.9460 C   0  0  0  0  0  0
   -2.1137   52.8908   23.5128 S   0  0  0  0  0  0
   -1.9913   51.4877   22.3723 C   0  0  0  0  0  0
   -1.4482   50.4083   22.8117 N   0  5  0  0  0  0
   -1.3618   49.3261   22.0379 C   0  0  0  0  0  0
   -0.8957   48.2449   22.3911 O   0  0  0  0  0  0
   -1.8658   49.4374   20.6499 C   0  0  0  0  0  0
   -2.4186   50.6456   20.3076 C   0  0  0  0  0  0
   -2.4880   51.6946   21.1941 N   0  0  0  0  0  0
   -2.9661   51.0251   18.9400 C   0  0  0  0  0  0
   -1.7978   48.2022   19.7347 C   0  0  0  0  0  0
   -0.4635   47.8992   19.0483 C   0  0  0  0  0  0
    0.7193   48.5905   19.3561 C   0  0  0  0  0  0
    1.9027   48.2813   18.6896 C   0  0  0  0  0  0
    1.9047   47.2858   17.7158 C   0  0  0  0  0  0
    0.7413   46.5877   17.4070 C   0  0  0  0  0  0
   -0.4408   46.8976   18.0732 C   0  0  0  0  0  0
    6.0336   54.5030   25.9749 C   0  0  0  0  0  0
    6.8568   54.7322   27.2489 C   0  0  0  0  0  0
    6.6705   53.6141   28.2764 C   0  0  0  0  0  0
    5.2212   53.5390   28.7899 C   0  0  0  0  0  0
   -0.4985   53.2970   31.9187 H   0  0  0  0  0  0
    1.1349   53.6776   31.4382 H   0  0  0  0  0  0
   -0.2021   54.5867   30.7466 H   0  0  0  0  0  0
   -1.0245   52.5396   29.5732 H   0  0  0  0  0  0
    0.2273   51.5678   30.2945 H   0  0  0  0  0  0
    0.5135   52.4565   26.8242 H   0  0  0  0  0  0
   -1.1063   51.3379   25.1403 H   0  0  0  0  0  0
   -1.5402   52.8867   25.8121 H   0  0  0  0  0  0
   -4.0579   51.0393   18.9688 H   0  0  0  0  0  0
   -2.6193   52.0179   18.6465 H   0  0  0  0  0  0
   -2.6490   50.3343   18.1569 H   0  0  0  0  0  0
   -2.0879   47.3160   20.3032 H   0  0  0  0  0  0
   -2.5613   48.2930   18.9628 H   0  0  0  0  0  0
    0.7362   49.3755   20.0992 H   0  0  0  0  0  0
    2.8132   48.8206   18.9122 H   0  0  0  0  0  0
    2.8242   47.0659   17.1906 H   0  0  0  0  0  0
    0.7559   45.8203   16.6466 H   0  0  0  0  0  0
   -1.3450   46.3621   17.8238 H   0  0  0  0  0  0
    6.0336   55.3975   25.3517 H   0  0  0  0  0  0
    6.4942   53.7055   25.3891 H   0  0  0  0  0  0
    6.5948   55.6960   27.6816 H   0  0  0  0  0  0
    7.9044   54.7757   26.9927 H   0  0  0  0  0  0
    7.3528   53.7587   29.1135 H   0  0  0  0  0  0
    6.9498   52.6605   27.8224 H   0  0  0  0  0  0
    5.1156   52.6067   29.3424 H   0  0  0  0  0  0
    5.0288   54.3491   29.4955 H   0  0  0  0  0  0
  1  2  1  0  0  0
  1 35  1  0  0  0
  1 36  1  0  0  0
  1 37  1  0  0  0
  2  3  1  0  0  0
  2 38  1  0  0  0
  2 39  1  0  0  0
  3  4  1  0  0  0
  4  5  2  0  0  0
  4  6  1  0  0  0
  6 10  2  0  0  0
  6  7  1  0  0  0
  7 34  1  0  0  0
  7  8  2  0  0  0
  8  9  1  0  0  0
  8 31  1  0  0  0
  9 10  1  0  0  0
 10 11  1  0  0  0
 11 12  1  0  0  0
 11 40  1  0  0  0
 12 13  2  0  0  0
 12 14  1  0  0  0
 14 41  1  0  0  0
 14 42  1  0  0  0
 14 15  1  0  0  0
 15 16  1  0  0  0
 16 22  2  0  0  0
 16 17  1  0  0  0
 17 18  1  0  0  0
 18 19  2  0  0  0
 18 20  1  0  0  0
 20 24  1  0  0  0
 20 21  2  0  0  0
 21 22  1  0  0  0
 21 23  1  0  0  0
 23 43  1  0  0  0
 23 44  1  0  0  0
 23 45  1  0  0  0
 24 25  1  0  0  0
 24 46  1  0  0  0
 24 47  1  0  0  0
 25 30  2  0  0  0
 25 26  1  0  0  0
 26 27  2  0  0  0
 26 48  1  0  0  0
 27 28  1  0  0  0
 27 49  1  0  0  0
 28 29  2  0  0  0
 28 50  1  0  0  0
 29 30  1  0  0  0
 29 51  1  0  0  0
 30 52  1  0  0  0
 31 32  1  0  0  0
 31 53  1  0  0  0
 31 54  1  0  0  0
 32 33  1  0  0  0
 32 55  1  0  0  0
 32 56  1  0  0  0
 33 34  1  0  0  0
 33 57  1  0  0  0
 33 58  1  0  0  0
 34 59  1  0  0  0
 34 60  1  0  0  0
M  CHG  1  17  -1
M  END
> <i_i_glide_confnum>
384

> <i_i_glide_lignum>
5795

> <i_i_glide_posenum>
398

> <i_i_glide_rotatable_bonds>
10

> <i_m_Source_File_Index>
4040

> <b_m_subgroup_collapsed>
0

> <r_i_docking_score>
-5.03234

> <r_i_glide_ecoul>
-5.73018

> <r_i_glide_eff_state_penalty>
0

> <r_i_glide_einternal>
2.84569

> <r_i_glide_emodel>
-63.6959

> <r_i_glide_energy>
-48.4726

> <r_i_glide_erotb>
0.744185

> <r_i_glide_esite>
-0.00528094

> <r_i_glide_evdw>
-42.7424

> <r_i_glide_gscore>
-5.03234

> <r_i_glide_hbond>
-0.187187

> <r_i_glide_ligand_efficiency>
-0.14801

> <r_i_glide_ligand_efficiency_ln>
-1.11178

> <r_i_glide_ligand_efficiency_sa>
-0.479495

> <r_i_glide_lipo>
-2.09572

> <r_i_glide_metal>
0

> <r_i_glide_rewards>
-0.49169

> <s_i_glide_gridfile>
wee1_glide-grid

> <s_m_Source_File>
wee1_decoys_glide_SP.sdf

> <s_m_Source_Path>
/Users/zhangxujun/Desktop

> <s_m_entry_id>
4315

> <s_m_entry_name>
wee1_decoys_glide_SP.4040

> <s_m_subgroup_title>
wee1_decoys_glide_SP

> <s_m_subgroupid>
wee1_decoys_glide_SP


$$$$
