ZINC22405238_4380
                    3D
 Schrodinger Suite 2024-2.
 54 56  0  0  1  0            999 V2000
   -0.5223   52.2302   29.5339 C   0  0  0  0  0  0
   -0.4277   51.5310   28.1602 C   0  0  1  0  0  0
   -0.1240   50.4971   28.3377 H   0  0  0  0  0  0
   -1.8015   51.4888   27.4472 C   0  0  0  0  0  0
   -1.7432   50.7014   26.1227 C   0  0  0  0  0  0
   -0.6580   51.2613   25.1807 C   0  0  0  0  0  0
    0.7050   51.3555   25.8921 C   0  0  0  0  0  0
    0.6089   52.1779   27.2007 C   0  0  2  0  0  0
    0.3223   53.2089   26.9909 H   0  0  0  0  0  0
    1.9331   52.1123   27.8571 N   0  0  0  0  0  0
    2.8279   53.5460   28.3604 S   0  0  0  0  0  0
    3.6469   53.1187   29.5004 O   0  0  0  0  0  0
    1.8662   54.6477   28.4877 O   0  0  0  0  0  0
    3.9035   53.9555   26.9695 C   0  0  0  0  0  0
    3.3351   53.9831   25.6918 C   0  0  0  0  0  0
    4.1159   54.2062   24.5492 C   0  0  0  0  0  0
    5.4772   54.4952   24.7195 C   0  0  0  0  0  0
    6.0471   54.4881   25.9851 C   0  0  0  0  0  0
    5.2807   54.1904   27.1231 C   0  0  0  0  0  0
    5.8445   54.1308   28.3791 O   0  0  0  0  0  0
    7.2160   53.7624   28.4789 C   0  0  0  0  0  0
    3.4964   54.0830   23.1749 C   0  0  0  0  0  0
    2.2717   54.0986   23.0346 O   0  0  0  0  0  0
    4.3700   53.8871   22.1635 N   0  0  0  0  0  0
    4.0488   53.6093   20.8317 C   0  0  0  0  0  0
    4.5588   54.4757   19.8591 C   0  0  0  0  0  0
    4.3072   54.2425   18.5079 C   0  0  0  0  0  0
    3.5717   53.1244   18.1196 C   0  0  0  0  0  0
    3.1010   52.2308   19.0807 C   0  0  0  0  0  0
    3.3433   52.4553   20.4370 C   0  0  0  0  0  0
    2.7695   51.1231   21.6806 Br  0  0  0  0  0  0
   -0.7800   53.2842   29.4358 H   0  0  0  0  0  0
   -1.2747   51.7538   30.1646 H   0  0  0  0  0  0
    0.4202   52.1737   30.0795 H   0  0  0  0  0  0
   -2.5410   51.0353   28.1096 H   0  0  0  0  0  0
   -2.1663   52.4993   27.2610 H   0  0  0  0  0  0
   -2.7153   50.7233   25.6298 H   0  0  0  0  0  0
   -1.5349   49.6518   26.3372 H   0  0  0  0  0  0
   -0.9528   52.2505   24.8254 H   0  0  0  0  0  0
   -0.5728   50.6314   24.2941 H   0  0  0  0  0  0
    1.4411   51.7819   25.2116 H   0  0  0  0  0  0
    1.0675   50.3479   26.1132 H   0  0  0  0  0  0
    2.2373   51.2080   28.2241 H   0  0  0  0  0  0
    2.2763   53.7974   25.5871 H   0  0  0  0  0  0
    6.1239   54.7070   23.8806 H   0  0  0  0  0  0
    7.1019   54.6965   26.0538 H   0  0  0  0  0  0
    7.5075   53.6966   29.5217 H   0  0  0  0  0  0
    7.3926   52.7898   28.0189 H   0  0  0  0  0  0
    7.8873   54.4964   28.0323 H   0  0  0  0  0  0
    5.3471   54.0283   22.3561 H   0  0  0  0  0  0
    5.1347   55.3435   20.1438 H   0  0  0  0  0  0
    4.6878   54.9227   17.7606 H   0  0  0  0  0  0
    3.3919   52.9301   17.0724 H   0  0  0  0  0  0
    2.5766   51.3405   18.7662 H   0  0  0  0  0  0
  1  2  1  0  0  0
  1 32  1  0  0  0
  1 33  1  0  0  0
  1 34  1  0  0  0
  2  3  1  0  0  0
  2  8  1  0  0  0
  2  4  1  0  0  0
  4  5  1  0  0  0
  4 35  1  0  0  0
  4 36  1  0  0  0
  5  6  1  0  0  0
  5 37  1  0  0  0
  5 38  1  0  0  0
  6  7  1  0  0  0
  6 39  1  0  0  0
  6 40  1  0  0  0
  7  8  1  0  0  0
  7 41  1  0  0  0
  7 42  1  0  0  0
  8  9  1  0  0  0
  8 10  1  0  0  0
 10 11  1  0  0  0
 10 43  1  0  0  0
 11 12  2  0  0  0
 11 13  2  0  0  0
 11 14  1  0  0  0
 14 19  2  0  0  0
 14 15  1  0  0  0
 15 16  2  0  0  0
 15 44  1  0  0  0
 16 17  1  0  0  0
 16 22  1  0  0  0
 17 18  2  0  0  0
 17 45  1  0  0  0
 18 19  1  0  0  0
 18 46  1  0  0  0
 19 20  1  0  0  0
 20 21  1  0  0  0
 21 47  1  0  0  0
 21 48  1  0  0  0
 21 49  1  0  0  0
 22 23  2  0  0  0
 22 24  1  0  0  0
 24 25  1  0  0  0
 24 50  1  0  0  0
 25 30  2  0  0  0
 25 26  1  0  0  0
 26 27  2  0  0  0
 26 51  1  0  0  0
 27 28  1  0  0  0
 27 52  1  0  0  0
 28 29  2  0  0  0
 28 53  1  0  0  0
 29 30  1  0  0  0
 29 54  1  0  0  0
 30 31  1  0  0  0
M  END
> <i_i_glide_confnum>
20

> <i_i_glide_lignum>
4381

> <i_i_glide_posenum>
165

> <i_i_glide_rotatable_bonds>
7

> <i_m_Source_File_Index>
4649

> <b_m_subgroup_collapsed>
0

> <r_i_docking_score>
-3.54881

> <r_i_glide_ecoul>
-0.0379551

> <r_i_glide_eff_state_penalty>
0

> <r_i_glide_einternal>
10.9894

> <r_i_glide_emodel>
-46.1297

> <r_i_glide_energy>
-43.927

> <r_i_glide_erotb>
0.525206

> <r_i_glide_esite>
0

> <r_i_glide_evdw>
-43.8891

> <r_i_glide_gscore>
-3.54881

> <r_i_glide_hbond>
0

> <r_i_glide_ligand_efficiency>
-0.122373

> <r_i_glide_ligand_efficiency_ln>
-0.812588

> <r_i_glide_ligand_efficiency_sa>
-0.375968

> <r_i_glide_lipo>
-1.83677

> <r_i_glide_metal>
0

> <r_i_glide_rewards>
-0.0371027

> <s_i_glide_gridfile>
wee1_glide-grid

> <s_m_Source_File>
wee1_decoys_glide_SP.sdf

> <s_m_Source_Path>
/Users/zhangxujun/Desktop

> <s_m_entry_id>
4924

> <s_m_entry_name>
wee1_decoys_glide_SP.4649

> <s_m_subgroup_title>
wee1_decoys_glide_SP

> <s_m_subgroupid>
wee1_decoys_glide_SP


$$$$
