ZINC66197965_2579
                    3D
 Schrodinger Suite 2024-2.
 44 46  0  0  1  0            999 V2000
    4.9276   53.8511   19.2381 C   0  0  0  0  0  0
    3.9748   52.8962   18.8927 C   0  0  0  0  0  0
    3.1230   52.3816   19.8661 C   0  0  0  0  0  0
    3.2111   52.8396   21.1812 C   0  0  0  0  0  0
    4.1804   53.7906   21.5252 C   0  0  0  0  0  0
    5.0387   54.2968   20.5523 C   0  0  0  0  0  0
    2.3446   52.2650   22.1240 N   0  0  0  0  0  0
    1.8107   52.8554   23.2160 C   0  0  0  0  0  0
    1.9134   54.0596   23.4685 O   0  0  0  0  0  0
    1.1062   51.9312   24.1875 C   0  0  0  0  0  0
    0.6455   50.6553   23.8163 C   0  0  0  0  0  0
    0.0525   49.8116   24.7562 C   0  0  0  0  0  0
   -0.0675   50.2147   26.0852 C   0  0  0  0  0  0
    0.4050   51.4654   26.4844 C   0  0  0  0  0  0
    0.9387   52.3336   25.5205 C   0  0  0  0  0  0
    0.3371   51.7847   27.8550 N   0  0  0  0  0  0
    1.1420   52.5748   28.6281 C   0  0  0  0  0  0
    0.5899   52.8975   30.1711 S   0  0  0  0  0  0
    2.3333   52.9656   28.0640 N   0  0  0  0  0  0
    3.3702   53.7118   28.5210 C   0  0  0  0  0  0
    3.5340   54.0878   29.6850 O   0  0  0  0  0  0
    4.3898   54.0631   27.4674 C   0  0  0  0  0  0
    3.9905   54.5518   26.2146 C   0  0  0  0  0  0
    4.9377   54.8965   25.2516 C   0  0  0  0  0  0
    6.2970   54.7312   25.5073 C   0  0  0  0  0  0
    6.7032   54.2274   26.7394 C   0  0  0  0  0  0
    5.7613   53.8903   27.7094 C   0  0  0  0  0  0
    6.1956   53.3769   28.8773 F   0  0  0  0  0  0
    5.5960   54.2366   18.4820 H   0  0  0  0  0  0
    3.9157   52.5321   17.8768 H   0  0  0  0  0  0
    2.3929   51.6345   19.5879 H   0  0  0  0  0  0
    4.2814   54.1266   22.5415 H   0  0  0  0  0  0
    5.7881   55.0276   20.8152 H   0  0  0  0  0  0
    2.1010   51.3030   21.9526 H   0  0  0  0  0  0
    0.7405   50.2950   22.8018 H   0  0  0  0  0  0
   -0.2935   48.8302   24.4652 H   0  0  0  0  0  0
   -0.4986   49.5377   26.8093 H   0  0  0  0  0  0
    1.2422   53.3277   25.8068 H   0  0  0  0  0  0
   -0.4402   51.3569   28.3382 H   0  0  0  0  0  0
    2.4378   52.6900   27.0981 H   0  0  0  0  0  0
    2.9488   54.6942   25.9797 H   0  0  0  0  0  0
    4.6089   55.2961   24.3075 H   0  0  0  0  0  0
    7.0286   54.9849   24.7538 H   0  0  0  0  0  0
    7.7515   54.0842   26.9489 H   0  0  0  0  0  0
  1  6  2  0  0  0
  1  2  1  0  0  0
  1 29  1  0  0  0
  2  3  2  0  0  0
  2 30  1  0  0  0
  3  4  1  0  0  0
  3 31  1  0  0  0
  4  5  2  0  0  0
  4  7  1  0  0  0
  5  6  1  0  0  0
  5 32  1  0  0  0
  6 33  1  0  0  0
  7  8  1  0  0  0
  7 34  1  0  0  0
  8  9  2  0  0  0
  8 10  1  0  0  0
 10 15  2  0  0  0
 10 11  1  0  0  0
 11 12  2  0  0  0
 11 35  1  0  0  0
 12 13  1  0  0  0
 12 36  1  0  0  0
 13 14  2  0  0  0
 13 37  1  0  0  0
 14 15  1  0  0  0
 14 16  1  0  0  0
 15 38  1  0  0  0
 16 17  1  0  0  0
 16 39  1  0  0  0
 17 18  2  0  0  0
 17 19  1  0  0  0
 19 20  1  0  0  0
 19 40  1  0  0  0
 20 21  2  0  0  0
 20 22  1  0  0  0
 22 27  2  0  0  0
 22 23  1  0  0  0
 23 24  2  0  0  0
 23 41  1  0  0  0
 24 25  1  0  0  0
 24 42  1  0  0  0
 25 26  2  0  0  0
 25 43  1  0  0  0
 26 27  1  0  0  0
 26 44  1  0  0  0
 27 28  1  0  0  0
M  END
> <i_i_glide_confnum>
4

> <i_i_glide_lignum>
2580

> <i_i_glide_posenum>
298

> <i_i_glide_rotatable_bonds>
8

> <i_m_Source_File_Index>
5094

> <b_m_subgroup_collapsed>
0

> <r_i_docking_score>
-5.88203

> <r_i_glide_ecoul>
-3.45084

> <r_i_glide_eff_state_penalty>
0

> <r_i_glide_einternal>
5.68072

> <r_i_glide_emodel>
-63.977

> <r_i_glide_energy>
-48.2852

> <r_i_glide_erotb>
0.883408

> <r_i_glide_esite>
0

> <r_i_glide_evdw>
-44.8344

> <r_i_glide_gscore>
-5.88203

> <r_i_glide_hbond>
-0.177005

> <r_i_glide_ligand_efficiency>
-0.210073

> <r_i_glide_ligand_efficiency_ln>
-1.35775

> <r_i_glide_ligand_efficiency_sa>
-0.637904

> <r_i_glide_lipo>
-2.16268

> <r_i_glide_metal>
0

> <r_i_glide_rewards>
-1.66641

> <s_i_glide_gridfile>
wee1_glide-grid

> <s_m_Source_File>
wee1_decoys_glide_SP.sdf

> <s_m_Source_Path>
/Users/zhangxujun/Desktop

> <s_m_entry_id>
5369

> <s_m_entry_name>
wee1_decoys_glide_SP.5094

> <s_m_subgroup_title>
wee1_decoys_glide_SP

> <s_m_subgroupid>
wee1_decoys_glide_SP


$$$$
