ZINC39662189_2157
                    3D
 Schrodinger Suite 2024-2.
 57 60  0  0  1  0            999 V2000
    8.6377   55.7069   20.4696 C   0  0  0  0  0  0
    8.7859   55.2749   19.1561 C   0  0  0  0  0  0
    7.6891   54.7560   18.4813 C   0  0  0  0  0  0
    6.4411   54.7060   19.1088 C   0  0  0  0  0  0
    6.2920   55.2190   20.4037 C   0  0  0  0  0  0
    7.3966   55.6967   21.0960 C   0  0  0  0  0  0
    5.2633   54.1036   18.3515 C   0  0  2  0  0  0
    5.6232   53.7674   17.3785 H   0  0  0  0  0  0
    4.2679   55.1266   17.9835 C   0  0  0  0  0  0
    3.4943   55.9303   17.6820 N   0  0  0  0  0  0
    4.6872   52.8967   18.9494 N   0  0  0  0  0  0
    3.8556   52.7841   20.0018 C   0  0  0  0  0  0
    3.5324   53.7311   20.7065 O   0  0  0  0  0  0
    3.3329   51.3629   20.3304 C   0  0  1  0  0  0
    4.1821   50.6926   20.1951 H   0  0  0  0  0  0
    2.7515   51.2423   21.7570 C   0  0  0  0  0  0
    1.3307   51.5682   21.5814 N   0  0  0  0  0  0
    0.8970   51.3857   20.1922 C   0  0  0  0  0  0
    2.1477   50.9095   19.4141 C   0  0  0  0  0  0
    2.1628   51.3952   17.9314 C   0  0  0  0  0  0
    1.0012   50.8306   17.0967 C   0  0  0  0  0  0
    1.1228   49.2938   17.1070 N   0  3  0  0  0  0
    1.0741   48.7094   18.5329 C   0  0  0  0  0  0
    2.2222   49.3490   19.3353 C   0  0  0  0  0  0
    0.5249   52.1820   22.4887 C   0  0  0  0  0  0
   -0.6500   52.4688   22.2488 O   0  0  0  0  0  0
    1.0845   52.5478   23.8418 C   0  0  0  0  0  0
    2.1022   53.5081   23.9308 C   0  0  0  0  0  0
    2.6342   53.8664   25.1682 C   0  0  0  0  0  0
    2.1286   53.2968   26.3362 C   0  0  0  0  0  0
    1.1045   52.3533   26.2617 C   0  0  0  0  0  0
    0.5881   51.9629   25.0235 C   0  0  0  0  0  0
   -0.6515   50.7520   25.0112 Cl  0  0  0  0  0  0
    2.7690   53.7629   27.8685 Cl  0  0  0  0  0  0
    9.4930   56.0952   20.9955 H   0  0  0  0  0  0
    9.7548   55.3105   18.6804 H   0  0  0  0  0  0
    7.8172   54.3870   17.4715 H   0  0  0  0  0  0
    5.3319   55.2411   20.8922 H   0  0  0  0  0  0
    7.2954   56.0609   22.1071 H   0  0  0  0  0  0
    4.9599   52.0135   18.5071 H   0  0  0  0  0  0
    2.8583   50.2016   22.0647 H   0  0  0  0  0  0
    3.3076   51.8664   22.4586 H   0  0  0  0  0  0
    0.6662   52.3855   19.8174 H   0  0  0  0  0  0
    0.0069   50.7743   20.0446 H   0  0  0  0  0  0
    2.1112   52.4857   17.8882 H   0  0  0  0  0  0
    3.1054   51.1325   17.4521 H   0  0  0  0  0  0
    0.0148   51.0894   17.4856 H   0  0  0  0  0  0
    1.0652   51.1352   16.0511 H   0  0  0  0  0  0
    0.4167   48.8723   16.5190 H   0  0  0  0  0  0
    0.0807   48.9057   18.9356 H   0  0  0  0  0  0
    1.2074   47.6311   18.4247 H   0  0  0  0  0  0
    3.1770   49.0327   18.9115 H   0  0  0  0  0  0
    2.2048   48.9145   20.3349 H   0  0  0  0  0  0
    2.4865   53.9879   23.0407 H   0  0  0  0  0  0
    3.4229   54.6016   25.2215 H   0  0  0  0  0  0
    0.7189   51.9073   27.1670 H   0  0  0  0  0  0
    2.0298   49.0605   16.7086 H   0  0  0  0  0  0
  1  6  2  0  0  0
  1  2  1  0  0  0
  1 35  1  0  0  0
  2  3  2  0  0  0
  2 36  1  0  0  0
  3  4  1  0  0  0
  3 37  1  0  0  0
  4  5  2  0  0  0
  4  7  1  0  0  0
  5  6  1  0  0  0
  5 38  1  0  0  0
  6 39  1  0  0  0
  7  8  1  0  0  0
  7  9  1  0  0  0
  7 11  1  0  0  0
  9 10  3  0  0  0
 11 12  1  0  0  0
 11 40  1  0  0  0
 12 13  2  0  0  0
 12 14  1  0  0  0
 14 15  1  0  0  0
 14 19  1  0  0  0
 14 16  1  0  0  0
 16 17  1  0  0  0
 16 41  1  0  0  0
 16 42  1  0  0  0
 17 18  1  0  0  0
 17 25  1  0  0  0
 18 19  1  0  0  0
 18 43  1  0  0  0
 18 44  1  0  0  0
 19 24  1  0  0  0
 19 20  1  0  0  0
 20 21  1  0  0  0
 20 45  1  0  0  0
 20 46  1  0  0  0
 21 22  1  0  0  0
 21 47  1  0  0  0
 21 48  1  0  0  0
 22 23  1  0  0  0
 22 49  1  0  0  0
 22 57  1  0  0  0
 23 24  1  0  0  0
 23 50  1  0  0  0
 23 51  1  0  0  0
 24 52  1  0  0  0
 24 53  1  0  0  0
 25 26  2  0  0  0
 25 27  1  0  0  0
 27 32  2  0  0  0
 27 28  1  0  0  0
 28 29  2  0  0  0
 28 54  1  0  0  0
 29 30  1  0  0  0
 29 55  1  0  0  0
 30 31  2  0  0  0
 30 34  1  0  0  0
 31 32  1  0  0  0
 31 56  1  0  0  0
 32 33  1  0  0  0
M  CHG  1  22   1
M  END
> <i_i_glide_confnum>
76

> <i_i_glide_lignum>
2158

> <i_i_glide_posenum>
207

> <i_i_glide_rotatable_bonds>
7

> <i_m_Source_File_Index>
4694

> <b_m_subgroup_collapsed>
0

> <r_i_docking_score>
-5.02681

> <r_i_glide_ecoul>
-6.76221

> <r_i_glide_eff_state_penalty>
0

> <r_i_glide_einternal>
4.36429

> <r_i_glide_emodel>
-55.6679

> <r_i_glide_energy>
-39.8632

> <r_i_glide_erotb>
0.453054

> <r_i_glide_esite>
-0.186122

> <r_i_glide_evdw>
-33.101

> <r_i_glide_gscore>
-5.02681

> <r_i_glide_hbond>
-0.296296

> <r_i_glide_ligand_efficiency>
-0.157088

> <r_i_glide_ligand_efficiency_ln>
-1.12564

> <r_i_glide_ligand_efficiency_sa>
-0.498723

> <r_i_glide_lipo>
-1.98233

> <r_i_glide_metal>
0

> <r_i_glide_rewards>
-0.345735

> <s_i_glide_gridfile>
wee1_glide-grid

> <s_m_Source_File>
wee1_decoys_glide_SP.sdf

> <s_m_Source_Path>
/Users/zhangxujun/Desktop

> <s_m_entry_id>
4969

> <s_m_entry_name>
wee1_decoys_glide_SP.4694

> <s_m_subgroup_title>
wee1_decoys_glide_SP

> <s_m_subgroupid>
wee1_decoys_glide_SP


$$$$
