ZINC64208421_661
                    3D
 Schrodinger Suite 2024-2.
 40 42  0  0  1  0            999 V2000
    6.4474   53.6105   27.8431 C   0  0  0  0  0  0
    5.5985   54.7005   27.4947 O   0  0  0  0  0  0
    4.8150   54.4868   26.3865 C   0  0  0  0  0  0
    3.4675   54.1200   26.5264 C   0  0  0  0  0  0
    2.6912   53.9412   25.3704 C   0  0  0  0  0  0
    3.2451   54.0954   24.1036 C   0  0  0  0  0  0
    4.5775   54.4612   23.9723 C   0  0  0  0  0  0
    5.3461   54.6947   25.1080 C   0  0  0  0  0  0
    7.1044   55.3669   24.8821 Br  0  0  0  0  0  0
    2.2672   53.8621   22.7022 Cl  0  0  0  0  0  0
    2.7967   53.9250   28.1942 S   0  0  0  0  0  0
    3.0129   55.1983   28.8895 O   0  0  0  0  0  0
    3.4215   52.7230   28.7552 O   0  0  0  0  0  0
    1.0335   53.6804   28.1629 N   0  0  0  0  0  0
    0.5080   52.7724   27.2505 N   0  0  0  0  0  0
    0.6365   51.4372   27.3251 C   0  0  0  0  0  0
    1.4274   50.8968   28.0899 O   0  0  0  0  0  0
   -0.1661   50.6706   26.3833 C   0  0  0  0  0  0
   -1.4092   50.9763   25.9349 C   0  0  0  0  0  0
   -2.3307   52.0990   26.1955 C   0  0  0  0  0  0
   -3.5385   52.1651   25.6003 C   0  0  0  0  0  0
   -3.9142   51.0871   24.6984 C   0  0  0  0  0  0
   -3.0922   50.0335   24.4564 C   0  0  0  0  0  0
   -1.8357   49.9570   25.0697 C   0  0  0  0  0  0
   -0.9271   49.0165   24.9632 N   0  3  0  0  0  0
    0.2506   49.3444   25.7784 C   0  0  0  0  0  0
    6.9593   53.8368   28.7780 H   0  0  0  0  0  0
    5.8909   52.6832   27.9878 H   0  0  0  0  0  0
    7.2109   53.4310   27.0860 H   0  0  0  0  0  0
    1.6469   53.7001   25.4016 H   0  0  0  0  0  0
    5.0080   54.5883   22.9894 H   0  0  0  0  0  0
    0.6947   53.4346   29.0985 H   0  0  0  0  0  0
   -0.1497   53.1791   26.6023 H   0  0  0  0  0  0
   -2.0801   52.8962   26.8743 H   0  0  0  0  0  0
   -4.2173   52.9814   25.7975 H   0  0  0  0  0  0
   -4.8812   51.1229   24.2169 H   0  0  0  0  0  0
   -3.4301   49.2558   23.7852 H   0  0  0  0  0  0
    0.3867   48.5364   26.4935 H   0  0  0  0  0  0
    1.1048   49.3938   25.1062 H   0  0  0  0  0  0
   -1.0129   48.1718   24.4057 H   0  0  0  0  0  0
  1  2  1  0  0  0
  1 27  1  0  0  0
  1 28  1  0  0  0
  1 29  1  0  0  0
  2  3  1  0  0  0
  3  8  2  0  0  0
  3  4  1  0  0  0
  4  5  2  0  0  0
  4 11  1  0  0  0
  5  6  1  0  0  0
  5 30  1  0  0  0
  6  7  2  0  0  0
  6 10  1  0  0  0
  7  8  1  0  0  0
  7 31  1  0  0  0
  8  9  1  0  0  0
 11 12  2  0  0  0
 11 13  2  0  0  0
 11 14  1  0  0  0
 14 15  1  0  0  0
 14 32  1  0  0  0
 15 16  1  0  0  0
 15 33  1  0  0  0
 16 17  2  0  0  0
 16 18  1  0  0  0
 18 26  1  0  0  0
 18 19  2  0  0  0
 19 24  1  0  0  0
 19 20  1  0  0  0
 20 21  2  0  0  0
 20 34  1  0  0  0
 21 22  1  0  0  0
 21 35  1  0  0  0
 22 23  2  0  0  0
 22 36  1  0  0  0
 23 24  1  0  0  0
 23 37  1  0  0  0
 24 25  2  0  0  0
 25 26  1  0  0  0
 25 40  1  0  0  0
 26 38  1  0  0  0
 26 39  1  0  0  0
M  CHG  1  25   1
M  END
> <i_i_glide_confnum>
32

> <i_i_glide_lignum>
662

> <i_i_glide_posenum>
310

> <i_i_glide_rotatable_bonds>
6

> <i_m_Source_File_Index>
658

> <b_m_subgroup_collapsed>
0

> <r_i_docking_score>
-2.06283

> <r_i_glide_ecoul>
-1.35596

> <r_i_glide_eff_state_penalty>
0

> <r_i_glide_einternal>
7.76427

> <r_i_glide_emodel>
-36.4834

> <r_i_glide_energy>
-40.4602

> <r_i_glide_erotb>
0.380853

> <r_i_glide_esite>
-0.0576903

> <r_i_glide_evdw>
-39.1043

> <r_i_glide_gscore>
-2.06283

> <r_i_glide_hbond>
0

> <r_i_glide_ligand_efficiency>
-0.0793398

> <r_i_glide_ligand_efficiency_ln>
-0.48445

> <r_i_glide_ligand_efficiency_sa>
-0.235044

> <r_i_glide_lipo>
-1.83413

> <r_i_glide_metal>
0

> <r_i_glide_rewards>
1.60674

> <s_i_glide_gridfile>
wee1_glide-grid

> <s_m_Source_File>
wee1_decoys_glide_SP.sdf

> <s_m_Source_Path>
/Users/zhangxujun/Desktop

> <s_m_entry_id>
933

> <s_m_entry_name>
wee1_decoys_glide_SP.658

> <s_m_subgroup_title>
wee1_decoys_glide_SP

> <s_m_subgroupid>
wee1_decoys_glide_SP


$$$$
