ZINC12929084_3254
                    3D
 Schrodinger Suite 2024-2.
 50 52  0  0  1  0            999 V2000
    5.7111   58.4607   16.1001 C   0  0  0  0  0  0
    5.0762   57.3714   16.8356 N   0  0  0  0  0  0
    5.7717   56.4560   17.5920 C   0  0  0  0  0  0
    4.9062   55.4986   18.0902 C   0  0  0  0  0  0
    3.6399   55.8555   17.6389 C   0  0  0  0  0  0
    3.7294   57.0194   16.8761 C   0  0  0  0  0  0
    2.6277   57.6342   16.1699 C   0  0  0  0  0  0
    1.5979   57.0122   15.9237 O   0  0  0  0  0  0
    2.7616   58.9106   15.8243 N   0  0  0  0  0  0
    5.3242   54.0536   19.0896 S   0  0  0  0  0  0
    4.2076   53.1086   18.9725 O   0  0  0  0  0  0
    6.7044   53.7000   18.7461 O   0  0  0  0  0  0
    5.3121   54.7613   20.7069 N   0  0  0  0  0  0
    6.3134   55.7498   21.1533 C   0  0  0  0  0  0
    7.0649   55.2638   22.4286 C   0  0  0  0  0  0
    6.0939   54.6850   23.4083 N   0  0  0  0  0  0
    5.1786   53.6491   22.8702 C   0  0  0  0  0  0
    4.3694   54.3128   21.7419 C   0  0  0  0  0  0
    6.2092   54.9791   24.7354 C   0  0  0  0  0  0
    7.1044   55.6968   25.1797 O   0  0  0  0  0  0
    5.2179   54.4483   25.7449 C   0  0  0  0  0  0
    3.8347   54.5042   25.5220 C   0  0  0  0  0  0
    2.9488   54.0534   26.4955 C   0  0  0  0  0  0
    3.4315   53.5552   27.7040 C   0  0  0  0  0  0
    4.8062   53.5207   27.9458 C   0  0  0  0  0  0
    5.6921   53.9758   26.9750 C   0  0  0  0  0  0
    2.2571   52.9835   28.9023 S   0  0  0  0  0  0
    3.1407   52.3428   30.3499 C   0  0  0  0  0  0
    3.9042   53.2925   30.8818 F   0  0  0  0  0  0
    2.2766   51.9392   31.2769 F   0  0  0  0  0  0
    3.9036   51.3000   30.0215 F   0  0  0  0  0  0
    6.7935   58.3361   16.1012 H   0  0  0  0  0  0
    5.3646   58.4678   15.0666 H   0  0  0  0  0  0
    5.4809   59.4082   16.5839 H   0  0  0  0  0  0
    6.8454   56.5386   17.6878 H   0  0  0  0  0  0
    2.7314   55.3026   17.8407 H   0  0  0  0  0  0
    3.5298   59.4832   16.1517 H   0  0  0  0  0  0
    1.9906   59.3672   15.3628 H   0  0  0  0  0  0
    7.0392   55.8474   20.3454 H   0  0  0  0  0  0
    5.8243   56.7128   21.2818 H   0  0  0  0  0  0
    7.7635   54.4809   22.1454 H   0  0  0  0  0  0
    7.6223   56.0968   22.8551 H   0  0  0  0  0  0
    4.5471   53.1475   23.5974 H   0  0  0  0  0  0
    5.8125   52.8670   22.4460 H   0  0  0  0  0  0
    3.8293   55.1923   22.0914 H   0  0  0  0  0  0
    3.6277   53.6364   21.3183 H   0  0  0  0  0  0
    3.4344   54.9037   24.6006 H   0  0  0  0  0  0
    1.8849   54.0941   26.3104 H   0  0  0  0  0  0
    5.2176   53.1438   28.8689 H   0  0  0  0  0  0
    6.7527   53.9463   27.1814 H   0  0  0  0  0  0
  1  2  1  0  0  0
  1 32  1  0  0  0
  1 33  1  0  0  0
  1 34  1  0  0  0
  2  6  1  0  0  0
  2  3  1  0  0  0
  3  4  2  0  0  0
  3 35  1  0  0  0
  4  5  1  0  0  0
  4 10  1  0  0  0
  5  6  2  0  0  0
  5 36  1  0  0  0
  6  7  1  0  0  0
  7  8  2  0  0  0
  7  9  1  0  0  0
  9 37  1  0  0  0
  9 38  1  0  0  0
 10 11  2  0  0  0
 10 12  2  0  0  0
 10 13  1  0  0  0
 13 18  1  0  0  0
 13 14  1  0  0  0
 14 15  1  0  0  0
 14 39  1  0  0  0
 14 40  1  0  0  0
 15 16  1  0  0  0
 15 41  1  0  0  0
 15 42  1  0  0  0
 16 17  1  0  0  0
 16 19  1  0  0  0
 17 18  1  0  0  0
 17 43  1  0  0  0
 17 44  1  0  0  0
 18 45  1  0  0  0
 18 46  1  0  0  0
 19 20  2  0  0  0
 19 21  1  0  0  0
 21 26  2  0  0  0
 21 22  1  0  0  0
 22 23  2  0  0  0
 22 47  1  0  0  0
 23 24  1  0  0  0
 23 48  1  0  0  0
 24 25  2  0  0  0
 24 27  1  0  0  0
 25 26  1  0  0  0
 25 49  1  0  0  0
 26 50  1  0  0  0
 27 28  1  0  0  0
 28 29  1  0  0  0
 28 30  1  0  0  0
 28 31  1  0  0  0
M  END
> <i_i_glide_confnum>
164

> <i_i_glide_lignum>
3255

> <i_i_glide_posenum>
128

> <i_i_glide_rotatable_bonds>
7

> <i_m_Source_File_Index>
1880

> <b_m_subgroup_collapsed>
0

> <r_i_docking_score>
-7.03011

> <r_i_glide_ecoul>
-5.29667

> <r_i_glide_eff_state_penalty>
0

> <r_i_glide_einternal>
7.79896

> <r_i_glide_emodel>
-64.818

> <r_i_glide_energy>
-48.7326

> <r_i_glide_erotb>
0.445946

> <r_i_glide_esite>
-0.278574

> <r_i_glide_evdw>
-43.4359

> <r_i_glide_gscore>
-7.03011

> <r_i_glide_hbond>
-0.380304

> <r_i_glide_ligand_efficiency>
-0.226778

> <r_i_glide_ligand_efficiency_ln>
-1.5855

> <r_i_glide_ligand_efficiency_sa>
-0.712395

> <r_i_glide_lipo>
-2.5645

> <r_i_glide_metal>
0

> <r_i_glide_rewards>
-1.28638

> <s_i_glide_gridfile>
wee1_glide-grid

> <s_m_Source_File>
wee1_decoys_glide_SP.sdf

> <s_m_Source_Path>
/Users/zhangxujun/Desktop

> <s_m_entry_id>
2155

> <s_m_entry_name>
wee1_decoys_glide_SP.1880

> <s_m_subgroup_title>
wee1_decoys_glide_SP

> <s_m_subgroupid>
wee1_decoys_glide_SP


$$$$
