ZINC12637947_1024
                    3D
 Schrodinger Suite 2024-2.
 73 77  0  0  1  0            999 V2000
    6.1723   55.2856   26.6620 C   0  0  0  0  0  0
    4.8290   54.6937   26.2619 C   0  0  0  0  0  0
    3.7664   54.6421   27.1612 C   0  0  0  0  0  0
    2.5480   54.0833   26.7825 C   0  0  0  0  0  0
    2.3749   53.4764   25.5261 C   0  0  0  0  0  0
    3.4315   53.6311   24.5840 C   0  0  0  0  0  0
    4.6407   54.2201   24.9677 C   0  0  0  0  0  0
    3.3541   53.1294   23.1415 C   0  0  0  0  0  0
    1.1294   52.8245   25.1878 N   0  0  0  0  0  0
    0.4741   51.7315   26.0224 C   0  0  2  0  0  0
   -0.5913   51.8381   25.9035 H   0  0  0  0  0  0
    0.6186   51.8304   27.5401 C   0  0  0  0  0  0
   -0.5211   52.1016   28.3032 C   0  0  0  0  0  0
   -0.4354   52.2198   29.6879 C   0  0  0  0  0  0
    0.7796   52.0972   30.3375 C   0  0  0  0  0  0
    1.9353   51.8345   29.6033 C   0  0  0  0  0  0
    1.8296   51.6362   28.2206 C   0  0  0  0  0  0
    3.1177   51.7003   30.2924 O   0  0  0  0  0  0
    4.3078   52.1677   29.6872 C   0  0  0  0  0  0
    0.8106   52.2186   31.7027 O   0  0  0  0  0  0
    0.6051   50.2841   25.4553 C   0  0  0  0  0  0
    0.7046   49.3317   26.2245 O   0  0  0  0  0  0
    0.6644   50.1444   24.1185 N   0  0  0  0  0  0
    0.9128   48.9039   23.3874 C   0  0  0  0  0  0
   -0.2542   48.5046   22.4686 C   0  0  0  0  0  0
    0.2446   48.6746   21.0174 C   0  0  0  0  0  0
    1.5722   49.4428   21.1068 C   0  0  0  0  0  0
    2.1376   49.0719   22.4788 C   0  0  0  0  0  0
    0.4146   53.4166   24.1673 C   0  0  0  0  0  0
    0.7461   54.4958   23.6766 O   0  0  0  0  0  0
   -0.8065   52.7375   23.5853 C   0  0  0  0  0  0
   -0.7343   52.1495   22.3101 C   0  0  0  0  0  0
   -1.8195   51.4539   21.7813 C   0  0  0  0  0  0
   -2.9707   51.2964   22.5453 C   0  0  0  0  0  0
   -3.0736   51.9236   23.7957 C   0  0  0  0  0  0
   -2.0199   52.6855   24.2876 C   0  0  0  0  0  0
   -4.2124   51.8333   24.5676 O   0  0  0  0  0  0
   -4.9624   50.6429   24.3110 C   0  0  0  0  0  0
   -5.1934   50.4854   22.7900 C   0  0  0  0  0  0
   -3.9675   50.4858   22.0424 O   0  0  0  0  0  0
    6.4455   56.0949   25.9820 H   0  0  0  0  0  0
    6.1633   55.6833   27.6782 H   0  0  0  0  0  0
    6.9496   54.5232   26.5933 H   0  0  0  0  0  0
    3.8710   55.0546   28.1543 H   0  0  0  0  0  0
    1.7351   54.1229   27.4903 H   0  0  0  0  0  0
    5.4513   54.2939   24.2556 H   0  0  0  0  0  0
    2.9244   53.8910   22.4904 H   0  0  0  0  0  0
    4.3421   52.8865   22.7513 H   0  0  0  0  0  0
    2.7563   52.2232   23.0601 H   0  0  0  0  0  0
   -1.4838   52.2056   27.8257 H   0  0  0  0  0  0
   -1.2956   52.4148   30.2875 H   0  0  0  0  0  0
    2.7049   51.3639   27.6742 H   0  0  0  0  0  0
    5.1050   51.7761   30.3044 H   0  0  0  0  0  0
    4.4917   51.8218   28.6686 H   0  0  0  0  0  0
    4.3490   53.2554   29.7058 H   0  0  0  0  0  0
   -0.0489   52.0973   32.1354 H   0  0  0  0  0  0
    0.5301   50.9638   23.5448 H   0  0  0  0  0  0
    1.1033   48.1110   24.1100 H   0  0  0  0  0  0
   -1.1635   49.0680   22.6774 H   0  0  0  0  0  0
   -0.5018   47.4555   22.6293 H   0  0  0  0  0  0
   -0.4810   49.1884   20.3859 H   0  0  0  0  0  0
    0.4154   47.6997   20.5556 H   0  0  0  0  0  0
    1.4031   50.5174   21.0511 H   0  0  0  0  0  0
    2.2585   49.1879   20.2947 H   0  0  0  0  0  0
    2.6583   48.1195   22.3908 H   0  0  0  0  0  0
    2.8719   49.7737   22.8741 H   0  0  0  0  0  0
    0.1718   52.2356   21.7238 H   0  0  0  0  0  0
   -1.7537   50.9989   20.8048 H   0  0  0  0  0  0
   -2.1313   53.1711   25.2487 H   0  0  0  0  0  0
   -5.9136   50.6925   24.8431 H   0  0  0  0  0  0
   -4.4170   49.7762   24.6870 H   0  0  0  0  0  0
   -5.8328   51.2956   22.4457 H   0  0  0  0  0  0
   -5.7269   49.5597   22.5827 H   0  0  0  0  0  0
  1  2  1  0  0  0
  1 41  1  0  0  0
  1 42  1  0  0  0
  1 43  1  0  0  0
  2  7  2  0  0  0
  2  3  1  0  0  0
  3  4  2  0  0  0
  3 44  1  0  0  0
  4  5  1  0  0  0
  4 45  1  0  0  0
  5  6  2  0  0  0
  5  9  1  0  0  0
  6  7  1  0  0  0
  6  8  1  0  0  0
  7 46  1  0  0  0
  8 47  1  0  0  0
  8 48  1  0  0  0
  8 49  1  0  0  0
  9 10  1  0  0  0
  9 29  1  0  0  0
 10 11  1  0  0  0
 10 12  1  0  0  0
 10 21  1  0  0  0
 12 17  2  0  0  0
 12 13  1  0  0  0
 13 14  2  0  0  0
 13 50  1  0  0  0
 14 15  1  0  0  0
 14 51  1  0  0  0
 15 16  2  0  0  0
 15 20  1  0  0  0
 16 17  1  0  0  0
 16 18  1  0  0  0
 17 52  1  0  0  0
 18 19  1  0  0  0
 19 53  1  0  0  0
 19 54  1  0  0  0
 19 55  1  0  0  0
 20 56  1  0  0  0
 21 22  2  0  0  0
 21 23  1  0  0  0
 23 24  1  0  0  0
 23 57  1  0  0  0
 24 28  1  0  0  0
 24 25  1  0  0  0
 24 58  1  0  0  0
 25 26  1  0  0  0
 25 59  1  0  0  0
 25 60  1  0  0  0
 26 27  1  0  0  0
 26 61  1  0  0  0
 26 62  1  0  0  0
 27 28  1  0  0  0
 27 63  1  0  0  0
 27 64  1  0  0  0
 28 65  1  0  0  0
 28 66  1  0  0  0
 29 30  2  0  0  0
 29 31  1  0  0  0
 31 36  2  0  0  0
 31 32  1  0  0  0
 32 33  2  0  0  0
 32 67  1  0  0  0
 33 34  1  0  0  0
 33 68  1  0  0  0
 34 40  1  0  0  0
 34 35  2  0  0  0
 35 36  1  0  0  0
 35 37  1  0  0  0
 36 69  1  0  0  0
 37 38  1  0  0  0
 38 39  1  0  0  0
 38 70  1  0  0  0
 38 71  1  0  0  0
 39 40  1  0  0  0
 39 72  1  0  0  0
 39 73  1  0  0  0
M  END
> <i_i_glide_confnum>
160

> <i_i_glide_lignum>
1025

> <i_i_glide_posenum>
383

> <i_i_glide_rotatable_bonds>
10

> <i_m_Source_File_Index>
3023

> <b_m_subgroup_collapsed>
0

> <r_i_docking_score>
-5.02126

> <r_i_glide_ecoul>
-5.66272

> <r_i_glide_eff_state_penalty>
0

> <r_i_glide_einternal>
20.9277

> <r_i_glide_emodel>
-34.4795

> <r_i_glide_energy>
-33.3053

> <r_i_glide_erotb>
0.512537

> <r_i_glide_esite>
-0.0203189

> <r_i_glide_evdw>
-27.6426

> <r_i_glide_gscore>
-5.02126

> <r_i_glide_hbond>
-0.304

> <r_i_glide_ligand_efficiency>
-0.12875

> <r_i_glide_ligand_efficiency_ln>
-1.0767

> <r_i_glide_ligand_efficiency_sa>
-0.43662

> <r_i_glide_lipo>
-2.43978

> <r_i_glide_metal>
0

> <r_i_glide_rewards>
-0.538163

> <s_i_glide_gridfile>
wee1_glide-grid

> <s_m_Source_File>
wee1_decoys_glide_SP.sdf

> <s_m_Source_Path>
/Users/zhangxujun/Desktop

> <s_m_entry_id>
3298

> <s_m_entry_name>
wee1_decoys_glide_SP.3023

> <s_m_subgroup_title>
wee1_decoys_glide_SP

> <s_m_subgroupid>
wee1_decoys_glide_SP


$$$$
