ZINC12821172_13
                    3D
 Schrodinger Suite 2024-2.
 54 56  0  0  1  0            999 V2000
   -4.6414   50.2039   31.6715 C   0  0  0  0  0  0
   -4.9634   49.2600   30.5012 C   0  0  0  0  0  0
   -4.0956   49.4691   29.3436 N   0  0  0  0  0  0
   -4.1758   50.4984   28.4859 C   0  0  0  0  0  0
   -5.1187   51.2967   28.4802 O   0  0  0  0  0  0
   -3.0858   50.5463   27.6860 N   0  0  0  0  0  0
   -2.7627   51.5206   26.7976 C   0  0  0  0  0  0
   -3.4995   52.4581   26.4806 O   0  0  0  0  0  0
   -1.3438   51.4883   26.1953 C   0  0  2  0  0  0
   -1.3833   52.1597   25.3382 H   0  0  0  0  0  0
   -0.9333   50.0922   25.6738 C   0  0  0  0  0  0
   -0.1749   52.1860   27.4135 S   0  0  0  0  0  0
    1.1861   52.8957   26.4187 C   0  0  0  0  0  0
    1.0724   52.8193   25.1382 N   0  0  0  0  0  0
    2.0942   53.2732   24.3794 C   0  0  0  0  0  0
    3.2804   53.7884   24.8577 C   0  0  0  0  0  0
    4.1998   54.1000   23.8258 C   0  0  0  0  0  0
    3.6560   53.8580   22.5518 C   0  0  0  0  0  0
    2.0392   53.2237   22.6626 S   0  0  0  0  0  0
    4.2763   54.0517   21.1857 C   0  0  0  0  0  0
    5.6215   54.5870   24.0565 C   0  0  0  0  0  0
    3.4486   53.9206   26.3077 C   0  0  0  0  0  0
    4.4736   54.3550   26.8358 O   0  0  0  0  0  0
    2.3095   53.5013   27.0137 N   0  0  0  0  0  0
    2.2972   53.6404   28.5153 C   0  0  0  0  0  0
    2.8375   52.3954   29.2390 C   0  0  0  0  0  0
    4.2949   52.7339   29.5505 C   0  0  0  0  0  0
    4.3045   54.2519   29.8123 C   0  0  0  0  0  0
    3.0174   54.8286   29.1931 C   0  0  0  0  0  0
   -5.2712   49.9880   32.5341 H   0  0  0  0  0  0
   -4.8067   51.2495   31.4072 H   0  0  0  0  0  0
   -3.6062   50.0967   31.9963 H   0  0  0  0  0  0
   -4.8356   48.2266   30.8268 H   0  0  0  0  0  0
   -6.0105   49.3608   30.2116 H   0  0  0  0  0  0
   -3.2495   48.9012   29.3333 H   0  0  0  0  0  0
   -2.3944   49.8177   27.8407 H   0  0  0  0  0  0
   -1.6746   49.6848   24.9863 H   0  0  0  0  0  0
    0.0123   50.1397   25.1336 H   0  0  0  0  0  0
   -0.7974   49.3734   26.4811 H   0  0  0  0  0  0
    5.1379   54.7204   21.2023 H   0  0  0  0  0  0
    4.6097   53.1019   20.7611 H   0  0  0  0  0  0
    3.5650   54.4838   20.4790 H   0  0  0  0  0  0
    6.2487   54.5751   23.1638 H   0  0  0  0  0  0
    5.6380   55.5902   24.4801 H   0  0  0  0  0  0
    6.1320   53.9588   24.7869 H   0  0  0  0  0  0
    1.2498   53.7858   28.7783 H   0  0  0  0  0  0
    2.2919   52.2663   30.1750 H   0  0  0  0  0  0
    2.7046   51.4697   28.6773 H   0  0  0  0  0  0
    4.6841   52.1589   30.3921 H   0  0  0  0  0  0
    4.9186   52.4987   28.6843 H   0  0  0  0  0  0
    4.3057   54.4499   30.8798 H   0  0  0  0  0  0
    5.1979   54.7230   29.4001 H   0  0  0  0  0  0
    3.1648   55.6945   28.5460 H   0  0  0  0  0  0
    2.3924   55.1900   30.0120 H   0  0  0  0  0  0
  1  2  1  0  0  0
  1 30  1  0  0  0
  1 31  1  0  0  0
  1 32  1  0  0  0
  2  3  1  0  0  0
  2 33  1  0  0  0
  2 34  1  0  0  0
  3  4  1  0  0  0
  3 35  1  0  0  0
  4  5  2  0  0  0
  4  6  1  0  0  0
  6  7  1  0  0  0
  6 36  1  0  0  0
  7  8  2  0  0  0
  7  9  1  0  0  0
  9 10  1  0  0  0
  9 11  1  0  0  0
  9 12  1  0  0  0
 11 37  1  0  0  0
 11 38  1  0  0  0
 11 39  1  0  0  0
 12 13  1  0  0  0
 13 24  1  0  0  0
 13 14  2  0  0  0
 14 15  1  0  0  0
 15 19  1  0  0  0
 15 16  2  0  0  0
 16 17  1  0  0  0
 16 22  1  0  0  0
 17 18  2  0  0  0
 17 21  1  0  0  0
 18 19  1  0  0  0
 18 20  1  0  0  0
 20 40  1  0  0  0
 20 41  1  0  0  0
 20 42  1  0  0  0
 21 43  1  0  0  0
 21 44  1  0  0  0
 21 45  1  0  0  0
 22 23  2  0  0  0
 22 24  1  0  0  0
 24 25  1  0  0  0
 25 29  1  0  0  0
 25 26  1  0  0  0
 25 46  1  0  0  0
 26 27  1  0  0  0
 26 47  1  0  0  0
 26 48  1  0  0  0
 27 28  1  0  0  0
 27 49  1  0  0  0
 27 50  1  0  0  0
 28 29  1  0  0  0
 28 51  1  0  0  0
 28 52  1  0  0  0
 29 53  1  0  0  0
 29 54  1  0  0  0
M  END
> <i_i_glide_confnum>
241

> <i_i_glide_lignum>
14

> <i_i_glide_posenum>
182

> <i_i_glide_rotatable_bonds>
8

> <i_m_Source_File_Index>
5549

> <b_m_subgroup_collapsed>
0

> <r_i_docking_score>
-6.26849

> <r_i_glide_ecoul>
-7.23486

> <r_i_glide_eff_state_penalty>
0

> <r_i_glide_einternal>
4.97595

> <r_i_glide_emodel>
-63.0502

> <r_i_glide_energy>
-46.3355

> <r_i_glide_erotb>
0.776653

> <r_i_glide_esite>
-0.310963

> <r_i_glide_evdw>
-39.1007

> <r_i_glide_gscore>
-6.26849

> <r_i_glide_hbond>
-0.402619

> <r_i_glide_ligand_efficiency>
-0.223875

> <r_i_glide_ligand_efficiency_ln>
-1.44695

> <r_i_glide_ligand_efficiency_sa>
-0.679815

> <r_i_glide_lipo>
-2.31035

> <r_i_glide_metal>
0

> <r_i_glide_rewards>
-0.980946

> <s_i_glide_gridfile>
wee1_glide-grid

> <s_m_Source_File>
wee1_decoys_glide_SP.sdf

> <s_m_Source_Path>
/Users/zhangxujun/Desktop

> <s_m_entry_id>
5824

> <s_m_entry_name>
wee1_decoys_glide_SP.5549

> <s_m_subgroup_title>
wee1_decoys_glide_SP

> <s_m_subgroupid>
wee1_decoys_glide_SP


$$$$
