ZINC20572300_975
                    3D
 Schrodinger Suite 2024-2.
 48 51  0  0  1  0            999 V2000
   -1.6447   51.9863   26.7867 C   0  0  0  0  0  0
   -0.1777   51.5509   26.9918 C   0  0  2  0  0  0
   -0.1210   50.4876   26.7436 H   0  0  0  0  0  0
    0.2137   51.6972   28.4781 C   0  0  0  0  0  0
    1.7073   51.4923   28.6676 C   0  0  0  0  0  0
    2.4207   52.5265   27.8327 C   0  0  0  0  0  0
    3.5896   53.1307   28.3124 C   0  0  0  0  0  0
    4.2555   54.0935   27.5640 C   0  0  0  0  0  0
    3.7285   54.4964   26.3460 C   0  0  0  0  0  0
    2.5500   53.9221   25.8766 C   0  0  0  0  0  0
    1.9031   52.8947   26.5662 C   0  0  0  0  0  0
    0.7319   52.2523   26.0409 N   0  0  0  0  0  0
    0.2639   52.1740   24.2787 S   0  0  0  0  0  0
   -0.2338   50.8105   24.0608 O   0  0  0  0  0  0
   -0.6323   53.3145   24.0719 O   0  0  0  0  0  0
    1.6470   52.3753   23.1281 C   0  0  0  0  0  0
    2.0162   53.6480   22.7021 C   0  0  0  0  0  0
    3.1042   53.8214   21.8590 C   0  0  0  0  0  0
    3.8106   52.7373   21.3285 C   0  0  0  0  0  0
    3.3610   51.4585   21.6816 C   0  0  0  0  0  0
    2.3044   51.2701   22.5836 C   0  0  0  0  0  0
    4.8876   52.8412   20.4768 N   0  5  0  0  0  0
    5.4725   54.1938   19.9114 S   0  0  0  0  0  0
    5.5049   55.2975   20.8778 O   0  0  0  0  0  0
    6.6911   54.0136   19.1172 O   0  0  0  0  0  0
    4.3086   54.7452   18.6396 C   0  0  0  0  0  0
    4.2956   56.0177   18.0816 C   0  0  0  0  0  0
    3.3196   56.1610   17.0903 C   0  0  0  0  0  0
    2.5957   54.9951   16.8761 C   0  0  0  0  0  0
    3.1405   53.6967   17.8894 S   0  0  0  0  0  0
    1.3054   54.7481   15.7683 Cl  0  0  0  0  0  0
    5.3954   54.6503   28.0292 F   0  0  0  0  0  0
   -2.2963   51.5224   27.5278 H   0  0  0  0  0  0
   -1.7553   53.0673   26.8793 H   0  0  0  0  0  0
   -2.0341   51.6959   25.8120 H   0  0  0  0  0  0
   -0.0835   52.6769   28.8570 H   0  0  0  0  0  0
   -0.3424   50.9724   29.0750 H   0  0  0  0  0  0
    1.9942   50.4967   28.3365 H   0  0  0  0  0  0
    1.9698   51.5788   29.7212 H   0  0  0  0  0  0
    3.9971   52.8404   29.2686 H   0  0  0  0  0  0
    4.2164   55.2755   25.7787 H   0  0  0  0  0  0
    2.1179   54.3359   24.9931 H   0  0  0  0  0  0
    1.4674   54.5217   23.0198 H   0  0  0  0  0  0
    3.3389   54.8361   21.5893 H   0  0  0  0  0  0
    3.8594   50.5920   21.2717 H   0  0  0  0  0  0
    2.0119   50.2672   22.8594 H   0  0  0  0  0  0
    4.9650   56.8092   18.3887 H   0  0  0  0  0  0
    3.1462   57.0818   16.5524 H   0  0  0  0  0  0
  1  2  1  0  0  0
  1 33  1  0  0  0
  1 34  1  0  0  0
  1 35  1  0  0  0
  2  3  1  0  0  0
  2 12  1  0  0  0
  2  4  1  0  0  0
  4  5  1  0  0  0
  4 36  1  0  0  0
  4 37  1  0  0  0
  5  6  1  0  0  0
  5 38  1  0  0  0
  5 39  1  0  0  0
  6 11  2  0  0  0
  6  7  1  0  0  0
  7  8  2  0  0  0
  7 40  1  0  0  0
  8  9  1  0  0  0
  8 32  1  0  0  0
  9 10  2  0  0  0
  9 41  1  0  0  0
 10 11  1  0  0  0
 10 42  1  0  0  0
 11 12  1  0  0  0
 12 13  1  0  0  0
 13 14  2  0  0  0
 13 15  2  0  0  0
 13 16  1  0  0  0
 16 21  2  0  0  0
 16 17  1  0  0  0
 17 18  2  0  0  0
 17 43  1  0  0  0
 18 19  1  0  0  0
 18 44  1  0  0  0
 19 20  2  0  0  0
 19 22  1  0  0  0
 20 21  1  0  0  0
 20 45  1  0  0  0
 21 46  1  0  0  0
 22 23  1  0  0  0
 23 24  2  0  0  0
 23 25  2  0  0  0
 23 26  1  0  0  0
 26 30  1  0  0  0
 26 27  2  0  0  0
 27 28  1  0  0  0
 27 47  1  0  0  0
 28 29  2  0  0  0
 28 48  1  0  0  0
 29 30  1  0  0  0
 29 31  1  0  0  0
M  CHG  1  22  -1
M  END
> <i_i_glide_confnum>
78

> <i_i_glide_lignum>
976

> <i_i_glide_posenum>
271

> <i_i_glide_rotatable_bonds>
5

> <i_m_Source_File_Index>
2754

> <b_m_subgroup_collapsed>
0

> <r_i_docking_score>
-0.675127

> <r_i_glide_ecoul>
-1.01486

> <r_i_glide_eff_state_penalty>
0

> <r_i_glide_einternal>
6.44821

> <r_i_glide_emodel>
-24.8523

> <r_i_glide_energy>
-36.6495

> <r_i_glide_erotb>
0.40832

> <r_i_glide_esite>
-0.0129137

> <r_i_glide_evdw>
-35.6346

> <r_i_glide_gscore>
-0.675127

> <r_i_glide_hbond>
0

> <r_i_glide_ligand_efficiency>
-0.0217783

> <r_i_glide_ligand_efficiency_ln>
-0.152262

> <r_i_glide_ligand_efficiency_sa>
-0.0684139

> <r_i_glide_lipo>
-2.02915

> <r_i_glide_metal>
0

> <r_i_glide_rewards>
2.89258

> <s_i_glide_gridfile>
wee1_glide-grid

> <s_m_Source_File>
wee1_decoys_glide_SP.sdf

> <s_m_Source_Path>
/Users/zhangxujun/Desktop

> <s_m_entry_id>
3029

> <s_m_entry_name>
wee1_decoys_glide_SP.2754

> <s_m_subgroup_title>
wee1_decoys_glide_SP

> <s_m_subgroupid>
wee1_decoys_glide_SP


$$$$
