ZINC27550409_687
                    3D
 Schrodinger Suite 2024-2.
 51 54  0  0  1  0            999 V2000
    4.3753   54.3424   28.2170 C   0  0  0  0  0  0
    2.8509   54.1689   28.2665 C   0  0  0  0  0  0
    2.3102   52.5368   27.6828 S   0  0  0  0  0  0
    1.7376   52.8967   26.0502 C   0  0  0  0  0  0
    0.6411   52.2935   25.4081 C   0  0  0  0  0  0
    0.4348   52.8919   24.1469 C   0  0  0  0  0  0
    1.4090   53.8057   23.7782 C   0  0  0  0  0  0
    2.6056   53.9887   25.0023 S   0  0  0  0  0  0
   -0.1360   51.0712   25.9379 C   0  0  1  0  0  0
    0.6307   50.4435   26.3977 H   0  0  0  0  0  0
   -1.1529   51.3421   27.0592 C   0  0  0  0  0  0
   -2.4794   51.2030   26.8525 C   0  0  0  0  0  0
   -2.9898   50.7764   25.6209 N   0  0  0  0  0  0
   -2.1565   50.1292   24.6926 C   0  0  0  0  0  0
   -0.7949   50.1988   24.8287 C   0  0  0  0  0  0
    0.1189   49.5335   23.8657 C   0  0  0  0  0  0
    1.3337   49.7149   23.8716 O   0  0  0  0  0  0
   -0.5178   48.6455   22.7914 C   0  0  0  0  0  0
   -1.8561   49.2297   22.3248 C   0  0  0  0  0  0
   -2.8205   49.3880   23.5106 C   0  0  0  0  0  0
   -4.3664   50.9679   25.3429 C   0  0  0  0  0  0
   -5.2360   49.8989   25.5990 C   0  0  0  0  0  0
   -6.6124   50.0476   25.4528 C   0  0  0  0  0  0
   -7.1380   51.2738   25.0590 C   0  0  0  0  0  0
   -6.2854   52.3452   24.8034 C   0  0  0  0  0  0
   -4.8931   52.2153   24.9311 C   0  0  0  0  0  0
   -4.0325   53.3676   24.5662 N   0  3  0  0  0  0
   -2.9254   53.1599   24.0814 O   0  0  0  0  0  0
   -4.4961   54.4960   24.7020 O   0  5  0  0  0  0
   -8.8433   51.4665   24.8824 Cl  0  0  0  0  0  0
   -3.3932   51.2962   27.8823 N   0  0  0  0  0  0
   -0.6986   51.7324   28.3590 C   0  0  0  0  0  0
   -0.4228   52.0922   29.4254 N   0  0  0  0  0  0
    4.6823   55.2961   28.6411 H   0  0  0  0  0  0
    4.8759   53.5613   28.7903 H   0  0  0  0  0  0
    4.7494   54.2956   27.1930 H   0  0  0  0  0  0
    2.3512   54.9595   27.7056 H   0  0  0  0  0  0
    2.5098   54.2751   29.2968 H   0  0  0  0  0  0
   -0.3705   52.6055   23.4869 H   0  0  0  0  0  0
    1.5020   54.3452   22.8477 H   0  0  0  0  0  0
    0.1855   48.5033   21.9707 H   0  0  0  0  0  0
   -0.6833   47.6702   23.2490 H   0  0  0  0  0  0
   -1.6866   50.1972   21.8461 H   0  0  0  0  0  0
   -2.3010   48.5898   21.5616 H   0  0  0  0  0  0
   -3.6341   49.9834   23.0951 H   0  0  0  0  0  0
   -3.2718   48.4500   23.8365 H   0  0  0  0  0  0
   -4.8385   48.9513   25.9368 H   0  0  0  0  0  0
   -7.2712   49.2163   25.6575 H   0  0  0  0  0  0
   -6.7166   53.2837   24.4828 H   0  0  0  0  0  0
   -3.0476   51.4958   28.8108 H   0  0  0  0  0  0
   -4.2412   50.7507   27.8413 H   0  0  0  0  0  0
  1  2  1  0  0  0
  1 34  1  0  0  0
  1 35  1  0  0  0
  1 36  1  0  0  0
  2  3  1  0  0  0
  2 37  1  0  0  0
  2 38  1  0  0  0
  3  4  1  0  0  0
  4  8  1  0  0  0
  4  5  2  0  0  0
  5  6  1  0  0  0
  5  9  1  0  0  0
  6  7  2  0  0  0
  6 39  1  0  0  0
  7  8  1  0  0  0
  7 40  1  0  0  0
  9 10  1  0  0  0
  9 15  1  0  0  0
  9 11  1  0  0  0
 11 12  2  0  0  0
 11 32  1  0  0  0
 12 13  1  0  0  0
 12 31  1  0  0  0
 13 14  1  0  0  0
 13 21  1  0  0  0
 14 20  1  0  0  0
 14 15  2  0  0  0
 15 16  1  0  0  0
 16 17  2  0  0  0
 16 18  1  0  0  0
 18 19  1  0  0  0
 18 41  1  0  0  0
 18 42  1  0  0  0
 19 20  1  0  0  0
 19 43  1  0  0  0
 19 44  1  0  0  0
 20 45  1  0  0  0
 20 46  1  0  0  0
 21 26  2  0  0  0
 21 22  1  0  0  0
 22 23  2  0  0  0
 22 47  1  0  0  0
 23 24  1  0  0  0
 23 48  1  0  0  0
 24 25  2  0  0  0
 24 30  1  0  0  0
 25 26  1  0  0  0
 25 49  1  0  0  0
 26 27  1  0  0  0
 27 28  2  0  0  0
 27 29  1  0  0  0
 31 50  1  0  0  0
 31 51  1  0  0  0
 32 33  3  0  0  0
M  CHG  2  27   1  29  -1
M  END
> <i_i_glide_confnum>
12

> <i_i_glide_lignum>
688

> <i_i_glide_posenum>
337

> <i_i_glide_rotatable_bonds>
6

> <i_m_Source_File_Index>
4509

> <b_m_subgroup_collapsed>
0

> <r_i_docking_score>
-3.69133

> <r_i_glide_ecoul>
-1.1402

> <r_i_glide_eff_state_penalty>
0

> <r_i_glide_einternal>
7.21097

> <r_i_glide_emodel>
-39.179

> <r_i_glide_energy>
-36.3439

> <r_i_glide_erotb>
0.257115

> <r_i_glide_esite>
-0.143175

> <r_i_glide_evdw>
-35.2037

> <r_i_glide_gscore>
-3.69133

> <r_i_glide_hbond>
0

> <r_i_glide_ligand_efficiency>
-0.115354

> <r_i_glide_ligand_efficiency_ln>
-0.82659

> <r_i_glide_ligand_efficiency_sa>
-0.366226

> <r_i_glide_lipo>
-1.61849

> <r_i_glide_metal>
0

> <r_i_glide_rewards>
-0.255572

> <s_i_glide_gridfile>
wee1_glide-grid

> <s_m_Source_File>
wee1_decoys_glide_SP.sdf

> <s_m_Source_Path>
/Users/zhangxujun/Desktop

> <s_m_entry_id>
4784

> <s_m_entry_name>
wee1_decoys_glide_SP.4509

> <s_m_subgroup_title>
wee1_decoys_glide_SP

> <s_m_subgroupid>
wee1_decoys_glide_SP


$$$$
