ZINC07256781_1388
                    3D
 Schrodinger Suite 2024-2.
 51 53  0  0  1  0            999 V2000
    0.1589   53.8749   32.2840 C   0  0  0  0  0  0
    0.4634   53.7099   30.8074 C   0  0  0  0  0  0
    1.0351   54.7559   30.0814 C   0  0  0  0  0  0
    1.3449   54.5763   28.7364 C   0  0  0  0  0  0
    1.1089   53.3415   28.1170 C   0  0  0  0  0  0
    0.5072   52.3080   28.8438 C   0  0  0  0  0  0
    0.1794   52.4967   30.1835 C   0  0  0  0  0  0
    1.5044   53.1497   26.7655 N   0  0  0  0  0  0
    2.6956   53.5359   26.1520 C   0  0  0  0  0  0
    2.6536   53.2967   24.8636 N   0  0  0  0  0  0
    1.4432   52.6777   24.5934 N   0  0  0  0  0  0
    0.7728   52.5980   25.7154 C   0  0  0  0  0  0
   -0.8993   52.0088   25.7630 S   0  0  0  0  0  0
   -0.7183   50.2040   26.0571 C   0  0  2  0  0  0
   -1.1442   50.0967   27.0551 H   0  0  0  0  0  0
    0.7044   49.6201   26.1077 C   0  0  0  0  0  0
   -1.5641   49.3234   25.1109 C   0  0  0  0  0  0
   -1.8038   49.6751   23.9530 O   0  0  0  0  0  0
   -1.9654   48.1695   25.6817 N   0  0  0  0  0  0
   -2.6539   47.1374   25.1645 C   0  0  0  0  0  0
   -2.9412   46.9674   23.9776 O   0  0  0  0  0  0
   -3.0218   46.3029   26.1497 N   0  0  0  0  0  0
   -4.1370   45.3655   26.0818 C   0  0  0  0  0  0
    3.7692   54.1182   26.8069 N   0  0  0  0  0  0
    4.8960   54.6922   26.0578 C   0  0  0  0  0  0
    6.1443   54.7121   26.9511 C   0  0  0  0  0  0
    5.6222   54.2767   28.3066 C   0  0  0  0  0  0
    4.4008   53.4440   27.9406 C   0  0  0  0  0  0
   -0.8956   53.6968   32.4815 H   0  0  0  0  0  0
    0.7066   53.1377   32.8716 H   0  0  0  0  0  0
    0.4063   54.8701   32.6487 H   0  0  0  0  0  0
    1.2425   55.7046   30.5559 H   0  0  0  0  0  0
    1.7903   55.3937   28.1870 H   0  0  0  0  0  0
    0.3029   51.3500   28.3959 H   0  0  0  0  0  0
   -0.2843   51.6970   30.7452 H   0  0  0  0  0  0
    0.7100   48.5530   26.3421 H   0  0  0  0  0  0
    1.1975   49.7352   25.1420 H   0  0  0  0  0  0
    1.3042   50.0959   26.8817 H   0  0  0  0  0  0
   -1.7304   48.0967   26.6705 H   0  0  0  0  0  0
   -2.5978   46.4232   27.0607 H   0  0  0  0  0  0
   -3.8449   44.4049   26.5074 H   0  0  0  0  0  0
   -4.4956   45.2057   25.0639 H   0  0  0  0  0  0
   -4.9692   45.7487   26.6724 H   0  0  0  0  0  0
    5.1235   54.0675   25.1917 H   0  0  0  0  0  0
    4.6504   55.6849   25.6804 H   0  0  0  0  0  0
    6.8844   53.9953   26.5896 H   0  0  0  0  0  0
    6.6095   55.6963   27.0053 H   0  0  0  0  0  0
    5.3392   55.1234   28.9348 H   0  0  0  0  0  0
    6.3587   53.7007   28.8685 H   0  0  0  0  0  0
    3.7106   53.3705   28.7795 H   0  0  0  0  0  0
    4.6718   52.4243   27.6733 H   0  0  0  0  0  0
  1  2  1  0  0  0
  1 29  1  0  0  0
  1 30  1  0  0  0
  1 31  1  0  0  0
  2  7  2  0  0  0
  2  3  1  0  0  0
  3  4  2  0  0  0
  3 32  1  0  0  0
  4  5  1  0  0  0
  4 33  1  0  0  0
  5  6  2  0  0  0
  5  8  1  0  0  0
  6  7  1  0  0  0
  6 34  1  0  0  0
  7 35  1  0  0  0
  8 12  1  0  0  0
  8  9  1  0  0  0
  9 10  2  0  0  0
  9 24  1  0  0  0
 10 11  1  0  0  0
 11 12  2  0  0  0
 12 13  1  0  0  0
 13 14  1  0  0  0
 14 15  1  0  0  0
 14 16  1  0  0  0
 14 17  1  0  0  0
 16 36  1  0  0  0
 16 37  1  0  0  0
 16 38  1  0  0  0
 17 18  2  0  0  0
 17 19  1  0  0  0
 19 20  1  0  0  0
 19 39  1  0  0  0
 20 21  2  0  0  0
 20 22  1  0  0  0
 22 23  1  0  0  0
 22 40  1  0  0  0
 23 41  1  0  0  0
 23 42  1  0  0  0
 23 43  1  0  0  0
 24 28  1  0  0  0
 24 25  1  0  0  0
 25 26  1  0  0  0
 25 44  1  0  0  0
 25 45  1  0  0  0
 26 27  1  0  0  0
 26 46  1  0  0  0
 26 47  1  0  0  0
 27 28  1  0  0  0
 27 48  1  0  0  0
 27 49  1  0  0  0
 28 50  1  0  0  0
 28 51  1  0  0  0
M  END
> <i_i_glide_confnum>
91

> <i_i_glide_lignum>
1389

> <i_i_glide_posenum>
367

> <i_i_glide_rotatable_bonds>
8

> <i_m_Source_File_Index>
426

> <b_m_subgroup_collapsed>
0

> <r_i_docking_score>
-6.56712

> <r_i_glide_ecoul>
-8.7932

> <r_i_glide_eff_state_penalty>
0

> <r_i_glide_einternal>
9.23804

> <r_i_glide_emodel>
-65.5108

> <r_i_glide_energy>
-48.8248

> <r_i_glide_erotb>
0.903717

> <r_i_glide_esite>
-0.324256

> <r_i_glide_evdw>
-40.0316

> <r_i_glide_gscore>
-6.56712

> <r_i_glide_hbond>
-0.16

> <r_i_glide_ligand_efficiency>
-0.243226

> <r_i_glide_ligand_efficiency_ln>
-1.52872

> <r_i_glide_ligand_efficiency_sa>
-0.729679

> <r_i_glide_lipo>
-2.10436

> <r_i_glide_metal>
0

> <r_i_glide_rewards>
-1.56166

> <s_i_glide_gridfile>
wee1_glide-grid

> <s_m_Source_File>
wee1_decoys_glide_SP.sdf

> <s_m_Source_Path>
/Users/zhangxujun/Desktop

> <s_m_entry_id>
701

> <s_m_entry_name>
wee1_decoys_glide_SP.426

> <s_m_subgroup_title>
wee1_decoys_glide_SP

> <s_m_subgroupid>
wee1_decoys_glide_SP


$$$$
