ZINC42642605_6196
                    3D
 Schrodinger Suite 2024-2.
 51 53  0  0  1  0            999 V2000
    4.5176   54.7378   19.4352 C   0  0  0  0  0  0
    4.9152   53.6190   20.4088 C   0  0  1  0  0  0
    5.9044   53.2786   20.1163 H   0  0  0  0  0  0
    4.9864   54.0381   21.8895 C   0  0  0  0  0  0
    6.2321   54.4283   22.4345 C   0  0  0  0  0  0
    6.3812   54.7174   23.7977 C   0  0  0  0  0  0
    5.2538   54.6124   24.6005 C   0  0  0  0  0  0
    4.0315   54.2918   24.0805 C   0  0  0  0  0  0
    3.8536   54.0260   22.7262 C   0  0  0  0  0  0
    3.1048   54.3211   25.0725 O   0  0  0  0  0  0
    3.8333   54.4519   26.2677 C   0  0  0  0  0  0
    5.1308   54.8626   25.9294 O   0  0  0  0  0  0
    4.1624   52.3042   20.0819 N   0  3  0  0  0  0
    2.6498   52.2633   20.1268 C   0  0  1  0  0  0
    2.2888   53.2806   20.2673 H   0  0  0  0  0  0
    2.1184   51.6742   18.8038 C   0  0  0  0  0  0
    2.2955   51.3549   21.3332 C   0  0  0  0  0  0
    3.1043   50.4941   21.6789 O   0  0  0  0  0  0
    1.1191   51.6069   21.9537 N   0  0  0  0  0  0
    0.5793   50.9867   23.1076 C   0  0  0  0  0  0
    1.1045   49.8251   23.6979 C   0  0  0  0  0  0
    0.5394   49.2976   24.8548 C   0  0  0  0  0  0
   -0.5703   49.9006   25.4301 C   0  0  0  0  0  0
   -1.1485   51.0406   24.8469 C   0  0  0  0  0  0
   -0.5550   51.5745   23.6872 C   0  0  0  0  0  0
   -2.3906   51.6800   25.4370 C   0  0  0  0  0  0
   -2.8450   52.7282   24.9700 O   0  0  0  0  0  0
   -2.9775   51.0268   26.4561 N   0  0  0  0  0  0
   -4.2175   51.4324   27.0963 C   0  0  0  0  0  0
    5.1755   55.6005   19.5394 H   0  0  0  0  0  0
    4.5733   54.4049   18.3980 H   0  0  0  0  0  0
    3.5045   55.0880   19.6090 H   0  0  0  0  0  0
    7.1062   54.4972   21.8031 H   0  0  0  0  0  0
    7.3433   55.0040   24.1980 H   0  0  0  0  0  0
    2.8666   53.8128   22.3535 H   0  0  0  0  0  0
    3.8856   53.4811   26.7673 H   0  0  0  0  0  0
    3.3638   55.1800   26.9319 H   0  0  0  0  0  0
    4.4507   51.5834   20.7358 H   0  0  0  0  0  0
    1.0295   51.6215   18.7964 H   0  0  0  0  0  0
    2.4087   52.2921   17.9527 H   0  0  0  0  0  0
    2.4991   50.6669   18.6148 H   0  0  0  0  0  0
    0.5620   52.3567   21.5748 H   0  0  0  0  0  0
    1.9562   49.3026   23.2948 H   0  0  0  0  0  0
    0.9674   48.4157   25.3115 H   0  0  0  0  0  0
   -0.9671   49.4489   26.3294 H   0  0  0  0  0  0
   -0.9780   52.4606   23.2359 H   0  0  0  0  0  0
   -2.5394   50.1942   26.8264 H   0  0  0  0  0  0
   -4.3332   50.9205   28.0543 H   0  0  0  0  0  0
   -5.0732   51.1794   26.4658 H   0  0  0  0  0  0
   -4.2379   52.5067   27.2832 H   0  0  0  0  0  0
    4.4389   51.9701   19.1624 H   0  0  0  0  0  0
  1  2  1  0  0  0
  1 30  1  0  0  0
  1 31  1  0  0  0
  1 32  1  0  0  0
  2  3  1  0  0  0
  2  4  1  0  0  0
  2 13  1  0  0  0
  4  9  2  0  0  0
  4  5  1  0  0  0
  5  6  2  0  0  0
  5 33  1  0  0  0
  6  7  1  0  0  0
  6 34  1  0  0  0
  7 12  1  0  0  0
  7  8  2  0  0  0
  8  9  1  0  0  0
  8 10  1  0  0  0
  9 35  1  0  0  0
 10 11  1  0  0  0
 11 12  1  0  0  0
 11 36  1  0  0  0
 11 37  1  0  0  0
 13 14  1  0  0  0
 13 38  1  0  0  0
 13 51  1  0  0  0
 14 15  1  0  0  0
 14 16  1  0  0  0
 14 17  1  0  0  0
 16 39  1  0  0  0
 16 40  1  0  0  0
 16 41  1  0  0  0
 17 18  2  0  0  0
 17 19  1  0  0  0
 19 20  1  0  0  0
 19 42  1  0  0  0
 20 25  2  0  0  0
 20 21  1  0  0  0
 21 22  2  0  0  0
 21 43  1  0  0  0
 22 23  1  0  0  0
 22 44  1  0  0  0
 23 24  2  0  0  0
 23 45  1  0  0  0
 24 25  1  0  0  0
 24 26  1  0  0  0
 25 46  1  0  0  0
 26 27  2  0  0  0
 26 28  1  0  0  0
 28 29  1  0  0  0
 28 47  1  0  0  0
 29 48  1  0  0  0
 29 49  1  0  0  0
 29 50  1  0  0  0
M  CHG  1  13   1
M  END
> <i_i_glide_confnum>
11

> <i_i_glide_lignum>
6197

> <i_i_glide_posenum>
272

> <i_i_glide_rotatable_bonds>
8

> <i_m_Source_File_Index>
5018

> <b_m_subgroup_collapsed>
0

> <r_i_docking_score>
-4.92068

> <r_i_glide_ecoul>
-7.40668

> <r_i_glide_eff_state_penalty>
0

> <r_i_glide_einternal>
5.1834

> <r_i_glide_emodel>
-53.0578

> <r_i_glide_energy>
-39.0351

> <r_i_glide_erotb>
0.843592

> <r_i_glide_esite>
-0.114498

> <r_i_glide_evdw>
-31.6284

> <r_i_glide_gscore>
-4.92068

> <r_i_glide_hbond>
-0.13199

> <r_i_glide_ligand_efficiency>
-0.182247

> <r_i_glide_ligand_efficiency_ln>
-1.14545

> <r_i_glide_ligand_efficiency_sa>
-0.546742

> <r_i_glide_lipo>
-1.45517

> <r_i_glide_metal>
0

> <r_i_glide_rewards>
-1.37019

> <s_i_glide_gridfile>
wee1_glide-grid

> <s_m_Source_File>
wee1_decoys_glide_SP.sdf

> <s_m_Source_Path>
/Users/zhangxujun/Desktop

> <s_m_entry_id>
5293

> <s_m_entry_name>
wee1_decoys_glide_SP.5018

> <s_m_subgroup_title>
wee1_decoys_glide_SP

> <s_m_subgroupid>
wee1_decoys_glide_SP


$$$$
