ZINC40115549_2988
                    3D
 Schrodinger Suite 2024-2.
 56 59  0  0  1  0            999 V2000
    0.0299   53.8728   15.7162 C   0  0  0  0  0  0
   -0.2151   54.3232   17.1628 C   0  0  0  0  0  0
   -0.1500   53.2432   18.0870 O   0  0  0  0  0  0
    1.1494   52.6992   18.3006 C   0  0  0  0  0  0
    1.0951   51.7671   19.5217 C   0  0  0  0  0  0
    2.4276   51.0568   19.8397 C   0  0  0  0  0  0
    3.5314   51.9817   20.0968 N   0  0  0  0  0  0
    3.7051   52.6994   21.2219 C   0  0  0  0  0  0
    2.9640   52.5899   22.2031 O   0  0  0  0  0  0
    4.8341   53.6207   21.2182 C   0  0  0  0  0  0
    5.4949   54.0986   20.0561 C   0  0  0  0  0  0
    6.4922   55.0103   20.3152 C   0  0  0  0  0  0
    6.7094   55.3015   21.9939 S   0  0  0  0  0  0
    5.3635   54.2473   22.3766 C   0  0  0  0  0  0
    4.8962   54.0898   23.6826 N   0  0  0  0  0  0
    5.4432   54.4979   24.8517 C   0  0  0  0  0  0
    6.5055   55.1144   24.9734 O   0  0  0  0  0  0
    4.6700   54.1199   26.0186 C   0  0  0  0  0  0
    5.0320   54.0863   27.3766 C   0  0  0  0  0  0
    3.8757   53.5916   28.0659 C   0  0  0  0  0  0
    3.5524   53.2833   29.3998 C   0  0  0  0  0  0
    2.2699   52.8118   29.6926 C   0  0  0  0  0  0
    1.3105   52.6439   28.6911 C   0  0  0  0  0  0
    1.6011   52.9336   27.3565 C   0  0  0  0  0  0
    2.8889   53.4023   27.0757 C   0  0  0  0  0  0
    3.3703   53.7208   25.8415 O   0  0  0  0  0  0
   -0.4237   52.0060   29.1532 Br  0  0  0  0  0  0
    6.3552   54.4468   28.0101 C   0  0  0  0  0  0
    7.1847   55.5102   19.0783 C   0  0  0  0  0  0
    6.6691   54.5205   18.0257 C   0  0  0  0  0  0
    5.3560   53.9263   18.5572 C   0  0  0  0  0  0
   -0.1183   54.7012   15.0226 H   0  0  0  0  0  0
   -0.6561   53.0737   15.4344 H   0  0  0  0  0  0
    1.0477   53.5091   15.5741 H   0  0  0  0  0  0
    0.4746   55.1201   17.4500 H   0  0  0  0  0  0
   -1.2160   54.7523   17.2362 H   0  0  0  0  0  0
    1.4735   52.1462   17.4190 H   0  0  0  0  0  0
    1.8725   53.4978   18.4812 H   0  0  0  0  0  0
    0.7740   52.3390   20.3937 H   0  0  0  0  0  0
    0.3244   51.0128   19.3607 H   0  0  0  0  0  0
    2.3112   50.3549   20.6678 H   0  0  0  0  0  0
    2.7302   50.4670   18.9723 H   0  0  0  0  0  0
    4.2654   51.9822   19.3994 H   0  0  0  0  0  0
    4.0509   53.5371   23.7595 H   0  0  0  0  0  0
    4.2926   53.4045   30.1765 H   0  0  0  0  0  0
    2.0037   52.5678   30.7126 H   0  0  0  0  0  0
    0.8679   52.7953   26.5744 H   0  0  0  0  0  0
    6.3024   54.4960   29.0976 H   0  0  0  0  0  0
    7.1304   53.7209   27.7602 H   0  0  0  0  0  0
    6.7044   55.4231   27.6781 H   0  0  0  0  0  0
    6.9064   56.5378   18.8360 H   0  0  0  0  0  0
    8.2722   55.4680   19.1476 H   0  0  0  0  0  0
    6.5397   54.9867   17.0462 H   0  0  0  0  0  0
    7.3999   53.7181   17.8992 H   0  0  0  0  0  0
    5.2500   52.8911   18.2317 H   0  0  0  0  0  0
    4.5003   54.4831   18.1731 H   0  0  0  0  0  0
  1  2  1  0  0  0
  1 32  1  0  0  0
  1 33  1  0  0  0
  1 34  1  0  0  0
  2  3  1  0  0  0
  2 35  1  0  0  0
  2 36  1  0  0  0
  3  4  1  0  0  0
  4  5  1  0  0  0
  4 37  1  0  0  0
  4 38  1  0  0  0
  5  6  1  0  0  0
  5 39  1  0  0  0
  5 40  1  0  0  0
  6  7  1  0  0  0
  6 41  1  0  0  0
  6 42  1  0  0  0
  7  8  1  0  0  0
  7 43  1  0  0  0
  8  9  2  0  0  0
  8 10  1  0  0  0
 10 14  2  0  0  0
 10 11  1  0  0  0
 11 31  1  0  0  0
 11 12  2  0  0  0
 12 13  1  0  0  0
 12 29  1  0  0  0
 13 14  1  0  0  0
 14 15  1  0  0  0
 15 16  1  0  0  0
 15 44  1  0  0  0
 16 17  2  0  0  0
 16 18  1  0  0  0
 18 26  1  0  0  0
 18 19  2  0  0  0
 19 20  1  0  0  0
 19 28  1  0  0  0
 20 25  2  0  0  0
 20 21  1  0  0  0
 21 22  2  0  0  0
 21 45  1  0  0  0
 22 23  1  0  0  0
 22 46  1  0  0  0
 23 24  2  0  0  0
 23 27  1  0  0  0
 24 25  1  0  0  0
 24 47  1  0  0  0
 25 26  1  0  0  0
 28 48  1  0  0  0
 28 49  1  0  0  0
 28 50  1  0  0  0
 29 30  1  0  0  0
 29 51  1  0  0  0
 29 52  1  0  0  0
 30 31  1  0  0  0
 30 53  1  0  0  0
 30 54  1  0  0  0
 31 55  1  0  0  0
 31 56  1  0  0  0
M  END
> <i_i_glide_confnum>
179

> <i_i_glide_lignum>
2989

> <i_i_glide_posenum>
213

> <i_i_glide_rotatable_bonds>
10

> <i_m_Source_File_Index>
2830

> <b_m_subgroup_collapsed>
0

> <r_i_docking_score>
-5.17311

> <r_i_glide_ecoul>
-3.2861

> <r_i_glide_eff_state_penalty>
0

> <r_i_glide_einternal>
3.87405

> <r_i_glide_emodel>
-64.6716

> <r_i_glide_energy>
-50.5452

> <r_i_glide_erotb>
0.720594

> <r_i_glide_esite>
-0.0451566

> <r_i_glide_evdw>
-47.2591

> <r_i_glide_gscore>
-5.17311

> <r_i_glide_hbond>
-0.0276941

> <r_i_glide_ligand_efficiency>
-0.166874

> <r_i_glide_ligand_efficiency_ln>
-1.16669

> <r_i_glide_ligand_efficiency_sa>
-0.524216

> <r_i_glide_lipo>
-2.45502

> <r_i_glide_metal>
0

> <r_i_glide_rewards>
-0.509964

> <s_i_glide_gridfile>
wee1_glide-grid

> <s_m_Source_File>
wee1_decoys_glide_SP.sdf

> <s_m_Source_Path>
/Users/zhangxujun/Desktop

> <s_m_entry_id>
3105

> <s_m_entry_name>
wee1_decoys_glide_SP.2830

> <s_m_subgroup_title>
wee1_decoys_glide_SP

> <s_m_subgroupid>
wee1_decoys_glide_SP


$$$$
