ZINC09576567_3812
                    3D
 Schrodinger Suite 2024-2.
 46 48  0  0  1  0            999 V2000
    1.9044   50.8209   17.2286 C   0  0  0  0  0  0
    2.2866   51.5325   18.5131 C   0  0  0  0  0  0
    1.7831   51.0859   19.7339 C   0  0  0  0  0  0
    2.1267   51.7419   20.9137 C   0  0  0  0  0  0
    2.9970   52.8366   20.8940 C   0  0  0  0  0  0
    3.5044   53.2966   19.6586 C   0  0  0  0  0  0
    3.1495   52.6299   18.4838 C   0  0  0  0  0  0
    4.5750   54.8691   19.4775 Br  0  0  0  0  0  0
    3.2065   53.4612   22.1318 N   0  0  0  0  0  0
    4.3996   53.6967   22.7077 C   0  0  0  0  0  0
    5.4839   53.6207   22.1303 O   0  0  0  0  0  0
    4.3300   53.9565   24.1290 C   0  0  0  0  0  0
    5.3566   54.1982   25.0490 C   0  0  0  0  0  0
    4.7385   54.1853   26.3154 C   0  0  0  0  0  0
    3.3788   54.0093   26.0972 C   0  0  0  0  0  0
    3.1283   53.8761   24.7730 O   0  0  0  0  0  0
    2.2670   53.9495   27.1455 C   0  0  0  0  0  0
    2.8869   53.7457   28.5660 C   0  0  0  0  0  0
    4.1400   54.6684   28.6979 C   0  0  0  0  0  0
    5.3044   54.3109   27.7234 C   0  0  2  0  0  0
    5.7970   53.3855   28.0243 H   0  0  0  0  0  0
    6.3044   55.2967   27.6817 O   0  0  0  0  0  0
    1.8293   54.1943   29.5992 C   0  0  0  0  0  0
    3.2917   52.2789   28.7886 C   0  0  0  0  0  0
    6.8442   54.3183   24.7733 C   0  0  0  0  0  0
    1.9043   49.7406   17.3797 H   0  0  0  0  0  0
    2.6243   51.0197   16.4333 H   0  0  0  0  0  0
    0.9102   51.1217   16.8991 H   0  0  0  0  0  0
    1.1192   50.2348   19.7689 H   0  0  0  0  0  0
    1.7132   51.3860   21.8465 H   0  0  0  0  0  0
    3.5390   52.9808   17.5396 H   0  0  0  0  0  0
    2.4160   53.4701   22.7570 H   0  0  0  0  0  0
    1.7347   54.8967   27.1362 H   0  0  0  0  0  0
    1.5447   53.1629   26.9234 H   0  0  0  0  0  0
    3.8230   55.6967   28.5579 H   0  0  0  0  0  0
    4.5303   54.6177   29.7153 H   0  0  0  0  0  0
    6.6785   55.4404   28.5635 H   0  0  0  0  0  0
    2.1490   53.9717   30.6141 H   0  0  0  0  0  0
    1.6221   55.2642   29.5430 H   0  0  0  0  0  0
    0.8832   53.6715   29.4497 H   0  0  0  0  0  0
    3.6939   52.1172   29.7892 H   0  0  0  0  0  0
    2.4501   51.5983   28.6527 H   0  0  0  0  0  0
    4.0610   52.0030   28.0817 H   0  0  0  0  0  0
    7.4471   54.0972   25.6511 H   0  0  0  0  0  0
    7.1819   53.6180   24.0103 H   0  0  0  0  0  0
    7.1061   55.3142   24.4161 H   0  0  0  0  0  0
  1  2  1  0  0  0
  1 26  1  0  0  0
  1 27  1  0  0  0
  1 28  1  0  0  0
  2  7  2  0  0  0
  2  3  1  0  0  0
  3  4  2  0  0  0
  3 29  1  0  0  0
  4  5  1  0  0  0
  4 30  1  0  0  0
  5  6  2  0  0  0
  5  9  1  0  0  0
  6  7  1  0  0  0
  6  8  1  0  0  0
  7 31  1  0  0  0
  9 10  1  0  0  0
  9 32  1  0  0  0
 10 11  2  0  0  0
 10 12  1  0  0  0
 12 16  1  0  0  0
 12 13  2  0  0  0
 13 14  1  0  0  0
 13 25  1  0  0  0
 14 20  1  0  0  0
 14 15  2  0  0  0
 15 16  1  0  0  0
 15 17  1  0  0  0
 17 18  1  0  0  0
 17 33  1  0  0  0
 17 34  1  0  0  0
 18 19  1  0  0  0
 18 23  1  0  0  0
 18 24  1  0  0  0
 19 20  1  0  0  0
 19 35  1  0  0  0
 19 36  1  0  0  0
 20 21  1  0  0  0
 20 22  1  0  0  0
 22 37  1  0  0  0
 23 38  1  0  0  0
 23 39  1  0  0  0
 23 40  1  0  0  0
 24 41  1  0  0  0
 24 42  1  0  0  0
 24 43  1  0  0  0
 25 44  1  0  0  0
 25 45  1  0  0  0
 25 46  1  0  0  0
M  END
> <i_i_glide_confnum>
2

> <i_i_glide_lignum>
3813

> <i_i_glide_posenum>
157

> <i_i_glide_rotatable_bonds>
4

> <i_m_Source_File_Index>
2011

> <b_m_subgroup_collapsed>
0

> <r_i_docking_score>
-5.54128

> <r_i_glide_ecoul>
-4.53939

> <r_i_glide_eff_state_penalty>
0

> <r_i_glide_einternal>
9.82315

> <r_i_glide_emodel>
-41.1527

> <r_i_glide_energy>
-31.6444

> <r_i_glide_erotb>
0.380597

> <r_i_glide_esite>
0

> <r_i_glide_evdw>
-27.105

> <r_i_glide_gscore>
-5.54128

> <r_i_glide_hbond>
-0.314494

> <r_i_glide_ligand_efficiency>
-0.230887

> <r_i_glide_ligand_efficiency_ln>
-1.32628

> <r_i_glide_ligand_efficiency_sa>
-0.665993

> <r_i_glide_lipo>
-2.50974

> <r_i_glide_metal>
0

> <r_i_glide_rewards>
-1.06149

> <s_i_glide_gridfile>
wee1_glide-grid

> <s_m_Source_File>
wee1_decoys_glide_SP.sdf

> <s_m_Source_Path>
/Users/zhangxujun/Desktop

> <s_m_entry_id>
2286

> <s_m_entry_name>
wee1_decoys_glide_SP.2011

> <s_m_subgroup_title>
wee1_decoys_glide_SP

> <s_m_subgroupid>
wee1_decoys_glide_SP


$$$$
