ZINC20744943_6180
                    3D
 Schrodinger Suite 2024-2.
 28 30  0  0  1  0            999 V2000
    5.7383   54.2513   27.4828 C   0  0  0  0  0  0
    4.4815   53.8789   27.9541 C   0  0  0  0  0  0
    3.3737   53.8355   27.0930 C   0  0  0  0  0  0
    3.5618   54.1315   25.7276 C   0  0  0  0  0  0
    4.8245   54.4969   25.2636 C   0  0  0  0  0  0
    5.9025   54.5705   26.1385 C   0  0  0  0  0  0
    7.1045   54.9693   25.6801 F   0  0  0  0  0  0
    2.2707   54.0865   24.5740 Cl  0  0  0  0  0  0
    1.9919   53.5061   27.6758 C   0  0  2  0  0  0
    1.2581   53.6775   26.8926 H   0  0  0  0  0  0
    1.5863   54.4166   28.8250 C   0  0  0  0  0  0
    2.0291   55.7152   29.0438 C   0  0  0  0  0  0
    1.4857   56.1337   30.2161 N   0  0  0  0  0  0
    1.6464   57.0320   30.6537 H   0  0  0  0  0  0
    0.7043   55.2070   30.7590 N   0  0  0  0  0  0
    0.7086   54.1838   29.9266 C   0  0  0  0  0  0
   -0.0954   53.1394   30.2792 N   0  0  0  0  0  0
   -0.3793   52.1102   29.5774 C   0  0  0  0  0  0
    0.1030   51.6967   28.2035 C   0  0  0  0  0  0
    1.9041   51.7420   28.0817 S   0  0  0  0  0  0
   -1.2955   51.2967   30.1806 O   0  0  0  0  0  0
    6.5790   54.3071   28.1598 H   0  0  0  0  0  0
    4.3616   53.6420   29.0013 H   0  0  0  0  0  0
    4.9698   54.7396   24.2212 H   0  0  0  0  0  0
    2.7029   56.3459   28.4856 H   0  0  0  0  0  0
   -0.1914   50.6635   28.0133 H   0  0  0  0  0  0
   -0.3801   52.2889   27.4277 H   0  0  0  0  0  0
   -1.3462   50.4318   29.7606 H   0  0  0  0  0  0
  1  6  2  0  0  0
  1  2  1  0  0  0
  1 22  1  0  0  0
  2  3  2  0  0  0
  2 23  1  0  0  0
  3  4  1  0  0  0
  3  9  1  0  0  0
  4  5  2  0  0  0
  4  8  1  0  0  0
  5  6  1  0  0  0
  5 24  1  0  0  0
  6  7  1  0  0  0
  9 10  1  0  0  0
  9 20  1  0  0  0
  9 11  1  0  0  0
 11 16  1  0  0  0
 11 12  2  0  0  0
 12 13  1  0  0  0
 12 25  1  0  0  0
 13 14  1  0  0  0
 13 15  1  0  0  0
 15 16  2  0  0  0
 16 17  1  0  0  0
 17 18  2  0  0  0
 18 19  1  0  0  0
 18 21  1  0  0  0
 19 20  1  0  0  0
 19 26  1  0  0  0
 19 27  1  0  0  0
 21 28  1  0  0  0
M  END
> <i_i_glide_confnum>
6

> <i_i_glide_lignum>
6181

> <i_i_glide_posenum>
340

> <i_i_glide_rotatable_bonds>
2

> <i_m_Source_File_Index>
3868

> <b_m_subgroup_collapsed>
0

> <r_i_docking_score>
-6.66085

> <r_i_glide_ecoul>
-2.88723

> <r_i_glide_eff_state_penalty>
0

> <r_i_glide_einternal>
0.358942

> <r_i_glide_emodel>
-53.621

> <r_i_glide_energy>
-37.9807

> <r_i_glide_erotb>
0.20689

> <r_i_glide_esite>
-0.0513818

> <r_i_glide_evdw>
-35.0935

> <r_i_glide_gscore>
-6.66085

> <r_i_glide_hbond>
-0.0782407

> <r_i_glide_ligand_efficiency>
-0.350571

> <r_i_glide_ligand_efficiency_ln>
-1.68867

> <r_i_glide_ligand_efficiency_sa>
-0.935465

> <r_i_glide_lipo>
-3.03796

> <r_i_glide_metal>
0

> <r_i_glide_rewards>
-1.5124

> <s_i_glide_gridfile>
wee1_glide-grid

> <s_m_Source_File>
wee1_decoys_glide_SP.sdf

> <s_m_Source_Path>
/Users/zhangxujun/Desktop

> <s_m_entry_id>
4143

> <s_m_entry_name>
wee1_decoys_glide_SP.3868

> <s_m_subgroup_title>
wee1_decoys_glide_SP

> <s_m_subgroupid>
wee1_decoys_glide_SP


$$$$
