ZINC30881648_4985
                    3D
 Schrodinger Suite 2024-2.
 76 79  0  0  1  0            999 V2000
    6.6713   52.9655   16.4873 C   0  0  0  0  0  0
    5.2627   53.5144   16.3408 C   0  0  0  0  0  0
    4.3694   52.9392   15.5118 C   0  0  0  0  0  0
    2.8954   53.3345   15.3409 C   0  0  2  0  0  0
    2.7958   53.6614   14.3058 H   0  0  0  0  0  0
    2.4789   54.5487   16.2612 C   0  0  1  0  0  0
    2.1738   54.1250   17.2165 H   0  0  0  0  0  0
    3.6972   55.4645   16.5624 C   0  0  0  0  0  0
    4.9148   54.7410   17.1800 C   0  0  1  0  0  0
    5.7452   55.4357   17.0502 H   0  0  0  0  0  0
    4.7159   54.3724   18.6892 C   0  0  0  0  0  0
    5.7594   54.9462   19.6766 C   0  0  0  0  0  0
    6.7523   55.5222   19.2253 O   0  0  0  0  0  0
    5.6236   54.7094   21.0114 N   0  0  0  0  0  0
    6.6341   55.2968   21.9239 C   0  0  0  0  0  0
    6.7586   54.4714   23.2262 C   0  0  0  0  0  0
    5.4512   54.1002   23.7961 N   0  0  0  0  0  0
    4.6284   53.3796   22.8051 C   0  0  0  0  0  0
    4.3335   54.2779   21.5894 C   0  0  0  0  0  0
    5.1434   54.1740   25.1960 C   0  0  0  0  0  0
    6.1329   54.3016   26.1879 C   0  0  0  0  0  0
    5.7737   54.3377   27.5388 C   0  0  0  0  0  0
    4.4264   54.2386   27.8915 C   0  0  0  0  0  0
    3.4652   54.0988   26.8878 C   0  0  0  0  0  0
    3.8575   54.0698   25.5979 N   0  3  0  0  0  0
    1.2870   55.4142   15.7094 C   0  0  0  0  0  0
    0.0577   54.6153   15.2268 C   0  0  0  0  0  0
    0.7975   56.4795   16.7167 C   0  0  0  0  0  0
    2.0574   52.0317   15.5191 C   0  0  0  0  0  0
    2.3046   51.2972   16.7638 N   0  0  0  0  0  0
    1.6426   51.4677   17.9156 C   0  0  0  0  0  0
    0.5758   52.0791   18.0105 O   0  0  0  0  0  0
    2.3083   50.9006   18.9372 N   0  0  0  0  0  0
    1.9508   50.9258   20.2941 C   0  0  0  0  0  0
    1.3304   52.0293   20.8957 C   0  0  0  0  0  0
    1.0239   52.0013   22.2539 C   0  0  0  0  0  0
    1.3329   50.8711   23.0045 C   0  0  0  0  0  0
    1.9486   49.7741   22.4093 C   0  0  0  0  0  0
    2.2668   49.8041   21.0559 C   0  0  0  0  0  0
    7.4088   53.7204   16.2181 H   0  0  0  0  0  0
    6.8482   52.6587   17.5176 H   0  0  0  0  0  0
    6.8381   52.0950   15.8549 H   0  0  0  0  0  0
    4.7086   52.0771   14.9560 H   0  0  0  0  0  0
    4.0029   55.9730   15.6446 H   0  0  0  0  0  0
    3.4225   56.2798   17.2292 H   0  0  0  0  0  0
    3.7330   54.7242   18.9971 H   0  0  0  0  0  0
    4.6880   53.2868   18.8118 H   0  0  0  0  0  0
    7.6207   55.2546   21.4575 H   0  0  0  0  0  0
    6.3223   56.3040   22.1882 H   0  0  0  0  0  0
    7.2670   55.1052   23.9498 H   0  0  0  0  0  0
    7.3748   53.5811   23.0989 H   0  0  0  0  0  0
    3.7119   52.9849   23.2455 H   0  0  0  0  0  0
    5.1894   52.5011   22.4843 H   0  0  0  0  0  0
    3.8346   55.1744   21.9620 H   0  0  0  0  0  0
    3.6661   53.7438   20.9133 H   0  0  0  0  0  0
    7.1782   54.3423   25.9280 H   0  0  0  0  0  0
    6.5335   54.4358   28.3043 H   0  0  0  0  0  0
    4.1356   54.2655   28.9309 H   0  0  0  0  0  0
    2.4035   54.0049   27.0678 H   0  0  0  0  0  0
    1.6543   55.9500   14.8344 H   0  0  0  0  0  0
   -0.3478   53.9848   16.0223 H   0  0  0  0  0  0
   -0.7423   55.2774   14.8935 H   0  0  0  0  0  0
    0.2924   53.9852   14.3672 H   0  0  0  0  0  0
    0.5489   56.0278   17.6802 H   0  0  0  0  0  0
    1.5387   57.2587   16.8849 H   0  0  0  0  0  0
   -0.0939   56.9940   16.3598 H   0  0  0  0  0  0
    2.3144   51.3442   14.7123 H   0  0  0  0  0  0
    0.9911   52.1916   15.3918 H   0  0  0  0  0  0
    3.0407   50.5944   16.7347 H   0  0  0  0  0  0
    3.1298   50.3571   18.7003 H   0  0  0  0  0  0
    1.0936   52.9045   20.3161 H   0  0  0  0  0  0
    0.5400   52.8454   22.7197 H   0  0  0  0  0  0
    1.0884   50.8394   24.0559 H   0  0  0  0  0  0
    2.1726   48.8968   22.9927 H   0  0  0  0  0  0
    2.7323   48.9415   20.6010 H   0  0  0  0  0  0
    3.1551   53.9581   24.8798 H   0  0  0  0  0  0
  1  2  1  0  0  0
  1 40  1  0  0  0
  1 41  1  0  0  0
  1 42  1  0  0  0
  2  9  1  0  0  0
  2  3  2  0  0  0
  3  4  1  0  0  0
  3 43  1  0  0  0
  4  5  1  0  0  0
  4  6  1  0  0  0
  4 29  1  0  0  0
  6  7  1  0  0  0
  6  8  1  0  0  0
  6 26  1  0  0  0
  8  9  1  0  0  0
  8 44  1  0  0  0
  8 45  1  0  0  0
  9 10  1  0  0  0
  9 11  1  0  0  0
 11 12  1  0  0  0
 11 46  1  0  0  0
 11 47  1  0  0  0
 12 13  2  0  0  0
 12 14  1  0  0  0
 14 19  1  0  0  0
 14 15  1  0  0  0
 15 16  1  0  0  0
 15 48  1  0  0  0
 15 49  1  0  0  0
 16 17  1  0  0  0
 16 50  1  0  0  0
 16 51  1  0  0  0
 17 18  1  0  0  0
 17 20  1  0  0  0
 18 19  1  0  0  0
 18 52  1  0  0  0
 18 53  1  0  0  0
 19 54  1  0  0  0
 19 55  1  0  0  0
 20 25  2  0  0  0
 20 21  1  0  0  0
 21 22  2  0  0  0
 21 56  1  0  0  0
 22 23  1  0  0  0
 22 57  1  0  0  0
 23 24  2  0  0  0
 23 58  1  0  0  0
 24 25  1  0  0  0
 24 59  1  0  0  0
 25 76  1  0  0  0
 26 27  1  0  0  0
 26 28  1  0  0  0
 26 60  1  0  0  0
 27 61  1  0  0  0
 27 62  1  0  0  0
 27 63  1  0  0  0
 28 64  1  0  0  0
 28 65  1  0  0  0
 28 66  1  0  0  0
 29 30  1  0  0  0
 29 67  1  0  0  0
 29 68  1  0  0  0
 30 31  1  0  0  0
 30 69  1  0  0  0
 31 32  2  0  0  0
 31 33  1  0  0  0
 33 34  1  0  0  0
 33 70  1  0  0  0
 34 39  2  0  0  0
 34 35  1  0  0  0
 35 36  2  0  0  0
 35 71  1  0  0  0
 36 37  1  0  0  0
 36 72  1  0  0  0
 37 38  2  0  0  0
 37 73  1  0  0  0
 38 39  1  0  0  0
 38 74  1  0  0  0
 39 75  1  0  0  0
M  CHG  1  25   1
M  END
> <i_i_glide_confnum>
587

> <i_i_glide_lignum>
4986

> <i_i_glide_posenum>
365

> <i_i_glide_rotatable_bonds>
10

> <i_m_Source_File_Index>
2013

> <b_m_subgroup_collapsed>
0

> <r_i_docking_score>
-5.69325

> <r_i_glide_ecoul>
-4.4067

> <r_i_glide_eff_state_penalty>
0

> <r_i_glide_einternal>
7.95851

> <r_i_glide_emodel>
-56.1332

> <r_i_glide_energy>
-44.1312

> <r_i_glide_erotb>
0.676297

> <r_i_glide_esite>
-0.220065

> <r_i_glide_evdw>
-39.7245

> <r_i_glide_gscore>
-5.69325

> <r_i_glide_hbond>
-0.210939

> <r_i_glide_ligand_efficiency>
-0.158146

> <r_i_glide_ligand_efficiency_ln>
-1.24211

> <r_i_glide_ligand_efficiency_sa>
-0.522186

> <r_i_glide_lipo>
-2.53251

> <r_i_glide_metal>
0

> <r_i_glide_rewards>
-0.75881

> <s_i_glide_gridfile>
wee1_glide-grid

> <s_m_Source_File>
wee1_decoys_glide_SP.sdf

> <s_m_Source_Path>
/Users/zhangxujun/Desktop

> <s_m_entry_id>
2288

> <s_m_entry_name>
wee1_decoys_glide_SP.2013

> <s_m_subgroup_title>
wee1_decoys_glide_SP

> <s_m_subgroupid>
wee1_decoys_glide_SP


$$$$
