ZINC63354680_6069
                    3D
 Schrodinger Suite 2024-2.
 70 75  0  0  1  0            999 V2000
    1.5412   52.5949   23.7260 C   0  0  0  0  0  0
    1.2363   52.0991   25.0263 O   0  0  0  0  0  0
   -0.0783   52.0532   25.4546 C   0  0  0  0  0  0
   -1.1630   52.4325   24.6484 C   0  0  0  0  0  0
   -2.4716   52.3306   25.1112 C   0  0  0  0  0  0
   -2.7414   51.8518   26.3994 C   0  0  0  0  0  0
   -1.6578   51.4982   27.2137 C   0  0  0  0  0  0
   -0.3385   51.5902   26.7548 C   0  0  0  0  0  0
    0.7942   51.1200   27.6677 C   0  0  0  0  0  0
    1.8594   52.0689   27.7390 O   0  0  0  0  0  0
    1.7648   53.1974   28.5323 C   0  0  0  0  0  0
    0.6894   53.4329   29.4067 C   0  0  0  0  0  0
    0.6433   54.5844   30.1857 C   0  0  0  0  0  0
    1.6508   55.5334   30.0817 C   0  0  0  0  0  0
    2.7331   55.3022   29.2397 C   0  0  0  0  0  0
    2.8154   54.1365   28.4661 C   0  0  0  0  0  0
    4.0228   53.9098   27.5341 C   0  0  0  0  0  0
    3.8232   54.5907   26.1579 C   0  0  0  0  0  0
    5.0155   54.3486   25.2085 C   0  0  0  0  0  0
    6.3664   54.7218   25.8493 C   0  0  0  0  0  0
    6.5691   54.0062   27.1989 C   0  0  0  0  0  0
    5.3965   54.2575   28.1693 C   0  0  0  0  0  0
   -4.1732   51.6386   26.9320 C   0  0  2  0  0  0
   -4.0770   51.8308   28.0028 H   0  0  0  0  0  0
   -4.6960   50.1709   26.8165 C   0  0  1  0  0  0
   -5.4437   49.9680   27.5851 H   0  0  0  0  0  0
   -5.2558   49.9383   25.4356 C   0  0  0  0  0  0
   -4.5641   48.9651   24.8243 C   0  0  0  0  0  0
   -4.6390   48.4047   23.4678 C   0  0  0  0  0  0
   -3.7774   47.4445   23.0767 C   0  0  0  0  0  0
   -2.7771   46.9865   24.0345 C   0  0  0  0  0  0
   -2.7148   47.4751   25.3002 C   0  0  0  0  0  0
   -3.6082   48.4700   25.7184 C   0  0  0  0  0  0
   -3.6955   49.0800   26.8807 N   0  3  0  0  0  0
   -6.3679   50.8800   25.0240 C   0  0  0  0  0  0
   -5.8828   52.3347   25.2083 C   0  0  0  0  0  0
   -5.1908   52.6053   26.4819 N   0  0  0  0  0  0
    2.6205   52.5777   23.5774 H   0  0  0  0  0  0
    1.0931   51.9767   22.9471 H   0  0  0  0  0  0
    1.2112   53.6289   23.6060 H   0  0  0  0  0  0
   -1.0095   52.7937   23.6448 H   0  0  0  0  0  0
   -3.2582   52.6127   24.4387 H   0  0  0  0  0  0
   -1.8430   51.1022   28.2036 H   0  0  0  0  0  0
    1.2033   50.2018   27.2461 H   0  0  0  0  0  0
    0.4386   50.8490   28.6610 H   0  0  0  0  0  0
   -0.1281   52.7365   29.5015 H   0  0  0  0  0  0
   -0.1848   54.7494   30.8564 H   0  0  0  0  0  0
    1.6031   56.4388   30.6698 H   0  0  0  0  0  0
    3.5035   56.0531   29.1947 H   0  0  0  0  0  0
    4.0645   52.8341   27.3609 H   0  0  0  0  0  0
    3.6792   55.6664   26.2697 H   0  0  0  0  0  0
    2.9336   54.1857   25.6753 H   0  0  0  0  0  0
    4.8743   54.9033   24.2797 H   0  0  0  0  0  0
    5.0362   53.2989   24.9222 H   0  0  0  0  0  0
    6.4148   55.8029   25.9937 H   0  0  0  0  0  0
    7.1787   54.4708   25.1670 H   0  0  0  0  0  0
    7.5029   54.3335   27.6572 H   0  0  0  0  0  0
    6.6719   52.9335   27.0279 H   0  0  0  0  0  0
    5.5613   53.6338   29.0497 H   0  0  0  0  0  0
    5.4426   55.2964   28.4840 H   0  0  0  0  0  0
   -5.3786   48.7455   22.7567 H   0  0  0  0  0  0
   -3.8275   47.0233   22.0829 H   0  0  0  0  0  0
   -2.0499   46.2509   23.7218 H   0  0  0  0  0  0
   -1.9450   47.1172   25.9736 H   0  0  0  0  0  0
   -7.2524   50.7103   25.6389 H   0  0  0  0  0  0
   -6.6819   50.7200   23.9935 H   0  0  0  0  0  0
   -6.7186   53.0289   25.1138 H   0  0  0  0  0  0
   -5.2504   52.5973   24.3636 H   0  0  0  0  0  0
   -4.8161   53.5439   26.4983 H   0  0  0  0  0  0
   -3.0717   48.8936   27.6754 H   0  0  0  0  0  0
  1  2  1  0  0  0
  1 38  1  0  0  0
  1 39  1  0  0  0
  1 40  1  0  0  0
  2  3  1  0  0  0
  3  8  2  0  0  0
  3  4  1  0  0  0
  4  5  2  0  0  0
  4 41  1  0  0  0
  5  6  1  0  0  0
  5 42  1  0  0  0
  6  7  2  0  0  0
  6 23  1  0  0  0
  7  8  1  0  0  0
  7 43  1  0  0  0
  8  9  1  0  0  0
  9 10  1  0  0  0
  9 44  1  0  0  0
  9 45  1  0  0  0
 10 11  1  0  0  0
 11 16  2  0  0  0
 11 12  1  0  0  0
 12 13  2  0  0  0
 12 46  1  0  0  0
 13 14  1  0  0  0
 13 47  1  0  0  0
 14 15  2  0  0  0
 14 48  1  0  0  0
 15 16  1  0  0  0
 15 49  1  0  0  0
 16 17  1  0  0  0
 17 22  1  0  0  0
 17 18  1  0  0  0
 17 50  1  0  0  0
 18 19  1  0  0  0
 18 51  1  0  0  0
 18 52  1  0  0  0
 19 20  1  0  0  0
 19 53  1  0  0  0
 19 54  1  0  0  0
 20 21  1  0  0  0
 20 55  1  0  0  0
 20 56  1  0  0  0
 21 22  1  0  0  0
 21 57  1  0  0  0
 21 58  1  0  0  0
 22 59  1  0  0  0
 22 60  1  0  0  0
 23 24  1  0  0  0
 23 37  1  0  0  0
 23 25  1  0  0  0
 25 26  1  0  0  0
 25 34  1  0  0  0
 25 27  1  0  0  0
 27 28  2  0  0  0
 27 35  1  0  0  0
 28 33  1  0  0  0
 28 29  1  0  0  0
 29 30  2  0  0  0
 29 61  1  0  0  0
 30 31  1  0  0  0
 30 62  1  0  0  0
 31 32  2  0  0  0
 31 63  1  0  0  0
 32 33  1  0  0  0
 32 64  1  0  0  0
 33 34  2  0  0  0
 34 70  1  0  0  0
 35 36  1  0  0  0
 35 65  1  0  0  0
 35 66  1  0  0  0
 36 37  1  0  0  0
 36 67  1  0  0  0
 36 68  1  0  0  0
 37 69  1  0  0  0
M  CHG  1  34   1
M  END
> <i_i_glide_confnum>
32

> <i_i_glide_lignum>
6070

> <i_i_glide_posenum>
243

> <i_i_glide_rotatable_bonds>
6

> <i_m_Source_File_Index>
2451

> <b_m_subgroup_collapsed>
0

> <r_i_docking_score>
-6.0262

> <r_i_glide_ecoul>
-2.79706

> <r_i_glide_eff_state_penalty>
0

> <r_i_glide_einternal>
2.93355

> <r_i_glide_emodel>
-58.2707

> <r_i_glide_energy>
-42.8799

> <r_i_glide_erotb>
0.461511

> <r_i_glide_esite>
-0.1

> <r_i_glide_evdw>
-40.0829

> <r_i_glide_gscore>
-6.0262

> <r_i_glide_hbond>
-0.2

> <r_i_glide_ligand_efficiency>
-0.172177

> <r_i_glide_ligand_efficiency_ln>
-1.32288

> <r_i_glide_ligand_efficiency_sa>
-0.563203

> <r_i_glide_lipo>
-3.4461

> <r_i_glide_metal>
0

> <r_i_glide_rewards>
-0.31791

> <s_i_glide_gridfile>
wee1_glide-grid

> <s_m_Source_File>
wee1_decoys_glide_SP.sdf

> <s_m_Source_Path>
/Users/zhangxujun/Desktop

> <s_m_entry_id>
2726

> <s_m_entry_name>
wee1_decoys_glide_SP.2451

> <s_m_subgroup_title>
wee1_decoys_glide_SP

> <s_m_subgroupid>
wee1_decoys_glide_SP


$$$$
