ZINC13272892_5791
                    3D
 Schrodinger Suite 2024-2.
 49 51  0  0  1  0            999 V2000
    5.6744   54.8997   25.2856 C   0  0  0  0  0  0
    6.1585   54.7075   26.5764 C   0  0  0  0  0  0
    5.3545   54.1113   27.5440 C   0  0  0  0  0  0
    4.0460   53.6970   27.2355 C   0  0  0  0  0  0
    3.5591   53.8925   25.9298 C   0  0  0  0  0  0
    4.3799   54.4961   24.9641 C   0  0  0  0  0  0
    2.1998   53.4278   25.5815 C   0  0  0  0  0  0
    1.8044   52.9530   24.3782 C   0  0  0  0  0  0
    0.4260   52.5008   24.1263 C   0  0  0  0  0  0
   -0.3913   52.4967   25.0525 O   0  0  0  0  0  0
    0.0207   52.0025   22.7633 C   0  0  0  0  0  0
    0.8303   52.1430   21.6227 C   0  0  0  0  0  0
    0.3962   51.6750   20.3834 C   0  0  0  0  0  0
   -0.8543   51.0688   20.2681 C   0  0  0  0  0  0
   -1.6749   50.9299   21.3856 C   0  0  0  0  0  0
   -1.2388   51.3955   22.6206 C   0  0  0  0  0  0
   -1.4013   50.4703   18.6720 S   0  0  0  0  0  0
   -2.8276   50.1324   18.7642 O   0  0  0  0  0  0
   -0.9248   51.4369   17.6765 O   0  0  0  0  0  0
   -0.4868   48.9716   18.3784 N   0  0  0  0  0  0
   -0.7335   47.7239   18.9754 C   0  0  0  0  0  0
   -1.6952   47.5252   19.9715 C   0  0  0  0  0  0
   -1.8725   46.2647   20.5350 C   0  0  0  0  0  0
   -1.0923   45.1786   20.1194 C   0  0  0  0  0  0
   -0.1349   45.3815   19.1122 C   0  0  0  0  0  0
    0.0440   46.6446   18.5529 C   0  0  0  0  0  0
   -1.2449   43.8332   20.7713 C   0  0  0  0  0  0
   -0.4958   42.8967   20.3974 O   0  0  0  0  0  0
    3.1974   53.0873   28.1483 O   0  0  0  0  0  0
    3.5876   52.9182   29.5073 C   0  0  0  0  0  0
    2.5641   52.3643   30.1522 F   0  0  0  0  0  0
    4.6295   52.0960   29.6277 F   0  0  0  0  0  0
    3.8416   54.0967   30.0817 F   0  0  0  0  0  0
    6.3002   55.3613   24.5347 H   0  0  0  0  0  0
    7.1560   55.0192   26.8402 H   0  0  0  0  0  0
    5.7734   53.9774   28.5289 H   0  0  0  0  0  0
    4.0171   54.6534   23.9580 H   0  0  0  0  0  0
    1.4773   53.5003   26.3869 H   0  0  0  0  0  0
    2.5176   52.8831   23.5725 H   0  0  0  0  0  0
    1.7963   52.6226   21.6517 H   0  0  0  0  0  0
    1.0287   51.7924   19.5141 H   0  0  0  0  0  0
   -2.6493   50.4686   21.3057 H   0  0  0  0  0  0
   -1.8955   51.2692   23.4705 H   0  0  0  0  0  0
    0.3327   49.0549   17.7970 H   0  0  0  0  0  0
   -2.3071   48.3335   20.3327 H   0  0  0  0  0  0
   -2.6145   46.1451   21.3152 H   0  0  0  0  0  0
    0.4886   44.5658   18.7723 H   0  0  0  0  0  0
    0.7988   46.7773   17.7894 H   0  0  0  0  0  0
   -2.0962   43.6976   21.6818 O   0  5  0  0  0  0
  1  6  2  0  0  0
  1  2  1  0  0  0
  1 34  1  0  0  0
  2  3  2  0  0  0
  2 35  1  0  0  0
  3  4  1  0  0  0
  3 36  1  0  0  0
  4  5  2  0  0  0
  4 29  1  0  0  0
  5  6  1  0  0  0
  5  7  1  0  0  0
  6 37  1  0  0  0
  7  8  2  0  0  0
  7 38  1  0  0  0
  8  9  1  0  0  0
  8 39  1  0  0  0
  9 10  2  0  0  0
  9 11  1  0  0  0
 11 16  2  0  0  0
 11 12  1  0  0  0
 12 13  2  0  0  0
 12 40  1  0  0  0
 13 14  1  0  0  0
 13 41  1  0  0  0
 14 15  2  0  0  0
 14 17  1  0  0  0
 15 16  1  0  0  0
 15 42  1  0  0  0
 16 43  1  0  0  0
 17 18  2  0  0  0
 17 19  2  0  0  0
 17 20  1  0  0  0
 20 21  1  0  0  0
 20 44  1  0  0  0
 21 26  2  0  0  0
 21 22  1  0  0  0
 22 23  2  0  0  0
 22 45  1  0  0  0
 23 24  1  0  0  0
 23 46  1  0  0  0
 24 25  2  0  0  0
 24 27  1  0  0  0
 25 26  1  0  0  0
 25 47  1  0  0  0
 26 48  1  0  0  0
 27 28  2  0  0  0
 27 49  1  0  0  0
 29 30  1  0  0  0
 30 31  1  0  0  0
 30 32  1  0  0  0
 30 33  1  0  0  0
M  CHG  1  49  -1
M  END
> <i_i_glide_confnum>
40

> <i_i_glide_lignum>
5792

> <i_i_glide_posenum>
357

> <i_i_glide_rotatable_bonds>
9

> <i_m_Source_File_Index>
4921

> <b_m_subgroup_collapsed>
0

> <r_i_docking_score>
-5.28587

> <r_i_glide_ecoul>
-6.74183

> <r_i_glide_eff_state_penalty>
0

> <r_i_glide_einternal>
2.20387

> <r_i_glide_emodel>
-60.1056

> <r_i_glide_energy>
-40.6605

> <r_i_glide_erotb>
0.59227

> <r_i_glide_esite>
-0.123444

> <r_i_glide_evdw>
-33.9186

> <r_i_glide_gscore>
-5.28587

> <r_i_glide_hbond>
-0.408223

> <r_i_glide_ligand_efficiency>
-0.155467

> <r_i_glide_ligand_efficiency_ln>
-1.1678

> <r_i_glide_ligand_efficiency_sa>
-0.503652

> <r_i_glide_lipo>
-2.28319

> <r_i_glide_metal>
0

> <r_i_glide_rewards>
-0.356076

> <s_i_glide_gridfile>
wee1_glide-grid

> <s_m_Source_File>
wee1_decoys_glide_SP.sdf

> <s_m_Source_Path>
/Users/zhangxujun/Desktop

> <s_m_entry_id>
5196

> <s_m_entry_name>
wee1_decoys_glide_SP.4921

> <s_m_subgroup_title>
wee1_decoys_glide_SP

> <s_m_subgroupid>
wee1_decoys_glide_SP


$$$$
