ZINC61079993_1911
                    3D
 Schrodinger Suite 2024-2.
 36 38  0  0  1  0            999 V2000
    2.8116   52.0967   31.5997 C   0  0  0  0  0  0
    3.5045   52.5549   30.4817 C   0  0  0  0  0  0
    2.6428   53.3305   29.7136 C   0  0  0  0  0  0
    1.4214   53.2687   30.3428 N   0  0  0  0  0  0
    0.5744   53.6856   29.9792 H   0  0  0  0  0  0
    1.4973   52.4967   31.4690 C   0  0  0  0  0  0
    2.8360   54.1163   28.4208 C   0  0  1  0  0  0
    2.3072   55.0676   28.5069 H   0  0  0  0  0  0
    4.3146   54.4101   28.1233 C   0  0  0  0  0  0
    4.3521   54.5253   26.6149 C   0  0  0  0  0  0
    3.4642   53.3666   26.2032 C   0  0  0  0  0  0
    2.3935   53.3974   27.2063 N   0  0  0  0  0  0
    1.1044   53.0023   27.0174 C   0  0  0  0  0  0
    0.2053   53.2965   27.8089 O   0  0  0  0  0  0
    0.7426   52.0703   25.8869 C   0  0  0  0  0  0
    0.2727   50.7960   26.2405 C   0  0  0  0  0  0
   -0.1705   49.8940   25.2765 C   0  0  0  0  0  0
   -0.1157   50.2468   23.9255 C   0  0  0  0  0  0
    0.3245   51.5180   23.5602 C   0  0  0  0  0  0
    0.7169   52.4462   24.5274 C   0  0  0  0  0  0
    1.1045   54.2130   23.9177 Br  0  0  0  0  0  0
   -0.5226   49.3821   22.9649 F   0  0  0  0  0  0
   -0.7021   48.6691   25.6816 N   0  0  0  0  0  0
    3.2117   51.4844   32.3955 H   0  0  0  0  0  0
    4.5382   52.3453   30.2569 H   0  0  0  0  0  0
    0.6236   52.3231   32.0817 H   0  0  0  0  0  0
    4.9653   53.5861   28.4208 H   0  0  0  0  0  0
    4.6762   55.2967   28.6338 H   0  0  0  0  0  0
    5.3576   54.4467   26.1997 H   0  0  0  0  0  0
    3.9273   55.4678   26.2678 H   0  0  0  0  0  0
    4.0778   52.4967   26.3821 H   0  0  0  0  0  0
    3.1727   53.4480   25.1622 H   0  0  0  0  0  0
    0.2184   50.5071   27.2819 H   0  0  0  0  0  0
    0.3214   51.7987   22.5173 H   0  0  0  0  0  0
   -1.0517   48.0312   24.9848 H   0  0  0  0  0  0
   -0.8908   48.4967   26.6743 H   0  0  0  0  0  0
  1  6  2  0  0  0
  1  2  1  0  0  0
  1 24  1  0  0  0
  2  3  2  0  0  0
  2 25  1  0  0  0
  3  4  1  0  0  0
  3  7  1  0  0  0
  4  5  1  0  0  0
  4  6  1  0  0  0
  6 26  1  0  0  0
  7  8  1  0  0  0
  7 12  1  0  0  0
  7  9  1  0  0  0
  9 10  1  0  0  0
  9 27  1  0  0  0
  9 28  1  0  0  0
 10 11  1  0  0  0
 10 29  1  0  0  0
 10 30  1  0  0  0
 11 12  1  0  0  0
 11 31  1  0  0  0
 11 32  1  0  0  0
 12 13  1  0  0  0
 13 14  2  0  0  0
 13 15  1  0  0  0
 15 20  2  0  0  0
 15 16  1  0  0  0
 16 17  2  0  0  0
 16 33  1  0  0  0
 17 18  1  0  0  0
 17 23  1  0  0  0
 18 19  2  0  0  0
 18 22  1  0  0  0
 19 20  1  0  0  0
 19 34  1  0  0  0
 20 21  1  0  0  0
 23 35  1  0  0  0
 23 36  1  0  0  0
M  END
> <i_i_glide_confnum>
7

> <i_i_glide_lignum>
1912

> <i_i_glide_posenum>
378

> <i_i_glide_rotatable_bonds>
3

> <i_m_Source_File_Index>
3217

> <b_m_subgroup_collapsed>
0

> <r_i_docking_score>
-4.99211

> <r_i_glide_ecoul>
-6.8015

> <r_i_glide_eff_state_penalty>
0

> <r_i_glide_einternal>
5.28916

> <r_i_glide_emodel>
-41.0327

> <r_i_glide_energy>
-32.5586

> <r_i_glide_erotb>
0.461492

> <r_i_glide_esite>
-0.1

> <r_i_glide_evdw>
-25.7571

> <r_i_glide_gscore>
-4.99211

> <r_i_glide_hbond>
-0.16

> <r_i_glide_ligand_efficiency>
-0.23772

> <r_i_glide_ligand_efficiency_ln>
-1.23429

> <r_i_glide_ligand_efficiency_sa>
-0.655851

> <r_i_glide_lipo>
-1.42357

> <r_i_glide_metal>
0

> <r_i_glide_rewards>
-1.46196

> <s_i_glide_gridfile>
wee1_glide-grid

> <s_m_Source_File>
wee1_decoys_glide_SP.sdf

> <s_m_Source_Path>
/Users/zhangxujun/Desktop

> <s_m_entry_id>
3492

> <s_m_entry_name>
wee1_decoys_glide_SP.3217

> <s_m_subgroup_title>
wee1_decoys_glide_SP

> <s_m_subgroupid>
wee1_decoys_glide_SP


$$$$
