ZINC00713530_2285
                    3D
 Schrodinger Suite 2024-2.
 56 59  0  0  1  0            999 V2000
    0.7282   53.2996   17.6847 C   0  0  0  0  0  0
    1.8458   52.4253   17.0688 C   0  0  0  0  0  0
    3.2443   53.0962   17.1679 C   0  0  0  0  0  0
    3.7454   53.2291   18.6301 C   0  0  0  0  0  0
    3.3261   52.3574   19.6030 C   0  0  0  0  0  0
    3.8034   52.4766   21.0792 C   0  0  1  0  0  0
    4.2927   51.5326   21.3345 H   0  0  0  0  0  0
    4.8788   53.5586   21.2174 C   0  0  0  0  0  0
    5.1851   54.4110   20.2175 C   0  0  0  0  0  0
    4.6114   54.2969   18.9424 N   0  0  0  0  0  0
    4.9511   55.2408   17.9335 C   0  0  0  0  0  0
    4.0403   56.2764   17.6826 C   0  0  0  0  0  0
    4.3309   57.2906   16.7743 C   0  0  0  0  0  0
    5.5407   57.2709   16.0860 C   0  0  0  0  0  0
    6.4506   56.2360   16.3057 C   0  0  0  0  0  0
    6.1795   55.2125   17.2272 C   0  0  0  0  0  0
    7.2280   54.1016   17.4107 C   0  0  0  0  0  0
    6.7032   52.9364   17.7813 F   0  0  0  0  0  0
    7.9174   53.8951   16.2861 F   0  0  0  0  0  0
    8.0887   54.4932   18.3517 F   0  0  0  0  0  0
    6.1060   55.4254   20.4008 N   0  0  0  0  0  0
    5.5018   53.7152   22.4970 C   0  0  0  0  0  0
    6.0135   53.8983   23.5171 N   0  0  0  0  0  0
    2.6933   52.5817   22.1490 C   0  0  0  0  0  0
    2.3105   53.8294   22.6549 C   0  0  0  0  0  0
    1.3710   53.9279   23.6750 C   0  0  0  0  0  0
    0.7701   52.7812   24.1890 C   0  0  0  0  0  0
    1.1181   51.5172   23.6977 C   0  0  0  0  0  0
    2.0899   51.4354   22.6891 C   0  0  0  0  0  0
    0.4925   50.2897   24.2450 N   0  3  0  0  0  0
   -0.2082   50.3903   25.2493 O   0  0  0  0  0  0
    0.6888   49.2260   23.6679 O   0  5  0  0  0  0
    2.4726   51.1845   19.2558 C   0  0  0  0  0  0
    2.3448   50.2168   20.0014 O   0  0  0  0  0  0
    1.9431   51.0844   17.8188 C   0  0  0  0  0  0
    1.5764   52.1052   15.5849 C   0  0  0  0  0  0
   -0.2558   52.8656   17.5016 H   0  0  0  0  0  0
    0.8262   53.4126   18.7626 H   0  0  0  0  0  0
    0.7265   54.2992   17.2494 H   0  0  0  0  0  0
    3.0872   54.0600   16.6939 H   0  0  0  0  0  0
    4.0219   52.5687   16.6105 H   0  0  0  0  0  0
    3.1046   56.2921   18.2142 H   0  0  0  0  0  0
    3.6269   58.0932   16.6074 H   0  0  0  0  0  0
    5.7724   58.0606   15.3856 H   0  0  0  0  0  0
    7.3803   56.2425   15.7553 H   0  0  0  0  0  0
    6.5648   55.5452   21.2919 H   0  0  0  0  0  0
    6.5132   55.8950   19.6020 H   0  0  0  0  0  0
    2.7476   54.7344   22.2595 H   0  0  0  0  0  0
    1.1056   54.8968   24.0657 H   0  0  0  0  0  0
    0.0346   52.8851   24.9758 H   0  0  0  0  0  0
    2.4016   50.4592   22.3501 H   0  0  0  0  0  0
    1.0188   50.5079   17.7986 H   0  0  0  0  0  0
    2.7037   50.4960   17.3086 H   0  0  0  0  0  0
    0.6295   51.5766   15.4558 H   0  0  0  0  0  0
    1.5233   53.0168   14.9879 H   0  0  0  0  0  0
    2.3605   51.4764   15.1524 H   0  0  0  0  0  0
  1  2  1  0  0  0
  1 37  1  0  0  0
  1 38  1  0  0  0
  1 39  1  0  0  0
  2 35  1  0  0  0
  2  3  1  0  0  0
  2 36  1  0  0  0
  3  4  1  0  0  0
  3 40  1  0  0  0
  3 41  1  0  0  0
  4 10  1  0  0  0
  4  5  2  0  0  0
  5  6  1  0  0  0
  5 33  1  0  0  0
  6  7  1  0  0  0
  6  8  1  0  0  0
  6 24  1  0  0  0
  8  9  2  0  0  0
  8 22  1  0  0  0
  9 10  1  0  0  0
  9 21  1  0  0  0
 10 11  1  0  0  0
 11 16  2  0  0  0
 11 12  1  0  0  0
 12 13  2  0  0  0
 12 42  1  0  0  0
 13 14  1  0  0  0
 13 43  1  0  0  0
 14 15  2  0  0  0
 14 44  1  0  0  0
 15 16  1  0  0  0
 15 45  1  0  0  0
 16 17  1  0  0  0
 17 18  1  0  0  0
 17 19  1  0  0  0
 17 20  1  0  0  0
 21 46  1  0  0  0
 21 47  1  0  0  0
 22 23  3  0  0  0
 24 29  2  0  0  0
 24 25  1  0  0  0
 25 26  2  0  0  0
 25 48  1  0  0  0
 26 27  1  0  0  0
 26 49  1  0  0  0
 27 28  2  0  0  0
 27 50  1  0  0  0
 28 29  1  0  0  0
 28 30  1  0  0  0
 29 51  1  0  0  0
 30 31  2  0  0  0
 30 32  1  0  0  0
 33 34  2  0  0  0
 33 35  1  0  0  0
 35 52  1  0  0  0
 35 53  1  0  0  0
 36 54  1  0  0  0
 36 55  1  0  0  0
 36 56  1  0  0  0
M  CHG  2  30   1  32  -1
M  END
> <i_i_glide_confnum>
8

> <i_i_glide_lignum>
2286

> <i_i_glide_posenum>
142

> <i_i_glide_rotatable_bonds>
5

> <i_m_Source_File_Index>
5602

> <b_m_subgroup_collapsed>
0

> <r_i_docking_score>
-3.53549

> <r_i_glide_ecoul>
-0.116648

> <r_i_glide_eff_state_penalty>
0

> <r_i_glide_einternal>
5.92415

> <r_i_glide_emodel>
-41.5461

> <r_i_glide_energy>
-35.6892

> <r_i_glide_erotb>
0.174372

> <r_i_glide_esite>
-0.16495

> <r_i_glide_evdw>
-35.5726

> <r_i_glide_gscore>
-3.53549

> <r_i_glide_hbond>
0

> <r_i_glide_ligand_efficiency>
-0.101014

> <r_i_glide_ligand_efficiency_ln>
-0.776118

> <r_i_glide_ligand_efficiency_sa>
-0.330423

> <r_i_glide_lipo>
-1.08494

> <r_i_glide_metal>
0

> <r_i_glide_rewards>
-0.663839

> <s_i_glide_gridfile>
wee1_glide-grid

> <s_m_Source_File>
wee1_decoys_glide_SP.sdf

> <s_m_Source_Path>
/Users/zhangxujun/Desktop

> <s_m_entry_id>
5877

> <s_m_entry_name>
wee1_decoys_glide_SP.5602

> <s_m_subgroup_title>
wee1_decoys_glide_SP

> <s_m_subgroupid>
wee1_decoys_glide_SP


$$$$
