ZINC67426712_254
                    3D
 Schrodinger Suite 2024-2.
 60 62  0  0  1  0            999 V2000
    0.5380   52.6501   31.4747 C   0  0  0  0  0  0
    0.7653   52.5688   29.9774 C   0  0  0  0  0  0
   -0.2505   52.1058   29.1433 C   0  0  0  0  0  0
   -0.0694   52.0957   27.7630 C   0  0  0  0  0  0
    1.1286   52.5436   27.1960 C   0  0  0  0  0  0
    2.1778   52.9776   28.0326 C   0  0  0  0  0  0
    1.9759   52.9892   29.4248 C   0  0  0  0  0  0
    3.3923   53.3583   27.4200 N   0  0  0  0  0  0
    4.5065   53.9230   27.9517 C   0  0  0  0  0  0
    4.6355   54.2646   29.1297 O   0  0  0  0  0  0
    5.6368   54.0880   26.9891 C   0  0  0  0  0  0
    6.8097   54.0234   27.3657 O   0  0  0  0  0  0
    5.2999   54.3504   25.7010 N   0  0  0  0  0  0
    6.2706   54.6302   24.6311 C   0  0  2  0  0  0
    7.0605   53.8789   24.7229 H   0  0  0  0  0  0
    6.9122   56.0142   24.8586 C   0  0  0  0  0  0
    5.7356   54.4437   23.1953 C   0  0  0  0  0  0
    6.4327   54.9947   22.1113 C   0  0  0  0  0  0
    5.9447   54.8720   20.8130 C   0  0  0  0  0  0
    4.7762   54.1494   20.5544 C   0  0  0  0  0  0
    4.0746   53.6019   21.6357 C   0  0  0  0  0  0
    4.5446   53.7513   22.9388 C   0  0  0  0  0  0
    4.3463   53.9798   19.2413 N   0  0  0  0  0  0
    3.5480   52.8071   18.8365 C   0  0  0  0  0  0
    3.6371   52.4496   17.3382 C   0  0  0  0  0  0
    3.2956   53.6925   16.4977 N   0  3  0  0  0  0
    4.2840   54.8211   16.8457 C   0  0  0  0  0  0
    4.1720   55.1430   18.3501 C   0  0  0  0  0  0
    3.3669   53.3510   14.9938 C   0  0  0  0  0  0
    1.2484   52.5517   25.6733 C   0  0  0  0  0  0
    1.1055   53.4583   31.9277 H   0  0  0  0  0  0
   -0.4999   52.8968   31.6825 H   0  0  0  0  0  0
    0.7813   51.7110   31.9732 H   0  0  0  0  0  0
   -1.1852   51.7593   29.5624 H   0  0  0  0  0  0
   -0.8749   51.7412   27.1355 H   0  0  0  0  0  0
    2.7465   53.3105   30.1040 H   0  0  0  0  0  0
    3.4416   53.1125   26.4449 H   0  0  0  0  0  0
    4.3291   54.4575   25.4532 H   0  0  0  0  0  0
    7.8692   56.1003   24.3512 H   0  0  0  0  0  0
    6.2638   56.8054   24.4895 H   0  0  0  0  0  0
    7.1042   56.2152   25.9106 H   0  0  0  0  0  0
    7.3624   55.5245   22.2605 H   0  0  0  0  0  0
    6.5133   55.2968   19.9987 H   0  0  0  0  0  0
    3.1564   53.0574   21.4721 H   0  0  0  0  0  0
    3.9733   53.3111   23.7414 H   0  0  0  0  0  0
    3.8046   51.9318   19.4366 H   0  0  0  0  0  0
    2.5130   53.0774   19.0562 H   0  0  0  0  0  0
    2.8994   51.6845   17.0881 H   0  0  0  0  0  0
    4.6294   52.0991   17.0458 H   0  0  0  0  0  0
    3.9749   55.6845   16.2532 H   0  0  0  0  0  0
    5.2884   54.5045   16.5557 H   0  0  0  0  0  0
    3.1517   55.4876   18.5267 H   0  0  0  0  0  0
    4.8328   55.9684   18.6170 H   0  0  0  0  0  0
    4.3815   53.0220   14.7610 H   0  0  0  0  0  0
    2.6426   52.5569   14.8040 H   0  0  0  0  0  0
    3.1040   54.2529   14.4381 H   0  0  0  0  0  0
    1.2312   53.5758   25.2993 H   0  0  0  0  0  0
    2.1814   52.0974   25.3446 H   0  0  0  0  0  0
    0.4416   51.9932   25.1971 H   0  0  0  0  0  0
    2.3587   53.9933   16.7327 H   0  0  0  0  0  0
  1  2  1  0  0  0
  1 31  1  0  0  0
  1 32  1  0  0  0
  1 33  1  0  0  0
  2  7  2  0  0  0
  2  3  1  0  0  0
  3  4  2  0  0  0
  3 34  1  0  0  0
  4  5  1  0  0  0
  4 35  1  0  0  0
  5  6  2  0  0  0
  5 30  1  0  0  0
  6  7  1  0  0  0
  6  8  1  0  0  0
  7 36  1  0  0  0
  8  9  1  0  0  0
  8 37  1  0  0  0
  9 10  2  0  0  0
  9 11  1  0  0  0
 11 12  2  0  0  0
 11 13  1  0  0  0
 13 14  1  0  0  0
 13 38  1  0  0  0
 14 15  1  0  0  0
 14 16  1  0  0  0
 14 17  1  0  0  0
 16 39  1  0  0  0
 16 40  1  0  0  0
 16 41  1  0  0  0
 17 22  2  0  0  0
 17 18  1  0  0  0
 18 19  2  0  0  0
 18 42  1  0  0  0
 19 20  1  0  0  0
 19 43  1  0  0  0
 20 21  2  0  0  0
 20 23  1  0  0  0
 21 22  1  0  0  0
 21 44  1  0  0  0
 22 45  1  0  0  0
 23 28  1  0  0  0
 23 24  1  0  0  0
 24 25  1  0  0  0
 24 46  1  0  0  0
 24 47  1  0  0  0
 25 26  1  0  0  0
 25 48  1  0  0  0
 25 49  1  0  0  0
 26 27  1  0  0  0
 26 29  1  0  0  0
 26 60  1  0  0  0
 27 28  1  0  0  0
 27 50  1  0  0  0
 27 51  1  0  0  0
 28 52  1  0  0  0
 28 53  1  0  0  0
 29 54  1  0  0  0
 29 55  1  0  0  0
 29 56  1  0  0  0
 30 57  1  0  0  0
 30 58  1  0  0  0
 30 59  1  0  0  0
M  CHG  1  26   1
M  END
> <i_i_glide_confnum>
197

> <i_i_glide_lignum>
255

> <i_i_glide_posenum>
394

> <i_i_glide_rotatable_bonds>
7

> <i_m_Source_File_Index>
4332

> <b_m_subgroup_collapsed>
0

> <r_i_docking_score>
-5.57124

> <r_i_glide_ecoul>
-3.62635

> <r_i_glide_eff_state_penalty>
0

> <r_i_glide_einternal>
4.45183

> <r_i_glide_emodel>
-62.8365

> <r_i_glide_energy>
-47.2213

> <r_i_glide_erotb>
0.875062

> <r_i_glide_esite>
-0.0198519

> <r_i_glide_evdw>
-43.595

> <r_i_glide_gscore>
-5.57124

> <r_i_glide_hbond>
0

> <r_i_glide_ligand_efficiency>
-0.192112

> <r_i_glide_ligand_efficiency_ln>
-1.27567

> <r_i_glide_ligand_efficiency_sa>
-0.590228

> <r_i_glide_lipo>
-2.17211

> <r_i_glide_metal>
0

> <r_i_glide_rewards>
-1.53064

> <s_i_glide_gridfile>
wee1_glide-grid

> <s_m_Source_File>
wee1_decoys_glide_SP.sdf

> <s_m_Source_Path>
/Users/zhangxujun/Desktop

> <s_m_entry_id>
4607

> <s_m_entry_name>
wee1_decoys_glide_SP.4332

> <s_m_subgroup_title>
wee1_decoys_glide_SP

> <s_m_subgroupid>
wee1_decoys_glide_SP


$$$$
