ZINC59116044_4757
                    3D
 Schrodinger Suite 2024-2.
 33 36  0  0  1  0            999 V2000
    6.4493   54.2390   26.0489 C   0  0  0  0  0  0
    6.7738   54.1840   24.6922 C   0  0  0  0  0  0
    5.7358   54.1571   23.7560 C   0  0  0  0  0  0
    4.3924   54.2378   24.1909 C   0  0  0  0  0  0
    4.0809   54.3784   25.5437 C   0  0  0  0  0  0
    5.1224   54.3050   26.4823 C   0  0  0  0  0  0
    4.8363   54.2737   27.9904 C   0  0  0  0  0  0
    3.5104   53.6612   28.4173 C   0  0  0  0  0  0
    2.7247   52.8920   27.6929 N   0  0  0  0  0  0
    1.6472   52.6773   28.4871 C   0  0  0  0  0  0
    0.4530   51.9919   28.2345 C   0  0  0  0  0  0
   -0.4892   51.9471   29.2600 C   0  0  0  0  0  0
   -0.2366   52.5333   30.5019 C   0  0  0  0  0  0
    0.9392   53.2316   30.7734 C   0  0  0  0  0  0
    1.8646   53.2897   29.7313 C   0  0  0  0  0  0
    3.0750   53.9134   29.6900 O   0  0  0  0  0  0
   -1.6964   51.2981   29.0489 N   0  0  0  0  0  0
    3.3249   54.0962   22.8039 S   0  0  0  0  0  0
    4.7541   54.0199   21.8065 C   0  0  0  0  0  0
    5.9015   54.0569   22.4141 N   0  0  0  0  0  0
    4.6230   53.9210   20.4590 N   0  0  0  0  0  0
    7.2456   54.2010   26.7794 H   0  0  0  0  0  0
    7.8005   54.1149   24.3671 H   0  0  0  0  0  0
    3.0475   54.4688   25.8407 H   0  0  0  0  0  0
    5.6431   53.7487   28.5035 H   0  0  0  0  0  0
    4.8933   55.2963   28.3520 H   0  0  0  0  0  0
    0.2696   51.5236   27.2792 H   0  0  0  0  0  0
   -0.9760   52.4628   31.2814 H   0  0  0  0  0  0
    1.1047   53.7000   31.7307 H   0  0  0  0  0  0
   -1.6839   50.6286   28.2880 H   0  0  0  0  0  0
   -2.1069   50.9293   29.8962 H   0  0  0  0  0  0
    5.4300   53.8456   19.8580 H   0  0  0  0  0  0
    3.7152   53.9146   20.0149 H   0  0  0  0  0  0
  1  6  2  0  0  0
  1  2  1  0  0  0
  1 22  1  0  0  0
  2  3  2  0  0  0
  2 23  1  0  0  0
  3 20  1  0  0  0
  3  4  1  0  0  0
  4  5  2  0  0  0
  4 18  1  0  0  0
  5  6  1  0  0  0
  5 24  1  0  0  0
  6  7  1  0  0  0
  7  8  1  0  0  0
  7 25  1  0  0  0
  7 26  1  0  0  0
  8 16  1  0  0  0
  8  9  2  0  0  0
  9 10  1  0  0  0
 10 15  2  0  0  0
 10 11  1  0  0  0
 11 12  2  0  0  0
 11 27  1  0  0  0
 12 13  1  0  0  0
 12 17  1  0  0  0
 13 14  2  0  0  0
 13 28  1  0  0  0
 14 15  1  0  0  0
 14 29  1  0  0  0
 15 16  1  0  0  0
 17 30  1  0  0  0
 17 31  1  0  0  0
 18 19  1  0  0  0
 19 20  2  0  0  0
 19 21  1  0  0  0
 21 32  1  0  0  0
 21 33  1  0  0  0
M  END
> <i_i_glide_confnum>
1

> <i_i_glide_lignum>
4758

> <i_i_glide_posenum>
297

> <i_i_glide_rotatable_bonds>
2

> <i_m_Source_File_Index>
2023

> <b_m_subgroup_collapsed>
0

> <r_i_docking_score>
-6.73075

> <r_i_glide_ecoul>
-5.29073

> <r_i_glide_eff_state_penalty>
0

> <r_i_glide_einternal>
0.19876

> <r_i_glide_emodel>
-57.3042

> <r_i_glide_energy>
-40.5463

> <r_i_glide_erotb>
0.417174

> <r_i_glide_esite>
-0.0977037

> <r_i_glide_evdw>
-35.2556

> <r_i_glide_gscore>
-6.73075

> <r_i_glide_hbond>
-0.231371

> <r_i_glide_ligand_efficiency>
-0.320512

> <r_i_glide_ligand_efficiency_ln>
-1.66416

> <r_i_glide_ligand_efficiency_sa>
-0.884268

> <r_i_glide_lipo>
-2.78226

> <r_i_glide_metal>
0

> <r_i_glide_rewards>
-1.4802

> <s_i_glide_gridfile>
wee1_glide-grid

> <s_m_Source_File>
wee1_decoys_glide_SP.sdf

> <s_m_Source_Path>
/Users/zhangxujun/Desktop

> <s_m_entry_id>
2298

> <s_m_entry_name>
wee1_decoys_glide_SP.2023

> <s_m_subgroup_title>
wee1_decoys_glide_SP

> <s_m_subgroupid>
wee1_decoys_glide_SP


$$$$
