ZINC22965625_2405
                    3D
 Schrodinger Suite 2024-2.
 51 55  0  0  1  0            999 V2000
    6.8522   54.4986   26.7833 C   0  0  0  0  0  0
    6.8641   54.4842   25.3917 C   0  0  0  0  0  0
    5.6758   54.4073   24.6572 C   0  0  0  0  0  0
    4.4569   54.3844   25.3608 C   0  0  0  0  0  0
    4.4419   54.3838   26.7598 C   0  0  0  0  0  0
    5.6486   54.4594   27.4668 C   0  0  0  0  0  0
    3.1973   54.3236   27.4000 N   0  0  0  0  0  0
    2.9332   53.7538   28.5947 C   0  0  0  0  0  0
    3.7591   53.1292   29.2666 O   0  0  0  0  0  0
    1.4797   53.8676   29.0819 C   0  0  1  0  0  0
    1.0597   54.8150   28.7419 H   0  0  0  0  0  0
    0.6376   52.6734   28.6075 C   0  0  0  0  0  0
   -0.2460   52.3415   29.7949 C   0  0  0  0  0  0
    0.2013   53.2705   30.9212 C   0  0  0  0  0  0
    1.4548   53.7833   30.5034 O   0  0  0  0  0  0
    5.7539   54.3172   23.1485 C   0  0  0  0  0  0
    6.8142   54.5574   22.5723 O   0  0  0  0  0  0
    4.6303   53.9175   22.5168 N   0  0  0  0  0  0
    4.4721   53.7464   21.1465 C   0  0  0  0  0  0
    3.6584   52.8105   20.4906 C   0  0  0  0  0  0
    3.7525   52.9157   19.1786 N   0  0  0  0  0  0
    4.5720   53.9130   18.9575 C   0  0  0  0  0  0
    5.0539   54.4883   20.1173 N   0  0  0  0  0  0
    5.9047   55.5692   19.9067 C   0  0  0  0  0  0
    6.0878   55.8284   18.5631 C   0  0  0  0  0  0
    5.2024   54.7159   17.5315 S   0  0  0  0  0  0
    2.7717   51.7721   21.0975 C   0  0  0  0  0  0
    1.9929   52.0812   22.2183 C   0  0  0  0  0  0
    1.1743   51.1112   22.7903 C   0  0  0  0  0  0
    1.1328   49.8329   22.2398 C   0  0  0  0  0  0
    1.8964   49.5159   21.1202 C   0  0  0  0  0  0
    2.7093   50.4873   20.5437 C   0  0  0  0  0  0
    0.3287   48.8965   22.7903 F   0  0  0  0  0  0
    7.7758   54.5293   27.3423 H   0  0  0  0  0  0
    7.8162   54.4973   24.8817 H   0  0  0  0  0  0
    3.5168   54.3356   24.8325 H   0  0  0  0  0  0
    5.6733   54.4860   28.5468 H   0  0  0  0  0  0
    2.4126   54.6617   26.8663 H   0  0  0  0  0  0
    1.2308   51.7972   28.3396 H   0  0  0  0  0  0
    0.0244   52.9391   27.7450 H   0  0  0  0  0  0
   -0.1327   51.2972   30.0824 H   0  0  0  0  0  0
   -1.2955   52.4943   29.5657 H   0  0  0  0  0  0
    0.2945   52.7601   31.8830 H   0  0  0  0  0  0
   -0.4895   54.1010   31.0682 H   0  0  0  0  0  0
    3.9201   53.5006   23.0958 H   0  0  0  0  0  0
    6.3333   56.1059   20.7399 H   0  0  0  0  0  0
    6.6880   56.6071   18.1128 H   0  0  0  0  0  0
    2.0010   53.0780   22.6334 H   0  0  0  0  0  0
    0.5683   51.3450   23.6516 H   0  0  0  0  0  0
    1.8540   48.5244   20.6947 H   0  0  0  0  0  0
    3.2992   50.2417   19.6696 H   0  0  0  0  0  0
  1  6  2  0  0  0
  1  2  1  0  0  0
  1 34  1  0  0  0
  2  3  2  0  0  0
  2 35  1  0  0  0
  3  4  1  0  0  0
  3 16  1  0  0  0
  4  5  2  0  0  0
  4 36  1  0  0  0
  5  6  1  0  0  0
  5  7  1  0  0  0
  6 37  1  0  0  0
  7  8  1  0  0  0
  7 38  1  0  0  0
  8  9  2  0  0  0
  8 10  1  0  0  0
 10 11  1  0  0  0
 10 15  1  0  0  0
 10 12  1  0  0  0
 12 13  1  0  0  0
 12 39  1  0  0  0
 12 40  1  0  0  0
 13 14  1  0  0  0
 13 41  1  0  0  0
 13 42  1  0  0  0
 14 15  1  0  0  0
 14 43  1  0  0  0
 14 44  1  0  0  0
 16 17  2  0  0  0
 16 18  1  0  0  0
 18 19  1  0  0  0
 18 45  1  0  0  0
 19 23  1  0  0  0
 19 20  2  0  0  0
 20 21  1  0  0  0
 20 27  1  0  0  0
 21 22  2  0  0  0
 22 26  1  0  0  0
 22 23  1  0  0  0
 23 24  1  0  0  0
 24 25  2  0  0  0
 24 46  1  0  0  0
 25 26  1  0  0  0
 25 47  1  0  0  0
 27 32  2  0  0  0
 27 28  1  0  0  0
 28 29  2  0  0  0
 28 48  1  0  0  0
 29 30  1  0  0  0
 29 49  1  0  0  0
 30 31  2  0  0  0
 30 33  1  0  0  0
 31 32  1  0  0  0
 31 50  1  0  0  0
 32 51  1  0  0  0
M  END
> <i_i_glide_confnum>
395

> <i_i_glide_lignum>
2406

> <i_i_glide_posenum>
24

> <i_i_glide_rotatable_bonds>
7

> <i_m_Source_File_Index>
3019

> <b_m_subgroup_collapsed>
0

> <r_i_docking_score>
-5.6327

> <r_i_glide_ecoul>
-1.13131

> <r_i_glide_eff_state_penalty>
0

> <r_i_glide_einternal>
3.14663

> <r_i_glide_emodel>
-70.2359

> <r_i_glide_energy>
-52.2698

> <r_i_glide_erotb>
0.69157

> <r_i_glide_esite>
-0.0170444

> <r_i_glide_evdw>
-51.1384

> <r_i_glide_gscore>
-5.6327

> <r_i_glide_hbond>
-0.138488

> <r_i_glide_ligand_efficiency>
-0.176022

> <r_i_glide_ligand_efficiency_ln>
-1.26132

> <r_i_glide_ligand_efficiency_sa>
-0.558835

> <r_i_glide_lipo>
-2.41442

> <r_i_glide_metal>
0

> <r_i_glide_rewards>
-1.0277

> <s_i_glide_gridfile>
wee1_glide-grid

> <s_m_Source_File>
wee1_decoys_glide_SP.sdf

> <s_m_Source_Path>
/Users/zhangxujun/Desktop

> <s_m_entry_id>
3294

> <s_m_entry_name>
wee1_decoys_glide_SP.3019

> <s_m_subgroup_title>
wee1_decoys_glide_SP

> <s_m_subgroupid>
wee1_decoys_glide_SP


$$$$
