ZINC64794384_4969
                    3D
 Schrodinger Suite 2024-2.
 56 60  0  0  1  0            999 V2000
   -6.9269   52.4736   24.9465 C   0  0  0  0  0  0
   -6.2200   51.3100   25.6164 C   0  0  0  0  0  0
   -6.8437   50.0671   25.7030 C   0  0  0  0  0  0
   -6.1853   48.9934   26.2968 C   0  0  0  0  0  0
   -4.8894   49.1427   26.8005 C   0  0  0  0  0  0
   -4.2431   50.3919   26.7142 C   0  0  0  0  0  0
   -4.9296   51.4712   26.1252 C   0  0  0  0  0  0
   -2.9293   50.4892   27.2280 N   0  0  0  0  0  0
   -2.0210   51.4768   27.1063 C   0  0  0  0  0  0
   -2.1995   52.5233   26.4816 O   0  0  0  0  0  0
   -0.6782   51.1997   27.7951 C   0  0  0  0  0  0
    0.4687   52.6205   27.8763 S   0  0  0  0  0  0
    1.1431   52.6083   26.2345 C   0  0  0  0  0  0
    0.7405   51.8299   25.2603 N   0  0  0  0  0  0
    1.5301   52.1015   24.1535 N   0  0  0  0  0  0
    2.3934   53.0353   24.4828 C   0  0  0  0  0  0
    2.1688   53.4260   25.7967 N   0  0  0  0  0  0
    2.8159   54.4860   26.5755 C   0  0  0  0  0  0
    4.0005   54.0331   27.3868 C   0  0  0  0  0  0
    5.3050   54.4885   27.5149 C   0  0  0  0  0  0
    5.9203   53.6966   28.4780 C   0  0  0  0  0  0
    4.9619   52.7860   28.8816 C   0  0  0  0  0  0
    3.7957   52.9933   28.2306 O   0  0  0  0  0  0
    3.4328   53.5377   23.5338 C   0  0  0  0  0  0
    3.4393   53.4741   22.1399 C   0  0  0  0  0  0
    4.5916   54.0692   21.5337 C   0  0  0  0  0  0
    4.9418   54.2847   20.1860 C   0  0  0  0  0  0
    6.1527   54.9165   19.8974 C   0  0  0  0  0  0
    6.9847   55.2989   20.9484 C   0  0  0  0  0  0
    6.7013   55.0891   22.2590 N   0  0  0  0  0  0
    5.5306   54.4943   22.5116 C   0  0  0  0  0  0
    4.9774   54.1362   24.1293 S   0  0  0  0  0  0
    2.4323   52.8969   21.4123 N   0  0  0  0  0  0
   -4.2106   47.9284   27.4248 C   0  0  0  0  0  0
   -6.2138   53.1667   24.4997 H   0  0  0  0  0  0
   -7.5631   52.1225   24.1331 H   0  0  0  0  0  0
   -7.5449   53.0142   25.6633 H   0  0  0  0  0  0
   -7.8398   49.9292   25.3087 H   0  0  0  0  0  0
   -6.6878   48.0389   26.3573 H   0  0  0  0  0  0
   -4.4850   52.4490   26.0482 H   0  0  0  0  0  0
   -2.5925   49.6436   27.6875 H   0  0  0  0  0  0
   -0.8856   50.9001   28.8233 H   0  0  0  0  0  0
   -0.1878   50.3494   27.3200 H   0  0  0  0  0  0
    3.1047   55.2831   25.8945 H   0  0  0  0  0  0
    2.0700   54.8968   27.2570 H   0  0  0  0  0  0
    5.7546   55.3110   26.9792 H   0  0  0  0  0  0
    6.9377   53.7779   28.8361 H   0  0  0  0  0  0
    4.9622   51.9778   29.5968 H   0  0  0  0  0  0
    4.2817   53.9772   19.3866 H   0  0  0  0  0  0
    6.4465   55.0990   18.8722 H   0  0  0  0  0  0
    7.9350   55.7700   20.7424 H   0  0  0  0  0  0
    1.6522   52.4475   21.8706 H   0  0  0  0  0  0
    2.3672   53.0051   20.4094 H   0  0  0  0  0  0
   -3.2937   47.6916   26.8829 H   0  0  0  0  0  0
   -3.9350   48.1394   28.4597 H   0  0  0  0  0  0
   -4.8473   47.0423   27.4176 H   0  0  0  0  0  0
  1  2  1  0  0  0
  1 35  1  0  0  0
  1 36  1  0  0  0
  1 37  1  0  0  0
  2  7  2  0  0  0
  2  3  1  0  0  0
  3  4  2  0  0  0
  3 38  1  0  0  0
  4  5  1  0  0  0
  4 39  1  0  0  0
  5  6  2  0  0  0
  5 34  1  0  0  0
  6  7  1  0  0  0
  6  8  1  0  0  0
  7 40  1  0  0  0
  8  9  1  0  0  0
  8 41  1  0  0  0
  9 10  2  0  0  0
  9 11  1  0  0  0
 11 12  1  0  0  0
 11 42  1  0  0  0
 11 43  1  0  0  0
 12 13  1  0  0  0
 13 17  1  0  0  0
 13 14  2  0  0  0
 14 15  1  0  0  0
 15 16  2  0  0  0
 16 17  1  0  0  0
 16 24  1  0  0  0
 17 18  1  0  0  0
 18 19  1  0  0  0
 18 44  1  0  0  0
 18 45  1  0  0  0
 19 23  1  0  0  0
 19 20  2  0  0  0
 20 21  1  0  0  0
 20 46  1  0  0  0
 21 22  2  0  0  0
 21 47  1  0  0  0
 22 23  1  0  0  0
 22 48  1  0  0  0
 24 32  1  0  0  0
 24 25  2  0  0  0
 25 26  1  0  0  0
 25 33  1  0  0  0
 26 31  2  0  0  0
 26 27  1  0  0  0
 27 28  2  0  0  0
 27 49  1  0  0  0
 28 29  1  0  0  0
 28 50  1  0  0  0
 29 30  2  0  0  0
 29 51  1  0  0  0
 30 31  1  0  0  0
 31 32  1  0  0  0
 33 52  1  0  0  0
 33 53  1  0  0  0
 34 54  1  0  0  0
 34 55  1  0  0  0
 34 56  1  0  0  0
M  END
> <i_i_glide_confnum>
59

> <i_i_glide_lignum>
4970

> <i_i_glide_posenum>
24

> <i_i_glide_rotatable_bonds>
8

> <i_m_Source_File_Index>
3081

> <b_m_subgroup_collapsed>
0

> <r_i_docking_score>
-5.48271

> <r_i_glide_ecoul>
-5.16859

> <r_i_glide_eff_state_penalty>
0

> <r_i_glide_einternal>
4.282

> <r_i_glide_emodel>
-62.7575

> <r_i_glide_energy>
-45.6829

> <r_i_glide_erotb>
0.676443

> <r_i_glide_esite>
-0.175337

> <r_i_glide_evdw>
-40.5143

> <r_i_glide_gscore>
-5.48271

> <r_i_glide_hbond>
-0.16

> <r_i_glide_ligand_efficiency>
-0.161256

> <r_i_glide_ligand_efficiency_ln>
-1.21129

> <r_i_glide_ligand_efficiency_sa>
-0.522408

> <r_i_glide_lipo>
-2.32576

> <r_i_glide_metal>
0

> <r_i_glide_rewards>
-0.697062

> <s_i_glide_gridfile>
wee1_glide-grid

> <s_m_Source_File>
wee1_decoys_glide_SP.sdf

> <s_m_Source_Path>
/Users/zhangxujun/Desktop

> <s_m_entry_id>
3356

> <s_m_entry_name>
wee1_decoys_glide_SP.3081

> <s_m_subgroup_title>
wee1_decoys_glide_SP

> <s_m_subgroupid>
wee1_decoys_glide_SP


$$$$
