ZINC03770428_461
                    3D
 Schrodinger Suite 2024-2.
 56 59  0  0  1  0            999 V2000
    2.8805   52.8937   19.2922 C   0  0  0  0  0  0
    2.5030   51.8270   20.3037 C   0  0  0  0  0  0
    2.6221   50.4760   19.9672 C   0  0  0  0  0  0
    2.3044   49.4895   20.8990 C   0  0  0  0  0  0
    1.8851   49.8468   22.1782 C   0  0  0  0  0  0
    1.7518   51.1944   22.5269 C   0  0  0  0  0  0
    2.0672   52.1854   21.5832 C   0  0  0  0  0  0
    1.3493   51.4588   23.8409 N   0  0  0  0  0  0
    0.6924   52.5299   24.3318 C   0  0  0  0  0  0
    0.3060   53.4971   23.6824 O   0  0  0  0  0  0
    0.4461   52.4199   25.7533 C   0  0  0  0  0  0
    1.3507   52.8843   26.6583 C   0  0  0  0  0  0
    1.1987   52.8126   28.0260 N   0  0  0  0  0  0
    2.2277   53.3149   28.7867 C   0  0  0  0  0  0
    2.3124   53.3257   30.0196 O   0  0  0  0  0  0
    3.3348   53.9370   27.9315 C   0  0  2  0  0  0
    3.3217   55.0109   28.1243 H   0  0  0  0  0  0
    2.8685   53.6964   26.2246 S   0  0  0  0  0  0
    4.7363   53.3492   28.2841 C   0  0  0  0  0  0
    5.9617   53.9484   27.5662 C   0  0  0  0  0  0
    7.1006   53.6959   27.9623 O   0  0  0  0  0  0
    5.6611   54.7140   26.4955 O   0  0  0  0  0  0
    6.6678   55.2684   25.6700 C   0  0  0  0  0  0
    0.0075   52.2396   28.5117 C   0  0  0  0  0  0
   -0.9947   51.7908   27.7079 C   0  0  0  0  0  0
   -0.9184   51.8395   26.1742 C   0  0  2  0  0  0
   -1.6653   52.5653   25.8463 H   0  0  0  0  0  0
   -1.2801   50.5051   25.5022 C   0  0  0  0  0  0
   -0.4076   49.4107   25.5684 C   0  0  0  0  0  0
   -0.6996   48.2326   24.8816 C   0  0  0  0  0  0
   -1.8779   48.1267   24.1448 C   0  0  0  0  0  0
   -2.7625   49.2027   24.0910 C   0  0  0  0  0  0
   -2.4647   50.3869   24.7638 C   0  0  0  0  0  0
   -3.9063   49.0989   23.3745 F   0  0  0  0  0  0
   -2.2241   51.2844   28.2481 C   0  0  0  0  0  0
   -3.2476   50.9047   28.6375 N   0  0  0  0  0  0
   -0.1471   52.1534   29.8851 N   0  0  0  0  0  0
    1.9874   53.2960   18.8134 H   0  0  0  0  0  0
    3.4092   53.7122   19.7805 H   0  0  0  0  0  0
    3.5476   52.4954   18.5262 H   0  0  0  0  0  0
    2.9728   50.1877   18.9852 H   0  0  0  0  0  0
    2.4106   48.4465   20.6354 H   0  0  0  0  0  0
    1.6579   49.0679   22.8950 H   0  0  0  0  0  0
    1.9915   53.2353   21.8363 H   0  0  0  0  0  0
    1.4756   50.6911   24.4810 H   0  0  0  0  0  0
    4.7426   52.2784   28.0818 H   0  0  0  0  0  0
    4.9210   53.4616   29.3512 H   0  0  0  0  0  0
    6.2294   55.6058   24.7291 H   0  0  0  0  0  0
    7.4497   54.5411   25.4325 H   0  0  0  0  0  0
    7.1091   56.1281   26.1638 H   0  0  0  0  0  0
    0.5049   49.4727   26.1470 H   0  0  0  0  0  0
   -0.0141   47.3991   24.9268 H   0  0  0  0  0  0
   -2.1080   47.2157   23.6171 H   0  0  0  0  0  0
   -3.1566   51.2142   24.6996 H   0  0  0  0  0  0
   -0.9290   51.6663   30.3056 H   0  0  0  0  0  0
    0.5732   52.4975   30.5062 H   0  0  0  0  0  0
  1  2  1  0  0  0
  1 38  1  0  0  0
  1 39  1  0  0  0
  1 40  1  0  0  0
  2  7  2  0  0  0
  2  3  1  0  0  0
  3  4  2  0  0  0
  3 41  1  0  0  0
  4  5  1  0  0  0
  4 42  1  0  0  0
  5  6  2  0  0  0
  5 43  1  0  0  0
  6  7  1  0  0  0
  6  8  1  0  0  0
  7 44  1  0  0  0
  8  9  1  0  0  0
  8 45  1  0  0  0
  9 10  2  0  0  0
  9 11  1  0  0  0
 11 26  1  0  0  0
 11 12  2  0  0  0
 12 18  1  0  0  0
 12 13  1  0  0  0
 13 14  1  0  0  0
 13 24  1  0  0  0
 14 15  2  0  0  0
 14 16  1  0  0  0
 16 17  1  0  0  0
 16 18  1  0  0  0
 16 19  1  0  0  0
 19 20  1  0  0  0
 19 46  1  0  0  0
 19 47  1  0  0  0
 20 21  2  0  0  0
 20 22  1  0  0  0
 22 23  1  0  0  0
 23 48  1  0  0  0
 23 49  1  0  0  0
 23 50  1  0  0  0
 24 25  2  0  0  0
 24 37  1  0  0  0
 25 26  1  0  0  0
 25 35  1  0  0  0
 26 27  1  0  0  0
 26 28  1  0  0  0
 28 33  2  0  0  0
 28 29  1  0  0  0
 29 30  2  0  0  0
 29 51  1  0  0  0
 30 31  1  0  0  0
 30 52  1  0  0  0
 31 32  2  0  0  0
 31 53  1  0  0  0
 32 33  1  0  0  0
 32 34  1  0  0  0
 33 54  1  0  0  0
 35 36  3  0  0  0
 37 55  1  0  0  0
 37 56  1  0  0  0
M  END
> <i_i_glide_confnum>
22

> <i_i_glide_lignum>
462

> <i_i_glide_posenum>
344

> <i_i_glide_rotatable_bonds>
8

> <i_m_Source_File_Index>
3204

> <b_m_subgroup_collapsed>
0

> <r_i_docking_score>
-5.19717

> <r_i_glide_ecoul>
-2.08844

> <r_i_glide_eff_state_penalty>
0

> <r_i_glide_einternal>
5.86996

> <r_i_glide_emodel>
-65.9149

> <r_i_glide_energy>
-52.2912

> <r_i_glide_erotb>
0.503716

> <r_i_glide_esite>
-0.138742

> <r_i_glide_evdw>
-50.2028

> <r_i_glide_gscore>
-5.19717

> <r_i_glide_hbond>
-0.180375

> <r_i_glide_ligand_efficiency>
-0.148491

> <r_i_glide_ligand_efficiency_ln>
-1.14089

> <r_i_glide_ligand_efficiency_sa>
-0.485722

> <r_i_glide_lipo>
-1.45986

> <r_i_glide_metal>
0

> <r_i_glide_rewards>
-1.0985

> <s_i_glide_gridfile>
wee1_glide-grid

> <s_m_Source_File>
wee1_decoys_glide_SP.sdf

> <s_m_Source_Path>
/Users/zhangxujun/Desktop

> <s_m_entry_id>
3479

> <s_m_entry_name>
wee1_decoys_glide_SP.3204

> <s_m_subgroup_title>
wee1_decoys_glide_SP

> <s_m_subgroupid>
wee1_decoys_glide_SP


$$$$
