ZINC39686971_1299
                    3D
 Schrodinger Suite 2024-2.
 69 72  0  0  1  0            999 V2000
    0.4491   51.4722   18.9409 C   0  0  0  0  0  0
    1.1734   50.7804   20.1158 C   0  0  2  0  0  0
    2.2161   50.6680   19.8163 H   0  0  0  0  0  0
    0.6081   49.3711   20.4526 C   0  0  0  0  0  0
    0.7514   48.2763   19.3915 C   0  0  0  0  0  0
    1.8099   48.2734   18.4728 C   0  0  0  0  0  0
    1.9046   47.2726   17.5076 C   0  0  0  0  0  0
    0.9597   46.2500   17.4610 C   0  0  0  0  0  0
   -0.0802   46.2265   18.3889 C   0  0  0  0  0  0
   -0.1843   47.2317   19.3506 C   0  0  0  0  0  0
   -1.1986   47.1806   20.2459 F   0  0  0  0  0  0
    1.2544   51.6130   21.3178 N   0  0  0  0  0  0
    0.2386   52.0966   22.0614 C   0  0  0  0  0  0
   -0.9389   52.0170   21.7127 O   0  0  0  0  0  0
    0.5453   52.7357   23.4439 C   0  0  2  0  0  0
   -0.0337   53.6576   23.5118 H   0  0  0  0  0  0
    2.0231   53.1697   23.5398 C   0  0  0  0  0  0
    2.2968   53.1347   24.9741 N   0  0  0  0  0  0
    1.2397   52.4490   25.7302 C   0  0  0  0  0  0
    0.3112   51.8014   24.6690 C   0  0  0  0  0  0
    0.7142   50.3080   24.3992 C   0  0  0  0  0  0
    0.5167   49.3860   25.6262 C   0  0  0  0  0  0
   -0.9557   49.4751   26.0817 N   0  3  0  0  0  0
   -1.4299   50.9213   26.3417 C   0  0  0  0  0  0
   -1.1874   51.7498   25.0658 C   0  0  0  0  0  0
    3.3717   53.7783   25.4970 C   0  0  0  0  0  0
    4.1466   54.4188   24.7813 O   0  0  0  0  0  0
    3.6789   53.6643   27.0102 C   0  0  1  0  0  0
    3.3355   52.6975   27.3618 H   0  0  0  0  0  0
    5.1890   53.7029   27.3320 C   0  0  0  0  0  0
    3.1041   54.8032   27.6511 O   0  0  0  0  0  0
    2.2178   54.6862   28.7022 C   0  0  0  0  0  0
    1.5956   53.4969   29.1206 C   0  0  0  0  0  0
    0.7262   53.5090   30.2076 C   0  0  0  0  0  0
    0.4884   54.7009   30.8818 C   0  0  0  0  0  0
    1.1044   55.8847   30.4817 C   0  0  0  0  0  0
    1.9512   55.8749   29.3817 C   0  0  0  0  0  0
    0.4611   50.8408   18.0514 H   0  0  0  0  0  0
   -0.6005   51.6622   19.1628 H   0  0  0  0  0  0
    0.9306   52.4154   18.6777 H   0  0  0  0  0  0
    1.0835   48.9890   21.3583 H   0  0  0  0  0  0
   -0.4487   49.4869   20.7008 H   0  0  0  0  0  0
    2.5735   49.0375   18.4803 H   0  0  0  0  0  0
    2.7203   47.2960   16.7987 H   0  0  0  0  0  0
    1.0386   45.4755   16.7126 H   0  0  0  0  0  0
   -0.8112   45.4326   18.3627 H   0  0  0  0  0  0
    2.1923   51.8057   21.6312 H   0  0  0  0  0  0
    2.1734   54.1526   23.0879 H   0  0  0  0  0  0
    2.6976   52.4210   23.1235 H   0  0  0  0  0  0
    1.5554   51.7579   26.5090 H   0  0  0  0  0  0
    0.6754   53.2370   26.2295 H   0  0  0  0  0  0
    0.1493   49.8879   23.5659 H   0  0  0  0  0  0
    1.7578   50.2517   24.0817 H   0  0  0  0  0  0
    0.7040   48.3355   25.3966 H   0  0  0  0  0  0
    1.1044   49.6571   26.5001 H   0  0  0  0  0  0
   -1.5557   49.0369   25.3960 H   0  0  0  0  0  0
   -2.4868   50.8475   26.6057 H   0  0  0  0  0  0
   -0.8764   51.2793   27.2112 H   0  0  0  0  0  0
   -1.5448   52.7634   25.2531 H   0  0  0  0  0  0
   -1.8001   51.3824   24.2402 H   0  0  0  0  0  0
    5.7283   52.8965   26.8346 H   0  0  0  0  0  0
    5.6433   54.6465   27.0240 H   0  0  0  0  0  0
    5.3597   53.5950   28.4037 H   0  0  0  0  0  0
    1.7507   52.5513   28.6323 H   0  0  0  0  0  0
    0.2455   52.5975   30.5371 H   0  0  0  0  0  0
   -0.1688   54.7006   31.7385 H   0  0  0  0  0  0
    0.9231   56.8064   31.0167 H   0  0  0  0  0  0
    2.4233   56.7946   29.0673 H   0  0  0  0  0  0
   -1.0885   48.9422   26.9571 H   0  0  0  0  0  0
  1  2  1  0  0  0
  1 38  1  0  0  0
  1 39  1  0  0  0
  1 40  1  0  0  0
  2  3  1  0  0  0
  2  4  1  0  0  0
  2 12  1  0  0  0
  4  5  1  0  0  0
  4 41  1  0  0  0
  4 42  1  0  0  0
  5 10  2  0  0  0
  5  6  1  0  0  0
  6  7  2  0  0  0
  6 43  1  0  0  0
  7  8  1  0  0  0
  7 44  1  0  0  0
  8  9  2  0  0  0
  8 45  1  0  0  0
  9 10  1  0  0  0
  9 46  1  0  0  0
 10 11  1  0  0  0
 12 13  1  0  0  0
 12 47  1  0  0  0
 13 14  2  0  0  0
 13 15  1  0  0  0
 15 16  1  0  0  0
 15 20  1  0  0  0
 15 17  1  0  0  0
 17 18  1  0  0  0
 17 48  1  0  0  0
 17 49  1  0  0  0
 18 19  1  0  0  0
 18 26  1  0  0  0
 19 20  1  0  0  0
 19 50  1  0  0  0
 19 51  1  0  0  0
 20 25  1  0  0  0
 20 21  1  0  0  0
 21 22  1  0  0  0
 21 52  1  0  0  0
 21 53  1  0  0  0
 22 23  1  0  0  0
 22 54  1  0  0  0
 22 55  1  0  0  0
 23 24  1  0  0  0
 23 56  1  0  0  0
 23 69  1  0  0  0
 24 25  1  0  0  0
 24 57  1  0  0  0
 24 58  1  0  0  0
 25 59  1  0  0  0
 25 60  1  0  0  0
 26 27  2  0  0  0
 26 28  1  0  0  0
 28 29  1  0  0  0
 28 30  1  0  0  0
 28 31  1  0  0  0
 30 61  1  0  0  0
 30 62  1  0  0  0
 30 63  1  0  0  0
 31 32  1  0  0  0
 32 37  2  0  0  0
 32 33  1  0  0  0
 33 34  2  0  0  0
 33 64  1  0  0  0
 34 35  1  0  0  0
 34 65  1  0  0  0
 35 36  2  0  0  0
 35 66  1  0  0  0
 36 37  1  0  0  0
 36 67  1  0  0  0
 37 68  1  0  0  0
M  CHG  1  23   1
M  END
> <i_i_glide_confnum>
228

> <i_i_glide_lignum>
1300

> <i_i_glide_posenum>
171

> <i_i_glide_rotatable_bonds>
9

> <i_m_Source_File_Index>
765

> <b_m_subgroup_collapsed>
0

> <r_i_docking_score>
-6.25387

> <r_i_glide_ecoul>
-9.35436

> <r_i_glide_eff_state_penalty>
0

> <r_i_glide_einternal>
9.51679

> <r_i_glide_emodel>
-66.8135

> <r_i_glide_energy>
-49.2701

> <r_i_glide_erotb>
0.643699

> <r_i_glide_esite>
-0.1

> <r_i_glide_evdw>
-39.9158

> <r_i_glide_gscore>
-6.25387

> <r_i_glide_hbond>
-0.2

> <r_i_glide_ligand_efficiency>
-0.183937

> <r_i_glide_ligand_efficiency_ln>
-1.38165

> <r_i_glide_ligand_efficiency_sa>
-0.595885

> <r_i_glide_lipo>
-2.39101

> <r_i_glide_metal>
0

> <r_i_glide_rewards>
-0.807613

> <s_i_glide_gridfile>
wee1_glide-grid

> <s_m_Source_File>
wee1_decoys_glide_SP.sdf

> <s_m_Source_Path>
/Users/zhangxujun/Desktop

> <s_m_entry_id>
1040

> <s_m_entry_name>
wee1_decoys_glide_SP.765

> <s_m_subgroup_title>
wee1_decoys_glide_SP

> <s_m_subgroupid>
wee1_decoys_glide_SP


$$$$
