ZINC50006675_1486
                    3D
 Schrodinger Suite 2024-2.
 43 46  0  0  1  0            999 V2000
    7.1283   56.3473   16.7882 C   0  0  0  0  0  0
    7.3245   56.0230   18.2490 C   0  0  0  0  0  0
    8.4852   56.0544   19.0142 C   0  0  0  0  0  0
    8.3002   55.6967   20.3507 C   0  0  0  0  0  0
    6.9880   55.3732   20.6600 C   0  0  0  0  0  0
    5.9880   55.5225   19.2458 S   0  0  0  0  0  0
    6.4383   54.9567   21.9396 C   0  0  0  0  0  0
    5.2295   54.4960   22.1459 N   0  0  0  0  0  0
    5.1942   54.3068   23.4574 C   0  0  0  0  0  0
    6.3092   54.5814   24.1149 N   0  0  0  0  0  0
    7.1043   54.9992   23.1318 N   0  0  0  0  0  0
    4.0335   53.8199   24.0308 N   0  0  0  0  0  0
    3.5829   54.1003   25.2739 C   0  0  0  0  0  0
    4.1338   54.8871   26.0453 O   0  0  0  0  0  0
    2.3053   53.4034   25.6798 C   0  0  0  0  0  0
    1.3300   53.1081   24.7049 C   0  0  0  0  0  0
    0.1403   52.4669   25.0575 C   0  0  0  0  0  0
   -0.1856   52.1010   26.3222 N   0  0  0  0  0  0
    0.7334   52.4021   27.2436 C   0  0  0  0  0  0
    1.9860   53.0249   27.0111 C   0  0  0  0  0  0
    2.5977   53.0608   28.3174 C   0  0  0  0  0  0
    1.7856   52.5705   29.2255 N   0  0  0  0  0  0
    0.6557   52.1893   28.6037 N   0  0  0  0  0  0
   -0.4312   51.6027   29.3658 C   0  0  0  0  0  0
    3.9633   53.5591   28.7403 C   0  0  0  0  0  0
   -0.9079   52.1417   24.0107 C   0  0  0  0  0  0
    8.0575   56.6506   16.3058 H   0  0  0  0  0  0
    6.4195   57.1637   16.6517 H   0  0  0  0  0  0
    6.7432   55.4897   16.2368 H   0  0  0  0  0  0
    9.4496   56.3334   18.6128 H   0  0  0  0  0  0
    9.1043   55.6834   21.0693 H   0  0  0  0  0  0
    3.4074   53.3354   23.4069 H   0  0  0  0  0  0
    1.4758   53.3817   23.6699 H   0  0  0  0  0  0
   -1.3659   52.0980   29.1103 H   0  0  0  0  0  0
   -0.5097   50.5547   29.0909 H   0  0  0  0  0  0
   -0.2577   51.6974   30.4386 H   0  0  0  0  0  0
    4.0307   54.6443   28.6753 H   0  0  0  0  0  0
    4.2136   53.2891   29.7665 H   0  0  0  0  0  0
    4.7494   53.1489   28.1056 H   0  0  0  0  0  0
   -0.6459   52.5471   23.0337 H   0  0  0  0  0  0
   -1.0147   51.0615   23.9084 H   0  0  0  0  0  0
   -1.8760   52.5551   24.2963 H   0  0  0  0  0  0
    8.0720   55.2818   23.2819 H   0  0  0  0  0  0
  1  2  1  0  0  0
  1 27  1  0  0  0
  1 28  1  0  0  0
  1 29  1  0  0  0
  2  6  1  0  0  0
  2  3  2  0  0  0
  3  4  1  0  0  0
  3 30  1  0  0  0
  4  5  2  0  0  0
  4 31  1  0  0  0
  5  6  1  0  0  0
  5  7  1  0  0  0
  7  8  2  0  0  0
  7 11  1  0  0  0
  8  9  1  0  0  0
  9 12  1  0  0  0
  9 10  2  0  0  0
 10 11  1  0  0  0
 11 43  1  0  0  0
 12 13  1  0  0  0
 12 32  1  0  0  0
 13 14  2  0  0  0
 13 15  1  0  0  0
 15 20  2  0  0  0
 15 16  1  0  0  0
 16 17  2  0  0  0
 16 33  1  0  0  0
 17 18  1  0  0  0
 17 26  1  0  0  0
 18 19  2  0  0  0
 19 23  1  0  0  0
 19 20  1  0  0  0
 20 21  1  0  0  0
 21 22  2  0  0  0
 21 25  1  0  0  0
 22 23  1  0  0  0
 23 24  1  0  0  0
 24 34  1  0  0  0
 24 35  1  0  0  0
 24 36  1  0  0  0
 25 37  1  0  0  0
 25 38  1  0  0  0
 25 39  1  0  0  0
 26 40  1  0  0  0
 26 41  1  0  0  0
 26 42  1  0  0  0
M  END
> <i_i_glide_confnum>
16

> <i_i_glide_lignum>
1487

> <i_i_glide_posenum>
81

> <i_i_glide_rotatable_bonds>
4

> <i_m_Source_File_Index>
5070

> <b_m_subgroup_collapsed>
0

> <r_i_docking_score>
-6.48238

> <r_i_glide_ecoul>
-6.90756

> <r_i_glide_eff_state_penalty>
0

> <r_i_glide_einternal>
1.95878

> <r_i_glide_emodel>
-60.7026

> <r_i_glide_energy>
-44.4887

> <r_i_glide_erotb>
0.570606

> <r_i_glide_esite>
-0.0108265

> <r_i_glide_evdw>
-37.5811

> <r_i_glide_gscore>
-6.48238

> <r_i_glide_hbond>
-0.32

> <r_i_glide_ligand_efficiency>
-0.249322

> <r_i_glide_ligand_efficiency_ln>
-1.52237

> <r_i_glide_ligand_efficiency_sa>
-0.738616

> <r_i_glide_lipo>
-1.62842

> <r_i_glide_metal>
0

> <r_i_glide_rewards>
-2.17855

> <s_i_glide_gridfile>
wee1_glide-grid

> <s_m_Source_File>
wee1_decoys_glide_SP.sdf

> <s_m_Source_Path>
/Users/zhangxujun/Desktop

> <s_m_entry_id>
5345

> <s_m_entry_name>
wee1_decoys_glide_SP.5070

> <s_m_subgroup_title>
wee1_decoys_glide_SP

> <s_m_subgroupid>
wee1_decoys_glide_SP


$$$$
