ZINC39769015_140
                    3D
 Schrodinger Suite 2024-2.
 48 52  0  0  1  0            999 V2000
    1.2685   52.4395   31.7314 C   0  0  0  0  0  0
    2.5397   52.0967   31.2817 C   0  0  0  0  0  0
    2.8843   52.3270   29.9525 C   0  0  0  0  0  0
    1.9815   52.9570   29.0834 C   0  0  0  0  0  0
    0.7249   53.3423   29.5774 C   0  0  0  0  0  0
    0.3613   53.0589   30.8871 C   0  0  0  0  0  0
    2.2974   53.1809   27.6417 C   0  0  0  0  0  0
    3.4922   53.7019   27.2096 C   0  0  0  0  0  0
    4.6080   54.1373   28.0806 C   0  0  0  0  0  0
    5.7788   54.5787   27.5844 C   0  0  0  0  0  0
    5.9162   54.6720   26.1436 C   0  0  0  0  0  0
    4.9030   54.3386   25.3085 C   0  0  0  0  0  0
    3.6878   53.8455   25.8065 C   0  0  0  0  0  0
    2.7642   53.5068   24.9137 N   0  3  0  0  0  0
    1.5042   52.9541   25.1501 C   0  0  0  0  0  0
    0.7170   52.7139   24.2382 O   0  0  0  0  0  0
    1.1941   52.7239   26.6533 C   0  0  1  0  0  0
    0.3083   53.2964   26.8818 H   0  0  0  0  0  0
    0.7044   50.9691   26.8817 S   0  0  0  0  0  0
   -0.9334   50.9780   26.1964 C   0  0  0  0  0  0
   -1.7346   52.0175   26.1512 N   0  0  0  0  0  0
   -2.9041   51.6235   25.5126 N   0  0  0  0  0  0
   -2.7833   50.3487   25.2266 C   0  0  0  0  0  0
   -1.5713   49.8721   25.6817 N   0  0  0  0  0  0
   -1.1079   48.5697   25.6817 N   0  0  0  0  0  0
   -3.8483   49.5428   24.5551 C   0  0  0  0  0  0
   -5.1654   49.6434   25.0201 C   0  0  0  0  0  0
   -6.1881   48.9098   24.4188 C   0  0  0  0  0  0
   -5.9044   48.0724   23.3411 C   0  0  0  0  0  0
   -4.5979   47.9726   22.8640 C   0  0  0  0  0  0
   -3.5722   48.7044   23.4639 C   0  0  0  0  0  0
   -2.3196   48.6069   22.9598 F   0  0  0  0  0  0
    0.9747   52.2218   32.7498 H   0  0  0  0  0  0
    3.2389   51.6280   31.9596 H   0  0  0  0  0  0
    3.8498   51.9936   29.5991 H   0  0  0  0  0  0
   -0.0025   53.8347   28.9499 H   0  0  0  0  0  0
   -0.6222   53.2972   31.2588 H   0  0  0  0  0  0
    4.5036   54.1322   29.1546 H   0  0  0  0  0  0
    6.5770   54.8965   28.2401 H   0  0  0  0  0  0
    6.8443   55.0305   25.7232 H   0  0  0  0  0  0
    5.0462   54.4310   24.2400 H   0  0  0  0  0  0
   -0.2095   48.4847   25.2312 H   0  0  0  0  0  0
   -1.1006   48.2140   26.6424 H   0  0  0  0  0  0
   -5.3965   50.2868   25.8572 H   0  0  0  0  0  0
   -7.1997   48.9915   24.7893 H   0  0  0  0  0  0
   -6.6970   47.5063   22.8738 H   0  0  0  0  0  0
   -4.3780   47.3337   22.0219 H   0  0  0  0  0  0
    2.9788   53.6364   23.9300 H   0  0  0  0  0  0
  1  6  2  0  0  0
  1  2  1  0  0  0
  1 33  1  0  0  0
  2  3  2  0  0  0
  2 34  1  0  0  0
  3  4  1  0  0  0
  3 35  1  0  0  0
  4  5  2  0  0  0
  4  7  1  0  0  0
  5  6  1  0  0  0
  5 36  1  0  0  0
  6 37  1  0  0  0
  7 17  1  0  0  0
  7  8  2  0  0  0
  8 13  1  0  0  0
  8  9  1  0  0  0
  9 10  2  0  0  0
  9 38  1  0  0  0
 10 11  1  0  0  0
 10 39  1  0  0  0
 11 12  2  0  0  0
 11 40  1  0  0  0
 12 13  1  0  0  0
 12 41  1  0  0  0
 13 14  2  0  0  0
 14 15  1  0  0  0
 14 48  1  0  0  0
 15 16  2  0  0  0
 15 17  1  0  0  0
 17 18  1  0  0  0
 17 19  1  0  0  0
 19 20  1  0  0  0
 20 24  1  0  0  0
 20 21  2  0  0  0
 21 22  1  0  0  0
 22 23  2  0  0  0
 23 24  1  0  0  0
 23 26  1  0  0  0
 24 25  1  0  0  0
 25 42  1  0  0  0
 25 43  1  0  0  0
 26 31  2  0  0  0
 26 27  1  0  0  0
 27 28  2  0  0  0
 27 44  1  0  0  0
 28 29  1  0  0  0
 28 45  1  0  0  0
 29 30  2  0  0  0
 29 46  1  0  0  0
 30 31  1  0  0  0
 30 47  1  0  0  0
 31 32  1  0  0  0
M  CHG  1  14   1
M  END
> <i_i_glide_confnum>
30

> <i_i_glide_lignum>
141

> <i_i_glide_posenum>
140

> <i_i_glide_rotatable_bonds>
4

> <i_m_Source_File_Index>
4287

> <b_m_subgroup_collapsed>
0

> <r_i_docking_score>
-5.62758

> <r_i_glide_ecoul>
-4.99448

> <r_i_glide_eff_state_penalty>
0

> <r_i_glide_einternal>
3.74266

> <r_i_glide_emodel>
-53.9707

> <r_i_glide_energy>
-40.3176

> <r_i_glide_erotb>
0.429148

> <r_i_glide_esite>
-0.281898

> <r_i_glide_evdw>
-35.3231

> <r_i_glide_gscore>
-5.62758

> <r_i_glide_hbond>
-0.16

> <r_i_glide_ligand_efficiency>
-0.181535

> <r_i_glide_ligand_efficiency_ln>
-1.26919

> <r_i_glide_ligand_efficiency_sa>
-0.57027

> <r_i_glide_lipo>
-2.29631

> <r_i_glide_metal>
0

> <r_i_glide_rewards>
-0.803189

> <s_i_glide_gridfile>
wee1_glide-grid

> <s_m_Source_File>
wee1_decoys_glide_SP.sdf

> <s_m_Source_Path>
/Users/zhangxujun/Desktop

> <s_m_entry_id>
4562

> <s_m_entry_name>
wee1_decoys_glide_SP.4287

> <s_m_subgroup_title>
wee1_decoys_glide_SP

> <s_m_subgroupid>
wee1_decoys_glide_SP


$$$$
