ZINC59461748_5622
                    3D
 Schrodinger Suite 2024-2.
 54 58  0  0  1  0            999 V2000
    7.0705   55.8180   20.9186 C   0  0  0  0  0  0
    5.9045   54.8487   20.9277 C   0  0  0  0  0  0
    5.5038   54.2497   22.1224 C   0  0  0  0  0  0
    4.4447   53.3459   22.1231 C   0  0  0  0  0  0
    3.7726   53.0386   20.9375 C   0  0  0  0  0  0
    4.1826   53.6421   19.7442 C   0  0  0  0  0  0
    5.2409   54.5454   19.7383 C   0  0  0  0  0  0
    2.6276   52.1070   20.9515 C   0  0  0  0  0  0
    2.6039   50.9094   21.5498 C   0  0  0  0  0  0
    1.0038   50.1849   21.4224 S   0  0  0  0  0  0
    0.3323   51.6861   20.6686 C   0  0  0  0  0  0
    1.4210   52.4966   20.4275 N   0  0  0  0  0  0
   -0.8973   51.9930   20.4321 N   0  0  0  0  0  0
   -1.8794   51.2103   20.8292 N   0  0  0  0  0  0
   -2.2395   51.1226   22.0731 C   0  0  0  0  0  0
   -3.3002   50.2233   22.6113 C   0  0  0  0  0  0
   -3.3812   50.3486   23.8647 N   0  0  0  0  0  0
   -2.4483   51.2266   24.2715 N   0  0  0  0  0  0
   -1.7762   51.8170   23.2612 C   0  0  0  0  0  0
   -0.9442   52.7245   23.3311 O   0  0  0  0  0  0
   -2.2171   51.3820   25.6453 C   0  0  0  0  0  0
   -1.1401   51.9482   26.1356 N   0  0  0  0  0  0
   -1.0430   51.8959   27.4532 C   0  0  0  0  0  0
   -2.1523   51.2967   28.0618 C   0  0  0  0  0  0
   -3.2939   50.7609   26.8631 S   0  0  0  0  0  0
    0.1836   52.4411   28.1295 C   0  0  0  0  0  0
    1.2714   52.8979   27.3716 C   0  0  0  0  0  0
    2.4004   53.4191   27.9908 C   0  0  0  0  0  0
    2.4679   53.4925   29.3888 C   0  0  0  0  0  0
    1.3958   53.0193   30.1453 C   0  0  0  0  0  0
    0.2631   52.4974   29.5252 C   0  0  0  0  0  0
    3.5410   54.0153   30.0818 O   0  0  0  0  0  0
    4.6716   54.4943   29.3549 C   0  0  0  0  0  0
   -4.1406   49.2895   21.7621 C   0  0  0  0  0  0
    7.3040   56.1830   21.9210 H   0  0  0  0  0  0
    7.9608   55.3369   20.5064 H   0  0  0  0  0  0
    6.8396   56.6858   20.2968 H   0  0  0  0  0  0
    6.0101   54.4780   23.0485 H   0  0  0  0  0  0
    4.1288   52.9040   23.0545 H   0  0  0  0  0  0
    3.6815   53.4066   18.8162 H   0  0  0  0  0  0
    5.5519   54.9975   18.8072 H   0  0  0  0  0  0
    3.4107   50.4079   22.0628 H   0  0  0  0  0  0
   -2.3243   51.0816   29.1072 H   0  0  0  0  0  0
    1.2520   52.8605   26.2928 H   0  0  0  0  0  0
    3.2108   53.7637   27.3687 H   0  0  0  0  0  0
    1.4368   53.0595   31.2228 H   0  0  0  0  0  0
   -0.5498   52.1427   30.1438 H   0  0  0  0  0  0
    5.4064   54.8990   30.0494 H   0  0  0  0  0  0
    4.3979   55.2965   28.6666 H   0  0  0  0  0  0
    5.1528   53.6903   28.7961 H   0  0  0  0  0  0
   -4.7280   49.8479   21.0332 H   0  0  0  0  0  0
   -3.5111   48.5845   21.2182 H   0  0  0  0  0  0
   -4.8330   48.7106   22.3745 H   0  0  0  0  0  0
    1.2920   53.4425   20.0810 H   0  0  0  0  0  0
  1  2  1  0  0  0
  1 35  1  0  0  0
  1 36  1  0  0  0
  1 37  1  0  0  0
  2  7  2  0  0  0
  2  3  1  0  0  0
  3  4  2  0  0  0
  3 38  1  0  0  0
  4  5  1  0  0  0
  4 39  1  0  0  0
  5  6  2  0  0  0
  5  8  1  0  0  0
  6  7  1  0  0  0
  6 40  1  0  0  0
  7 41  1  0  0  0
  8 12  1  0  0  0
  8  9  2  0  0  0
  9 10  1  0  0  0
  9 42  1  0  0  0
 10 11  1  0  0  0
 11 12  1  0  0  0
 11 13  2  0  0  0
 12 54  1  0  0  0
 13 14  1  0  0  0
 14 15  2  0  0  0
 15 19  1  0  0  0
 15 16  1  0  0  0
 16 17  2  0  0  0
 16 34  1  0  0  0
 17 18  1  0  0  0
 18 19  1  0  0  0
 18 21  1  0  0  0
 19 20  2  0  0  0
 21 25  1  0  0  0
 21 22  2  0  0  0
 22 23  1  0  0  0
 23 24  2  0  0  0
 23 26  1  0  0  0
 24 25  1  0  0  0
 24 43  1  0  0  0
 26 31  2  0  0  0
 26 27  1  0  0  0
 27 28  2  0  0  0
 27 44  1  0  0  0
 28 29  1  0  0  0
 28 45  1  0  0  0
 29 30  2  0  0  0
 29 32  1  0  0  0
 30 31  1  0  0  0
 30 46  1  0  0  0
 31 47  1  0  0  0
 32 33  1  0  0  0
 33 48  1  0  0  0
 33 49  1  0  0  0
 33 50  1  0  0  0
 34 51  1  0  0  0
 34 52  1  0  0  0
 34 53  1  0  0  0
M  END
> <i_i_glide_confnum>
21

> <i_i_glide_lignum>
5623

> <i_i_glide_posenum>
9

> <i_i_glide_rotatable_bonds>
5

> <i_m_Source_File_Index>
3442

> <b_m_subgroup_collapsed>
0

> <r_i_docking_score>
-5.66982

> <r_i_glide_ecoul>
-8.10574

> <r_i_glide_eff_state_penalty>
0

> <r_i_glide_einternal>
4.80262

> <r_i_glide_emodel>
-67.6581

> <r_i_glide_energy>
-50.9434

> <r_i_glide_erotb>
0.34078

> <r_i_glide_esite>
-0.0807421

> <r_i_glide_evdw>
-42.8377

> <r_i_glide_gscore>
-5.66982

> <r_i_glide_hbond>
-0.608

> <r_i_glide_ligand_efficiency>
-0.166759

> <r_i_glide_ligand_efficiency_ln>
-1.25262

> <r_i_glide_ligand_efficiency_sa>
-0.540236

> <r_i_glide_lipo>
-1.85913

> <r_i_glide_metal>
0

> <r_i_glide_rewards>
-0.10498

> <s_i_glide_gridfile>
wee1_glide-grid

> <s_m_Source_File>
wee1_decoys_glide_SP.sdf

> <s_m_Source_Path>
/Users/zhangxujun/Desktop

> <s_m_entry_id>
3717

> <s_m_entry_name>
wee1_decoys_glide_SP.3442

> <s_m_subgroup_title>
wee1_decoys_glide_SP

> <s_m_subgroupid>
wee1_decoys_glide_SP


$$$$
