ZINC57458354_5870
                    3D
 Schrodinger Suite 2024-2.
 43 45  0  0  1  0            999 V2000
    3.3366   51.3575   21.4391 C   0  0  0  0  0  0
    2.5197   52.1670   22.4638 C   0  0  0  0  0  0
    2.9592   53.2966   23.0899 C   0  0  0  0  0  0
    2.0667   53.9206   24.1842 C   0  0  1  0  0  0
    2.2122   55.0033   24.1972 H   0  0  0  0  0  0
    0.6786   53.6872   23.7280 N   0  0  0  0  0  0
    0.2439   52.5062   23.2054 C   0  0  0  0  0  0
   -0.9657   52.2800   23.2413 O   0  0  0  0  0  0
    1.2244   51.7080   22.6556 N   0  0  0  0  0  0
    0.7533   50.3914   22.1813 C   0  0  0  0  0  0
    2.3508   53.5114   25.6479 C   0  0  0  0  0  0
    1.5042   52.6360   26.3517 C   0  0  0  0  0  0
    1.7403   52.3307   27.6920 C   0  0  0  0  0  0
    2.8286   52.8902   28.3562 C   0  0  0  0  0  0
    3.6753   53.7684   27.6802 C   0  0  0  0  0  0
    3.4206   54.0940   26.3466 C   0  0  0  0  0  0
    5.1885   54.5126   28.5668 Br  0  0  0  0  0  0
    3.0620   52.5699   29.6506 F   0  0  0  0  0  0
    4.2475   53.9198   22.8453 C   0  0  0  0  0  0
    5.0649   54.0969   23.7456 O   0  0  0  0  0  0
    4.4230   54.2918   21.5602 N   0  0  0  0  0  0
    5.5650   54.8218   20.9313 C   0  0  0  0  0  0
    6.7076   55.2867   21.6060 C   0  0  0  0  0  0
    7.8215   55.6976   20.8808 C   0  0  0  0  0  0
    7.7829   55.6958   19.4891 C   0  0  0  0  0  0
    6.6427   55.2746   18.8140 C   0  0  0  0  0  0
    5.5347   54.8373   19.5347 C   0  0  0  0  0  0
    8.8598   56.1125   18.7873 F   0  0  0  0  0  0
    4.3422   51.7355   21.2641 H   0  0  0  0  0  0
    3.4709   50.3301   21.7763 H   0  0  0  0  0  0
    2.8321   51.3379   20.4716 H   0  0  0  0  0  0
   -0.0455   54.1817   24.2273 H   0  0  0  0  0  0
   -0.2337   50.1047   22.5536 H   0  0  0  0  0  0
    0.7154   50.3752   21.0896 H   0  0  0  0  0  0
    1.4409   49.6112   22.5097 H   0  0  0  0  0  0
    0.6527   52.1743   25.8772 H   0  0  0  0  0  0
    1.0817   51.6517   28.2135 H   0  0  0  0  0  0
    4.0709   54.8029   25.8585 H   0  0  0  0  0  0
    3.6469   54.1018   20.9444 H   0  0  0  0  0  0
    6.7776   55.3079   22.6819 H   0  0  0  0  0  0
    8.7118   56.0283   21.3972 H   0  0  0  0  0  0
    6.6200   55.2794   17.7334 H   0  0  0  0  0  0
    4.6637   54.4897   18.9971 H   0  0  0  0  0  0
  1  2  1  0  0  0
  1 29  1  0  0  0
  1 30  1  0  0  0
  1 31  1  0  0  0
  2  9  1  0  0  0
  2  3  2  0  0  0
  3  4  1  0  0  0
  3 19  1  0  0  0
  4  5  1  0  0  0
  4  6  1  0  0  0
  4 11  1  0  0  0
  6  7  1  0  0  0
  6 32  1  0  0  0
  7  8  2  0  0  0
  7  9  1  0  0  0
  9 10  1  0  0  0
 10 33  1  0  0  0
 10 34  1  0  0  0
 10 35  1  0  0  0
 11 16  2  0  0  0
 11 12  1  0  0  0
 12 13  2  0  0  0
 12 36  1  0  0  0
 13 14  1  0  0  0
 13 37  1  0  0  0
 14 15  2  0  0  0
 14 18  1  0  0  0
 15 16  1  0  0  0
 15 17  1  0  0  0
 16 38  1  0  0  0
 19 20  2  0  0  0
 19 21  1  0  0  0
 21 22  1  0  0  0
 21 39  1  0  0  0
 22 27  2  0  0  0
 22 23  1  0  0  0
 23 24  2  0  0  0
 23 40  1  0  0  0
 24 25  1  0  0  0
 24 41  1  0  0  0
 25 26  2  0  0  0
 25 28  1  0  0  0
 26 27  1  0  0  0
 26 42  1  0  0  0
 27 43  1  0  0  0
M  END
> <i_i_glide_confnum>
20

> <i_i_glide_lignum>
5871

> <i_i_glide_posenum>
351

> <i_i_glide_rotatable_bonds>
4

> <i_m_Source_File_Index>
5490

> <b_m_subgroup_collapsed>
0

> <r_i_docking_score>
-5.85226

> <r_i_glide_ecoul>
-2.64016

> <r_i_glide_eff_state_penalty>
0

> <r_i_glide_einternal>
4.40248

> <r_i_glide_emodel>
-55.7585

> <r_i_glide_energy>
-41.9926

> <r_i_glide_erotb>
0.418912

> <r_i_glide_esite>
-0.000386978

> <r_i_glide_evdw>
-39.3525

> <r_i_glide_gscore>
-5.85226

> <r_i_glide_hbond>
0

> <r_i_glide_ligand_efficiency>
-0.21675

> <r_i_glide_ligand_efficiency_ln>
-1.36231

> <r_i_glide_ligand_efficiency_sa>
-0.650251

> <r_i_glide_lipo>
-2.68749

> <r_i_glide_metal>
0

> <r_i_glide_rewards>
-1.21965

> <s_i_glide_gridfile>
wee1_glide-grid

> <s_m_Source_File>
wee1_decoys_glide_SP.sdf

> <s_m_Source_Path>
/Users/zhangxujun/Desktop

> <s_m_entry_id>
5765

> <s_m_entry_name>
wee1_decoys_glide_SP.5490

> <s_m_subgroup_title>
wee1_decoys_glide_SP

> <s_m_subgroupid>
wee1_decoys_glide_SP


$$$$
