ZINC21710601_2466
                    3D
 Schrodinger Suite 2024-2.
 65 69  0  0  1  0            999 V2000
    5.0937   54.1148   28.2657 C   0  0  0  0  0  0
    5.8734   54.4822   27.1707 C   0  0  0  0  0  0
    5.3489   54.4957   25.8633 C   0  0  0  0  0  0
    4.0003   54.1371   25.6972 C   0  0  0  0  0  0
    3.2215   53.7206   26.7848 C   0  0  0  0  0  0
    3.7701   53.7316   28.0713 C   0  0  0  0  0  0
    1.9138   53.2850   26.5380 N   0  0  0  0  0  0
    0.9322   52.3996   27.7186 S   0  0  0  0  0  0
    1.7891   51.3683   28.3158 O   0  0  0  0  0  0
    0.2807   53.4178   28.5504 O   0  0  0  0  0  0
   -0.3070   51.5922   26.7194 C   0  0  0  0  0  0
   -1.5182   52.2214   26.4471 C   0  0  0  0  0  0
   -2.4482   51.5980   25.6188 C   0  0  0  0  0  0
   -2.1952   50.3431   25.0541 C   0  0  0  0  0  0
   -0.9764   49.6890   25.3565 C   0  0  0  0  0  0
   -0.0459   50.3360   26.1757 C   0  0  0  0  0  0
   -0.6939   48.2657   24.8785 C   0  0  0  0  0  0
   -1.5539   47.8517   23.6727 C   0  0  0  0  0  0
   -3.0278   48.2052   23.9215 C   0  0  0  0  0  0
   -3.1998   49.7262   24.0784 C   0  0  0  0  0  0
    6.2330   55.0017   24.7278 C   0  0  0  0  0  0
    7.1044   55.8015   25.0584 O   0  0  0  0  0  0
    6.0869   54.6278   23.4162 N   0  0  0  0  0  0
    5.3726   53.4249   22.9642 C   0  0  0  0  0  0
    4.4304   53.8424   21.8213 C   0  0  0  0  0  0
    5.2184   54.3985   20.6254 C   0  0  0  0  0  0
    6.1405   55.5495   21.0927 C   0  0  1  0  0  0
    5.5098   56.4194   21.2817 H   0  0  0  0  0  0
    6.9727   55.2270   22.3781 C   0  0  0  0  0  0
    7.0853   55.9369   19.9408 C   0  0  0  0  0  0
    8.1158   55.2965   19.7376 O   0  0  0  0  0  0
    6.7199   56.9887   19.1872 N   0  0  0  0  0  0
    7.4276   57.4335   17.9912 C   0  0  0  0  0  0
    7.7736   58.8968   17.8770 C   0  0  0  0  0  0
    8.8732   57.8791   18.0819 C   0  0  0  0  0  0
    5.5111   54.1288   29.2673 H   0  0  0  0  0  0
    6.8969   54.7766   27.3610 H   0  0  0  0  0  0
    3.5345   54.1929   24.7228 H   0  0  0  0  0  0
    3.1828   53.4416   28.9290 H   0  0  0  0  0  0
    1.6104   53.2434   25.5787 H   0  0  0  0  0  0
   -1.7301   53.1942   26.8616 H   0  0  0  0  0  0
   -3.3742   52.1082   25.3955 H   0  0  0  0  0  0
    0.8799   49.8325   26.4140 H   0  0  0  0  0  0
    0.3658   48.1348   24.6525 H   0  0  0  0  0  0
   -0.9105   47.6016   25.7150 H   0  0  0  0  0  0
   -1.4442   46.7829   23.4903 H   0  0  0  0  0  0
   -1.1963   48.3550   22.7735 H   0  0  0  0  0  0
   -3.3833   47.6954   24.8191 H   0  0  0  0  0  0
   -3.6457   47.8440   23.0976 H   0  0  0  0  0  0
   -4.2207   49.9540   24.3902 H   0  0  0  0  0  0
   -3.0639   50.2004   23.1057 H   0  0  0  0  0  0
    4.8503   52.9008   23.7528 H   0  0  0  0  0  0
    6.1145   52.7228   22.5789 H   0  0  0  0  0  0
    3.6993   54.5694   22.1760 H   0  0  0  0  0  0
    3.8541   52.9754   21.4949 H   0  0  0  0  0  0
    4.4950   54.7347   19.8768 H   0  0  0  0  0  0
    5.8008   53.5549   20.2477 H   0  0  0  0  0  0
    7.7502   54.4958   22.1542 H   0  0  0  0  0  0
    7.4389   56.1473   22.7272 H   0  0  0  0  0  0
    5.7965   57.3760   19.3203 H   0  0  0  0  0  0
    7.1239   56.9063   17.0858 H   0  0  0  0  0  0
    7.4954   59.5653   18.6928 H   0  0  0  0  0  0
    7.6564   59.3787   16.9062 H   0  0  0  0  0  0
    9.5382   57.6303   17.2553 H   0  0  0  0  0  0
    9.3796   57.8141   19.0451 H   0  0  0  0  0  0
  1  6  2  0  0  0
  1  2  1  0  0  0
  1 36  1  0  0  0
  2  3  2  0  0  0
  2 37  1  0  0  0
  3  4  1  0  0  0
  3 21  1  0  0  0
  4  5  2  0  0  0
  4 38  1  0  0  0
  5  6  1  0  0  0
  5  7  1  0  0  0
  6 39  1  0  0  0
  7  8  1  0  0  0
  7 40  1  0  0  0
  8  9  2  0  0  0
  8 10  2  0  0  0
  8 11  1  0  0  0
 11 16  2  0  0  0
 11 12  1  0  0  0
 12 13  2  0  0  0
 12 41  1  0  0  0
 13 14  1  0  0  0
 13 42  1  0  0  0
 14 20  1  0  0  0
 14 15  2  0  0  0
 15 16  1  0  0  0
 15 17  1  0  0  0
 16 43  1  0  0  0
 17 18  1  0  0  0
 17 44  1  0  0  0
 17 45  1  0  0  0
 18 19  1  0  0  0
 18 46  1  0  0  0
 18 47  1  0  0  0
 19 20  1  0  0  0
 19 48  1  0  0  0
 19 49  1  0  0  0
 20 50  1  0  0  0
 20 51  1  0  0  0
 21 22  2  0  0  0
 21 23  1  0  0  0
 23 29  1  0  0  0
 23 24  1  0  0  0
 24 25  1  0  0  0
 24 52  1  0  0  0
 24 53  1  0  0  0
 25 26  1  0  0  0
 25 54  1  0  0  0
 25 55  1  0  0  0
 26 27  1  0  0  0
 26 56  1  0  0  0
 26 57  1  0  0  0
 27 28  1  0  0  0
 27 29  1  0  0  0
 27 30  1  0  0  0
 29 58  1  0  0  0
 29 59  1  0  0  0
 30 31  2  0  0  0
 30 32  1  0  0  0
 32 33  1  0  0  0
 32 60  1  0  0  0
 33 35  1  0  0  0
 33 34  1  0  0  0
 33 61  1  0  0  0
 34 35  1  0  0  0
 34 62  1  0  0  0
 34 63  1  0  0  0
 35 64  1  0  0  0
 35 65  1  0  0  0
M  END
> <i_i_glide_confnum>
371

> <i_i_glide_lignum>
2467

> <i_i_glide_posenum>
159

> <i_i_glide_rotatable_bonds>
8

> <i_m_Source_File_Index>
1920

> <b_m_subgroup_collapsed>
0

> <r_i_docking_score>
-4.12529

> <r_i_glide_ecoul>
-3.37606

> <r_i_glide_eff_state_penalty>
0

> <r_i_glide_einternal>
9.18777

> <r_i_glide_emodel>
-57.5239

> <r_i_glide_energy>
-54.6401

> <r_i_glide_erotb>
0.699732

> <r_i_glide_esite>
-0.00297079

> <r_i_glide_evdw>
-51.2641

> <r_i_glide_gscore>
-4.12529

> <r_i_glide_hbond>
-0.32

> <r_i_glide_ligand_efficiency>
-0.121332

> <r_i_glide_ligand_efficiency_ln>
-0.911391

> <r_i_glide_ligand_efficiency_sa>
-0.393068

> <r_i_glide_lipo>
-2.25272

> <r_i_glide_metal>
0

> <r_i_glide_rewards>
0.820286

> <s_i_glide_gridfile>
wee1_glide-grid

> <s_m_Source_File>
wee1_decoys_glide_SP.sdf

> <s_m_Source_Path>
/Users/zhangxujun/Desktop

> <s_m_entry_id>
2195

> <s_m_entry_name>
wee1_decoys_glide_SP.1920

> <s_m_subgroup_title>
wee1_decoys_glide_SP

> <s_m_subgroupid>
wee1_decoys_glide_SP


$$$$
