ZINC09404921_2702
                    3D
 Schrodinger Suite 2024-2.
 54 58  0  0  1  0            999 V2000
    2.0064   52.4965   30.8820 C   0  0  0  0  0  0
    0.7301   52.4968   30.3167 C   0  0  0  0  0  0
    0.5383   52.7754   28.9613 C   0  0  0  0  0  0
    1.6655   53.0766   28.1825 C   0  0  0  0  0  0
    2.9486   53.0917   28.7828 C   0  0  0  0  0  0
    3.1505   52.7936   30.1334 C   0  0  0  0  0  0
    3.7871   53.4363   27.7492 N   0  0  0  0  0  0
    4.7903   53.5343   27.7582 H   0  0  0  0  0  0
    3.0195   53.5908   26.6128 C   0  0  0  0  0  0
    1.7449   53.3684   26.8463 N   0  0  0  0  0  0
    3.5950   53.8915   25.2578 C   0  0  0  0  0  0
    4.9244   54.3124   25.1271 C   0  0  0  0  0  0
    5.4872   54.4964   23.8677 C   0  0  0  0  0  0
    4.7192   54.2722   22.7147 C   0  0  0  0  0  0
    3.3876   53.8744   22.8391 C   0  0  0  0  0  0
    2.8272   53.6968   24.1022 C   0  0  0  0  0  0
    5.2408   54.3840   21.4125 N   0  0  0  0  0  0
    6.2375   55.1966   20.9907 C   0  0  0  0  0  0
    6.7167   56.0966   21.6808 O   0  0  0  0  0  0
    6.8168   54.8967   19.6232 C   0  0  0  0  0  0
    6.1237   54.1218   18.6760 C   0  0  0  0  0  0
    6.7237   53.7780   17.4674 C   0  0  0  0  0  0
    8.0164   54.2187   17.1830 C   0  0  0  0  0  0
    8.7097   55.0043   18.1039 C   0  0  0  0  0  0
    8.1117   55.3407   19.3141 C   0  0  0  0  0  0
    8.7988   53.7882   15.6296 S   0  0  0  0  0  0
    9.6573   54.9196   15.2583 O   0  0  0  0  0  0
    7.7515   53.3230   14.7134 O   0  0  0  0  0  0
    9.8515   52.4143   15.9901 N   0  0  0  0  0  0
   10.9513   52.1136   15.0246 C   0  0  0  0  0  0
   10.8917   50.5826   14.9021 C   0  0  0  0  0  0
    9.5077   50.1844   15.3608 C   0  0  0  0  0  0
    9.2446   51.1588   16.4978 C   0  0  0  0  0  0
    2.1012   52.2600   31.9334 H   0  0  0  0  0  0
   -0.1217   52.2532   30.9391 H   0  0  0  0  0  0
   -0.4498   52.7483   28.5271 H   0  0  0  0  0  0
    4.1351   52.7918   30.5782 H   0  0  0  0  0  0
    5.5418   54.4713   25.9990 H   0  0  0  0  0  0
    6.5252   54.7869   23.8006 H   0  0  0  0  0  0
    2.7782   53.7003   21.9627 H   0  0  0  0  0  0
    1.7995   53.3730   24.1774 H   0  0  0  0  0  0
    4.8182   53.7822   20.7240 H   0  0  0  0  0  0
    5.1241   53.7567   18.8604 H   0  0  0  0  0  0
    6.1837   53.1647   16.7592 H   0  0  0  0  0  0
    9.7132   55.3458   17.8889 H   0  0  0  0  0  0
    8.6812   55.9287   20.0213 H   0  0  0  0  0  0
   11.9427   52.3410   15.4186 H   0  0  0  0  0  0
   10.7350   52.4891   14.0223 H   0  0  0  0  0  0
   11.6389   50.1246   15.5540 H   0  0  0  0  0  0
   11.1069   50.2371   13.8874 H   0  0  0  0  0  0
    8.7732   50.3204   14.5643 H   0  0  0  0  0  0
    9.4596   49.1435   15.6822 H   0  0  0  0  0  0
    8.2208   51.2777   16.8539 H   0  0  0  0  0  0
    9.8053   50.8274   17.3731 H   0  0  0  0  0  0
  1  6  2  0  0  0
  1  2  1  0  0  0
  1 34  1  0  0  0
  2  3  2  0  0  0
  2 35  1  0  0  0
  3  4  1  0  0  0
  3 36  1  0  0  0
  4 10  1  0  0  0
  4  5  2  0  0  0
  5  6  1  0  0  0
  5  7  1  0  0  0
  6 37  1  0  0  0
  7  8  1  0  0  0
  7  9  1  0  0  0
  9 10  2  0  0  0
  9 11  1  0  0  0
 11 16  2  0  0  0
 11 12  1  0  0  0
 12 13  2  0  0  0
 12 38  1  0  0  0
 13 14  1  0  0  0
 13 39  1  0  0  0
 14 15  2  0  0  0
 14 17  1  0  0  0
 15 16  1  0  0  0
 15 40  1  0  0  0
 16 41  1  0  0  0
 17 18  1  0  0  0
 17 42  1  0  0  0
 18 19  2  0  0  0
 18 20  1  0  0  0
 20 25  2  0  0  0
 20 21  1  0  0  0
 21 22  2  0  0  0
 21 43  1  0  0  0
 22 23  1  0  0  0
 22 44  1  0  0  0
 23 24  2  0  0  0
 23 26  1  0  0  0
 24 25  1  0  0  0
 24 45  1  0  0  0
 25 46  1  0  0  0
 26 27  2  0  0  0
 26 28  2  0  0  0
 26 29  1  0  0  0
 29 33  1  0  0  0
 29 30  1  0  0  0
 30 31  1  0  0  0
 30 47  1  0  0  0
 30 48  1  0  0  0
 31 32  1  0  0  0
 31 49  1  0  0  0
 31 50  1  0  0  0
 32 33  1  0  0  0
 32 51  1  0  0  0
 32 52  1  0  0  0
 33 53  1  0  0  0
 33 54  1  0  0  0
M  END
> <i_i_glide_confnum>
82

> <i_i_glide_lignum>
2703

> <i_i_glide_posenum>
172

> <i_i_glide_rotatable_bonds>
6

> <i_m_Source_File_Index>
4479

> <b_m_subgroup_collapsed>
0

> <r_i_docking_score>
-4.73083

> <r_i_glide_ecoul>
-5.11359

> <r_i_glide_eff_state_penalty>
0

> <r_i_glide_einternal>
5.53842

> <r_i_glide_emodel>
-56.1252

> <r_i_glide_energy>
-48.219

> <r_i_glide_erotb>
0.602374

> <r_i_glide_esite>
0

> <r_i_glide_evdw>
-43.1054

> <r_i_glide_gscore>
-4.73083

> <r_i_glide_hbond>
0

> <r_i_glide_ligand_efficiency>
-0.147838

> <r_i_glide_ligand_efficiency_ln>
-1.05936

> <r_i_glide_ligand_efficiency_sa>
-0.469358

> <r_i_glide_lipo>
-2.68019

> <r_i_glide_metal>
0

> <r_i_glide_rewards>
0.269294

> <s_i_glide_gridfile>
wee1_glide-grid

> <s_m_Source_File>
wee1_decoys_glide_SP.sdf

> <s_m_Source_Path>
/Users/zhangxujun/Desktop

> <s_m_entry_id>
4754

> <s_m_entry_name>
wee1_decoys_glide_SP.4479

> <s_m_subgroup_title>
wee1_decoys_glide_SP

> <s_m_subgroupid>
wee1_decoys_glide_SP


$$$$
