ZINC03427065_2844
                    3D
 Schrodinger Suite 2024-2.
 64 67  0  0  1  0            999 V2000
    0.7041   49.2471   23.9972 C   0  0  0  0  0  0
    0.6179   50.0900   22.7369 C   0  0  0  0  0  0
   -0.5134   49.9971   21.9281 C   0  0  0  0  0  0
   -0.6264   50.7820   20.7844 C   0  0  0  0  0  0
    0.3961   51.6774   20.4255 C   0  0  0  0  0  0
    1.5450   51.7585   21.2335 C   0  0  0  0  0  0
    1.6499   50.9624   22.3858 C   0  0  0  0  0  0
    2.5337   52.6857   20.8552 N   0  0  0  0  0  0
    3.8660   52.6580   21.0637 C   0  0  0  0  0  0
    4.4638   51.7710   21.6750 O   0  0  0  0  0  0
    4.6110   53.8271   20.4637 C   0  0  0  0  0  0
    4.2998   54.2347   19.1591 C   0  0  0  0  0  0
    4.9146   55.3605   18.5700 C   0  0  0  0  0  0
    4.5488   55.8264   17.2809 C   0  0  0  0  0  0
    5.1571   56.9586   16.7453 C   0  0  0  0  0  0
    6.1401   57.6351   17.4599 C   0  0  0  0  0  0
    6.5351   57.1883   18.7177 C   0  0  0  0  0  0
    5.9229   56.0487   19.3012 C   0  0  0  0  0  0
    6.2696   55.5900   20.5907 C   0  0  0  0  0  0
    5.6066   54.5044   21.1924 C   0  0  0  0  0  0
    5.8564   54.0861   22.4928 O   0  0  0  0  0  0
    6.9345   54.6163   23.2723 C   0  0  0  0  0  0
    6.4811   54.8671   24.7156 C   0  0  0  0  0  0
    7.1036   55.6942   25.3835 O   0  0  0  0  0  0
    5.4262   54.1596   25.1763 N   0  0  0  0  0  0
    4.8911   54.1304   26.4808 C   0  0  0  0  0  0
    5.5935   54.5444   27.6259 C   0  0  0  0  0  0
    4.9939   54.4957   28.8784 C   0  0  0  0  0  0
    3.7138   53.9735   29.0187 C   0  0  0  0  0  0
    3.0149   53.4932   27.8997 C   0  0  0  0  0  0
    3.5984   53.6152   26.6313 C   0  0  0  0  0  0
    1.7456   52.8927   27.9758 N   0  0  0  0  0  0
    1.1956   52.2660   29.0371 C   0  0  0  0  0  0
    1.7462   52.1106   30.1269 O   0  0  0  0  0  0
   -0.2013   51.6946   28.8250 C   0  0  0  0  0  0
    0.3319   52.4967   19.3086 O   0  0  0  0  0  0
   -0.7595   52.3665   18.4013 C   0  0  0  0  0  0
    1.6762   49.3318   24.4821 H   0  0  0  0  0  0
   -0.0649   49.5458   24.7086 H   0  0  0  0  0  0
    0.5412   48.1964   23.7622 H   0  0  0  0  0  0
   -1.3137   49.3201   22.1900 H   0  0  0  0  0  0
   -1.5221   50.6872   20.1891 H   0  0  0  0  0  0
    2.5169   51.0349   23.0251 H   0  0  0  0  0  0
    2.1834   53.4580   20.3015 H   0  0  0  0  0  0
    3.5477   53.7108   18.5877 H   0  0  0  0  0  0
    3.7830   55.3080   16.7225 H   0  0  0  0  0  0
    4.8604   57.3225   15.7722 H   0  0  0  0  0  0
    6.5932   58.5203   17.0383 H   0  0  0  0  0  0
    7.3018   57.7213   19.2598 H   0  0  0  0  0  0
    7.0427   56.1436   21.0929 H   0  0  0  0  0  0
    7.3758   55.5432   22.9234 H   0  0  0  0  0  0
    7.7344   53.8771   23.2912 H   0  0  0  0  0  0
    4.9566   53.5891   24.4878 H   0  0  0  0  0  0
    6.6018   54.9243   27.5736 H   0  0  0  0  0  0
    5.5321   54.8704   29.7382 H   0  0  0  0  0  0
    3.2771   53.9453   30.0047 H   0  0  0  0  0  0
    3.0624   53.2682   25.7577 H   0  0  0  0  0  0
    1.2268   52.8526   27.1126 H   0  0  0  0  0  0
   -0.8832   52.4618   28.4563 H   0  0  0  0  0  0
   -0.6044   51.3069   29.7602 H   0  0  0  0  0  0
   -0.1730   50.8735   28.1094 H   0  0  0  0  0  0
   -0.6191   53.0562   17.5700 H   0  0  0  0  0  0
   -0.8120   51.3577   17.9885 H   0  0  0  0  0  0
   -1.7093   52.6103   18.8779 H   0  0  0  0  0  0
  1  2  1  0  0  0
  1 38  1  0  0  0
  1 39  1  0  0  0
  1 40  1  0  0  0
  2  7  2  0  0  0
  2  3  1  0  0  0
  3  4  2  0  0  0
  3 41  1  0  0  0
  4  5  1  0  0  0
  4 42  1  0  0  0
  5  6  2  0  0  0
  5 36  1  0  0  0
  6  7  1  0  0  0
  6  8  1  0  0  0
  7 43  1  0  0  0
  8  9  1  0  0  0
  8 44  1  0  0  0
  9 10  2  0  0  0
  9 11  1  0  0  0
 11 20  2  0  0  0
 11 12  1  0  0  0
 12 13  2  0  0  0
 12 45  1  0  0  0
 13 18  1  0  0  0
 13 14  1  0  0  0
 14 15  2  0  0  0
 14 46  1  0  0  0
 15 16  1  0  0  0
 15 47  1  0  0  0
 16 17  2  0  0  0
 16 48  1  0  0  0
 17 18  1  0  0  0
 17 49  1  0  0  0
 18 19  2  0  0  0
 19 20  1  0  0  0
 19 50  1  0  0  0
 20 21  1  0  0  0
 21 22  1  0  0  0
 22 23  1  0  0  0
 22 51  1  0  0  0
 22 52  1  0  0  0
 23 24  2  0  0  0
 23 25  1  0  0  0
 25 26  1  0  0  0
 25 53  1  0  0  0
 26 31  2  0  0  0
 26 27  1  0  0  0
 27 28  2  0  0  0
 27 54  1  0  0  0
 28 29  1  0  0  0
 28 55  1  0  0  0
 29 30  2  0  0  0
 29 56  1  0  0  0
 30 31  1  0  0  0
 30 32  1  0  0  0
 31 57  1  0  0  0
 32 33  1  0  0  0
 32 58  1  0  0  0
 33 34  2  0  0  0
 33 35  1  0  0  0
 35 59  1  0  0  0
 35 60  1  0  0  0
 35 61  1  0  0  0
 36 37  1  0  0  0
 37 62  1  0  0  0
 37 63  1  0  0  0
 37 64  1  0  0  0
M  END
> <i_i_glide_confnum>
183

> <i_i_glide_lignum>
2845

> <i_i_glide_posenum>
359

> <i_i_glide_rotatable_bonds>
11

> <i_m_Source_File_Index>
1779

> <b_m_subgroup_collapsed>
0

> <r_i_docking_score>
-6.78985

> <r_i_glide_ecoul>
-8.92332

> <r_i_glide_eff_state_penalty>
0

> <r_i_glide_einternal>
6.39967

> <r_i_glide_emodel>
-83.7483

> <r_i_glide_energy>
-60.978

> <r_i_glide_erotb>
0.74167

> <r_i_glide_esite>
-0.0234255

> <r_i_glide_evdw>
-52.0546

> <r_i_glide_gscore>
-6.78985

> <r_i_glide_hbond>
-0.671133

> <r_i_glide_ligand_efficiency>
-0.183509

> <r_i_glide_ligand_efficiency_ln>
-1.47256

> <r_i_glide_ligand_efficiency_sa>
-0.611494

> <r_i_glide_lipo>
-2.12378

> <r_i_glide_metal>
0

> <r_i_glide_rewards>
-0.77195

> <s_i_glide_gridfile>
wee1_glide-grid

> <s_m_Source_File>
wee1_decoys_glide_SP.sdf

> <s_m_Source_Path>
/Users/zhangxujun/Desktop

> <s_m_entry_id>
2054

> <s_m_entry_name>
wee1_decoys_glide_SP.1779

> <s_m_subgroup_title>
wee1_decoys_glide_SP

> <s_m_subgroupid>
wee1_decoys_glide_SP


$$$$
