ZINC15276445_5678
                    3D
 Schrodinger Suite 2024-2.
 67 71  0  0  1  0            999 V2000
    0.5187   52.8455   30.9066 C   0  0  0  0  0  0
    1.7532   53.3847   30.4407 O   0  0  0  0  0  0
    2.0237   53.3996   29.0808 C   0  0  0  0  0  0
    1.1659   52.8604   28.1083 C   0  0  0  0  0  0
    1.5027   52.9010   26.7559 C   0  0  0  0  0  0
    2.6984   53.4899   26.3171 C   0  0  0  0  0  0
    3.5450   54.0096   27.3062 C   0  0  0  0  0  0
    3.2361   53.9718   28.6720 C   0  0  0  0  0  0
    4.0772   54.4894   29.6411 O   0  0  0  0  0  0
    5.4212   54.8182   29.2812 C   0  0  0  0  0  0
    3.0858   53.5636   24.8608 C   0  0  0  0  0  0
    2.2718   53.0888   23.8207 C   0  0  0  0  0  0
    2.7079   53.1880   22.4922 C   0  0  0  0  0  0
    3.9343   53.7844   22.2794 N   0  0  0  0  0  0
    4.7308   54.2076   23.3497 C   0  0  0  0  0  0
    4.3183   54.0994   24.6103 N   0  0  0  0  0  0
    5.9050   54.7315   22.7721 C   0  0  0  0  0  0
    5.6868   54.6704   21.3912 C   0  0  0  0  0  0
    4.5437   54.0607   21.0980 N   0  0  0  0  0  0
    6.6171   55.2010   20.3926 C   0  0  0  0  0  0
    7.4350   56.0973   20.6173 O   0  0  0  0  0  0
    6.5175   54.5057   19.2414 O   0  0  0  0  0  0
    7.4755   54.6362   18.2015 C   0  0  0  0  0  0
    7.3958   53.3753   17.3089 C   0  0  2  0  0  0
    7.2058   52.5158   17.9577 H   0  0  0  0  0  0
    8.7536   53.1215   16.6240 C   0  0  0  0  0  0
    8.7326   51.7988   15.8518 C   0  0  0  0  0  0
    7.6249   51.8063   14.7877 C   0  0  0  0  0  0
    6.2333   53.4256   16.2686 C   0  0  2  0  0  0
    6.3989   54.2199   15.5371 H   0  0  0  0  0  0
    4.8361   53.5743   16.9292 C   0  0  0  0  0  0
    3.6673   53.4509   15.9396 C   0  0  0  0  0  0
    3.7460   52.1318   15.1667 C   0  0  0  0  0  0
    5.0889   51.9696   14.4433 C   0  0  0  0  0  0
    1.8520   52.6185   21.3531 C   0  0  0  0  0  0
    0.7060   53.2942   21.2839 F   0  0  0  0  0  0
    2.4325   52.6317   20.1520 F   0  0  0  0  0  0
    1.5544   51.3499   21.6400 F   0  0  0  0  0  0
    0.4845   52.9008   31.9940 H   0  0  0  0  0  0
   -0.3302   53.4102   30.5194 H   0  0  0  0  0  0
    0.4062   51.7964   30.6283 H   0  0  0  0  0  0
    0.2293   52.4016   28.3842 H   0  0  0  0  0  0
    0.8038   52.4684   26.0574 H   0  0  0  0  0  0
    4.4690   54.4595   26.9944 H   0  0  0  0  0  0
    5.9036   55.2970   30.1230 H   0  0  0  0  0  0
    5.9877   53.9216   29.0237 H   0  0  0  0  0  0
    5.5051   55.5158   28.4535 H   0  0  0  0  0  0
    1.3141   52.6365   24.0201 H   0  0  0  0  0  0
    6.7694   55.1561   23.2654 H   0  0  0  0  0  0
    8.4737   54.7196   18.6412 H   0  0  0  0  0  0
    7.3018   55.5459   17.6253 H   0  0  0  0  0  0
    9.5466   53.0822   17.3742 H   0  0  0  0  0  0
    9.0229   53.9574   15.9754 H   0  0  0  0  0  0
    8.5863   50.9606   16.5366 H   0  0  0  0  0  0
    9.6972   51.6279   15.3747 H   0  0  0  0  0  0
    7.5473   50.8206   14.3235 H   0  0  0  0  0  0
    7.7825   52.5612   14.0127 H   0  0  0  0  0  0
    4.7515   54.5447   17.4196 H   0  0  0  0  0  0
    4.7172   52.8215   17.7118 H   0  0  0  0  0  0
    2.7196   53.5153   16.4767 H   0  0  0  0  0  0
    3.6823   54.2927   15.2437 H   0  0  0  0  0  0
    3.5894   51.2968   15.8506 H   0  0  0  0  0  0
    2.9311   52.0762   14.4433 H   0  0  0  0  0  0
    5.1541   50.9627   14.0278 H   0  0  0  0  0  0
    5.2473   52.7108   13.6595 H   0  0  0  0  0  0
    6.2564   52.0976   15.4512 N   0  3  1  0  0  0
    6.1021   51.3750   16.1446 H   0  0  0  0  0  0
  1  2  1  0  0  0
  1 39  1  0  0  0
  1 40  1  0  0  0
  1 41  1  0  0  0
  2  3  1  0  0  0
  3  8  2  0  0  0
  3  4  1  0  0  0
  4  5  2  0  0  0
  4 42  1  0  0  0
  5  6  1  0  0  0
  5 43  1  0  0  0
  6  7  2  0  0  0
  6 11  1  0  0  0
  7  8  1  0  0  0
  7 44  1  0  0  0
  8  9  1  0  0  0
  9 10  1  0  0  0
 10 45  1  0  0  0
 10 46  1  0  0  0
 10 47  1  0  0  0
 11 16  2  0  0  0
 11 12  1  0  0  0
 12 13  2  0  0  0
 12 48  1  0  0  0
 13 14  1  0  0  0
 13 35  1  0  0  0
 14 19  1  0  0  0
 14 15  1  0  0  0
 15 16  1  0  0  0
 15 17  2  0  0  0
 17 18  1  0  0  0
 17 49  1  0  0  0
 18 19  2  0  0  0
 18 20  1  0  0  0
 20 21  2  0  0  0
 20 22  1  0  0  0
 22 23  1  0  0  0
 23 24  1  0  0  0
 23 50  1  0  0  0
 23 51  1  0  0  0
 24 25  1  0  0  0
 24 29  1  0  0  0
 24 26  1  0  0  0
 26 27  1  0  0  0
 26 52  1  0  0  0
 26 53  1  0  0  0
 27 28  1  0  0  0
 27 54  1  0  0  0
 27 55  1  0  0  0
 28 56  1  0  0  0
 28 57  1  0  0  0
 28 66  1  0  0  0
 29 30  1  0  0  0
 29 31  1  0  0  0
 29 66  1  0  0  0
 31 32  1  0  0  0
 31 58  1  0  0  0
 31 59  1  0  0  0
 32 33  1  0  0  0
 32 60  1  0  0  0
 32 61  1  0  0  0
 33 34  1  0  0  0
 33 62  1  0  0  0
 33 63  1  0  0  0
 34 64  1  0  0  0
 34 65  1  0  0  0
 34 66  1  0  0  0
 35 36  1  0  0  0
 35 37  1  0  0  0
 35 38  1  0  0  0
 66 67  1  0  0  0
M  CHG  1  66   1
M  END
> <i_i_glide_confnum>
10

> <i_i_glide_lignum>
5679

> <i_i_glide_posenum>
191

> <i_i_glide_rotatable_bonds>
8

> <i_m_Source_File_Index>
2753

> <b_m_subgroup_collapsed>
0

> <r_i_docking_score>
-5.95306

> <r_i_glide_ecoul>
-6.877

> <r_i_glide_eff_state_penalty>
0

> <r_i_glide_einternal>
8.52259

> <r_i_glide_emodel>
-58.905

> <r_i_glide_energy>
-44.5384

> <r_i_glide_erotb>
0.30447

> <r_i_glide_esite>
-0.0880441

> <r_i_glide_evdw>
-37.6614

> <r_i_glide_gscore>
-5.95306

> <r_i_glide_hbond>
-0.367079

> <r_i_glide_ligand_efficiency>
-0.160894

> <r_i_glide_ligand_efficiency_ln>
-1.29108

> <r_i_glide_ligand_efficiency_sa>
-0.536133

> <r_i_glide_lipo>
-2.1387

> <r_i_glide_metal>
0

> <r_i_glide_rewards>
-0.749088

> <s_i_glide_gridfile>
wee1_glide-grid

> <s_m_Source_File>
wee1_decoys_glide_SP.sdf

> <s_m_Source_Path>
/Users/zhangxujun/Desktop

> <s_m_entry_id>
3028

> <s_m_entry_name>
wee1_decoys_glide_SP.2753

> <s_m_subgroup_title>
wee1_decoys_glide_SP

> <s_m_subgroupid>
wee1_decoys_glide_SP


$$$$
