ZINC35397202_6079
                    3D
 Schrodinger Suite 2024-2.
 59 62  0  0  1  0            999 V2000
   -5.0483   52.1596   26.7421 C   0  0  0  0  0  0
   -4.2386   53.0544   25.7895 C   0  0  0  0  0  0
   -3.3802   52.2069   24.8189 N   0  3  2  0  0  0
   -2.2949   51.3796   25.5684 C   0  0  0  0  0  0
   -1.4268   50.6321   24.5348 C   0  0  0  0  0  0
   -0.7811   51.6159   23.5256 C   0  0  1  0  0  0
   -1.9399   52.2698   22.7384 C   0  0  0  0  0  0
   -2.8309   53.1086   23.6732 C   0  0  0  0  0  0
   -0.0091   52.6102   24.2443 N   0  0  0  0  0  0
    1.1922   52.4689   23.8718 C   0  0  0  0  0  0
    1.2305   51.3785   22.8286 C   0  0  0  0  0  0
    0.0788   50.9045   22.6253 N   0  0  0  0  0  0
    2.7442   50.7534   22.0798 S   0  0  0  0  0  0
    2.7816   51.6510   20.4842 C   0  0  0  0  0  0
    4.0473   52.5064   20.3284 C   0  0  0  0  0  0
    5.1048   52.0983   20.8052 O   0  0  0  0  0  0
    3.9019   53.6951   19.7003 N   0  0  0  0  0  0
    4.8652   54.7047   19.5118 C   0  0  0  0  0  0
    4.6405   55.6144   18.4731 C   0  0  0  0  0  0
    5.5501   56.6441   18.2249 C   0  0  0  0  0  0
    6.6930   56.7728   19.0141 C   0  0  0  0  0  0
    6.9203   55.8840   20.0683 C   0  0  0  0  0  0
    5.9969   54.8689   20.3255 C   0  0  0  0  0  0
    8.1789   55.9802   20.9104 C   0  0  0  0  0  0
    2.3413   53.2338   24.3932 C   0  0  0  0  0  0
    3.3288   53.7313   23.5386 C   0  0  0  0  0  0
    4.4679   54.3440   24.0494 C   0  0  0  0  0  0
    4.6100   54.4983   25.4245 C   0  0  0  0  0  0
    3.6049   54.0681   26.2883 C   0  0  0  0  0  0
    2.4734   53.4330   25.7757 C   0  0  0  0  0  0
    6.1949   55.2969   26.1165 Br  0  0  0  0  0  0
   -5.7418   52.7592   27.3311 H   0  0  0  0  0  0
   -5.6387   51.4210   26.1988 H   0  0  0  0  0  0
   -4.4144   51.6270   27.4509 H   0  0  0  0  0  0
   -3.5572   53.7281   26.3124 H   0  0  0  0  0  0
   -4.9115   53.6376   25.1557 H   0  0  0  0  0  0
   -2.8080   50.6468   26.1946 H   0  0  0  0  0  0
   -1.7193   52.0623   26.1979 H   0  0  0  0  0  0
   -2.0638   49.9167   24.0108 H   0  0  0  0  0  0
   -0.6617   50.0452   25.0485 H   0  0  0  0  0  0
   -1.5546   52.8903   21.9296 H   0  0  0  0  0  0
   -2.5597   51.5012   22.2735 H   0  0  0  0  0  0
   -3.6965   53.4870   23.1397 H   0  0  0  0  0  0
   -2.2873   53.9535   24.0823 H   0  0  0  0  0  0
    1.8736   52.2374   20.3316 H   0  0  0  0  0  0
    2.8291   50.9059   19.6886 H   0  0  0  0  0  0
    2.9973   53.8954   19.2989 H   0  0  0  0  0  0
    3.7617   55.5231   17.8485 H   0  0  0  0  0  0
    5.3735   57.3369   17.4140 H   0  0  0  0  0  0
    7.3998   57.5620   18.7993 H   0  0  0  0  0  0
    6.1820   54.2078   21.1587 H   0  0  0  0  0  0
    8.9820   56.4959   20.3813 H   0  0  0  0  0  0
    8.5574   54.9844   21.1389 H   0  0  0  0  0  0
    7.9745   56.4837   21.8553 H   0  0  0  0  0  0
    3.2149   53.6606   22.4736 H   0  0  0  0  0  0
    5.2389   54.6958   23.3814 H   0  0  0  0  0  0
    3.7161   54.1970   27.3549 H   0  0  0  0  0  0
    1.7207   53.0663   26.4631 H   0  0  0  0  0  0
   -3.9785   51.5273   24.3663 H   0  0  0  0  0  0
  1  2  1  0  0  0
  1 32  1  0  0  0
  1 33  1  0  0  0
  1 34  1  0  0  0
  2  3  1  0  0  0
  2 35  1  0  0  0
  2 36  1  0  0  0
  3  8  1  0  0  0
  3  4  1  0  0  0
  3 59  1  0  0  0
  4  5  1  0  0  0
  4 37  1  0  0  0
  4 38  1  0  0  0
  5  6  1  0  0  0
  5 39  1  0  0  0
  5 40  1  0  0  0
  6 12  1  0  0  0
  6  7  1  0  0  0
  6  9  1  0  0  0
  7  8  1  0  0  0
  7 41  1  0  0  0
  7 42  1  0  0  0
  8 43  1  0  0  0
  8 44  1  0  0  0
  9 10  2  0  0  0
 10 11  1  0  0  0
 10 25  1  0  0  0
 11 12  2  0  0  0
 11 13  1  0  0  0
 13 14  1  0  0  0
 14 15  1  0  0  0
 14 45  1  0  0  0
 14 46  1  0  0  0
 15 16  2  0  0  0
 15 17  1  0  0  0
 17 18  1  0  0  0
 17 47  1  0  0  0
 18 23  2  0  0  0
 18 19  1  0  0  0
 19 20  2  0  0  0
 19 48  1  0  0  0
 20 21  1  0  0  0
 20 49  1  0  0  0
 21 22  2  0  0  0
 21 50  1  0  0  0
 22 23  1  0  0  0
 22 24  1  0  0  0
 23 51  1  0  0  0
 24 52  1  0  0  0
 24 53  1  0  0  0
 24 54  1  0  0  0
 25 30  2  0  0  0
 25 26  1  0  0  0
 26 27  2  0  0  0
 26 55  1  0  0  0
 27 28  1  0  0  0
 27 56  1  0  0  0
 28 29  2  0  0  0
 28 31  1  0  0  0
 29 30  1  0  0  0
 29 57  1  0  0  0
 30 58  1  0  0  0
M  CHG  1   3   1
M  END
> <i_i_glide_confnum>
82

> <i_i_glide_lignum>
6080

> <i_i_glide_posenum>
119

> <i_i_glide_rotatable_bonds>
7

> <i_m_Source_File_Index>
486

> <b_m_subgroup_collapsed>
0

> <r_i_docking_score>
-5.10547

> <r_i_glide_ecoul>
-3.26874

> <r_i_glide_eff_state_penalty>
0

> <r_i_glide_einternal>
9.22648

> <r_i_glide_emodel>
-52.6836

> <r_i_glide_energy>
-42.7497

> <r_i_glide_erotb>
0.489147

> <r_i_glide_esite>
-0.0426574

> <r_i_glide_evdw>
-39.481

> <r_i_glide_gscore>
-5.10547

> <r_i_glide_hbond>
-0.090919

> <r_i_glide_ligand_efficiency>
-0.164693

> <r_i_glide_ligand_efficiency_ln>
-1.15144

> <r_i_glide_ligand_efficiency_sa>
-0.517362

> <r_i_glide_lipo>
-2.58878

> <r_i_glide_metal>
0

> <r_i_glide_rewards>
-0.407898

> <s_i_glide_gridfile>
wee1_glide-grid

> <s_m_Source_File>
wee1_decoys_glide_SP.sdf

> <s_m_Source_Path>
/Users/zhangxujun/Desktop

> <s_m_entry_id>
761

> <s_m_entry_name>
wee1_decoys_glide_SP.486

> <s_m_subgroup_title>
wee1_decoys_glide_SP

> <s_m_subgroupid>
wee1_decoys_glide_SP


$$$$
