ZINC38547709_5104
                    3D
 Schrodinger Suite 2024-2.
 62 65  0  0  1  0            999 V2000
    4.6362   51.5581   20.7472 C   0  0  0  0  0  0
    3.2462   51.7644   20.1846 C   0  0  0  0  0  0
    3.0697   52.1479   18.8515 C   0  0  0  0  0  0
    1.7862   52.4240   18.3822 C   0  0  0  0  0  0
    0.7436   52.3335   19.2328 N   0  3  0  0  0  0
    0.8581   51.9562   20.5235 C   0  0  0  0  0  0
    2.1282   51.6185   21.0103 C   0  0  0  0  0  0
   -0.3242   51.9549   21.3168 N   0  0  0  0  0  0
   -0.4638   51.4654   22.7047 C   0  0  1  0  0  0
    0.1034   50.5344   22.6569 H   0  0  0  0  0  0
    0.2997   52.1958   23.8468 C   0  0  0  0  0  0
    1.2334   53.2052   23.5600 C   0  0  0  0  0  0
    2.1078   53.6930   24.5280 C   0  0  0  0  0  0
    1.9347   53.2966   25.8572 C   0  0  0  0  0  0
    0.9560   52.3663   26.1863 C   0  0  0  0  0  0
    0.1593   51.7775   25.1898 C   0  0  0  0  0  0
   -0.7494   50.7761   25.4737 O   0  0  0  0  0  0
   -1.1170   50.5177   26.8240 C   0  0  0  0  0  0
    3.1356   54.5025   24.0938 O   0  0  0  0  0  0
    4.3125   54.5769   24.8957 C   0  0  0  0  0  0
   -1.9218   51.0667   22.9760 C   0  0  0  0  0  0
   -2.8960   51.8458   23.6596 C   0  0  0  0  0  0
   -4.1206   51.1813   23.8214 C   0  0  0  0  0  0
   -4.0947   49.6264   23.0611 S   0  0  0  0  0  0
   -2.4543   49.8502   22.5368 C   0  0  0  0  0  0
   -1.7676   48.9319   21.7433 N   0  0  0  0  0  0
   -2.1363   47.6883   21.3674 C   0  0  0  0  0  0
   -3.1405   47.0831   21.7470 O   0  0  0  0  0  0
   -1.2086   47.0856   20.4421 C   0  0  0  0  0  0
   -0.1633   47.6138   19.6789 C   0  0  0  0  0  0
    0.3321   46.5762   18.8896 C   0  0  0  0  0  0
   -0.4509   45.4706   19.1681 C   0  0  0  0  0  0
   -1.3845   45.7785   20.1048 O   0  0  0  0  0  0
   -5.3751   51.6322   24.5385 C   0  0  0  0  0  0
   -2.6783   53.2723   24.1261 C   0  0  0  0  0  0
    5.4029   51.9592   20.0837 H   0  0  0  0  0  0
    4.7376   52.0579   21.7107 H   0  0  0  0  0  0
    4.8133   50.4985   20.8893 H   0  0  0  0  0  0
    3.9204   52.2231   18.1862 H   0  0  0  0  0  0
    1.5622   52.7316   17.3697 H   0  0  0  0  0  0
    2.2653   51.3005   22.0324 H   0  0  0  0  0  0
   -1.1852   52.2401   20.8755 H   0  0  0  0  0  0
    1.3667   53.5721   22.5548 H   0  0  0  0  0  0
    2.5704   53.6816   26.6394 H   0  0  0  0  0  0
    0.8715   52.0680   27.2201 H   0  0  0  0  0  0
   -1.9356   49.7984   26.8455 H   0  0  0  0  0  0
   -0.2811   50.1005   27.3832 H   0  0  0  0  0  0
   -1.4685   51.4201   27.3272 H   0  0  0  0  0  0
    5.1419   54.9322   24.2859 H   0  0  0  0  0  0
    4.1793   55.2639   25.7319 H   0  0  0  0  0  0
    4.6166   53.6033   25.2863 H   0  0  0  0  0  0
   -0.8605   49.2331   21.4242 H   0  0  0  0  0  0
    0.2012   48.6310   19.6857 H   0  0  0  0  0  0
    1.1473   46.6362   18.1811 H   0  0  0  0  0  0
   -0.4676   44.4596   18.7917 H   0  0  0  0  0  0
   -6.2365   51.6919   23.8729 H   0  0  0  0  0  0
   -5.6308   50.9350   25.3369 H   0  0  0  0  0  0
   -5.2636   52.6059   25.0156 H   0  0  0  0  0  0
   -2.3821   53.2982   25.1770 H   0  0  0  0  0  0
   -1.9176   53.7931   23.5457 H   0  0  0  0  0  0
   -3.5792   53.8810   24.0290 H   0  0  0  0  0  0
   -0.1718   52.5723   18.8835 H   0  0  0  0  0  0
  1  2  1  0  0  0
  1 36  1  0  0  0
  1 37  1  0  0  0
  1 38  1  0  0  0
  2  7  2  0  0  0
  2  3  1  0  0  0
  3  4  2  0  0  0
  3 39  1  0  0  0
  4  5  1  0  0  0
  4 40  1  0  0  0
  5  6  2  0  0  0
  5 62  1  0  0  0
  6  7  1  0  0  0
  6  8  1  0  0  0
  7 41  1  0  0  0
  8  9  1  0  0  0
  8 42  1  0  0  0
  9 10  1  0  0  0
  9 11  1  0  0  0
  9 21  1  0  0  0
 11 16  2  0  0  0
 11 12  1  0  0  0
 12 13  2  0  0  0
 12 43  1  0  0  0
 13 14  1  0  0  0
 13 19  1  0  0  0
 14 15  2  0  0  0
 14 44  1  0  0  0
 15 16  1  0  0  0
 15 45  1  0  0  0
 16 17  1  0  0  0
 17 18  1  0  0  0
 18 46  1  0  0  0
 18 47  1  0  0  0
 18 48  1  0  0  0
 19 20  1  0  0  0
 20 49  1  0  0  0
 20 50  1  0  0  0
 20 51  1  0  0  0
 21 25  2  0  0  0
 21 22  1  0  0  0
 22 23  2  0  0  0
 22 35  1  0  0  0
 23 24  1  0  0  0
 23 34  1  0  0  0
 24 25  1  0  0  0
 25 26  1  0  0  0
 26 27  1  0  0  0
 26 52  1  0  0  0
 27 28  2  0  0  0
 27 29  1  0  0  0
 29 33  1  0  0  0
 29 30  2  0  0  0
 30 31  1  0  0  0
 30 53  1  0  0  0
 31 32  2  0  0  0
 31 54  1  0  0  0
 32 33  1  0  0  0
 32 55  1  0  0  0
 34 56  1  0  0  0
 34 57  1  0  0  0
 34 58  1  0  0  0
 35 59  1  0  0  0
 35 60  1  0  0  0
 35 61  1  0  0  0
M  CHG  1   5   1
M  END
> <i_i_glide_confnum>
166

> <i_i_glide_lignum>
5105

> <i_i_glide_posenum>
47

> <i_i_glide_rotatable_bonds>
9

> <i_m_Source_File_Index>
3679

> <b_m_subgroup_collapsed>
0

> <r_i_docking_score>
-2.26434

> <r_i_glide_ecoul>
0.00618282

> <r_i_glide_eff_state_penalty>
0

> <r_i_glide_einternal>
9.73924

> <r_i_glide_emodel>
-31.8906

> <r_i_glide_energy>
-31.0204

> <r_i_glide_erotb>
0.619354

> <r_i_glide_esite>
-0.0320542

> <r_i_glide_evdw>
-31.0266

> <r_i_glide_gscore>
-2.26434

> <r_i_glide_hbond>
0

> <r_i_glide_ligand_efficiency>
-0.0665982

> <r_i_glide_ligand_efficiency_ln>
-0.500256

> <r_i_glide_ligand_efficiency_sa>
-0.215752

> <r_i_glide_lipo>
-1.20413

> <r_i_glide_metal>
0

> <r_i_glide_rewards>
-0.0971076

> <s_i_glide_gridfile>
wee1_glide-grid

> <s_m_Source_File>
wee1_decoys_glide_SP.sdf

> <s_m_Source_Path>
/Users/zhangxujun/Desktop

> <s_m_entry_id>
3954

> <s_m_entry_name>
wee1_decoys_glide_SP.3679

> <s_m_subgroup_title>
wee1_decoys_glide_SP

> <s_m_subgroupid>
wee1_decoys_glide_SP


$$$$
