ZINC20702089_5148
                    3D
 Schrodinger Suite 2024-2.
 67 71  0  0  1  0            999 V2000
    7.1299   57.7829   16.7472 C   0  0  0  0  0  0
    6.5233   57.1430   17.9881 C   0  0  0  0  0  0
    6.3096   57.8073   19.0015 O   0  0  0  0  0  0
    6.2713   55.8137   17.8106 O   0  0  0  0  0  0
    5.6618   55.0669   18.8022 C   0  0  0  0  0  0
    4.4611   54.4383   18.4824 C   0  0  0  0  0  0
    3.7711   53.6969   19.4367 C   0  0  0  0  0  0
    4.2557   53.5672   20.7471 C   0  0  0  0  0  0
    5.5003   54.1382   21.0345 C   0  0  0  0  0  0
    6.2075   54.8980   20.0868 C   0  0  0  0  0  0
    7.4315   55.4874   20.3480 O   0  0  0  0  0  0
    7.9125   55.5456   21.6816 C   0  0  0  0  0  0
    3.4527   52.8192   21.8417 C   0  0  1  0  0  0
    4.0671   51.9501   22.0794 H   0  0  0  0  0  0
    3.2470   53.6474   23.1561 C   0  0  2  0  0  0
    2.7384   54.5675   22.8525 H   0  0  0  0  0  0
    4.4277   54.0670   24.0416 C   0  0  0  0  0  0
    3.7476   54.2992   25.3830 C   0  0  0  0  0  0
    2.5454   53.6967   25.4137 C   0  0  0  0  0  0
    2.3652   52.8948   24.1443 C   0  0  1  0  0  0
    2.7044   51.8787   24.3262 H   0  0  0  0  0  0
    1.0105   52.6869   23.5189 C   0  0  0  0  0  0
   -0.1716   52.7357   24.2535 C   0  0  0  0  0  0
   -1.3912   52.4195   23.6641 C   0  0  0  0  0  0
   -1.4428   52.0853   22.3087 C   0  0  0  0  0  0
   -0.2646   52.0417   21.5597 C   0  0  0  0  0  0
    0.9649   52.3142   22.1637 C   0  0  0  0  0  0
    2.1467   52.2774   21.3835 N   0  0  0  0  0  0
   -2.8549   52.3341   24.6905 S   0  0  0  0  0  0
   -2.4390   52.5022   26.0875 O   0  0  0  0  0  0
   -3.8278   53.2448   24.0820 O   0  0  0  0  0  0
   -3.4795   50.6958   24.5044 N   0  0  0  0  0  0
   -2.7993   49.4758   25.0238 C   0  0  0  0  0  0
   -3.4433   48.2762   24.2991 C   0  0  0  0  0  0
   -2.7752   46.9576   24.7341 C   0  0  0  0  0  0
   -1.2490   47.0027   24.5029 C   0  0  0  0  0  0
   -0.5775   48.2173   25.1766 C   0  0  0  0  0  0
   -1.2693   49.5379   24.7987 C   0  0  0  0  0  0
    6.5092   57.5821   15.8751 H   0  0  0  0  0  0
    8.1303   57.3903   16.5698 H   0  0  0  0  0  0
    7.2007   58.8657   16.8776 H   0  0  0  0  0  0
    4.0466   54.5443   17.4916 H   0  0  0  0  0  0
    2.8263   53.2645   19.1464 H   0  0  0  0  0  0
    5.9273   53.9798   22.0056 H   0  0  0  0  0  0
    8.8531   56.0935   21.6822 H   0  0  0  0  0  0
    7.2215   56.0704   22.3441 H   0  0  0  0  0  0
    8.1099   54.5503   22.0803 H   0  0  0  0  0  0
    5.2011   53.3013   24.0983 H   0  0  0  0  0  0
    4.8943   54.9790   23.6818 H   0  0  0  0  0  0
    4.2013   54.8800   26.1719 H   0  0  0  0  0  0
    1.8578   53.6660   26.2476 H   0  0  0  0  0  0
   -0.1303   52.9509   25.3085 H   0  0  0  0  0  0
   -2.3881   51.8358   21.8493 H   0  0  0  0  0  0
   -0.3097   51.7759   20.5133 H   0  0  0  0  0  0
    2.1522   51.8764   20.4567 H   0  0  0  0  0  0
   -4.1519   50.5514   23.7479 H   0  0  0  0  0  0
   -2.9905   49.3713   26.0961 H   0  0  0  0  0  0
   -4.5158   48.2389   24.5023 H   0  0  0  0  0  0
   -3.3384   48.3921   23.2180 H   0  0  0  0  0  0
   -2.9751   46.7810   25.7950 H   0  0  0  0  0  0
   -3.2143   46.1216   24.1909 H   0  0  0  0  0  0
   -0.7900   46.0963   24.8846 H   0  0  0  0  0  0
   -1.0449   47.0258   23.4305 H   0  0  0  0  0  0
   -0.5961   48.0990   26.2606 H   0  0  0  0  0  0
    0.4794   48.2576   24.9034 H   0  0  0  0  0  0
   -1.0535   49.7334   23.7494 H   0  0  0  0  0  0
   -0.8243   50.3482   25.3786 H   0  0  0  0  0  0
  1  2  1  0  0  0
  1 39  1  0  0  0
  1 40  1  0  0  0
  1 41  1  0  0  0
  2  3  2  0  0  0
  2  4  1  0  0  0
  4  5  1  0  0  0
  5 10  2  0  0  0
  5  6  1  0  0  0
  6  7  2  0  0  0
  6 42  1  0  0  0
  7  8  1  0  0  0
  7 43  1  0  0  0
  8  9  2  0  0  0
  8 13  1  0  0  0
  9 10  1  0  0  0
  9 44  1  0  0  0
 10 11  1  0  0  0
 11 12  1  0  0  0
 12 45  1  0  0  0
 12 46  1  0  0  0
 12 47  1  0  0  0
 13 14  1  0  0  0
 13 28  1  0  0  0
 13 15  1  0  0  0
 15 16  1  0  0  0
 15 20  1  0  0  0
 15 17  1  0  0  0
 17 18  1  0  0  0
 17 48  1  0  0  0
 17 49  1  0  0  0
 18 19  2  0  0  0
 18 50  1  0  0  0
 19 20  1  0  0  0
 19 51  1  0  0  0
 20 21  1  0  0  0
 20 22  1  0  0  0
 22 27  2  0  0  0
 22 23  1  0  0  0
 23 24  2  0  0  0
 23 52  1  0  0  0
 24 25  1  0  0  0
 24 29  1  0  0  0
 25 26  2  0  0  0
 25 53  1  0  0  0
 26 27  1  0  0  0
 26 54  1  0  0  0
 27 28  1  0  0  0
 28 55  1  0  0  0
 29 30  2  0  0  0
 29 31  2  0  0  0
 29 32  1  0  0  0
 32 33  1  0  0  0
 32 56  1  0  0  0
 33 38  1  0  0  0
 33 34  1  0  0  0
 33 57  1  0  0  0
 34 35  1  0  0  0
 34 58  1  0  0  0
 34 59  1  0  0  0
 35 36  1  0  0  0
 35 60  1  0  0  0
 35 61  1  0  0  0
 36 37  1  0  0  0
 36 62  1  0  0  0
 36 63  1  0  0  0
 37 38  1  0  0  0
 37 64  1  0  0  0
 37 65  1  0  0  0
 38 66  1  0  0  0
 38 67  1  0  0  0
M  END
> <i_i_glide_confnum>
47

> <i_i_glide_lignum>
5149

> <i_i_glide_posenum>
241

> <i_i_glide_rotatable_bonds>
7

> <i_m_Source_File_Index>
5993

> <b_m_subgroup_collapsed>
0

> <r_i_docking_score>
-2.91199

> <r_i_glide_ecoul>
-2.17568

> <r_i_glide_eff_state_penalty>
0

> <r_i_glide_einternal>
6.25716

> <r_i_glide_emodel>
-40.5631

> <r_i_glide_energy>
-39.1606

> <r_i_glide_erotb>
0.413442

> <r_i_glide_esite>
-0.00902396

> <r_i_glide_evdw>
-36.985

> <r_i_glide_gscore>
-2.91199

> <r_i_glide_hbond>
0

> <r_i_glide_ligand_efficiency>
-0.0831998

> <r_i_glide_ligand_efficiency_ln>
-0.639247

> <r_i_glide_ligand_efficiency_sa>
-0.272152

> <r_i_glide_lipo>
-1.89931

> <r_i_glide_metal>
0

> <r_i_glide_rewards>
0.758496

> <s_i_glide_gridfile>
wee1_glide-grid

> <s_m_Source_File>
wee1_decoys_glide_SP.sdf

> <s_m_Source_Path>
/Users/zhangxujun/Desktop

> <s_m_entry_id>
6268

> <s_m_entry_name>
wee1_decoys_glide_SP.5993

> <s_m_subgroup_title>
wee1_decoys_glide_SP

> <s_m_subgroupid>
wee1_decoys_glide_SP


$$$$
