ZINC35697237_5956
                    3D
 Schrodinger Suite 2024-2.
 59 62  0  0  1  0            999 V2000
   -5.7031   53.0132   25.2774 C   0  0  0  0  0  0
   -4.3884   52.3139   24.9838 C   0  0  0  0  0  0
   -3.4825   52.8755   24.0817 C   0  0  0  0  0  0
   -2.2891   52.2236   23.7967 C   0  0  0  0  0  0
   -1.9714   51.0226   24.4432 C   0  0  0  0  0  0
   -2.8817   50.4629   25.3491 C   0  0  0  0  0  0
   -4.0899   51.1015   25.6089 C   0  0  0  0  0  0
   -0.6020   50.3552   24.2300 C   0  0  1  0  0  0
   -0.4264   49.7067   25.0941 H   0  0  0  0  0  0
   -0.4871   49.5124   22.9203 C   0  0  0  0  0  0
    0.3554   49.9173   21.9182 C   0  0  0  0  0  0
    1.1302   51.0402   22.0020 N   0  0  0  0  0  0
    1.2216   51.6348   23.1277 C   0  0  0  0  0  0
    0.5066   51.3412   24.2830 N   0  0  0  0  0  0
    0.7983   52.1234   25.3819 C   0  0  0  0  0  0
    1.7115   53.0696   25.0990 C   0  0  0  0  0  0
    2.2487   53.0492   23.4217 S   0  0  0  0  0  0
    0.1340   52.0405   26.6689 C   0  0  0  0  0  0
    0.7059   51.6876   27.8299 C   0  0  0  0  0  0
    1.9036   51.2953   28.0821 O   0  5  0  0  0  0
   -0.0020   51.7825   29.0016 N   0  0  0  0  0  0
    0.4180   52.5111   30.2032 C   0  0  0  0  0  0
    0.8229   53.9778   29.9826 C   0  0  0  0  0  0
    1.4606   54.4481   28.8221 C   0  0  0  0  0  0
    1.8517   55.7740   28.7428 C   0  0  0  0  0  0
    1.6911   56.6539   29.7528 N   0  0  0  0  0  0
    1.1046   56.1960   30.8812 C   0  0  0  0  0  0
    0.6466   54.8846   31.0282 C   0  0  0  0  0  0
    0.6754   49.1795   20.6196 C   0  0  0  0  0  0
   -1.2973   48.2808   22.8504 C   0  0  0  0  0  0
   -1.6269   47.7232   21.8014 O   0  0  0  0  0  0
   -1.6378   47.8216   24.0742 O   0  0  0  0  0  0
   -2.3888   46.6343   24.2419 C   0  0  0  0  0  0
   -2.5766   46.3665   25.7193 C   0  0  0  0  0  0
   -3.7454   46.0542   26.3009 C   0  0  0  0  0  0
   -5.9862   53.6836   24.4662 H   0  0  0  0  0  0
   -6.5098   52.2863   25.3826 H   0  0  0  0  0  0
   -5.6345   53.5862   26.2026 H   0  0  0  0  0  0
   -3.7033   53.8167   23.6009 H   0  0  0  0  0  0
   -1.5932   52.6719   23.1013 H   0  0  0  0  0  0
   -2.6409   49.5462   25.8726 H   0  0  0  0  0  0
   -4.7813   50.6543   26.3103 H   0  0  0  0  0  0
    2.0830   53.8175   25.7797 H   0  0  0  0  0  0
   -0.9099   52.3218   26.6931 H   0  0  0  0  0  0
   -0.4965   50.9349   29.2439 H   0  0  0  0  0  0
   -0.4206   52.4851   30.9026 H   0  0  0  0  0  0
    1.2434   51.9813   30.6818 H   0  0  0  0  0  0
    1.6985   53.8356   27.9792 H   0  0  0  0  0  0
    2.3043   56.1283   27.8339 H   0  0  0  0  0  0
    1.1038   56.8924   31.7040 H   0  0  0  0  0  0
    0.2141   54.5620   31.9656 H   0  0  0  0  0  0
    0.5583   48.1016   20.7110 H   0  0  0  0  0  0
    0.0227   49.5383   19.8181 H   0  0  0  0  0  0
    1.7133   49.3404   20.3054 H   0  0  0  0  0  0
   -1.8513   45.7980   23.7916 H   0  0  0  0  0  0
   -3.3540   46.7236   23.7426 H   0  0  0  0  0  0
   -1.6935   46.4546   26.3401 H   0  0  0  0  0  0
   -4.6634   45.9670   25.7377 H   0  0  0  0  0  0
   -3.7905   45.8852   27.3689 H   0  0  0  0  0  0
  1  2  1  0  0  0
  1 36  1  0  0  0
  1 37  1  0  0  0
  1 38  1  0  0  0
  2  7  2  0  0  0
  2  3  1  0  0  0
  3  4  2  0  0  0
  3 39  1  0  0  0
  4  5  1  0  0  0
  4 40  1  0  0  0
  5  6  2  0  0  0
  5  8  1  0  0  0
  6  7  1  0  0  0
  6 41  1  0  0  0
  7 42  1  0  0  0
  8  9  1  0  0  0
  8 14  1  0  0  0
  8 10  1  0  0  0
 10 11  2  0  0  0
 10 30  1  0  0  0
 11 12  1  0  0  0
 11 29  1  0  0  0
 12 13  2  0  0  0
 13 17  1  0  0  0
 13 14  1  0  0  0
 14 15  1  0  0  0
 15 16  2  0  0  0
 15 18  1  0  0  0
 16 17  1  0  0  0
 16 43  1  0  0  0
 18 19  2  0  0  0
 18 44  1  0  0  0
 19 20  1  0  0  0
 19 21  1  0  0  0
 21 22  1  0  0  0
 21 45  1  0  0  0
 22 23  1  0  0  0
 22 46  1  0  0  0
 22 47  1  0  0  0
 23 28  2  0  0  0
 23 24  1  0  0  0
 24 25  2  0  0  0
 24 48  1  0  0  0
 25 26  1  0  0  0
 25 49  1  0  0  0
 26 27  2  0  0  0
 27 28  1  0  0  0
 27 50  1  0  0  0
 28 51  1  0  0  0
 29 52  1  0  0  0
 29 53  1  0  0  0
 29 54  1  0  0  0
 30 31  2  0  0  0
 30 32  1  0  0  0
 32 33  1  0  0  0
 33 34  1  0  0  0
 33 55  1  0  0  0
 33 56  1  0  0  0
 34 35  2  0  0  0
 34 57  1  0  0  0
 35 58  1  0  0  0
 35 59  1  0  0  0
M  CHG  1  20  -1
M  END
> <i_i_glide_confnum>
259

> <i_i_glide_lignum>
5957

> <i_i_glide_posenum>
266

> <i_i_glide_rotatable_bonds>
9

> <i_m_Source_File_Index>
3624

> <b_m_subgroup_collapsed>
0

> <r_i_docking_score>
-4.13493

> <r_i_glide_ecoul>
-1.38832

> <r_i_glide_eff_state_penalty>
0

> <r_i_glide_einternal>
6.70872

> <r_i_glide_emodel>
-51.5927

> <r_i_glide_energy>
-43.2097

> <r_i_glide_erotb>
0.721588

> <r_i_glide_esite>
-0.00785791

> <r_i_glide_evdw>
-41.8214

> <r_i_glide_gscore>
-4.13493

> <r_i_glide_hbond>
0

> <r_i_glide_ligand_efficiency>
-0.121616

> <r_i_glide_ligand_efficiency_ln>
-0.913522

> <r_i_glide_ligand_efficiency_sa>
-0.393987

> <r_i_glide_lipo>
-2.14399

> <r_i_glide_metal>
0

> <r_i_glide_rewards>
-0.40535

> <s_i_glide_gridfile>
wee1_glide-grid

> <s_m_Source_File>
wee1_decoys_glide_SP.sdf

> <s_m_Source_Path>
/Users/zhangxujun/Desktop

> <s_m_entry_id>
3899

> <s_m_entry_name>
wee1_decoys_glide_SP.3624

> <s_m_subgroup_title>
wee1_decoys_glide_SP

> <s_m_subgroupid>
wee1_decoys_glide_SP


$$$$
