ZINC59844913_2128
                    3D
 Schrodinger Suite 2024-2.
 50 53  0  0  1  0            999 V2000
    6.9192   54.5860   27.2816 C   0  0  0  0  0  0
    6.0598   53.6587   27.8635 C   0  0  0  0  0  0
    4.8242   53.4070   27.2767 C   0  0  0  0  0  0
    4.4477   54.0967   26.1183 C   0  0  0  0  0  0
    5.2983   55.0613   25.5764 C   0  0  0  0  0  0
    6.5379   55.2967   26.1479 C   0  0  0  0  0  0
    3.2282   53.7902   25.4648 N   0  0  0  0  0  0
    1.9848   53.5466   26.0287 C   0  0  0  0  0  0
    1.1049   53.2728   25.0961 N   0  0  0  0  0  0
    1.7567   53.3297   23.8757 N   0  0  0  0  0  0
    3.0156   53.6181   24.1028 C   0  0  0  0  0  0
    4.2714   53.6966   22.8405 S   0  0  0  0  0  0
    3.3114   53.4267   21.3132 C   0  0  0  0  0  0
    3.1971   51.9815   20.8220 C   0  0  0  0  0  0
    3.5033   51.0379   21.5522 O   0  0  0  0  0  0
    2.6965   51.8505   19.5762 N   0  0  0  0  0  0
    2.4469   50.5823   19.0563 N   0  0  0  0  0  0
    1.1891   50.0876   19.1130 C   0  0  0  0  0  0
    0.2355   50.6918   19.6120 O   0  0  0  0  0  0
    0.9274   48.6856   18.5310 C   0  0  0  0  0  0
    1.1567   48.5868   17.0124 C   0  0  0  0  0  0
    1.7458   47.1899   17.2803 C   0  0  0  0  0  0
    2.0663   47.6624   18.7087 C   0  0  0  0  0  0
    1.6318   53.6053   27.4866 C   0  0  0  0  0  0
    1.9312   54.7695   28.2053 C   0  0  0  0  0  0
    1.5710   54.8978   29.5456 C   0  0  0  0  0  0
    0.9091   53.8526   30.1895 C   0  0  0  0  0  0
    0.6207   52.6807   29.4934 C   0  0  0  0  0  0
    0.9826   52.5494   28.1514 C   0  0  0  0  0  0
    0.5965   50.8975   27.2794 Br  0  0  0  0  0  0
    7.8915   54.7671   27.7197 H   0  0  0  0  0  0
    6.3592   53.1279   28.7517 H   0  0  0  0  0  0
    4.1845   52.6483   27.7087 H   0  0  0  0  0  0
    5.0244   55.6183   24.6956 H   0  0  0  0  0  0
    7.1799   56.0357   25.6972 H   0  0  0  0  0  0
    3.7791   54.0274   20.5331 H   0  0  0  0  0  0
    2.3047   53.8074   21.4461 H   0  0  0  0  0  0
    2.5287   52.6017   18.9233 H   0  0  0  0  0  0
    3.2336   50.1757   18.5599 H   0  0  0  0  0  0
   -0.0514   48.3003   18.8338 H   0  0  0  0  0  0
    1.9044   49.2739   16.6062 H   0  0  0  0  0  0
    0.2623   48.6212   16.3904 H   0  0  0  0  0  0
    2.6114   46.9216   16.6728 H   0  0  0  0  0  0
    1.0086   46.3866   17.2366 H   0  0  0  0  0  0
    1.9048   46.9276   19.4978 H   0  0  0  0  0  0
    3.0785   48.0704   18.7786 H   0  0  0  0  0  0
    2.4372   55.5905   27.7181 H   0  0  0  0  0  0
    1.7985   55.8092   30.0810 H   0  0  0  0  0  0
    0.6200   53.9470   31.2252 H   0  0  0  0  0  0
    0.1129   51.8684   29.9961 H   0  0  0  0  0  0
  1  6  2  0  0  0
  1  2  1  0  0  0
  1 31  1  0  0  0
  2  3  2  0  0  0
  2 32  1  0  0  0
  3  4  1  0  0  0
  3 33  1  0  0  0
  4  5  2  0  0  0
  4  7  1  0  0  0
  5  6  1  0  0  0
  5 34  1  0  0  0
  6 35  1  0  0  0
  7 11  1  0  0  0
  7  8  1  0  0  0
  8  9  2  0  0  0
  8 24  1  0  0  0
  9 10  1  0  0  0
 10 11  2  0  0  0
 11 12  1  0  0  0
 12 13  1  0  0  0
 13 14  1  0  0  0
 13 36  1  0  0  0
 13 37  1  0  0  0
 14 15  2  0  0  0
 14 16  1  0  0  0
 16 17  1  0  0  0
 16 38  1  0  0  0
 17 18  1  0  0  0
 17 39  1  0  0  0
 18 19  2  0  0  0
 18 20  1  0  0  0
 20 23  1  0  0  0
 20 21  1  0  0  0
 20 40  1  0  0  0
 21 22  1  0  0  0
 21 41  1  0  0  0
 21 42  1  0  0  0
 22 23  1  0  0  0
 22 43  1  0  0  0
 22 44  1  0  0  0
 23 45  1  0  0  0
 23 46  1  0  0  0
 24 29  2  0  0  0
 24 25  1  0  0  0
 25 26  2  0  0  0
 25 47  1  0  0  0
 26 27  1  0  0  0
 26 48  1  0  0  0
 27 28  2  0  0  0
 27 49  1  0  0  0
 28 29  1  0  0  0
 28 50  1  0  0  0
 29 30  1  0  0  0
M  END
> <i_i_glide_confnum>
234

> <i_i_glide_lignum>
2129

> <i_i_glide_posenum>
63

> <i_i_glide_rotatable_bonds>
9

> <i_m_Source_File_Index>
2403

> <b_m_subgroup_collapsed>
0

> <r_i_docking_score>
-6.04688

> <r_i_glide_ecoul>
-3.80356

> <r_i_glide_eff_state_penalty>
0

> <r_i_glide_einternal>
5.66644

> <r_i_glide_emodel>
-64.5863

> <r_i_glide_energy>
-48.1341

> <r_i_glide_erotb>
0.687214

> <r_i_glide_esite>
-0.171806

> <r_i_glide_evdw>
-44.3306

> <r_i_glide_gscore>
-6.04688

> <r_i_glide_hbond>
-0.131117

> <r_i_glide_ligand_efficiency>
-0.201563

> <r_i_glide_ligand_efficiency_ln>
-1.37392

> <r_i_glide_ligand_efficiency_sa>
-0.626303

> <r_i_glide_lipo>
-2.77429

> <r_i_glide_metal>
0

> <r_i_glide_rewards>
-0.869823

> <s_i_glide_gridfile>
wee1_glide-grid

> <s_m_Source_File>
wee1_decoys_glide_SP.sdf

> <s_m_Source_Path>
/Users/zhangxujun/Desktop

> <s_m_entry_id>
2678

> <s_m_entry_name>
wee1_decoys_glide_SP.2403

> <s_m_subgroup_title>
wee1_decoys_glide_SP

> <s_m_subgroupid>
wee1_decoys_glide_SP


$$$$
