ZINC63280093_2220
                    3D
 Schrodinger Suite 2024-2.
 59 62  0  0  1  0            999 V2000
    0.3051   48.5857   24.6152 C   0  0  0  0  0  0
   -0.8542   49.5654   24.4291 C   0  0  2  0  0  0
   -1.7785   48.9872   24.4975 H   0  0  0  0  0  0
   -0.8167   50.2154   23.0105 C   0  0  0  0  0  0
    0.3145   51.1961   22.7048 C   0  0  0  0  0  0
    1.3105   51.1470   21.7993 C   0  0  0  0  0  0
    1.6673   50.1151   20.8131 C   0  0  0  0  0  0
    2.7042   50.2978   19.9713 C   0  0  0  0  0  0
    3.4659   51.5364   20.0817 C   0  0  0  0  0  0
    3.1500   52.5012   20.9802 C   0  0  0  0  0  0
    2.0629   52.3277   21.8434 C   0  0  0  0  0  0
    1.5849   53.1477   22.7401 N   0  3  0  0  0  0
    0.4357   52.5293   23.4090 C   0  0  0  0  0  0
   -0.8523   50.4657   25.5830 N   0  0  0  0  0  0
   -1.5536   51.5945   25.7562 C   0  0  0  0  0  0
   -2.3224   52.0501   24.9111 O   0  0  0  0  0  0
   -1.3043   52.3127   26.9779 C   0  0  0  0  0  0
   -0.1793   52.3671   27.7321 C   0  0  0  0  0  0
   -0.0190   53.2214   28.9793 C   0  0  0  0  0  0
    1.6082   52.9080   29.6793 S   0  0  0  0  0  0
    2.2172   52.1619   28.1686 C   0  0  1  0  0  0
    2.8309   51.3104   28.4591 H   0  0  0  0  0  0
    1.0028   51.6815   27.5188 N   0  0  0  0  0  0
    3.0672   53.1220   27.3275 C   0  0  0  0  0  0
    2.6005   53.7570   26.1732 C   0  0  0  0  0  0
    3.4712   54.4966   25.3710 C   0  0  0  0  0  0
    4.8118   54.6381   25.7205 C   0  0  0  0  0  0
    5.2851   54.0687   26.9088 C   0  0  0  0  0  0
    4.4039   53.2971   27.6911 C   0  0  0  0  0  0
    6.6047   54.3054   27.2430 O   0  0  0  0  0  0
    7.1052   53.7022   28.4223 C   0  0  0  0  0  0
    5.6370   55.3665   24.8983 O   0  0  0  0  0  0
    6.5351   54.5870   24.1186 C   0  0  0  0  0  0
    0.3040   47.8155   23.8457 H   0  0  0  0  0  0
    1.2635   49.0972   24.5467 H   0  0  0  0  0  0
    0.2504   48.0965   25.5878 H   0  0  0  0  0  0
   -0.7935   49.4221   22.2633 H   0  0  0  0  0  0
   -1.7550   50.7388   22.8277 H   0  0  0  0  0  0
    1.1072   49.1952   20.7267 H   0  0  0  0  0  0
    2.9790   49.5548   19.2323 H   0  0  0  0  0  0
    4.3030   51.6967   19.4119 H   0  0  0  0  0  0
    3.7410   53.4061   21.0006 H   0  0  0  0  0  0
   -0.4331   53.1778   23.2910 H   0  0  0  0  0  0
    0.6874   52.4196   24.4606 H   0  0  0  0  0  0
   -0.4638   50.0616   26.4243 H   0  0  0  0  0  0
   -0.7798   52.9937   29.7282 H   0  0  0  0  0  0
   -2.1571   52.8967   27.2688 H   0  0  0  0  0  0
   -0.0760   54.2761   28.7124 H   0  0  0  0  0  0
    1.1319   51.0030   26.7821 H   0  0  0  0  0  0
    1.5633   53.6829   25.8935 H   0  0  0  0  0  0
    3.1034   54.9750   24.4759 H   0  0  0  0  0  0
    4.7488   52.7978   28.5828 H   0  0  0  0  0  0
    8.0832   54.0966   28.6709 H   0  0  0  0  0  0
    6.4740   53.9203   29.2815 H   0  0  0  0  0  0
    7.2050   52.6291   28.2663 H   0  0  0  0  0  0
    7.1029   55.2428   23.4597 H   0  0  0  0  0  0
    6.0048   53.8669   23.4946 H   0  0  0  0  0  0
    7.2508   54.0448   24.7362 H   0  0  0  0  0  0
    1.9490   54.0749   22.9472 H   0  0  0  0  0  0
  1  2  1  0  0  0
  1 34  1  0  0  0
  1 35  1  0  0  0
  1 36  1  0  0  0
  2  3  1  0  0  0
  2  4  1  0  0  0
  2 14  1  0  0  0
  4  5  1  0  0  0
  4 37  1  0  0  0
  4 38  1  0  0  0
  5 13  1  0  0  0
  5  6  2  0  0  0
  6 11  1  0  0  0
  6  7  1  0  0  0
  7  8  2  0  0  0
  7 39  1  0  0  0
  8  9  1  0  0  0
  8 40  1  0  0  0
  9 10  2  0  0  0
  9 41  1  0  0  0
 10 11  1  0  0  0
 10 42  1  0  0  0
 11 12  2  0  0  0
 12 13  1  0  0  0
 12 59  1  0  0  0
 13 43  1  0  0  0
 13 44  1  0  0  0
 14 45  1  0  0  0
 14 15  1  0  0  0
 15 16  2  0  0  0
 15 17  1  0  0  0
 17 47  1  0  0  0
 17 18  2  0  0  0
 18 19  1  0  0  0
 18 23  1  0  0  0
 19 20  1  0  0  0
 19 48  1  0  0  0
 19 46  1  0  0  0
 20 21  1  0  0  0
 21 22  1  0  0  0
 21 24  1  0  0  0
 21 23  1  0  0  0
 23 49  1  0  0  0
 24 29  2  0  0  0
 24 25  1  0  0  0
 25 26  2  0  0  0
 25 50  1  0  0  0
 26 27  1  0  0  0
 26 51  1  0  0  0
 27 28  2  0  0  0
 27 32  1  0  0  0
 28 29  1  0  0  0
 28 30  1  0  0  0
 29 52  1  0  0  0
 30 31  1  0  0  0
 31 53  1  0  0  0
 31 54  1  0  0  0
 31 55  1  0  0  0
 32 33  1  0  0  0
 33 56  1  0  0  0
 33 57  1  0  0  0
 33 58  1  0  0  0
M  CHG  1  12   1
M  END
> <i_i_glide_confnum>
67

> <i_i_glide_lignum>
2221

> <i_i_glide_posenum>
79

> <i_i_glide_rotatable_bonds>
8

> <i_m_Source_File_Index>
4670

> <b_m_subgroup_collapsed>
0

> <r_i_docking_score>
-5.0494

> <r_i_glide_ecoul>
-3.88798

> <r_i_glide_eff_state_penalty>
0

> <r_i_glide_einternal>
8.66074

> <r_i_glide_emodel>
-56.3747

> <r_i_glide_energy>
-44.95

> <r_i_glide_erotb>
0.518641

> <r_i_glide_esite>
-0.0659829

> <r_i_glide_evdw>
-41.062

> <r_i_glide_gscore>
-5.0494

> <r_i_glide_hbond>
0

> <r_i_glide_ligand_efficiency>
-0.162884

> <r_i_glide_ligand_efficiency_ln>
-1.1388

> <r_i_glide_ligand_efficiency_sa>
-0.511681

> <r_i_glide_lipo>
-2.44688

> <r_i_glide_metal>
0

> <r_i_glide_rewards>
-0.418886

> <s_i_glide_gridfile>
wee1_glide-grid

> <s_m_Source_File>
wee1_decoys_glide_SP.sdf

> <s_m_Source_Path>
/Users/zhangxujun/Desktop

> <s_m_entry_id>
4945

> <s_m_entry_name>
wee1_decoys_glide_SP.4670

> <s_m_subgroup_title>
wee1_decoys_glide_SP

> <s_m_subgroupid>
wee1_decoys_glide_SP


$$$$
