ZINC39684892_1294
                    3D
 Schrodinger Suite 2024-2.
 66 69  0  0  1  0            999 V2000
    3.3070   52.3554   30.8788 C   0  0  0  0  0  0
    3.9273   53.1906   29.7447 C   0  0  0  0  0  0
    3.2440   53.0780   28.3436 C   0  0  2  0  0  0
    3.3417   52.0282   28.0810 H   0  0  0  0  0  0
    3.9957   53.8202   27.2040 C   0  0  0  0  0  0
    3.3970   53.9870   25.9442 C   0  0  0  0  0  0
    4.1181   54.4994   24.8702 C   0  0  0  0  0  0
    5.4417   54.8905   25.0477 C   0  0  0  0  0  0
    6.0505   54.7574   26.2893 C   0  0  0  0  0  0
    5.3365   54.2196   27.3554 C   0  0  0  0  0  0
    1.7214   53.4082   28.4234 C   0  0  0  0  0  0
    1.3715   54.4131   29.0464 O   0  0  0  0  0  0
    0.8136   52.5713   27.8531 N   0  0  0  0  0  0
   -0.6229   52.7003   28.0780 C   0  0  0  0  0  0
   -1.1559   51.3503   27.5760 C   0  0  2  0  0  0
   -1.0130   50.6209   28.3758 H   0  0  0  0  0  0
   -0.2469   50.9897   26.3761 C   0  0  0  0  0  0
    1.1156   51.4514   26.9555 C   0  0  0  0  0  0
   -0.5914   51.7556   25.0580 C   0  0  0  0  0  0
    0.4229   51.4712   23.9275 C   0  0  0  0  0  0
    0.4359   49.9488   23.6559 N   0  3  0  0  0  0
    0.6562   49.0728   24.9100 C   0  0  0  0  0  0
   -0.3381   49.4886   26.0041 C   0  0  0  0  0  0
   -2.6713   51.4468   27.2818 C   0  0  0  0  0  0
   -3.1458   52.3905   26.6467 O   0  0  0  0  0  0
   -3.4259   50.4964   27.8535 N   0  0  0  0  0  0
   -4.8879   50.4250   27.8323 C   0  0  0  0  0  0
   -5.5583   50.8747   29.1297 C   0  0  0  0  0  0
   -5.0554   50.4681   30.3714 C   0  0  0  0  0  0
   -5.6956   50.8579   31.5460 C   0  0  0  0  0  0
   -6.8371   51.6595   31.4824 C   0  0  0  0  0  0
   -7.3316   52.0823   30.2475 C   0  0  0  0  0  0
   -6.6912   51.6923   29.0743 C   0  0  0  0  0  0
   -7.5127   52.0588   32.7085 C   0  0  0  0  0  0
   -8.0499   52.3801   33.6809 N   0  0  0  0  0  0
    3.8579   52.4969   31.8097 H   0  0  0  0  0  0
    2.2646   52.6116   31.0717 H   0  0  0  0  0  0
    3.3581   51.2978   30.6317 H   0  0  0  0  0  0
    4.9528   52.8293   29.6663 H   0  0  0  0  0  0
    3.9824   54.2382   30.0510 H   0  0  0  0  0  0
    2.3702   53.7047   25.7699 H   0  0  0  0  0  0
    3.6481   54.6094   23.9053 H   0  0  0  0  0  0
    5.9992   55.2977   24.2159 H   0  0  0  0  0  0
    7.0798   55.0530   26.4249 H   0  0  0  0  0  0
    5.8650   54.1189   28.2889 H   0  0  0  0  0  0
   -0.9773   53.5160   27.4489 H   0  0  0  0  0  0
   -0.8911   52.8732   29.1220 H   0  0  0  0  0  0
    1.5081   50.6381   27.5683 H   0  0  0  0  0  0
    1.8480   51.6972   26.1945 H   0  0  0  0  0  0
   -1.6023   51.5290   24.7147 H   0  0  0  0  0  0
   -0.5874   52.8309   25.2411 H   0  0  0  0  0  0
    0.1342   51.9435   22.9863 H   0  0  0  0  0  0
    1.4495   51.7594   24.1574 H   0  0  0  0  0  0
   -0.4512   49.6929   23.2432 H   0  0  0  0  0  0
    0.5212   48.0340   24.6024 H   0  0  0  0  0  0
    1.6861   49.2072   25.2123 H   0  0  0  0  0  0
   -0.0955   48.8897   26.8816 H   0  0  0  0  0  0
   -1.3587   49.2015   25.7481 H   0  0  0  0  0  0
   -2.9418   49.7443   28.3365 H   0  0  0  0  0  0
   -5.1714   49.3869   27.6515 H   0  0  0  0  0  0
   -5.2905   50.9971   26.9929 H   0  0  0  0  0  0
   -4.1725   49.8450   30.4313 H   0  0  0  0  0  0
   -5.2903   50.5350   32.4963 H   0  0  0  0  0  0
   -8.2145   52.7030   30.1871 H   0  0  0  0  0  0
   -7.0898   52.0145   28.1234 H   0  0  0  0  0  0
    1.1452   49.7307   22.9687 H   0  0  0  0  0  0
  1  2  1  0  0  0
  1 36  1  0  0  0
  1 37  1  0  0  0
  1 38  1  0  0  0
  2  3  1  0  0  0
  2 39  1  0  0  0
  2 40  1  0  0  0
  3  4  1  0  0  0
  3  5  1  0  0  0
  3 11  1  0  0  0
  5 10  2  0  0  0
  5  6  1  0  0  0
  6  7  2  0  0  0
  6 41  1  0  0  0
  7  8  1  0  0  0
  7 42  1  0  0  0
  8  9  2  0  0  0
  8 43  1  0  0  0
  9 10  1  0  0  0
  9 44  1  0  0  0
 10 45  1  0  0  0
 11 12  2  0  0  0
 11 13  1  0  0  0
 13 18  1  0  0  0
 13 14  1  0  0  0
 14 15  1  0  0  0
 14 46  1  0  0  0
 14 47  1  0  0  0
 15 16  1  0  0  0
 15 17  1  0  0  0
 15 24  1  0  0  0
 17 23  1  0  0  0
 17 18  1  0  0  0
 17 19  1  0  0  0
 18 48  1  0  0  0
 18 49  1  0  0  0
 19 20  1  0  0  0
 19 50  1  0  0  0
 19 51  1  0  0  0
 20 21  1  0  0  0
 20 52  1  0  0  0
 20 53  1  0  0  0
 21 22  1  0  0  0
 21 54  1  0  0  0
 21 66  1  0  0  0
 22 23  1  0  0  0
 22 55  1  0  0  0
 22 56  1  0  0  0
 23 57  1  0  0  0
 23 58  1  0  0  0
 24 25  2  0  0  0
 24 26  1  0  0  0
 26 27  1  0  0  0
 26 59  1  0  0  0
 27 28  1  0  0  0
 27 60  1  0  0  0
 27 61  1  0  0  0
 28 33  2  0  0  0
 28 29  1  0  0  0
 29 30  2  0  0  0
 29 62  1  0  0  0
 30 31  1  0  0  0
 30 63  1  0  0  0
 31 32  2  0  0  0
 31 34  1  0  0  0
 32 33  1  0  0  0
 32 64  1  0  0  0
 33 65  1  0  0  0
 34 35  3  0  0  0
M  CHG  1  21   1
M  END
> <i_i_glide_confnum>
96

> <i_i_glide_lignum>
1295

> <i_i_glide_posenum>
398

> <i_i_glide_rotatable_bonds>
9

> <i_m_Source_File_Index>
5207

> <b_m_subgroup_collapsed>
0

> <r_i_docking_score>
-5.38462

> <r_i_glide_ecoul>
-5.263

> <r_i_glide_eff_state_penalty>
0

> <r_i_glide_einternal>
5.87475

> <r_i_glide_emodel>
-57.4636

> <r_i_glide_energy>
-44.7229

> <r_i_glide_erotb>
0.705482

> <r_i_glide_esite>
-0.159612

> <r_i_glide_evdw>
-39.4599

> <r_i_glide_gscore>
-5.38462

> <r_i_glide_hbond>
-0.16

> <r_i_glide_ligand_efficiency>
-0.16317

> <r_i_glide_ligand_efficiency_ln>
-1.19751

> <r_i_glide_ligand_efficiency_sa>
-0.523374

> <r_i_glide_lipo>
-2.08525

> <r_i_glide_metal>
0

> <r_i_glide_rewards>
-0.922793

> <s_i_glide_gridfile>
wee1_glide-grid

> <s_m_Source_File>
wee1_decoys_glide_SP.sdf

> <s_m_Source_Path>
/Users/zhangxujun/Desktop

> <s_m_entry_id>
5482

> <s_m_entry_name>
wee1_decoys_glide_SP.5207

> <s_m_subgroup_title>
wee1_decoys_glide_SP

> <s_m_subgroupid>
wee1_decoys_glide_SP


$$$$
