ZINC36743848_4722
                    3D
 Schrodinger Suite 2024-2.
 33 35  0  0  1  0            999 V2000
    1.6361   53.2786   27.4250 C   0  0  0  0  0  0
    2.8412   53.8343   26.9875 C   0  0  0  0  0  0
    3.9768   53.8123   27.8152 C   0  0  0  0  0  0
    3.8619   53.2723   29.0979 C   0  0  0  0  0  0
    2.6562   52.7335   29.5419 C   0  0  0  0  0  0
    1.5452   52.7248   28.7006 C   0  0  0  0  0  0
    2.5419   52.0967   31.1404 Cl  0  0  0  0  0  0
    5.2283   54.3687   27.4728 N   0  0  0  0  0  0
    5.7975   54.6190   26.2735 C   0  0  0  0  0  0
    6.8183   55.2968   26.2366 O   0  0  0  0  0  0
    5.1984   54.0973   25.1814 N   0  0  0  0  0  0
    5.4373   54.3624   23.8113 C   0  0  0  0  0  0
    6.6634   54.8873   23.3386 C   0  0  0  0  0  0
    6.7853   55.1578   21.9814 C   0  0  0  0  0  0
    5.7761   54.9000   21.1036 C   0  0  0  0  0  0
    4.5654   54.3636   21.5160 C   0  0  0  0  0  0
    4.3937   54.0963   22.8821 C   0  0  0  0  0  0
    3.1481   53.5913   23.2717 N   0  0  0  0  0  0
    6.1516   55.2876   19.8584 O   0  0  0  0  0  0
    7.5070   55.6358   19.9516 C   0  0  0  0  0  0
    7.8369   55.6989   21.3130 O   0  0  0  0  0  0
    0.7680   53.2909   26.7843 H   0  0  0  0  0  0
    2.8586   54.3066   26.0188 H   0  0  0  0  0  0
    4.7048   53.2705   29.7661 H   0  0  0  0  0  0
    0.6094   52.3053   29.0424 H   0  0  0  0  0  0
    5.8007   54.6263   28.2641 H   0  0  0  0  0  0
    4.4261   53.4808   25.3678 H   0  0  0  0  0  0
    7.5013   55.0887   23.9863 H   0  0  0  0  0  0
    3.7694   54.1819   20.8066 H   0  0  0  0  0  0
    2.4464   53.4355   22.5628 H   0  0  0  0  0  0
    2.9710   53.3441   24.2315 H   0  0  0  0  0  0
    8.1104   54.8642   19.4740 H   0  0  0  0  0  0
    7.6845   56.5964   19.4678 H   0  0  0  0  0  0
  1  6  2  0  0  0
  1  2  1  0  0  0
  1 22  1  0  0  0
  2  3  2  0  0  0
  2 23  1  0  0  0
  3  4  1  0  0  0
  3  8  1  0  0  0
  4  5  2  0  0  0
  4 24  1  0  0  0
  5  6  1  0  0  0
  5  7  1  0  0  0
  6 25  1  0  0  0
  8  9  1  0  0  0
  8 26  1  0  0  0
  9 10  2  0  0  0
  9 11  1  0  0  0
 11 12  1  0  0  0
 11 27  1  0  0  0
 12 17  2  0  0  0
 12 13  1  0  0  0
 13 14  2  0  0  0
 13 28  1  0  0  0
 14 21  1  0  0  0
 14 15  1  0  0  0
 15 16  2  0  0  0
 15 19  1  0  0  0
 16 17  1  0  0  0
 16 29  1  0  0  0
 17 18  1  0  0  0
 18 30  1  0  0  0
 18 31  1  0  0  0
 19 20  1  0  0  0
 20 21  1  0  0  0
 20 32  1  0  0  0
 20 33  1  0  0  0
M  END
> <i_i_glide_confnum>
10

> <i_i_glide_lignum>
4723

> <i_i_glide_posenum>
289

> <i_i_glide_rotatable_bonds>
4

> <i_m_Source_File_Index>
6064

> <b_m_subgroup_collapsed>
0

> <r_i_docking_score>
-5.97934

> <r_i_glide_ecoul>
-5.93382

> <r_i_glide_eff_state_penalty>
0

> <r_i_glide_einternal>
1.33383

> <r_i_glide_emodel>
-56.6844

> <r_i_glide_energy>
-43.9945

> <r_i_glide_erotb>
0.59258

> <r_i_glide_esite>
0

> <r_i_glide_evdw>
-38.0607

> <r_i_glide_gscore>
-5.97934

> <r_i_glide_hbond>
-0.32

> <r_i_glide_ligand_efficiency>
-0.28473

> <r_i_glide_ligand_efficiency_ln>
-1.47838

> <r_i_glide_ligand_efficiency_sa>
-0.78555

> <r_i_glide_lipo>
-2.32057

> <r_i_glide_metal>
0

> <r_i_glide_rewards>
-1.13824

> <s_i_glide_gridfile>
wee1_glide-grid

> <s_m_Source_File>
wee1_decoys_glide_SP.sdf

> <s_m_Source_Path>
/Users/zhangxujun/Desktop

> <s_m_entry_id>
6339

> <s_m_entry_name>
wee1_decoys_glide_SP.6064

> <s_m_subgroup_title>
wee1_decoys_glide_SP

> <s_m_subgroupid>
wee1_decoys_glide_SP


$$$$
