ZINC27550678_2310
                    3D
 Schrodinger Suite 2024-2.
 57 60  0  0  1  0            999 V2000
    3.2052   59.1626   15.1311 C   0  0  0  0  0  0
    2.6592   58.1900   16.1886 C   0  0  0  0  0  0
    3.4143   56.8778   16.2601 C   0  0  0  0  0  0
    3.7964   56.1613   17.3880 C   0  0  0  0  0  0
    4.5464   54.9984   17.1582 C   0  0  0  0  0  0
    4.7171   54.7915   15.7893 C   0  0  0  0  0  0
    3.9345   56.0129   14.8449 S   0  0  0  0  0  0
    5.5864   53.4805   14.9966 S   0  0  0  0  0  0
    7.2509   54.2144   15.0331 C   0  0  0  0  0  0
    8.2411   53.4862   15.9496 C   0  0  0  0  0  0
    5.1339   54.1283   18.2707 C   0  0  1  0  0  0
    5.7675   53.3575   17.8302 H   0  0  0  0  0  0
    6.0677   54.9643   19.1463 C   0  0  0  0  0  0
    6.0407   54.9204   20.4936 C   0  0  0  0  0  0
    5.1486   54.0899   21.2046 N   0  0  0  0  0  0
    4.2038   53.2981   20.5035 C   0  0  0  0  0  0
    4.1289   53.3152   19.1318 C   0  0  0  0  0  0
    3.1046   52.5094   18.3933 C   0  0  0  0  0  0
    2.7940   52.7305   17.2244 O   0  0  0  0  0  0
    2.2677   51.5089   19.1981 C   0  0  0  0  0  0
    3.0059   51.0492   20.4563 C   0  0  0  0  0  0
    3.3713   52.2720   21.3073 C   0  0  0  0  0  0
    5.1278   54.1329   22.6349 C   0  0  0  0  0  0
    6.3024   53.9401   23.3771 C   0  0  0  0  0  0
    6.3088   54.0965   24.7588 C   0  0  0  0  0  0
    5.1202   54.3399   25.4537 C   0  0  0  0  0  0
    3.9356   54.4966   24.7238 C   0  0  0  0  0  0
    3.9482   54.4308   23.3321 C   0  0  0  0  0  0
    5.1181   54.4052   26.9358 N   0  3  0  0  0  0
    4.0403   54.4975   27.5167 O   0  0  0  0  0  0
    6.1956   54.3608   27.5237 O   0  5  0  0  0  0
    6.8824   55.7390   21.2214 N   0  0  0  0  0  0
    6.9755   55.8525   18.4818 C   0  0  0  0  0  0
    7.7259   56.5783   17.9837 N   0  0  0  0  0  0
    2.6879   60.1210   15.1833 H   0  0  0  0  0  0
    3.0820   58.7732   14.1199 H   0  0  0  0  0  0
    4.2670   59.3607   15.2866 H   0  0  0  0  0  0
    2.7043   58.6888   17.1567 H   0  0  0  0  0  0
    1.6015   58.0070   15.9981 H   0  0  0  0  0  0
    3.5656   56.4964   18.3878 H   0  0  0  0  0  0
    7.6338   54.1990   14.0123 H   0  0  0  0  0  0
    7.1980   55.2672   15.3141 H   0  0  0  0  0  0
    9.2273   53.9492   15.9043 H   0  0  0  0  0  0
    7.9182   53.5106   16.9894 H   0  0  0  0  0  0
    8.3516   52.4408   15.6591 H   0  0  0  0  0  0
    1.9839   50.6783   18.5509 H   0  0  0  0  0  0
    1.3569   52.0306   19.4917 H   0  0  0  0  0  0
    3.9037   50.4972   20.1711 H   0  0  0  0  0  0
    2.3896   50.3554   21.0295 H   0  0  0  0  0  0
    4.0001   51.8384   22.0817 H   0  0  0  0  0  0
    2.5055   52.7135   21.8002 H   0  0  0  0  0  0
    7.2315   53.6981   22.8819 H   0  0  0  0  0  0
    7.2373   53.9596   25.2922 H   0  0  0  0  0  0
    3.0024   54.6989   25.2290 H   0  0  0  0  0  0
    3.0339   54.6258   22.7910 H   0  0  0  0  0  0
    7.5988   56.2718   20.7498 H   0  0  0  0  0  0
    6.9158   55.6926   22.2296 H   0  0  0  0  0  0
  1  2  1  0  0  0
  1 35  1  0  0  0
  1 36  1  0  0  0
  1 37  1  0  0  0
  2  3  1  0  0  0
  2 38  1  0  0  0
  2 39  1  0  0  0
  3  7  1  0  0  0
  3  4  2  0  0  0
  4  5  1  0  0  0
  4 40  1  0  0  0
  5  6  2  0  0  0
  5 11  1  0  0  0
  6  7  1  0  0  0
  6  8  1  0  0  0
  8  9  1  0  0  0
  9 10  1  0  0  0
  9 41  1  0  0  0
  9 42  1  0  0  0
 10 43  1  0  0  0
 10 44  1  0  0  0
 10 45  1  0  0  0
 11 12  1  0  0  0
 11 17  1  0  0  0
 11 13  1  0  0  0
 13 14  2  0  0  0
 13 33  1  0  0  0
 14 15  1  0  0  0
 14 32  1  0  0  0
 15 16  1  0  0  0
 15 23  1  0  0  0
 16 22  1  0  0  0
 16 17  2  0  0  0
 17 18  1  0  0  0
 18 19  2  0  0  0
 18 20  1  0  0  0
 20 21  1  0  0  0
 20 46  1  0  0  0
 20 47  1  0  0  0
 21 22  1  0  0  0
 21 48  1  0  0  0
 21 49  1  0  0  0
 22 50  1  0  0  0
 22 51  1  0  0  0
 23 28  2  0  0  0
 23 24  1  0  0  0
 24 25  2  0  0  0
 24 52  1  0  0  0
 25 26  1  0  0  0
 25 53  1  0  0  0
 26 27  2  0  0  0
 26 29  1  0  0  0
 27 28  1  0  0  0
 27 54  1  0  0  0
 28 55  1  0  0  0
 29 30  2  0  0  0
 29 31  1  0  0  0
 32 56  1  0  0  0
 32 57  1  0  0  0
 33 34  3  0  0  0
M  CHG  2  29   1  31  -1
M  END
> <i_i_glide_confnum>
1

> <i_i_glide_lignum>
2311

> <i_i_glide_posenum>
108

> <i_i_glide_rotatable_bonds>
7

> <i_m_Source_File_Index>
2246

> <b_m_subgroup_collapsed>
0

> <r_i_docking_score>
-3.97771

> <r_i_glide_ecoul>
1.8655

> <r_i_glide_eff_state_penalty>
0

> <r_i_glide_einternal>
6.04011

> <r_i_glide_emodel>
-41.6988

> <r_i_glide_energy>
-36.5893

> <r_i_glide_erotb>
0.263402

> <r_i_glide_esite>
-0.06018

> <r_i_glide_evdw>
-38.4548

> <r_i_glide_gscore>
-3.97771

> <r_i_glide_hbond>
0

> <r_i_glide_ligand_efficiency>
-0.120537

> <r_i_glide_ligand_efficiency_ln>
-0.884623

> <r_i_glide_ligand_efficiency_sa>
-0.386626

> <r_i_glide_lipo>
-1.80627

> <r_i_glide_metal>
0

> <r_i_glide_rewards>
-0.731749

> <s_i_glide_gridfile>
wee1_glide-grid

> <s_m_Source_File>
wee1_decoys_glide_SP.sdf

> <s_m_Source_Path>
/Users/zhangxujun/Desktop

> <s_m_entry_id>
2521

> <s_m_entry_name>
wee1_decoys_glide_SP.2246

> <s_m_subgroup_title>
wee1_decoys_glide_SP

> <s_m_subgroupid>
wee1_decoys_glide_SP


$$$$
