ZINC22573063_4331
                    3D
 Schrodinger Suite 2024-2.
 40 41  0  0  1  0            999 V2000
    4.2801   54.6692   29.6828 C   0  0  0  0  0  0
    3.5851   53.6957   28.7569 C   0  0  0  0  0  0
    2.7543   52.8562   29.2614 N   0  0  0  0  0  0
    2.1145   51.9584   28.4633 N   0  0  0  0  0  0
    0.3773   52.1571   28.1753 S   0  0  0  0  0  0
   -0.3214   51.3000   29.1343 O   0  0  0  0  0  0
    0.0547   53.5858   28.0955 O   0  0  0  0  0  0
    0.1455   51.4390   26.5378 C   0  0  0  0  0  0
    0.1893   52.2297   25.3865 C   0  0  0  0  0  0
    0.1069   51.6428   24.1257 C   0  0  0  0  0  0
   -0.0307   50.2608   24.0158 C   0  0  0  0  0  0
   -0.1066   49.4678   25.1571 C   0  0  0  0  0  0
   -0.0255   50.0618   26.4119 C   0  0  0  0  0  0
   -0.1157   49.4487   22.2969 Br  0  0  0  0  0  0
    3.8911   53.9120   27.3276 C   0  0  0  0  0  0
    2.8576   54.0915   26.4101 C   0  0  0  0  0  0
    3.1053   54.1774   25.0508 C   0  0  0  0  0  0
    4.4118   54.1470   24.5859 C   0  0  0  0  0  0
    5.4753   54.0962   25.5016 C   0  0  0  0  0  0
    5.2105   53.9553   26.8615 C   0  0  0  0  0  0
    4.5299   54.1409   23.1906 N   0  0  0  0  0  0
    5.6352   54.1157   22.4245 C   0  0  0  0  0  0
    6.7809   54.0973   22.8792 O   0  0  0  0  0  0
    5.3990   54.0673   20.8977 C   0  0  0  0  0  0
    6.3010   54.8248   20.2693 F   0  0  0  0  0  0
    4.1756   54.4967   20.5895 F   0  0  0  0  0  0
    5.5016   52.8086   20.4720 F   0  0  0  0  0  0
    5.3054   54.8963   29.3892 H   0  0  0  0  0  0
    3.7244   55.6051   29.6817 H   0  0  0  0  0  0
    4.3026   54.2993   30.7070 H   0  0  0  0  0  0
    2.2408   50.9972   28.7893 H   0  0  0  0  0  0
    0.3039   53.2960   25.4557 H   0  0  0  0  0  0
    0.1583   52.2544   23.2370 H   0  0  0  0  0  0
   -0.2208   48.3963   25.0791 H   0  0  0  0  0  0
   -0.0937   49.4338   27.2817 H   0  0  0  0  0  0
    1.8419   54.1526   26.7453 H   0  0  0  0  0  0
    2.2722   54.2639   24.3674 H   0  0  0  0  0  0
    6.5072   54.0858   25.1935 H   0  0  0  0  0  0
    6.0442   53.8391   27.5394 H   0  0  0  0  0  0
    3.6522   54.1523   22.6913 H   0  0  0  0  0  0
  1  2  1  0  0  0
  1 28  1  0  0  0
  1 29  1  0  0  0
  1 30  1  0  0  0
  2  3  2  0  0  0
  2 15  1  0  0  0
  3  4  1  0  0  0
  4  5  1  0  0  0
  4 31  1  0  0  0
  5  6  2  0  0  0
  5  7  2  0  0  0
  5  8  1  0  0  0
  8 13  2  0  0  0
  8  9  1  0  0  0
  9 10  2  0  0  0
  9 32  1  0  0  0
 10 11  1  0  0  0
 10 33  1  0  0  0
 11 12  2  0  0  0
 11 14  1  0  0  0
 12 13  1  0  0  0
 12 34  1  0  0  0
 13 35  1  0  0  0
 15 20  2  0  0  0
 15 16  1  0  0  0
 16 17  2  0  0  0
 16 36  1  0  0  0
 17 18  1  0  0  0
 17 37  1  0  0  0
 18 19  2  0  0  0
 18 21  1  0  0  0
 19 20  1  0  0  0
 19 38  1  0  0  0
 20 39  1  0  0  0
 21 22  1  0  0  0
 21 40  1  0  0  0
 22 23  2  0  0  0
 22 24  1  0  0  0
 24 25  1  0  0  0
 24 26  1  0  0  0
 24 27  1  0  0  0
M  END
> <i_i_glide_confnum>
121

> <i_i_glide_lignum>
4332

> <i_i_glide_posenum>
93

> <i_i_glide_rotatable_bonds>
7

> <i_m_Source_File_Index>
1678

> <b_m_subgroup_collapsed>
0

> <r_i_docking_score>
-4.50903

> <r_i_glide_ecoul>
-1.32542

> <r_i_glide_eff_state_penalty>
0

> <r_i_glide_einternal>
8.72703

> <r_i_glide_emodel>
-45.5497

> <r_i_glide_energy>
-37.959

> <r_i_glide_erotb>
0.467626

> <r_i_glide_esite>
-0.0994965

> <r_i_glide_evdw>
-36.6336

> <r_i_glide_gscore>
-4.50903

> <r_i_glide_hbond>
0

> <r_i_glide_ligand_efficiency>
-0.167001

> <r_i_glide_ligand_efficiency_ln>
-1.04963

> <r_i_glide_ligand_efficiency_sa>
-0.501004

> <r_i_glide_lipo>
-1.67861

> <r_i_glide_metal>
0

> <r_i_glide_rewards>
-1.16806

> <s_i_glide_gridfile>
wee1_glide-grid

> <s_m_Source_File>
wee1_decoys_glide_SP.sdf

> <s_m_Source_Path>
/Users/zhangxujun/Desktop

> <s_m_entry_id>
1953

> <s_m_entry_name>
wee1_decoys_glide_SP.1678

> <s_m_subgroup_title>
wee1_decoys_glide_SP

> <s_m_subgroupid>
wee1_decoys_glide_SP


$$$$
