ZINC09966207_2809
                    3D
 Schrodinger Suite 2024-2.
 55 58  0  0  1  0            999 V2000
   -3.7621   53.5160   24.5809 C   0  0  0  0  0  0
   -2.6317   52.5086   24.4844 C   0  0  0  0  0  0
   -2.8296   51.1896   24.8961 C   0  0  0  0  0  0
   -1.7931   50.2615   24.8023 C   0  0  0  0  0  0
   -0.5519   50.6303   24.2777 C   0  0  0  0  0  0
   -0.3427   51.9638   23.8630 C   0  0  0  0  0  0
   -1.3903   52.8903   23.9748 C   0  0  0  0  0  0
    0.9023   52.3980   23.3327 N   0  0  0  0  0  0
    1.7396   53.0662   24.2366 C   0  0  0  0  0  0
    1.4344   53.2965   25.4109 O   0  0  0  0  0  0
    3.0154   53.4324   23.6193 C   0  0  0  0  0  0
    4.1247   54.0955   24.1935 C   0  0  0  0  0  0
    5.1894   54.2030   23.2786 C   0  0  0  0  0  0
    4.7980   53.5427   21.7206 S   0  0  0  0  0  0
    3.2444   53.0711   22.2979 C   0  0  0  0  0  0
    2.3728   52.3928   21.5140 N   0  0  0  0  0  0
    1.2168   52.0952   21.9971 C   0  0  0  0  0  0
    0.0376   51.2526   20.8824 S   0  0  0  0  0  0
    1.0586   50.8104   19.4248 C   0  0  0  0  0  0
    1.3991   51.9931   18.5100 C   0  0  0  0  0  0
    0.4933   52.7468   18.1416 O   0  0  0  0  0  0
    2.7056   52.0967   18.1764 N   0  0  0  0  0  0
    3.3192   53.1179   17.5446 C   0  0  0  0  0  0
    2.7790   54.1409   17.1125 O   0  0  0  0  0  0
    4.6396   52.8973   17.4764 N   0  0  0  0  0  0
    5.6208   53.9050   17.0962 C   0  0  0  0  0  0
    6.5653   54.7677   23.6018 C   0  0  0  0  0  0
    6.4992   55.5363   24.9393 C   0  0  0  0  0  0
    5.7449   54.7474   26.0217 C   0  0  0  0  0  0
    4.2581   54.5485   25.6502 C   0  0  0  0  0  0
    0.5448   49.5753   24.1904 C   0  0  0  0  0  0
   -4.7139   53.0505   24.3225 H   0  0  0  0  0  0
   -3.8402   53.9077   25.5949 H   0  0  0  0  0  0
   -3.6203   54.3464   23.8886 H   0  0  0  0  0  0
   -3.7819   50.8798   25.3002 H   0  0  0  0  0  0
   -1.9638   49.2472   25.1361 H   0  0  0  0  0  0
   -1.2325   53.9183   23.6820 H   0  0  0  0  0  0
    0.5051   50.0823   18.8325 H   0  0  0  0  0  0
    1.9644   50.3072   19.7700 H   0  0  0  0  0  0
    3.3121   51.3488   18.4778 H   0  0  0  0  0  0
    4.9957   51.9618   17.6810 H   0  0  0  0  0  0
    6.6287   53.4978   17.1918 H   0  0  0  0  0  0
    5.5410   54.7832   17.7379 H   0  0  0  0  0  0
    5.4701   54.2134   16.0604 H   0  0  0  0  0  0
    7.2834   53.9514   23.6949 H   0  0  0  0  0  0
    6.9275   55.4238   22.8105 H   0  0  0  0  0  0
    7.5042   55.7727   25.2781 H   0  0  0  0  0  0
    6.0056   56.4984   24.7994 H   0  0  0  0  0  0
    6.2236   53.7755   26.1640 H   0  0  0  0  0  0
    5.8185   55.2633   26.9816 H   0  0  0  0  0  0
    3.7071   55.4770   25.7950 H   0  0  0  0  0  0
    3.8094   53.8286   26.3357 H   0  0  0  0  0  0
    0.3601   48.7323   24.8614 H   0  0  0  0  0  0
    0.6410   49.1988   23.1687 H   0  0  0  0  0  0
    1.5062   49.9930   24.4816 H   0  0  0  0  0  0
  1  2  1  0  0  0
  1 32  1  0  0  0
  1 33  1  0  0  0
  1 34  1  0  0  0
  2  7  2  0  0  0
  2  3  1  0  0  0
  3  4  2  0  0  0
  3 35  1  0  0  0
  4  5  1  0  0  0
  4 36  1  0  0  0
  5  6  2  0  0  0
  5 31  1  0  0  0
  6  7  1  0  0  0
  6  8  1  0  0  0
  7 37  1  0  0  0
  8 17  1  0  0  0
  8  9  1  0  0  0
  9 10  2  0  0  0
  9 11  1  0  0  0
 11 15  2  0  0  0
 11 12  1  0  0  0
 12 30  1  0  0  0
 12 13  2  0  0  0
 13 14  1  0  0  0
 13 27  1  0  0  0
 14 15  1  0  0  0
 15 16  1  0  0  0
 16 17  2  0  0  0
 17 18  1  0  0  0
 18 19  1  0  0  0
 19 20  1  0  0  0
 19 38  1  0  0  0
 19 39  1  0  0  0
 20 21  2  0  0  0
 20 22  1  0  0  0
 22 23  1  0  0  0
 22 40  1  0  0  0
 23 24  2  0  0  0
 23 25  1  0  0  0
 25 26  1  0  0  0
 25 41  1  0  0  0
 26 42  1  0  0  0
 26 43  1  0  0  0
 26 44  1  0  0  0
 27 28  1  0  0  0
 27 45  1  0  0  0
 27 46  1  0  0  0
 28 29  1  0  0  0
 28 47  1  0  0  0
 28 48  1  0  0  0
 29 30  1  0  0  0
 29 49  1  0  0  0
 29 50  1  0  0  0
 30 51  1  0  0  0
 30 52  1  0  0  0
 31 53  1  0  0  0
 31 54  1  0  0  0
 31 55  1  0  0  0
M  END
> <i_i_glide_confnum>
135

> <i_i_glide_lignum>
2810

> <i_i_glide_posenum>
283

> <i_i_glide_rotatable_bonds>
7

> <i_m_Source_File_Index>
2572

> <b_m_subgroup_collapsed>
0

> <r_i_docking_score>
-5.59767

> <r_i_glide_ecoul>
-3.75255

> <r_i_glide_eff_state_penalty>
0

> <r_i_glide_einternal>
1.01734

> <r_i_glide_emodel>
-61.2727

> <r_i_glide_energy>
-43.1401

> <r_i_glide_erotb>
0.578453

> <r_i_glide_esite>
-0.216834

> <r_i_glide_evdw>
-39.3876

> <r_i_glide_gscore>
-5.59767

> <r_i_glide_hbond>
-0.201533

> <r_i_glide_ligand_efficiency>
-0.18057

> <r_i_glide_ligand_efficiency_ln>
-1.26245

> <r_i_glide_ligand_efficiency_sa>
-0.56724

> <r_i_glide_lipo>
-2.70402

> <r_i_glide_metal>
0

> <r_i_glide_rewards>
-0.521476

> <s_i_glide_gridfile>
wee1_glide-grid

> <s_m_Source_File>
wee1_decoys_glide_SP.sdf

> <s_m_Source_Path>
/Users/zhangxujun/Desktop

> <s_m_entry_id>
2847

> <s_m_entry_name>
wee1_decoys_glide_SP.2572

> <s_m_subgroup_title>
wee1_decoys_glide_SP

> <s_m_subgroupid>
wee1_decoys_glide_SP


$$$$
