ZINC33630820_693
                    3D
 Schrodinger Suite 2024-2.
 50 53  0  0  1  0            999 V2000
   -3.6338   48.2373   25.8694 C   0  0  0  0  0  0
   -2.5041   48.7676   25.0063 C   0  0  0  0  0  0
   -2.7851   49.6521   23.9626 C   0  0  0  0  0  0
   -1.7494   50.1521   23.1773 C   0  0  0  0  0  0
   -0.4248   49.7775   23.4323 C   0  0  0  0  0  0
   -0.1531   48.8912   24.4803 C   0  0  0  0  0  0
   -1.1862   48.3929   25.2671 C   0  0  0  0  0  0
    0.6890   50.3058   22.5864 C   0  0  0  0  0  0
    1.8378   49.6960   22.4164 N   0  0  0  0  0  0
    2.7050   50.3932   21.5896 N   0  0  0  0  0  0
    2.1986   51.5308   21.1670 C   0  0  0  0  0  0
    0.5863   51.8320   21.7374 S   0  0  0  0  0  0
    2.8109   52.4967   20.3878 N   0  0  0  0  0  0
    4.1351   52.5870   20.1463 C   0  0  0  0  0  0
    4.9915   51.7705   20.4881 O   0  0  0  0  0  0
    4.5897   53.9136   19.5016 C   0  0  2  0  0  0
    3.7381   54.5921   19.4012 H   0  0  0  0  0  0
    5.2128   53.6866   18.1146 C   0  0  0  0  0  0
    6.1120   54.8925   17.9134 C   0  0  0  0  0  0
    6.6834   55.1161   19.3062 C   0  0  0  0  0  0
    5.6469   54.6643   20.2413 N   0  0  0  0  0  0
    5.7574   54.8953   21.5807 C   0  0  0  0  0  0
    6.7466   55.4452   22.0706 O   0  0  0  0  0  0
    4.6940   54.4926   22.3128 N   0  0  0  0  0  0
    4.5341   54.3778   23.7022 C   0  0  0  0  0  0
    3.2384   54.0968   24.1461 C   0  0  0  0  0  0
    2.9727   53.9530   25.5081 C   0  0  0  0  0  0
    4.0022   54.0899   26.4366 C   0  0  0  0  0  0
    5.3001   54.3532   26.0027 C   0  0  0  0  0  0
    5.5706   54.4963   24.6401 C   0  0  0  0  0  0
    6.7041   54.4966   27.2755 Br  0  0  0  0  0  0
   -4.0603   47.3331   25.4313 H   0  0  0  0  0  0
   -4.4272   48.9825   25.9674 H   0  0  0  0  0  0
   -3.2939   48.0160   26.8824 H   0  0  0  0  0  0
   -3.8029   49.9470   23.7537 H   0  0  0  0  0  0
   -1.9857   50.8263   22.3687 H   0  0  0  0  0  0
    0.8602   48.5917   24.6985 H   0  0  0  0  0  0
   -0.9585   47.7178   26.0820 H   0  0  0  0  0  0
    2.2247   53.2606   20.0789 H   0  0  0  0  0  0
    5.8163   52.7764   18.1076 H   0  0  0  0  0  0
    4.4616   53.5881   17.3279 H   0  0  0  0  0  0
    6.8777   54.7388   17.1522 H   0  0  0  0  0  0
    5.5067   55.7514   17.6216 H   0  0  0  0  0  0
    7.5762   54.5055   19.4555 H   0  0  0  0  0  0
    6.9598   56.1615   19.4609 H   0  0  0  0  0  0
    3.9037   54.1629   21.7812 H   0  0  0  0  0  0
    2.4241   53.9896   23.4421 H   0  0  0  0  0  0
    1.9691   53.7374   25.8422 H   0  0  0  0  0  0
    3.7989   53.9735   27.4914 H   0  0  0  0  0  0
    6.5878   54.6884   24.3360 H   0  0  0  0  0  0
  1  2  1  0  0  0
  1 32  1  0  0  0
  1 33  1  0  0  0
  1 34  1  0  0  0
  2  7  2  0  0  0
  2  3  1  0  0  0
  3  4  2  0  0  0
  3 35  1  0  0  0
  4  5  1  0  0  0
  4 36  1  0  0  0
  5  6  2  0  0  0
  5  8  1  0  0  0
  6  7  1  0  0  0
  6 37  1  0  0  0
  7 38  1  0  0  0
  8 12  1  0  0  0
  8  9  2  0  0  0
  9 10  1  0  0  0
 10 11  2  0  0  0
 11 12  1  0  0  0
 11 13  1  0  0  0
 13 14  1  0  0  0
 13 39  1  0  0  0
 14 15  2  0  0  0
 14 16  1  0  0  0
 16 17  1  0  0  0
 16 21  1  0  0  0
 16 18  1  0  0  0
 18 19  1  0  0  0
 18 40  1  0  0  0
 18 41  1  0  0  0
 19 20  1  0  0  0
 19 42  1  0  0  0
 19 43  1  0  0  0
 20 21  1  0  0  0
 20 44  1  0  0  0
 20 45  1  0  0  0
 21 22  1  0  0  0
 22 23  2  0  0  0
 22 24  1  0  0  0
 24 25  1  0  0  0
 24 46  1  0  0  0
 25 30  2  0  0  0
 25 26  1  0  0  0
 26 27  2  0  0  0
 26 47  1  0  0  0
 27 28  1  0  0  0
 27 48  1  0  0  0
 28 29  2  0  0  0
 28 49  1  0  0  0
 29 30  1  0  0  0
 29 31  1  0  0  0
 30 50  1  0  0  0
M  END
> <i_i_glide_confnum>
107

> <i_i_glide_lignum>
694

> <i_i_glide_posenum>
270

> <i_i_glide_rotatable_bonds>
7

> <i_m_Source_File_Index>
403

> <b_m_subgroup_collapsed>
0

> <r_i_docking_score>
-5.29577

> <r_i_glide_ecoul>
-6.86561

> <r_i_glide_eff_state_penalty>
0

> <r_i_glide_einternal>
8.13615

> <r_i_glide_emodel>
-61.699

> <r_i_glide_energy>
-49.4279

> <r_i_glide_erotb>
0.601312

> <r_i_glide_esite>
-0.0523004

> <r_i_glide_evdw>
-42.5622

> <r_i_glide_gscore>
-5.29577

> <r_i_glide_hbond>
-0.252623

> <r_i_glide_ligand_efficiency>
-0.176526

> <r_i_glide_ligand_efficiency_ln>
-1.20326

> <r_i_glide_ligand_efficiency_sa>
-0.548506

> <r_i_glide_lipo>
-1.85724

> <r_i_glide_metal>
0

> <r_i_glide_rewards>
-0.576964

> <s_i_glide_gridfile>
wee1_glide-grid

> <s_m_Source_File>
wee1_decoys_glide_SP.sdf

> <s_m_Source_Path>
/Users/zhangxujun/Desktop

> <s_m_entry_id>
678

> <s_m_entry_name>
wee1_decoys_glide_SP.403

> <s_m_subgroup_title>
wee1_decoys_glide_SP

> <s_m_subgroupid>
wee1_decoys_glide_SP


$$$$
