ZINC00664726_6015
                    3D
 Schrodinger Suite 2024-2.
 58 62  0  0  1  0            999 V2000
   -5.7043   50.8162   25.8969 C   0  0  0  0  0  0
   -4.4517   51.0875   26.7187 C   0  0  0  0  0  0
   -3.4135   51.8298   26.1516 C   0  0  0  0  0  0
   -2.2567   52.0969   26.8801 C   0  0  0  0  0  0
   -2.1063   51.6338   28.1907 C   0  0  0  0  0  0
   -3.1551   50.8965   28.7539 C   0  0  0  0  0  0
   -4.3207   50.6151   28.0345 C   0  0  0  0  0  0
   -5.4079   49.7766   28.6924 C   0  0  0  0  0  0
   -0.8756   51.9449   28.9968 C   0  0  0  0  0  0
    0.3908   52.4510   28.6563 C   0  0  0  0  0  0
    1.0851   52.4743   29.8761 C   0  0  0  0  0  0
    0.3743   52.0985   30.9001 N   0  0  0  0  0  0
   -0.7966   51.7600   30.3603 N   0  0  0  0  0  0
   -1.5382   51.3933   30.9490 H   0  0  0  0  0  0
    2.4042   52.8074   30.0503 O   0  0  0  0  0  0
    3.0601   53.1553   28.9141 C   0  0  0  0  0  0
    2.5645   53.1563   27.6532 C   0  0  0  0  0  0
    1.1074   52.7661   27.3292 C   0  0  1  0  0  0
    0.6905   53.6709   26.9011 H   0  0  0  0  0  0
    0.9130   51.6767   26.2527 C   0  0  0  0  0  0
    0.5411   50.3725   26.6347 C   0  0  0  0  0  0
    0.2997   49.3776   25.6947 C   0  0  0  0  0  0
    0.4302   49.6594   24.3441 C   0  0  0  0  0  0
    0.8018   50.9371   23.9417 C   0  0  0  0  0  0
    1.0474   51.9598   24.8776 C   0  0  0  0  0  0
    1.4143   53.2390   24.5057 O   0  0  0  0  0  0
    1.2428   53.6620   23.1547 C   0  0  0  0  0  0
    2.4559   53.3770   22.2717 C   0  0  0  0  0  0
    2.3502   52.5202   21.1680 C   0  0  0  0  0  0
    3.3847   52.4524   20.2383 C   0  0  0  0  0  0
    4.5166   53.2454   20.4077 C   0  0  0  0  0  0
    4.6634   54.0384   21.5440 C   0  0  0  0  0  0
    3.6332   54.0986   22.4782 C   0  0  0  0  0  0
    5.7095   53.3012   19.1631 Cl  0  0  0  0  0  0
    3.4019   53.6549   26.6088 C   0  0  0  0  0  0
    4.1299   54.1034   25.8295 N   0  0  0  0  0  0
    4.3256   53.5136   29.2810 N   0  0  0  0  0  0
   -5.7651   49.7588   25.6388 H   0  0  0  0  0  0
   -6.5965   51.0713   26.4689 H   0  0  0  0  0  0
   -5.7307   51.4048   24.9793 H   0  0  0  0  0  0
   -3.4977   52.2064   25.1429 H   0  0  0  0  0  0
   -1.4905   52.6960   26.4165 H   0  0  0  0  0  0
   -3.0536   50.5000   29.7546 H   0  0  0  0  0  0
   -6.2845   50.3874   28.9081 H   0  0  0  0  0  0
   -5.7181   48.9704   28.0274 H   0  0  0  0  0  0
   -5.0628   49.3094   29.6163 H   0  0  0  0  0  0
    0.4135   50.0981   27.6744 H   0  0  0  0  0  0
    0.0026   48.3924   26.0251 H   0  0  0  0  0  0
    0.2486   48.8885   23.6100 H   0  0  0  0  0  0
    0.8974   51.1034   22.8852 H   0  0  0  0  0  0
    1.1052   54.7433   23.1871 H   0  0  0  0  0  0
    0.3210   53.2753   22.7188 H   0  0  0  0  0  0
    1.4416   51.9719   20.9733 H   0  0  0  0  0  0
    3.2876   51.8350   19.3559 H   0  0  0  0  0  0
    5.5468   54.6457   21.6745 H   0  0  0  0  0  0
    3.7177   54.7713   23.3180 H   0  0  0  0  0  0
    4.9719   53.8645   28.5883 H   0  0  0  0  0  0
    4.7189   53.1629   30.1410 H   0  0  0  0  0  0
  1  2  1  0  0  0
  1 38  1  0  0  0
  1 39  1  0  0  0
  1 40  1  0  0  0
  2  7  2  0  0  0
  2  3  1  0  0  0
  3  4  2  0  0  0
  3 41  1  0  0  0
  4  5  1  0  0  0
  4 42  1  0  0  0
  5  6  2  0  0  0
  5  9  1  0  0  0
  6  7  1  0  0  0
  6 43  1  0  0  0
  7  8  1  0  0  0
  8 44  1  0  0  0
  8 45  1  0  0  0
  8 46  1  0  0  0
  9 13  1  0  0  0
  9 10  2  0  0  0
 10 18  1  0  0  0
 10 11  1  0  0  0
 11 12  2  0  0  0
 11 15  1  0  0  0
 12 13  1  0  0  0
 13 14  1  0  0  0
 15 16  1  0  0  0
 16 17  2  0  0  0
 16 37  1  0  0  0
 17 18  1  0  0  0
 17 35  1  0  0  0
 18 19  1  0  0  0
 18 20  1  0  0  0
 20 25  2  0  0  0
 20 21  1  0  0  0
 21 22  2  0  0  0
 21 47  1  0  0  0
 22 23  1  0  0  0
 22 48  1  0  0  0
 23 24  2  0  0  0
 23 49  1  0  0  0
 24 25  1  0  0  0
 24 50  1  0  0  0
 25 26  1  0  0  0
 26 27  1  0  0  0
 27 28  1  0  0  0
 27 51  1  0  0  0
 27 52  1  0  0  0
 28 33  2  0  0  0
 28 29  1  0  0  0
 29 30  2  0  0  0
 29 53  1  0  0  0
 30 31  1  0  0  0
 30 54  1  0  0  0
 31 32  2  0  0  0
 31 34  1  0  0  0
 32 33  1  0  0  0
 32 55  1  0  0  0
 33 56  1  0  0  0
 35 36  3  0  0  0
 37 57  1  0  0  0
 37 58  1  0  0  0
M  END
> <i_i_glide_confnum>
111

> <i_i_glide_lignum>
6016

> <i_i_glide_posenum>
378

> <i_i_glide_rotatable_bonds>
6

> <i_m_Source_File_Index>
6059

> <b_m_subgroup_collapsed>
0

> <r_i_docking_score>
-3.52247

> <r_i_glide_ecoul>
-3.20753

> <r_i_glide_eff_state_penalty>
0

> <r_i_glide_einternal>
4.39204

> <r_i_glide_emodel>
-37.971

> <r_i_glide_energy>
-36.7808

> <r_i_glide_erotb>
0.435096

> <r_i_glide_esite>
-0.0881421

> <r_i_glide_evdw>
-33.5732

> <r_i_glide_gscore>
-3.52247

> <r_i_glide_hbond>
-0.0543269

> <r_i_glide_ligand_efficiency>
-0.100642

> <r_i_glide_ligand_efficiency_ln>
-0.77326

> <r_i_glide_ligand_efficiency_sa>
-0.329206

> <r_i_glide_lipo>
-1.31455

> <r_i_glide_metal>
0

> <r_i_glide_rewards>
-0.34075

> <s_i_glide_gridfile>
wee1_glide-grid

> <s_m_Source_File>
wee1_decoys_glide_SP.sdf

> <s_m_Source_Path>
/Users/zhangxujun/Desktop

> <s_m_entry_id>
6334

> <s_m_entry_name>
wee1_decoys_glide_SP.6059

> <s_m_subgroup_title>
wee1_decoys_glide_SP

> <s_m_subgroupid>
wee1_decoys_glide_SP


$$$$
