ZINC39678317_394
                    3D
 Schrodinger Suite 2024-2.
 80 84  0  0  1  0            999 V2000
   -2.5463   49.4613   25.9675 C   0  0  0  0  0  0
   -3.5513   50.6204   25.9708 C   0  0  0  0  0  0
   -3.7376   51.4526   24.8411 C   0  0  0  0  0  0
   -4.6922   52.4764   24.8869 C   0  0  0  0  0  0
   -5.4416   52.7005   26.0360 C   0  0  0  0  0  0
   -5.2534   51.8966   27.1529 C   0  0  0  0  0  0
   -4.3279   50.8493   27.1275 C   0  0  0  0  0  0
   -4.1789   50.0966   28.2744 O   0  0  0  0  0  0
   -4.9086   48.9586   28.4272 C   0  0  0  0  0  0
   -5.7193   48.4873   27.6262 O   0  0  0  0  0  0
   -4.6353   48.2664   29.7522 C   0  0  0  0  0  0
   -2.9759   51.2576   23.5516 C   0  0  0  0  0  0
   -3.5727   50.8380   22.5593 O   0  0  0  0  0  0
   -1.6551   51.5554   23.5406 N   0  0  0  0  0  0
   -0.9290   52.2110   24.6279 C   0  0  0  0  0  0
    0.3160   52.7700   23.9115 C   0  0  2  0  0  0
    0.0607   53.7300   23.4659 H   0  0  0  0  0  0
    0.6077   51.7368   22.7891 C   0  0  0  0  0  0
   -0.8339   51.3977   22.3406 C   0  0  0  0  0  0
    1.4941   52.3233   21.6666 C   0  0  0  0  0  0
    1.6062   51.3682   20.4636 C   0  0  0  0  0  0
    2.2453   50.0476   20.9519 N   0  3  0  0  0  0
    1.5366   49.4013   22.1681 C   0  0  0  0  0  0
    1.3593   50.4604   23.2826 C   0  0  0  0  0  0
    1.4362   53.0226   24.9558 C   0  0  0  0  0  0
    1.4779   52.3983   26.0156 O   0  0  0  0  0  0
    2.2122   54.0932   24.7219 N   0  0  0  0  0  0
    3.0781   54.7386   25.7080 C   0  0  0  0  0  0
    4.3053   54.0783   26.2450 C   0  0  0  0  0  0
    4.2507   53.6576   27.5849 C   0  0  0  0  0  0
    5.4039   53.2803   28.2544 C   0  0  0  0  0  0
    6.6111   53.2978   27.5834 C   0  0  0  0  0  0
    6.6336   53.6966   26.2504 C   0  0  0  0  0  0
    5.5146   54.0954   25.5314 C   0  0  0  0  0  0
    5.6299   54.4194   24.1662 N   0  0  0  0  0  0
    4.9579   53.5599   23.1742 C   0  0  0  0  0  0
    4.6077   54.3543   21.8978 C   0  0  0  0  0  0
    5.8580   54.8938   21.2013 C   0  0  0  0  0  0
    6.8786   55.4551   22.2045 C   0  0  0  0  0  0
    6.9494   54.7194   23.5611 C   0  0  0  0  0  0
   -2.2938   49.1044   24.9693 H   0  0  0  0  0  0
   -1.6317   49.7474   26.4825 H   0  0  0  0  0  0
   -2.9440   48.5874   26.4815 H   0  0  0  0  0  0
   -4.8609   53.1111   24.0303 H   0  0  0  0  0  0
   -6.1743   53.4956   26.0561 H   0  0  0  0  0  0
   -5.8411   52.0736   28.0420 H   0  0  0  0  0  0
   -3.6934   47.7254   29.6911 H   0  0  0  0  0  0
   -5.4313   47.5547   29.9779 H   0  0  0  0  0  0
   -4.5674   48.9922   30.5615 H   0  0  0  0  0  0
   -1.4821   53.0077   25.1275 H   0  0  0  0  0  0
   -0.6310   51.4259   25.3259 H   0  0  0  0  0  0
   -0.9507   50.4519   21.8110 H   0  0  0  0  0  0
   -1.1578   52.1678   21.6391 H   0  0  0  0  0  0
    1.0709   53.2639   21.3012 H   0  0  0  0  0  0
    2.4704   52.5829   22.0617 H   0  0  0  0  0  0
    0.6463   51.1117   20.0118 H   0  0  0  0  0  0
    2.2691   51.7600   19.6894 H   0  0  0  0  0  0
    2.2840   49.3902   20.1839 H   0  0  0  0  0  0
    0.5962   48.9868   21.8032 H   0  0  0  0  0  0
    2.1826   48.5785   22.4816 H   0  0  0  0  0  0
    2.3216   50.7112   23.7197 H   0  0  0  0  0  0
    0.8035   49.9929   24.0992 H   0  0  0  0  0  0
    2.1807   54.5203   23.8081 H   0  0  0  0  0  0
    3.3878   55.6962   25.3137 H   0  0  0  0  0  0
    2.4431   54.8966   26.5829 H   0  0  0  0  0  0
    3.3187   53.6535   28.1322 H   0  0  0  0  0  0
    5.3520   52.9512   29.2810 H   0  0  0  0  0  0
    7.5091   52.9571   28.0722 H   0  0  0  0  0  0
    7.5044   53.5805   25.6831 H   0  0  0  0  0  0
    5.6056   52.7162   22.9237 H   0  0  0  0  0  0
    4.0612   53.1075   23.5789 H   0  0  0  0  0  0
    4.0880   53.7131   21.1870 H   0  0  0  0  0  0
    3.9036   55.1501   22.1346 H   0  0  0  0  0  0
    5.5816   55.6643   20.4799 H   0  0  0  0  0  0
    6.3058   54.0965   20.6137 H   0  0  0  0  0  0
    6.6925   56.4963   22.3951 H   0  0  0  0  0  0
    7.8704   55.4436   21.7486 H   0  0  0  0  0  0
    7.4924   55.3748   24.2452 H   0  0  0  0  0  0
    7.5442   53.8087   23.4674 H   0  0  0  0  0  0
    3.2060   50.2345   21.2011 H   0  0  0  0  0  0
  1  2  1  0  0  0
  1 41  1  0  0  0
  1 42  1  0  0  0
  1 43  1  0  0  0
  2  7  2  0  0  0
  2  3  1  0  0  0
  3  4  2  0  0  0
  3 12  1  0  0  0
  4  5  1  0  0  0
  4 44  1  0  0  0
  5  6  2  0  0  0
  5 45  1  0  0  0
  6  7  1  0  0  0
  6 46  1  0  0  0
  7  8  1  0  0  0
  8  9  1  0  0  0
  9 10  2  0  0  0
  9 11  1  0  0  0
 11 47  1  0  0  0
 11 48  1  0  0  0
 11 49  1  0  0  0
 12 13  2  0  0  0
 12 14  1  0  0  0
 14 19  1  0  0  0
 14 15  1  0  0  0
 15 16  1  0  0  0
 15 50  1  0  0  0
 15 51  1  0  0  0
 16 17  1  0  0  0
 16 18  1  0  0  0
 16 25  1  0  0  0
 18 24  1  0  0  0
 18 19  1  0  0  0
 18 20  1  0  0  0
 19 52  1  0  0  0
 19 53  1  0  0  0
 20 21  1  0  0  0
 20 54  1  0  0  0
 20 55  1  0  0  0
 21 22  1  0  0  0
 21 56  1  0  0  0
 21 57  1  0  0  0
 22 23  1  0  0  0
 22 58  1  0  0  0
 22 80  1  0  0  0
 23 24  1  0  0  0
 23 59  1  0  0  0
 23 60  1  0  0  0
 24 61  1  0  0  0
 24 62  1  0  0  0
 25 26  2  0  0  0
 25 27  1  0  0  0
 27 28  1  0  0  0
 27 63  1  0  0  0
 28 29  1  0  0  0
 28 64  1  0  0  0
 28 65  1  0  0  0
 29 34  2  0  0  0
 29 30  1  0  0  0
 30 31  2  0  0  0
 30 66  1  0  0  0
 31 32  1  0  0  0
 31 67  1  0  0  0
 32 33  2  0  0  0
 32 68  1  0  0  0
 33 34  1  0  0  0
 33 69  1  0  0  0
 34 35  1  0  0  0
 35 40  1  0  0  0
 35 36  1  0  0  0
 36 37  1  0  0  0
 36 70  1  0  0  0
 36 71  1  0  0  0
 37 38  1  0  0  0
 37 72  1  0  0  0
 37 73  1  0  0  0
 38 39  1  0  0  0
 38 74  1  0  0  0
 38 75  1  0  0  0
 39 40  1  0  0  0
 39 76  1  0  0  0
 39 77  1  0  0  0
 40 78  1  0  0  0
 40 79  1  0  0  0
M  CHG  1  22   1
M  END
> <i_i_glide_confnum>
554

> <i_i_glide_lignum>
395

> <i_i_glide_posenum>
323

> <i_i_glide_rotatable_bonds>
9

> <i_m_Source_File_Index>
4097

> <b_m_subgroup_collapsed>
0

> <r_i_docking_score>
-4.9511

> <r_i_glide_ecoul>
-0.491756

> <r_i_glide_eff_state_penalty>
0

> <r_i_glide_einternal>
8.91612

> <r_i_glide_emodel>
-47.8341

> <r_i_glide_energy>
-36.8749

> <r_i_glide_erotb>
0.579566

> <r_i_glide_esite>
-0.0667181

> <r_i_glide_evdw>
-36.3831

> <r_i_glide_gscore>
-4.9511

> <r_i_glide_hbond>
0

> <r_i_glide_ligand_efficiency>
-0.126951

> <r_i_glide_ligand_efficiency_ln>
-1.06166

> <r_i_glide_ligand_efficiency_sa>
-0.430519

> <r_i_glide_lipo>
-2.87226

> <r_i_glide_metal>
0

> <r_i_glide_rewards>
-0.698771

> <s_i_glide_gridfile>
wee1_glide-grid

> <s_m_Source_File>
wee1_decoys_glide_SP.sdf

> <s_m_Source_Path>
/Users/zhangxujun/Desktop

> <s_m_entry_id>
4372

> <s_m_entry_name>
wee1_decoys_glide_SP.4097

> <s_m_subgroup_title>
wee1_decoys_glide_SP

> <s_m_subgroupid>
wee1_decoys_glide_SP


$$$$
