ZINC39689382_1302
                    3D
 Schrodinger Suite 2024-2.
 69 72  0  0  1  0            999 V2000
    6.1980   57.6615   18.5229 C   0  0  0  0  0  0
    5.1518   56.6646   18.0585 C   0  0  0  0  0  0
    4.0672   57.0827   17.2817 C   0  0  0  0  0  0
    3.1104   56.1595   16.8649 C   0  0  0  0  0  0
    3.2411   54.8130   17.2032 C   0  0  0  0  0  0
    4.3246   54.3808   17.9730 C   0  0  0  0  0  0
    5.2731   55.3152   18.4069 C   0  0  0  0  0  0
    4.5060   52.8970   18.2856 C   0  0  0  0  0  0
    3.3558   52.2312   19.0740 C   0  0  0  0  0  0
    3.0685   52.8971   20.3403 N   0  0  0  0  0  0
    3.6494   52.6372   21.5219 C   0  0  0  0  0  0
    4.5063   51.7663   21.6645 O   0  0  0  0  0  0
    3.2332   53.5776   22.6845 C   0  0  2  0  0  0
    3.0185   54.5552   22.2477 H   0  0  0  0  0  0
    4.4265   53.7633   23.6470 C   0  0  0  0  0  0
    3.8112   53.8928   24.9711 N   0  0  0  0  0  0
    2.3528   53.7550   24.9162 C   0  0  0  0  0  0
    2.0280   53.0943   23.5547 C   0  0  0  0  0  0
    0.7045   53.5693   22.9463 C   0  0  0  0  0  0
   -0.5442   53.2397   23.7935 C   0  0  0  0  0  0
   -0.6197   51.7159   24.0360 N   0  3  0  0  0  0
    0.6866   51.1209   24.5919 C   0  0  0  0  0  0
    1.8314   51.5431   23.6524 C   0  0  0  0  0  0
    4.5520   54.2629   26.0534 C   0  0  0  0  0  0
    5.7596   54.4974   25.9393 O   0  0  0  0  0  0
    3.9052   54.3857   27.4645 C   0  0  2  0  0  0
    3.3092   55.2960   27.4161 H   0  0  0  0  0  0
    4.9454   54.4659   28.6144 C   0  0  0  0  0  0
    3.0620   53.2520   27.6910 O   0  0  0  0  0  0
    2.0358   53.2949   28.6171 C   0  0  0  0  0  0
    1.2561   52.1426   28.7092 C   0  0  0  0  0  0
    0.2047   52.0690   29.6170 C   0  0  0  0  0  0
   -0.0510   53.1420   30.4640 C   0  0  0  0  0  0
    0.7032   54.3099   30.3719 C   0  0  0  0  0  0
    1.7394   54.3938   29.4441 C   0  0  0  0  0  0
    5.8998   58.6954   18.3347 H   0  0  0  0  0  0
    6.3643   57.5508   19.5959 H   0  0  0  0  0  0
    7.1502   57.4715   18.0221 H   0  0  0  0  0  0
    3.9619   58.1229   17.0078 H   0  0  0  0  0  0
    2.2747   56.4861   16.2650 H   0  0  0  0  0  0
    2.5056   54.1047   16.8518 H   0  0  0  0  0  0
    6.1183   54.9873   18.9957 H   0  0  0  0  0  0
    5.4371   52.7420   18.8319 H   0  0  0  0  0  0
    4.6432   52.3814   17.3346 H   0  0  0  0  0  0
    3.5034   51.1568   19.1933 H   0  0  0  0  0  0
    2.4352   52.3493   18.5029 H   0  0  0  0  0  0
    2.4237   53.6752   20.2826 H   0  0  0  0  0  0
    4.9792   54.6650   23.3770 H   0  0  0  0  0  0
    5.0831   52.8967   23.6911 H   0  0  0  0  0  0
    1.8396   53.3153   25.7651 H   0  0  0  0  0  0
    1.9966   54.7884   24.8726 H   0  0  0  0  0  0
    0.7685   54.6552   22.8817 H   0  0  0  0  0  0
    0.5989   53.2121   21.9191 H   0  0  0  0  0  0
   -0.5189   53.6964   24.7785 H   0  0  0  0  0  0
   -1.4764   53.5035   23.2863 H   0  0  0  0  0  0
   -1.3845   51.4975   24.6618 H   0  0  0  0  0  0
    0.7963   51.4698   25.6188 H   0  0  0  0  0  0
    0.5462   50.0380   24.6087 H   0  0  0  0  0  0
    1.6934   51.0932   22.6669 H   0  0  0  0  0  0
    2.7040   51.0616   24.0497 H   0  0  0  0  0  0
    5.6372   55.2963   28.4795 H   0  0  0  0  0  0
    4.4819   54.5960   29.5896 H   0  0  0  0  0  0
    5.5460   53.5566   28.6616 H   0  0  0  0  0  0
    1.4719   51.2959   28.0741 H   0  0  0  0  0  0
   -0.3948   51.1706   29.6834 H   0  0  0  0  0  0
   -0.8376   53.0514   31.1991 H   0  0  0  0  0  0
    0.4877   55.1426   31.0243 H   0  0  0  0  0  0
    2.3060   55.3107   29.3936 H   0  0  0  0  0  0
   -0.8265   51.2539   23.1604 H   0  0  0  0  0  0
  1  2  1  0  0  0
  1 36  1  0  0  0
  1 37  1  0  0  0
  1 38  1  0  0  0
  2  7  2  0  0  0
  2  3  1  0  0  0
  3  4  2  0  0  0
  3 39  1  0  0  0
  4  5  1  0  0  0
  4 40  1  0  0  0
  5  6  2  0  0  0
  5 41  1  0  0  0
  6  7  1  0  0  0
  6  8  1  0  0  0
  7 42  1  0  0  0
  8  9  1  0  0  0
  8 43  1  0  0  0
  8 44  1  0  0  0
  9 10  1  0  0  0
  9 45  1  0  0  0
  9 46  1  0  0  0
 10 11  1  0  0  0
 10 47  1  0  0  0
 11 12  2  0  0  0
 11 13  1  0  0  0
 13 14  1  0  0  0
 13 18  1  0  0  0
 13 15  1  0  0  0
 15 16  1  0  0  0
 15 48  1  0  0  0
 15 49  1  0  0  0
 16 17  1  0  0  0
 16 24  1  0  0  0
 17 18  1  0  0  0
 17 50  1  0  0  0
 17 51  1  0  0  0
 18 23  1  0  0  0
 18 19  1  0  0  0
 19 20  1  0  0  0
 19 52  1  0  0  0
 19 53  1  0  0  0
 20 21  1  0  0  0
 20 54  1  0  0  0
 20 55  1  0  0  0
 21 22  1  0  0  0
 21 56  1  0  0  0
 21 69  1  0  0  0
 22 23  1  0  0  0
 22 57  1  0  0  0
 22 58  1  0  0  0
 23 59  1  0  0  0
 23 60  1  0  0  0
 24 25  2  0  0  0
 24 26  1  0  0  0
 26 27  1  0  0  0
 26 28  1  0  0  0
 26 29  1  0  0  0
 28 61  1  0  0  0
 28 62  1  0  0  0
 28 63  1  0  0  0
 29 30  1  0  0  0
 30 35  2  0  0  0
 30 31  1  0  0  0
 31 32  2  0  0  0
 31 64  1  0  0  0
 32 33  1  0  0  0
 32 65  1  0  0  0
 33 34  2  0  0  0
 33 66  1  0  0  0
 34 35  1  0  0  0
 34 67  1  0  0  0
 35 68  1  0  0  0
M  CHG  1  21   1
M  END
> <i_i_glide_confnum>
79

> <i_i_glide_lignum>
1303

> <i_i_glide_posenum>
35

> <i_i_glide_rotatable_bonds>
9

> <i_m_Source_File_Index>
69

> <b_m_subgroup_collapsed>
0

> <r_i_docking_score>
-5.69089

> <r_i_glide_ecoul>
-4.6904

> <r_i_glide_eff_state_penalty>
0

> <r_i_glide_einternal>
9.38877

> <r_i_glide_emodel>
-53.3017

> <r_i_glide_energy>
-40.4595

> <r_i_glide_erotb>
0.790025

> <r_i_glide_esite>
-0.00406471

> <r_i_glide_evdw>
-35.7691

> <r_i_glide_gscore>
-5.69089

> <r_i_glide_hbond>
-0.32

> <r_i_glide_ligand_efficiency>
-0.172451

> <r_i_glide_ligand_efficiency_ln>
-1.26562

> <r_i_glide_ligand_efficiency_sa>
-0.553143

> <r_i_glide_lipo>
-2.59016

> <r_i_glide_metal>
0

> <r_i_glide_rewards>
-1.07467

> <s_i_glide_gridfile>
wee1_glide-grid

> <s_m_Source_File>
wee1_decoys_glide_SP.sdf

> <s_m_Source_Path>
/Users/zhangxujun/Desktop

> <s_m_entry_id>
344

> <s_m_entry_name>
wee1_decoys_glide_SP.69

> <s_m_subgroup_title>
wee1_decoys_glide_SP

> <s_m_subgroupid>
wee1_decoys_glide_SP


$$$$
