ZINC44790296_6165
                    3D
 Schrodinger Suite 2024-2.
 44 45  0  0  1  0            999 V2000
   -0.4963   51.7019   30.0346 C   0  0  0  0  0  0
    0.2705   52.8085   29.3070 C   0  0  2  0  0  0
   -0.0461   53.7591   29.7428 H   0  0  0  0  0  0
   -0.0441   52.8181   27.7903 C   0  0  0  0  0  0
    0.4028   51.5621   27.0060 C   0  0  0  0  0  0
    0.2757   51.7078   25.4734 C   0  0  0  0  0  0
    1.2626   52.6236   24.7544 C   0  0  0  0  0  0
    2.2970   53.2977   25.2991 C   0  0  0  0  0  0
    3.2714   54.2047   24.5445 C   0  0  2  0  0  0
    2.7526   55.1631   24.4801 H   0  0  0  0  0  0
    3.4939   53.7340   23.0925 C   0  0  0  0  0  0
    4.9224   54.1014   22.7300 C   0  0  1  0  0  0
    4.8622   55.0881   22.2745 H   0  0  0  0  0  0
    5.7067   54.2525   24.0343 C   0  0  0  0  0  0
    4.6870   54.5389   25.1616 C   0  0  2  0  0  0
    4.6837   55.6245   25.2811 H   0  0  0  0  0  0
    5.1435   53.9703   26.5501 C   0  0  2  0  0  0
    5.2753   52.8922   26.4759 H   0  0  0  0  0  0
    4.2072   54.2792   27.7035 C   0  0  0  0  0  0
    3.6661   53.3600   28.5310 C   0  0  0  0  0  0
    2.5105   53.6919   29.3460 C   0  0  0  0  0  0
    2.2716   54.8244   29.7694 O   0  0  0  0  0  0
    1.6808   52.6350   29.4842 O   0  0  0  0  0  0
    6.3926   54.5515   26.8851 O   0  0  0  0  0  0
    5.5041   53.3125   21.7256 O   0  0  0  0  0  0
   -0.3308   51.7417   31.1114 H   0  0  0  0  0  0
   -1.5691   51.7599   29.8572 H   0  0  0  0  0  0
   -0.1760   50.7314   29.6787 H   0  0  0  0  0  0
   -1.1120   52.9666   27.6356 H   0  0  0  0  0  0
    0.4369   53.6920   27.3615 H   0  0  0  0  0  0
    1.4275   51.2909   27.2641 H   0  0  0  0  0  0
   -0.2067   50.7127   27.3216 H   0  0  0  0  0  0
    0.4199   50.7222   25.0291 H   0  0  0  0  0  0
   -0.7418   51.9995   25.2126 H   0  0  0  0  0  0
    1.0809   52.7193   23.6935 H   0  0  0  0  0  0
    2.4393   53.1920   26.3514 H   0  0  0  0  0  0
    3.4267   52.6472   23.0267 H   0  0  0  0  0  0
    2.7721   54.1527   22.3876 H   0  0  0  0  0  0
    6.1901   53.2965   24.2143 H   0  0  0  0  0  0
    6.4922   55.0046   23.9546 H   0  0  0  0  0  0
    3.8561   55.2972   27.7383 H   0  0  0  0  0  0
    3.9286   52.3141   28.4525 H   0  0  0  0  0  0
    6.6354   54.2628   27.7696 H   0  0  0  0  0  0
    4.9739   53.3891   20.9273 H   0  0  0  0  0  0
  1  2  1  0  0  0
  1 26  1  0  0  0
  1 27  1  0  0  0
  1 28  1  0  0  0
  2  3  1  0  0  0
  2 23  1  0  0  0
  2  4  1  0  0  0
  4  5  1  0  0  0
  4 29  1  0  0  0
  4 30  1  0  0  0
  5  6  1  0  0  0
  5 31  1  0  0  0
  5 32  1  0  0  0
  6  7  1  0  0  0
  6 33  1  0  0  0
  6 34  1  0  0  0
  7  8  2  0  0  0
  7 35  1  0  0  0
  8  9  1  0  0  0
  8 36  1  0  0  0
  9 10  1  0  0  0
  9 15  1  0  0  0
  9 11  1  0  0  0
 11 12  1  0  0  0
 11 37  1  0  0  0
 11 38  1  0  0  0
 12 13  1  0  0  0
 12 14  1  0  0  0
 12 25  1  0  0  0
 14 15  1  0  0  0
 14 39  1  0  0  0
 14 40  1  0  0  0
 15 16  1  0  0  0
 15 17  1  0  0  0
 17 18  1  0  0  0
 17 19  1  0  0  0
 17 24  1  0  0  0
 19 20  2  0  0  0
 19 41  1  0  0  0
 20 21  1  0  0  0
 20 42  1  0  0  0
 21 22  2  0  0  0
 21 23  1  0  0  0
 24 43  1  0  0  0
 25 44  1  0  0  0
M  END
> <i_i_glide_confnum>
1

> <i_i_glide_lignum>
6166

> <i_i_glide_posenum>
360

> <i_i_glide_rotatable_bonds>
2

> <i_m_Source_File_Index>
5304

> <b_m_subgroup_collapsed>
0

> <r_i_docking_score>
-6.52259

> <r_i_glide_ecoul>
-4.38756

> <r_i_glide_eff_state_penalty>
0

> <r_i_glide_einternal>
0.682602

> <r_i_glide_emodel>
-49.2606

> <r_i_glide_energy>
-35.7733

> <r_i_glide_erotb>
0

> <r_i_glide_esite>
0

> <r_i_glide_evdw>
-31.3858

> <r_i_glide_gscore>
-6.52259

> <r_i_glide_hbond>
-0.17341

> <r_i_glide_ligand_efficiency>
-0.326129

> <r_i_glide_ligand_efficiency_ln>
-1.63239

> <r_i_glide_ligand_efficiency_sa>
-0.885251

> <r_i_glide_lipo>
-2.51352

> <r_i_glide_metal>
0

> <r_i_glide_rewards>
-1.60823

> <s_i_glide_gridfile>
wee1_glide-grid

> <s_m_Source_File>
wee1_decoys_glide_SP.sdf

> <s_m_Source_Path>
/Users/zhangxujun/Desktop

> <s_m_entry_id>
5579

> <s_m_entry_name>
wee1_decoys_glide_SP.5304

> <s_m_subgroup_title>
wee1_decoys_glide_SP

> <s_m_subgroupid>
wee1_decoys_glide_SP


$$$$
