ZINC16130447_2457
                    3D
 Schrodinger Suite 2024-2.
 54 57  0  0  1  0            999 V2000
    5.5508   58.6699   16.0801 C   0  0  0  0  0  0
    5.2288   57.3960   16.8382 C   0  0  0  0  0  0
    3.9056   56.9654   16.9512 C   0  0  0  0  0  0
    3.6108   55.8172   17.6818 C   0  0  0  0  0  0
    4.6301   55.1005   18.3174 C   0  0  0  0  0  0
    5.9569   55.5152   18.1640 C   0  0  0  0  0  0
    6.2552   56.6651   17.4363 C   0  0  0  0  0  0
    4.2701   53.9061   19.1512 C   0  0  0  0  0  0
    3.3815   52.9261   18.6666 C   0  0  0  0  0  0
    3.1195   51.9006   19.5556 C   0  0  0  0  0  0
    4.0013   52.0962   21.0219 S   0  0  0  0  0  0
    4.6787   53.6160   20.4749 C   0  0  0  0  0  0
    5.5043   54.4184   21.3958 C   0  0  0  0  0  0
    6.0722   55.4619   21.0709 O   0  0  0  0  0  0
    5.5329   53.9091   22.6673 O   0  0  0  0  0  0
    6.1659   54.6271   23.7319 C   0  0  0  0  0  0
    5.4941   54.4807   25.1253 C   0  0  0  0  0  0
    6.2533   54.7442   26.0612 O   0  0  0  0  0  0
    4.1902   54.0972   25.3466 N   0  0  0  0  0  0
    3.5751   53.9450   26.6194 C   0  0  0  0  0  0
    4.0116   54.3308   27.8968 C   0  0  0  0  0  0
    3.2120   54.0925   29.0135 C   0  0  0  0  0  0
    1.9601   53.4885   28.8716 C   0  0  0  0  0  0
    1.5074   53.1316   27.5985 C   0  0  0  0  0  0
    2.3062   53.3826   26.4807 C   0  0  0  0  0  0
    2.0463   53.0449   25.0500 C   0  0  0  0  0  0
    3.2115   53.6986   24.3046 C   0  0  1  0  0  0
    3.6328   52.9405   23.6483 H   0  0  0  0  0  0
    2.7094   54.8877   23.4678 C   0  0  0  0  0  0
    0.9651   53.1983   30.3309 S   0  0  0  0  0  0
    0.3317   54.4742   30.6757 O   0  0  0  0  0  0
    1.8337   52.4965   31.2815 O   0  0  0  0  0  0
   -0.3046   52.0964   29.8797 N   0  0  0  0  0  0
    4.6676   59.2951   15.9362 H   0  0  0  0  0  0
    6.2712   59.2718   16.6374 H   0  0  0  0  0  0
    5.9869   58.4376   15.1085 H   0  0  0  0  0  0
    3.1057   57.5294   16.4908 H   0  0  0  0  0  0
    2.5799   55.5077   17.7812 H   0  0  0  0  0  0
    6.7597   54.9562   18.6222 H   0  0  0  0  0  0
    7.2801   56.9902   17.3450 H   0  0  0  0  0  0
    2.9485   52.9618   17.6779 H   0  0  0  0  0  0
    2.5007   51.0297   19.3989 H   0  0  0  0  0  0
    6.3028   55.6917   23.5302 H   0  0  0  0  0  0
    7.1701   54.2116   23.8151 H   0  0  0  0  0  0
    4.9667   54.8056   28.0603 H   0  0  0  0  0  0
    3.5726   54.3805   29.9887 H   0  0  0  0  0  0
    0.5431   52.6602   27.4762 H   0  0  0  0  0  0
    2.0877   51.9661   24.9067 H   0  0  0  0  0  0
    1.0698   53.3803   24.6985 H   0  0  0  0  0  0
    1.9260   54.5651   22.7806 H   0  0  0  0  0  0
    2.2860   55.6753   24.0818 H   0  0  0  0  0  0
    3.4920   55.2967   22.8453 H   0  0  0  0  0  0
   -0.5184   51.4153   30.6162 H   0  0  0  0  0  0
   -1.1552   52.5768   29.5838 H   0  0  0  0  0  0
  1  2  1  0  0  0
  1 34  1  0  0  0
  1 35  1  0  0  0
  1 36  1  0  0  0
  2  7  2  0  0  0
  2  3  1  0  0  0
  3  4  2  0  0  0
  3 37  1  0  0  0
  4  5  1  0  0  0
  4 38  1  0  0  0
  5  6  2  0  0  0
  5  8  1  0  0  0
  6  7  1  0  0  0
  6 39  1  0  0  0
  7 40  1  0  0  0
  8 12  2  0  0  0
  8  9  1  0  0  0
  9 10  2  0  0  0
  9 41  1  0  0  0
 10 11  1  0  0  0
 10 42  1  0  0  0
 11 12  1  0  0  0
 12 13  1  0  0  0
 13 14  2  0  0  0
 13 15  1  0  0  0
 15 16  1  0  0  0
 16 17  1  0  0  0
 16 43  1  0  0  0
 16 44  1  0  0  0
 17 18  2  0  0  0
 17 19  1  0  0  0
 19 27  1  0  0  0
 19 20  1  0  0  0
 20 25  2  0  0  0
 20 21  1  0  0  0
 21 22  2  0  0  0
 21 45  1  0  0  0
 22 23  1  0  0  0
 22 46  1  0  0  0
 23 24  2  0  0  0
 23 30  1  0  0  0
 24 25  1  0  0  0
 24 47  1  0  0  0
 25 26  1  0  0  0
 26 27  1  0  0  0
 26 48  1  0  0  0
 26 49  1  0  0  0
 27 28  1  0  0  0
 27 29  1  0  0  0
 29 50  1  0  0  0
 29 51  1  0  0  0
 29 52  1  0  0  0
 30 31  2  0  0  0
 30 32  2  0  0  0
 30 33  1  0  0  0
 33 53  1  0  0  0
 33 54  1  0  0  0
M  END
> <i_i_glide_confnum>
36

> <i_i_glide_lignum>
2458

> <i_i_glide_posenum>
326

> <i_i_glide_rotatable_bonds>
7

> <i_m_Source_File_Index>
3486

> <b_m_subgroup_collapsed>
0

> <r_i_docking_score>
-4.61914

> <r_i_glide_ecoul>
-3.27835

> <r_i_glide_eff_state_penalty>
0

> <r_i_glide_einternal>
4.37175

> <r_i_glide_emodel>
-60.9897

> <r_i_glide_energy>
-52.6358

> <r_i_glide_erotb>
0.547515

> <r_i_glide_esite>
-0.111489

> <r_i_glide_evdw>
-49.3574

> <r_i_glide_gscore>
-4.61914

> <r_i_glide_hbond>
0

> <r_i_glide_ligand_efficiency>
-0.144348

> <r_i_glide_ligand_efficiency_ln>
-1.03435

> <r_i_glide_ligand_efficiency_sa>
-0.458276

> <r_i_glide_lipo>
-2.33678

> <r_i_glide_metal>
0

> <r_i_glide_rewards>
0.241243

> <s_i_glide_gridfile>
wee1_glide-grid

> <s_m_Source_File>
wee1_decoys_glide_SP.sdf

> <s_m_Source_Path>
/Users/zhangxujun/Desktop

> <s_m_entry_id>
3761

> <s_m_entry_name>
wee1_decoys_glide_SP.3486

> <s_m_subgroup_title>
wee1_decoys_glide_SP

> <s_m_subgroupid>
wee1_decoys_glide_SP


$$$$
