ZINC34750191_362
                    3D
 Schrodinger Suite 2024-2.
 69 72  0  0  1  0            999 V2000
    1.7270   55.3142   28.4745 C   0  0  0  0  0  0
    2.4295   54.0740   27.8915 C   0  0  0  0  0  0
    3.8152   53.9082   28.3649 N   0  0  0  0  0  0
    3.9248   53.4883   29.7702 C   0  0  0  0  0  0
    4.2009   51.9854   29.9238 C   0  0  0  0  0  0
    4.9283   54.1019   27.6017 C   0  0  0  0  0  0
    6.0662   53.9786   28.0577 O   0  0  0  0  0  0
    4.7494   54.4654   26.1177 C   0  0  0  0  0  0
    6.2706   54.8963   25.1927 S   0  0  0  0  0  0
    5.9178   54.6402   23.4766 C   0  0  0  0  0  0
    4.8578   53.8609   23.1699 N   0  0  0  0  0  0
    4.5290   53.7056   21.8585 C   0  0  0  0  0  0
    5.2570   54.3684   20.8389 C   0  0  0  0  0  0
    5.1180   54.4529   19.4138 C   0  0  0  0  0  0
    6.0900   55.2713   18.8548 C   0  0  0  0  0  0
    7.2017   55.9600   20.0103 S   0  0  0  0  0  0
    6.3485   55.1631   21.3108 C   0  0  0  0  0  0
    6.7067   55.2971   22.5912 N   0  0  0  0  0  0
    6.1397   55.5804   17.3704 C   0  0  0  0  0  0
    5.2722   54.7018   16.6467 O   0  0  0  0  0  0
    3.9502   54.4919   17.1543 C   0  0  0  0  0  0
    4.0628   53.7800   18.5378 C   0  0  0  0  0  0
    3.1752   55.8229   17.2868 C   0  0  0  0  0  0
    3.3004   53.5264   16.1489 C   0  0  0  0  0  0
    3.5096   52.8096   21.5788 N   0  0  0  0  0  0
    3.8958   51.5002   21.0105 C   0  0  0  0  0  0
    2.7290   50.6174   20.5171 C   0  0  0  0  0  0
    1.7009   50.4972   21.6624 N   0  3  0  0  0  0
    1.1728   51.9175   21.9599 C   0  0  0  0  0  0
    2.3525   52.7426   22.4904 C   0  0  0  0  0  0
    0.5425   49.5317   21.2901 C   0  0  0  0  0  0
   -0.3044   49.1806   22.5273 C   0  0  0  0  0  0
   -1.5258   49.1657   22.4354 O   0  0  0  0  0  0
    0.3032   48.8946   23.6814 N   0  0  0  0  0  0
    0.7170   55.4101   28.0718 H   0  0  0  0  0  0
    1.6167   55.2503   29.5568 H   0  0  0  0  0  0
    2.2713   56.2287   28.2424 H   0  0  0  0  0  0
    2.3655   54.1121   26.8031 H   0  0  0  0  0  0
    1.8679   53.1824   28.1726 H   0  0  0  0  0  0
    4.7034   54.0751   30.2564 H   0  0  0  0  0  0
    3.0010   53.7151   30.3014 H   0  0  0  0  0  0
    4.3333   51.7221   30.9737 H   0  0  0  0  0  0
    3.3752   51.3917   29.5312 H   0  0  0  0  0  0
    5.1041   51.6977   29.3925 H   0  0  0  0  0  0
    4.0764   55.3175   26.0348 H   0  0  0  0  0  0
    4.2709   53.6123   25.6411 H   0  0  0  0  0  0
    5.8703   56.6212   17.1829 H   0  0  0  0  0  0
    7.1514   55.4524   16.9867 H   0  0  0  0  0  0
    4.3506   52.7387   18.3859 H   0  0  0  0  0  0
    3.0842   53.7486   19.0175 H   0  0  0  0  0  0
    2.1413   55.6462   17.5803 H   0  0  0  0  0  0
    3.6126   56.4865   18.0323 H   0  0  0  0  0  0
    3.1613   56.3611   16.3389 H   0  0  0  0  0  0
    2.2893   53.2531   16.4507 H   0  0  0  0  0  0
    3.2405   53.9780   15.1567 H   0  0  0  0  0  0
    3.8777   52.6063   16.0446 H   0  0  0  0  0  0
    4.3544   50.9602   21.8374 H   0  0  0  0  0  0
    4.6479   51.6011   20.2271 H   0  0  0  0  0  0
    3.0880   49.6067   20.3157 H   0  0  0  0  0  0
    2.2297   51.0169   19.6310 H   0  0  0  0  0  0
    0.7258   52.3311   21.0526 H   0  0  0  0  0  0
    0.4147   51.8293   22.7386 H   0  0  0  0  0  0
    2.0096   53.7491   22.7316 H   0  0  0  0  0  0
    2.7007   52.2596   23.4050 H   0  0  0  0  0  0
    1.0002   48.6329   20.8752 H   0  0  0  0  0  0
   -0.0443   50.0183   20.5079 H   0  0  0  0  0  0
    1.2975   48.7294   23.7556 H   0  0  0  0  0  0
   -0.2788   48.6881   24.4807 H   0  0  0  0  0  0
    2.1586   50.1329   22.4871 H   0  0  0  0  0  0
  1  2  1  0  0  0
  1 35  1  0  0  0
  1 36  1  0  0  0
  1 37  1  0  0  0
  2  3  1  0  0  0
  2 38  1  0  0  0
  2 39  1  0  0  0
  3  4  1  0  0  0
  3  6  1  0  0  0
  4  5  1  0  0  0
  4 40  1  0  0  0
  4 41  1  0  0  0
  5 42  1  0  0  0
  5 43  1  0  0  0
  5 44  1  0  0  0
  6  7  2  0  0  0
  6  8  1  0  0  0
  8  9  1  0  0  0
  8 45  1  0  0  0
  8 46  1  0  0  0
  9 10  1  0  0  0
 10 18  2  0  0  0
 10 11  1  0  0  0
 11 12  2  0  0  0
 12 13  1  0  0  0
 12 25  1  0  0  0
 13 17  2  0  0  0
 13 14  1  0  0  0
 14 22  1  0  0  0
 14 15  2  0  0  0
 15 16  1  0  0  0
 15 19  1  0  0  0
 16 17  1  0  0  0
 17 18  1  0  0  0
 19 20  1  0  0  0
 19 47  1  0  0  0
 19 48  1  0  0  0
 20 21  1  0  0  0
 21 22  1  0  0  0
 21 23  1  0  0  0
 21 24  1  0  0  0
 22 49  1  0  0  0
 22 50  1  0  0  0
 23 51  1  0  0  0
 23 52  1  0  0  0
 23 53  1  0  0  0
 24 54  1  0  0  0
 24 55  1  0  0  0
 24 56  1  0  0  0
 25 30  1  0  0  0
 25 26  1  0  0  0
 26 27  1  0  0  0
 26 57  1  0  0  0
 26 58  1  0  0  0
 27 28  1  0  0  0
 27 59  1  0  0  0
 27 60  1  0  0  0
 28 29  1  0  0  0
 28 31  1  0  0  0
 28 69  1  0  0  0
 29 30  1  0  0  0
 29 61  1  0  0  0
 29 62  1  0  0  0
 30 63  1  0  0  0
 30 64  1  0  0  0
 31 32  1  0  0  0
 31 65  1  0  0  0
 31 66  1  0  0  0
 32 33  2  0  0  0
 32 34  1  0  0  0
 34 67  1  0  0  0
 34 68  1  0  0  0
M  CHG  1  28   1
M  END
> <i_i_glide_confnum>
178

> <i_i_glide_lignum>
363

> <i_i_glide_posenum>
88

> <i_i_glide_rotatable_bonds>
9

> <i_m_Source_File_Index>
5800

> <b_m_subgroup_collapsed>
0

> <r_i_docking_score>
-5.49446

> <r_i_glide_ecoul>
0.0382949

> <r_i_glide_eff_state_penalty>
0

> <r_i_glide_einternal>
10.941

> <r_i_glide_emodel>
-63.3045

> <r_i_glide_energy>
-50.5739

> <r_i_glide_erotb>
0.476464

> <r_i_glide_esite>
-0.0131538

> <r_i_glide_evdw>
-50.6122

> <r_i_glide_gscore>
-5.49446

> <r_i_glide_hbond>
-0.194538

> <r_i_glide_ligand_efficiency>
-0.161602

> <r_i_glide_ligand_efficiency_ln>
-1.21388

> <r_i_glide_ligand_efficiency_sa>
-0.523527

> <r_i_glide_lipo>
-2.30687

> <r_i_glide_metal>
0

> <r_i_glide_rewards>
-0.931502

> <s_i_glide_gridfile>
wee1_glide-grid

> <s_m_Source_File>
wee1_decoys_glide_SP.sdf

> <s_m_Source_Path>
/Users/zhangxujun/Desktop

> <s_m_entry_id>
6075

> <s_m_entry_name>
wee1_decoys_glide_SP.5800

> <s_m_subgroup_title>
wee1_decoys_glide_SP

> <s_m_subgroupid>
wee1_decoys_glide_SP


$$$$
