ZINC39326670_3884
                    3D
 Schrodinger Suite 2024-2.
 41 44  0  0  1  0            999 V2000
    1.1045   54.8940   30.0807 C   0  0  0  0  0  0
    1.7619   53.4959   30.0293 C   0  0  1  0  0  0
    1.8416   53.1535   31.0625 H   0  0  0  0  0  0
    0.9409   52.4368   29.2658 C   0  0  0  0  0  0
    0.7320   52.8729   27.8049 C   0  0  0  0  0  0
    2.0389   53.3200   27.1394 C   0  0  0  0  0  0
    3.1778   53.6602   27.9074 C   0  0  0  0  0  0
    4.3351   54.0713   27.2360 C   0  0  0  0  0  0
    4.3546   54.0964   25.8297 C   0  0  0  0  0  0
    5.3986   54.3881   24.8951 C   0  0  0  0  0  0
    5.0041   54.2717   23.5567 C   0  0  0  0  0  0
    3.2857   53.8821   23.4359 S   0  0  0  0  0  0
    3.1520   53.7378   25.1731 C   0  0  0  0  0  0
    2.0324   53.3531   25.7805 N   0  0  0  0  0  0
    5.8084   54.4969   22.3323 C   0  0  0  0  0  0
    6.9104   55.0397   22.4385 O   0  0  0  0  0  0
    5.2457   54.2582   20.9622 C   0  0  0  0  0  0
    4.5473   53.0853   20.6400 C   0  0  0  0  0  0
    4.0504   52.8973   19.3528 C   0  0  0  0  0  0
    4.2764   53.8604   18.3746 C   0  0  0  0  0  0
    5.0083   55.0060   18.6682 C   0  0  0  0  0  0
    5.5049   55.1976   19.9538 C   0  0  0  0  0  0
    3.7888   53.6805   17.1263 F   0  0  0  0  0  0
    6.6701   54.7232   25.2893 N   0  0  0  0  0  0
    3.1852   53.5270   29.4335 C   0  0  0  0  0  0
    1.0337   55.3526   29.0941 H   0  0  0  0  0  0
    0.0975   54.8399   30.4966 H   0  0  0  0  0  0
    1.6753   55.5819   30.7043 H   0  0  0  0  0  0
    1.4385   51.4656   29.2937 H   0  0  0  0  0  0
   -0.0388   52.3107   29.7307 H   0  0  0  0  0  0
    0.0201   53.6963   27.7752 H   0  0  0  0  0  0
    0.2713   52.0625   27.2372 H   0  0  0  0  0  0
    5.2238   54.3216   27.7959 H   0  0  0  0  0  0
    4.3850   52.3096   21.3741 H   0  0  0  0  0  0
    3.5042   51.9989   19.1024 H   0  0  0  0  0  0
    5.1869   55.7429   17.8998 H   0  0  0  0  0  0
    6.0719   56.0942   20.1629 H   0  0  0  0  0  0
    7.0090   54.4912   26.2121 H   0  0  0  0  0  0
    7.3667   54.9205   24.5769 H   0  0  0  0  0  0
    3.7011   52.6007   29.6906 H   0  0  0  0  0  0
    3.7737   54.3292   29.8815 H   0  0  0  0  0  0
  1  2  1  0  0  0
  1 26  1  0  0  0
  1 27  1  0  0  0
  1 28  1  0  0  0
  2  3  1  0  0  0
  2 25  1  0  0  0
  2  4  1  0  0  0
  4  5  1  0  0  0
  4 29  1  0  0  0
  4 30  1  0  0  0
  5  6  1  0  0  0
  5 31  1  0  0  0
  5 32  1  0  0  0
  6 14  2  0  0  0
  6  7  1  0  0  0
  7  8  2  0  0  0
  7 25  1  0  0  0
  8  9  1  0  0  0
  8 33  1  0  0  0
  9 13  2  0  0  0
  9 10  1  0  0  0
 10 11  2  0  0  0
 10 24  1  0  0  0
 11 12  1  0  0  0
 11 15  1  0  0  0
 12 13  1  0  0  0
 13 14  1  0  0  0
 15 16  2  0  0  0
 15 17  1  0  0  0
 17 22  2  0  0  0
 17 18  1  0  0  0
 18 19  2  0  0  0
 18 34  1  0  0  0
 19 20  1  0  0  0
 19 35  1  0  0  0
 20 21  2  0  0  0
 20 23  1  0  0  0
 21 22  1  0  0  0
 21 36  1  0  0  0
 22 37  1  0  0  0
 24 38  1  0  0  0
 24 39  1  0  0  0
 25 40  1  0  0  0
 25 41  1  0  0  0
M  END
> <i_i_glide_confnum>
22

> <i_i_glide_lignum>
3885

> <i_i_glide_posenum>
185

> <i_i_glide_rotatable_bonds>
2

> <i_m_Source_File_Index>
1010

> <b_m_subgroup_collapsed>
0

> <r_i_docking_score>
-5.83977

> <r_i_glide_ecoul>
0.838063

> <r_i_glide_eff_state_penalty>
0

> <r_i_glide_einternal>
9.99066

> <r_i_glide_emodel>
-49.2431

> <r_i_glide_energy>
-40.3726

> <r_i_glide_erotb>
0.326832

> <r_i_glide_esite>
-0.0203192

> <r_i_glide_evdw>
-41.2106

> <r_i_glide_gscore>
-5.83977

> <r_i_glide_hbond>
0

> <r_i_glide_ligand_efficiency>
-0.243324

> <r_i_glide_ligand_efficiency_ln>
-1.39773

> <r_i_glide_ligand_efficiency_sa>
-0.701867

> <r_i_glide_lipo>
-2.77843

> <r_i_glide_metal>
0

> <r_i_glide_rewards>
-1.43303

> <s_i_glide_gridfile>
wee1_glide-grid

> <s_m_Source_File>
wee1_decoys_glide_SP.sdf

> <s_m_Source_Path>
/Users/zhangxujun/Desktop

> <s_m_entry_id>
1285

> <s_m_entry_name>
wee1_decoys_glide_SP.1010

> <s_m_subgroup_title>
wee1_decoys_glide_SP

> <s_m_subgroupid>
wee1_decoys_glide_SP


$$$$
