ZINC65074659_303
                    3D
 Schrodinger Suite 2024-2.
 67 70  0  0  1  0            999 V2000
    2.8752   52.6669   29.5060 C   0  0  0  0  0  0
    2.7080   52.8970   28.0155 C   0  0  0  0  0  0
    1.5449   52.5025   27.3645 C   0  0  0  0  0  0
    1.3832   52.7030   25.9903 C   0  0  0  0  0  0
    2.4056   53.3274   25.2314 C   0  0  0  0  0  0
    3.5903   53.7180   25.9077 C   0  0  0  0  0  0
    3.7171   53.5122   27.2851 C   0  0  0  0  0  0
    4.7560   54.4288   25.2313 C   0  0  0  0  0  0
    2.2121   53.5518   23.4202 S   0  0  0  0  0  0
    1.1044   54.4967   23.2817 O   0  0  0  0  0  0
    3.5167   53.8370   22.8124 O   0  0  0  0  0  0
    1.6789   51.9886   22.7312 N   0  0  0  0  0  0
    0.3118   51.8562   22.1544 C   0  0  0  0  0  0
    0.3219   51.9245   20.6106 C   0  0  0  0  0  0
    1.3190   50.9252   19.9519 C   0  0  0  0  0  0
    2.7097   51.1880   20.5836 C   0  0  0  0  0  0
    2.7044   51.1038   22.1224 C   0  0  0  0  0  0
    1.3980   51.0787   18.4196 C   0  0  0  0  0  0
    1.5044   50.0329   17.5873 N   0  3  0  0  0  0
    1.4605   48.6296   17.9789 C   0  0  0  0  0  0
    1.6060   48.5328   19.4984 C   0  0  0  0  0  0
    0.8089   49.5582   20.1663 N   0  0  0  0  0  0
    1.4089   52.3312   17.9386 N   0  0  0  0  0  0
    1.5688   52.7515   16.5367 C   0  0  0  0  0  0
    0.4202   53.7198   16.1663 C   0  0  0  0  0  0
    0.5104   55.0828   16.8882 C   0  0  0  0  0  0
    1.8945   55.7370   16.7059 C   0  0  0  0  0  0
    3.0442   54.7920   17.1106 C   0  0  0  0  0  0
    2.9486   53.4316   16.3830 C   0  0  0  0  0  0
    0.0482   52.2677   25.4038 C   0  0  0  0  0  0
    1.9101   52.5775   30.0087 H   0  0  0  0  0  0
    3.3979   53.5062   29.9671 H   0  0  0  0  0  0
    3.4580   51.7622   29.6847 H   0  0  0  0  0  0
    0.7595   52.0274   27.9368 H   0  0  0  0  0  0
    4.6175   53.8223   27.7962 H   0  0  0  0  0  0
    5.2968   53.7425   24.5780 H   0  0  0  0  0  0
    4.3997   55.2717   24.6398 H   0  0  0  0  0  0
    5.4662   54.8415   25.9476 H   0  0  0  0  0  0
   -0.1174   50.9163   22.5025 H   0  0  0  0  0  0
   -0.3259   52.6446   22.5485 H   0  0  0  0  0  0
   -0.6843   51.7607   20.2231 H   0  0  0  0  0  0
    0.5802   52.9444   20.3343 H   0  0  0  0  0  0
    3.0484   52.1847   20.2954 H   0  0  0  0  0  0
    3.4657   50.5221   20.1706 H   0  0  0  0  0  0
    3.6781   51.4423   22.4514 H   0  0  0  0  0  0
    2.5703   50.0872   22.4957 H   0  0  0  0  0  0
    0.5033   48.2296   17.6441 H   0  0  0  0  0  0
    2.2637   48.0984   17.4648 H   0  0  0  0  0  0
    1.2798   47.5495   19.8400 H   0  0  0  0  0  0
    2.6541   48.5907   19.7936 H   0  0  0  0  0  0
    0.7988   49.3896   21.1624 H   0  0  0  0  0  0
    1.3620   53.0774   18.6196 H   0  0  0  0  0  0
    1.5187   51.8728   15.8944 H   0  0  0  0  0  0
    0.4588   53.8988   15.0904 H   0  0  0  0  0  0
   -0.5494   53.2482   16.3373 H   0  0  0  0  0  0
   -0.2667   55.7510   16.5137 H   0  0  0  0  0  0
    0.3036   54.9480   17.9507 H   0  0  0  0  0  0
    2.0195   56.0260   15.6603 H   0  0  0  0  0  0
    1.9502   56.6615   17.2815 H   0  0  0  0  0  0
    4.0032   55.2624   16.8924 H   0  0  0  0  0  0
    3.0281   54.6351   18.1911 H   0  0  0  0  0  0
    3.7480   52.7589   16.7063 H   0  0  0  0  0  0
    3.1353   53.5971   15.3200 H   0  0  0  0  0  0
    0.1483   51.3193   24.8778 H   0  0  0  0  0  0
   -0.7108   52.1411   26.1779 H   0  0  0  0  0  0
   -0.3507   53.0222   24.7301 H   0  0  0  0  0  0
    1.6258   50.2442   16.6080 H   0  0  0  0  0  0
  1  2  1  0  0  0
  1 31  1  0  0  0
  1 32  1  0  0  0
  1 33  1  0  0  0
  2  7  2  0  0  0
  2  3  1  0  0  0
  3  4  2  0  0  0
  3 34  1  0  0  0
  4  5  1  0  0  0
  4 30  1  0  0  0
  5  6  2  0  0  0
  5  9  1  0  0  0
  6  7  1  0  0  0
  6  8  1  0  0  0
  7 35  1  0  0  0
  8 36  1  0  0  0
  8 37  1  0  0  0
  8 38  1  0  0  0
  9 10  2  0  0  0
  9 11  2  0  0  0
  9 12  1  0  0  0
 12 17  1  0  0  0
 12 13  1  0  0  0
 13 14  1  0  0  0
 13 39  1  0  0  0
 13 40  1  0  0  0
 14 15  1  0  0  0
 14 41  1  0  0  0
 14 42  1  0  0  0
 15 22  1  0  0  0
 15 16  1  0  0  0
 15 18  1  0  0  0
 16 17  1  0  0  0
 16 43  1  0  0  0
 16 44  1  0  0  0
 17 45  1  0  0  0
 17 46  1  0  0  0
 18 19  2  0  0  0
 18 23  1  0  0  0
 19 20  1  0  0  0
 19 67  1  0  0  0
 20 21  1  0  0  0
 20 47  1  0  0  0
 20 48  1  0  0  0
 21 22  1  0  0  0
 21 49  1  0  0  0
 21 50  1  0  0  0
 22 51  1  0  0  0
 23 24  1  0  0  0
 23 52  1  0  0  0
 24 29  1  0  0  0
 24 25  1  0  0  0
 24 53  1  0  0  0
 25 26  1  0  0  0
 25 54  1  0  0  0
 25 55  1  0  0  0
 26 27  1  0  0  0
 26 56  1  0  0  0
 26 57  1  0  0  0
 27 28  1  0  0  0
 27 58  1  0  0  0
 27 59  1  0  0  0
 28 29  1  0  0  0
 28 60  1  0  0  0
 28 61  1  0  0  0
 29 62  1  0  0  0
 29 63  1  0  0  0
 30 64  1  0  0  0
 30 65  1  0  0  0
 30 66  1  0  0  0
M  CHG  1  19   1
M  END
> <i_i_glide_confnum>
139

> <i_i_glide_lignum>
304

> <i_i_glide_posenum>
387

> <i_i_glide_rotatable_bonds>
4

> <i_m_Source_File_Index>
5021

> <b_m_subgroup_collapsed>
0

> <r_i_docking_score>
-3.73074

> <r_i_glide_ecoul>
-0.421827

> <r_i_glide_eff_state_penalty>
0

> <r_i_glide_einternal>
2.2278

> <r_i_glide_emodel>
-34.9113

> <r_i_glide_energy>
-27.9131

> <r_i_glide_erotb>
0.42351

> <r_i_glide_esite>
-0.139927

> <r_i_glide_evdw>
-27.4913

> <r_i_glide_gscore>
-3.73074

> <r_i_glide_hbond>
0

> <r_i_glide_ligand_efficiency>
-0.124358

> <r_i_glide_ligand_efficiency_ln>
-0.847664

> <r_i_glide_ligand_efficiency_sa>
-0.386409

> <r_i_glide_lipo>
-1.71792

> <r_i_glide_metal>
0

> <r_i_glide_rewards>
-0.858565

> <s_i_glide_gridfile>
wee1_glide-grid

> <s_m_Source_File>
wee1_decoys_glide_SP.sdf

> <s_m_Source_Path>
/Users/zhangxujun/Desktop

> <s_m_entry_id>
5296

> <s_m_entry_name>
wee1_decoys_glide_SP.5021

> <s_m_subgroup_title>
wee1_decoys_glide_SP

> <s_m_subgroupid>
wee1_decoys_glide_SP


$$$$
