ZINC39675277_1243
                    3D
 Schrodinger Suite 2024-2.
 69 72  0  0  1  0            999 V2000
    0.1875   52.2627   24.7071 C   0  0  0  0  0  0
    1.5160   52.4962   23.9577 C   0  0  2  0  0  0
    2.3000   52.2939   24.6882 H   0  0  0  0  0  0
    1.6928   53.9536   23.4515 C   0  0  0  0  0  0
    3.1401   54.3304   23.0660 C   0  0  0  0  0  0
    4.1550   54.4028   24.2035 C   0  0  0  0  0  0
    5.5089   54.4870   23.8744 C   0  0  0  0  0  0
    6.4681   54.5349   24.8784 C   0  0  0  0  0  0
    6.0902   54.4828   26.2180 C   0  0  0  0  0  0
    4.7302   54.4294   26.5490 C   0  0  0  0  0  0
    3.7691   54.4004   25.5480 C   0  0  0  0  0  0
    7.1044   54.4805   27.1487 O   0  0  0  0  0  0
    6.7921   54.0955   28.4825 C   0  0  0  0  0  0
    1.7610   51.5355   22.8833 N   0  0  0  0  0  0
    0.9728   51.2871   21.8242 C   0  0  0  0  0  0
   -0.1575   51.7616   21.6893 O   0  0  0  0  0  0
    1.5671   50.3198   20.7815 C   0  0  1  0  0  0
    2.5015   49.9091   21.1726 H   0  0  0  0  0  0
    0.6014   49.1515   20.5966 C   0  0  0  0  0  0
    1.0059   48.6054   19.3003 N   0  0  0  0  0  0
    1.8691   49.5426   18.5604 C   0  0  0  0  0  0
    1.7918   50.8793   19.3524 C   0  0  0  0  0  0
    0.6404   51.7969   18.8231 C   0  0  0  0  0  0
    0.8521   52.2324   17.3570 C   0  0  0  0  0  0
    2.2090   52.9689   17.2630 N   0  3  0  0  0  0
    3.3908   52.1507   17.8255 C   0  0  0  0  0  0
    3.0589   51.7621   19.2790 C   0  0  0  0  0  0
    0.5305   47.4048   18.8764 C   0  0  0  0  0  0
   -0.2433   46.7361   19.5665 O   0  0  0  0  0  0
    0.8991   46.8773   17.5080 C   0  0  0  0  0  0
   -0.1039   46.3013   16.7151 C   0  0  0  0  0  0
    0.1963   45.7953   15.4546 C   0  0  0  0  0  0
    1.5045   45.8496   14.9840 C   0  0  0  0  0  0
    2.5167   46.3929   15.7695 C   0  0  0  0  0  0
    2.2180   46.8968   17.0322 C   0  0  0  0  0  0
    1.9040   45.1695   13.2534 Br  0  0  0  0  0  0
    0.1208   52.8968   25.5904 H   0  0  0  0  0  0
   -0.6782   52.5069   24.0924 H   0  0  0  0  0  0
    0.0897   51.2295   25.0425 H   0  0  0  0  0  0
    1.2913   54.6690   24.1678 H   0  0  0  0  0  0
    1.1042   54.0953   22.5487 H   0  0  0  0  0  0
    3.1354   55.2967   22.5642 H   0  0  0  0  0  0
    3.5013   53.6159   22.3244 H   0  0  0  0  0  0
    5.8216   54.5072   22.8406 H   0  0  0  0  0  0
    7.5103   54.5835   24.6114 H   0  0  0  0  0  0
    4.3974   54.4063   27.5750 H   0  0  0  0  0  0
    2.7320   54.3613   25.8407 H   0  0  0  0  0  0
    7.7049   54.0689   29.0756 H   0  0  0  0  0  0
    6.3522   53.0977   28.5029 H   0  0  0  0  0  0
    6.1055   54.7950   28.9594 H   0  0  0  0  0  0
    2.6417   51.0459   22.9325 H   0  0  0  0  0  0
    0.6573   48.4511   21.4282 H   0  0  0  0  0  0
   -0.4258   49.5047   20.4821 H   0  0  0  0  0  0
    1.6708   49.6462   17.4949 H   0  0  0  0  0  0
    2.8946   49.1854   18.6657 H   0  0  0  0  0  0
   -0.3096   51.2654   18.8847 H   0  0  0  0  0  0
    0.5132   52.6844   19.4463 H   0  0  0  0  0  0
    0.8858   51.4074   16.6445 H   0  0  0  0  0  0
    0.0961   52.9462   17.0269 H   0  0  0  0  0  0
    2.3979   53.2243   16.3024 H   0  0  0  0  0  0
    3.5044   51.2965   17.1607 H   0  0  0  0  0  0
    4.2816   52.7754   17.7517 H   0  0  0  0  0  0
    2.9722   52.6426   19.9186 H   0  0  0  0  0  0
    3.9055   51.2037   19.6802 H   0  0  0  0  0  0
   -1.1252   46.2558   17.0672 H   0  0  0  0  0  0
   -0.5836   45.3647   14.8441 H   0  0  0  0  0  0
    3.5323   46.4294   15.4063 H   0  0  0  0  0  0
    3.0273   47.2963   17.6261 H   0  0  0  0  0  0
    2.1436   53.8320   17.7892 H   0  0  0  0  0  0
  1  2  1  0  0  0
  1 37  1  0  0  0
  1 38  1  0  0  0
  1 39  1  0  0  0
  2  3  1  0  0  0
  2  4  1  0  0  0
  2 14  1  0  0  0
  4  5  1  0  0  0
  4 40  1  0  0  0
  4 41  1  0  0  0
  5  6  1  0  0  0
  5 42  1  0  0  0
  5 43  1  0  0  0
  6 11  2  0  0  0
  6  7  1  0  0  0
  7  8  2  0  0  0
  7 44  1  0  0  0
  8  9  1  0  0  0
  8 45  1  0  0  0
  9 10  2  0  0  0
  9 12  1  0  0  0
 10 11  1  0  0  0
 10 46  1  0  0  0
 11 47  1  0  0  0
 12 13  1  0  0  0
 13 48  1  0  0  0
 13 49  1  0  0  0
 13 50  1  0  0  0
 14 15  1  0  0  0
 14 51  1  0  0  0
 15 16  2  0  0  0
 15 17  1  0  0  0
 17 18  1  0  0  0
 17 22  1  0  0  0
 17 19  1  0  0  0
 19 20  1  0  0  0
 19 52  1  0  0  0
 19 53  1  0  0  0
 20 21  1  0  0  0
 20 28  1  0  0  0
 21 22  1  0  0  0
 21 54  1  0  0  0
 21 55  1  0  0  0
 22 27  1  0  0  0
 22 23  1  0  0  0
 23 24  1  0  0  0
 23 56  1  0  0  0
 23 57  1  0  0  0
 24 25  1  0  0  0
 24 58  1  0  0  0
 24 59  1  0  0  0
 25 26  1  0  0  0
 25 60  1  0  0  0
 25 69  1  0  0  0
 26 27  1  0  0  0
 26 61  1  0  0  0
 26 62  1  0  0  0
 27 63  1  0  0  0
 27 64  1  0  0  0
 28 29  2  0  0  0
 28 30  1  0  0  0
 30 35  2  0  0  0
 30 31  1  0  0  0
 31 32  2  0  0  0
 31 65  1  0  0  0
 32 33  1  0  0  0
 32 66  1  0  0  0
 33 34  2  0  0  0
 33 36  1  0  0  0
 34 35  1  0  0  0
 34 67  1  0  0  0
 35 68  1  0  0  0
M  CHG  1  25   1
M  END
> <i_i_glide_confnum>
240

> <i_i_glide_lignum>
1244

> <i_i_glide_posenum>
341

> <i_i_glide_rotatable_bonds>
9

> <i_m_Source_File_Index>
3101

> <b_m_subgroup_collapsed>
0

> <r_i_docking_score>
-4.94293

> <r_i_glide_ecoul>
-6.61934

> <r_i_glide_eff_state_penalty>
0

> <r_i_glide_einternal>
5.16861

> <r_i_glide_emodel>
-60.0733

> <r_i_glide_energy>
-45.0284

> <r_i_glide_erotb>
0.588045

> <r_i_glide_esite>
-0.0517864

> <r_i_glide_evdw>
-38.4091

> <r_i_glide_gscore>
-4.94293

> <r_i_glide_hbond>
-0.11846

> <r_i_glide_ligand_efficiency>
-0.14538

> <r_i_glide_ligand_efficiency_ln>
-1.09203

> <r_i_glide_ligand_efficiency_sa>
-0.470976

> <r_i_glide_lipo>
-2.33524

> <r_i_glide_metal>
0

> <r_i_glide_rewards>
-0.112136

> <s_i_glide_gridfile>
wee1_glide-grid

> <s_m_Source_File>
wee1_decoys_glide_SP.sdf

> <s_m_Source_Path>
/Users/zhangxujun/Desktop

> <s_m_entry_id>
3376

> <s_m_entry_name>
wee1_decoys_glide_SP.3101

> <s_m_subgroup_title>
wee1_decoys_glide_SP

> <s_m_subgroupid>
wee1_decoys_glide_SP


$$$$
