ZINC03220312_669
                    3D
 Schrodinger Suite 2024-2.
 65 69  0  0  1  0            999 V2000
   -2.9662   50.0581   24.2713 C   0  0  0  0  0  0
   -1.6259   50.5225   23.6613 C   0  0  1  0  0  0
   -0.8345   50.0844   24.2686 H   0  0  0  0  0  0
   -1.3736   49.9471   22.2635 C   0  0  0  0  0  0
   -2.3163   49.7088   21.5062 O   0  0  0  0  0  0
   -0.0745   49.7678   21.9472 N   0  0  0  0  0  0
    0.4523   49.1996   20.7874 C   0  0  0  0  0  0
   -0.2083   48.2044   20.0530 C   0  0  0  0  0  0
    0.3846   47.6726   18.9148 C   0  0  0  0  0  0
    1.6464   48.1301   18.5109 C   0  0  0  0  0  0
    2.3040   49.1109   19.2558 C   0  0  0  0  0  0
    1.7145   49.6403   20.3964 C   0  0  0  0  0  0
    2.3043   47.6964   17.3521 N   0  0  0  0  0  0
    2.1010   46.5828   16.6202 C   0  0  0  0  0  0
    1.2896   45.6954   16.8794 O   0  0  0  0  0  0
    2.9906   46.4352   15.3965 C   0  0  0  0  0  0
   -1.4973   52.3491   23.6228 S   0  0  0  0  0  0
    0.1870   52.6501   24.2336 C   0  0  0  0  0  0
    0.9934   53.1045   23.3355 N   0  0  0  0  0  0
    2.2430   53.4570   23.7278 C   0  0  0  0  0  0
    2.6942   53.4597   25.0384 C   0  0  0  0  0  0
    4.0264   53.9128   25.1573 C   0  0  0  0  0  0
    4.6130   54.1257   23.8994 C   0  0  0  0  0  0
    3.4747   53.9137   22.6007 S   0  0  0  0  0  0
    6.0592   54.5560   23.6732 C   0  0  0  0  0  0
    6.8672   54.3526   24.9720 C   0  0  0  0  0  0
    6.1173   54.8701   26.2095 C   0  0  0  0  0  0
    4.8024   54.1012   26.4630 C   0  0  0  0  0  0
    1.7804   53.0270   26.0951 C   0  0  0  0  0  0
    2.0484   53.0833   27.2948 O   0  0  0  0  0  0
    0.5926   52.4924   25.5709 N   0  0  0  0  0  0
   -0.2814   51.7029   26.5045 C   0  0  0  0  0  0
    0.4022   50.6963   27.4456 C   0  0  0  0  0  0
    0.1474   51.2071   28.8784 C   0  0  0  0  0  0
   -0.5769   52.5481   28.7681 C   0  0  0  0  0  0
   -1.2414   52.4974   27.3919 C   0  0  0  0  0  0
   -3.0482   48.9697   24.2862 H   0  0  0  0  0  0
   -3.0749   50.4036   25.2992 H   0  0  0  0  0  0
   -3.8176   50.4464   23.7105 H   0  0  0  0  0  0
    0.6086   50.1753   22.5682 H   0  0  0  0  0  0
   -1.1770   47.8346   20.3518 H   0  0  0  0  0  0
   -0.1588   46.9288   18.3509 H   0  0  0  0  0  0
    3.2717   49.4765   18.9399 H   0  0  0  0  0  0
    2.2395   50.4028   20.9553 H   0  0  0  0  0  0
    3.0644   48.3155   17.0348 H   0  0  0  0  0  0
    3.9056   45.9107   15.6815 H   0  0  0  0  0  0
    3.2642   47.4063   14.9780 H   0  0  0  0  0  0
    2.4837   45.8567   14.6224 H   0  0  0  0  0  0
    6.5181   53.9923   22.8608 H   0  0  0  0  0  0
    6.1134   55.6083   23.3957 H   0  0  0  0  0  0
    7.1002   53.2967   25.1066 H   0  0  0  0  0  0
    7.8235   54.8676   24.8818 H   0  0  0  0  0  0
    6.7547   54.8084   27.0934 H   0  0  0  0  0  0
    5.8985   55.9258   26.0673 H   0  0  0  0  0  0
    4.2089   54.6399   27.2033 H   0  0  0  0  0  0
    5.0296   53.1248   26.8966 H   0  0  0  0  0  0
   -0.9720   51.1168   25.9233 H   0  0  0  0  0  0
   -0.0867   49.7291   27.2867 H   0  0  0  0  0  0
    1.4641   50.5351   27.2607 H   0  0  0  0  0  0
   -0.4964   50.5052   29.4056 H   0  0  0  0  0  0
    1.0724   51.2963   29.4493 H   0  0  0  0  0  0
   -1.2938   52.6632   29.5821 H   0  0  0  0  0  0
    0.1150   53.3874   28.8366 H   0  0  0  0  0  0
   -1.5484   53.4489   26.9670 H   0  0  0  0  0  0
   -2.1650   51.9256   27.4995 H   0  0  0  0  0  0
  1  2  1  0  0  0
  1 37  1  0  0  0
  1 38  1  0  0  0
  1 39  1  0  0  0
  2  3  1  0  0  0
  2  4  1  0  0  0
  2 17  1  0  0  0
  4  5  2  0  0  0
  4  6  1  0  0  0
  6  7  1  0  0  0
  6 40  1  0  0  0
  7 12  2  0  0  0
  7  8  1  0  0  0
  8  9  2  0  0  0
  8 41  1  0  0  0
  9 10  1  0  0  0
  9 42  1  0  0  0
 10 11  2  0  0  0
 10 13  1  0  0  0
 11 12  1  0  0  0
 11 43  1  0  0  0
 12 44  1  0  0  0
 13 14  1  0  0  0
 13 45  1  0  0  0
 14 15  2  0  0  0
 14 16  1  0  0  0
 16 46  1  0  0  0
 16 47  1  0  0  0
 16 48  1  0  0  0
 17 18  1  0  0  0
 18 31  1  0  0  0
 18 19  2  0  0  0
 19 20  1  0  0  0
 20 24  1  0  0  0
 20 21  2  0  0  0
 21 22  1  0  0  0
 21 29  1  0  0  0
 22 28  1  0  0  0
 22 23  2  0  0  0
 23 24  1  0  0  0
 23 25  1  0  0  0
 25 26  1  0  0  0
 25 49  1  0  0  0
 25 50  1  0  0  0
 26 27  1  0  0  0
 26 51  1  0  0  0
 26 52  1  0  0  0
 27 28  1  0  0  0
 27 53  1  0  0  0
 27 54  1  0  0  0
 28 55  1  0  0  0
 28 56  1  0  0  0
 29 30  2  0  0  0
 29 31  1  0  0  0
 31 32  1  0  0  0
 32 36  1  0  0  0
 32 33  1  0  0  0
 32 57  1  0  0  0
 33 34  1  0  0  0
 33 58  1  0  0  0
 33 59  1  0  0  0
 34 35  1  0  0  0
 34 60  1  0  0  0
 34 61  1  0  0  0
 35 36  1  0  0  0
 35 62  1  0  0  0
 35 63  1  0  0  0
 36 64  1  0  0  0
 36 65  1  0  0  0
M  END
> <i_i_glide_confnum>
191

> <i_i_glide_lignum>
670

> <i_i_glide_posenum>
187

> <i_i_glide_rotatable_bonds>
8

> <i_m_Source_File_Index>
4627

> <b_m_subgroup_collapsed>
0

> <r_i_docking_score>
-5.38712

> <r_i_glide_ecoul>
-8.07498

> <r_i_glide_eff_state_penalty>
0

> <r_i_glide_einternal>
7.0849

> <r_i_glide_emodel>
-56.8214

> <r_i_glide_energy>
-43.2756

> <r_i_glide_erotb>
0.549936

> <r_i_glide_esite>
-0.161206

> <r_i_glide_evdw>
-35.2006

> <r_i_glide_gscore>
-5.38712

> <r_i_glide_hbond>
-0.131211

> <r_i_glide_ligand_efficiency>
-0.153918

> <r_i_glide_ligand_efficiency_ln>
-1.18259

> <r_i_glide_ligand_efficiency_sa>
-0.503475

> <r_i_glide_lipo>
-2.35216

> <r_i_glide_metal>
0

> <r_i_glide_rewards>
-0.3212

> <s_i_glide_gridfile>
wee1_glide-grid

> <s_m_Source_File>
wee1_decoys_glide_SP.sdf

> <s_m_Source_Path>
/Users/zhangxujun/Desktop

> <s_m_entry_id>
4902

> <s_m_entry_name>
wee1_decoys_glide_SP.4627

> <s_m_subgroup_title>
wee1_decoys_glide_SP

> <s_m_subgroupid>
wee1_decoys_glide_SP


$$$$
