ZINC16613672_6104
                    3D
 Schrodinger Suite 2024-2.
 64 68  0  0  1  0            999 V2000
    7.9034   55.6325   16.3456 C   0  0  0  0  0  0
    7.0609   55.1947   17.5304 C   0  0  0  0  0  0
    6.5089   53.9138   17.5518 C   0  0  0  0  0  0
    5.7349   53.5048   18.6335 C   0  0  0  0  0  0
    5.5020   54.3750   19.7100 C   0  0  0  0  0  0
    6.0609   55.6614   19.6744 C   0  0  0  0  0  0
    6.8315   56.0706   18.5898 C   0  0  0  0  0  0
    4.7040   53.9422   20.9192 C   0  0  0  0  0  0
    4.8917   54.4966   22.0060 O   0  0  0  0  0  0
    3.8236   52.9344   20.7237 N   0  0  0  0  0  0
    3.0419   52.2972   21.7015 C   0  0  0  0  0  0
    2.7806   50.9360   21.5319 C   0  0  0  0  0  0
    2.0956   50.2296   22.5188 C   0  0  0  0  0  0
    1.6781   50.8779   23.6810 C   0  0  0  0  0  0
    1.9039   52.2517   23.8654 C   0  0  0  0  0  0
    2.5416   52.9574   22.8358 C   0  0  0  0  0  0
    1.4569   52.9858   25.1545 C   0  0  1  0  0  0
    1.1040   53.9529   24.7882 H   0  0  0  0  0  0
    0.2287   52.3731   25.9094 C   0  0  0  0  0  0
    0.2855   52.1657   27.2632 C   0  0  0  0  0  0
    1.3944   52.3970   28.0183 N   0  0  0  0  0  0
    2.4138   52.9400   27.4868 C   0  0  0  0  0  0
    2.5507   53.3003   26.1365 N   0  0  0  0  0  0
    3.4579   54.3932   25.7455 C   0  0  0  0  0  0
    4.8884   54.1414   26.2481 C   0  0  0  0  0  0
    5.0013   54.1053   27.7774 C   0  0  0  0  0  0
    3.8237   53.0058   28.6193 S   0  0  0  0  0  0
   -0.8471   51.7024   28.1790 C   0  0  0  0  0  0
   -0.9537   52.0957   25.1084 C   0  0  0  0  0  0
   -1.3681   52.8973   24.2723 O   0  0  0  0  0  0
   -1.4710   50.8642   25.3177 N   0  0  0  0  0  0
   -2.5690   50.2319   24.7113 C   0  0  0  0  0  0
   -3.0499   49.0925   25.3629 C   0  0  0  0  0  0
   -4.1344   48.3927   24.8412 C   0  0  0  0  0  0
   -4.7324   48.8277   23.6606 C   0  0  0  0  0  0
   -4.2530   49.9545   22.9958 C   0  0  0  0  0  0
   -3.1702   50.6575   23.5168 C   0  0  0  0  0  0
    7.4365   55.3173   15.4124 H   0  0  0  0  0  0
    8.0078   56.7174   16.3003 H   0  0  0  0  0  0
    8.8934   55.1802   16.3943 H   0  0  0  0  0  0
    6.6854   53.2269   16.7365 H   0  0  0  0  0  0
    5.3421   52.4967   18.6234 H   0  0  0  0  0  0
    5.9037   56.3541   20.4890 H   0  0  0  0  0  0
    7.2518   57.0656   18.5792 H   0  0  0  0  0  0
    3.8029   52.5224   19.8034 H   0  0  0  0  0  0
    3.1336   50.4111   20.6547 H   0  0  0  0  0  0
    1.9174   49.1710   22.3995 H   0  0  0  0  0  0
    1.1889   50.2935   24.4457 H   0  0  0  0  0  0
    2.6679   54.0240   22.9207 H   0  0  0  0  0  0
    3.4629   54.6367   24.6868 H   0  0  0  0  0  0
    3.1049   55.2895   26.2560 H   0  0  0  0  0  0
    5.2655   53.2115   25.8241 H   0  0  0  0  0  0
    5.5447   54.9183   25.8531 H   0  0  0  0  0  0
    6.0016   53.7832   28.0733 H   0  0  0  0  0  0
    4.8528   55.1000   28.2003 H   0  0  0  0  0  0
   -0.6759   50.6730   28.4846 H   0  0  0  0  0  0
   -0.9000   52.3128   29.0830 H   0  0  0  0  0  0
   -1.8302   51.7561   27.7153 H   0  0  0  0  0  0
   -1.0545   50.3356   26.0697 H   0  0  0  0  0  0
   -2.5953   48.7472   26.2833 H   0  0  0  0  0  0
   -4.5111   47.5196   25.3530 H   0  0  0  0  0  0
   -5.5763   48.2885   23.2554 H   0  0  0  0  0  0
   -4.7198   50.2813   22.0790 H   0  0  0  0  0  0
   -2.8107   51.5145   22.9723 H   0  0  0  0  0  0
  1  2  1  0  0  0
  1 38  1  0  0  0
  1 39  1  0  0  0
  1 40  1  0  0  0
  2  7  2  0  0  0
  2  3  1  0  0  0
  3  4  2  0  0  0
  3 41  1  0  0  0
  4  5  1  0  0  0
  4 42  1  0  0  0
  5  6  2  0  0  0
  5  8  1  0  0  0
  6  7  1  0  0  0
  6 43  1  0  0  0
  7 44  1  0  0  0
  8  9  2  0  0  0
  8 10  1  0  0  0
 10 11  1  0  0  0
 10 45  1  0  0  0
 11 16  2  0  0  0
 11 12  1  0  0  0
 12 13  2  0  0  0
 12 46  1  0  0  0
 13 14  1  0  0  0
 13 47  1  0  0  0
 14 15  2  0  0  0
 14 48  1  0  0  0
 15 16  1  0  0  0
 15 17  1  0  0  0
 16 49  1  0  0  0
 17 18  1  0  0  0
 17 23  1  0  0  0
 17 19  1  0  0  0
 19 20  2  0  0  0
 19 29  1  0  0  0
 20 21  1  0  0  0
 20 28  1  0  0  0
 21 22  2  0  0  0
 22 27  1  0  0  0
 22 23  1  0  0  0
 23 24  1  0  0  0
 24 25  1  0  0  0
 24 50  1  0  0  0
 24 51  1  0  0  0
 25 26  1  0  0  0
 25 52  1  0  0  0
 25 53  1  0  0  0
 26 27  1  0  0  0
 26 54  1  0  0  0
 26 55  1  0  0  0
 28 56  1  0  0  0
 28 57  1  0  0  0
 28 58  1  0  0  0
 29 30  2  0  0  0
 29 31  1  0  0  0
 31 32  1  0  0  0
 31 59  1  0  0  0
 32 37  2  0  0  0
 32 33  1  0  0  0
 33 34  2  0  0  0
 33 60  1  0  0  0
 34 35  1  0  0  0
 34 61  1  0  0  0
 35 36  2  0  0  0
 35 62  1  0  0  0
 36 37  1  0  0  0
 36 63  1  0  0  0
 37 64  1  0  0  0
M  END
> <i_i_glide_confnum>
186

> <i_i_glide_lignum>
6105

> <i_i_glide_posenum>
55

> <i_i_glide_rotatable_bonds>
7

> <i_m_Source_File_Index>
5166

> <b_m_subgroup_collapsed>
0

> <r_i_docking_score>
-4.78183

> <r_i_glide_ecoul>
-4.84634

> <r_i_glide_eff_state_penalty>
0

> <r_i_glide_einternal>
4.73536

> <r_i_glide_emodel>
-57.3532

> <r_i_glide_energy>
-46.2392

> <r_i_glide_erotb>
0.578809

> <r_i_glide_esite>
-0.0260343

> <r_i_glide_evdw>
-41.3928

> <r_i_glide_gscore>
-4.78183

> <r_i_glide_hbond>
0

> <r_i_glide_ligand_efficiency>
-0.132829

> <r_i_glide_ligand_efficiency_ln>
-1.04327

> <r_i_glide_ligand_efficiency_sa>
-0.43859

> <r_i_glide_lipo>
-1.98256

> <r_i_glide_metal>
0

> <r_i_glide_rewards>
-0.555455

> <s_i_glide_gridfile>
wee1_glide-grid

> <s_m_Source_File>
wee1_decoys_glide_SP.sdf

> <s_m_Source_Path>
/Users/zhangxujun/Desktop

> <s_m_entry_id>
5441

> <s_m_entry_name>
wee1_decoys_glide_SP.5166

> <s_m_subgroup_title>
wee1_decoys_glide_SP

> <s_m_subgroupid>
wee1_decoys_glide_SP


$$$$
