ZINC48743648_6201
                    3D
 Schrodinger Suite 2024-2.
 52 53  0  0  1  0            999 V2000
    2.0687   53.6494   25.1900 C   0  0  0  0  0  0
    2.9699   53.6965   26.4137 C   0  0  0  0  0  0
    2.4253   53.2810   27.6328 C   0  0  0  0  0  0
    3.2017   53.2565   28.7959 C   0  0  0  0  0  0
    4.5164   53.7229   28.7269 C   0  0  0  0  0  0
    5.0778   54.1312   27.5186 C   0  0  0  0  0  0
    4.3197   54.0961   26.3379 C   0  0  0  0  0  0
    4.8428   54.3875   25.0585 N   0  0  0  0  0  0
    6.1077   54.6728   24.6508 C   0  0  0  0  0  0
    7.0602   54.8949   25.4027 O   0  0  0  0  0  0
    6.2657   54.7587   23.1585 C   0  0  0  0  0  0
    7.1036   55.4972   22.6396 O   0  0  0  0  0  0
    5.4156   54.0014   22.4218 N   0  0  0  0  0  0
    5.2689   54.0794   20.9622 C   0  0  0  0  0  0
    4.8224   52.7416   20.3015 C   0  0  1  0  0  0
    5.6536   52.0359   20.3233 H   0  0  0  0  0  0
    3.5636   52.0740   20.8546 C   0  0  0  0  0  0
    3.1041   50.7767   20.6172 C   0  0  0  0  0  0
    1.9219   50.4369   21.2775 C   0  0  0  0  0  0
    1.4152   51.4866   22.0168 C   0  0  0  0  0  0
    2.4073   52.8940   21.8748 S   0  0  0  0  0  0
    4.6276   52.8970   18.7684 N   0  3  0  0  0  0
    3.4064   53.7378   18.3253 C   0  0  0  0  0  0
    5.9018   53.3092   17.9989 C   0  0  0  0  0  0
    2.6756   52.6913   30.0922 C   0  0  0  0  0  0
    3.4402   52.1345   30.8831 O   0  0  0  0  0  0
    1.3652   52.8600   30.3361 N   0  0  0  0  0  0
    0.6796   52.4086   31.5456 C   0  0  0  0  0  0
    1.0158   53.6965   25.4621 H   0  0  0  0  0  0
    2.2470   54.4938   24.5235 H   0  0  0  0  0  0
    2.2417   52.7171   24.6556 H   0  0  0  0  0  0
    1.4045   52.9249   27.6552 H   0  0  0  0  0  0
    5.1091   53.7537   29.6247 H   0  0  0  0  0  0
    6.1084   54.4488   27.5306 H   0  0  0  0  0  0
    4.1522   54.3169   24.3298 H   0  0  0  0  0  0
    4.7754   53.3784   22.8901 H   0  0  0  0  0  0
    6.2180   54.3937   20.5243 H   0  0  0  0  0  0
    4.5589   54.8747   20.7335 H   0  0  0  0  0  0
    3.6195   50.0885   19.9650 H   0  0  0  0  0  0
    1.4534   49.4660   21.2047 H   0  0  0  0  0  0
    0.5170   51.5053   22.6167 H   0  0  0  0  0  0
    3.5654   54.7703   18.6381 H   0  0  0  0  0  0
    3.3342   53.6630   17.2395 H   0  0  0  0  0  0
    2.5116   53.3187   18.7859 H   0  0  0  0  0  0
    6.1315   54.3518   18.2230 H   0  0  0  0  0  0
    6.7020   52.6365   18.3081 H   0  0  0  0  0  0
    5.6918   53.1702   16.9368 H   0  0  0  0  0  0
    0.8051   53.3469   29.6542 H   0  0  0  0  0  0
   -0.2521   51.9093   31.2776 H   0  0  0  0  0  0
    1.2690   51.7053   32.1377 H   0  0  0  0  0  0
    0.4295   53.2584   32.1817 H   0  0  0  0  0  0
    4.4730   51.9358   18.4593 H   0  0  0  0  0  0
  1  2  1  0  0  0
  1 29  1  0  0  0
  1 30  1  0  0  0
  1 31  1  0  0  0
  2  7  2  0  0  0
  2  3  1  0  0  0
  3  4  2  0  0  0
  3 32  1  0  0  0
  4  5  1  0  0  0
  4 25  1  0  0  0
  5  6  2  0  0  0
  5 33  1  0  0  0
  6  7  1  0  0  0
  6 34  1  0  0  0
  7  8  1  0  0  0
  8  9  1  0  0  0
  8 35  1  0  0  0
  9 10  2  0  0  0
  9 11  1  0  0  0
 11 12  2  0  0  0
 11 13  1  0  0  0
 13 14  1  0  0  0
 13 36  1  0  0  0
 14 15  1  0  0  0
 14 37  1  0  0  0
 14 38  1  0  0  0
 15 16  1  0  0  0
 15 17  1  0  0  0
 15 22  1  0  0  0
 17 21  1  0  0  0
 17 18  2  0  0  0
 18 19  1  0  0  0
 18 39  1  0  0  0
 19 20  2  0  0  0
 19 40  1  0  0  0
 20 21  1  0  0  0
 20 41  1  0  0  0
 22 23  1  0  0  0
 22 24  1  0  0  0
 22 52  1  0  0  0
 23 42  1  0  0  0
 23 43  1  0  0  0
 23 44  1  0  0  0
 24 45  1  0  0  0
 24 46  1  0  0  0
 24 47  1  0  0  0
 25 26  2  0  0  0
 25 27  1  0  0  0
 27 28  1  0  0  0
 27 48  1  0  0  0
 28 49  1  0  0  0
 28 50  1  0  0  0
 28 51  1  0  0  0
M  CHG  1  22   1
M  END
> <i_i_glide_confnum>
98

> <i_i_glide_lignum>
6202

> <i_i_glide_posenum>
312

> <i_i_glide_rotatable_bonds>
10

> <i_m_Source_File_Index>
4368

> <b_m_subgroup_collapsed>
0

> <r_i_docking_score>
-6.91375

> <r_i_glide_ecoul>
-6.93683

> <r_i_glide_eff_state_penalty>
0

> <r_i_glide_einternal>
7.83824

> <r_i_glide_emodel>
-75.4423

> <r_i_glide_energy>
-53.4775

> <r_i_glide_erotb>
0.899536

> <r_i_glide_esite>
-0.0929841

> <r_i_glide_evdw>
-46.5407

> <r_i_glide_gscore>
-6.91375

> <r_i_glide_hbond>
-0.743751

> <r_i_glide_ligand_efficiency>
-0.256065

> <r_i_glide_ligand_efficiency_ln>
-1.60941

> <r_i_glide_ligand_efficiency_sa>
-0.768194

> <r_i_glide_lipo>
-1.88119

> <r_i_glide_metal>
0

> <r_i_glide_rewards>
-1.7278

> <s_i_glide_gridfile>
wee1_glide-grid

> <s_m_Source_File>
wee1_decoys_glide_SP.sdf

> <s_m_Source_Path>
/Users/zhangxujun/Desktop

> <s_m_entry_id>
4643

> <s_m_entry_name>
wee1_decoys_glide_SP.4368

> <s_m_subgroup_title>
wee1_decoys_glide_SP

> <s_m_subgroupid>
wee1_decoys_glide_SP


$$$$
