ZINC38849815_4042
                    3D
 Schrodinger Suite 2024-2.
 62 65  0  0  1  0            999 V2000
    6.3236   47.7932   12.4274 C   0  0  0  0  0  0
    6.6024   49.2175   12.8810 C   0  0  0  0  0  0
    5.5616   50.1480   12.9081 C   0  0  0  0  0  0
    5.8022   51.4461   13.3424 C   0  0  0  0  0  0
    7.0888   51.8150   13.7400 C   0  0  0  0  0  0
    8.1360   50.8930   13.7015 C   0  0  0  0  0  0
    7.8916   49.5924   13.2726 C   0  0  0  0  0  0
    7.3690   53.4481   14.4070 S   0  0  0  0  0  0
    6.3704   54.3304   13.7889 O   0  0  0  0  0  0
    8.8103   53.7102   14.3085 O   0  0  0  0  0  0
    6.9507   53.2334   16.1101 N   0  0  0  0  0  0
    5.5839   53.4062   16.6235 C   0  0  0  0  0  0
    5.5659   54.6411   17.5492 C   0  0  0  0  0  0
    6.5866   54.4988   18.6141 N   0  0  0  0  0  0
    7.9537   54.2287   18.1135 C   0  0  0  0  0  0
    7.9499   53.0053   17.1645 C   0  0  0  0  0  0
    6.5567   55.6290   19.5479 C   0  0  0  0  0  0
    6.2170   55.1798   20.9632 C   0  0  0  0  0  0
    7.0521   55.5384   22.0206 C   0  0  0  0  0  0
    6.7045   55.2043   23.3254 C   0  0  0  0  0  0
    5.5308   54.4967   23.5987 C   0  0  0  0  0  0
    4.7165   54.0960   22.5252 C   0  0  0  0  0  0
    5.0520   54.4500   21.2206 C   0  0  0  0  0  0
    5.1615   54.2161   25.0356 C   0  0  0  0  0  0
    6.0401   54.1355   25.8973 O   0  0  0  0  0  0
    3.8369   54.0953   25.2673 N   0  0  0  0  0  0
    3.1603   53.7310   26.4473 C   0  0  0  0  0  0
    3.7173   53.9151   27.7256 C   0  0  0  0  0  0
    3.0192   53.5288   28.8662 C   0  0  0  0  0  0
    1.7538   52.9632   28.7503 C   0  0  0  0  0  0
    1.1839   52.7870   27.4911 C   0  0  0  0  0  0
    1.8700   53.1674   26.3264 C   0  0  0  0  0  0
    1.2038   52.9521   24.9554 C   0  0  0  0  0  0
    1.1620   54.0965   24.2745 F   0  0  0  0  0  0
    1.9038   52.0769   24.2384 F   0  0  0  0  0  0
   -0.0447   52.4944   25.0542 F   0  0  0  0  0  0
    6.3044   47.1205   13.2812 H   0  0  0  0  0  0
    5.3785   47.7073   11.8940 H   0  0  0  0  0  0
    7.1036   47.4512   11.7492 H   0  0  0  0  0  0
    4.5613   49.8604   12.6149 H   0  0  0  0  0  0
    4.9866   52.1557   13.3861 H   0  0  0  0  0  0
    9.1281   51.1682   14.0303 H   0  0  0  0  0  0
    8.7009   48.8764   13.2806 H   0  0  0  0  0  0
    4.9112   53.5482   15.7776 H   0  0  0  0  0  0
    5.2683   52.4985   17.1390 H   0  0  0  0  0  0
    4.5668   54.8019   17.9565 H   0  0  0  0  0  0
    5.8834   55.5078   16.9649 H   0  0  0  0  0  0
    8.2141   55.1094   17.5200 H   0  0  0  0  0  0
    8.6683   54.0966   18.9264 H   0  0  0  0  0  0
    8.9305   52.8710   16.7046 H   0  0  0  0  0  0
    7.7108   52.0745   17.6816 H   0  0  0  0  0  0
    5.8094   56.3692   19.2553 H   0  0  0  0  0  0
    7.5092   56.1645   19.5506 H   0  0  0  0  0  0
    7.9620   56.0948   21.8433 H   0  0  0  0  0  0
    7.3663   55.5143   24.1226 H   0  0  0  0  0  0
    3.8069   53.5331   22.6828 H   0  0  0  0  0  0
    4.4023   54.1591   20.4063 H   0  0  0  0  0  0
    3.2449   54.1771   24.4555 H   0  0  0  0  0  0
    4.6899   54.3627   27.8598 H   0  0  0  0  0  0
    3.4642   53.6682   29.8400 H   0  0  0  0  0  0
    1.2103   52.6612   29.6346 H   0  0  0  0  0  0
    0.2002   52.3417   27.4338 H   0  0  0  0  0  0
  1  2  1  0  0  0
  1 37  1  0  0  0
  1 38  1  0  0  0
  1 39  1  0  0  0
  2  7  2  0  0  0
  2  3  1  0  0  0
  3  4  2  0  0  0
  3 40  1  0  0  0
  4  5  1  0  0  0
  4 41  1  0  0  0
  5  6  2  0  0  0
  5  8  1  0  0  0
  6  7  1  0  0  0
  6 42  1  0  0  0
  7 43  1  0  0  0
  8  9  2  0  0  0
  8 10  2  0  0  0
  8 11  1  0  0  0
 11 16  1  0  0  0
 11 12  1  0  0  0
 12 13  1  0  0  0
 12 44  1  0  0  0
 12 45  1  0  0  0
 13 14  1  0  0  0
 13 46  1  0  0  0
 13 47  1  0  0  0
 14 15  1  0  0  0
 14 17  1  0  0  0
 15 16  1  0  0  0
 15 48  1  0  0  0
 15 49  1  0  0  0
 16 50  1  0  0  0
 16 51  1  0  0  0
 17 18  1  0  0  0
 17 52  1  0  0  0
 17 53  1  0  0  0
 18 23  2  0  0  0
 18 19  1  0  0  0
 19 20  2  0  0  0
 19 54  1  0  0  0
 20 21  1  0  0  0
 20 55  1  0  0  0
 21 22  2  0  0  0
 21 24  1  0  0  0
 22 23  1  0  0  0
 22 56  1  0  0  0
 23 57  1  0  0  0
 24 25  2  0  0  0
 24 26  1  0  0  0
 26 27  1  0  0  0
 26 58  1  0  0  0
 27 32  2  0  0  0
 27 28  1  0  0  0
 28 29  2  0  0  0
 28 59  1  0  0  0
 29 30  1  0  0  0
 29 60  1  0  0  0
 30 31  2  0  0  0
 30 61  1  0  0  0
 31 32  1  0  0  0
 31 62  1  0  0  0
 32 33  1  0  0  0
 33 34  1  0  0  0
 33 35  1  0  0  0
 33 36  1  0  0  0
M  END
> <i_i_glide_confnum>
43

> <i_i_glide_lignum>
4043

> <i_i_glide_posenum>
357

> <i_i_glide_rotatable_bonds>
8

> <i_m_Source_File_Index>
2211

> <b_m_subgroup_collapsed>
0

> <r_i_docking_score>
-5.33198

> <r_i_glide_ecoul>
-1.44189

> <r_i_glide_eff_state_penalty>
0

> <r_i_glide_einternal>
5.26781

> <r_i_glide_emodel>
-55.0224

> <r_i_glide_energy>
-42.7884

> <r_i_glide_erotb>
0.536559

> <r_i_glide_esite>
-0.011726

> <r_i_glide_evdw>
-41.3465

> <r_i_glide_gscore>
-5.33198

> <r_i_glide_hbond>
0

> <r_i_glide_ligand_efficiency>
-0.148111

> <r_i_glide_ligand_efficiency_ln>
-1.16329

> <r_i_glide_ligand_efficiency_sa>
-0.489051

> <r_i_glide_lipo>
-2.69987

> <r_i_glide_metal>
0

> <r_i_glide_rewards>
-0.873342

> <s_i_glide_gridfile>
wee1_glide-grid

> <s_m_Source_File>
wee1_decoys_glide_SP.sdf

> <s_m_Source_Path>
/Users/zhangxujun/Desktop

> <s_m_entry_id>
2486

> <s_m_entry_name>
wee1_decoys_glide_SP.2211

> <s_m_subgroup_title>
wee1_decoys_glide_SP

> <s_m_subgroupid>
wee1_decoys_glide_SP


$$$$
