ZINC59170665_600
                    3D
 Schrodinger Suite 2024-2.
 61 65  0  0  1  0            999 V2000
   -2.7199   52.7762   23.6242 C   0  0  0  0  0  0
   -1.6603   52.0802   22.7882 C   0  0  0  0  0  0
   -2.0032   51.4851   21.5706 C   0  0  0  0  0  0
   -1.0380   50.8014   20.8320 C   0  0  0  0  0  0
    0.2673   50.7082   21.3182 C   0  0  0  0  0  0
    0.6144   51.3054   22.5299 C   0  0  0  0  0  0
   -0.3501   51.9952   23.2625 C   0  0  0  0  0  0
    1.4801   49.7589   20.4077 S   0  0  0  0  0  0
    2.7043   49.7273   21.2128 O   0  0  0  0  0  0
    0.8188   48.5139   19.9956 O   0  0  0  0  0  0
    1.8106   50.6801   18.9483 N   0  0  0  0  0  0
    2.7066   51.6408   19.0750 N   0  3  0  0  0  0
    3.0855   52.5501   18.1747 C   0  0  0  0  0  0
    4.0666   53.5556   18.4116 C   0  0  0  0  0  0
    4.4326   54.3093   17.3361 C   0  0  0  0  0  0
    3.8331   54.1707   16.0049 C   0  0  0  0  0  0
    4.1882   54.9378   14.8944 C   0  0  0  0  0  0
    3.5377   54.7183   13.6773 C   0  0  0  0  0  0
    2.5434   53.7390   13.5742 C   0  0  0  0  0  0
    2.1903   52.9732   14.6887 C   0  0  0  0  0  0
    2.8393   53.1982   15.9033 C   0  0  0  0  0  0
    2.4892   52.4491   17.0147 O   0  0  0  0  0  0
    4.7086   53.8278   19.6940 C   0  0  0  0  0  0
    5.9038   54.1050   19.7715 O   0  0  0  0  0  0
    3.8677   53.7924   20.7487 N   0  0  0  0  0  0
    4.0995   53.9294   22.1245 C   0  0  0  0  0  0
    5.3561   54.0674   22.7231 C   0  0  0  0  0  0
    5.4544   54.1577   24.1115 C   0  0  0  0  0  0
    4.3146   54.0975   24.9353 C   0  0  0  0  0  0
    3.0665   53.9714   24.3037 C   0  0  0  0  0  0
    2.9592   53.8979   22.9216 C   0  0  0  0  0  0
    4.4200   54.1665   26.4401 C   0  0  0  0  0  0
    3.2855   54.3895   27.2418 C   0  0  0  0  0  0
    3.3796   54.4972   28.6252 C   0  0  0  0  0  0
    4.6196   54.3743   29.2379 C   0  0  0  0  0  0
    5.7544   54.1089   28.4789 C   0  0  0  0  0  0
    5.6546   54.0131   27.0944 C   0  0  0  0  0  0
   -2.4382   52.8061   24.6753 H   0  0  0  0  0  0
   -3.6638   52.2355   23.5763 H   0  0  0  0  0  0
   -2.8942   53.7950   23.2823 H   0  0  0  0  0  0
   -3.0191   51.5240   21.2029 H   0  0  0  0  0  0
   -1.3110   50.3179   19.9021 H   0  0  0  0  0  0
    1.6194   51.2244   22.9218 H   0  0  0  0  0  0
   -0.0786   52.4420   24.2105 H   0  0  0  0  0  0
    0.9877   50.9476   18.4063 H   0  0  0  0  0  0
    5.1881   55.0752   17.4600 H   0  0  0  0  0  0
    4.9541   55.6968   14.9668 H   0  0  0  0  0  0
    3.8048   55.3085   12.8114 H   0  0  0  0  0  0
    2.0517   53.5693   12.6257 H   0  0  0  0  0  0
    1.4282   52.2102   14.6123 H   0  0  0  0  0  0
    2.8855   53.7791   20.5121 H   0  0  0  0  0  0
    6.2643   54.1027   22.1420 H   0  0  0  0  0  0
    6.4447   54.2770   24.5254 H   0  0  0  0  0  0
    2.1493   53.9131   24.8637 H   0  0  0  0  0  0
    1.9778   53.8021   22.4753 H   0  0  0  0  0  0
    2.3021   54.4967   26.8184 H   0  0  0  0  0  0
    2.4952   54.6850   29.2174 H   0  0  0  0  0  0
    4.7039   54.4858   30.3083 H   0  0  0  0  0  0
    6.7192   54.0093   28.9593 H   0  0  0  0  0  0
    6.5621   53.8122   26.5471 H   0  0  0  0  0  0
    3.1882   51.6711   19.9705 H   0  0  0  0  0  0
  1  2  1  0  0  0
  1 38  1  0  0  0
  1 39  1  0  0  0
  1 40  1  0  0  0
  2  7  2  0  0  0
  2  3  1  0  0  0
  3  4  2  0  0  0
  3 41  1  0  0  0
  4  5  1  0  0  0
  4 42  1  0  0  0
  5  6  2  0  0  0
  5  8  1  0  0  0
  6  7  1  0  0  0
  6 43  1  0  0  0
  7 44  1  0  0  0
  8  9  2  0  0  0
  8 10  2  0  0  0
  8 11  1  0  0  0
 11 12  1  0  0  0
 11 45  1  0  0  0
 12 13  2  0  0  0
 12 61  1  0  0  0
 13 22  1  0  0  0
 13 14  1  0  0  0
 14 15  2  0  0  0
 14 23  1  0  0  0
 15 16  1  0  0  0
 15 46  1  0  0  0
 16 21  2  0  0  0
 16 17  1  0  0  0
 17 18  2  0  0  0
 17 47  1  0  0  0
 18 19  1  0  0  0
 18 48  1  0  0  0
 19 20  2  0  0  0
 19 49  1  0  0  0
 20 21  1  0  0  0
 20 50  1  0  0  0
 21 22  1  0  0  0
 23 24  2  0  0  0
 23 25  1  0  0  0
 25 26  1  0  0  0
 25 51  1  0  0  0
 26 31  2  0  0  0
 26 27  1  0  0  0
 27 28  2  0  0  0
 27 52  1  0  0  0
 28 29  1  0  0  0
 28 53  1  0  0  0
 29 30  2  0  0  0
 29 32  1  0  0  0
 30 31  1  0  0  0
 30 54  1  0  0  0
 31 55  1  0  0  0
 32 37  2  0  0  0
 32 33  1  0  0  0
 33 34  2  0  0  0
 33 56  1  0  0  0
 34 35  1  0  0  0
 34 57  1  0  0  0
 35 36  2  0  0  0
 35 58  1  0  0  0
 36 37  1  0  0  0
 36 59  1  0  0  0
 37 60  1  0  0  0
M  CHG  1  12   1
M  END
> <i_i_glide_confnum>
87

> <i_i_glide_lignum>
601

> <i_i_glide_posenum>
250

> <i_i_glide_rotatable_bonds>
7

> <i_m_Source_File_Index>
1689

> <b_m_subgroup_collapsed>
0

> <r_i_docking_score>
-4.83303

> <r_i_glide_ecoul>
-1.01683

> <r_i_glide_eff_state_penalty>
0

> <r_i_glide_einternal>
6.52962

> <r_i_glide_emodel>
-54.3993

> <r_i_glide_energy>
-43.971

> <r_i_glide_erotb>
0.550111

> <r_i_glide_esite>
-0.153645

> <r_i_glide_evdw>
-42.9542

> <r_i_glide_gscore>
-4.83303

> <r_i_glide_hbond>
-0.174514

> <r_i_glide_ligand_efficiency>
-0.130623

> <r_i_glide_ligand_efficiency_ln>
-1.04817

> <r_i_glide_ligand_efficiency_sa>
-0.435263

> <r_i_glide_lipo>
-3.05948

> <r_i_glide_metal>
0

> <r_i_glide_rewards>
0.304726

> <s_i_glide_gridfile>
wee1_glide-grid

> <s_m_Source_File>
wee1_decoys_glide_SP.sdf

> <s_m_Source_Path>
/Users/zhangxujun/Desktop

> <s_m_entry_id>
1964

> <s_m_entry_name>
wee1_decoys_glide_SP.1689

> <s_m_subgroup_title>
wee1_decoys_glide_SP

> <s_m_subgroupid>
wee1_decoys_glide_SP


$$$$
