ZINC08835792_5180
                    3D
 Schrodinger Suite 2024-2.
 52 55  0  0  1  0            999 V2000
    4.6558   52.8588   28.6416 C   0  0  0  0  0  0
    4.3207   54.1074   28.0518 O   0  0  0  0  0  0
    4.3202   54.1036   26.6758 C   0  0  0  0  0  0
    3.1636   53.7604   25.9519 C   0  0  0  0  0  0
    3.2109   53.7672   24.5516 C   0  0  0  0  0  0
    4.3855   54.1089   23.8543 C   0  0  0  0  0  0
    4.4257   54.0979   22.4365 C   0  0  0  0  0  0
    5.5788   54.4961   21.7662 C   0  0  0  0  0  0
    6.7036   54.8970   22.4791 C   0  0  0  0  0  0
    6.6952   54.8944   23.8694 C   0  0  0  0  0  0
    5.5429   54.4948   24.5922 C   0  0  0  0  0  0
    5.5003   54.4678   26.0136 C   0  0  0  0  0  0
    7.0575   54.8962   27.0415 Br  0  0  0  0  0  0
    1.8698   53.4126   26.6546 C   0  0  0  0  0  0
    1.5362   54.0080   27.6820 O   0  0  0  0  0  0
    1.1418   52.4533   26.0292 N   0  0  0  0  0  0
   -0.0192   51.8014   26.3581 C   0  0  0  0  0  0
   -0.7185   51.6970   27.8684 S   0  0  0  0  0  0
   -0.6363   51.1104   25.3524 N   0  0  0  0  0  0
   -0.3456   51.0231   23.9715 C   0  0  0  0  0  0
    0.0715   52.1710   23.2745 C   0  0  0  0  0  0
    0.3883   52.1155   21.9211 C   0  0  0  0  0  0
    0.2527   50.9213   21.2297 C   0  0  0  0  0  0
   -0.2212   49.7919   21.8907 C   0  0  0  0  0  0
   -0.5448   49.8103   23.2593 C   0  0  0  0  0  0
   -1.0707   48.6255   23.8237 N   0  0  0  0  0  0
   -1.6749   47.5342   23.0509 C   0  0  0  0  0  0
   -2.5303   46.7173   24.0088 C   0  0  0  0  0  0
   -1.7297   46.8118   25.2855 C   0  0  0  0  0  0
   -1.2293   48.2549   25.2365 C   0  0  0  0  0  0
    4.7012   52.9696   29.7229 H   0  0  0  0  0  0
    3.9050   52.0972   28.4242 H   0  0  0  0  0  0
    5.6283   52.4978   28.3025 H   0  0  0  0  0  0
    2.3443   53.5227   23.9589 H   0  0  0  0  0  0
    3.5513   53.7993   21.8767 H   0  0  0  0  0  0
    5.5987   54.4986   20.6863 H   0  0  0  0  0  0
    7.5932   55.2117   21.9520 H   0  0  0  0  0  0
    7.5648   55.2209   24.4079 H   0  0  0  0  0  0
    1.5693   52.1081   25.1842 H   0  0  0  0  0  0
   -1.4125   50.5332   25.6441 H   0  0  0  0  0  0
    0.1391   53.1273   23.7730 H   0  0  0  0  0  0
    0.7291   53.0010   21.4049 H   0  0  0  0  0  0
    0.4966   50.8699   20.1784 H   0  0  0  0  0  0
   -0.3310   48.8864   21.3130 H   0  0  0  0  0  0
   -2.3294   47.9563   22.2858 H   0  0  0  0  0  0
   -0.9084   46.9161   22.5800 H   0  0  0  0  0  0
   -3.5260   47.1546   24.1116 H   0  0  0  0  0  0
   -2.6607   45.6963   23.6613 H   0  0  0  0  0  0
   -0.8958   46.1116   25.2842 H   0  0  0  0  0  0
   -2.3208   46.6198   26.1831 H   0  0  0  0  0  0
   -0.2616   48.3262   25.7378 H   0  0  0  0  0  0
   -1.9346   48.9075   25.7525 H   0  0  0  0  0  0
  1  2  1  0  0  0
  1 31  1  0  0  0
  1 32  1  0  0  0
  1 33  1  0  0  0
  2  3  1  0  0  0
  3 12  2  0  0  0
  3  4  1  0  0  0
  4  5  2  0  0  0
  4 14  1  0  0  0
  5  6  1  0  0  0
  5 34  1  0  0  0
  6 11  2  0  0  0
  6  7  1  0  0  0
  7  8  2  0  0  0
  7 35  1  0  0  0
  8  9  1  0  0  0
  8 36  1  0  0  0
  9 10  2  0  0  0
  9 37  1  0  0  0
 10 11  1  0  0  0
 10 38  1  0  0  0
 11 12  1  0  0  0
 12 13  1  0  0  0
 14 15  2  0  0  0
 14 16  1  0  0  0
 16 17  1  0  0  0
 16 39  1  0  0  0
 17 18  2  0  0  0
 17 19  1  0  0  0
 19 20  1  0  0  0
 19 40  1  0  0  0
 20 25  2  0  0  0
 20 21  1  0  0  0
 21 22  2  0  0  0
 21 41  1  0  0  0
 22 23  1  0  0  0
 22 42  1  0  0  0
 23 24  2  0  0  0
 23 43  1  0  0  0
 24 25  1  0  0  0
 24 44  1  0  0  0
 25 26  1  0  0  0
 26 30  1  0  0  0
 26 27  1  0  0  0
 27 28  1  0  0  0
 27 45  1  0  0  0
 27 46  1  0  0  0
 28 29  1  0  0  0
 28 47  1  0  0  0
 28 48  1  0  0  0
 29 30  1  0  0  0
 29 49  1  0  0  0
 29 50  1  0  0  0
 30 51  1  0  0  0
 30 52  1  0  0  0
M  END
> <i_i_glide_confnum>
160

> <i_i_glide_lignum>
5181

> <i_i_glide_posenum>
71

> <i_i_glide_rotatable_bonds>
7

> <i_m_Source_File_Index>
6042

> <b_m_subgroup_collapsed>
0

> <r_i_docking_score>
-5.15987

> <r_i_glide_ecoul>
-2.0765

> <r_i_glide_eff_state_penalty>
0

> <r_i_glide_einternal>
5.36935

> <r_i_glide_emodel>
-58.1221

> <r_i_glide_energy>
-46.0447

> <r_i_glide_erotb>
0.519263

> <r_i_glide_esite>
-0.0927521

> <r_i_glide_evdw>
-43.9682

> <r_i_glide_gscore>
-5.15987

> <r_i_glide_hbond>
0

> <r_i_glide_ligand_efficiency>
-0.171996

> <r_i_glide_ligand_efficiency_ln>
-1.17238

> <r_i_glide_ligand_efficiency_sa>
-0.53443

> <r_i_glide_lipo>
-2.66682

> <r_i_glide_metal>
0

> <r_i_glide_rewards>
-0.409671

> <s_i_glide_gridfile>
wee1_glide-grid

> <s_m_Source_File>
wee1_decoys_glide_SP.sdf

> <s_m_Source_Path>
/Users/zhangxujun/Desktop

> <s_m_entry_id>
6317

> <s_m_entry_name>
wee1_decoys_glide_SP.6042

> <s_m_subgroup_title>
wee1_decoys_glide_SP

> <s_m_subgroupid>
wee1_decoys_glide_SP


$$$$
