ZINC08873459_2653
                    3D
 Schrodinger Suite 2024-2.
 42 45  0  0  1  0            999 V2000
   -0.5601   51.7110   29.1592 C   0  0  0  0  0  0
   -1.8608   51.2967   28.8821 C   0  0  0  0  0  0
   -2.3296   51.2967   27.5728 C   0  0  0  0  0  0
   -1.4990   51.6945   26.5316 C   0  0  0  0  0  0
   -0.1944   52.0962   26.8026 C   0  0  0  0  0  0
    0.2927   52.1218   28.1242 C   0  0  0  0  0  0
    1.7110   52.5577   28.4447 C   0  0  0  0  0  0
    2.2044   52.3302   29.5528 O   0  0  0  0  0  0
    2.3499   53.1902   27.4369 N   0  0  0  0  0  0
    3.6387   53.6965   27.4009 C   0  0  0  0  0  0
    4.1537   54.0659   26.2590 N   0  0  0  0  0  0
    5.4128   54.4711   26.3585 C   0  0  0  0  0  0
    5.9045   54.4967   27.6705 C   0  0  0  0  0  0
    4.6974   53.8935   28.7699 S   0  0  0  0  0  0
    6.1307   54.9083   25.1727 C   0  0  0  0  0  0
    7.1043   55.6518   25.2817 O   0  0  0  0  0  0
    5.6353   54.4315   24.0049 N   0  0  0  0  0  0
    5.9989   54.6931   22.6725 C   0  0  0  0  0  0
    7.1029   55.4664   22.2683 C   0  0  0  0  0  0
    7.3546   55.6927   20.9131 C   0  0  0  0  0  0
    6.5053   55.1463   19.9537 C   0  0  0  0  0  0
    5.3945   54.3862   20.3494 C   0  0  0  0  0  0
    5.1511   54.1513   21.6997 C   0  0  0  0  0  0
    4.5561   53.7757   19.4400 O   0  0  0  0  0  0
    4.6554   54.2951   18.1099 C   0  0  0  0  0  0
    6.1366   54.5127   17.7152 C   0  0  0  0  0  0
    6.7712   55.4176   18.6274 O   0  0  0  0  0  0
   -3.9482   50.8008   27.2395 Cl  0  0  0  0  0  0
   -0.2256   51.6975   30.1880 H   0  0  0  0  0  0
   -2.4951   50.9469   29.6846 H   0  0  0  0  0  0
   -1.8616   51.6794   25.5145 H   0  0  0  0  0  0
    0.4195   52.3770   25.9605 H   0  0  0  0  0  0
    1.8537   53.2334   26.5623 H   0  0  0  0  0  0
    6.8707   54.8204   28.0324 H   0  0  0  0  0  0
    4.8414   53.8178   24.1004 H   0  0  0  0  0  0
    7.7728   55.9151   22.9832 H   0  0  0  0  0  0
    8.2115   56.2736   20.6061 H   0  0  0  0  0  0
    4.2965   53.5501   21.9754 H   0  0  0  0  0  0
    4.1731   53.6027   17.4190 H   0  0  0  0  0  0
    4.1236   55.2467   18.0569 H   0  0  0  0  0  0
    6.6563   53.5522   17.7363 H   0  0  0  0  0  0
    6.2109   54.9089   16.7025 H   0  0  0  0  0  0
  1  6  2  0  0  0
  1  2  1  0  0  0
  1 29  1  0  0  0
  2  3  2  0  0  0
  2 30  1  0  0  0
  3  4  1  0  0  0
  3 28  1  0  0  0
  4  5  2  0  0  0
  4 31  1  0  0  0
  5  6  1  0  0  0
  5 32  1  0  0  0
  6  7  1  0  0  0
  7  8  2  0  0  0
  7  9  1  0  0  0
  9 10  1  0  0  0
  9 33  1  0  0  0
 10 14  1  0  0  0
 10 11  2  0  0  0
 11 12  1  0  0  0
 12 13  2  0  0  0
 12 15  1  0  0  0
 13 14  1  0  0  0
 13 34  1  0  0  0
 15 16  2  0  0  0
 15 17  1  0  0  0
 17 18  1  0  0  0
 17 35  1  0  0  0
 18 23  2  0  0  0
 18 19  1  0  0  0
 19 20  2  0  0  0
 19 36  1  0  0  0
 20 21  1  0  0  0
 20 37  1  0  0  0
 21 27  1  0  0  0
 21 22  2  0  0  0
 22 23  1  0  0  0
 22 24  1  0  0  0
 23 38  1  0  0  0
 24 25  1  0  0  0
 25 26  1  0  0  0
 25 39  1  0  0  0
 25 40  1  0  0  0
 26 27  1  0  0  0
 26 41  1  0  0  0
 26 42  1  0  0  0
M  END
> <i_i_glide_confnum>
130

> <i_i_glide_lignum>
2654

> <i_i_glide_posenum>
111

> <i_i_glide_rotatable_bonds>
6

> <i_m_Source_File_Index>
85

> <b_m_subgroup_collapsed>
0

> <r_i_docking_score>
-5.92419

> <r_i_glide_ecoul>
-5.72868

> <r_i_glide_eff_state_penalty>
0

> <r_i_glide_einternal>
1.58772

> <r_i_glide_emodel>
-67.5153

> <r_i_glide_energy>
-49.622

> <r_i_glide_erotb>
0.68526

> <r_i_glide_esite>
0

> <r_i_glide_evdw>
-43.8933

> <r_i_glide_gscore>
-5.92419

> <r_i_glide_hbond>
-0.32

> <r_i_glide_ligand_efficiency>
-0.211578

> <r_i_glide_ligand_efficiency_ln>
-1.36748

> <r_i_glide_ligand_efficiency_sa>
-0.642477

> <r_i_glide_lipo>
-1.92738

> <r_i_glide_metal>
0

> <r_i_glide_rewards>
-1.3081

> <s_i_glide_gridfile>
wee1_glide-grid

> <s_m_Source_File>
wee1_decoys_glide_SP.sdf

> <s_m_Source_Path>
/Users/zhangxujun/Desktop

> <s_m_entry_id>
360

> <s_m_entry_name>
wee1_decoys_glide_SP.85

> <s_m_subgroup_title>
wee1_decoys_glide_SP

> <s_m_subgroupid>
wee1_decoys_glide_SP


$$$$
