ZINC39599963_3058
                    3D
 Schrodinger Suite 2024-2.
 73 76  0  0  1  0            999 V2000
    3.9723   52.2794   29.5569 C   0  0  0  0  0  0
    4.3178   53.5658   28.7682 C   0  0  0  0  0  0
    5.8244   53.6043   28.4495 C   0  0  0  0  0  0
    3.4209   53.7215   27.4911 C   0  0  1  0  0  0
    3.5954   52.8324   26.8877 H   0  0  0  0  0  0
    1.9059   53.7998   27.8731 C   0  0  0  0  0  0
    1.5561   54.5450   28.7928 O   0  0  0  0  0  0
    1.0145   52.9839   27.2595 N   0  0  0  0  0  0
    1.2673   52.3337   25.9965 C   0  0  0  0  0  0
   -0.0828   52.3337   25.2631 C   0  0  2  0  0  0
   -0.2883   53.3193   24.8365 H   0  0  0  0  0  0
   -1.0589   52.0491   26.4589 C   0  0  0  0  0  0
   -0.3939   52.8397   27.6377 C   0  0  0  0  0  0
   -1.1311   50.5547   26.9167 C   0  0  0  0  0  0
   -1.9741   49.6102   26.0229 C   0  0  0  0  0  0
   -3.3726   50.2051   25.8096 N   0  3  0  0  0  0
   -3.3479   51.6574   25.2922 C   0  0  0  0  0  0
   -2.5370   52.4968   26.2948 C   0  0  0  0  0  0
    0.0579   51.2848   24.1202 C   0  0  0  0  0  0
    0.8578   50.3473   24.1955 O   0  0  0  0  0  0
   -0.6424   51.5287   22.9968 N   0  0  0  0  0  0
   -0.6207   50.6490   21.8262 C   0  0  0  0  0  0
   -1.0303   51.3511   20.5382 C   0  0  0  0  0  0
   -2.3678   51.3497   20.1379 C   0  0  0  0  0  0
   -2.7310   51.9301   18.9223 C   0  0  0  0  0  0
   -1.7645   52.5082   18.1028 C   0  0  0  0  0  0
   -0.4186   52.4768   18.4890 C   0  0  0  0  0  0
   -0.0553   51.8973   19.7015 C   0  0  0  0  0  0
   -2.1835   53.0612   16.9149 O   0  0  0  0  0  0
   -1.8067   54.4142   16.6488 C   0  0  0  0  0  0
   -2.5353   54.8286   15.6138 F   0  0  0  0  0  0
   -2.0820   55.2228   17.6790 F   0  0  0  0  0  0
   -0.5191   54.5149   16.3105 F   0  0  0  0  0  0
    3.7503   54.9022   26.7379 O   0  0  0  0  0  0
    4.5540   54.7647   25.6200 C   0  0  0  0  0  0
    4.0558   54.2478   24.4195 C   0  0  0  0  0  0
    4.8900   54.0971   23.3138 C   0  0  0  0  0  0
    6.2176   54.5085   23.3904 C   0  0  0  0  0  0
    6.7033   55.0966   24.5514 C   0  0  0  0  0  0
    5.8704   55.2294   25.6569 C   0  0  0  0  0  0
    4.0286   51.4099   28.9075 H   0  0  0  0  0  0
    4.6367   52.1162   30.4036 H   0  0  0  0  0  0
    2.9624   52.3122   29.9626 H   0  0  0  0  0  0
    4.1265   54.4118   29.4348 H   0  0  0  0  0  0
    6.0843   52.9792   27.5981 H   0  0  0  0  0  0
    6.1426   54.6254   28.2590 H   0  0  0  0  0  0
    6.4458   53.2971   29.2793 H   0  0  0  0  0  0
    2.0707   52.7114   25.3833 H   0  0  0  0  0  0
    1.4954   51.3193   26.2949 H   0  0  0  0  0  0
   -0.5758   52.3800   28.6114 H   0  0  0  0  0  0
   -0.8272   53.8376   27.6817 H   0  0  0  0  0  0
   -0.1394   50.1298   27.0745 H   0  0  0  0  0  0
   -1.5797   50.4942   27.9100 H   0  0  0  0  0  0
   -1.5604   49.4281   25.0356 H   0  0  0  0  0  0
   -2.1319   48.6354   26.4790 H   0  0  0  0  0  0
   -3.9080   49.6091   25.1935 H   0  0  0  0  0  0
   -2.9358   51.6372   24.2874 H   0  0  0  0  0  0
   -4.3925   51.9756   25.2405 H   0  0  0  0  0  0
   -3.0482   52.4141   27.2513 H   0  0  0  0  0  0
   -2.5996   53.5527   26.0286 H   0  0  0  0  0  0
   -1.2749   52.3107   22.9686 H   0  0  0  0  0  0
    0.3588   50.1836   21.6905 H   0  0  0  0  0  0
   -1.3008   49.8136   22.0141 H   0  0  0  0  0  0
   -3.1238   50.8954   20.7597 H   0  0  0  0  0  0
   -3.7666   51.9245   18.6144 H   0  0  0  0  0  0
    0.3470   52.8944   17.8519 H   0  0  0  0  0  0
    0.9860   51.8781   19.9895 H   0  0  0  0  0  0
    3.0183   53.9932   24.3090 H   0  0  0  0  0  0
    4.5027   53.6892   22.3893 H   0  0  0  0  0  0
    6.8630   54.4139   22.5307 H   0  0  0  0  0  0
    7.7124   55.4681   24.5991 H   0  0  0  0  0  0
    6.2580   55.7084   26.5378 H   0  0  0  0  0  0
   -3.8472   50.1819   26.7038 H   0  0  0  0  0  0
  1  2  1  0  0  0
  1 41  1  0  0  0
  1 42  1  0  0  0
  1 43  1  0  0  0
  2  3  1  0  0  0
  2  4  1  0  0  0
  2 44  1  0  0  0
  3 45  1  0  0  0
  3 46  1  0  0  0
  3 47  1  0  0  0
  4  5  1  0  0  0
  4  6  1  0  0  0
  4 34  1  0  0  0
  6  7  2  0  0  0
  6  8  1  0  0  0
  8 13  1  0  0  0
  8  9  1  0  0  0
  9 10  1  0  0  0
  9 48  1  0  0  0
  9 49  1  0  0  0
 10 11  1  0  0  0
 10 12  1  0  0  0
 10 19  1  0  0  0
 12 18  1  0  0  0
 12 13  1  0  0  0
 12 14  1  0  0  0
 13 50  1  0  0  0
 13 51  1  0  0  0
 14 15  1  0  0  0
 14 52  1  0  0  0
 14 53  1  0  0  0
 15 16  1  0  0  0
 15 54  1  0  0  0
 15 55  1  0  0  0
 16 17  1  0  0  0
 16 56  1  0  0  0
 16 73  1  0  0  0
 17 18  1  0  0  0
 17 57  1  0  0  0
 17 58  1  0  0  0
 18 59  1  0  0  0
 18 60  1  0  0  0
 19 20  2  0  0  0
 19 21  1  0  0  0
 21 22  1  0  0  0
 21 61  1  0  0  0
 22 23  1  0  0  0
 22 62  1  0  0  0
 22 63  1  0  0  0
 23 28  2  0  0  0
 23 24  1  0  0  0
 24 25  2  0  0  0
 24 64  1  0  0  0
 25 26  1  0  0  0
 25 65  1  0  0  0
 26 27  2  0  0  0
 26 29  1  0  0  0
 27 28  1  0  0  0
 27 66  1  0  0  0
 28 67  1  0  0  0
 29 30  1  0  0  0
 30 31  1  0  0  0
 30 32  1  0  0  0
 30 33  1  0  0  0
 34 35  1  0  0  0
 35 40  2  0  0  0
 35 36  1  0  0  0
 36 37  2  0  0  0
 36 68  1  0  0  0
 37 38  1  0  0  0
 37 69  1  0  0  0
 38 39  2  0  0  0
 38 70  1  0  0  0
 39 40  1  0  0  0
 39 71  1  0  0  0
 40 72  1  0  0  0
M  CHG  1  16   1
M  END
> <i_i_glide_confnum>
364

> <i_i_glide_lignum>
3059

> <i_i_glide_posenum>
378

> <i_i_glide_rotatable_bonds>
11

> <i_m_Source_File_Index>
1903

> <b_m_subgroup_collapsed>
0

> <r_i_docking_score>
-2.18486

> <r_i_glide_ecoul>
-1.92867

> <r_i_glide_eff_state_penalty>
0

> <r_i_glide_einternal>
12.4358

> <r_i_glide_emodel>
-33.5353

> <r_i_glide_energy>
-40.5055

> <r_i_glide_erotb>
0.577752

> <r_i_glide_esite>
-0.0951089

> <r_i_glide_evdw>
-38.5768

> <r_i_glide_gscore>
-2.18486

> <r_i_glide_hbond>
0

> <r_i_glide_ligand_efficiency>
-0.0574963

> <r_i_glide_ligand_efficiency_ln>
-0.47112

> <r_i_glide_ligand_efficiency_sa>
-0.193301

> <r_i_glide_lipo>
-2.65385

> <r_i_glide_metal>
0

> <r_i_glide_rewards>
2.20449

> <s_i_glide_gridfile>
wee1_glide-grid

> <s_m_Source_File>
wee1_decoys_glide_SP.sdf

> <s_m_Source_Path>
/Users/zhangxujun/Desktop

> <s_m_entry_id>
2178

> <s_m_entry_name>
wee1_decoys_glide_SP.1903

> <s_m_subgroup_title>
wee1_decoys_glide_SP

> <s_m_subgroupid>
wee1_decoys_glide_SP


$$$$
