ZINC02414324_2391
                    3D
 Schrodinger Suite 2024-2.
 59 62  0  0  1  0            999 V2000
    2.2292   55.1629   29.4861 C   0  0  0  0  0  0
    2.8588   53.7641   29.2405 C   0  0  0  0  0  0
    4.2969   53.7639   29.8127 C   0  0  0  0  0  0
    2.0412   52.7155   30.0404 C   0  0  0  0  0  0
    2.8942   53.3830   27.7114 C   0  0  1  0  0  0
    3.2248   52.3425   27.6661 H   0  0  0  0  0  0
    1.5051   53.4709   27.0321 C   0  0  0  0  0  0
    1.4773   52.8819   25.6105 C   0  0  0  0  0  0
    2.6682   53.3957   24.7923 C   0  0  0  0  0  0
    3.7653   54.0019   25.4160 C   0  0  0  0  0  0
    4.9741   54.4956   24.2931 S   0  0  0  0  0  0
    4.0183   53.9305   22.9463 C   0  0  0  0  0  0
    2.8338   53.2964   23.3836 C   0  0  0  0  0  0
    1.8596   52.6665   22.5101 C   0  0  0  0  0  0
    0.6486   52.7537   22.7110 O   0  0  0  0  0  0
    2.3857   51.9680   21.4870 N   0  0  0  0  0  0
    1.5954   51.2732   20.4759 C   0  0  2  0  0  0
    0.7723   50.7016   20.9169 H   0  0  0  0  0  0
    2.4885   50.2675   19.7147 C   0  0  0  0  0  0
    1.7246   49.7649   18.4838 C   0  0  0  0  0  0
    0.7922   51.2647   17.8647 S   0  0  0  0  0  0
    1.5141   51.9198   16.7700 O   0  0  0  0  0  0
   -0.6236   50.9171   17.7234 O   0  0  0  0  0  0
    1.0408   52.2555   19.4303 C   0  0  0  0  0  0
    4.4122   54.0941   21.6178 N   0  0  0  0  0  0
    5.5046   54.7093   21.1202 C   0  0  0  0  0  0
    6.3703   55.2981   21.7696 O   0  0  0  0  0  0
    5.5806   54.6331   19.6863 C   0  0  0  0  0  0
    5.0848   53.7020   18.7730 C   0  0  0  0  0  0
    5.5581   54.0773   17.5150 C   0  0  0  0  0  0
    6.3518   55.1941   17.7147 C   0  0  0  0  0  0
    6.3852   55.5154   19.0332 O   0  0  0  0  0  0
    3.9136   54.2438   26.9066 C   0  0  0  0  0  0
    1.1812   55.1992   29.1885 H   0  0  0  0  0  0
    2.2527   55.4431   30.5363 H   0  0  0  0  0  0
    2.7481   55.9555   28.9494 H   0  0  0  0  0  0
    4.8135   52.8334   29.5723 H   0  0  0  0  0  0
    4.8986   54.5887   29.4279 H   0  0  0  0  0  0
    4.3015   53.8635   30.8943 H   0  0  0  0  0  0
    2.3919   51.7012   29.8471 H   0  0  0  0  0  0
    2.1121   52.8830   31.1159 H   0  0  0  0  0  0
    0.9777   52.7418   29.8013 H   0  0  0  0  0  0
    0.7631   52.9295   27.6164 H   0  0  0  0  0  0
    1.1544   54.4972   27.0432 H   0  0  0  0  0  0
    0.5254   53.1512   25.1553 H   0  0  0  0  0  0
    1.5033   51.7925   25.6563 H   0  0  0  0  0  0
    3.3735   51.7628   21.5063 H   0  0  0  0  0  0
    3.4211   50.7421   19.4020 H   0  0  0  0  0  0
    2.7897   49.4423   20.3610 H   0  0  0  0  0  0
    2.3043   49.3120   17.6808 H   0  0  0  0  0  0
    0.9807   49.0382   18.8097 H   0  0  0  0  0  0
    0.2011   52.8961   19.6926 H   0  0  0  0  0  0
    1.8607   52.9220   19.1592 H   0  0  0  0  0  0
    3.7593   53.7404   20.9338 H   0  0  0  0  0  0
    4.4632   52.8434   18.9809 H   0  0  0  0  0  0
    5.3608   53.5757   16.5776 H   0  0  0  0  0  0
    6.9350   55.8222   17.0573 H   0  0  0  0  0  0
    4.9354   54.0131   27.2073 H   0  0  0  0  0  0
    3.7474   55.2970   27.0945 H   0  0  0  0  0  0
  1  2  1  0  0  0
  1 34  1  0  0  0
  1 35  1  0  0  0
  1 36  1  0  0  0
  2  3  1  0  0  0
  2  4  1  0  0  0
  2  5  1  0  0  0
  3 37  1  0  0  0
  3 38  1  0  0  0
  3 39  1  0  0  0
  4 40  1  0  0  0
  4 41  1  0  0  0
  4 42  1  0  0  0
  5  6  1  0  0  0
  5 33  1  0  0  0
  5  7  1  0  0  0
  7  8  1  0  0  0
  7 43  1  0  0  0
  7 44  1  0  0  0
  8  9  1  0  0  0
  8 45  1  0  0  0
  8 46  1  0  0  0
  9 13  1  0  0  0
  9 10  2  0  0  0
 10 11  1  0  0  0
 10 33  1  0  0  0
 11 12  1  0  0  0
 12 13  2  0  0  0
 12 25  1  0  0  0
 13 14  1  0  0  0
 14 15  2  0  0  0
 14 16  1  0  0  0
 16 17  1  0  0  0
 16 47  1  0  0  0
 17 18  1  0  0  0
 17 24  1  0  0  0
 17 19  1  0  0  0
 19 20  1  0  0  0
 19 48  1  0  0  0
 19 49  1  0  0  0
 20 21  1  0  0  0
 20 50  1  0  0  0
 20 51  1  0  0  0
 21 22  2  0  0  0
 21 23  2  0  0  0
 21 24  1  0  0  0
 24 52  1  0  0  0
 24 53  1  0  0  0
 25 26  1  0  0  0
 25 54  1  0  0  0
 26 27  2  0  0  0
 26 28  1  0  0  0
 28 32  1  0  0  0
 28 29  2  0  0  0
 29 30  1  0  0  0
 29 55  1  0  0  0
 30 31  2  0  0  0
 30 56  1  0  0  0
 31 32  1  0  0  0
 31 57  1  0  0  0
 33 58  1  0  0  0
 33 59  1  0  0  0
M  END
> <i_i_glide_confnum>
150

> <i_i_glide_lignum>
2392

> <i_i_glide_posenum>
400

> <i_i_glide_rotatable_bonds>
7

> <i_m_Source_File_Index>
5737

> <b_m_subgroup_collapsed>
0

> <r_i_docking_score>
-4.82275

> <r_i_glide_ecoul>
-2.99628

> <r_i_glide_eff_state_penalty>
0

> <r_i_glide_einternal>
3.69257

> <r_i_glide_emodel>
-52.6024

> <r_i_glide_energy>
-41.1383

> <r_i_glide_erotb>
0.560399

> <r_i_glide_esite>
-0.0516574

> <r_i_glide_evdw>
-38.142

> <r_i_glide_gscore>
-4.82275

> <r_i_glide_hbond>
0

> <r_i_glide_ligand_efficiency>
-0.155572

> <r_i_glide_ligand_efficiency_ln>
-1.08768

> <r_i_glide_ligand_efficiency_sa>
-0.488712

> <r_i_glide_lipo>
-2.2937

> <r_i_glide_metal>
0

> <r_i_glide_rewards>
-0.681247

> <s_i_glide_gridfile>
wee1_glide-grid

> <s_m_Source_File>
wee1_decoys_glide_SP.sdf

> <s_m_Source_Path>
/Users/zhangxujun/Desktop

> <s_m_entry_id>
6012

> <s_m_entry_name>
wee1_decoys_glide_SP.5737

> <s_m_subgroup_title>
wee1_decoys_glide_SP

> <s_m_subgroupid>
wee1_decoys_glide_SP


$$$$
