ZINC01073600_3872
                    3D
 Schrodinger Suite 2024-2.
 43 45  0  0  1  0            999 V2000
    0.6938   52.0645   20.2136 C   0  0  0  0  0  0
    1.5766   51.1969   19.2814 C   0  0  0  0  0  0
    2.1526   52.0498   18.1199 C   0  0  0  0  0  0
    3.1540   53.1005   18.6140 C   0  0  0  0  0  0
    3.9205   52.9297   19.7302 C   0  0  0  0  0  0
    4.9737   53.9513   20.2555 C   0  0  1  0  0  0
    5.9043   53.4016   20.1137 H   0  0  0  0  0  0
    5.1623   55.2058   19.3918 C   0  0  0  0  0  0
    4.4709   55.5036   18.2749 C   0  0  0  0  0  0
    3.2085   54.5173   17.5333 S   0  0  0  0  0  0
    4.6593   56.6397   17.5293 N   0  0  0  0  0  0
    6.1905   56.1167   19.7952 C   0  0  0  0  0  0
    7.0313   56.8587   20.0823 N   0  0  0  0  0  0
    5.0147   54.2040   21.7865 C   0  0  0  0  0  0
    6.2361   54.4473   22.4299 C   0  0  0  0  0  0
    6.3059   54.5455   23.8148 C   0  0  0  0  0  0
    5.1506   54.4124   24.5884 C   0  0  0  0  0  0
    3.9199   54.2116   23.9526 C   0  0  0  0  0  0
    3.8512   54.1233   22.5627 C   0  0  0  0  0  0
    5.2417   54.4893   26.1134 C   0  0  0  0  0  0
    4.0953   54.8980   26.6546 F   0  0  0  0  0  0
    6.2241   55.3032   26.4948 F   0  0  0  0  0  0
    5.5156   53.2964   26.6176 F   0  0  0  0  0  0
    3.8369   51.6440   20.4796 C   0  0  0  0  0  0
    4.7034   51.3107   21.2821 O   0  0  0  0  0  0
    2.7742   50.6133   20.0633 C   0  0  0  0  0  0
    0.7995   50.0130   18.6690 C   0  0  0  0  0  0
    0.2832   51.4705   21.0309 H   0  0  0  0  0  0
    1.2370   52.8960   20.6614 H   0  0  0  0  0  0
   -0.1486   52.4923   19.6683 H   0  0  0  0  0  0
    1.3389   52.5079   17.5554 H   0  0  0  0  0  0
    2.7107   51.4157   17.4254 H   0  0  0  0  0  0
    5.3409   57.3381   17.7919 H   0  0  0  0  0  0
    4.1129   56.8102   16.6972 H   0  0  0  0  0  0
    7.1507   54.5232   21.8606 H   0  0  0  0  0  0
    7.2683   54.7054   24.2799 H   0  0  0  0  0  0
    3.0122   54.1152   24.5314 H   0  0  0  0  0  0
    2.8931   53.9583   22.0920 H   0  0  0  0  0  0
    2.4728   50.0275   20.9316 H   0  0  0  0  0  0
    3.3088   49.9372   19.3930 H   0  0  0  0  0  0
    0.4008   49.3564   19.4432 H   0  0  0  0  0  0
   -0.0441   50.3591   18.0703 H   0  0  0  0  0  0
    1.4302   49.4032   18.0193 H   0  0  0  0  0  0
  1  2  1  0  0  0
  1 28  1  0  0  0
  1 29  1  0  0  0
  1 30  1  0  0  0
  2 26  1  0  0  0
  2  3  1  0  0  0
  2 27  1  0  0  0
  3  4  1  0  0  0
  3 31  1  0  0  0
  3 32  1  0  0  0
  4 10  1  0  0  0
  4  5  2  0  0  0
  5  6  1  0  0  0
  5 24  1  0  0  0
  6  7  1  0  0  0
  6  8  1  0  0  0
  6 14  1  0  0  0
  8  9  2  0  0  0
  8 12  1  0  0  0
  9 10  1  0  0  0
  9 11  1  0  0  0
 11 33  1  0  0  0
 11 34  1  0  0  0
 12 13  3  0  0  0
 14 19  2  0  0  0
 14 15  1  0  0  0
 15 16  2  0  0  0
 15 35  1  0  0  0
 16 17  1  0  0  0
 16 36  1  0  0  0
 17 18  2  0  0  0
 17 20  1  0  0  0
 18 19  1  0  0  0
 18 37  1  0  0  0
 19 38  1  0  0  0
 20 21  1  0  0  0
 20 22  1  0  0  0
 20 23  1  0  0  0
 24 25  2  0  0  0
 24 26  1  0  0  0
 26 39  1  0  0  0
 26 40  1  0  0  0
 27 41  1  0  0  0
 27 42  1  0  0  0
 27 43  1  0  0  0
M  END
> <i_i_glide_confnum>
4

> <i_i_glide_lignum>
3873

> <i_i_glide_posenum>
317

> <i_i_glide_rotatable_bonds>
3

> <i_m_Source_File_Index>
6065

> <b_m_subgroup_collapsed>
0

> <r_i_docking_score>
-6.20661

> <r_i_glide_ecoul>
-5.99563

> <r_i_glide_eff_state_penalty>
0

> <r_i_glide_einternal>
3.88602

> <r_i_glide_emodel>
-47.4061

> <r_i_glide_energy>
-37.0848

> <r_i_glide_erotb>
0.135331

> <r_i_glide_esite>
-0.0474167

> <r_i_glide_evdw>
-31.0892

> <r_i_glide_gscore>
-6.20661

> <r_i_glide_hbond>
-0.308193

> <r_i_glide_ligand_efficiency>
-0.238716

> <r_i_glide_ligand_efficiency_ln>
-1.4576

> <r_i_glide_ligand_efficiency_sa>
-0.707195

> <r_i_glide_lipo>
-1.75251

> <r_i_glide_metal>
0

> <r_i_glide_rewards>
-1.78001

> <s_i_glide_gridfile>
wee1_glide-grid

> <s_m_Source_File>
wee1_decoys_glide_SP.sdf

> <s_m_Source_Path>
/Users/zhangxujun/Desktop

> <s_m_entry_id>
6340

> <s_m_entry_name>
wee1_decoys_glide_SP.6065

> <s_m_subgroup_title>
wee1_decoys_glide_SP

> <s_m_subgroupid>
wee1_decoys_glide_SP


$$$$
