ZINC14962356_2190
                    3D
 Schrodinger Suite 2024-2.
 60 63  0  0  1  0            999 V2000
    3.0320   50.2261   20.8010 C   0  0  0  0  0  0
    1.9912   51.3644   20.9319 C   0  0  0  0  0  0
    2.4599   52.4310   21.9699 C   0  0  0  0  0  0
    3.6131   53.2432   21.3735 C   0  0  0  0  0  0
    3.9400   53.2964   20.0154 C   0  0  0  0  0  0
    5.1207   54.0458   19.9939 C   0  0  0  0  0  0
    5.5028   54.4469   21.1804 N   0  0  0  0  0  0
    4.6137   53.9230   22.0441 N   0  0  0  0  0  0
    4.8058   54.0963   23.4383 C   0  0  0  0  0  0
    3.7105   54.2715   24.2906 C   0  0  0  0  0  0
    3.9075   54.3936   25.6632 C   0  0  0  0  0  0
    5.1916   54.3413   26.2050 C   0  0  0  0  0  0
    6.2909   54.2104   25.3467 C   0  0  0  0  0  0
    6.1020   54.0966   23.9723 C   0  0  0  0  0  0
    5.2877   54.4200   27.5798 O   0  0  0  0  0  0
    6.5282   54.0967   28.1995 C   0  0  0  0  0  0
    3.1084   52.6044   18.9315 C   0  0  1  0  0  0
    3.6377   51.7901   18.4274 H   0  0  0  0  0  0
    1.7866   52.0964   19.5718 C   0  0  0  0  0  0
    3.7530   53.9111   16.7796 C   0  0  0  0  0  0
    3.7395   55.3473   16.2843 C   0  0  0  0  0  0
    4.4277   56.3267   17.0018 C   0  0  0  0  0  0
    4.4874   57.6393   16.5359 C   0  0  0  0  0  0
    3.8385   57.9980   15.3459 C   0  0  0  0  0  0
    3.1397   57.0165   14.6265 C   0  0  0  0  0  0
    3.0955   55.6991   15.0942 C   0  0  0  0  0  0
    2.3277   57.4018   13.1479 Cl  0  0  0  0  0  0
    3.8889   59.2968   14.8888 O   0  0  0  0  0  0
    5.1776   58.5573   17.2816 O   0  0  0  0  0  0
    6.5304   58.7377   16.8854 C   0  0  0  0  0  0
    0.6215   50.8197   21.3868 C   0  0  0  0  0  0
    3.0976   49.6534   21.7242 H   0  0  0  0  0  0
    2.7582   49.5260   20.0096 H   0  0  0  0  0  0
    4.0352   50.5878   20.5777 H   0  0  0  0  0  0
    2.7058   51.9715   22.9265 H   0  0  0  0  0  0
    1.6486   53.1354   22.1583 H   0  0  0  0  0  0
    5.7063   54.2900   19.1212 H   0  0  0  0  0  0
    2.7027   54.3147   23.9054 H   0  0  0  0  0  0
    3.0584   54.5077   26.3196 H   0  0  0  0  0  0
    7.2967   54.1723   25.7262 H   0  0  0  0  0  0
    6.9692   53.9759   23.3385 H   0  0  0  0  0  0
    7.3205   54.7782   27.8867 H   0  0  0  0  0  0
    6.4244   54.1826   29.2814 H   0  0  0  0  0  0
    6.8339   53.0735   27.9738 H   0  0  0  0  0  0
    1.0588   52.8970   19.6994 H   0  0  0  0  0  0
    1.3340   51.4042   18.8576 H   0  0  0  0  0  0
    3.5383   53.1808   15.9963 H   0  0  0  0  0  0
    4.7245   53.6600   17.2056 H   0  0  0  0  0  0
    4.9348   56.0788   17.9216 H   0  0  0  0  0  0
    2.5664   54.9505   14.5229 H   0  0  0  0  0  0
    4.2059   59.9322   15.5486 H   0  0  0  0  0  0
    7.0554   57.7903   16.7561 H   0  0  0  0  0  0
    6.5942   59.3043   15.9563 H   0  0  0  0  0  0
    7.0575   59.2966   17.6568 H   0  0  0  0  0  0
   -0.1278   51.6088   21.4685 H   0  0  0  0  0  0
    0.2362   50.0774   20.6879 H   0  0  0  0  0  0
    0.6919   50.3371   22.3613 H   0  0  0  0  0  0
    2.7042   53.6472   17.8752 N   0  3  0  0  0  0
    2.5035   54.5048   18.3744 H   0  0  0  0  0  0
    1.8530   53.3478   17.4262 H   0  0  0  0  0  0
  1  2  1  0  0  0
  1 32  1  0  0  0
  1 33  1  0  0  0
  1 34  1  0  0  0
  2 19  1  0  0  0
  2  3  1  0  0  0
  2 31  1  0  0  0
  3  4  1  0  0  0
  3 35  1  0  0  0
  3 36  1  0  0  0
  4  8  1  0  0  0
  4  5  2  0  0  0
  5  6  1  0  0  0
  5 17  1  0  0  0
  6  7  2  0  0  0
  6 37  1  0  0  0
  7  8  1  0  0  0
  8  9  1  0  0  0
  9 14  2  0  0  0
  9 10  1  0  0  0
 10 11  2  0  0  0
 10 38  1  0  0  0
 11 12  1  0  0  0
 11 39  1  0  0  0
 12 13  2  0  0  0
 12 15  1  0  0  0
 13 14  1  0  0  0
 13 40  1  0  0  0
 14 41  1  0  0  0
 15 16  1  0  0  0
 16 42  1  0  0  0
 16 43  1  0  0  0
 16 44  1  0  0  0
 17 18  1  0  0  0
 17 19  1  0  0  0
 17 58  1  0  0  0
 19 45  1  0  0  0
 19 46  1  0  0  0
 20 21  1  0  0  0
 20 47  1  0  0  0
 20 48  1  0  0  0
 20 58  1  0  0  0
 21 26  2  0  0  0
 21 22  1  0  0  0
 22 23  2  0  0  0
 22 49  1  0  0  0
 23 24  1  0  0  0
 23 29  1  0  0  0
 24 25  2  0  0  0
 24 28  1  0  0  0
 25 26  1  0  0  0
 25 27  1  0  0  0
 26 50  1  0  0  0
 28 51  1  0  0  0
 29 30  1  0  0  0
 30 52  1  0  0  0
 30 53  1  0  0  0
 30 54  1  0  0  0
 31 55  1  0  0  0
 31 56  1  0  0  0
 31 57  1  0  0  0
 58 59  1  0  0  0
 58 60  1  0  0  0
M  CHG  1  58   1
M  END
> <i_i_glide_confnum>
39

> <i_i_glide_lignum>
2191

> <i_i_glide_posenum>
282

> <i_i_glide_rotatable_bonds>
7

> <i_m_Source_File_Index>
447

> <b_m_subgroup_collapsed>
0

> <r_i_docking_score>
-4.81219

> <r_i_glide_ecoul>
-5.12447

> <r_i_glide_eff_state_penalty>
0

> <r_i_glide_einternal>
5.51708

> <r_i_glide_emodel>
-50.6648

> <r_i_glide_energy>
-39.181

> <r_i_glide_erotb>
0.407471

> <r_i_glide_esite>
-0.0147858

> <r_i_glide_evdw>
-34.0565

> <r_i_glide_gscore>
-4.81219

> <r_i_glide_hbond>
0

> <r_i_glide_ligand_efficiency>
-0.155232

> <r_i_glide_ligand_efficiency_ln>
-1.0853

> <r_i_glide_ligand_efficiency_sa>
-0.487643

> <r_i_glide_lipo>
-2.09863

> <r_i_glide_metal>
0

> <r_i_glide_rewards>
-0.634755

> <s_i_glide_gridfile>
wee1_glide-grid

> <s_m_Source_File>
wee1_decoys_glide_SP.sdf

> <s_m_Source_Path>
/Users/zhangxujun/Desktop

> <s_m_entry_id>
722

> <s_m_entry_name>
wee1_decoys_glide_SP.447

> <s_m_subgroup_title>
wee1_decoys_glide_SP

> <s_m_subgroupid>
wee1_decoys_glide_SP


$$$$
