ZINC39676077_3079
                    3D
 Schrodinger Suite 2024-2.
 75 79  0  0  1  0            999 V2000
    0.8934   50.8666   24.2829 C   0  0  0  0  0  0
    0.5393   51.2192   25.7496 C   0  0  0  0  0  0
    1.4392   52.2492   26.5260 C   0  0  2  0  0  0
    2.3044   51.7053   26.8818 H   0  0  0  0  0  0
    0.8353   52.6893   27.8902 C   0  0  0  0  0  0
    1.1558   53.9213   28.4910 C   0  0  0  0  0  0
    0.7039   54.2328   29.7718 C   0  0  0  0  0  0
   -0.0773   53.3174   30.4708 C   0  0  0  0  0  0
   -0.4113   52.0969   29.8979 C   0  0  0  0  0  0
    0.0481   51.7841   28.6228 C   0  0  0  0  0  0
    1.9470   53.4192   25.6227 C   0  0  0  0  0  0
    1.1879   53.8714   24.7641 O   0  0  0  0  0  0
    3.1724   53.9703   25.8308 N   0  0  0  0  0  0
    3.6288   55.1442   25.0941 C   0  0  0  0  0  0
    5.1521   55.1184   25.1650 C   0  0  1  0  0  0
    5.4985   56.1435   25.3080 H   0  0  0  0  0  0
    5.4893   54.3097   26.4454 C   0  0  0  0  0  0
    4.2613   53.3791   26.6033 C   0  0  0  0  0  0
    6.8861   53.6529   26.4481 C   0  0  0  0  0  0
    7.0421   52.7789   27.6816 C   0  0  0  0  0  0
    7.0238   53.6967   28.8817 N   0  3  0  0  0  0
    5.7178   54.4972   29.0084 C   0  0  0  0  0  0
    5.5309   55.2387   27.6795 C   0  0  0  0  0  0
    5.8322   54.6224   23.8624 C   0  0  0  0  0  0
    5.5213   53.5480   23.3564 O   0  0  0  0  0  0
    6.7044   55.4776   23.3010 N   0  0  0  0  0  0
    7.4488   55.2976   22.0525 C   0  0  0  0  0  0
    6.5840   55.4161   20.8094 C   0  0  0  0  0  0
    6.7026   56.3184   19.7382 C   0  0  0  0  0  0
    5.7793   56.1768   18.8147 N   0  0  0  0  0  0
    5.0441   55.1415   19.2343 N   0  0  0  0  0  0
    5.5023   54.6374   20.4205 C   0  0  0  0  0  0
    3.8683   54.7155   18.4797 C   0  0  0  0  0  0
    4.1429   54.2667   17.0487 C   0  0  0  0  0  0
    4.2041   52.9033   16.7416 C   0  0  0  0  0  0
    4.4435   52.4968   15.4320 C   0  0  0  0  0  0
    4.6230   53.4510   14.4332 C   0  0  0  0  0  0
    4.5616   54.8107   14.7313 C   0  0  0  0  0  0
    4.3181   55.2196   16.0399 C   0  0  0  0  0  0
    0.3122   50.0054   23.9506 H   0  0  0  0  0  0
    0.6546   51.6811   23.6000 H   0  0  0  0  0  0
    1.9432   50.6191   24.1375 H   0  0  0  0  0  0
    0.5364   50.2748   26.2954 H   0  0  0  0  0  0
   -0.4928   51.5742   25.7573 H   0  0  0  0  0  0
    1.7728   54.6504   27.9887 H   0  0  0  0  0  0
    0.9598   55.1817   30.2211 H   0  0  0  0  0  0
   -0.4214   53.5424   31.4711 H   0  0  0  0  0  0
   -1.0105   51.3852   30.4496 H   0  0  0  0  0  0
   -0.2111   50.8123   28.2308 H   0  0  0  0  0  0
    3.2568   55.2700   24.0740 H   0  0  0  0  0  0
    3.3863   56.0226   25.6817 H   0  0  0  0  0  0
    4.0119   53.0435   27.6072 H   0  0  0  0  0  0
    4.5493   52.4967   26.0816 H   0  0  0  0  0  0
    7.0323   53.0037   25.5884 H   0  0  0  0  0  0
    7.6531   54.4233   26.3792 H   0  0  0  0  0  0
    6.2127   52.0973   27.8540 H   0  0  0  0  0  0
    7.9766   52.2464   27.7501 H   0  0  0  0  0  0
    7.1740   53.1656   29.7300 H   0  0  0  0  0  0
    4.9233   53.8004   29.2756 H   0  0  0  0  0  0
    5.8582   55.1911   29.8399 H   0  0  0  0  0  0
    6.3044   56.0090   27.5844 H   0  0  0  0  0  0
    4.5523   55.6966   27.7484 H   0  0  0  0  0  0
    6.9321   56.3182   23.8081 H   0  0  0  0  0  0
    8.2477   56.0392   22.0332 H   0  0  0  0  0  0
    7.9711   54.3477   22.0819 H   0  0  0  0  0  0
    7.4614   57.0787   19.6337 H   0  0  0  0  0  0
    5.0075   53.7994   20.8891 H   0  0  0  0  0  0
    3.3760   53.9117   19.0285 H   0  0  0  0  0  0
    3.1530   55.5393   18.4800 H   0  0  0  0  0  0
    4.0730   52.1544   17.5121 H   0  0  0  0  0  0
    4.4920   51.4420   15.1992 H   0  0  0  0  0  0
    4.8138   53.1323   13.4195 H   0  0  0  0  0  0
    4.7052   55.5450   13.9524 H   0  0  0  0  0  0
    4.2732   56.2749   16.2697 H   0  0  0  0  0  0
    7.7820   54.3662   28.8365 H   0  0  0  0  0  0
  1  2  1  0  0  0
  1 40  1  0  0  0
  1 41  1  0  0  0
  1 42  1  0  0  0
  2  3  1  0  0  0
  2 43  1  0  0  0
  2 44  1  0  0  0
  3  4  1  0  0  0
  3  5  1  0  0  0
  3 11  1  0  0  0
  5 10  2  0  0  0
  5  6  1  0  0  0
  6  7  2  0  0  0
  6 45  1  0  0  0
  7  8  1  0  0  0
  7 46  1  0  0  0
  8  9  2  0  0  0
  8 47  1  0  0  0
  9 10  1  0  0  0
  9 48  1  0  0  0
 10 49  1  0  0  0
 11 12  2  0  0  0
 11 13  1  0  0  0
 13 18  1  0  0  0
 13 14  1  0  0  0
 14 15  1  0  0  0
 14 50  1  0  0  0
 14 51  1  0  0  0
 15 16  1  0  0  0
 15 17  1  0  0  0
 15 24  1  0  0  0
 17 23  1  0  0  0
 17 18  1  0  0  0
 17 19  1  0  0  0
 18 52  1  0  0  0
 18 53  1  0  0  0
 19 20  1  0  0  0
 19 54  1  0  0  0
 19 55  1  0  0  0
 20 21  1  0  0  0
 20 56  1  0  0  0
 20 57  1  0  0  0
 21 22  1  0  0  0
 21 58  1  0  0  0
 21 75  1  0  0  0
 22 23  1  0  0  0
 22 59  1  0  0  0
 22 60  1  0  0  0
 23 61  1  0  0  0
 23 62  1  0  0  0
 24 25  2  0  0  0
 24 26  1  0  0  0
 26 27  1  0  0  0
 26 63  1  0  0  0
 27 28  1  0  0  0
 27 64  1  0  0  0
 27 65  1  0  0  0
 28 32  2  0  0  0
 28 29  1  0  0  0
 29 30  2  0  0  0
 29 66  1  0  0  0
 30 31  1  0  0  0
 31 32  1  0  0  0
 31 33  1  0  0  0
 32 67  1  0  0  0
 33 34  1  0  0  0
 33 68  1  0  0  0
 33 69  1  0  0  0
 34 39  2  0  0  0
 34 35  1  0  0  0
 35 36  2  0  0  0
 35 70  1  0  0  0
 36 37  1  0  0  0
 36 71  1  0  0  0
 37 38  2  0  0  0
 37 72  1  0  0  0
 38 39  1  0  0  0
 38 73  1  0  0  0
 39 74  1  0  0  0
M  CHG  1  21   1
M  END
> <i_i_glide_confnum>
420

> <i_i_glide_lignum>
3080

> <i_i_glide_posenum>
282

> <i_i_glide_rotatable_bonds>
10

> <i_m_Source_File_Index>
1771

> <b_m_subgroup_collapsed>
0

> <r_i_docking_score>
-4.23355

> <r_i_glide_ecoul>
-2.10958

> <r_i_glide_eff_state_penalty>
0

> <r_i_glide_einternal>
8.40153

> <r_i_glide_emodel>
-36.1109

> <r_i_glide_energy>
-26.9811

> <r_i_glide_erotb>
0.733238

> <r_i_glide_esite>
-0.0149573

> <r_i_glide_evdw>
-24.8715

> <r_i_glide_gscore>
-4.23355

> <r_i_glide_hbond>
0

> <r_i_glide_ligand_efficiency>
-0.11442

> <r_i_glide_ligand_efficiency_ln>
-0.918158

> <r_i_glide_ligand_efficiency_sa>
-0.381274

> <r_i_glide_lipo>
-2.30453

> <r_i_glide_metal>
0

> <r_i_glide_rewards>
-1.08729

> <s_i_glide_gridfile>
wee1_glide-grid

> <s_m_Source_File>
wee1_decoys_glide_SP.sdf

> <s_m_Source_Path>
/Users/zhangxujun/Desktop

> <s_m_entry_id>
2046

> <s_m_entry_name>
wee1_decoys_glide_SP.1771

> <s_m_subgroup_title>
wee1_decoys_glide_SP

> <s_m_subgroupid>
wee1_decoys_glide_SP


$$$$
