ZINC38687946_31
                    3D
 Schrodinger Suite 2024-2.
 50 54  0  0  1  0            999 V2000
   -0.3780   50.6585   25.4784 C   0  0  0  0  0  0
   -1.7209   50.4651   25.1673 C   0  0  0  0  0  0
   -2.2194   50.9051   23.9420 C   0  0  0  0  0  0
   -1.3734   51.5273   23.0220 C   0  0  0  0  0  0
   -0.0106   51.7113   23.3120 C   0  0  0  0  0  0
    0.4705   51.2803   24.5612 C   0  0  0  0  0  0
    0.9121   52.3857   22.2746 C   0  0  1  0  0  0
    0.3068   53.1789   21.8380 H   0  0  0  0  0  0
    2.1579   53.0861   22.8647 C   0  0  0  0  0  0
    2.0688   53.9390   23.9699 C   0  0  0  0  0  0
    3.2093   54.4966   24.5406 C   0  0  0  0  0  0
    4.4831   54.2263   24.0321 C   0  0  0  0  0  0
    4.5793   53.4647   22.8685 C   0  0  0  0  0  0
    3.4360   52.8970   22.3013 C   0  0  0  0  0  0
    3.6495   52.1048   21.1959 O   0  0  0  0  0  0
    2.6168   51.3847   20.7029 C   0  0  0  0  0  0
    1.3398   51.4464   21.1337 C   0  0  0  0  0  0
    0.3546   50.6318   20.4983 C   0  0  0  0  0  0
   -0.4215   49.9482   19.9773 N   0  0  0  0  0  0
    3.1038   50.6176   19.6818 N   0  0  0  0  0  0
    5.6477   54.7377   24.5767 O   0  0  0  0  0  0
    5.9668   54.7489   25.9218 C   0  0  0  0  0  0
    6.9924   55.2963   26.3235 O   0  0  0  0  0  0
    5.0563   53.9840   26.9130 C   0  0  1  0  0  0
    4.5233   53.1990   26.3764 H   0  0  0  0  0  0
    5.8493   53.3033   28.0686 C   0  0  0  0  0  0
    4.9536   52.5320   28.8815 O   0  0  0  0  0  0
    3.7586   53.1607   29.1699 C   0  0  0  0  0  0
    2.9354   52.5775   30.1302 C   0  0  0  0  0  0
    1.6824   53.1347   30.4006 C   0  0  0  0  0  0
    1.2659   54.2834   29.7217 C   0  0  0  0  0  0
    2.0876   54.8709   28.7556 C   0  0  0  0  0  0
    3.3266   54.2979   28.4682 C   0  0  0  0  0  0
    4.1151   54.8959   27.5058 O   0  0  0  0  0  0
   -1.8952   51.9840   21.8585 F   0  0  0  0  0  0
    0.0052   50.3123   26.4281 H   0  0  0  0  0  0
   -2.3694   49.9759   25.8812 H   0  0  0  0  0  0
   -3.2645   50.7695   23.7045 H   0  0  0  0  0  0
    1.5086   51.4017   24.8305 H   0  0  0  0  0  0
    1.1031   54.1475   24.4102 H   0  0  0  0  0  0
    3.1047   55.1553   25.3865 H   0  0  0  0  0  0
    5.5459   53.2768   22.4231 H   0  0  0  0  0  0
    2.5139   49.9485   19.2079 H   0  0  0  0  0  0
    3.9612   50.8753   19.1949 H   0  0  0  0  0  0
    6.6267   52.6448   27.6814 H   0  0  0  0  0  0
    6.3316   54.0605   28.6925 H   0  0  0  0  0  0
    3.2650   51.6965   30.6559 H   0  0  0  0  0  0
    1.0376   52.6821   31.1403 H   0  0  0  0  0  0
    0.3032   54.7179   29.9441 H   0  0  0  0  0  0
    1.7610   55.7551   28.2274 H   0  0  0  0  0  0
  1  6  2  0  0  0
  1  2  1  0  0  0
  1 36  1  0  0  0
  2  3  2  0  0  0
  2 37  1  0  0  0
  3  4  1  0  0  0
  3 38  1  0  0  0
  4  5  2  0  0  0
  4 35  1  0  0  0
  5  6  1  0  0  0
  5  7  1  0  0  0
  6 39  1  0  0  0
  7  8  1  0  0  0
  7 17  1  0  0  0
  7  9  1  0  0  0
  9 14  2  0  0  0
  9 10  1  0  0  0
 10 11  2  0  0  0
 10 40  1  0  0  0
 11 12  1  0  0  0
 11 41  1  0  0  0
 12 13  2  0  0  0
 12 21  1  0  0  0
 13 14  1  0  0  0
 13 42  1  0  0  0
 14 15  1  0  0  0
 15 16  1  0  0  0
 16 17  2  0  0  0
 16 20  1  0  0  0
 17 18  1  0  0  0
 18 19  3  0  0  0
 20 43  1  0  0  0
 20 44  1  0  0  0
 21 22  1  0  0  0
 22 23  2  0  0  0
 22 24  1  0  0  0
 24 25  1  0  0  0
 24 34  1  0  0  0
 24 26  1  0  0  0
 26 27  1  0  0  0
 26 45  1  0  0  0
 26 46  1  0  0  0
 27 28  1  0  0  0
 28 33  2  0  0  0
 28 29  1  0  0  0
 29 30  2  0  0  0
 29 47  1  0  0  0
 30 31  1  0  0  0
 30 48  1  0  0  0
 31 32  2  0  0  0
 31 49  1  0  0  0
 32 33  1  0  0  0
 32 50  1  0  0  0
 33 34  1  0  0  0
M  END
> <i_i_glide_confnum>
55

> <i_i_glide_lignum>
32

> <i_i_glide_posenum>
196

> <i_i_glide_rotatable_bonds>
5

> <i_m_Source_File_Index>
946

> <b_m_subgroup_collapsed>
0

> <r_i_docking_score>
-4.31556

> <r_i_glide_ecoul>
-6.69973

> <r_i_glide_eff_state_penalty>
0

> <r_i_glide_einternal>
8.22962

> <r_i_glide_emodel>
-51.3075

> <r_i_glide_energy>
-50.0457

> <r_i_glide_erotb>
0.405055

> <r_i_glide_esite>
-0.111484

> <r_i_glide_evdw>
-43.346

> <r_i_glide_gscore>
-4.31556

> <r_i_glide_hbond>
-0.449332

> <r_i_glide_ligand_efficiency>
-0.130775

> <r_i_glide_ligand_efficiency_ln>
-0.959759

> <r_i_glide_ligand_efficiency_sa>
-0.419464

> <r_i_glide_lipo>
-2.94382

> <r_i_glide_metal>
0

> <r_i_glide_rewards>
1.95627

> <s_i_glide_gridfile>
wee1_glide-grid

> <s_m_Source_File>
wee1_decoys_glide_SP.sdf

> <s_m_Source_Path>
/Users/zhangxujun/Desktop

> <s_m_entry_id>
1221

> <s_m_entry_name>
wee1_decoys_glide_SP.946

> <s_m_subgroup_title>
wee1_decoys_glide_SP

> <s_m_subgroupid>
wee1_decoys_glide_SP


$$$$
