ZINC09224021_2744
                    3D
 Schrodinger Suite 2024-2.
 53 57  0  0  1  0            999 V2000
    8.5755   55.6782   18.1676 C   0  0  0  0  0  0
    8.6048   56.0779   19.4999 C   0  0  0  0  0  0
    7.5785   55.6963   20.3601 C   0  0  0  0  0  0
    6.5209   54.8967   19.8900 C   0  0  0  0  0  0
    6.5053   54.5036   18.5430 C   0  0  0  0  0  0
    7.5292   54.8966   17.6860 C   0  0  0  0  0  0
    5.5045   54.4361   20.7727 N   0  0  0  0  0  0
    4.2882   53.8810   20.4734 C   0  0  0  0  0  0
    3.6353   53.5921   21.6627 C   0  0  0  0  0  0
    4.5540   54.0433   22.6508 C   0  0  0  0  0  0
    5.6619   54.4967   22.1002 N   0  0  0  0  0  0
    4.4287   54.0982   24.1208 C   0  0  0  0  0  0
    3.2777   54.1950   24.9041 C   0  0  0  0  0  0
    3.5247   54.2411   26.2800 C   0  0  0  0  0  0
    4.8759   54.2335   26.5786 C   0  0  0  0  0  0
    5.8471   54.1678   25.1474 S   0  0  0  0  0  0
    2.2833   53.0591   21.7620 C   0  0  0  0  0  0
    1.7413   52.3487   22.7700 C   0  0  0  0  0  0
    0.3244   52.0049   22.8207 C   0  0  0  0  0  0
   -0.3825   52.0978   21.8125 O   0  0  0  0  0  0
   -0.1826   51.6710   24.0510 N   0  0  0  0  0  0
    0.7044   50.9432   24.9896 C   0  0  0  0  0  0
   -0.1248   49.9461   25.8369 C   0  0  1  0  0  0
    0.5055   49.4751   26.5917 H   0  0  0  0  0  0
   -1.2041   50.6239   26.4934 O   0  0  0  0  0  0
   -1.9822   51.4316   25.6899 C   0  0  0  0  0  0
   -1.5198   51.9726   24.4724 C   0  0  0  0  0  0
   -2.3897   52.8547   23.7975 C   0  0  0  0  0  0
   -3.6547   53.1578   24.3036 C   0  0  0  0  0  0
   -4.0871   52.5902   25.4982 C   0  0  0  0  0  0
   -3.2467   51.7276   26.1951 C   0  0  0  0  0  0
   -0.6960   48.7377   25.0459 C   0  0  0  0  0  0
   -0.3462   48.4858   23.8947 O   0  0  0  0  0  0
   -1.5702   47.9613   25.6816 N   0  0  0  0  0  0
    9.3769   55.9703   17.5041 H   0  0  0  0  0  0
    9.4345   56.6675   19.8653 H   0  0  0  0  0  0
    7.6338   56.0001   21.3963 H   0  0  0  0  0  0
    5.7252   53.8702   18.1461 H   0  0  0  0  0  0
    7.5196   54.5830   16.6524 H   0  0  0  0  0  0
    3.9686   53.7528   19.4502 H   0  0  0  0  0  0
    2.2800   54.2403   24.4952 H   0  0  0  0  0  0
    2.7461   54.2979   27.0262 H   0  0  0  0  0  0
    5.3425   54.2724   27.5522 H   0  0  0  0  0  0
    1.6752   53.2966   20.8996 H   0  0  0  0  0  0
    2.3737   52.0745   23.5962 H   0  0  0  0  0  0
    1.1564   51.6669   25.6685 H   0  0  0  0  0  0
    1.4977   50.3895   24.4820 H   0  0  0  0  0  0
   -2.1003   53.3410   22.8821 H   0  0  0  0  0  0
   -4.2971   53.8429   23.7710 H   0  0  0  0  0  0
   -5.0666   52.8238   25.8884 H   0  0  0  0  0  0
   -3.5660   51.2945   27.1323 H   0  0  0  0  0  0
   -1.6957   48.0966   26.6905 H   0  0  0  0  0  0
   -1.9780   47.1707   25.2155 H   0  0  0  0  0  0
  1  6  2  0  0  0
  1  2  1  0  0  0
  1 35  1  0  0  0
  2  3  2  0  0  0
  2 36  1  0  0  0
  3  4  1  0  0  0
  3 37  1  0  0  0
  4  5  2  0  0  0
  4  7  1  0  0  0
  5  6  1  0  0  0
  5 38  1  0  0  0
  6 39  1  0  0  0
  7 11  1  0  0  0
  7  8  1  0  0  0
  8  9  2  0  0  0
  8 40  1  0  0  0
  9 10  1  0  0  0
  9 17  1  0  0  0
 10 11  2  0  0  0
 10 12  1  0  0  0
 12 16  1  0  0  0
 12 13  2  0  0  0
 13 14  1  0  0  0
 13 41  1  0  0  0
 14 15  2  0  0  0
 14 42  1  0  0  0
 15 16  1  0  0  0
 15 43  1  0  0  0
 17 18  2  0  0  0
 17 44  1  0  0  0
 18 19  1  0  0  0
 18 45  1  0  0  0
 19 20  2  0  0  0
 19 21  1  0  0  0
 21 27  1  0  0  0
 21 22  1  0  0  0
 22 23  1  0  0  0
 22 46  1  0  0  0
 22 47  1  0  0  0
 23 24  1  0  0  0
 23 25  1  0  0  0
 23 32  1  0  0  0
 25 26  1  0  0  0
 26 31  2  0  0  0
 26 27  1  0  0  0
 27 28  2  0  0  0
 28 29  1  0  0  0
 28 48  1  0  0  0
 29 30  2  0  0  0
 29 49  1  0  0  0
 30 31  1  0  0  0
 30 50  1  0  0  0
 31 51  1  0  0  0
 32 33  2  0  0  0
 32 34  1  0  0  0
 34 52  1  0  0  0
 34 53  1  0  0  0
M  END
> <i_i_glide_confnum>
223

> <i_i_glide_lignum>
2745

> <i_i_glide_posenum>
206

> <i_i_glide_rotatable_bonds>
6

> <i_m_Source_File_Index>
3316

> <b_m_subgroup_collapsed>
0

> <r_i_docking_score>
-5.69081

> <r_i_glide_ecoul>
-6.64123

> <r_i_glide_eff_state_penalty>
0

> <r_i_glide_einternal>
3.31231

> <r_i_glide_emodel>
-65.9771

> <r_i_glide_energy>
-49.339

> <r_i_glide_erotb>
0.48217

> <r_i_glide_esite>
-0.160267

> <r_i_glide_evdw>
-42.6978

> <r_i_glide_gscore>
-5.69081

> <r_i_glide_hbond>
-0.16

> <r_i_glide_ligand_efficiency>
-0.172449

> <r_i_glide_ligand_efficiency_ln>
-1.26561

> <r_i_glide_ligand_efficiency_sa>
-0.553135

> <r_i_glide_lipo>
-2.46865

> <r_i_glide_metal>
0

> <r_i_glide_rewards>
-0.252985

> <s_i_glide_gridfile>
wee1_glide-grid

> <s_m_Source_File>
wee1_decoys_glide_SP.sdf

> <s_m_Source_Path>
/Users/zhangxujun/Desktop

> <s_m_entry_id>
3591

> <s_m_entry_name>
wee1_decoys_glide_SP.3316

> <s_m_subgroup_title>
wee1_decoys_glide_SP

> <s_m_subgroupid>
wee1_decoys_glide_SP


$$$$
