ZINC38893986_889
                    3D
 Schrodinger Suite 2024-2.
 70 74  0  0  1  0            999 V2000
    5.3691   53.1398   22.4936 C   0  0  0  0  0  0
    4.4093   53.5988   21.3760 C   0  0  1  0  0  0
    3.8165   54.4478   21.7252 H   0  0  0  0  0  0
    5.2367   54.1007   20.1846 C   0  0  0  0  0  0
    5.9076   55.3244   20.2970 C   0  0  0  0  0  0
    6.6828   55.8037   19.2445 C   0  0  0  0  0  0
    6.7911   55.0583   18.0735 C   0  0  0  0  0  0
    6.1262   53.8421   17.9441 C   0  0  0  0  0  0
    5.3470   53.3672   18.9946 C   0  0  0  0  0  0
    3.4607   52.5383   21.0159 N   0  0  0  0  0  0
    2.5376   51.9482   21.8011 C   0  0  0  0  0  0
    2.3043   52.3507   22.9431 O   0  0  0  0  0  0
    1.8415   50.7230   21.2103 C   0  0  0  0  0  0
    2.3056   50.1776   19.9921 C   0  0  0  0  0  0
    1.7414   49.0344   19.4351 C   0  0  0  0  0  0
    0.6916   48.3943   20.0806 C   0  0  0  0  0  0
    0.2112   48.8974   21.2854 C   0  0  0  0  0  0
    0.7612   50.0535   21.8512 C   0  0  0  0  0  0
    0.1799   50.4620   23.0641 N   0  0  0  0  0  0
   -0.7126   51.4696   23.1695 C   0  0  0  0  0  0
   -1.1232   52.0980   22.1923 O   0  0  0  0  0  0
   -1.2819   51.8350   24.5630 C   0  0  1  0  0  0
   -1.2531   52.9265   24.5427 H   0  0  0  0  0  0
   -2.7447   51.3334   24.6562 C   0  0  0  0  0  0
   -3.3572   51.7685   26.0028 C   0  0  0  0  0  0
   -2.5055   51.3190   27.2067 C   0  0  0  0  0  0
   -1.0754   51.9068   27.0550 N   0  3  2  0  0  0
   -0.4239   51.3362   25.7614 C   0  0  0  0  0  0
   -0.2871   51.5742   28.3545 C   0  0  0  0  0  0
    1.1138   52.1569   28.4090 C   0  0  0  0  0  0
    1.7118   52.9693   27.5826 N   0  0  0  0  0  0
    2.9372   53.0278   28.0730 C   0  0  0  0  0  0
    3.1290   52.3795   29.2040 N   0  0  0  0  0  0
    1.9012   51.7679   29.4387 O   0  0  0  0  0  0
    4.0480   53.7406   27.3539 C   0  0  0  0  0  0
    5.3197   53.8668   27.9323 C   0  0  0  0  0  0
    6.3502   54.4980   27.2415 C   0  0  0  0  0  0
    6.1148   55.0078   25.9684 C   0  0  0  0  0  0
    4.8595   54.8964   25.3852 C   0  0  0  0  0  0
    3.8307   54.2629   26.0711 C   0  0  0  0  0  0
    7.1043   55.6300   25.2922 F   0  0  0  0  0  0
    6.1088   53.9021   22.7399 H   0  0  0  0  0  0
    4.8299   52.9167   23.4094 H   0  0  0  0  0  0
    5.9041   52.2346   22.2054 H   0  0  0  0  0  0
    5.8302   55.9063   21.2040 H   0  0  0  0  0  0
    7.1998   56.7473   19.3329 H   0  0  0  0  0  0
    7.3947   55.4272   17.2572 H   0  0  0  0  0  0
    6.2150   53.2643   17.0354 H   0  0  0  0  0  0
    4.8458   52.4213   18.8730 H   0  0  0  0  0  0
    3.3991   52.3461   20.0287 H   0  0  0  0  0  0
    3.1345   50.6090   19.4470 H   0  0  0  0  0  0
    2.1321   48.6476   18.5032 H   0  0  0  0  0  0
    0.2527   47.5072   19.6491 H   0  0  0  0  0  0
   -0.6078   48.3884   21.7733 H   0  0  0  0  0  0
    0.3216   49.8540   23.8556 H   0  0  0  0  0  0
   -3.3717   51.7652   23.8720 H   0  0  0  0  0  0
   -2.7885   50.2420   24.6380 H   0  0  0  0  0  0
   -3.4793   52.8526   26.0247 H   0  0  0  0  0  0
   -4.3627   51.3545   26.0989 H   0  0  0  0  0  0
   -2.9334   51.6987   28.1352 H   0  0  0  0  0  0
   -2.4225   50.2303   27.2810 H   0  0  0  0  0  0
   -0.4168   50.2491   25.8802 H   0  0  0  0  0  0
    0.5964   51.7127   25.6878 H   0  0  0  0  0  0
   -0.8936   51.9364   29.1866 H   0  0  0  0  0  0
   -0.2676   50.4935   28.3988 H   0  0  0  0  0  0
    5.5218   53.4714   28.9162 H   0  0  0  0  0  0
    7.3248   54.5939   27.6965 H   0  0  0  0  0  0
    4.6865   55.2938   24.3977 H   0  0  0  0  0  0
    2.8690   54.1713   25.5876 H   0  0  0  0  0  0
   -1.1268   52.9145   26.9837 H   0  0  0  0  0  0
  1  2  1  0  0  0
  1 42  1  0  0  0
  1 43  1  0  0  0
  1 44  1  0  0  0
  2  3  1  0  0  0
  2  4  1  0  0  0
  2 10  1  0  0  0
  4  9  2  0  0  0
  4  5  1  0  0  0
  5  6  2  0  0  0
  5 45  1  0  0  0
  6  7  1  0  0  0
  6 46  1  0  0  0
  7  8  2  0  0  0
  7 47  1  0  0  0
  8  9  1  0  0  0
  8 48  1  0  0  0
  9 49  1  0  0  0
 10 11  1  0  0  0
 10 50  1  0  0  0
 11 12  2  0  0  0
 11 13  1  0  0  0
 13 18  2  0  0  0
 13 14  1  0  0  0
 14 15  2  0  0  0
 14 51  1  0  0  0
 15 16  1  0  0  0
 15 52  1  0  0  0
 16 17  2  0  0  0
 16 53  1  0  0  0
 17 18  1  0  0  0
 17 54  1  0  0  0
 18 19  1  0  0  0
 19 20  1  0  0  0
 19 55  1  0  0  0
 20 21  2  0  0  0
 20 22  1  0  0  0
 22 23  1  0  0  0
 22 28  1  0  0  0
 22 24  1  0  0  0
 24 25  1  0  0  0
 24 56  1  0  0  0
 24 57  1  0  0  0
 25 26  1  0  0  0
 25 58  1  0  0  0
 25 59  1  0  0  0
 26 27  1  0  0  0
 26 60  1  0  0  0
 26 61  1  0  0  0
 27 28  1  0  0  0
 27 29  1  0  0  0
 27 70  1  0  0  0
 28 62  1  0  0  0
 28 63  1  0  0  0
 29 30  1  0  0  0
 29 64  1  0  0  0
 29 65  1  0  0  0
 30 34  1  0  0  0
 30 31  2  0  0  0
 31 32  1  0  0  0
 32 33  2  0  0  0
 32 35  1  0  0  0
 33 34  1  0  0  0
 35 40  2  0  0  0
 35 36  1  0  0  0
 36 37  2  0  0  0
 36 66  1  0  0  0
 37 38  1  0  0  0
 37 67  1  0  0  0
 38 39  2  0  0  0
 38 41  1  0  0  0
 39 40  1  0  0  0
 39 68  1  0  0  0
 40 69  1  0  0  0
M  CHG  1  27   1
M  END
> <i_i_glide_confnum>
20

> <i_i_glide_lignum>
890

> <i_i_glide_posenum>
100

> <i_i_glide_rotatable_bonds>
10

> <i_m_Source_File_Index>
3660

> <b_m_subgroup_collapsed>
0

> <r_i_docking_score>
-5.67566

> <r_i_glide_ecoul>
-5.86864

> <r_i_glide_eff_state_penalty>
0

> <r_i_glide_einternal>
11.2225

> <r_i_glide_emodel>
-70.613

> <r_i_glide_energy>
-56.0251

> <r_i_glide_erotb>
0.663607

> <r_i_glide_esite>
-0.0410994

> <r_i_glide_evdw>
-50.1565

> <r_i_glide_gscore>
-5.67566

> <r_i_glide_hbond>
0

> <r_i_glide_ligand_efficiency>
-0.14553

> <r_i_glide_ligand_efficiency_ln>
-1.21702

> <r_i_glide_ligand_efficiency_sa>
-0.493522

> <r_i_glide_lipo>
-2.4374

> <r_i_glide_metal>
0

> <r_i_glide_rewards>
-0.472652

> <s_i_glide_gridfile>
wee1_glide-grid

> <s_m_Source_File>
wee1_decoys_glide_SP.sdf

> <s_m_Source_Path>
/Users/zhangxujun/Desktop

> <s_m_entry_id>
3935

> <s_m_entry_name>
wee1_decoys_glide_SP.3660

> <s_m_subgroup_title>
wee1_decoys_glide_SP

> <s_m_subgroupid>
wee1_decoys_glide_SP


$$$$
