ZINC21799089_1827
                    3D
 Schrodinger Suite 2024-2.
 32 34  0  0  1  0            999 V2000
    3.8851   52.9814   29.5796 C   0  0  0  0  0  0
    2.6004   52.7812   30.0820 C   0  0  0  0  0  0
    1.5262   53.4804   29.5369 C   0  0  0  0  0  0
    1.7247   54.3762   28.4908 C   0  0  0  0  0  0
    3.0065   54.5761   27.9867 C   0  0  0  0  0  0
    4.0956   53.8743   28.5247 C   0  0  0  0  0  0
    5.4262   54.0878   28.1014 N   0  0  0  0  0  0
    5.9183   54.3578   26.8701 C   0  0  0  0  0  0
    7.1043   54.6585   26.7449 O   0  0  0  0  0  0
    5.0519   54.2402   25.8391 N   0  0  0  0  0  0
    5.3071   54.4348   24.4908 C   0  0  0  0  0  0
    6.4201   54.8460   23.9391 N   0  0  0  0  0  0
    6.3064   54.8968   22.5838 C   0  0  0  0  0  0
    7.3138   55.3211   21.7037 C   0  0  0  0  0  0
    7.0480   55.3138   20.3322 C   0  0  0  0  0  0
    5.8118   54.8976   19.8339 C   0  0  0  0  0  0
    4.7902   54.4849   20.6894 C   0  0  0  0  0  0
    5.0440   54.4961   22.0679 C   0  0  0  0  0  0
    3.9795   54.0956   23.4066 S   0  0  0  0  0  0
    5.5888   54.8928   18.4594 N   0  0  0  0  0  0
    0.2826   53.2995   30.0345 F   0  0  0  0  0  0
    4.7080   52.4365   30.0149 H   0  0  0  0  0  0
    2.4320   52.0968   30.9005 H   0  0  0  0  0  0
    0.8866   54.9211   28.0817 H   0  0  0  0  0  0
    3.1409   55.2968   27.1967 H   0  0  0  0  0  0
    6.1272   53.9957   28.8212 H   0  0  0  0  0  0
    4.1180   53.9366   26.0669 H   0  0  0  0  0  0
    8.2753   55.6400   22.0807 H   0  0  0  0  0  0
    7.8221   55.6297   19.6471 H   0  0  0  0  0  0
    3.8269   54.1810   20.3037 H   0  0  0  0  0  0
    6.3692   55.0504   17.8381 H   0  0  0  0  0  0
    4.7605   54.4321   18.1095 H   0  0  0  0  0  0
  1  6  2  0  0  0
  1  2  1  0  0  0
  1 22  1  0  0  0
  2  3  2  0  0  0
  2 23  1  0  0  0
  3  4  1  0  0  0
  3 21  1  0  0  0
  4  5  2  0  0  0
  4 24  1  0  0  0
  5  6  1  0  0  0
  5 25  1  0  0  0
  6  7  1  0  0  0
  7  8  1  0  0  0
  7 26  1  0  0  0
  8  9  2  0  0  0
  8 10  1  0  0  0
 10 11  1  0  0  0
 10 27  1  0  0  0
 11 19  1  0  0  0
 11 12  2  0  0  0
 12 13  1  0  0  0
 13 18  2  0  0  0
 13 14  1  0  0  0
 14 15  2  0  0  0
 14 28  1  0  0  0
 15 16  1  0  0  0
 15 29  1  0  0  0
 16 17  2  0  0  0
 16 20  1  0  0  0
 17 18  1  0  0  0
 17 30  1  0  0  0
 18 19  1  0  0  0
 20 31  1  0  0  0
 20 32  1  0  0  0
M  END
> <i_i_glide_confnum>
6

> <i_i_glide_lignum>
1828

> <i_i_glide_posenum>
390

> <i_i_glide_rotatable_bonds>
4

> <i_m_Source_File_Index>
2988

> <b_m_subgroup_collapsed>
0

> <r_i_docking_score>
-5.92418

> <r_i_glide_ecoul>
-4.18834

> <r_i_glide_eff_state_penalty>
0

> <r_i_glide_einternal>
6.04202

> <r_i_glide_emodel>
-55.0148

> <r_i_glide_energy>
-43.6869

> <r_i_glide_erotb>
0.604268

> <r_i_glide_esite>
0

> <r_i_glide_evdw>
-39.4985

> <r_i_glide_gscore>
-5.92418

> <r_i_glide_hbond>
-0.273345

> <r_i_glide_ligand_efficiency>
-0.282104

> <r_i_glide_ligand_efficiency_ln>
-1.46474

> <r_i_glide_ligand_efficiency_sa>
-0.778303

> <r_i_glide_lipo>
-2.45342

> <r_i_glide_metal>
0

> <r_i_glide_rewards>
-1.1985

> <s_i_glide_gridfile>
wee1_glide-grid

> <s_m_Source_File>
wee1_decoys_glide_SP.sdf

> <s_m_Source_Path>
/Users/zhangxujun/Desktop

> <s_m_entry_id>
3263

> <s_m_entry_name>
wee1_decoys_glide_SP.2988

> <s_m_subgroup_title>
wee1_decoys_glide_SP

> <s_m_subgroupid>
wee1_decoys_glide_SP


$$$$
