ZINC20600085_2192
                    3D
 Schrodinger Suite 2024-2.
 71 75  0  0  1  0            999 V2000
    5.3580   54.3463   28.0420 C   0  0  0  0  0  0
    5.2199   54.2452   26.5336 C   0  0  0  0  0  0
    3.9581   54.2018   25.9451 C   0  0  0  0  0  0
    3.8391   54.1100   24.5600 C   0  0  0  0  0  0
    4.9762   54.0968   23.7308 C   0  0  0  0  0  0
    6.2376   54.0982   24.3528 C   0  0  0  0  0  0
    6.3590   54.1917   25.7363 C   0  0  0  0  0  0
    4.8503   53.9629   22.1767 C   0  0  0  0  0  0
    3.4414   54.3465   21.6205 C   0  0  0  0  0  0
    2.6479   53.0735   21.2880 C   0  0  0  0  0  0
    3.4691   51.9274   21.8443 C   0  0  0  0  0  0
    4.9153   52.4556   21.7969 C   0  0  0  0  0  0
    5.9032   54.8041   21.3888 C   0  0  0  0  0  0
    5.9702   54.7479   20.0668 N   0  0  0  0  0  0
    6.8428   55.6710   19.7777 C   0  0  0  0  0  0
    7.3636   56.2800   20.8639 O   0  0  0  0  0  0
    6.7046   55.6962   21.9385 N   0  0  0  0  0  0
    7.3295   56.0994   18.4077 C   0  0  0  0  0  0
    8.0904   55.0388   17.7406 N   0  0  0  0  0  0
    8.1056   55.2115   16.2828 C   0  0  0  0  0  0
    8.7643   53.9936   15.5957 C   0  0  0  0  0  0
   10.2096   53.7045   16.1192 C   0  0  0  0  0  0
   10.1026   53.6245   17.6812 C   0  0  0  0  0  0
    9.4373   54.8731   18.3035 C   0  0  0  0  0  0
   11.2097   54.8329   15.6664 C   0  0  0  0  0  0
   11.1942   55.2622   14.5174 O   0  0  0  0  0  0
   12.0870   55.3494   16.5316 N   0  0  0  0  0  0
   10.7349   52.3261   15.5426 N   0  3  0  0  0  0
   10.1396   51.0526   16.2281 C   0  0  0  0  0  0
   10.7825   49.7720   15.6567 C   0  0  0  0  0  0
   10.6650   49.6729   14.1304 C   0  0  0  0  0  0
   11.2061   50.9455   13.4675 C   0  0  0  0  0  0
   10.5070   52.1994   14.0025 C   0  0  0  0  0  0
    5.4040   53.3535   28.4905 H   0  0  0  0  0  0
    6.2624   54.8918   28.3134 H   0  0  0  0  0  0
    4.5231   54.8926   28.4784 H   0  0  0  0  0  0
    3.0677   54.2212   26.5552 H   0  0  0  0  0  0
    2.8419   54.0398   24.1559 H   0  0  0  0  0  0
    7.1440   54.0126   23.7724 H   0  0  0  0  0  0
    7.3385   54.1945   26.1895 H   0  0  0  0  0  0
    2.8853   55.0139   22.2724 H   0  0  0  0  0  0
    3.5069   54.8967   20.6840 H   0  0  0  0  0  0
    1.6394   53.0994   21.7066 H   0  0  0  0  0  0
    2.5435   52.9643   20.2062 H   0  0  0  0  0  0
    3.1044   51.7282   22.8550 H   0  0  0  0  0  0
    3.3464   51.0095   21.2657 H   0  0  0  0  0  0
    5.2863   52.3142   20.7806 H   0  0  0  0  0  0
    5.5857   51.8839   22.4406 H   0  0  0  0  0  0
    7.9294   57.0091   18.4716 H   0  0  0  0  0  0
    6.4608   56.3706   17.8059 H   0  0  0  0  0  0
    8.5954   56.1508   16.0128 H   0  0  0  0  0  0
    7.0764   55.2880   15.9269 H   0  0  0  0  0  0
    8.7843   54.2369   14.5327 H   0  0  0  0  0  0
    8.1043   53.1305   15.6879 H   0  0  0  0  0  0
    9.4862   52.7986   18.0303 H   0  0  0  0  0  0
   11.0923   53.5111   18.1201 H   0  0  0  0  0  0
   10.0187   55.7845   18.1591 H   0  0  0  0  0  0
    9.3704   54.7307   19.3826 H   0  0  0  0  0  0
   12.7097   56.0734   16.2081 H   0  0  0  0  0  0
   12.1021   55.0744   17.5023 H   0  0  0  0  0  0
    9.0531   51.0722   16.1257 H   0  0  0  0  0  0
   10.4214   51.0761   17.2812 H   0  0  0  0  0  0
   10.3154   48.8986   16.1152 H   0  0  0  0  0  0
   11.8341   49.7310   15.9482 H   0  0  0  0  0  0
   11.2146   48.8035   13.7624 H   0  0  0  0  0  0
    9.6227   49.5157   13.8430 H   0  0  0  0  0  0
   12.2849   51.0180   13.6194 H   0  0  0  0  0  0
   11.0626   50.8968   12.3875 H   0  0  0  0  0  0
    9.4358   52.1751   13.8005 H   0  0  0  0  0  0
   10.9573   53.0604   13.5111 H   0  0  0  0  0  0
   11.7348   52.3151   15.6938 H   0  0  0  0  0  0
  1  2  1  0  0  0
  1 34  1  0  0  0
  1 35  1  0  0  0
  1 36  1  0  0  0
  2  7  2  0  0  0
  2  3  1  0  0  0
  3  4  2  0  0  0
  3 37  1  0  0  0
  4  5  1  0  0  0
  4 38  1  0  0  0
  5  6  2  0  0  0
  5  8  1  0  0  0
  6  7  1  0  0  0
  6 39  1  0  0  0
  7 40  1  0  0  0
  8 12  1  0  0  0
  8  9  1  0  0  0
  8 13  1  0  0  0
  9 10  1  0  0  0
  9 41  1  0  0  0
  9 42  1  0  0  0
 10 11  1  0  0  0
 10 43  1  0  0  0
 10 44  1  0  0  0
 11 12  1  0  0  0
 11 45  1  0  0  0
 11 46  1  0  0  0
 12 47  1  0  0  0
 12 48  1  0  0  0
 13 17  2  0  0  0
 13 14  1  0  0  0
 14 15  2  0  0  0
 15 16  1  0  0  0
 15 18  1  0  0  0
 16 17  1  0  0  0
 18 19  1  0  0  0
 18 49  1  0  0  0
 18 50  1  0  0  0
 19 24  1  0  0  0
 19 20  1  0  0  0
 20 21  1  0  0  0
 20 51  1  0  0  0
 20 52  1  0  0  0
 21 22  1  0  0  0
 21 53  1  0  0  0
 21 54  1  0  0  0
 22 23  1  0  0  0
 22 25  1  0  0  0
 22 28  1  0  0  0
 23 24  1  0  0  0
 23 55  1  0  0  0
 23 56  1  0  0  0
 24 57  1  0  0  0
 24 58  1  0  0  0
 25 26  2  0  0  0
 25 27  1  0  0  0
 27 59  1  0  0  0
 27 60  1  0  0  0
 28 33  1  0  0  0
 28 29  1  0  0  0
 28 71  1  0  0  0
 29 30  1  0  0  0
 29 61  1  0  0  0
 29 62  1  0  0  0
 30 31  1  0  0  0
 30 63  1  0  0  0
 30 64  1  0  0  0
 31 32  1  0  0  0
 31 65  1  0  0  0
 31 66  1  0  0  0
 32 33  1  0  0  0
 32 67  1  0  0  0
 32 68  1  0  0  0
 33 69  1  0  0  0
 33 70  1  0  0  0
M  CHG  1  28   1
M  END
> <i_i_glide_confnum>
896

> <i_i_glide_lignum>
2193

> <i_i_glide_posenum>
233

> <i_i_glide_rotatable_bonds>
6

> <i_m_Source_File_Index>
580

> <b_m_subgroup_collapsed>
0

> <r_i_docking_score>
-5.55906

> <r_i_glide_ecoul>
-5.64139

> <r_i_glide_eff_state_penalty>
0

> <r_i_glide_einternal>
3.27385

> <r_i_glide_emodel>
-54.9661

> <r_i_glide_energy>
-40.7266

> <r_i_glide_erotb>
0.489767

> <r_i_glide_esite>
-0.00433915

> <r_i_glide_evdw>
-35.0852

> <r_i_glide_gscore>
-5.55906

> <r_i_glide_hbond>
0

> <r_i_glide_ligand_efficiency>
-0.168456

> <r_i_glide_ligand_efficiency_ln>
-1.23631

> <r_i_glide_ligand_efficiency_sa>
-0.540329

> <r_i_glide_lipo>
-2.75702

> <r_i_glide_metal>
0

> <r_i_glide_rewards>
-0.686994

> <s_i_glide_gridfile>
wee1_glide-grid

> <s_m_Source_File>
wee1_decoys_glide_SP.sdf

> <s_m_Source_Path>
/Users/zhangxujun/Desktop

> <s_m_entry_id>
855

> <s_m_entry_name>
wee1_decoys_glide_SP.580

> <s_m_subgroup_title>
wee1_decoys_glide_SP

> <s_m_subgroupid>
wee1_decoys_glide_SP


$$$$
