ZINC48888664_6166
                    3D
 Schrodinger Suite 2024-2.
 39 41  0  0  1  0            999 V2000
    0.4371   52.2045   30.5825 C   0  0  0  0  0  0
    1.9429   52.4965   30.4115 C   0  0  0  0  0  0
    1.9289   53.8597   29.6790 C   0  0  2  0  0  0
    2.8609   54.4241   29.7295 H   0  0  0  0  0  0
    0.7056   54.5444   30.2693 C   0  0  0  0  0  0
   -0.2103   53.3985   29.8793 C   0  0  1  0  0  0
   -1.2645   53.5075   30.0817 H   0  0  0  0  0  0
   -0.0115   53.2967   28.3729 C   0  0  0  0  0  0
    1.4228   53.5518   28.3182 N   0  0  0  0  0  0
    2.1159   53.4770   27.1710 C   0  0  0  0  0  0
    1.6692   52.9598   26.1458 O   0  0  0  0  0  0
    3.2898   54.1140   27.2241 N   0  0  0  0  0  0
    4.4009   53.8939   26.3259 C   0  0  2  0  0  0
    5.7218   54.3938   26.9186 C   0  0  0  0  0  0
    6.9044   54.0969   26.0027 C   0  0  0  0  0  0
    6.6920   54.6060   24.5669 C   0  0  1  0  0  0
    5.3923   54.0966   23.9295 C   0  0  0  0  0  0
    4.1618   54.2602   24.8383 C   0  0  0  0  0  0
    6.7044   56.0093   24.5814 O   0  0  0  0  0  0
    0.1538   52.1476   31.6350 H   0  0  0  0  0  0
    0.1176   51.2967   30.0817 H   0  0  0  0  0  0
    2.4553   51.7209   29.8385 H   0  0  0  0  0  0
    2.4327   52.5643   31.3844 H   0  0  0  0  0  0
    0.4798   55.4952   29.7895 H   0  0  0  0  0  0
    0.7593   54.7064   31.3480 H   0  0  0  0  0  0
   -0.2933   52.3100   28.0014 H   0  0  0  0  0  0
   -0.5800   54.0837   27.8823 H   0  0  0  0  0  0
    3.4493   54.7625   27.9778 H   0  0  0  0  0  0
    4.5396   52.8173   26.3126 H   0  0  0  0  0  0
    5.6687   55.4708   27.0764 H   0  0  0  0  0  0
    5.9036   53.9396   27.8944 H   0  0  0  0  0  0
    7.0132   53.0143   25.9823 H   0  0  0  0  0  0
    7.8094   54.4967   26.4523 H   0  0  0  0  0  0
    7.5095   54.2711   23.9371 H   0  0  0  0  0  0
    5.5041   53.0256   23.7629 H   0  0  0  0  0  0
    5.2114   54.5570   22.9573 H   0  0  0  0  0  0
    3.3468   53.6735   24.4142 H   0  0  0  0  0  0
    3.8498   55.2967   24.7910 H   0  0  0  0  0  0
    6.5913   56.3150   23.6784 H   0  0  0  0  0  0
  1  6  1  0  0  0
  1  2  1  0  0  0
  1 20  1  0  0  0
  1 21  1  0  0  0
  2  3  1  0  0  0
  2 22  1  0  0  0
  2 23  1  0  0  0
  3  4  1  0  0  0
  3  9  1  0  0  0
  3  5  1  0  0  0
  5  6  1  0  0  0
  5 24  1  0  0  0
  5 25  1  0  0  0
  6  7  1  0  0  0
  6  8  1  0  0  0
  8  9  1  0  0  0
  8 26  1  0  0  0
  8 27  1  0  0  0
  9 10  1  0  0  0
 10 11  2  0  0  0
 10 12  1  0  0  0
 12 13  1  0  0  0
 12 28  1  0  0  0
 13 18  1  0  0  0
 13 14  1  0  0  0
 13 29  1  0  0  0
 14 15  1  0  0  0
 14 30  1  0  0  0
 14 31  1  0  0  0
 15 16  1  0  0  0
 15 32  1  0  0  0
 15 33  1  0  0  0
 16 17  1  0  0  0
 16 19  1  0  0  0
 16 34  1  0  0  0
 17 18  1  0  0  0
 17 35  1  0  0  0
 17 36  1  0  0  0
 18 37  1  0  0  0
 18 38  1  0  0  0
 19 39  1  0  0  0
M  END
> <i_i_glide_confnum>
13

> <i_i_glide_lignum>
6167

> <i_i_glide_posenum>
356

> <i_i_glide_rotatable_bonds>
4

> <i_m_Source_File_Index>
2322

> <b_m_subgroup_collapsed>
0

> <r_i_docking_score>
-4.33677

> <r_i_glide_ecoul>
0.653428

> <r_i_glide_eff_state_penalty>
0

> <r_i_glide_einternal>
1.85035

> <r_i_glide_emodel>
-30.6159

> <r_i_glide_energy>
-22.3274

> <r_i_glide_erotb>
0.91155

> <r_i_glide_esite>
0

> <r_i_glide_evdw>
-22.9809

> <r_i_glide_gscore>
-4.33677

> <r_i_glide_hbond>
0

> <r_i_glide_ligand_efficiency>
-0.255104

> <r_i_glide_ligand_efficiency_ln>
-1.13137

> <r_i_glide_ligand_efficiency_sa>
-0.655945

> <r_i_glide_lipo>
-1.99807

> <r_i_glide_metal>
0

> <r_i_glide_rewards>
-2.19923

> <s_i_glide_gridfile>
wee1_glide-grid

> <s_m_Source_File>
wee1_decoys_glide_SP.sdf

> <s_m_Source_Path>
/Users/zhangxujun/Desktop

> <s_m_entry_id>
2597

> <s_m_entry_name>
wee1_decoys_glide_SP.2322

> <s_m_subgroup_title>
wee1_decoys_glide_SP

> <s_m_subgroupid>
wee1_decoys_glide_SP


$$$$
