ZINC14162302_4227
                    3D
 Schrodinger Suite 2024-2.
 70 75  0  0  1  0            999 V2000
    2.3057   51.3390   22.4272 C   0  0  0  0  0  0
    1.7159   50.1692   23.2298 C   0  0  0  0  0  0
    0.4102   50.4577   23.7087 O   0  0  0  0  0  0
    0.1797   51.2734   24.7655 C   0  0  0  0  0  0
    1.0907   51.8536   25.3685 O   0  0  0  0  0  0
   -1.2773   51.3819   25.1203 C   0  0  0  0  0  0
   -1.6141   51.9632   26.3056 C   0  0  0  0  0  0
   -2.8793   52.1084   26.7553 O   0  0  0  0  0  0
   -3.9405   51.7786   25.9881 C   0  0  0  0  0  0
   -3.8374   51.1827   24.7741 C   0  0  0  0  0  0
   -2.4230   50.8056   24.2094 C   0  0  2  0  0  0
   -2.2985   49.3181   24.0457 C   0  0  0  0  0  0
   -2.3368   48.2789   24.9746 C   0  0  0  0  0  0
   -2.2209   46.9654   24.5256 C   0  0  0  0  0  0
   -2.0407   46.7007   23.1627 C   0  0  0  0  0  0
   -1.9803   47.7408   22.2231 C   0  0  0  0  0  0
   -2.1389   49.0412   22.7063 C   0  0  0  0  0  0
   -2.1770   50.2089   21.9353 N   0  0  0  0  0  0
   -2.2651   51.3100   22.7394 C   0  0  0  0  0  0
   -2.2232   52.4967   22.4101 O   0  0  0  0  0  0
   -2.0362   50.1748   20.4433 C   0  0  0  0  0  0
   -0.6050   50.5510   19.9968 C   0  0  0  0  0  0
   -0.7221   51.0284   18.5515 C   0  0  0  0  0  0
   -2.0452   51.7929   18.5219 C   0  0  0  0  0  0
   -2.9092   51.1926   19.6448 C   0  0  0  0  0  0
   -2.4334   48.7283   19.9667 C   0  0  0  0  0  0
   -1.7392   47.5685   20.7239 C   0  0  2  0  0  0
   -0.6625   47.6564   20.5711 H   0  0  0  0  0  0
   -2.1506   46.1906   20.1661 C   0  0  0  0  0  0
   -2.2844   45.9494   25.4104 F   0  0  0  0  0  0
   -5.0899   50.8217   24.0409 C   0  0  0  0  0  0
   -5.0888   50.1578   23.0048 O   0  0  0  0  0  0
   -6.4352   51.1820   24.7004 C   0  0  0  0  0  0
   -6.3833   52.3901   25.6682 C   0  0  0  0  0  0
   -5.2430   52.1413   26.6918 C   0  0  0  0  0  0
   -7.7224   52.4358   26.4338 C   0  0  0  0  0  0
   -6.1110   53.6953   24.8818 C   0  0  0  0  0  0
   -0.8065   52.4908   27.2816 N   0  0  0  0  0  0
    3.2790   51.0645   22.0195 H   0  0  0  0  0  0
    2.4469   52.2259   23.0463 H   0  0  0  0  0  0
    1.6751   51.6215   21.5869 H   0  0  0  0  0  0
    1.6437   49.2960   22.5805 H   0  0  0  0  0  0
    2.3660   49.8860   24.0607 H   0  0  0  0  0  0
   -2.4590   48.4704   26.0328 H   0  0  0  0  0  0
   -1.9234   45.6782   22.8459 H   0  0  0  0  0  0
   -0.2227   51.3532   20.6261 H   0  0  0  0  0  0
    0.1048   49.7275   20.0822 H   0  0  0  0  0  0
    0.1206   51.6532   18.2522 H   0  0  0  0  0  0
   -0.7571   50.1770   17.8697 H   0  0  0  0  0  0
   -1.8688   52.8553   18.7058 H   0  0  0  0  0  0
   -2.5290   51.7127   17.5458 H   0  0  0  0  0  0
   -3.8015   50.7225   19.2235 H   0  0  0  0  0  0
   -3.2948   51.9928   20.2698 H   0  0  0  0  0  0
   -2.2545   48.6271   18.8960 H   0  0  0  0  0  0
   -3.5118   48.6034   20.0944 H   0  0  0  0  0  0
   -1.5632   45.3857   20.6037 H   0  0  0  0  0  0
   -3.2040   45.9828   20.3527 H   0  0  0  0  0  0
   -1.9931   46.1435   19.0876 H   0  0  0  0  0  0
   -6.7071   50.2959   25.2756 H   0  0  0  0  0  0
   -7.1969   51.2931   23.9288 H   0  0  0  0  0  0
   -5.4634   51.3197   27.3749 H   0  0  0  0  0  0
   -5.1179   53.0461   27.2809 H   0  0  0  0  0  0
   -8.5650   52.5635   25.7529 H   0  0  0  0  0  0
   -7.8998   51.5207   27.0029 H   0  0  0  0  0  0
   -7.7501   53.2683   27.1401 H   0  0  0  0  0  0
   -6.8949   53.8850   24.1469 H   0  0  0  0  0  0
   -6.0896   54.5500   25.5551 H   0  0  0  0  0  0
   -5.1614   53.6870   24.3447 H   0  0  0  0  0  0
    0.1979   52.4693   27.1633 H   0  0  0  0  0  0
   -1.1868   52.8262   28.1522 H   0  0  0  0  0  0
  1  2  1  0  0  0
  1 39  1  0  0  0
  1 40  1  0  0  0
  1 41  1  0  0  0
  2  3  1  0  0  0
  2 42  1  0  0  0
  2 43  1  0  0  0
  3  4  1  0  0  0
  4  5  2  0  0  0
  4  6  1  0  0  0
  6 11  1  0  0  0
  6  7  2  0  0  0
  7  8  1  0  0  0
  7 38  1  0  0  0
  8  9  1  0  0  0
  9 35  1  0  0  0
  9 10  2  0  0  0
 10 11  1  0  0  0
 10 31  1  0  0  0
 11 19  1  0  0  0
 11 12  1  0  0  0
 12 17  2  0  0  0
 12 13  1  0  0  0
 13 14  2  0  0  0
 13 44  1  0  0  0
 14 15  1  0  0  0
 14 30  1  0  0  0
 15 16  2  0  0  0
 15 45  1  0  0  0
 16 27  1  0  0  0
 16 17  1  0  0  0
 17 18  1  0  0  0
 18 19  1  0  0  0
 18 21  1  0  0  0
 19 20  2  0  0  0
 21 25  1  0  0  0
 21 22  1  0  0  0
 21 26  1  0  0  0
 22 23  1  0  0  0
 22 46  1  0  0  0
 22 47  1  0  0  0
 23 24  1  0  0  0
 23 48  1  0  0  0
 23 49  1  0  0  0
 24 25  1  0  0  0
 24 50  1  0  0  0
 24 51  1  0  0  0
 25 52  1  0  0  0
 25 53  1  0  0  0
 26 27  1  0  0  0
 26 54  1  0  0  0
 26 55  1  0  0  0
 27 28  1  0  0  0
 27 29  1  0  0  0
 29 56  1  0  0  0
 29 57  1  0  0  0
 29 58  1  0  0  0
 31 32  2  0  0  0
 31 33  1  0  0  0
 33 34  1  0  0  0
 33 59  1  0  0  0
 33 60  1  0  0  0
 34 35  1  0  0  0
 34 36  1  0  0  0
 34 37  1  0  0  0
 35 61  1  0  0  0
 35 62  1  0  0  0
 36 63  1  0  0  0
 36 64  1  0  0  0
 36 65  1  0  0  0
 37 66  1  0  0  0
 37 67  1  0  0  0
 37 68  1  0  0  0
 38 69  1  0  0  0
 38 70  1  0  0  0
M  END
> <i_i_glide_confnum>
38

> <i_i_glide_lignum>
4228

> <i_i_glide_posenum>
400

> <i_i_glide_rotatable_bonds>
3

> <i_m_Source_File_Index>
5163

> <b_m_subgroup_collapsed>
0

> <r_i_docking_score>
-1.95513

> <r_i_glide_ecoul>
-2.47041

> <r_i_glide_eff_state_penalty>
0

> <r_i_glide_einternal>
0.212086

> <r_i_glide_emodel>
-34.2143

> <r_i_glide_energy>
-30.598

> <r_i_glide_erotb>
0.158313

> <r_i_glide_esite>
-0.115746

> <r_i_glide_evdw>
-28.1275

> <r_i_glide_gscore>
-1.95513

> <r_i_glide_hbond>
0

> <r_i_glide_ligand_efficiency>
-0.0528413

> <r_i_glide_ligand_efficiency_ln>
-0.424021

> <r_i_glide_ligand_efficiency_sa>
-0.176079

> <r_i_glide_lipo>
-0.164057

> <r_i_glide_metal>
0

> <r_i_glide_rewards>
-0.056697

> <s_i_glide_gridfile>
wee1_glide-grid

> <s_m_Source_File>
wee1_decoys_glide_SP.sdf

> <s_m_Source_Path>
/Users/zhangxujun/Desktop

> <s_m_entry_id>
5438

> <s_m_entry_name>
wee1_decoys_glide_SP.5163

> <s_m_subgroup_title>
wee1_decoys_glide_SP

> <s_m_subgroupid>
wee1_decoys_glide_SP


$$$$
