ZINC14470017_722
                    3D
 Schrodinger Suite 2024-2.
 70 75  0  0  1  0            999 V2000
    5.3580   59.5687   14.7583 C   0  0  0  0  0  0
    6.5933   58.5948   16.7481 C   0  0  0  0  0  0
    6.4123   57.9990   18.1602 C   0  0  0  0  0  0
    5.5457   56.8021   18.0659 N   0  0  0  0  0  0
    4.2074   57.0097   17.4615 C   0  0  0  0  0  0
    4.3826   57.5998   16.0474 C   0  0  0  0  0  0
    5.9021   55.6493   18.7034 C   0  0  0  0  0  0
    6.9133   55.5502   19.4031 O   0  0  0  0  0  0
    4.9884   54.4516   18.5642 C   0  0  0  0  0  0
    4.7813   53.9049   17.2908 C   0  0  0  0  0  0
    3.8475   52.8955   17.0989 C   0  0  0  0  0  0
    3.1120   52.4119   18.1753 C   0  0  0  0  0  0
    3.3256   52.8970   19.4689 C   0  0  0  0  0  0
    4.3039   53.9031   19.6710 C   0  0  0  0  0  0
    4.5346   54.4174   20.9747 N   0  0  0  0  0  0
    3.7047   54.0534   22.1354 C   0  0  1  0  0  0
    2.8553   54.7399   22.1494 H   0  0  0  0  0  0
    3.1945   52.6076   21.9394 C   0  0  2  0  0  0
    4.0884   51.9740   21.9126 H   0  0  0  0  0  0
    2.4390   52.4782   20.6332 C   0  0  2  0  0  0
    1.5937   53.1660   20.6125 H   0  0  0  0  0  0
    1.8919   51.0725   20.7703 C   0  0  0  0  0  0
    1.6867   50.8239   22.0811 C   0  0  0  0  0  0
    2.2127   51.9746   22.9283 C   0  0  0  0  0  0
    4.4208   54.2114   23.4793 C   0  0  0  0  0  0
    5.8061   54.0525   23.5913 C   0  0  0  0  0  0
    6.4155   54.0967   24.8406 C   0  0  0  0  0  0
    5.6618   54.2952   25.9978 C   0  0  0  0  0  0
    4.2894   54.5538   25.8680 C   0  0  0  0  0  0
    3.6733   54.4944   24.6219 C   0  0  0  0  0  0
    6.3543   54.1583   27.1894 O   0  0  0  0  0  0
    5.8554   54.6162   28.4524 C   0  0  0  0  0  0
    4.5005   54.0521   28.8878 C   0  0  0  0  0  0
    3.4542   54.8967   29.2817 C   0  0  0  0  0  0
    2.2322   54.3596   29.6787 C   0  0  0  0  0  0
    2.0539   52.9769   29.6819 C   0  0  0  0  0  0
    3.0888   52.1310   29.2908 C   0  0  0  0  0  0
    4.3104   52.6735   28.8988 C   0  0  0  0  0  0
    5.8891   58.8900   14.0899 H   0  0  0  0  0  0
    4.3515   59.7907   14.3994 H   0  0  0  0  0  0
    5.9088   60.4976   14.9171 H   0  0  0  0  0  0
    7.1002   59.5604   16.8219 H   0  0  0  0  0  0
    7.1534   57.9424   16.0740 H   0  0  0  0  0  0
    7.3935   57.7675   18.5777 H   0  0  0  0  0  0
    5.9515   58.7442   18.8104 H   0  0  0  0  0  0
    3.6365   57.6971   18.0798 H   0  0  0  0  0  0
    3.5959   56.1100   17.4039 H   0  0  0  0  0  0
    3.4088   57.8907   15.6485 H   0  0  0  0  0  0
    4.8659   56.9112   15.3506 H   0  0  0  0  0  0
    5.3207   54.2846   16.4327 H   0  0  0  0  0  0
    3.6873   52.4830   16.1129 H   0  0  0  0  0  0
    2.3763   51.6416   17.9988 H   0  0  0  0  0  0
    5.1608   55.1963   21.1178 H   0  0  0  0  0  0
    1.6095   50.4512   19.9328 H   0  0  0  0  0  0
    1.2408   49.9396   22.5126 H   0  0  0  0  0  0
    2.7033   51.6440   23.8397 H   0  0  0  0  0  0
    1.4276   52.6678   23.2327 H   0  0  0  0  0  0
    6.4109   53.8418   22.7212 H   0  0  0  0  0  0
    7.4778   53.9170   24.9118 H   0  0  0  0  0  0
    3.6523   54.7546   26.7075 H   0  0  0  0  0  0
    2.6051   54.6428   24.5506 H   0  0  0  0  0  0
    6.5762   54.3009   29.2062 H   0  0  0  0  0  0
    5.9011   55.6967   28.4626 H   0  0  0  0  0  0
    3.5650   55.9689   29.2815 H   0  0  0  0  0  0
    1.4237   55.0116   29.9778 H   0  0  0  0  0  0
    1.1051   52.5581   29.9858 H   0  0  0  0  0  0
    2.9402   51.0629   29.2809 H   0  0  0  0  0  0
    5.1216   52.0378   28.5844 H   0  0  0  0  0  0
    5.2102   58.8967   16.1382 N   0  3  0  0  0  0
    4.7369   59.5705   16.7354 H   0  0  0  0  0  0
  1 39  1  0  0  0
  1 40  1  0  0  0
  1 41  1  0  0  0
  1 69  1  0  0  0
  2  3  1  0  0  0
  2 42  1  0  0  0
  2 43  1  0  0  0
  2 69  1  0  0  0
  3  4  1  0  0  0
  3 44  1  0  0  0
  3 45  1  0  0  0
  4  5  1  0  0  0
  4  7  1  0  0  0
  5  6  1  0  0  0
  5 46  1  0  0  0
  5 47  1  0  0  0
  6 48  1  0  0  0
  6 49  1  0  0  0
  6 69  1  0  0  0
  7  8  2  0  0  0
  7  9  1  0  0  0
  9 14  2  0  0  0
  9 10  1  0  0  0
 10 11  2  0  0  0
 10 50  1  0  0  0
 11 12  1  0  0  0
 11 51  1  0  0  0
 12 13  2  0  0  0
 12 52  1  0  0  0
 13 20  1  0  0  0
 13 14  1  0  0  0
 14 15  1  0  0  0
 15 16  1  0  0  0
 15 53  1  0  0  0
 16 17  1  0  0  0
 16 18  1  0  0  0
 16 25  1  0  0  0
 18 19  1  0  0  0
 18 24  1  0  0  0
 18 20  1  0  0  0
 20 21  1  0  0  0
 20 22  1  0  0  0
 22 23  2  0  0  0
 22 54  1  0  0  0
 23 24  1  0  0  0
 23 55  1  0  0  0
 24 56  1  0  0  0
 24 57  1  0  0  0
 25 30  2  0  0  0
 25 26  1  0  0  0
 26 27  2  0  0  0
 26 58  1  0  0  0
 27 28  1  0  0  0
 27 59  1  0  0  0
 28 29  2  0  0  0
 28 31  1  0  0  0
 29 30  1  0  0  0
 29 60  1  0  0  0
 30 61  1  0  0  0
 31 32  1  0  0  0
 32 33  1  0  0  0
 32 62  1  0  0  0
 32 63  1  0  0  0
 33 38  2  0  0  0
 33 34  1  0  0  0
 34 35  2  0  0  0
 34 64  1  0  0  0
 35 36  1  0  0  0
 35 65  1  0  0  0
 36 37  2  0  0  0
 36 66  1  0  0  0
 37 38  1  0  0  0
 37 67  1  0  0  0
 38 68  1  0  0  0
 69 70  1  0  0  0
M  CHG  1  69   1
M  END
> <i_i_glide_confnum>
40

> <i_i_glide_lignum>
723

> <i_i_glide_posenum>
104

> <i_i_glide_rotatable_bonds>
6

> <i_m_Source_File_Index>
2147

> <b_m_subgroup_collapsed>
0

> <r_i_docking_score>
-5.89084

> <r_i_glide_ecoul>
-3.68159

> <r_i_glide_eff_state_penalty>
0

> <r_i_glide_einternal>
3.44416

> <r_i_glide_emodel>
-64.5107

> <r_i_glide_energy>
-45.9349

> <r_i_glide_erotb>
0.526772

> <r_i_glide_esite>
-0.0985559

> <r_i_glide_evdw>
-42.2533

> <r_i_glide_gscore>
-5.89084

> <r_i_glide_hbond>
-0.126613

> <r_i_glide_ligand_efficiency>
-0.163634

> <r_i_glide_ligand_efficiency_ln>
-1.28522

> <r_i_glide_ligand_efficiency_sa>
-0.540309

> <r_i_glide_lipo>
-3.18948

> <r_i_glide_metal>
0

> <r_i_glide_rewards>
-0.338055

> <s_i_glide_gridfile>
wee1_glide-grid

> <s_m_Source_File>
wee1_decoys_glide_SP.sdf

> <s_m_Source_Path>
/Users/zhangxujun/Desktop

> <s_m_entry_id>
2422

> <s_m_entry_name>
wee1_decoys_glide_SP.2147

> <s_m_subgroup_title>
wee1_decoys_glide_SP

> <s_m_subgroupid>
wee1_decoys_glide_SP


$$$$
