ZINC46587840_4959
                    3D
 Schrodinger Suite 2024-2.
 57 61  0  0  1  0            999 V2000
    6.6871   57.4201   17.7177 C   0  0  0  0  0  0
    6.4715   56.9150   19.1392 C   0  0  0  0  0  0
    6.7045   57.6701   20.0815 O   0  0  0  0  0  0
    5.9960   55.6617   19.2634 N   0  0  0  0  0  0
    5.7007   54.9734   20.4500 C   0  0  0  0  0  0
    4.7040   53.9989   20.3731 C   0  0  0  0  0  0
    4.3473   53.2708   21.5039 C   0  0  0  0  0  0
    4.9923   53.5115   22.7144 C   0  0  0  0  0  0
    5.9968   54.4792   22.8166 C   0  0  0  0  0  0
    6.3594   55.1961   21.6729 C   0  0  0  0  0  0
    6.7040   54.7017   24.0106 N   0  0  0  0  0  0
    6.2741   54.5676   25.3142 C   0  0  0  0  0  0
    7.1020   54.4968   26.3215 N   0  0  0  0  0  0
    6.4649   54.3293   27.5428 N   0  0  0  0  0  0
    5.1578   54.3091   27.4576 C   0  0  0  0  0  0
    4.5980   54.4966   25.8108 S   0  0  0  0  0  0
    4.1247   54.1023   28.8821 S   0  0  0  0  0  0
    2.4298   54.2258   28.2154 C   0  0  0  0  0  0
    1.8422   52.8829   27.7673 C   0  0  0  0  0  0
    1.9347   51.9042   28.5094 O   0  0  0  0  0  0
    1.2664   52.8770   26.5458 N   0  0  0  0  0  0
    0.7049   51.7947   25.8441 C   0  0  0  0  0  0
    0.2304   50.6099   26.4563 C   0  0  0  0  0  0
   -0.2309   49.5353   25.6817 C   0  0  0  0  0  0
   -0.2336   49.6924   24.3009 C   0  0  0  0  0  0
    0.1974   50.8413   23.7080 C   0  0  0  0  0  0
    0.6765   51.9174   24.4448 C   0  0  0  0  0  0
    0.1225   50.6943   22.3600 O   0  0  0  0  0  0
   -0.6567   49.5421   22.1318 C   0  0  0  0  0  0
   -0.5890   48.8073   23.3320 O   0  0  0  0  0  0
   -0.1512   48.7282   20.9458 C   0  0  0  0  0  0
   -0.7548   49.4644   19.7527 C   0  0  0  0  0  0
   -2.1172   49.9532   20.2255 C   0  0  0  0  0  0
   -2.1093   49.8822   21.7595 C   0  0  0  0  0  0
    6.1444   58.3550   17.5683 H   0  0  0  0  0  0
    7.7463   57.6106   17.5467 H   0  0  0  0  0  0
    6.3423   56.7032   16.9715 H   0  0  0  0  0  0
    5.7328   55.1872   18.4132 H   0  0  0  0  0  0
    4.1922   53.8030   19.4411 H   0  0  0  0  0  0
    3.5786   52.5144   21.4376 H   0  0  0  0  0  0
    4.7295   52.9069   23.5648 H   0  0  0  0  0  0
    7.1601   55.9173   21.7413 H   0  0  0  0  0  0
    7.6508   55.0243   23.8453 H   0  0  0  0  0  0
    2.3753   54.9885   27.4414 H   0  0  0  0  0  0
    1.7940   54.5808   29.0260 H   0  0  0  0  0  0
    1.3320   53.7309   26.0151 H   0  0  0  0  0  0
    0.2212   50.4967   27.5300 H   0  0  0  0  0  0
   -0.5646   48.6227   26.1569 H   0  0  0  0  0  0
    1.0436   52.8037   23.9485 H   0  0  0  0  0  0
   -0.4930   47.6967   21.0432 H   0  0  0  0  0  0
    0.9394   48.7105   20.9390 H   0  0  0  0  0  0
   -0.8249   48.8252   18.8716 H   0  0  0  0  0  0
   -0.1227   50.3131   19.4839 H   0  0  0  0  0  0
   -2.9160   49.3278   19.8242 H   0  0  0  0  0  0
   -2.3068   50.9693   19.8771 H   0  0  0  0  0  0
   -2.4096   50.8165   22.2350 H   0  0  0  0  0  0
   -2.7684   49.0987   22.1365 H   0  0  0  0  0  0
  1  2  1  0  0  0
  1 35  1  0  0  0
  1 36  1  0  0  0
  1 37  1  0  0  0
  2  3  2  0  0  0
  2  4  1  0  0  0
  4  5  1  0  0  0
  4 38  1  0  0  0
  5 10  2  0  0  0
  5  6  1  0  0  0
  6  7  2  0  0  0
  6 39  1  0  0  0
  7  8  1  0  0  0
  7 40  1  0  0  0
  8  9  2  0  0  0
  8 41  1  0  0  0
  9 10  1  0  0  0
  9 11  1  0  0  0
 10 42  1  0  0  0
 11 12  1  0  0  0
 11 43  1  0  0  0
 12 16  1  0  0  0
 12 13  2  0  0  0
 13 14  1  0  0  0
 14 15  2  0  0  0
 15 16  1  0  0  0
 15 17  1  0  0  0
 17 18  1  0  0  0
 18 19  1  0  0  0
 18 44  1  0  0  0
 18 45  1  0  0  0
 19 20  2  0  0  0
 19 21  1  0  0  0
 21 22  1  0  0  0
 21 46  1  0  0  0
 22 27  2  0  0  0
 22 23  1  0  0  0
 23 24  2  0  0  0
 23 47  1  0  0  0
 24 25  1  0  0  0
 24 48  1  0  0  0
 25 30  1  0  0  0
 25 26  2  0  0  0
 26 27  1  0  0  0
 26 28  1  0  0  0
 27 49  1  0  0  0
 28 29  1  0  0  0
 29 34  1  0  0  0
 29 30  1  0  0  0
 29 31  1  0  0  0
 31 32  1  0  0  0
 31 50  1  0  0  0
 31 51  1  0  0  0
 32 33  1  0  0  0
 32 52  1  0  0  0
 32 53  1  0  0  0
 33 34  1  0  0  0
 33 54  1  0  0  0
 33 55  1  0  0  0
 34 56  1  0  0  0
 34 57  1  0  0  0
M  END
> <i_i_glide_confnum>
154

> <i_i_glide_lignum>
4960

> <i_i_glide_posenum>
260

> <i_i_glide_rotatable_bonds>
9

> <i_m_Source_File_Index>
2826

> <b_m_subgroup_collapsed>
0

> <r_i_docking_score>
-6.82711

> <r_i_glide_ecoul>
-10.5416

> <r_i_glide_eff_state_penalty>
0

> <r_i_glide_einternal>
4.98603

> <r_i_glide_emodel>
-81.5898

> <r_i_glide_energy>
-58.6662

> <r_i_glide_erotb>
0.576748

> <r_i_glide_esite>
0

> <r_i_glide_evdw>
-48.1246

> <r_i_glide_gscore>
-6.82711

> <r_i_glide_hbond>
-0.608

> <r_i_glide_ligand_efficiency>
-0.200797

> <r_i_glide_ligand_efficiency_ln>
-1.5083

> <r_i_glide_ligand_efficiency_sa>
-0.650505

> <r_i_glide_lipo>
-2.52454

> <r_i_glide_metal>
0

> <r_i_glide_rewards>
-0.283852

> <s_i_glide_gridfile>
wee1_glide-grid

> <s_m_Source_File>
wee1_decoys_glide_SP.sdf

> <s_m_Source_Path>
/Users/zhangxujun/Desktop

> <s_m_entry_id>
3101

> <s_m_entry_name>
wee1_decoys_glide_SP.2826

> <s_m_subgroup_title>
wee1_decoys_glide_SP

> <s_m_subgroupid>
wee1_decoys_glide_SP


$$$$
