ZINC09171853_4161
                    3D
 Schrodinger Suite 2024-2.
 63 66  0  0  1  0            999 V2000
    0.1476   51.7403   28.4143 C   0  0  0  0  0  0
    1.3125   52.5587   27.8853 C   0  0  0  0  0  0
    2.3201   52.9946   28.7459 C   0  0  0  0  0  0
    3.3919   53.7513   28.2605 C   0  0  0  0  0  0
    3.4572   54.0739   26.8943 C   0  0  0  0  0  0
    2.4302   53.6554   26.0308 C   0  0  0  0  0  0
    1.3695   52.8961   26.5326 C   0  0  0  0  0  0
    2.4235   54.0325   24.5568 C   0  0  0  0  0  0
    4.5233   54.8020   26.4127 O   0  0  0  0  0  0
    5.5884   54.0222   25.8616 C   0  0  0  0  0  0
    6.0342   54.6649   24.5413 C   0  0  0  0  0  0
    6.7045   55.6965   24.5912 O   0  0  0  0  0  0
    5.6186   54.0484   23.4075 N   0  0  0  0  0  0
    5.7898   54.4472   22.0771 C   0  0  0  0  0  0
    5.1009   53.9298   20.9554 C   0  0  0  0  0  0
    5.4493   54.6092   19.7541 C   0  0  0  0  0  0
    6.4171   55.6030   19.9652 C   0  0  0  0  0  0
    6.9129   55.6962   21.6137 S   0  0  0  0  0  0
    7.0678   56.4546   18.8837 C   0  0  0  0  0  0
    6.2470   56.3466   17.5831 C   0  0  0  0  0  0
    5.8698   54.8893   17.2673 C   0  0  0  0  0  0
    4.9406   54.2834   18.3417 C   0  0  0  0  0  0
    4.2153   52.7822   21.0162 C   0  0  0  0  0  0
    4.5041   51.7905   21.6817 O   0  0  0  0  0  0
    3.0714   52.8967   20.3189 N   0  0  0  0  0  0
    2.0133   51.8898   20.2564 C   0  0  1  0  0  0
    2.4060   50.8687   20.2382 H   0  0  0  0  0  0
    1.0835   52.0210   21.4894 C   0  0  0  0  0  0
   -0.1744   51.1770   21.2552 C   0  0  0  0  0  0
   -0.5638   51.4225   19.4431 S   0  0  0  0  0  0
   -0.7618   50.1083   18.8265 O   0  0  0  0  0  0
   -1.5726   52.4772   19.2838 O   0  0  0  0  0  0
    1.1348   52.1008   19.0081 C   0  0  0  0  0  0
    4.4757   54.2096   29.2210 C   0  0  0  0  0  0
    0.2209   50.7069   28.0721 H   0  0  0  0  0  0
   -0.7956   52.1397   28.0431 H   0  0  0  0  0  0
    0.0992   51.7533   29.5056 H   0  0  0  0  0  0
    2.2652   52.7415   29.7949 H   0  0  0  0  0  0
    0.5847   52.5656   25.8688 H   0  0  0  0  0  0
    2.8362   53.2265   23.9544 H   0  0  0  0  0  0
    1.4074   54.2303   24.2131 H   0  0  0  0  0  0
    2.9861   54.9475   24.3727 H   0  0  0  0  0  0
    6.4295   54.0169   26.5569 H   0  0  0  0  0  0
    5.3129   52.9800   25.7119 H   0  0  0  0  0  0
    5.0233   53.2412   23.5250 H   0  0  0  0  0  0
    7.1499   57.4991   19.1881 H   0  0  0  0  0  0
    8.0819   56.0986   18.6975 H   0  0  0  0  0  0
    5.3412   56.9521   17.6665 H   0  0  0  0  0  0
    6.8144   56.7726   16.7545 H   0  0  0  0  0  0
    5.3828   54.8343   16.2927 H   0  0  0  0  0  0
    6.7757   54.2864   17.1790 H   0  0  0  0  0  0
    4.8601   53.2059   18.1835 H   0  0  0  0  0  0
    3.9329   54.6801   18.2175 H   0  0  0  0  0  0
    2.8305   53.8087   19.9521 H   0  0  0  0  0  0
    1.6016   51.7188   22.4008 H   0  0  0  0  0  0
    0.8085   53.0674   21.6419 H   0  0  0  0  0  0
    0.1064   50.1295   21.3756 H   0  0  0  0  0  0
   -1.0507   51.3666   21.8732 H   0  0  0  0  0  0
    0.9457   53.1706   18.9114 H   0  0  0  0  0  0
    1.5074   51.7467   18.0474 H   0  0  0  0  0  0
    5.4518   53.8552   28.8853 H   0  0  0  0  0  0
    4.5170   55.2966   29.2544 H   0  0  0  0  0  0
    4.3046   53.8403   30.2333 H   0  0  0  0  0  0
  1  2  1  0  0  0
  1 35  1  0  0  0
  1 36  1  0  0  0
  1 37  1  0  0  0
  2  7  2  0  0  0
  2  3  1  0  0  0
  3  4  2  0  0  0
  3 38  1  0  0  0
  4  5  1  0  0  0
  4 34  1  0  0  0
  5  6  2  0  0  0
  5  9  1  0  0  0
  6  7  1  0  0  0
  6  8  1  0  0  0
  7 39  1  0  0  0
  8 40  1  0  0  0
  8 41  1  0  0  0
  8 42  1  0  0  0
  9 10  1  0  0  0
 10 11  1  0  0  0
 10 43  1  0  0  0
 10 44  1  0  0  0
 11 12  2  0  0  0
 11 13  1  0  0  0
 13 14  1  0  0  0
 13 45  1  0  0  0
 14 18  1  0  0  0
 14 15  2  0  0  0
 15 16  1  0  0  0
 15 23  1  0  0  0
 16 22  1  0  0  0
 16 17  2  0  0  0
 17 18  1  0  0  0
 17 19  1  0  0  0
 19 20  1  0  0  0
 19 46  1  0  0  0
 19 47  1  0  0  0
 20 21  1  0  0  0
 20 48  1  0  0  0
 20 49  1  0  0  0
 21 22  1  0  0  0
 21 50  1  0  0  0
 21 51  1  0  0  0
 22 52  1  0  0  0
 22 53  1  0  0  0
 23 24  2  0  0  0
 23 25  1  0  0  0
 25 26  1  0  0  0
 25 54  1  0  0  0
 26 27  1  0  0  0
 26 33  1  0  0  0
 26 28  1  0  0  0
 28 29  1  0  0  0
 28 55  1  0  0  0
 28 56  1  0  0  0
 29 30  1  0  0  0
 29 57  1  0  0  0
 29 58  1  0  0  0
 30 31  2  0  0  0
 30 32  2  0  0  0
 30 33  1  0  0  0
 33 59  1  0  0  0
 33 60  1  0  0  0
 34 61  1  0  0  0
 34 62  1  0  0  0
 34 63  1  0  0  0
M  END
> <i_i_glide_confnum>
151

> <i_i_glide_lignum>
4162

> <i_i_glide_posenum>
216

> <i_i_glide_rotatable_bonds>
8

> <i_m_Source_File_Index>
1639

> <b_m_subgroup_collapsed>
0

> <r_i_docking_score>
-6.14846

> <r_i_glide_ecoul>
-7.55089

> <r_i_glide_eff_state_penalty>
0

> <r_i_glide_einternal>
8.55507

> <r_i_glide_emodel>
-68.173

> <r_i_glide_energy>
-52.4888

> <r_i_glide_erotb>
0.676355

> <r_i_glide_esite>
-0.0495999

> <r_i_glide_evdw>
-44.9379

> <r_i_glide_gscore>
-6.14846

> <r_i_glide_hbond>
-0.264026

> <r_i_glide_ligand_efficiency>
-0.186317

> <r_i_glide_ligand_efficiency_ln>
-1.36739

> <r_i_glide_ligand_efficiency_sa>
-0.597618

> <r_i_glide_lipo>
-2.51209

> <r_i_glide_metal>
0

> <r_i_glide_rewards>
-0.619574

> <s_i_glide_gridfile>
wee1_glide-grid

> <s_m_Source_File>
wee1_decoys_glide_SP.sdf

> <s_m_Source_Path>
/Users/zhangxujun/Desktop

> <s_m_entry_id>
1914

> <s_m_entry_name>
wee1_decoys_glide_SP.1639

> <s_m_subgroup_title>
wee1_decoys_glide_SP

> <s_m_subgroupid>
wee1_decoys_glide_SP


$$$$
