ZINC04269869_2539
                    3D
 Schrodinger Suite 2024-2.
 44 46  0  0  1  0            999 V2000
   -1.0089   49.1816   24.4574 C   0  0  0  0  0  0
    0.3524   49.6613   23.9417 C   0  0  0  0  0  0
    0.2490   49.9916   22.5597 O   0  0  0  0  0  0
    1.3315   49.9283   21.7545 C   0  0  0  0  0  0
    2.4293   49.4775   22.0817 O   0  0  0  0  0  0
    1.0474   50.4953   20.3408 C   0  0  1  0  0  0
   -0.0266   50.3599   20.2065 H   0  0  0  0  0  0
    1.2753   52.0490   20.3090 C   0  0  2  0  0  0
    0.5030   52.5306   20.9042 H   0  0  0  0  0  0
    0.9407   52.4968   18.9514 N   0  0  0  0  0  0
    1.0758   51.7924   17.7983 C   0  0  0  0  0  0
    0.8387   52.5039   16.3270 S   0  0  0  0  0  0
    1.4264   50.4833   17.9065 N   0  0  0  0  0  0
    1.7051   49.7092   19.1301 C   0  0  2  0  0  0
    1.1822   48.2447   18.9986 C   0  0  0  0  0  0
    1.6862   47.6299   17.9260 F   0  0  0  0  0  0
    1.4858   47.4847   20.0505 F   0  0  0  0  0  0
   -0.1464   48.2159   18.8692 F   0  0  0  0  0  0
    3.1044   49.6493   19.2818 O   0  0  0  0  0  0
    2.6331   52.5578   20.8495 C   0  0  0  0  0  0
    3.7371   52.6155   19.9922 C   0  0  0  0  0  0
    4.9504   53.1459   20.4003 C   0  0  0  0  0  0
    5.1036   53.6442   21.6859 C   0  0  0  0  0  0
    4.0260   53.6130   22.5986 C   0  0  0  0  0  0
    2.7633   53.0689   22.1909 C   0  0  0  0  0  0
    1.7062   53.0723   23.1504 C   0  0  0  0  0  0
    1.8981   53.5786   24.4322 C   0  0  0  0  0  0
    3.1285   54.0946   24.8122 C   0  0  0  0  0  0
    4.1882   54.1110   23.9144 C   0  0  0  0  0  0
   -0.9558   48.9321   25.5188 H   0  0  0  0  0  0
   -1.3355   48.2880   23.9243 H   0  0  0  0  0  0
   -1.7740   49.9491   24.3349 H   0  0  0  0  0  0
    0.6728   50.5450   24.4950 H   0  0  0  0  0  0
    1.1041   48.8896   24.1183 H   0  0  0  0  0  0
    0.7618   53.4807   18.8091 H   0  0  0  0  0  0
    1.6682   50.0613   17.0198 H   0  0  0  0  0  0
    3.5494   49.6970   18.4180 H   0  0  0  0  0  0
    3.6643   52.2449   18.9800 H   0  0  0  0  0  0
    5.7759   53.1721   19.7045 H   0  0  0  0  0  0
    6.0503   54.0605   21.9958 H   0  0  0  0  0  0
    0.7369   52.6670   22.9115 H   0  0  0  0  0  0
    1.0843   53.5609   25.1414 H   0  0  0  0  0  0
    3.2650   54.4751   25.8145 H   0  0  0  0  0  0
    5.1431   54.5145   24.2176 H   0  0  0  0  0  0
  1  2  1  0  0  0
  1 30  1  0  0  0
  1 31  1  0  0  0
  1 32  1  0  0  0
  2  3  1  0  0  0
  2 33  1  0  0  0
  2 34  1  0  0  0
  3  4  1  0  0  0
  4  5  2  0  0  0
  4  6  1  0  0  0
  6  7  1  0  0  0
  6 14  1  0  0  0
  6  8  1  0  0  0
  8  9  1  0  0  0
  8 10  1  0  0  0
  8 20  1  0  0  0
 10 11  1  0  0  0
 10 35  1  0  0  0
 11 12  2  0  0  0
 11 13  1  0  0  0
 13 14  1  0  0  0
 13 36  1  0  0  0
 14 15  1  0  0  0
 14 19  1  0  0  0
 15 16  1  0  0  0
 15 17  1  0  0  0
 15 18  1  0  0  0
 19 37  1  0  0  0
 20 25  2  0  0  0
 20 21  1  0  0  0
 21 22  2  0  0  0
 21 38  1  0  0  0
 22 23  1  0  0  0
 22 39  1  0  0  0
 23 24  2  0  0  0
 23 40  1  0  0  0
 24 29  1  0  0  0
 24 25  1  0  0  0
 25 26  1  0  0  0
 26 27  2  0  0  0
 26 41  1  0  0  0
 27 28  1  0  0  0
 27 42  1  0  0  0
 28 29  2  0  0  0
 28 43  1  0  0  0
 29 44  1  0  0  0
M  END
> <i_i_glide_confnum>
9

> <i_i_glide_lignum>
2540

> <i_i_glide_posenum>
373

> <i_i_glide_rotatable_bonds>
6

> <i_m_Source_File_Index>
3881

> <b_m_subgroup_collapsed>
0

> <r_i_docking_score>
-4.19165

> <r_i_glide_ecoul>
-5.07759

> <r_i_glide_eff_state_penalty>
0

> <r_i_glide_einternal>
2.76905

> <r_i_glide_emodel>
-40.6861

> <r_i_glide_energy>
-31.8262

> <r_i_glide_erotb>
0.37016

> <r_i_glide_esite>
-0.261717

> <r_i_glide_evdw>
-26.7486

> <r_i_glide_gscore>
-4.19165

> <r_i_glide_hbond>
-0.0906039

> <r_i_glide_ligand_efficiency>
-0.155246

> <r_i_glide_ligand_efficiency_ln>
-0.975747

> <r_i_glide_ligand_efficiency_sa>
-0.465739

> <r_i_glide_lipo>
-1.28568

> <r_i_glide_metal>
0

> <r_i_glide_rewards>
-0.824741

> <s_i_glide_gridfile>
wee1_glide-grid

> <s_m_Source_File>
wee1_decoys_glide_SP.sdf

> <s_m_Source_Path>
/Users/zhangxujun/Desktop

> <s_m_entry_id>
4156

> <s_m_entry_name>
wee1_decoys_glide_SP.3881

> <s_m_subgroup_title>
wee1_decoys_glide_SP

> <s_m_subgroupid>
wee1_decoys_glide_SP


$$$$
