ZINC14276621_3163
                    3D
 Schrodinger Suite 2024-2.
 66 69  0  0  1  0            999 V2000
    1.1045   52.4965   31.4112 C   0  0  0  0  0  0
    1.3928   52.9936   29.9910 C   0  0  0  0  0  0
    0.3980   54.0967   29.6015 C   0  0  0  0  0  0
    2.7357   53.4891   29.9596 O   0  0  0  0  0  0
    3.3810   53.7059   28.7512 C   0  0  0  0  0  0
    2.8357   53.4235   27.4903 C   0  0  0  0  0  0
    3.5501   53.7054   26.3273 C   0  0  0  0  0  0
    4.8387   54.2636   26.3928 C   0  0  0  0  0  0
    5.3916   54.5013   27.6594 C   0  0  0  0  0  0
    4.6642   54.2439   28.8181 C   0  0  0  0  0  0
    5.6291   54.6381   25.1462 C   0  0  0  0  0  0
    6.7045   55.2316   25.2707 O   0  0  0  0  0  0
    5.0678   54.2823   23.9575 N   0  0  0  0  0  0
    5.4170   54.4882   22.6415 C   0  0  0  0  0  0
    6.7825   55.2967   22.0817 S   0  0  0  0  0  0
    4.4913   53.9043   21.8169 N   0  0  0  0  0  0
    4.3531   53.8206   20.4133 C   0  0  0  0  0  0
    4.6900   54.8507   19.5253 C   0  0  0  0  0  0
    4.4298   54.7172   18.1660 C   0  0  0  0  0  0
    3.8361   53.5560   17.6552 C   0  0  0  0  0  0
    3.5042   52.5323   18.5538 C   0  0  0  0  0  0
    3.7604   52.6605   19.9166 C   0  0  0  0  0  0
    3.5322   53.4405   16.2975 N   0  0  0  0  0  0
    3.5690   54.5875   15.3677 C   0  0  0  0  0  0
    3.0825   54.3257   13.9175 C   0  0  0  0  0  0
    2.0815   53.2472   13.9314 N   0  0  0  0  0  0
    2.5423   51.9538   14.4818 C   0  0  0  0  0  0
    3.6371   52.1694   15.5629 C   0  0  0  0  0  0
    0.9831   53.3451   13.1302 C   0  0  0  0  0  0
    0.8072   54.2846   12.3497 O   0  0  0  0  0  0
   -0.0834   52.2761   13.2027 C   0  0  0  0  0  0
   -0.5881   51.7229   12.0185 C   0  0  0  0  0  0
   -1.5910   50.7578   12.0666 C   0  0  0  0  0  0
   -2.1001   50.3525   13.2965 C   0  0  0  0  0  0
   -1.6240   50.9105   14.4803 C   0  0  0  0  0  0
   -0.6235   51.8771   14.4329 C   0  0  0  0  0  0
    0.1214   52.0255   31.4649 H   0  0  0  0  0  0
    1.1044   53.3053   32.1402 H   0  0  0  0  0  0
    1.8394   51.7587   31.7333 H   0  0  0  0  0  0
    1.2878   52.1354   29.3257 H   0  0  0  0  0  0
   -0.6256   53.7299   29.6551 H   0  0  0  0  0  0
    0.4775   54.9494   30.2749 H   0  0  0  0  0  0
    0.5584   54.4665   28.5908 H   0  0  0  0  0  0
    1.8515   52.9964   27.3854 H   0  0  0  0  0  0
    3.0697   53.4924   25.3836 H   0  0  0  0  0  0
    6.3795   54.9297   27.7642 H   0  0  0  0  0  0
    5.1004   54.4889   29.7737 H   0  0  0  0  0  0
    4.1981   53.7892   24.0750 H   0  0  0  0  0  0
    3.7862   53.3610   22.2921 H   0  0  0  0  0  0
    5.1088   55.7815   19.8679 H   0  0  0  0  0  0
    4.6884   55.5394   17.5165 H   0  0  0  0  0  0
    3.0361   51.6228   18.2074 H   0  0  0  0  0  0
    3.4840   51.8521   20.5779 H   0  0  0  0  0  0
    2.8868   55.3222   15.7958 H   0  0  0  0  0  0
    4.5830   54.9840   15.3103 H   0  0  0  0  0  0
    2.7888   55.2405   13.4012 H   0  0  0  0  0  0
    3.9220   53.9202   13.3510 H   0  0  0  0  0  0
    2.9393   51.2801   13.7225 H   0  0  0  0  0  0
    1.7355   51.4993   15.0499 H   0  0  0  0  0  0
    4.6134   52.2146   15.0771 H   0  0  0  0  0  0
    3.6843   51.3059   16.2235 H   0  0  0  0  0  0
   -0.2012   52.0344   11.0588 H   0  0  0  0  0  0
   -1.9728   50.3284   11.1524 H   0  0  0  0  0  0
   -2.8775   49.6040   13.3331 H   0  0  0  0  0  0
   -2.0313   50.5976   15.4300 H   0  0  0  0  0  0
   -0.2767   52.3180   15.3576 H   0  0  0  0  0  0
  1  2  1  0  0  0
  1 37  1  0  0  0
  1 38  1  0  0  0
  1 39  1  0  0  0
  2  3  1  0  0  0
  2  4  1  0  0  0
  2 40  1  0  0  0
  3 41  1  0  0  0
  3 42  1  0  0  0
  3 43  1  0  0  0
  4  5  1  0  0  0
  5 10  2  0  0  0
  5  6  1  0  0  0
  6  7  2  0  0  0
  6 44  1  0  0  0
  7  8  1  0  0  0
  7 45  1  0  0  0
  8  9  2  0  0  0
  8 11  1  0  0  0
  9 10  1  0  0  0
  9 46  1  0  0  0
 10 47  1  0  0  0
 11 12  2  0  0  0
 11 13  1  0  0  0
 13 14  1  0  0  0
 13 48  1  0  0  0
 14 15  2  0  0  0
 14 16  1  0  0  0
 16 17  1  0  0  0
 16 49  1  0  0  0
 17 22  2  0  0  0
 17 18  1  0  0  0
 18 19  2  0  0  0
 18 50  1  0  0  0
 19 20  1  0  0  0
 19 51  1  0  0  0
 20 21  2  0  0  0
 20 23  1  0  0  0
 21 22  1  0  0  0
 21 52  1  0  0  0
 22 53  1  0  0  0
 23 28  1  0  0  0
 23 24  1  0  0  0
 24 25  1  0  0  0
 24 54  1  0  0  0
 24 55  1  0  0  0
 25 26  1  0  0  0
 25 56  1  0  0  0
 25 57  1  0  0  0
 26 27  1  0  0  0
 26 29  1  0  0  0
 27 28  1  0  0  0
 27 58  1  0  0  0
 27 59  1  0  0  0
 28 60  1  0  0  0
 28 61  1  0  0  0
 29 30  2  0  0  0
 29 31  1  0  0  0
 31 36  2  0  0  0
 31 32  1  0  0  0
 32 33  2  0  0  0
 32 62  1  0  0  0
 33 34  1  0  0  0
 33 63  1  0  0  0
 34 35  2  0  0  0
 34 64  1  0  0  0
 35 36  1  0  0  0
 35 65  1  0  0  0
 36 66  1  0  0  0
M  END
> <i_i_glide_confnum>
264

> <i_i_glide_lignum>
3164

> <i_i_glide_posenum>
392

> <i_i_glide_rotatable_bonds>
10

> <i_m_Source_File_Index>
1480

> <b_m_subgroup_collapsed>
0

> <r_i_docking_score>
-4.89555

> <r_i_glide_ecoul>
-3.96888

> <r_i_glide_eff_state_penalty>
0

> <r_i_glide_einternal>
1.97707

> <r_i_glide_emodel>
-57.396

> <r_i_glide_energy>
-43.5485

> <r_i_glide_erotb>
0.727966

> <r_i_glide_esite>
-0.0176788

> <r_i_glide_evdw>
-39.5797

> <r_i_glide_gscore>
-4.89555

> <r_i_glide_hbond>
-0.451713

> <r_i_glide_ligand_efficiency>
-0.135988

> <r_i_glide_ligand_efficiency_ln>
-1.06808

> <r_i_glide_ligand_efficiency_sa>
-0.449021

> <r_i_glide_lipo>
-1.83525

> <r_i_glide_metal>
0

> <r_i_glide_rewards>
-0.744563

> <s_i_glide_gridfile>
wee1_glide-grid

> <s_m_Source_File>
wee1_decoys_glide_SP.sdf

> <s_m_Source_Path>
/Users/zhangxujun/Desktop

> <s_m_entry_id>
1755

> <s_m_entry_name>
wee1_decoys_glide_SP.1480

> <s_m_subgroup_title>
wee1_decoys_glide_SP

> <s_m_subgroupid>
wee1_decoys_glide_SP


$$$$
