ZINC65266349_243
                    3D
 Schrodinger Suite 2024-2.
 57 61  0  0  1  0            999 V2000
    4.0877   52.6711   28.9481 C   0  0  0  0  0  0
    2.6559   52.6363   29.4728 C   0  0  0  0  0  0
    2.4782   52.4967   30.8534 C   0  0  0  0  0  0
    1.2016   52.4954   31.4087 C   0  0  0  0  0  0
    0.0889   52.5963   30.5857 C   0  0  0  0  0  0
    0.2455   52.7125   29.2092 C   0  0  0  0  0  0
    1.5230   52.7221   28.6270 C   0  0  0  0  0  0
    1.6458   52.8274   27.1200 C   0  0  0  0  0  0
    2.3589   53.7044   26.6329 O   0  0  0  0  0  0
    0.9814   51.9241   26.3491 N   0  0  0  0  0  0
    0.2713   50.7505   26.8672 C   0  0  0  0  0  0
    0.2918   49.7847   25.6904 C   0  0  0  0  0  0
    0.4075   50.6269   24.4137 C   0  0  2  0  0  0
    1.1438   51.8963   24.8894 C   0  0  0  0  0  0
   -0.9603   51.0863   23.8824 C   0  0  0  0  0  0
   -1.0786   51.3820   22.5810 N   0  0  0  0  0  0
   -0.0403   51.1666   21.6622 C   0  0  0  0  0  0
    1.0440   50.3796   22.0515 C   0  0  0  0  0  0
    2.0846   50.1760   21.1406 C   0  0  0  0  0  0
    1.9907   50.7270   19.8593 C   0  0  0  0  0  0
    0.8540   51.4776   19.5395 C   0  0  0  0  0  0
   -0.1601   51.7003   20.4189 N   0  0  0  0  0  0
    1.1232   49.8842   23.3613 N   0  0  0  0  0  0
   -1.9915   51.2702   24.7174 N   0  3  0  0  0  0
   -3.3255   51.8057   24.4067 C   0  0  0  0  0  0
   -4.1421   51.9102   25.7171 C   0  0  0  0  0  0
   -4.3298   53.4104   25.9813 C   0  0  0  0  0  0
   -4.2953   54.0403   24.5907 C   0  0  0  0  0  0
   -3.1914   53.2520   23.8845 C   0  0  0  0  0  0
    4.3898   53.6965   28.7336 H   0  0  0  0  0  0
    4.7982   52.2330   29.6496 H   0  0  0  0  0  0
    4.1803   52.0975   28.0310 H   0  0  0  0  0  0
    3.3323   52.4092   31.5092 H   0  0  0  0  0  0
    1.0652   52.3977   32.4770 H   0  0  0  0  0  0
   -0.8954   52.5668   31.0262 H   0  0  0  0  0  0
   -0.6411   52.7890   28.5973 H   0  0  0  0  0  0
    0.8105   50.2776   27.6820 H   0  0  0  0  0  0
   -0.7638   50.9709   27.1283 H   0  0  0  0  0  0
    1.1642   49.1359   25.7986 H   0  0  0  0  0  0
   -0.5626   49.1077   25.6928 H   0  0  0  0  0  0
    0.7190   52.7825   24.4152 H   0  0  0  0  0  0
    2.2017   51.8145   24.6302 H   0  0  0  0  0  0
    2.9529   49.5945   21.4116 H   0  0  0  0  0  0
    2.7811   50.5734   19.1339 H   0  0  0  0  0  0
    0.7495   51.9213   18.5595 H   0  0  0  0  0  0
    1.9554   49.3852   23.6521 H   0  0  0  0  0  0
   -1.8161   51.0422   25.6858 H   0  0  0  0  0  0
   -3.8563   51.1720   23.6935 H   0  0  0  0  0  0
   -5.1196   51.4464   25.5660 H   0  0  0  0  0  0
   -3.6934   51.4038   26.5758 H   0  0  0  0  0  0
   -5.2550   53.6256   26.5154 H   0  0  0  0  0  0
   -3.5005   53.7977   26.5759 H   0  0  0  0  0  0
   -5.2554   53.8975   24.0919 H   0  0  0  0  0  0
   -4.0961   55.1141   24.6165 H   0  0  0  0  0  0
   -2.2254   53.6932   24.1427 H   0  0  0  0  0  0
   -3.2917   53.2989   22.8051 H   0  0  0  0  0  0
   -1.9583   51.7677   22.2745 H   0  0  0  0  0  0
  1  2  1  0  0  0
  1 30  1  0  0  0
  1 31  1  0  0  0
  1 32  1  0  0  0
  2  7  2  0  0  0
  2  3  1  0  0  0
  3  4  2  0  0  0
  3 33  1  0  0  0
  4  5  1  0  0  0
  4 34  1  0  0  0
  5  6  2  0  0  0
  5 35  1  0  0  0
  6  7  1  0  0  0
  6 36  1  0  0  0
  7  8  1  0  0  0
  8  9  2  0  0  0
  8 10  1  0  0  0
 10 14  1  0  0  0
 10 11  1  0  0  0
 11 12  1  0  0  0
 11 37  1  0  0  0
 11 38  1  0  0  0
 12 13  1  0  0  0
 12 39  1  0  0  0
 12 40  1  0  0  0
 13 23  1  0  0  0
 13 14  1  0  0  0
 13 15  1  0  0  0
 14 41  1  0  0  0
 14 42  1  0  0  0
 15 16  1  0  0  0
 15 24  2  0  0  0
 16 17  1  0  0  0
 16 57  1  0  0  0
 17 22  2  0  0  0
 17 18  1  0  0  0
 18 19  2  0  0  0
 18 23  1  0  0  0
 19 20  1  0  0  0
 19 43  1  0  0  0
 20 21  2  0  0  0
 20 44  1  0  0  0
 21 22  1  0  0  0
 21 45  1  0  0  0
 23 46  1  0  0  0
 24 25  1  0  0  0
 24 47  1  0  0  0
 25 29  1  0  0  0
 25 26  1  0  0  0
 25 48  1  0  0  0
 26 27  1  0  0  0
 26 49  1  0  0  0
 26 50  1  0  0  0
 27 28  1  0  0  0
 27 51  1  0  0  0
 27 52  1  0  0  0
 28 29  1  0  0  0
 28 53  1  0  0  0
 28 54  1  0  0  0
 29 55  1  0  0  0
 29 56  1  0  0  0
M  CHG  1  24   1
M  END
> <i_i_glide_confnum>
14

> <i_i_glide_lignum>
244

> <i_i_glide_posenum>
98

> <i_i_glide_rotatable_bonds>
3

> <i_m_Source_File_Index>
3106

> <b_m_subgroup_collapsed>
0

> <r_i_docking_score>
-4.49076

> <r_i_glide_ecoul>
-3.88013

> <r_i_glide_eff_state_penalty>
0

> <r_i_glide_einternal>
1.46598

> <r_i_glide_emodel>
-46.9505

> <r_i_glide_energy>
-37.2922

> <r_i_glide_erotb>
0.255819

> <r_i_glide_esite>
-0.0079508

> <r_i_glide_evdw>
-33.412

> <r_i_glide_gscore>
-4.49076

> <r_i_glide_hbond>
-0.110114

> <r_i_glide_ligand_efficiency>
-0.154854

> <r_i_glide_ligand_efficiency_ln>
-1.02827

> <r_i_glide_ligand_efficiency_sa>
-0.47576

> <r_i_glide_lipo>
-1.32203

> <r_i_glide_metal>
0

> <r_i_glide_rewards>
-1.05386

> <s_i_glide_gridfile>
wee1_glide-grid

> <s_m_Source_File>
wee1_decoys_glide_SP.sdf

> <s_m_Source_Path>
/Users/zhangxujun/Desktop

> <s_m_entry_id>
3381

> <s_m_entry_name>
wee1_decoys_glide_SP.3106

> <s_m_subgroup_title>
wee1_decoys_glide_SP

> <s_m_subgroupid>
wee1_decoys_glide_SP


$$$$
