ZINC09120365_4160
                    3D
 Schrodinger Suite 2024-2.
 53 57  0  0  1  0            999 V2000
    6.5092   54.6833   27.1073 C   0  0  0  0  0  0
    6.0314   54.8786   25.8143 C   0  0  0  0  0  0
    4.7377   54.4759   25.4922 C   0  0  0  0  0  0
    3.9191   53.8779   26.4539 C   0  0  0  0  0  0
    4.3906   53.6897   27.7677 C   0  0  0  0  0  0
    5.6956   54.0987   28.0734 C   0  0  0  0  0  0
    3.5923   53.0677   28.8719 C   0  0  0  0  0  0
    4.0407   52.3889   29.9036 N   0  0  0  0  0  0
    2.9402   52.0968   30.6987 N   0  0  0  0  0  0
    1.9065   52.5805   30.0588 C   0  0  0  0  0  0
    2.2446   53.2304   28.9178 O   0  0  0  0  0  0
    0.2222   52.5798   30.5613 S   0  0  0  0  0  0
   -0.3884   51.3190   29.3903 C   0  0  0  0  0  0
   -0.7318   51.8283   27.9920 C   0  0  0  0  0  0
   -0.4951   52.9951   27.6822 O   0  0  0  0  0  0
   -1.2495   50.8967   27.1682 N   0  0  0  0  0  0
   -1.5821   51.0567   25.8733 C   0  0  0  0  0  0
   -1.8690   52.1308   25.3369 O   0  0  0  0  0  0
   -1.5077   49.8893   25.2125 N   0  0  0  0  0  0
   -1.5315   49.6894   23.7541 C   0  0  0  0  0  0
   -0.4338   50.5219   23.0054 C   0  0  0  0  0  0
   -0.4632   50.2625   21.4763 C   0  0  1  0  0  0
   -0.1895   48.7628   21.2101 C   0  0  0  0  0  0
   -1.2767   47.9063   21.9093 C   0  0  1  0  0  0
   -1.2517   48.1867   23.4368 C   0  0  0  0  0  0
   -2.6696   48.2798   21.3413 C   0  0  0  0  0  0
   -2.9475   49.7810   21.6045 C   0  0  2  0  0  0
   -1.8573   50.6427   20.9150 C   0  0  0  0  0  0
   -2.9218   50.0484   23.1326 C   0  0  0  0  0  0
    2.1911   53.2968   25.8896 Br  0  0  0  0  0  0
    7.5051   54.9916   27.3812 H   0  0  0  0  0  0
    6.6592   55.3339   25.0626 H   0  0  0  0  0  0
    4.3710   54.6123   24.4852 H   0  0  0  0  0  0
    6.0942   53.9761   29.0705 H   0  0  0  0  0  0
   -1.2933   50.8967   29.8317 H   0  0  0  0  0  0
    0.3236   50.5017   29.2816 H   0  0  0  0  0  0
   -1.2953   49.9518   27.5432 H   0  0  0  0  0  0
   -1.3936   49.0505   25.7649 H   0  0  0  0  0  0
    0.5543   50.2849   23.4038 H   0  0  0  0  0  0
   -0.5694   51.5886   23.1826 H   0  0  0  0  0  0
    0.3048   50.8656   20.9869 H   0  0  0  0  0  0
    0.8056   48.4970   21.5716 H   0  0  0  0  0  0
   -0.1799   48.5641   20.1374 H   0  0  0  0  0  0
   -1.0792   46.8486   21.7251 H   0  0  0  0  0  0
   -1.9882   47.5540   23.9335 H   0  0  0  0  0  0
   -0.2848   47.8902   23.8483 H   0  0  0  0  0  0
   -3.4416   47.6631   21.8039 H   0  0  0  0  0  0
   -2.7100   48.0676   20.2720 H   0  0  0  0  0  0
   -3.9285   50.0451   21.2062 H   0  0  0  0  0  0
   -1.8828   50.4910   19.8351 H   0  0  0  0  0  0
   -2.0534   51.7032   21.0765 H   0  0  0  0  0  0
   -3.1625   51.0961   23.3139 H   0  0  0  0  0  0
   -3.7104   49.4744   23.6225 H   0  0  0  0  0  0
  1  6  2  0  0  0
  1  2  1  0  0  0
  1 31  1  0  0  0
  2  3  2  0  0  0
  2 32  1  0  0  0
  3  4  1  0  0  0
  3 33  1  0  0  0
  4  5  2  0  0  0
  4 30  1  0  0  0
  5  6  1  0  0  0
  5  7  1  0  0  0
  6 34  1  0  0  0
  7 11  1  0  0  0
  7  8  2  0  0  0
  8  9  1  0  0  0
  9 10  2  0  0  0
 10 11  1  0  0  0
 10 12  1  0  0  0
 12 13  1  0  0  0
 13 14  1  0  0  0
 13 35  1  0  0  0
 13 36  1  0  0  0
 14 15  2  0  0  0
 14 16  1  0  0  0
 16 17  1  0  0  0
 16 37  1  0  0  0
 17 18  2  0  0  0
 17 19  1  0  0  0
 19 20  1  0  0  0
 19 38  1  0  0  0
 20 25  1  0  0  0
 20 29  1  0  0  0
 20 21  1  0  0  0
 21 22  1  0  0  0
 21 39  1  0  0  0
 21 40  1  0  0  0
 22 28  1  0  0  0
 22 23  1  0  0  0
 22 41  1  0  0  0
 23 24  1  0  0  0
 23 42  1  0  0  0
 23 43  1  0  0  0
 24 25  1  0  0  0
 24 26  1  0  0  0
 24 44  1  0  0  0
 25 45  1  0  0  0
 25 46  1  0  0  0
 26 27  1  0  0  0
 26 47  1  0  0  0
 26 48  1  0  0  0
 27 28  1  0  0  0
 27 29  1  0  0  0
 27 49  1  0  0  0
 28 50  1  0  0  0
 28 51  1  0  0  0
 29 52  1  0  0  0
 29 53  1  0  0  0
M  END
> <i_i_glide_confnum>
79

> <i_i_glide_lignum>
4161

> <i_i_glide_posenum>
95

> <i_i_glide_rotatable_bonds>
8

> <i_m_Source_File_Index>
47

> <b_m_subgroup_collapsed>
0

> <r_i_docking_score>
-4.85029

> <r_i_glide_ecoul>
-6.97766

> <r_i_glide_eff_state_penalty>
0

> <r_i_glide_einternal>
4.30004

> <r_i_glide_emodel>
-57.7209

> <r_i_glide_energy>
-44.7594

> <r_i_glide_erotb>
0.590125

> <r_i_glide_esite>
-0.239856

> <r_i_glide_evdw>
-37.7817

> <r_i_glide_gscore>
-4.85029

> <r_i_glide_hbond>
-0.16

> <r_i_glide_ligand_efficiency>
-0.161676

> <r_i_glide_ligand_efficiency_ln>
-1.10204

> <r_i_glide_ligand_efficiency_sa>
-0.502366

> <r_i_glide_lipo>
-2.14704

> <r_i_glide_metal>
0

> <r_i_glide_rewards>
0.0422212

> <s_i_glide_gridfile>
wee1_glide-grid

> <s_m_Source_File>
wee1_decoys_glide_SP.sdf

> <s_m_Source_Path>
/Users/zhangxujun/Desktop

> <s_m_entry_id>
322

> <s_m_entry_name>
wee1_decoys_glide_SP.47

> <s_m_subgroup_title>
wee1_decoys_glide_SP

> <s_m_subgroupid>
wee1_decoys_glide_SP


$$$$
