ZINC46793249_703
                    3D
 Schrodinger Suite 2024-2.
 68 72  0  0  1  0            999 V2000
    5.4823   53.9058   23.2247 C   0  0  0  0  0  0
    5.7354   54.4965   21.8448 C   0  0  0  0  0  0
    6.8620   55.3022   21.6661 C   0  0  0  0  0  0
    7.1115   55.9135   20.4387 C   0  0  0  0  0  0
    6.2142   55.7552   19.3710 C   0  0  0  0  0  0
    5.1052   54.9225   19.5373 C   0  0  0  0  0  0
    4.8650   54.2841   20.7556 C   0  0  0  0  0  0
    3.7127   53.4891   20.8311 N   0  0  0  0  0  0
    3.6848   52.1655   21.0965 C   0  0  0  0  0  0
    4.7045   51.5002   21.2817 O   0  0  0  0  0  0
    2.3051   51.4671   21.2040 C   0  0  0  0  0  0
    2.2363   50.5883   22.5004 C   0  0  0  0  0  0
    0.8183   50.0487   22.7882 C   0  0  0  0  0  0
   -0.1608   51.1419   22.6668 N   0  0  0  0  0  0
   -0.2583   51.7558   21.3294 C   0  0  0  0  0  0
    1.0812   52.4089   20.9409 C   0  0  0  0  0  0
   -0.9591   51.8354   24.0939 S   0  0  0  0  0  0
   -1.6725   53.0501   23.6817 O   0  0  0  0  0  0
   -1.6881   50.7506   24.7581 O   0  0  0  0  0  0
    0.3490   52.3598   25.2037 C   0  0  0  0  0  0
    1.3051   53.2722   24.7667 C   0  0  0  0  0  0
    2.3047   53.6964   25.6345 C   0  0  0  0  0  0
    2.3586   53.2537   26.9598 C   0  0  0  0  0  0
    1.4017   52.3098   27.4031 C   0  0  0  0  0  0
    0.4086   51.8798   26.5135 C   0  0  0  0  0  0
    1.4724   51.7148   28.8111 C   0  0  0  0  0  0
    2.2576   52.6022   29.7944 C   0  0  0  0  0  0
    3.6096   52.9978   29.1839 C   0  0  0  0  0  0
    3.4027   53.8414   27.9128 C   0  0  0  0  0  0
    6.3497   56.3727   18.1124 N   0  0  0  0  0  0
    7.1383   57.4045   17.7461 C   0  0  0  0  0  0
    7.9091   57.9995   18.5016 O   0  0  0  0  0  0
    7.0084   57.8255   16.2695 C   0  0  0  0  0  0
    7.2639   59.2915   15.9678 C   0  0  0  0  0  0
    8.2880   58.2463   15.5723 C   0  0  0  0  0  0
    5.9052   52.9046   23.2846 H   0  0  0  0  0  0
    5.9218   54.5221   24.0102 H   0  0  0  0  0  0
    4.4159   53.8480   23.4383 H   0  0  0  0  0  0
    7.5534   55.4555   22.4819 H   0  0  0  0  0  0
    8.0132   56.4960   20.3412 H   0  0  0  0  0  0
    4.4146   54.7726   18.7186 H   0  0  0  0  0  0
    2.8541   53.9229   20.5161 H   0  0  0  0  0  0
    2.3287   50.7279   20.4014 H   0  0  0  0  0  0
    2.9069   49.7282   22.4469 H   0  0  0  0  0  0
    2.4768   51.1967   23.3713 H   0  0  0  0  0  0
    0.5382   49.2487   22.1018 H   0  0  0  0  0  0
    0.7663   49.6366   23.7981 H   0  0  0  0  0  0
   -0.5456   50.9820   20.6171 H   0  0  0  0  0  0
   -1.0576   52.4963   21.3299 H   0  0  0  0  0  0
    1.1391   53.2964   21.5678 H   0  0  0  0  0  0
    1.0184   52.6899   19.8880 H   0  0  0  0  0  0
    1.2654   53.6667   23.7644 H   0  0  0  0  0  0
    3.0221   54.4241   25.2868 H   0  0  0  0  0  0
   -0.3197   51.1560   26.8523 H   0  0  0  0  0  0
    0.4701   51.5153   29.1959 H   0  0  0  0  0  0
    1.9670   50.7452   28.7379 H   0  0  0  0  0  0
    2.4072   52.0765   30.7380 H   0  0  0  0  0  0
    1.6780   53.4965   30.0304 H   0  0  0  0  0  0
    4.1842   52.1005   28.9438 H   0  0  0  0  0  0
    4.2038   53.5569   29.9087 H   0  0  0  0  0  0
    4.3552   53.9785   27.3992 H   0  0  0  0  0  0
    3.0665   54.8384   28.2041 H   0  0  0  0  0  0
    5.7365   56.0155   17.3968 H   0  0  0  0  0  0
    6.2393   57.3084   15.6925 H   0  0  0  0  0  0
    7.5044   59.9824   16.7781 H   0  0  0  0  0  0
    6.6541   59.7710   15.2016 H   0  0  0  0  0  0
    8.4075   57.9905   14.5197 H   0  0  0  0  0  0
    9.2357   58.1993   16.1125 H   0  0  0  0  0  0
  1  2  1  0  0  0
  1 36  1  0  0  0
  1 37  1  0  0  0
  1 38  1  0  0  0
  2  7  2  0  0  0
  2  3  1  0  0  0
  3  4  2  0  0  0
  3 39  1  0  0  0
  4  5  1  0  0  0
  4 40  1  0  0  0
  5  6  2  0  0  0
  5 30  1  0  0  0
  6  7  1  0  0  0
  6 41  1  0  0  0
  7  8  1  0  0  0
  8  9  1  0  0  0
  8 42  1  0  0  0
  9 10  2  0  0  0
  9 11  1  0  0  0
 11 16  1  0  0  0
 11 12  1  0  0  0
 11 43  1  0  0  0
 12 13  1  0  0  0
 12 44  1  0  0  0
 12 45  1  0  0  0
 13 14  1  0  0  0
 13 46  1  0  0  0
 13 47  1  0  0  0
 14 15  1  0  0  0
 14 17  1  0  0  0
 15 16  1  0  0  0
 15 48  1  0  0  0
 15 49  1  0  0  0
 16 50  1  0  0  0
 16 51  1  0  0  0
 17 18  2  0  0  0
 17 19  2  0  0  0
 17 20  1  0  0  0
 20 25  2  0  0  0
 20 21  1  0  0  0
 21 22  2  0  0  0
 21 52  1  0  0  0
 22 23  1  0  0  0
 22 53  1  0  0  0
 23 29  1  0  0  0
 23 24  2  0  0  0
 24 25  1  0  0  0
 24 26  1  0  0  0
 25 54  1  0  0  0
 26 27  1  0  0  0
 26 55  1  0  0  0
 26 56  1  0  0  0
 27 28  1  0  0  0
 27 57  1  0  0  0
 27 58  1  0  0  0
 28 29  1  0  0  0
 28 59  1  0  0  0
 28 60  1  0  0  0
 29 61  1  0  0  0
 29 62  1  0  0  0
 30 31  1  0  0  0
 30 63  1  0  0  0
 31 32  2  0  0  0
 31 33  1  0  0  0
 33 35  1  0  0  0
 33 34  1  0  0  0
 33 64  1  0  0  0
 34 35  1  0  0  0
 34 65  1  0  0  0
 34 66  1  0  0  0
 35 67  1  0  0  0
 35 68  1  0  0  0
M  END
> <i_i_glide_confnum>
70

> <i_i_glide_lignum>
704

> <i_i_glide_posenum>
94

> <i_i_glide_rotatable_bonds>
8

> <i_m_Source_File_Index>
5374

> <b_m_subgroup_collapsed>
0

> <r_i_docking_score>
-4.53536

> <r_i_glide_ecoul>
-5.65056

> <r_i_glide_eff_state_penalty>
0

> <r_i_glide_einternal>
7.83854

> <r_i_glide_emodel>
-55.6013

> <r_i_glide_energy>
-47.7341

> <r_i_glide_erotb>
0.663918

> <r_i_glide_esite>
-0.0299175

> <r_i_glide_evdw>
-42.0836

> <r_i_glide_gscore>
-4.53536

> <r_i_glide_hbond>
-0.32

> <r_i_glide_ligand_efficiency>
-0.129582

> <r_i_glide_ligand_efficiency_ln>
-0.995611

> <r_i_glide_ligand_efficiency_sa>
-0.42387

> <r_i_glide_lipo>
-2.78514

> <r_i_glide_metal>
0

> <r_i_glide_rewards>
0.887546

> <s_i_glide_gridfile>
wee1_glide-grid

> <s_m_Source_File>
wee1_decoys_glide_SP.sdf

> <s_m_Source_Path>
/Users/zhangxujun/Desktop

> <s_m_entry_id>
5649

> <s_m_entry_name>
wee1_decoys_glide_SP.5374

> <s_m_subgroup_title>
wee1_decoys_glide_SP

> <s_m_subgroupid>
wee1_decoys_glide_SP


$$$$
