ZINC21237980_3617
                    3D
 Schrodinger Suite 2024-2.
 57 60  0  0  1  0            999 V2000
    0.8845   55.9805   30.5089 C   0  0  0  0  0  0
    0.5961   54.6636   30.8642 C   0  0  0  0  0  0
    1.3182   53.6290   30.2764 C   0  0  0  0  0  0
    2.3280   53.9192   29.3485 C   0  0  0  0  0  0
    2.6330   55.2574   29.0623 C   0  0  0  0  0  0
    1.9040   56.2805   29.6283 C   0  0  0  0  0  0
    3.0451   52.7803   28.6020 C   0  0  2  0  0  0
    3.6151   52.2750   29.3835 H   0  0  0  0  0  0
    4.0861   53.2964   27.5868 C   0  0  0  0  0  0
    5.4317   53.3767   27.9646 C   0  0  0  0  0  0
    6.3628   53.9799   27.1254 C   0  0  0  0  0  0
    5.9550   54.4902   25.8958 C   0  0  0  0  0  0
    4.6271   54.3764   25.4876 C   0  0  0  0  0  0
    3.6934   53.7764   26.3298 C   0  0  0  0  0  0
    7.1037   55.2818   24.8813 Cl  0  0  0  0  0  0
    2.1615   51.7128   28.0822 N   0  0  0  0  0  0
    0.9852   51.8469   27.4380 C   0  0  0  0  0  0
    0.4258   52.9271   27.2878 O   0  0  0  0  0  0
    0.3523   50.5710   26.8683 C   0  0  0  0  0  0
   -0.8639   50.8444   25.5327 S   0  0  0  0  0  0
    0.2433   51.1275   24.1858 C   0  0  0  0  0  0
    1.2575   51.9587   24.2104 N   0  0  0  0  0  0
    1.9048   51.8714   22.9846 N   0  0  0  0  0  0
    1.2725   50.9697   22.2746 C   0  0  0  0  0  0
    0.2063   50.4573   22.9848 N   0  0  0  0  0  0
   -0.7088   49.4949   22.5944 N   0  0  0  0  0  0
    1.6695   50.5891   20.8554 C   0  0  0  0  0  0
    1.9284   49.0743   20.6513 C   0  0  0  0  0  0
    2.3970   48.7690   19.2151 C   0  0  0  0  0  0
    1.4213   49.3157   18.1585 C   0  0  0  0  0  0
    1.1709   50.8218   18.3511 C   0  0  0  0  0  0
    0.7067   51.1581   19.7841 C   0  0  0  0  0  0
    0.3042   56.8047   30.8820 H   0  0  0  0  0  0
   -0.1970   54.4422   31.5630 H   0  0  0  0  0  0
    1.0667   52.6055   30.5155 H   0  0  0  0  0  0
    3.4101   55.5381   28.3710 H   0  0  0  0  0  0
    2.1181   57.2987   29.3630 H   0  0  0  0  0  0
    5.7565   53.0123   28.9265 H   0  0  0  0  0  0
    7.3931   54.0638   27.4389 H   0  0  0  0  0  0
    4.3149   54.7667   24.5298 H   0  0  0  0  0  0
    2.6591   53.7283   26.0222 H   0  0  0  0  0  0
    2.5554   50.7856   28.1040 H   0  0  0  0  0  0
    1.1041   49.8580   26.5329 H   0  0  0  0  0  0
   -0.1892   50.0971   27.6820 H   0  0  0  0  0  0
   -0.6563   48.6713   23.1763 H   0  0  0  0  0  0
   -1.6423   49.8746   22.5402 H   0  0  0  0  0  0
    2.6322   51.0565   20.6335 H   0  0  0  0  0  0
    2.7054   48.7283   21.3341 H   0  0  0  0  0  0
    1.0208   48.4971   20.8265 H   0  0  0  0  0  0
    3.3806   49.2123   19.0535 H   0  0  0  0  0  0
    2.5291   47.6965   19.0801 H   0  0  0  0  0  0
    1.8217   49.1318   17.1605 H   0  0  0  0  0  0
    0.4759   48.7749   18.2155 H   0  0  0  0  0  0
    2.0915   51.3655   18.1300 H   0  0  0  0  0  0
    0.4339   51.1716   17.6275 H   0  0  0  0  0  0
   -0.2938   50.7446   19.9198 H   0  0  0  0  0  0
    0.6600   52.2461   19.8615 H   0  0  0  0  0  0
  1  6  2  0  0  0
  1  2  1  0  0  0
  1 33  1  0  0  0
  2  3  2  0  0  0
  2 34  1  0  0  0
  3  4  1  0  0  0
  3 35  1  0  0  0
  4  5  2  0  0  0
  4  7  1  0  0  0
  5  6  1  0  0  0
  5 36  1  0  0  0
  6 37  1  0  0  0
  7  8  1  0  0  0
  7  9  1  0  0  0
  7 16  1  0  0  0
  9 14  2  0  0  0
  9 10  1  0  0  0
 10 11  2  0  0  0
 10 38  1  0  0  0
 11 12  1  0  0  0
 11 39  1  0  0  0
 12 13  2  0  0  0
 12 15  1  0  0  0
 13 14  1  0  0  0
 13 40  1  0  0  0
 14 41  1  0  0  0
 16 17  1  0  0  0
 16 42  1  0  0  0
 17 18  2  0  0  0
 17 19  1  0  0  0
 19 20  1  0  0  0
 19 43  1  0  0  0
 19 44  1  0  0  0
 20 21  1  0  0  0
 21 25  1  0  0  0
 21 22  2  0  0  0
 22 23  1  0  0  0
 23 24  2  0  0  0
 24 25  1  0  0  0
 24 27  1  0  0  0
 25 26  1  0  0  0
 26 45  1  0  0  0
 26 46  1  0  0  0
 27 32  1  0  0  0
 27 28  1  0  0  0
 27 47  1  0  0  0
 28 29  1  0  0  0
 28 48  1  0  0  0
 28 49  1  0  0  0
 29 30  1  0  0  0
 29 50  1  0  0  0
 29 51  1  0  0  0
 30 31  1  0  0  0
 30 52  1  0  0  0
 30 53  1  0  0  0
 31 32  1  0  0  0
 31 54  1  0  0  0
 31 55  1  0  0  0
 32 56  1  0  0  0
 32 57  1  0  0  0
M  END
> <i_i_glide_confnum>
188

> <i_i_glide_lignum>
3618

> <i_i_glide_posenum>
135

> <i_i_glide_rotatable_bonds>
8

> <i_m_Source_File_Index>
4559

> <b_m_subgroup_collapsed>
0

> <r_i_docking_score>
-5.2509

> <r_i_glide_ecoul>
-1.0227

> <r_i_glide_eff_state_penalty>
0

> <r_i_glide_einternal>
5.94163

> <r_i_glide_emodel>
-58.0266

> <r_i_glide_energy>
-44.8365

> <r_i_glide_erotb>
0.773053

> <r_i_glide_esite>
0

> <r_i_glide_evdw>
-43.8138

> <r_i_glide_gscore>
-5.2509

> <r_i_glide_hbond>
0

> <r_i_glide_ligand_efficiency>
-0.169384

> <r_i_glide_ligand_efficiency_ln>
-1.18424

> <r_i_glide_ligand_efficiency_sa>
-0.532099

> <r_i_glide_lipo>
-3.06167

> <r_i_glide_metal>
0

> <r_i_glide_rewards>
-0.618192

> <s_i_glide_gridfile>
wee1_glide-grid

> <s_m_Source_File>
wee1_decoys_glide_SP.sdf

> <s_m_Source_Path>
/Users/zhangxujun/Desktop

> <s_m_entry_id>
4834

> <s_m_entry_name>
wee1_decoys_glide_SP.4559

> <s_m_subgroup_title>
wee1_decoys_glide_SP

> <s_m_subgroupid>
wee1_decoys_glide_SP


$$$$
