ZINC10186304_4265
                    3D
 Schrodinger Suite 2024-2.
 41 43  0  0  1  0            999 V2000
   10.7221   49.3936   14.2061 C   0  0  0  0  0  0
   11.9051   48.8966   14.7508 C   0  0  0  0  0  0
   12.3343   49.3139   16.0164 C   0  0  0  0  0  0
   11.5756   50.2653   16.7095 C   0  0  0  0  0  0
   10.4170   50.8094   16.1462 C   0  0  0  0  0  0
    9.9769   50.3439   14.8984 C   0  0  0  0  0  0
    9.7559   51.8083   16.8813 N   0  0  0  0  0  0
    9.0399   52.8442   16.3905 C   0  0  0  0  0  0
    8.8432   53.0487   15.1922 O   0  0  0  0  0  0
    8.4905   53.8490   17.4039 C   0  0  0  0  0  0
    6.6715   53.9572   17.3545 S   0  0  0  0  0  0
    6.4040   54.4989   19.0099 C   0  0  0  0  0  0
    7.1036   55.4359   19.6026 N   0  0  0  0  0  0
    6.6723   55.5064   20.9195 N   0  0  0  0  0  0
    5.7264   54.6085   21.0779 C   0  0  0  0  0  0
    5.5044   53.9367   19.8886 N   0  0  0  0  0  0
    4.6259   52.8945   19.6270 N   0  0  0  0  0  0
    5.0420   54.3737   22.3875 C   0  0  0  0  0  0
    5.7765   54.4965   23.5744 C   0  0  0  0  0  0
    5.1447   54.3604   24.8075 C   0  0  0  0  0  0
    3.7776   54.0971   24.8567 C   0  0  0  0  0  0
    3.0399   53.9608   23.6823 C   0  0  0  0  0  0
    3.6724   54.0965   22.4488 C   0  0  0  0  0  0
    2.9933   53.9363   26.3852 Cl  0  0  0  0  0  0
   13.6148   48.7514   16.6333 C   0  0  0  0  0  0
   13.9074   47.5444   16.1460 F   0  0  0  0  0  0
   13.5059   48.6455   17.9595 F   0  0  0  0  0  0
   14.6261   49.5746   16.3584 F   0  0  0  0  0  0
   10.3902   49.0531   13.2366 H   0  0  0  0  0  0
   12.4774   48.1754   14.1824 H   0  0  0  0  0  0
   11.9084   50.6049   17.6806 H   0  0  0  0  0  0
    9.0682   50.7156   14.4497 H   0  0  0  0  0  0
    9.9445   51.7910   17.8763 H   0  0  0  0  0  0
    8.8312   53.6046   18.4104 H   0  0  0  0  0  0
    8.8995   54.8317   17.1699 H   0  0  0  0  0  0
    3.8832   53.1734   19.0027 H   0  0  0  0  0  0
    5.1023   52.0601   19.2897 H   0  0  0  0  0  0
    6.8355   54.7128   23.5419 H   0  0  0  0  0  0
    5.7121   54.4590   25.7211 H   0  0  0  0  0  0
    1.9796   53.7598   23.7258 H   0  0  0  0  0  0
    3.0877   54.0206   21.5436 H   0  0  0  0  0  0
  1  6  2  0  0  0
  1  2  1  0  0  0
  1 29  1  0  0  0
  2  3  2  0  0  0
  2 30  1  0  0  0
  3  4  1  0  0  0
  3 25  1  0  0  0
  4  5  2  0  0  0
  4 31  1  0  0  0
  5  6  1  0  0  0
  5  7  1  0  0  0
  6 32  1  0  0  0
  7  8  1  0  0  0
  7 33  1  0  0  0
  8  9  2  0  0  0
  8 10  1  0  0  0
 10 11  1  0  0  0
 10 34  1  0  0  0
 10 35  1  0  0  0
 11 12  1  0  0  0
 12 16  1  0  0  0
 12 13  2  0  0  0
 13 14  1  0  0  0
 14 15  2  0  0  0
 15 16  1  0  0  0
 15 18  1  0  0  0
 16 17  1  0  0  0
 17 36  1  0  0  0
 17 37  1  0  0  0
 18 23  2  0  0  0
 18 19  1  0  0  0
 19 20  2  0  0  0
 19 38  1  0  0  0
 20 21  1  0  0  0
 20 39  1  0  0  0
 21 22  2  0  0  0
 21 24  1  0  0  0
 22 23  1  0  0  0
 22 40  1  0  0  0
 23 41  1  0  0  0
 25 26  1  0  0  0
 25 27  1  0  0  0
 25 28  1  0  0  0
M  END
> <i_i_glide_confnum>
11

> <i_i_glide_lignum>
4266

> <i_i_glide_posenum>
206

> <i_i_glide_rotatable_bonds>
7

> <i_m_Source_File_Index>
1790

> <b_m_subgroup_collapsed>
0

> <r_i_docking_score>
-5.70644

> <r_i_glide_ecoul>
-7.73457

> <r_i_glide_eff_state_penalty>
0

> <r_i_glide_einternal>
2.09457

> <r_i_glide_emodel>
-57.3018

> <r_i_glide_energy>
-42.1575

> <r_i_glide_erotb>
0.650951

> <r_i_glide_esite>
-0.108214

> <r_i_glide_evdw>
-34.4229

> <r_i_glide_gscore>
-5.70644

> <r_i_glide_hbond>
-0.44692

> <r_i_glide_ligand_efficiency>
-0.203801

> <r_i_glide_ligand_efficiency_ln>
-1.31721

> <r_i_glide_ligand_efficiency_sa>
-0.618861

> <r_i_glide_lipo>
-1.9485

> <r_i_glide_metal>
0

> <r_i_glide_rewards>
-0.97242

> <s_i_glide_gridfile>
wee1_glide-grid

> <s_m_Source_File>
wee1_decoys_glide_SP.sdf

> <s_m_Source_Path>
/Users/zhangxujun/Desktop

> <s_m_entry_id>
2065

> <s_m_entry_name>
wee1_decoys_glide_SP.1790

> <s_m_subgroup_title>
wee1_decoys_glide_SP

> <s_m_subgroupid>
wee1_decoys_glide_SP


$$$$
