ZINC35724680_3542
                    3D
 Schrodinger Suite 2024-2.
 58 60  0  0  1  0            999 V2000
   10.8310   49.6966   17.0447 C   0  0  0  0  0  0
    9.8643   50.8845   16.9037 C   0  0  0  0  0  0
    9.1421   51.0408   15.5580 C   0  0  0  0  0  0
    9.4791   50.2191   14.4697 C   0  0  0  0  0  0
    8.8279   50.3494   13.2472 C   0  0  0  0  0  0
    7.8270   51.3024   13.0929 C   0  0  0  0  0  0
    7.4806   52.1321   14.1583 C   0  0  0  0  0  0
    8.1298   52.0142   15.4022 C   0  0  0  0  0  0
    7.8379   52.8452   16.5113 N   0  0  0  0  0  0
    6.8320   53.7212   16.6983 C   0  0  0  0  0  0
    5.8880   53.9074   15.9315 O   0  0  0  0  0  0
    6.9984   54.4194   17.8336 N   0  0  0  0  0  0
    6.2263   55.6159   18.2027 C   0  0  2  0  0  0
    5.1789   55.3948   17.9889 H   0  0  0  0  0  0
    6.6381   56.8639   17.3300 C   0  0  2  0  0  0
    6.4777   56.5655   16.2943 H   0  0  0  0  0  0
    8.1367   57.2387   17.4076 C   0  0  0  0  0  0
    5.7559   58.1239   17.5081 C   0  0  0  0  0  0
    4.2579   57.8763   17.2814 C   0  0  0  0  0  0
    6.3038   55.8585   19.7350 C   0  0  0  0  0  0
    6.8008   56.8965   20.1833 O   0  0  0  0  0  0
    5.8123   54.8634   20.5107 N   0  0  0  0  0  0
    5.9061   54.8234   21.8962 C   0  0  0  0  0  0
    6.8994   55.2969   22.6120 N   0  0  0  0  0  0
    6.7041   55.1212   23.9740 N   0  0  0  0  0  0
    5.5745   54.5227   24.2675 C   0  0  0  0  0  0
    4.6394   54.0966   22.8463 S   0  0  0  0  0  0
    5.1148   54.2767   25.6754 C   0  0  0  0  0  0
    6.0483   54.2697   26.7210 C   0  0  0  0  0  0
    5.6368   54.0951   28.0380 C   0  0  0  0  0  0
    4.2846   53.9207   28.3200 C   0  0  0  0  0  0
    3.3460   53.9169   27.2911 C   0  0  0  0  0  0
    3.7603   54.0952   25.9729 C   0  0  0  0  0  0
    3.7722   53.7170   29.9560 Cl  0  0  0  0  0  0
   11.2574   49.6573   18.0475 H   0  0  0  0  0  0
   10.3047   48.7597   16.8779 H   0  0  0  0  0  0
   11.6603   49.7598   16.3394 H   0  0  0  0  0  0
   10.4040   51.8083   17.1158 H   0  0  0  0  0  0
    9.1087   50.7799   17.6817 H   0  0  0  0  0  0
   10.2501   49.4672   14.5474 H   0  0  0  0  0  0
    9.1107   49.7147   12.4204 H   0  0  0  0  0  0
    7.3237   51.4075   12.1411 H   0  0  0  0  0  0
    6.7106   52.8684   13.9830 H   0  0  0  0  0  0
    8.4782   52.7314   17.2810 H   0  0  0  0  0  0
    7.7531   54.1800   18.4552 H   0  0  0  0  0  0
    8.4186   57.6353   18.3825 H   0  0  0  0  0  0
    8.7753   56.3770   17.2024 H   0  0  0  0  0  0
    8.3801   58.0025   16.6693 H   0  0  0  0  0  0
    5.9041   58.5751   18.4899 H   0  0  0  0  0  0
    6.0753   58.8881   16.7971 H   0  0  0  0  0  0
    3.7115   58.8201   17.2746 H   0  0  0  0  0  0
    4.0792   57.3712   16.3299 H   0  0  0  0  0  0
    3.8366   57.2657   18.0813 H   0  0  0  0  0  0
    5.3343   54.0978   20.0577 H   0  0  0  0  0  0
    7.1006   54.4049   26.5210 H   0  0  0  0  0  0
    6.3648   54.1029   28.8382 H   0  0  0  0  0  0
    2.2964   53.7832   27.5135 H   0  0  0  0  0  0
    3.0175   54.1044   25.1888 H   0  0  0  0  0  0
  1  2  1  0  0  0
  1 35  1  0  0  0
  1 36  1  0  0  0
  1 37  1  0  0  0
  2  3  1  0  0  0
  2 38  1  0  0  0
  2 39  1  0  0  0
  3  8  2  0  0  0
  3  4  1  0  0  0
  4  5  2  0  0  0
  4 40  1  0  0  0
  5  6  1  0  0  0
  5 41  1  0  0  0
  6  7  2  0  0  0
  6 42  1  0  0  0
  7  8  1  0  0  0
  7 43  1  0  0  0
  8  9  1  0  0  0
  9 10  1  0  0  0
  9 44  1  0  0  0
 10 11  2  0  0  0
 10 12  1  0  0  0
 12 13  1  0  0  0
 12 45  1  0  0  0
 13 14  1  0  0  0
 13 15  1  0  0  0
 13 20  1  0  0  0
 15 16  1  0  0  0
 15 17  1  0  0  0
 15 18  1  0  0  0
 17 46  1  0  0  0
 17 47  1  0  0  0
 17 48  1  0  0  0
 18 19  1  0  0  0
 18 49  1  0  0  0
 18 50  1  0  0  0
 19 51  1  0  0  0
 19 52  1  0  0  0
 19 53  1  0  0  0
 20 21  2  0  0  0
 20 22  1  0  0  0
 22 23  1  0  0  0
 22 54  1  0  0  0
 23 27  1  0  0  0
 23 24  2  0  0  0
 24 25  1  0  0  0
 25 26  2  0  0  0
 26 27  1  0  0  0
 26 28  1  0  0  0
 28 33  2  0  0  0
 28 29  1  0  0  0
 29 30  2  0  0  0
 29 55  1  0  0  0
 30 31  1  0  0  0
 30 56  1  0  0  0
 31 32  2  0  0  0
 31 34  1  0  0  0
 32 33  1  0  0  0
 32 57  1  0  0  0
 33 58  1  0  0  0
M  END
> <i_i_glide_confnum>
28

> <i_i_glide_lignum>
3543

> <i_i_glide_posenum>
397

> <i_i_glide_rotatable_bonds>
11

> <i_m_Source_File_Index>
2508

> <b_m_subgroup_collapsed>
0

> <r_i_docking_score>
-5.69384

> <r_i_glide_ecoul>
-4.4118

> <r_i_glide_eff_state_penalty>
0

> <r_i_glide_einternal>
11.6442

> <r_i_glide_emodel>
-63.7693

> <r_i_glide_energy>
-50.7187

> <r_i_glide_erotb>
0.816704

> <r_i_glide_esite>
-0.0136624

> <r_i_glide_evdw>
-46.3069

> <r_i_glide_gscore>
-5.69384

> <r_i_glide_hbond>
-0.32

> <r_i_glide_ligand_efficiency>
-0.177932

> <r_i_glide_ligand_efficiency_ln>
-1.27501

> <r_i_glide_ligand_efficiency_sa>
-0.5649

> <r_i_glide_lipo>
-2.76216

> <r_i_glide_metal>
0

> <r_i_glide_rewards>
-0.437607

> <s_i_glide_gridfile>
wee1_glide-grid

> <s_m_Source_File>
wee1_decoys_glide_SP.sdf

> <s_m_Source_Path>
/Users/zhangxujun/Desktop

> <s_m_entry_id>
2783

> <s_m_entry_name>
wee1_decoys_glide_SP.2508

> <s_m_subgroup_title>
wee1_decoys_glide_SP

> <s_m_subgroupid>
wee1_decoys_glide_SP


$$$$
