ZINC39034820_6049
                    3D
 Schrodinger Suite 2024-2.
 54 57  0  0  1  0            999 V2000
    5.1328   54.9022   18.4914 C   0  0  0  0  0  0
    5.4369   54.6988   19.9692 C   0  0  0  0  0  0
    4.6479   53.8074   20.7019 C   0  0  0  0  0  0
    4.8849   53.6000   22.0591 C   0  0  0  0  0  0
    5.9040   54.2995   22.7070 C   0  0  0  0  0  0
    6.7030   55.1932   21.9772 C   0  0  0  0  0  0
    6.4791   55.3926   20.6106 C   0  0  0  0  0  0
    7.4035   56.3249   19.8396 C   0  0  0  0  0  0
    6.1074   54.0264   24.0657 N   0  0  0  0  0  0
    6.5014   54.9016   25.0161 C   0  0  0  0  0  0
    6.7047   56.0964   24.8486 O   0  0  0  0  0  0
    6.7046   54.3360   26.2609 N   0  0  0  0  0  0
    5.7520   53.9021   26.9997 C   0  0  0  0  0  0
    5.9176   53.3182   28.2387 N   0  0  0  0  0  0
    4.8430   52.9670   28.8006 N   0  3  0  0  0  0
    3.5795   53.1618   28.0760 C   0  0  2  0  0  0
    3.2093   52.1769   27.8073 H   0  0  0  0  0  0
    3.9979   54.0035   26.5524 S   0  0  0  0  0  0
    2.5497   53.9280   28.8985 C   0  0  0  0  0  0
    2.8301   55.2457   29.2798 C   0  0  0  0  0  0
    1.9036   55.9963   29.9951 C   0  0  0  0  0  0
    0.7044   55.4097   30.3799 C   0  0  0  0  0  0
    0.4174   54.0933   30.0378 C   0  0  0  0  0  0
    1.3223   53.3575   29.2799 C   0  0  0  0  0  0
    0.8862   51.6967   28.8818 S   0  0  0  0  0  0
    0.6478   51.5566   27.0761 C   0  0  0  0  0  0
   -0.7920   51.7631   26.6082 C   0  0  0  0  0  0
   -1.8740   51.2968   27.3666 C   0  0  0  0  0  0
   -3.1805   51.4381   26.9012 C   0  0  0  0  0  0
   -3.4213   52.0430   25.6688 C   0  0  0  0  0  0
   -2.3518   52.4965   24.8981 C   0  0  0  0  0  0
   -1.0436   52.3543   25.3620 C   0  0  0  0  0  0
   -0.0219   52.7906   24.5889 F   0  0  0  0  0  0
    4.1624   54.4877   18.2127 H   0  0  0  0  0  0
    5.1048   55.9646   18.2489 H   0  0  0  0  0  0
    5.9038   54.4365   17.8762 H   0  0  0  0  0  0
    3.8467   53.2659   20.2181 H   0  0  0  0  0  0
    4.2637   52.8983   22.5983 H   0  0  0  0  0  0
    7.5195   55.7090   22.4623 H   0  0  0  0  0  0
    8.3462   56.4829   20.3660 H   0  0  0  0  0  0
    6.9175   57.2840   19.6552 H   0  0  0  0  0  0
    7.6687   55.8926   18.8740 H   0  0  0  0  0  0
    5.8707   53.0940   24.3694 H   0  0  0  0  0  0
    3.7692   55.6966   28.9989 H   0  0  0  0  0  0
    2.1106   57.0273   30.2522 H   0  0  0  0  0  0
   -0.0343   56.0029   30.8817 H   0  0  0  0  0  0
   -0.5164   53.6451   30.3402 H   0  0  0  0  0  0
    1.3101   52.2637   26.5774 H   0  0  0  0  0  0
    0.9499   50.5508   26.7831 H   0  0  0  0  0  0
   -1.7087   50.7951   28.3102 H   0  0  0  0  0  0
   -4.0026   51.0618   27.4934 H   0  0  0  0  0  0
   -4.4337   52.1459   25.3060 H   0  0  0  0  0  0
   -2.5326   52.9542   23.9374 H   0  0  0  0  0  0
    4.8504   52.5316   29.7193 H   0  0  0  0  0  0
  1  2  1  0  0  0
  1 34  1  0  0  0
  1 35  1  0  0  0
  1 36  1  0  0  0
  2  7  2  0  0  0
  2  3  1  0  0  0
  3  4  2  0  0  0
  3 37  1  0  0  0
  4  5  1  0  0  0
  4 38  1  0  0  0
  5  6  2  0  0  0
  5  9  1  0  0  0
  6  7  1  0  0  0
  6 39  1  0  0  0
  7  8  1  0  0  0
  8 40  1  0  0  0
  8 41  1  0  0  0
  8 42  1  0  0  0
  9 10  1  0  0  0
  9 43  1  0  0  0
 10 11  2  0  0  0
 10 12  1  0  0  0
 12 13  2  0  0  0
 13 18  1  0  0  0
 13 14  1  0  0  0
 14 15  2  0  0  0
 15 16  1  0  0  0
 15 54  1  0  0  0
 16 17  1  0  0  0
 16 18  1  0  0  0
 16 19  1  0  0  0
 19 24  2  0  0  0
 19 20  1  0  0  0
 20 21  2  0  0  0
 20 44  1  0  0  0
 21 22  1  0  0  0
 21 45  1  0  0  0
 22 23  2  0  0  0
 22 46  1  0  0  0
 23 24  1  0  0  0
 23 47  1  0  0  0
 24 25  1  0  0  0
 25 26  1  0  0  0
 26 27  1  0  0  0
 26 48  1  0  0  0
 26 49  1  0  0  0
 27 32  2  0  0  0
 27 28  1  0  0  0
 28 29  2  0  0  0
 28 50  1  0  0  0
 29 30  1  0  0  0
 29 51  1  0  0  0
 30 31  2  0  0  0
 30 52  1  0  0  0
 31 32  1  0  0  0
 31 53  1  0  0  0
 32 33  1  0  0  0
M  CHG  1  15   1
M  END
> <i_i_glide_confnum>
3

> <i_i_glide_lignum>
6050

> <i_i_glide_posenum>
5

> <i_i_glide_rotatable_bonds>
7

> <i_m_Source_File_Index>
4904

> <b_m_subgroup_collapsed>
0

> <r_i_docking_score>
-6.55213

> <r_i_glide_ecoul>
-2.96896

> <r_i_glide_eff_state_penalty>
0

> <r_i_glide_einternal>
15.7118

> <r_i_glide_emodel>
-68.7073

> <r_i_glide_energy>
-54.3467

> <r_i_glide_erotb>
0.651271

> <r_i_glide_esite>
0

> <r_i_glide_evdw>
-51.3778

> <r_i_glide_gscore>
-6.55213

> <r_i_glide_hbond>
-0.100349

> <r_i_glide_ligand_efficiency>
-0.204754

> <r_i_glide_ligand_efficiency_ln>
-1.4672

> <r_i_glide_ligand_efficiency_sa>
-0.650054

> <r_i_glide_lipo>
-2.89171

> <r_i_glide_metal>
0

> <r_i_glide_rewards>
-1.19711

> <s_i_glide_gridfile>
wee1_glide-grid

> <s_m_Source_File>
wee1_decoys_glide_SP.sdf

> <s_m_Source_Path>
/Users/zhangxujun/Desktop

> <s_m_entry_id>
5179

> <s_m_entry_name>
wee1_decoys_glide_SP.4904

> <s_m_subgroup_title>
wee1_decoys_glide_SP

> <s_m_subgroupid>
wee1_decoys_glide_SP


$$$$
