ZINC67081126_1461
                    3D
 Schrodinger Suite 2024-2.
 54 57  0  0  1  0            999 V2000
    0.2893   49.4947   26.4097 C   0  0  0  0  0  0
    0.4603   49.4735   24.8874 C   0  0  1  0  0  0
    1.3463   48.8940   24.6504 H   0  0  0  0  0  0
   -0.7665   48.8861   24.1622 C   0  0  0  0  0  0
   -1.4731   49.5884   23.4316 O   0  0  0  0  0  0
   -0.9940   47.5829   24.3825 N   0  0  0  0  0  0
   -2.1164   46.8372   23.8148 C   0  0  0  0  0  0
   -3.0444   46.3588   24.9090 C   0  0  0  0  0  0
   -3.0174   46.4174   26.2952 C   0  0  0  0  0  0
   -4.1432   45.7419   26.7581 C   0  0  0  0  0  0
   -4.8376   45.3285   25.6334 C   0  0  0  0  0  0
   -4.1642   45.6970   24.5129 O   0  0  0  0  0  0
    0.7777   50.8271   24.4623 N   0  0  0  0  0  0
    1.5045   51.1270   23.3791 C   0  0  0  0  0  0
    1.7904   50.2913   22.5185 O   0  0  0  0  0  0
    1.9754   52.3979   23.3554 N   0  0  0  0  0  0
    2.7758   52.8451   22.2051 C   0  0  0  0  0  0
    3.1012   54.2943   22.5236 C   0  0  0  0  0  0
    1.9878   54.7220   23.4641 C   0  0  0  0  0  0
    1.6317   53.4872   24.2959 C   0  0  2  0  0  0
    0.5573   53.5037   24.4859 H   0  0  0  0  0  0
    2.2710   53.3950   25.7039 C   0  0  0  0  0  0
    3.5863   53.8351   25.9264 C   0  0  0  0  0  0
    4.1492   53.8264   27.2047 C   0  0  0  0  0  0
    3.4006   53.3980   28.2971 C   0  0  0  0  0  0
    2.0899   52.9708   28.1068 C   0  0  0  0  0  0
    1.5185   52.9742   26.8199 C   0  0  0  0  0  0
    0.2319   52.5108   26.6196 O   0  0  0  0  0  0
   -0.5984   52.5480   27.7842 C   0  0  0  0  0  0
    0.1435   51.9613   29.0084 C   0  0  0  0  0  0
    1.3756   52.6510   29.2456 O   0  0  0  0  0  0
    0.3048   48.4965   26.8305 H   0  0  0  0  0  0
    1.1038   50.0395   26.8824 H   0  0  0  0  0  0
   -0.6539   49.9520   26.7034 H   0  0  0  0  0  0
   -0.4150   47.1123   25.0675 H   0  0  0  0  0  0
   -1.6990   45.9840   23.2791 H   0  0  0  0  0  0
   -2.6743   47.4203   23.0780 H   0  0  0  0  0  0
   -2.2508   46.8937   26.8916 H   0  0  0  0  0  0
   -4.4151   45.5827   27.7923 H   0  0  0  0  0  0
   -5.7594   44.7865   25.4863 H   0  0  0  0  0  0
    0.4995   51.5637   25.0983 H   0  0  0  0  0  0
    3.6825   52.2543   22.0736 H   0  0  0  0  0  0
    2.1721   52.8068   21.2963 H   0  0  0  0  0  0
    4.0750   54.3625   23.0042 H   0  0  0  0  0  0
    3.1559   54.8918   21.6194 H   0  0  0  0  0  0
    2.3009   55.5598   24.0821 H   0  0  0  0  0  0
    1.1047   55.0583   22.9199 H   0  0  0  0  0  0
    4.1966   54.1848   25.1127 H   0  0  0  0  0  0
    5.1664   54.1604   27.3486 H   0  0  0  0  0  0
    3.8323   53.4070   29.2867 H   0  0  0  0  0  0
   -1.5145   51.9901   27.5901 H   0  0  0  0  0  0
   -0.8820   53.5788   27.9880 H   0  0  0  0  0  0
    0.3420   50.8981   28.8560 H   0  0  0  0  0  0
   -0.4815   52.0389   29.8977 H   0  0  0  0  0  0
  1  2  1  0  0  0
  1 32  1  0  0  0
  1 33  1  0  0  0
  1 34  1  0  0  0
  2  3  1  0  0  0
  2  4  1  0  0  0
  2 13  1  0  0  0
  4  5  2  0  0  0
  4  6  1  0  0  0
  6  7  1  0  0  0
  6 35  1  0  0  0
  7  8  1  0  0  0
  7 36  1  0  0  0
  7 37  1  0  0  0
  8 12  1  0  0  0
  8  9  2  0  0  0
  9 10  1  0  0  0
  9 38  1  0  0  0
 10 11  2  0  0  0
 10 39  1  0  0  0
 11 12  1  0  0  0
 11 40  1  0  0  0
 13 14  1  0  0  0
 13 41  1  0  0  0
 14 15  2  0  0  0
 14 16  1  0  0  0
 16 20  1  0  0  0
 16 17  1  0  0  0
 17 18  1  0  0  0
 17 42  1  0  0  0
 17 43  1  0  0  0
 18 19  1  0  0  0
 18 44  1  0  0  0
 18 45  1  0  0  0
 19 20  1  0  0  0
 19 46  1  0  0  0
 19 47  1  0  0  0
 20 21  1  0  0  0
 20 22  1  0  0  0
 22 27  2  0  0  0
 22 23  1  0  0  0
 23 24  2  0  0  0
 23 48  1  0  0  0
 24 25  1  0  0  0
 24 49  1  0  0  0
 25 26  2  0  0  0
 25 50  1  0  0  0
 26 31  1  0  0  0
 26 27  1  0  0  0
 27 28  1  0  0  0
 28 29  1  0  0  0
 29 30  1  0  0  0
 29 51  1  0  0  0
 29 52  1  0  0  0
 30 31  1  0  0  0
 30 53  1  0  0  0
 30 54  1  0  0  0
M  END
> <i_i_glide_confnum>
191

> <i_i_glide_lignum>
1462

> <i_i_glide_posenum>
356

> <i_i_glide_rotatable_bonds>
8

> <i_m_Source_File_Index>
2292

> <b_m_subgroup_collapsed>
0

> <r_i_docking_score>
-4.3768

> <r_i_glide_ecoul>
-3.99009

> <r_i_glide_eff_state_penalty>
0

> <r_i_glide_einternal>
5.97922

> <r_i_glide_emodel>
-44.6854

> <r_i_glide_energy>
-37.4536

> <r_i_glide_erotb>
0.859664

> <r_i_glide_esite>
-0.0767637

> <r_i_glide_evdw>
-33.4635

> <r_i_glide_gscore>
-4.3768

> <r_i_glide_hbond>
-0.229926

> <r_i_glide_ligand_efficiency>
-0.150924

> <r_i_glide_ligand_efficiency_ln>
-1.00218

> <r_i_glide_ligand_efficiency_sa>
-0.463687

> <r_i_glide_lipo>
-1.66069

> <r_i_glide_metal>
0

> <r_i_glide_rewards>
-0.997399

> <s_i_glide_gridfile>
wee1_glide-grid

> <s_m_Source_File>
wee1_decoys_glide_SP.sdf

> <s_m_Source_Path>
/Users/zhangxujun/Desktop

> <s_m_entry_id>
2567

> <s_m_entry_name>
wee1_decoys_glide_SP.2292

> <s_m_subgroup_title>
wee1_decoys_glide_SP

> <s_m_subgroupid>
wee1_decoys_glide_SP


$$$$
