ZINC38740791_4858
                    3D
 Schrodinger Suite 2024-2.
 75 79  0  0  1  0            999 V2000
    0.4092   54.4651   31.1062 C   0  0  0  0  0  0
    0.3884   53.0840   30.9499 C   0  0  0  0  0  0
    1.0020   52.5086   29.8464 C   0  0  0  0  0  0
    1.6191   53.3152   28.8869 C   0  0  0  0  0  0
    1.6439   54.7060   29.0575 C   0  0  0  0  0  0
    1.0587   55.2803   30.1792 C   0  0  0  0  0  0
    2.2468   52.6569   27.6585 C   0  0  0  0  0  0
    1.1852   52.3658   26.5549 C   0  0  0  0  0  0
    0.0767   51.3674   26.9809 C   0  0  0  0  0  0
   -0.7385   50.8762   25.8702 N   0  0  0  0  0  0
   -0.3732   49.8725   25.0560 C   0  0  0  0  0  0
    0.7068   49.2964   25.1573 O   0  0  0  0  0  0
   -1.3504   49.4906   23.9137 C   0  0  2  0  0  0
   -2.2742   50.0515   24.0731 H   0  0  0  0  0  0
   -1.6494   47.9634   24.0371 C   0  0  0  0  0  0
   -2.2441   47.3969   22.7539 C   0  0  0  0  0  0
   -2.2502   48.0364   21.5710 C   0  0  0  0  0  0
   -1.6073   49.3909   21.3199 C   0  0  0  0  0  0
   -0.7123   49.8299   22.5143 C   0  0  1  0  0  0
    0.2466   49.3139   22.4543 H   0  0  0  0  0  0
   -0.4238   51.3557   22.3739 C   0  0  0  0  0  0
   -1.2712   52.1437   22.8035 O   0  0  0  0  0  0
    0.8103   51.7705   21.9870 N   0  0  0  0  0  0
    1.6480   51.0189   21.0290 C   0  0  0  0  0  0
    3.1208   51.0847   21.4937 C   0  0  0  0  0  0
    3.5527   52.4859   21.7026 N   0  0  0  0  0  0
    2.6902   53.1347   22.7098 C   0  0  0  0  0  0
    1.2242   53.1607   22.2383 C   0  0  0  0  0  0
    4.4645   53.2092   20.8637 C   0  0  0  0  0  0
    5.0199   54.4428   21.2444 C   0  0  0  0  0  0
    5.9055   55.1092   20.3926 C   0  0  0  0  0  0
    6.2467   54.5334   19.1675 C   0  0  0  0  0  0
    5.7006   53.2969   18.8254 C   0  0  0  0  0  0
    4.8551   52.6850   19.6817 N   0  3  0  0  0  0
    3.5257   53.3737   27.1897 C   0  0  0  0  0  0
    4.6705   53.2980   27.9943 C   0  0  0  0  0  0
    5.8481   53.9362   27.6105 C   0  0  0  0  0  0
    5.8838   54.6452   26.4133 C   0  0  0  0  0  0
    4.7517   54.7344   25.6081 C   0  0  0  0  0  0
    3.5721   54.1075   25.9984 C   0  0  0  0  0  0
   -0.0572   54.8960   31.9768 H   0  0  0  0  0  0
   -0.0961   52.4578   31.6837 H   0  0  0  0  0  0
    0.9773   51.4356   29.7272 H   0  0  0  0  0  0
    2.1183   55.3434   28.3264 H   0  0  0  0  0  0
    1.0850   56.3511   30.3180 H   0  0  0  0  0  0
    2.6086   51.6773   27.9801 H   0  0  0  0  0  0
    0.7092   53.2945   26.2408 H   0  0  0  0  0  0
    1.6825   51.9821   25.6663 H   0  0  0  0  0  0
    0.5236   50.5137   27.4963 H   0  0  0  0  0  0
   -0.5790   51.8204   27.7248 H   0  0  0  0  0  0
   -1.6345   51.3184   25.7279 H   0  0  0  0  0  0
   -0.7313   47.3913   24.1879 H   0  0  0  0  0  0
   -2.2746   47.7579   24.9098 H   0  0  0  0  0  0
   -2.7163   46.4262   22.7965 H   0  0  0  0  0  0
   -2.7272   47.5401   20.7389 H   0  0  0  0  0  0
   -2.4488   50.0776   21.2026 H   0  0  0  0  0  0
   -1.0581   49.4207   20.3772 H   0  0  0  0  0  0
    1.3317   49.9948   20.8195 H   0  0  0  0  0  0
    1.5749   51.5653   20.0864 H   0  0  0  0  0  0
    3.7720   50.5854   20.7782 H   0  0  0  0  0  0
    3.2390   50.5469   22.4371 H   0  0  0  0  0  0
    3.0158   54.1488   22.9275 H   0  0  0  0  0  0
    2.7865   52.5764   23.6410 H   0  0  0  0  0  0
    1.1608   53.6734   21.2817 H   0  0  0  0  0  0
    0.6057   53.6962   22.9639 H   0  0  0  0  0  0
    4.7872   54.8948   22.1945 H   0  0  0  0  0  0
    6.3279   56.0605   20.6831 H   0  0  0  0  0  0
    6.9328   55.0350   18.5008 H   0  0  0  0  0  0
    5.9121   52.7532   17.9132 H   0  0  0  0  0  0
    4.6485   52.7442   28.9201 H   0  0  0  0  0  0
    6.7272   53.8788   28.2355 H   0  0  0  0  0  0
    6.7941   55.1388   26.1096 H   0  0  0  0  0  0
    4.7869   55.2965   24.6864 H   0  0  0  0  0  0
    2.6976   54.2054   25.3739 H   0  0  0  0  0  0
    4.5047   51.7757   19.4021 H   0  0  0  0  0  0
  1  6  2  0  0  0
  1  2  1  0  0  0
  1 41  1  0  0  0
  2  3  2  0  0  0
  2 42  1  0  0  0
  3  4  1  0  0  0
  3 43  1  0  0  0
  4  5  2  0  0  0
  4  7  1  0  0  0
  5  6  1  0  0  0
  5 44  1  0  0  0
  6 45  1  0  0  0
  7  8  1  0  0  0
  7 35  1  0  0  0
  7 46  1  0  0  0
  8  9  1  0  0  0
  8 47  1  0  0  0
  8 48  1  0  0  0
  9 10  1  0  0  0
  9 49  1  0  0  0
  9 50  1  0  0  0
 10 11  1  0  0  0
 10 51  1  0  0  0
 11 12  2  0  0  0
 11 13  1  0  0  0
 13 14  1  0  0  0
 13 19  1  0  0  0
 13 15  1  0  0  0
 15 16  1  0  0  0
 15 52  1  0  0  0
 15 53  1  0  0  0
 16 17  2  0  0  0
 16 54  1  0  0  0
 17 18  1  0  0  0
 17 55  1  0  0  0
 18 19  1  0  0  0
 18 56  1  0  0  0
 18 57  1  0  0  0
 19 20  1  0  0  0
 19 21  1  0  0  0
 21 22  2  0  0  0
 21 23  1  0  0  0
 23 28  1  0  0  0
 23 24  1  0  0  0
 24 25  1  0  0  0
 24 58  1  0  0  0
 24 59  1  0  0  0
 25 26  1  0  0  0
 25 60  1  0  0  0
 25 61  1  0  0  0
 26 27  1  0  0  0
 26 29  1  0  0  0
 27 28  1  0  0  0
 27 62  1  0  0  0
 27 63  1  0  0  0
 28 64  1  0  0  0
 28 65  1  0  0  0
 29 34  2  0  0  0
 29 30  1  0  0  0
 30 31  2  0  0  0
 30 66  1  0  0  0
 31 32  1  0  0  0
 31 67  1  0  0  0
 32 33  2  0  0  0
 32 68  1  0  0  0
 33 34  1  0  0  0
 33 69  1  0  0  0
 34 75  1  0  0  0
 35 40  2  0  0  0
 35 36  1  0  0  0
 36 37  2  0  0  0
 36 70  1  0  0  0
 37 38  1  0  0  0
 37 71  1  0  0  0
 38 39  2  0  0  0
 38 72  1  0  0  0
 39 40  1  0  0  0
 39 73  1  0  0  0
 40 74  1  0  0  0
M  CHG  1  34   1
M  END
> <i_i_glide_confnum>
474

> <i_i_glide_lignum>
4859

> <i_i_glide_posenum>
285

> <i_i_glide_rotatable_bonds>
10

> <i_m_Source_File_Index>
2724

> <b_m_subgroup_collapsed>
0

> <r_i_docking_score>
-5.58855

> <r_i_glide_ecoul>
-1.34858

> <r_i_glide_eff_state_penalty>
0

> <r_i_glide_einternal>
2.78624

> <r_i_glide_emodel>
-67.0243

> <r_i_glide_energy>
-49.3056

> <r_i_glide_erotb>
0.788488

> <r_i_glide_esite>
-0.135583

> <r_i_glide_evdw>
-47.957

> <r_i_glide_gscore>
-5.58855

> <r_i_glide_hbond>
-0.0999356

> <r_i_glide_ligand_efficiency>
-0.147067

> <r_i_glide_ligand_efficiency_ln>
-1.20506

> <r_i_glide_ligand_efficiency_sa>
-0.494436

> <r_i_glide_lipo>
-3.38258

> <r_i_glide_metal>
0

> <r_i_glide_rewards>
-0.158799

> <s_i_glide_gridfile>
wee1_glide-grid

> <s_m_Source_File>
wee1_decoys_glide_SP.sdf

> <s_m_Source_Path>
/Users/zhangxujun/Desktop

> <s_m_entry_id>
2999

> <s_m_entry_name>
wee1_decoys_glide_SP.2724

> <s_m_subgroup_title>
wee1_decoys_glide_SP

> <s_m_subgroupid>
wee1_decoys_glide_SP


$$$$
