ZINC36050191_5655
                    3D
 Schrodinger Suite 2024-2.
 58 60  0  0  1  0            999 V2000
   -5.5656   45.7133   28.3843 C   0  0  0  0  0  0
   -4.4631   46.5966   27.7760 C   0  0  0  0  0  0
   -3.9024   46.1017   26.4222 C   0  0  1  0  0  0
   -3.5340   45.0818   26.5611 H   0  0  0  0  0  0
   -5.0065   46.0797   25.3359 C   0  0  0  0  0  0
   -2.7529   46.9250   26.0514 N   0  0  0  0  0  0
   -2.1548   47.1734   24.8356 C   0  0  0  0  0  0
   -2.0956   46.0968   24.1334 O   0  5  0  0  0  0
   -1.7366   48.4202   24.5633 C   0  0  0  0  0  0
   -1.1039   48.9209   23.3483 C   0  0  0  0  0  0
   -1.2630   48.3520   22.1376 C   0  0  0  0  0  0
   -0.3617   49.1514   20.8502 S   0  0  0  0  0  0
    0.2895   50.2939   22.0393 C   0  0  0  0  0  0
    1.0896   51.2410   21.7383 N   0  0  0  0  0  0
    1.5584   52.0503   22.7317 C   0  0  0  0  0  0
    1.0821   52.0111   24.0178 C   0  0  0  0  0  0
   -0.0651   51.0169   24.3901 C   0  0  2  0  0  0
    0.2557   50.4211   25.2486 H   0  0  0  0  0  0
   -0.2662   50.0277   23.2896 N   0  0  0  0  0  0
   -1.3754   51.7240   24.7687 C   0  0  0  0  0  0
   -2.0687   52.4809   23.8218 C   0  0  0  0  0  0
   -3.2713   53.0909   24.1617 C   0  0  0  0  0  0
   -3.7966   52.9453   25.4491 C   0  0  0  0  0  0
   -3.0954   52.1928   26.3975 C   0  0  0  0  0  0
   -1.8844   51.5999   26.0646 C   0  0  0  0  0  0
   -5.1233   53.6121   25.8114 C   0  0  0  0  0  0
   -5.6959   53.0498   26.8797 F   0  0  0  0  0  0
   -4.8955   54.8958   26.0827 F   0  0  0  0  0  0
   -5.9864   53.5467   24.7988 F   0  0  0  0  0  0
    1.5849   52.8981   25.0904 C   0  0  0  0  0  0
    2.3104   53.8734   24.8874 O   0  0  0  0  0  0
    1.1529   52.5427   26.3306 O   0  0  0  0  0  0
    1.5157   53.2729   27.4966 C   0  0  0  0  0  0
    2.8930   52.8411   28.0242 C   0  0  0  0  0  0
    2.6911   52.9260   22.1994 C   0  0  0  0  0  0
   -5.8505   46.0955   29.3649 H   0  0  0  0  0  0
   -5.2201   44.6817   28.4777 H   0  0  0  0  0  0
   -6.4687   45.7089   27.7745 H   0  0  0  0  0  0
   -4.8438   47.6154   27.6647 H   0  0  0  0  0  0
   -3.6467   46.6640   28.4995 H   0  0  0  0  0  0
   -5.8522   45.4575   25.6268 H   0  0  0  0  0  0
   -5.3785   47.0866   25.1342 H   0  0  0  0  0  0
   -4.6464   45.6663   24.3927 H   0  0  0  0  0  0
   -2.2381   47.2635   26.8569 H   0  0  0  0  0  0
   -1.9084   49.1380   25.3470 H   0  0  0  0  0  0
   -1.8659   47.4840   21.9197 H   0  0  0  0  0  0
   -1.6744   52.5877   22.8227 H   0  0  0  0  0  0
   -3.7876   53.6839   23.4224 H   0  0  0  0  0  0
   -3.4835   52.0594   27.3961 H   0  0  0  0  0  0
   -1.3594   51.0153   26.8072 H   0  0  0  0  0  0
    1.4927   54.3481   27.3113 H   0  0  0  0  0  0
    0.7611   53.0761   28.2591 H   0  0  0  0  0  0
    3.1480   53.3863   28.9333 H   0  0  0  0  0  0
    2.9051   51.7766   28.2562 H   0  0  0  0  0  0
    3.6776   53.0307   27.2900 H   0  0  0  0  0  0
    3.5394   52.9347   22.8843 H   0  0  0  0  0  0
    3.0800   52.5993   21.2326 H   0  0  0  0  0  0
    2.3378   53.9536   22.0818 H   0  0  0  0  0  0
  1  2  1  0  0  0
  1 36  1  0  0  0
  1 37  1  0  0  0
  1 38  1  0  0  0
  2  3  1  0  0  0
  2 39  1  0  0  0
  2 40  1  0  0  0
  3  4  1  0  0  0
  3  5  1  0  0  0
  3  6  1  0  0  0
  5 41  1  0  0  0
  5 42  1  0  0  0
  5 43  1  0  0  0
  6  7  1  0  0  0
  6 44  1  0  0  0
  7  8  1  0  0  0
  7  9  2  0  0  0
  9 10  1  0  0  0
  9 45  1  0  0  0
 10 19  1  0  0  0
 10 11  2  0  0  0
 11 12  1  0  0  0
 11 46  1  0  0  0
 12 13  1  0  0  0
 13 19  1  0  0  0
 13 14  2  0  0  0
 14 15  1  0  0  0
 15 16  2  0  0  0
 15 35  1  0  0  0
 16 17  1  0  0  0
 16 30  1  0  0  0
 17 18  1  0  0  0
 17 19  1  0  0  0
 17 20  1  0  0  0
 20 25  2  0  0  0
 20 21  1  0  0  0
 21 22  2  0  0  0
 21 47  1  0  0  0
 22 23  1  0  0  0
 22 48  1  0  0  0
 23 24  2  0  0  0
 23 26  1  0  0  0
 24 25  1  0  0  0
 24 49  1  0  0  0
 25 50  1  0  0  0
 26 27  1  0  0  0
 26 28  1  0  0  0
 26 29  1  0  0  0
 30 31  2  0  0  0
 30 32  1  0  0  0
 32 33  1  0  0  0
 33 34  1  0  0  0
 33 51  1  0  0  0
 33 52  1  0  0  0
 34 53  1  0  0  0
 34 54  1  0  0  0
 34 55  1  0  0  0
 35 56  1  0  0  0
 35 57  1  0  0  0
 35 58  1  0  0  0
M  CHG  1   8  -1
M  END
> <i_i_glide_confnum>
67

> <i_i_glide_lignum>
5656

> <i_i_glide_posenum>
243

> <i_i_glide_rotatable_bonds>
9

> <i_m_Source_File_Index>
4971

> <b_m_subgroup_collapsed>
0

> <r_i_docking_score>
-3.44531

> <r_i_glide_ecoul>
-2.19094

> <r_i_glide_eff_state_penalty>
0

> <r_i_glide_einternal>
4.55561

> <r_i_glide_emodel>
-42.6325

> <r_i_glide_energy>
-35.5511

> <r_i_glide_erotb>
0.526965

> <r_i_glide_esite>
-0.102384

> <r_i_glide_evdw>
-33.3601

> <r_i_glide_gscore>
-3.44531

> <r_i_glide_hbond>
-0.160518

> <r_i_glide_ligand_efficiency>
-0.104403

> <r_i_glide_ligand_efficiency_ln>
-0.766218

> <r_i_glide_ligand_efficiency_sa>
-0.334877

> <r_i_glide_lipo>
-1.16953

> <r_i_glide_metal>
0

> <r_i_glide_rewards>
-0.543195

> <s_i_glide_gridfile>
wee1_glide-grid

> <s_m_Source_File>
wee1_decoys_glide_SP.sdf

> <s_m_Source_Path>
/Users/zhangxujun/Desktop

> <s_m_entry_id>
5246

> <s_m_entry_name>
wee1_decoys_glide_SP.4971

> <s_m_subgroup_title>
wee1_decoys_glide_SP

> <s_m_subgroupid>
wee1_decoys_glide_SP


$$$$
