ZINC38546994_2147
                    3D
 Schrodinger Suite 2024-2.
 50 53  0  0  1  0            999 V2000
    0.7601   50.1417   23.2058 C   0  0  0  0  0  0
    1.5735   50.2752   21.9331 C   0  0  0  0  0  0
    1.4522   49.3194   20.9191 C   0  0  0  0  0  0
    2.2427   49.4329   19.7746 C   0  0  0  0  0  0
    3.1044   50.4617   19.6776 N   0  3  0  0  0  0
    3.2602   51.4188   20.6134 C   0  0  0  0  0  0
    2.4728   51.3367   21.7696 C   0  0  0  0  0  0
    4.2211   52.4374   20.3356 N   0  0  0  0  0  0
    4.2140   53.8262   20.8379 C   0  0  1  0  0  0
    3.1797   54.0966   20.6206 H   0  0  0  0  0  0
    4.3306   54.0039   22.3612 C   0  0  0  0  0  0
    5.5327   53.8376   23.0635 C   0  0  0  0  0  0
    5.5842   54.0967   24.4348 C   0  0  0  0  0  0
    4.3979   54.4079   25.0973 C   0  0  0  0  0  0
    3.2062   54.5057   24.4580 N   0  0  0  0  0  0
    3.1977   54.3542   23.1101 C   0  0  0  0  0  0
    5.1029   54.7436   19.9768 C   0  0  0  0  0  0
    6.4193   55.1699   20.2548 C   0  0  0  0  0  0
    7.0371   55.9575   19.2879 C   0  0  0  0  0  0
    5.9263   56.2690   17.9955 S   0  0  0  0  0  0
    4.7151   55.2888   18.7460 C   0  0  0  0  0  0
    3.5127   55.1696   18.0814 N   0  0  0  0  0  0
    3.1027   54.0376   17.4765 C   0  0  0  0  0  0
    3.7472   52.9887   17.4264 O   0  0  0  0  0  0
    1.8003   54.1357   16.8708 C   0  0  0  0  0  0
    1.0355   53.1773   16.2160 C   0  0  0  0  0  0
   -0.1517   53.8000   15.8234 C   0  0  0  0  0  0
   -0.0602   55.1142   16.2489 C   0  0  0  0  0  0
    1.1225   55.3200   16.8819 O   0  0  0  0  0  0
    8.4452   56.5016   19.2589 C   0  0  0  0  0  0
    0.8640   49.1347   23.6122 H   0  0  0  0  0  0
    1.0886   50.8360   23.9811 H   0  0  0  0  0  0
   -0.2984   50.3067   22.9998 H   0  0  0  0  0  0
    0.7619   48.4960   21.0223 H   0  0  0  0  0  0
    2.2387   48.7421   18.9417 H   0  0  0  0  0  0
    2.5741   52.0476   22.5649 H   0  0  0  0  0  0
    4.8175   52.2799   19.5315 H   0  0  0  0  0  0
    6.4290   53.5076   22.5652 H   0  0  0  0  0  0
    6.5110   53.9938   24.9797 H   0  0  0  0  0  0
    4.3863   54.5651   26.1657 H   0  0  0  0  0  0
    2.2401   54.4970   22.6296 H   0  0  0  0  0  0
    6.9657   54.8964   21.1396 H   0  0  0  0  0  0
    2.9159   55.9799   18.0182 H   0  0  0  0  0  0
    1.3146   52.1472   16.0447 H   0  0  0  0  0  0
   -0.9732   53.3484   15.2865 H   0  0  0  0  0  0
   -0.7134   55.9713   16.1698 H   0  0  0  0  0  0
    8.9944   56.2815   20.1753 H   0  0  0  0  0  0
    9.0201   56.0703   18.4387 H   0  0  0  0  0  0
    8.4588   57.5825   19.1220 H   0  0  0  0  0  0
    3.7202   50.4966   18.8637 H   0  0  0  0  0  0
  1  2  1  0  0  0
  1 31  1  0  0  0
  1 32  1  0  0  0
  1 33  1  0  0  0
  2  7  2  0  0  0
  2  3  1  0  0  0
  3  4  2  0  0  0
  3 34  1  0  0  0
  4  5  1  0  0  0
  4 35  1  0  0  0
  5  6  2  0  0  0
  5 50  1  0  0  0
  6  7  1  0  0  0
  6  8  1  0  0  0
  7 36  1  0  0  0
  8  9  1  0  0  0
  8 37  1  0  0  0
  9 10  1  0  0  0
  9 11  1  0  0  0
  9 17  1  0  0  0
 11 16  2  0  0  0
 11 12  1  0  0  0
 12 13  2  0  0  0
 12 38  1  0  0  0
 13 14  1  0  0  0
 13 39  1  0  0  0
 14 15  2  0  0  0
 14 40  1  0  0  0
 15 16  1  0  0  0
 16 41  1  0  0  0
 17 21  2  0  0  0
 17 18  1  0  0  0
 18 19  2  0  0  0
 18 42  1  0  0  0
 19 20  1  0  0  0
 19 30  1  0  0  0
 20 21  1  0  0  0
 21 22  1  0  0  0
 22 23  1  0  0  0
 22 43  1  0  0  0
 23 24  2  0  0  0
 23 25  1  0  0  0
 25 29  1  0  0  0
 25 26  2  0  0  0
 26 27  1  0  0  0
 26 44  1  0  0  0
 27 28  2  0  0  0
 27 45  1  0  0  0
 28 29  1  0  0  0
 28 46  1  0  0  0
 30 47  1  0  0  0
 30 48  1  0  0  0
 30 49  1  0  0  0
M  CHG  1   5   1
M  END
> <i_i_glide_confnum>
191

> <i_i_glide_lignum>
2148

> <i_i_glide_posenum>
278

> <i_i_glide_rotatable_bonds>
7

> <i_m_Source_File_Index>
1624

> <b_m_subgroup_collapsed>
0

> <r_i_docking_score>
-4.01791

> <r_i_glide_ecoul>
-2.93457

> <r_i_glide_eff_state_penalty>
0

> <r_i_glide_einternal>
9.50315

> <r_i_glide_emodel>
-40.8802

> <r_i_glide_energy>
-34.686

> <r_i_glide_erotb>
0.836689

> <r_i_glide_esite>
-0.130217

> <r_i_glide_evdw>
-31.7514

> <r_i_glide_gscore>
-4.01791

> <r_i_glide_hbond>
-0.199475

> <r_i_glide_ligand_efficiency>
-0.138549

> <r_i_glide_ligand_efficiency_ln>
-0.919999

> <r_i_glide_ligand_efficiency_sa>
-0.425665

> <r_i_glide_lipo>
-1.87288

> <r_i_glide_metal>
0

> <r_i_glide_rewards>
-0.62427

> <s_i_glide_gridfile>
wee1_glide-grid

> <s_m_Source_File>
wee1_decoys_glide_SP.sdf

> <s_m_Source_Path>
/Users/zhangxujun/Desktop

> <s_m_entry_id>
1899

> <s_m_entry_name>
wee1_decoys_glide_SP.1624

> <s_m_subgroup_title>
wee1_decoys_glide_SP

> <s_m_subgroupid>
wee1_decoys_glide_SP


$$$$
