ZINC20532169_572
                    3D
 Schrodinger Suite 2024-2.
 67 70  0  0  1  0            999 V2000
   -8.3564   51.7087   24.8560 C   0  0  0  0  0  0
   -6.8682   52.0064   24.8109 C   0  0  0  0  0  0
   -6.0005   51.1469   24.1327 C   0  0  0  0  0  0
   -4.6335   51.4209   24.0820 C   0  0  0  0  0  0
   -4.1247   52.5689   24.7057 C   0  0  0  0  0  0
   -4.9923   53.4215   25.3916 C   0  0  0  0  0  0
   -6.3583   53.1479   25.4399 C   0  0  0  0  0  0
   -7.1792   53.9947   26.1038 F   0  0  0  0  0  0
   -2.7639   52.8967   24.7383 N   0  0  0  0  0  0
   -1.7931   52.5500   23.8764 C   0  0  0  0  0  0
   -1.9521   51.9811   22.7977 O   0  0  0  0  0  0
   -0.5961   52.8966   24.3746 N   0  0  0  0  0  0
    0.4864   51.9408   24.6249 C   0  0  2  0  0  0
    0.0099   51.1580   25.2181 H   0  0  0  0  0  0
    1.5742   52.5427   25.5597 C   0  0  0  0  0  0
    1.4899   52.0716   27.0337 C   0  0  0  0  0  0
    0.3417   52.6933   27.8651 C   0  0  0  0  0  0
   -0.1236   51.7411   28.9825 C   0  0  0  0  0  0
    0.7386   54.0590   28.4549 C   0  0  0  0  0  0
    1.0391   51.2812   23.3482 C   0  0  0  0  0  0
    1.8914   51.8914   22.3877 C   0  0  0  0  0  0
    2.2946   51.0073   21.3717 C   0  0  0  0  0  0
    1.5730   49.4464   21.5335 S   0  0  0  0  0  0
    0.7384   49.9690   22.9525 C   0  0  0  0  0  0
   -0.1831   49.1503   23.5579 N   0  0  0  0  0  0
   -1.4272   48.8359   23.0594 C   0  0  0  0  0  0
   -2.0984   48.0397   23.9745 C   0  0  0  0  0  0
   -1.2402   47.8490   25.0581 C   0  0  0  0  0  0
   -0.0593   48.5169   24.7710 C   0  0  0  0  0  0
    3.2886   51.3286   20.2652 C   0  0  0  0  0  0
    3.2632   52.8659   20.0945 N   0  3  1  0  0  0
    3.5753   53.5572   21.4401 C   0  0  0  0  0  0
    2.3769   53.3464   22.4007 C   0  0  0  0  0  0
    4.3087   53.2561   19.0252 C   0  0  0  0  0  0
   -8.9247   52.5905   24.5566 H   0  0  0  0  0  0
   -8.6345   50.8959   24.1837 H   0  0  0  0  0  0
   -8.6601   51.4467   25.8698 H   0  0  0  0  0  0
   -6.3796   50.2587   23.6471 H   0  0  0  0  0  0
   -3.9794   50.7311   23.5688 H   0  0  0  0  0  0
   -4.6186   54.3010   25.8957 H   0  0  0  0  0  0
   -2.4943   53.4838   25.5121 H   0  0  0  0  0  0
   -0.6088   53.6626   25.0280 H   0  0  0  0  0  0
    2.5605   52.2707   25.1898 H   0  0  0  0  0  0
    1.5678   53.6330   25.5217 H   0  0  0  0  0  0
    1.3989   50.9841   27.0455 H   0  0  0  0  0  0
    2.4419   52.2680   27.5315 H   0  0  0  0  0  0
   -0.5190   52.8457   27.2121 H   0  0  0  0  0  0
    0.6896   51.4927   29.6644 H   0  0  0  0  0  0
   -0.9303   52.1756   29.5738 H   0  0  0  0  0  0
   -0.5018   50.8096   28.5636 H   0  0  0  0  0  0
    1.5786   53.9641   29.1448 H   0  0  0  0  0  0
    1.0325   54.7676   27.6821 H   0  0  0  0  0  0
   -0.0889   54.4966   29.0112 H   0  0  0  0  0  0
   -1.7424   49.2410   22.1094 H   0  0  0  0  0  0
   -3.1061   47.6598   23.8785 H   0  0  0  0  0  0
   -1.4459   47.2962   25.9663 H   0  0  0  0  0  0
    0.8493   48.6112   25.3486 H   0  0  0  0  0  0
    3.0161   50.9057   19.2959 H   0  0  0  0  0  0
    4.3061   51.0264   20.5202 H   0  0  0  0  0  0
    3.7172   54.6194   21.2345 H   0  0  0  0  0  0
    4.5081   53.1267   21.8143 H   0  0  0  0  0  0
    2.6553   53.6939   23.3920 H   0  0  0  0  0  0
    1.5471   53.9783   22.0815 H   0  0  0  0  0  0
    5.2982   52.9607   19.3801 H   0  0  0  0  0  0
    4.0535   52.7254   18.1050 H   0  0  0  0  0  0
    4.2389   54.3351   18.8788 H   0  0  0  0  0  0
    2.3538   53.1826   19.7734 H   0  0  0  0  0  0
  1  2  1  0  0  0
  1 35  1  0  0  0
  1 36  1  0  0  0
  1 37  1  0  0  0
  2  7  2  0  0  0
  2  3  1  0  0  0
  3  4  2  0  0  0
  3 38  1  0  0  0
  4  5  1  0  0  0
  4 39  1  0  0  0
  5  6  2  0  0  0
  5  9  1  0  0  0
  6  7  1  0  0  0
  6 40  1  0  0  0
  7  8  1  0  0  0
  9 10  1  0  0  0
  9 41  1  0  0  0
 10 11  2  0  0  0
 10 12  1  0  0  0
 12 13  1  0  0  0
 12 42  1  0  0  0
 13 14  1  0  0  0
 13 15  1  0  0  0
 13 20  1  0  0  0
 15 16  1  0  0  0
 15 43  1  0  0  0
 15 44  1  0  0  0
 16 17  1  0  0  0
 16 45  1  0  0  0
 16 46  1  0  0  0
 17 18  1  0  0  0
 17 19  1  0  0  0
 17 47  1  0  0  0
 18 48  1  0  0  0
 18 49  1  0  0  0
 18 50  1  0  0  0
 19 51  1  0  0  0
 19 52  1  0  0  0
 19 53  1  0  0  0
 20 24  2  0  0  0
 20 21  1  0  0  0
 21 33  1  0  0  0
 21 22  2  0  0  0
 22 23  1  0  0  0
 22 30  1  0  0  0
 23 24  1  0  0  0
 24 25  1  0  0  0
 25 29  1  0  0  0
 25 26  1  0  0  0
 26 27  2  0  0  0
 26 54  1  0  0  0
 27 28  1  0  0  0
 27 55  1  0  0  0
 28 29  2  0  0  0
 28 56  1  0  0  0
 29 57  1  0  0  0
 30 31  1  0  0  0
 30 58  1  0  0  0
 30 59  1  0  0  0
 31 32  1  0  0  0
 31 34  1  0  0  0
 31 67  1  0  0  0
 32 33  1  0  0  0
 32 60  1  0  0  0
 32 61  1  0  0  0
 33 62  1  0  0  0
 33 63  1  0  0  0
 34 64  1  0  0  0
 34 65  1  0  0  0
 34 66  1  0  0  0
M  CHG  1  31   1
M  END
> <i_i_glide_confnum>
145

> <i_i_glide_lignum>
573

> <i_i_glide_posenum>
298

> <i_i_glide_rotatable_bonds>
9

> <i_m_Source_File_Index>
5378

> <b_m_subgroup_collapsed>
0

> <r_i_docking_score>
-1.20953

> <r_i_glide_ecoul>
-2.74216

> <r_i_glide_eff_state_penalty>
0

> <r_i_glide_einternal>
21.8049

> <r_i_glide_emodel>
-25.8539

> <r_i_glide_energy>
-38.8743

> <r_i_glide_erotb>
0.732643

> <r_i_glide_esite>
-0.00433372

> <r_i_glide_evdw>
-36.1321

> <r_i_glide_gscore>
-1.20953

> <r_i_glide_hbond>
0

> <r_i_glide_ligand_efficiency>
-0.0366523

> <r_i_glide_ligand_efficiency_ln>
-0.268992

> <r_i_glide_ligand_efficiency_sa>
-0.117563

> <r_i_glide_lipo>
-1.26404

> <r_i_glide_metal>
0

> <r_i_glide_rewards>
1.54413

> <s_i_glide_gridfile>
wee1_glide-grid

> <s_m_Source_File>
wee1_decoys_glide_SP.sdf

> <s_m_Source_Path>
/Users/zhangxujun/Desktop

> <s_m_entry_id>
5653

> <s_m_entry_name>
wee1_decoys_glide_SP.5378

> <s_m_subgroup_title>
wee1_decoys_glide_SP

> <s_m_subgroupid>
wee1_decoys_glide_SP


$$$$
