ZINC00675116_3146
                    3D
 Schrodinger Suite 2024-2.
 50 53  0  0  1  0            999 V2000
    0.5076   52.9055   31.1439 C   0  0  0  0  0  0
    1.7299   53.2863   30.5142 O   0  0  0  0  0  0
    1.8280   53.2719   29.1342 C   0  0  0  0  0  0
    0.7893   52.8415   28.2908 C   0  0  0  0  0  0
    0.9496   52.8517   26.9071 C   0  0  0  0  0  0
    2.1460   53.2967   26.3370 C   0  0  0  0  0  0
    3.1879   53.6990   27.1703 C   0  0  0  0  0  0
    3.0381   53.7035   28.5675 C   0  0  0  0  0  0
    4.0325   54.1201   29.4362 O   0  0  0  0  0  0
    5.2967   54.5053   28.9102 C   0  0  0  0  0  0
    2.3984   53.2935   24.9576 N   0  0  0  0  0  0
    1.5115   53.3962   23.9473 C   0  0  0  0  0  0
    0.3230   53.6954   24.0817 O   0  0  0  0  0  0
    2.0534   53.0725   22.6479 C   0  0  0  0  0  0
    3.3622   53.3239   22.1685 C   0  0  0  0  0  0
    3.3453   52.9124   20.8458 C   0  0  0  0  0  0
    2.0791   52.4113   20.6091 N   0  0  0  0  0  0
    1.3118   52.5379   21.6973 N   0  0  0  0  0  0
    1.5152   52.0540   19.2949 C   0  0  1  0  0  0
    0.9835   52.9385   18.9424 H   0  0  0  0  0  0
    2.7069   51.8026   18.3354 C   0  0  0  0  0  0
    3.8352   52.8615   18.4636 C   0  0  2  0  0  0
    4.6860   52.4959   17.8837 H   0  0  0  0  0  0
    4.3063   52.8965   19.8535 N   0  0  0  0  0  0
    3.5024   54.2302   17.8848 C   0  0  0  0  0  0
    2.4086   54.7592   17.2086 C   0  0  0  0  0  0
    2.7271   56.0761   16.8816 C   0  0  0  0  0  0
    4.0022   56.3017   17.3600 C   0  0  0  0  0  0
    4.4722   55.1820   17.9700 O   0  0  0  0  0  0
    5.1382   57.8276   17.2804 Br  0  0  0  0  0  0
    0.4805   50.8987   19.3239 C   0  0  0  0  0  0
    0.0935   50.5777   18.0880 F   0  0  0  0  0  0
    0.9849   49.7945   19.8753 F   0  0  0  0  0  0
   -0.6222   51.2283   19.9983 F   0  0  0  0  0  0
    4.8561   54.0964   23.0736 Br  0  0  0  0  0  0
    0.6203   52.9724   32.2264 H   0  0  0  0  0  0
    0.2336   51.8768   30.9090 H   0  0  0  0  0  0
   -0.3115   53.5637   30.8556 H   0  0  0  0  0  0
   -0.1465   52.4853   28.6891 H   0  0  0  0  0  0
    0.1396   52.4963   26.2883 H   0  0  0  0  0  0
    4.1124   54.0123   26.7134 H   0  0  0  0  0  0
    5.9051   54.8970   29.7197 H   0  0  0  0  0  0
    5.8223   53.6509   28.4764 H   0  0  0  0  0  0
    5.2195   55.2960   28.1658 H   0  0  0  0  0  0
    3.3617   53.1577   24.6937 H   0  0  0  0  0  0
    3.1045   50.8041   18.5278 H   0  0  0  0  0  0
    2.3575   51.7398   17.3049 H   0  0  0  0  0  0
    5.1738   53.3999   19.9669 H   0  0  0  0  0  0
    1.4907   54.2437   16.9689 H   0  0  0  0  0  0
    2.1088   56.7824   16.3476 H   0  0  0  0  0  0
  1  2  1  0  0  0
  1 36  1  0  0  0
  1 37  1  0  0  0
  1 38  1  0  0  0
  2  3  1  0  0  0
  3  8  2  0  0  0
  3  4  1  0  0  0
  4  5  2  0  0  0
  4 39  1  0  0  0
  5  6  1  0  0  0
  5 40  1  0  0  0
  6  7  2  0  0  0
  6 11  1  0  0  0
  7  8  1  0  0  0
  7 41  1  0  0  0
  8  9  1  0  0  0
  9 10  1  0  0  0
 10 42  1  0  0  0
 10 43  1  0  0  0
 10 44  1  0  0  0
 11 12  1  0  0  0
 11 45  1  0  0  0
 12 13  2  0  0  0
 12 14  1  0  0  0
 14 18  2  0  0  0
 14 15  1  0  0  0
 15 16  2  0  0  0
 15 35  1  0  0  0
 16 24  1  0  0  0
 16 17  1  0  0  0
 17 18  1  0  0  0
 17 19  1  0  0  0
 19 20  1  0  0  0
 19 21  1  0  0  0
 19 31  1  0  0  0
 21 22  1  0  0  0
 21 46  1  0  0  0
 21 47  1  0  0  0
 22 23  1  0  0  0
 22 24  1  0  0  0
 22 25  1  0  0  0
 24 48  1  0  0  0
 25 29  1  0  0  0
 25 26  2  0  0  0
 26 27  1  0  0  0
 26 49  1  0  0  0
 27 28  2  0  0  0
 27 50  1  0  0  0
 28 29  1  0  0  0
 28 30  1  0  0  0
 31 32  1  0  0  0
 31 33  1  0  0  0
 31 34  1  0  0  0
M  END
> <i_i_glide_confnum>
94

> <i_i_glide_lignum>
3147

> <i_i_glide_posenum>
299

> <i_i_glide_rotatable_bonds>
7

> <i_m_Source_File_Index>
3711

> <b_m_subgroup_collapsed>
0

> <r_i_docking_score>
-4.86398

> <r_i_glide_ecoul>
-5.34122

> <r_i_glide_eff_state_penalty>
0

> <r_i_glide_einternal>
6.34761

> <r_i_glide_emodel>
-54.855

> <r_i_glide_energy>
-45.0811

> <r_i_glide_erotb>
0.125717

> <r_i_glide_esite>
-0.0946771

> <r_i_glide_evdw>
-39.7399

> <r_i_glide_gscore>
-4.86398

> <r_i_glide_hbond>
-0.14369

> <r_i_glide_ligand_efficiency>
-0.147393

> <r_i_glide_ligand_efficiency_ln>
-1.08172

> <r_i_glide_ligand_efficiency_sa>
-0.472769

> <r_i_glide_lipo>
-1.65052

> <r_i_glide_metal>
0

> <r_i_glide_rewards>
-0.312631

> <s_i_glide_gridfile>
wee1_glide-grid

> <s_m_Source_File>
wee1_decoys_glide_SP.sdf

> <s_m_Source_Path>
/Users/zhangxujun/Desktop

> <s_m_entry_id>
3986

> <s_m_entry_name>
wee1_decoys_glide_SP.3711

> <s_m_subgroup_title>
wee1_decoys_glide_SP

> <s_m_subgroupid>
wee1_decoys_glide_SP


$$$$
