ZINC17113598_5844
                    3D
 Schrodinger Suite 2024-2.
 47 50  0  0  1  0            999 V2000
    0.2207   49.0878   23.2895 C   0  0  0  0  0  0
   -0.1013   49.0417   21.7816 C   0  0  0  0  0  0
   -1.2324   50.0219   21.4203 C   0  0  0  0  0  0
    1.3469   49.1357   20.6590 S   0  0  0  0  0  0
    2.0514   50.7643   20.9731 C   0  0  0  0  0  0
    3.0485   51.1011   20.0817 N   0  0  0  0  0  0
    3.7548   52.2564   20.3072 C   0  0  0  0  0  0
    3.4601   53.0967   21.3291 C   0  0  0  0  0  0
    2.2127   52.8176   22.0816 C   0  0  0  0  0  0
    1.6846   51.5206   21.9384 N   0  0  0  0  0  0
    1.6685   53.7229   22.7031 O   0  0  0  0  0  0
    4.3907   54.3189   21.6335 C   0  0  2  0  0  0
    3.8079   55.2398   21.6689 H   0  0  0  0  0  0
    5.4148   54.5361   20.4375 C   0  0  0  0  0  0
    6.3036   55.7330   20.4064 C   0  0  0  0  0  0
    7.2293   55.9305   19.1944 C   0  0  0  0  0  0
    7.6903   54.6022   18.5870 C   0  0  0  0  0  0
    6.4859   53.7176   18.2418 C   0  0  0  0  0  0
    5.5044   53.6392   19.4130 C   0  0  0  0  0  0
    4.7610   52.4967   19.4315 N   0  0  0  0  0  0
    6.3044   56.5865   21.2817 O   0  0  0  0  0  0
    4.9735   54.3001   23.0710 C   0  0  0  0  0  0
    4.1480   54.4967   24.1925 C   0  0  0  0  0  0
    4.6541   54.4524   25.4860 C   0  0  0  0  0  0
    6.0092   54.2316   25.6773 C   0  0  0  0  0  0
    6.8502   54.0968   24.5804 C   0  0  0  0  0  0
    6.3408   54.1200   23.2923 C   0  0  0  0  0  0
    6.7044   54.0967   27.4407 Br  0  0  0  0  0  0
   -0.6090   48.6976   23.8798 H   0  0  0  0  0  0
    0.4037   50.1001   23.6470 H   0  0  0  0  0  0
    1.1023   48.4967   23.5302 H   0  0  0  0  0  0
   -0.4956   48.0425   21.5919 H   0  0  0  0  0  0
   -2.1187   49.8417   22.0296 H   0  0  0  0  0  0
   -0.9390   51.0598   21.5767 H   0  0  0  0  0  0
   -1.5278   49.9135   20.3764 H   0  0  0  0  0  0
    6.6417   56.4699   18.4510 H   0  0  0  0  0  0
    8.0656   56.5742   19.4679 H   0  0  0  0  0  0
    8.2828   54.7863   17.6897 H   0  0  0  0  0  0
    8.3596   54.0967   19.2817 H   0  0  0  0  0  0
    6.9084   52.7291   18.0485 H   0  0  0  0  0  0
    5.9772   54.0084   17.3218 H   0  0  0  0  0  0
    5.0188   51.7456   18.7889 H   0  0  0  0  0  0
    3.1092   54.7490   24.0968 H   0  0  0  0  0  0
    3.9986   54.5918   26.3329 H   0  0  0  0  0  0
    7.9044   53.9692   24.7045 H   0  0  0  0  0  0
    7.0358   53.9983   22.4817 H   0  0  0  0  0  0
    3.2821   50.4967   19.3053 H   0  0  0  0  0  0
  1  2  1  0  0  0
  1 29  1  0  0  0
  1 30  1  0  0  0
  1 31  1  0  0  0
  2  3  1  0  0  0
  2  4  1  0  0  0
  2 32  1  0  0  0
  3 33  1  0  0  0
  3 34  1  0  0  0
  3 35  1  0  0  0
  4  5  1  0  0  0
  5 10  2  0  0  0
  5  6  1  0  0  0
  6  7  1  0  0  0
  6 47  1  0  0  0
  7  8  2  0  0  0
  7 20  1  0  0  0
  8  9  1  0  0  0
  8 12  1  0  0  0
  9 10  1  0  0  0
  9 11  2  0  0  0
 12 13  1  0  0  0
 12 22  1  0  0  0
 12 14  1  0  0  0
 14 15  1  0  0  0
 14 19  2  0  0  0
 15 21  2  0  0  0
 15 16  1  0  0  0
 16 17  1  0  0  0
 16 36  1  0  0  0
 16 37  1  0  0  0
 17 18  1  0  0  0
 17 38  1  0  0  0
 17 39  1  0  0  0
 18 40  1  0  0  0
 18 41  1  0  0  0
 18 19  1  0  0  0
 19 20  1  0  0  0
 20 42  1  0  0  0
 22 27  2  0  0  0
 22 23  1  0  0  0
 23 24  2  0  0  0
 23 43  1  0  0  0
 24 25  1  0  0  0
 24 44  1  0  0  0
 25 26  2  0  0  0
 25 28  1  0  0  0
 26 27  1  0  0  0
 26 45  1  0  0  0
 27 46  1  0  0  0
M  END
> <i_i_glide_confnum>
5

> <i_i_glide_lignum>
5845

> <i_i_glide_posenum>
125

> <i_i_glide_rotatable_bonds>
3

> <i_m_Source_File_Index>
454

> <b_m_subgroup_collapsed>
0

> <r_i_docking_score>
-5.93953

> <r_i_glide_ecoul>
-7.57519

> <r_i_glide_eff_state_penalty>
0

> <r_i_glide_einternal>
4.73696

> <r_i_glide_emodel>
-57.1879

> <r_i_glide_energy>
-43.3224

> <r_i_glide_erotb>
0.200923

> <r_i_glide_esite>
-0.140199

> <r_i_glide_evdw>
-35.7473

> <r_i_glide_gscore>
-5.93953

> <r_i_glide_hbond>
-0.245046

> <r_i_glide_ligand_efficiency>
-0.219983

> <r_i_glide_ligand_efficiency_ln>
-1.38262

> <r_i_glide_ligand_efficiency_sa>
-0.659948

> <r_i_glide_lipo>
-2.25345

> <r_i_glide_metal>
0

> <r_i_glide_rewards>
-0.578119

> <s_i_glide_gridfile>
wee1_glide-grid

> <s_m_Source_File>
wee1_decoys_glide_SP.sdf

> <s_m_Source_Path>
/Users/zhangxujun/Desktop

> <s_m_entry_id>
729

> <s_m_entry_name>
wee1_decoys_glide_SP.454

> <s_m_subgroup_title>
wee1_decoys_glide_SP

> <s_m_subgroupid>
wee1_decoys_glide_SP


$$$$
