ZINC29037886_6189
                    3D
 Schrodinger Suite 2024-2.
 62 65  0  0  1  0            999 V2000
    1.4850   54.8609   28.2069 C   0  0  0  0  0  0
    1.9639   53.8167   27.1787 C   0  0  0  0  0  0
    1.4339   52.4014   27.4859 C   0  0  0  0  0  0
    3.4810   53.8746   26.9019 C   0  0  0  0  0  0
    3.8894   54.1588   25.5907 C   0  0  0  0  0  0
    5.2402   54.2550   25.2318 C   0  0  0  0  0  0
    6.1988   54.0968   26.2381 C   0  0  0  0  0  0
    5.8229   53.7999   27.5456 C   0  0  0  0  0  0
    4.4740   53.6628   27.8841 C   0  0  0  0  0  0
    4.1553   53.2589   29.2484 C   0  0  0  0  0  0
    3.9016   52.9322   30.3296 N   0  0  0  0  0  0
    5.6623   54.4574   23.8190 C   0  0  0  0  0  0
    4.9223   53.9739   22.8004 C   0  0  0  0  0  0
    5.1199   54.2686   21.3156 C   0  0  0  0  0  0
    6.2439   55.2113   21.0778 N   0  0  0  0  0  0
    7.3110   55.3668   22.1025 C   0  0  0  0  0  0
    6.7104   55.5086   23.5194 C   0  0  0  0  0  0
    6.3054   55.9610   19.9349 C   0  0  0  0  0  0
    7.1043   56.8966   19.8228 O   0  0  0  0  0  0
    5.4600   55.5830   18.6690 C   0  0  2  0  0  0
    4.5842   54.9822   18.9091 H   0  0  0  0  0  0
    6.3094   55.0052   17.4746 C   0  0  2  0  0  0
    7.2080   55.6085   17.3199 H   0  0  0  0  0  0
    5.4861   54.9414   16.1533 C   0  0  0  0  0  0
    4.8826   56.3218   15.8271 C   0  0  0  0  0  0
    5.6845   57.2759   14.9618 C   0  0  0  0  0  0
    4.4509   56.6042   14.4021 C   0  0  0  0  0  0
    4.0406   56.9201   16.9621 C   0  0  0  0  0  0
    4.9255   56.9595   18.2173 N   0  3  0  0  0  0
    6.8237   53.5746   17.7482 C   0  0  0  0  0  0
    6.3042   52.8981   18.6330 O   0  0  0  0  0  0
    7.8218   53.1330   16.9581 N   0  0  0  0  0  0
    8.3049   51.8304   17.1533 O   0  0  0  0  0  0
    1.9841   55.8222   28.0823 H   0  0  0  0  0  0
    0.4140   55.0304   28.0946 H   0  0  0  0  0  0
    1.6520   54.5364   29.2344 H   0  0  0  0  0  0
    1.4790   54.0962   26.2441 H   0  0  0  0  0  0
    1.6723   51.7054   26.6843 H   0  0  0  0  0  0
    1.8348   51.9920   28.4127 H   0  0  0  0  0  0
    0.3475   52.4064   27.5852 H   0  0  0  0  0  0
    3.1372   54.3034   24.8288 H   0  0  0  0  0  0
    7.2503   54.1400   26.0051 H   0  0  0  0  0  0
    6.5972   53.6465   28.2852 H   0  0  0  0  0  0
    4.1116   53.3028   23.0441 H   0  0  0  0  0  0
    5.3508   53.3106   20.8495 H   0  0  0  0  0  0
    4.1739   54.6021   20.8876 H   0  0  0  0  0  0
    7.9299   56.2518   21.9444 H   0  0  0  0  0  0
    7.9612   54.4967   22.0777 H   0  0  0  0  0  0
    6.3044   56.4968   23.6752 H   0  0  0  0  0  0
    7.5038   55.4638   24.2570 H   0  0  0  0  0  0
    6.1027   54.6376   15.3029 H   0  0  0  0  0  0
    4.6250   54.2766   16.2619 H   0  0  0  0  0  0
    5.6517   58.3456   15.1779 H   0  0  0  0  0  0
    6.6663   56.9662   14.6033 H   0  0  0  0  0  0
    4.5689   55.8239   13.6497 H   0  0  0  0  0  0
    3.5550   57.2024   14.2286 H   0  0  0  0  0  0
    3.1685   56.3094   17.2094 H   0  0  0  0  0  0
    3.7142   57.9465   16.7730 H   0  0  0  0  0  0
    4.4112   57.3892   18.9728 H   0  0  0  0  0  0
    8.2811   53.6165   16.1991 H   0  0  0  0  0  0
    7.8208   51.3032   16.5116 H   0  0  0  0  0  0
    5.7194   57.5599   18.0333 H   0  0  0  0  0  0
  1  2  1  0  0  0
  1 34  1  0  0  0
  1 35  1  0  0  0
  1 36  1  0  0  0
  2  3  1  0  0  0
  2  4  1  0  0  0
  2 37  1  0  0  0
  3 38  1  0  0  0
  3 39  1  0  0  0
  3 40  1  0  0  0
  4  9  2  0  0  0
  4  5  1  0  0  0
  5  6  2  0  0  0
  5 41  1  0  0  0
  6  7  1  0  0  0
  6 12  1  0  0  0
  7  8  2  0  0  0
  7 42  1  0  0  0
  8  9  1  0  0  0
  8 43  1  0  0  0
  9 10  1  0  0  0
 10 11  3  0  0  0
 12 17  1  0  0  0
 12 13  2  0  0  0
 13 14  1  0  0  0
 13 44  1  0  0  0
 14 15  1  0  0  0
 14 45  1  0  0  0
 14 46  1  0  0  0
 15 16  1  0  0  0
 15 18  1  0  0  0
 16 17  1  0  0  0
 16 47  1  0  0  0
 16 48  1  0  0  0
 17 49  1  0  0  0
 17 50  1  0  0  0
 18 19  2  0  0  0
 18 20  1  0  0  0
 20 21  1  0  0  0
 20 29  1  0  0  0
 20 22  1  0  0  0
 22 23  1  0  0  0
 22 24  1  0  0  0
 22 30  1  0  0  0
 24 25  1  0  0  0
 24 51  1  0  0  0
 24 52  1  0  0  0
 25 27  1  0  0  0
 25 26  1  0  0  0
 25 28  1  0  0  0
 26 27  1  0  0  0
 26 53  1  0  0  0
 26 54  1  0  0  0
 27 55  1  0  0  0
 27 56  1  0  0  0
 28 29  1  0  0  0
 28 57  1  0  0  0
 28 58  1  0  0  0
 29 59  1  0  0  0
 29 62  1  0  0  0
 30 31  2  0  0  0
 30 32  1  0  0  0
 32 33  1  0  0  0
 32 60  1  0  0  0
 33 61  1  0  0  0
M  CHG  1  29   1
M  END
> <i_i_glide_confnum>
47

> <i_i_glide_lignum>
6190

> <i_i_glide_posenum>
311

> <i_i_glide_rotatable_bonds>
8

> <i_m_Source_File_Index>
5793

> <b_m_subgroup_collapsed>
0

> <r_i_docking_score>
-7.0156

> <r_i_glide_ecoul>
-4.77565

> <r_i_glide_eff_state_penalty>
0

> <r_i_glide_einternal>
6.90488

> <r_i_glide_emodel>
-62.7483

> <r_i_glide_energy>
-43.4925

> <r_i_glide_erotb>
0.552477

> <r_i_glide_esite>
-0.0259115

> <r_i_glide_evdw>
-38.7168

> <r_i_glide_gscore>
-7.0156

> <r_i_glide_hbond>
-0.388662

> <r_i_glide_ligand_efficiency>
-0.22631

> <r_i_glide_ligand_efficiency_ln>
-1.58223

> <r_i_glide_ligand_efficiency_sa>
-0.710925

> <r_i_glide_lipo>
-3.18229

> <r_i_glide_metal>
0

> <r_i_glide_rewards>
-1.31903

> <s_i_glide_gridfile>
wee1_glide-grid

> <s_m_Source_File>
wee1_decoys_glide_SP.sdf

> <s_m_Source_Path>
/Users/zhangxujun/Desktop

> <s_m_entry_id>
6068

> <s_m_entry_name>
wee1_decoys_glide_SP.5793

> <s_m_subgroup_title>
wee1_decoys_glide_SP

> <s_m_subgroupid>
wee1_decoys_glide_SP


$$$$
