ZINC35890866_1134
                    3D
 Schrodinger Suite 2024-2.
 67 70  0  0  1  0            999 V2000
    5.8169   54.4999   20.1185 C   0  0  0  0  0  0
    5.2616   54.3579   21.5226 C   0  0  0  0  0  0
    3.9063   54.0964   21.7073 C   0  0  0  0  0  0
    3.3899   53.9686   22.9942 C   0  0  0  0  0  0
    4.2143   54.0967   24.1230 C   0  0  0  0  0  0
    5.5794   54.3633   23.9159 C   0  0  0  0  0  0
    6.0991   54.4956   22.6285 C   0  0  0  0  0  0
    3.6550   53.9138   25.5015 C   0  0  0  0  0  0
    4.3778   54.3305   26.5492 N   0  3  0  0  0  0
    3.9685   54.1843   27.8193 C   0  0  0  0  0  0
    2.7169   53.5700   28.0779 C   0  0  0  0  0  0
    1.9494   53.1522   26.9400 C   0  0  0  0  0  0
    2.4568   53.3053   25.6794 N   0  0  0  0  0  0
    0.6678   52.5656   26.9591 N   0  0  0  0  0  0
   -0.4122   52.8898   27.9082 C   0  0  0  0  0  0
   -1.3204   51.6987   28.2535 C   0  0  0  0  0  0
   -1.9583   51.1766   27.0243 N   0  0  0  0  0  0
   -1.3950   51.5789   25.7128 C   0  0  0  0  0  0
    0.1425   51.7491   25.8347 C   0  0  0  0  0  0
   -3.2420   50.7213   27.1072 C   0  0  0  0  0  0
   -3.9685   50.9119   28.0881 O   0  0  0  0  0  0
   -3.6452   49.9935   26.0412 N   0  0  0  0  0  0
   -4.7904   49.1849   25.9331 C   0  0  0  0  0  0
   -5.2376   48.4195   27.0226 C   0  0  0  0  0  0
   -6.3542   47.5929   26.8946 C   0  0  0  0  0  0
   -7.0297   47.5218   25.6809 C   0  0  0  0  0  0
   -6.5817   48.2622   24.5877 C   0  0  0  0  0  0
   -5.4570   49.0956   24.6924 C   0  0  0  0  0  0
   -4.9745   49.8851   23.4655 C   0  0  0  0  0  0
   -5.0281   51.1911   23.7180 F   0  0  0  0  0  0
   -3.7129   49.5580   23.1857 F   0  0  0  0  0  0
   -5.7074   49.6465   22.3761 F   0  0  0  0  0  0
    2.2737   53.2992   29.5334 C   0  0  0  0  0  0
    3.3082   52.5934   30.4375 C   0  0  0  0  0  0
    1.6685   54.5576   30.1949 C   0  0  0  0  0  0
    4.9710   54.6556   28.8595 C   0  0  0  0  0  0
    5.1726   55.1476   19.5207 H   0  0  0  0  0  0
    6.8156   54.9417   20.1120 H   0  0  0  0  0  0
    5.8575   53.5280   19.6239 H   0  0  0  0  0  0
    3.2498   53.9959   20.8545 H   0  0  0  0  0  0
    2.3328   53.7628   23.0999 H   0  0  0  0  0  0
    6.2644   54.4546   24.7428 H   0  0  0  0  0  0
    7.1555   54.6995   22.4988 H   0  0  0  0  0  0
   -0.1309   53.4258   28.7998 H   0  0  0  0  0  0
   -1.0356   53.6161   27.3892 H   0  0  0  0  0  0
   -0.7841   50.9117   28.7886 H   0  0  0  0  0  0
   -2.0701   52.0843   28.9462 H   0  0  0  0  0  0
   -1.7905   52.5483   25.4089 H   0  0  0  0  0  0
   -1.5306   50.8151   24.9456 H   0  0  0  0  0  0
    0.5323   52.0631   24.8662 H   0  0  0  0  0  0
    0.5380   50.7491   26.0345 H   0  0  0  0  0  0
   -3.0221   49.9518   25.2513 H   0  0  0  0  0  0
   -4.7106   48.4463   27.9665 H   0  0  0  0  0  0
   -6.6905   47.0068   27.7389 H   0  0  0  0  0  0
   -7.8969   46.8834   25.5831 H   0  0  0  0  0  0
   -7.1197   48.1765   23.6539 H   0  0  0  0  0  0
    1.5110   52.5278   29.4914 H   0  0  0  0  0  0
    3.8715   51.8360   29.8899 H   0  0  0  0  0  0
    2.8125   52.0936   31.2693 H   0  0  0  0  0  0
    4.0207   53.2828   30.8869 H   0  0  0  0  0  0
    0.9855   55.0857   29.5314 H   0  0  0  0  0  0
    1.1028   54.2997   31.0923 H   0  0  0  0  0  0
    2.4277   55.2824   30.4760 H   0  0  0  0  0  0
    5.4944   53.8016   29.2806 H   0  0  0  0  0  0
    5.7417   55.2970   28.4317 H   0  0  0  0  0  0
    4.4976   55.2217   29.6602 H   0  0  0  0  0  0
    5.2725   54.7587   26.3713 H   0  0  0  0  0  0
  1  2  1  0  0  0
  1 37  1  0  0  0
  1 38  1  0  0  0
  1 39  1  0  0  0
  2  7  2  0  0  0
  2  3  1  0  0  0
  3  4  2  0  0  0
  3 40  1  0  0  0
  4  5  1  0  0  0
  4 41  1  0  0  0
  5  6  2  0  0  0
  5  8  1  0  0  0
  6  7  1  0  0  0
  6 42  1  0  0  0
  7 43  1  0  0  0
  8 13  2  0  0  0
  8  9  1  0  0  0
  9 10  2  0  0  0
  9 67  1  0  0  0
 10 11  1  0  0  0
 10 36  1  0  0  0
 11 12  2  0  0  0
 11 33  1  0  0  0
 12 13  1  0  0  0
 12 14  1  0  0  0
 14 19  1  0  0  0
 14 15  1  0  0  0
 15 16  1  0  0  0
 15 44  1  0  0  0
 15 45  1  0  0  0
 16 17  1  0  0  0
 16 46  1  0  0  0
 16 47  1  0  0  0
 17 18  1  0  0  0
 17 20  1  0  0  0
 18 19  1  0  0  0
 18 48  1  0  0  0
 18 49  1  0  0  0
 19 50  1  0  0  0
 19 51  1  0  0  0
 20 21  2  0  0  0
 20 22  1  0  0  0
 22 23  1  0  0  0
 22 52  1  0  0  0
 23 28  2  0  0  0
 23 24  1  0  0  0
 24 25  2  0  0  0
 24 53  1  0  0  0
 25 26  1  0  0  0
 25 54  1  0  0  0
 26 27  2  0  0  0
 26 55  1  0  0  0
 27 28  1  0  0  0
 27 56  1  0  0  0
 28 29  1  0  0  0
 29 30  1  0  0  0
 29 31  1  0  0  0
 29 32  1  0  0  0
 33 34  1  0  0  0
 33 35  1  0  0  0
 33 57  1  0  0  0
 34 58  1  0  0  0
 34 59  1  0  0  0
 34 60  1  0  0  0
 35 61  1  0  0  0
 35 62  1  0  0  0
 35 63  1  0  0  0
 36 64  1  0  0  0
 36 65  1  0  0  0
 36 66  1  0  0  0
M  CHG  1   9   1
M  END
> <i_i_glide_confnum>
683

> <i_i_glide_lignum>
1135

> <i_i_glide_posenum>
254

> <i_i_glide_rotatable_bonds>
7

> <i_m_Source_File_Index>
2233

> <b_m_subgroup_collapsed>
0

> <r_i_docking_score>
-4.40469

> <r_i_glide_ecoul>
0.0118993

> <r_i_glide_eff_state_penalty>
0

> <r_i_glide_einternal>
11.998

> <r_i_glide_emodel>
-42.7212

> <r_i_glide_energy>
-35.721

> <r_i_glide_erotb>
0.410493

> <r_i_glide_esite>
-0.186266

> <r_i_glide_evdw>
-35.7329

> <r_i_glide_gscore>
-4.40469

> <r_i_glide_hbond>
0

> <r_i_glide_ligand_efficiency>
-0.122353

> <r_i_glide_ligand_efficiency_ln>
-0.960985

> <r_i_glide_ligand_efficiency_sa>
-0.403999

> <r_i_glide_lipo>
-2.40119

> <r_i_glide_metal>
0

> <r_i_glide_rewards>
-0.442868

> <s_i_glide_gridfile>
wee1_glide-grid

> <s_m_Source_File>
wee1_decoys_glide_SP.sdf

> <s_m_Source_Path>
/Users/zhangxujun/Desktop

> <s_m_entry_id>
2508

> <s_m_entry_name>
wee1_decoys_glide_SP.2233

> <s_m_subgroup_title>
wee1_decoys_glide_SP

> <s_m_subgroupid>
wee1_decoys_glide_SP


$$$$
