ZINC06131406_2995
                    3D
 Schrodinger Suite 2024-2.
 46 48  0  0  1  0            999 V2000
    4.3293   54.4980   29.2180 C   0  0  0  0  0  0
    3.1738   54.0409   29.9153 O   0  0  0  0  0  0
    2.1680   53.3960   29.2115 C   0  0  0  0  0  0
    2.1394   53.2890   27.8064 C   0  0  0  0  0  0
    1.1091   52.6020   27.1428 C   0  0  0  0  0  0
    0.0980   52.0201   27.9099 C   0  0  0  0  0  0
    0.1041   52.1261   29.2953 C   0  0  0  0  0  0
    1.1253   52.8140   29.9493 C   0  0  0  0  0  0
    1.1045   52.8962   31.3210 O   0  0  0  0  0  0
   -1.2956   51.2967   30.2735 Br  0  0  0  0  0  0
    1.0594   52.4361   25.6852 C   0  0  0  0  0  0
    1.9279   52.9100   24.8728 N   0  0  0  0  0  0
    1.8738   52.6434   23.5156 N   0  0  0  0  0  0
    0.8618   52.2053   22.7147 C   0  0  0  0  0  0
   -0.3333   52.2132   23.0237 O   0  0  0  0  0  0
    1.2880   51.6058   21.3884 C   0  0  0  0  0  0
    0.6078   50.4616   20.9386 C   0  0  0  0  0  0
    0.9780   49.8173   19.7599 C   0  0  0  0  0  0
    2.0322   50.3129   19.0008 C   0  0  0  0  0  0
    2.7039   51.4586   19.4160 C   0  0  0  0  0  0
    2.3485   52.1140   20.5989 C   0  0  0  0  0  0
    3.0240   53.2966   20.9339 N   0  0  0  0  0  0
    4.6852   53.3046   21.4805 S   0  0  0  0  0  0
    4.7502   54.2159   22.6266 O   0  0  0  0  0  0
    5.1048   51.9044   21.5713 O   0  0  0  0  0  0
    5.5628   54.0872   20.1072 C   0  0  0  0  0  0
    5.8559   53.5005   18.8812 C   0  0  0  0  0  0
    6.5823   54.3476   18.0383 C   0  0  0  0  0  0
    6.8548   55.5772   18.6221 C   0  0  0  0  0  0
    6.2212   55.6916   20.2323 S   0  0  0  0  0  0
    5.0495   54.8990   29.9314 H   0  0  0  0  0  0
    4.8227   53.6867   28.6792 H   0  0  0  0  0  0
    4.0807   55.2959   28.5173 H   0  0  0  0  0  0
    2.9274   53.7314   27.2148 H   0  0  0  0  0  0
   -0.7043   51.4641   27.4421 H   0  0  0  0  0  0
    0.3208   52.4961   31.7159 H   0  0  0  0  0  0
    0.2217   51.8317   25.3481 H   0  0  0  0  0  0
    2.7307   52.8932   23.0412 H   0  0  0  0  0  0
   -0.2080   50.0472   21.5150 H   0  0  0  0  0  0
    0.4529   48.9306   19.4362 H   0  0  0  0  0  0
    2.3335   49.8182   18.0871 H   0  0  0  0  0  0
    3.5058   51.8317   18.7988 H   0  0  0  0  0  0
    2.4644   54.1202   21.1143 H   0  0  0  0  0  0
    5.5711   52.4968   18.6053 H   0  0  0  0  0  0
    6.9017   54.0696   17.0441 H   0  0  0  0  0  0
    7.3975   56.4056   18.1904 H   0  0  0  0  0  0
  1  2  1  0  0  0
  1 31  1  0  0  0
  1 32  1  0  0  0
  1 33  1  0  0  0
  2  3  1  0  0  0
  3  8  2  0  0  0
  3  4  1  0  0  0
  4  5  2  0  0  0
  4 34  1  0  0  0
  5  6  1  0  0  0
  5 11  1  0  0  0
  6  7  2  0  0  0
  6 35  1  0  0  0
  7  8  1  0  0  0
  7 10  1  0  0  0
  8  9  1  0  0  0
  9 36  1  0  0  0
 11 12  2  0  0  0
 11 37  1  0  0  0
 12 13  1  0  0  0
 13 14  1  0  0  0
 13 38  1  0  0  0
 14 15  2  0  0  0
 14 16  1  0  0  0
 16 21  2  0  0  0
 16 17  1  0  0  0
 17 18  2  0  0  0
 17 39  1  0  0  0
 18 19  1  0  0  0
 18 40  1  0  0  0
 19 20  2  0  0  0
 19 41  1  0  0  0
 20 21  1  0  0  0
 20 42  1  0  0  0
 21 22  1  0  0  0
 22 23  1  0  0  0
 22 43  1  0  0  0
 23 24  2  0  0  0
 23 25  2  0  0  0
 23 26  1  0  0  0
 26 30  1  0  0  0
 26 27  2  0  0  0
 27 28  1  0  0  0
 27 44  1  0  0  0
 28 29  2  0  0  0
 28 45  1  0  0  0
 29 30  1  0  0  0
 29 46  1  0  0  0
M  END
> <i_i_glide_confnum>
97

> <i_i_glide_lignum>
2996

> <i_i_glide_posenum>
275

> <i_i_glide_rotatable_bonds>
9

> <i_m_Source_File_Index>
4404

> <b_m_subgroup_collapsed>
0

> <r_i_docking_score>
-4.91529

> <r_i_glide_ecoul>
-11.3461

> <r_i_glide_eff_state_penalty>
0

> <r_i_glide_einternal>
13.7486

> <r_i_glide_emodel>
-59.5528

> <r_i_glide_energy>
-51.2112

> <r_i_glide_erotb>
0.550509

> <r_i_glide_esite>
-0.0147099

> <r_i_glide_evdw>
-39.8651

> <r_i_glide_gscore>
-4.91529

> <r_i_glide_hbond>
-0.534262

> <r_i_glide_ligand_efficiency>
-0.163843

> <r_i_glide_ligand_efficiency_ln>
-1.11681

> <r_i_glide_ligand_efficiency_sa>
-0.509098

> <r_i_glide_lipo>
-1.02367

> <r_i_glide_metal>
0

> <r_i_glide_rewards>
-0.197988

> <s_i_glide_gridfile>
wee1_glide-grid

> <s_m_Source_File>
wee1_decoys_glide_SP.sdf

> <s_m_Source_Path>
/Users/zhangxujun/Desktop

> <s_m_entry_id>
4679

> <s_m_entry_name>
wee1_decoys_glide_SP.4404

> <s_m_subgroup_title>
wee1_decoys_glide_SP

> <s_m_subgroupid>
wee1_decoys_glide_SP


$$$$
