ZINC01830025_5770
                    3D
 Schrodinger Suite 2024-2.
 67 71  0  0  1  0            999 V2000
    1.4885   51.4536   18.0603 C   0  0  0  0  0  0
    1.1115   51.6889   19.5239 C   0  0  0  0  0  0
   -0.1433   51.8392   20.0552 C   0  0  0  0  0  0
   -0.2971   52.0964   21.5761 C   0  0  2  0  0  0
   -1.0215   52.8967   21.7249 H   0  0  0  0  0  0
    1.0241   52.5314   22.1325 N   0  0  0  0  0  0
    1.1008   53.0883   23.3678 C   0  0  0  0  0  0
    0.1196   53.3008   24.0831 O   0  0  0  0  0  0
    2.4790   53.3718   23.7225 C   0  0  0  0  0  0
    2.7722   53.8022   24.9758 C   0  0  0  0  0  0
    4.0888   54.0987   25.5903 C   0  0  0  0  0  0
    5.1638   54.5901   24.8372 C   0  0  0  0  0  0
    6.3937   54.8525   25.4359 C   0  0  0  0  0  0
    6.5617   54.6264   26.7995 C   0  0  0  0  0  0
    5.5075   54.1410   27.5613 C   0  0  0  0  0  0
    4.2601   53.8709   26.9710 C   0  0  0  0  0  0
    3.1753   53.3881   27.6837 O   0  0  0  0  0  0
    3.3037   53.1325   29.0771 C   0  0  0  0  0  0
    3.5533   52.9864   22.3651 S   0  0  0  0  0  0
    2.1808   52.3955   21.4403 C   0  0  0  0  0  0
    2.2441   51.9190   20.2509 N   0  0  0  0  0  0
   -0.8806   50.9131   22.3643 C   0  0  0  0  0  0
   -2.1971   50.9921   22.8272 C   0  0  0  0  0  0
   -2.7402   49.9496   23.5662 C   0  0  0  0  0  0
   -1.9698   48.8175   23.8498 C   0  0  0  0  0  0
   -0.6439   48.7493   23.4215 C   0  0  0  0  0  0
   -0.1024   49.7889   22.6691 C   0  0  0  0  0  0
   -2.4964   47.7793   24.5822 O   0  0  0  0  0  0
   -3.4767   47.0012   24.0367 C   0  0  0  0  0  0
   -3.8771   47.0434   22.8695 O   0  0  0  0  0  0
   -3.9917   46.0634   25.0237 C   0  0  0  0  0  0
   -3.6647   45.8066   26.3533 C   0  0  0  0  0  0
   -4.4882   44.7582   26.7669 C   0  0  0  0  0  0
   -5.2964   44.4362   25.6916 C   0  0  0  0  0  0
   -4.9845   45.2195   24.6290 O   0  0  0  0  0  0
   -1.4218   51.6970   19.3205 C   0  0  0  0  0  0
   -2.4904   52.0954   19.7937 O   0  0  0  0  0  0
   -1.3316   51.1129   18.1059 O   0  0  0  0  0  0
   -2.4367   51.1200   17.2041 C   0  0  0  0  0  0
   -2.4738   52.3902   16.3332 C   0  0  0  0  0  0
   -2.7725   53.5336   17.1269 O   0  0  0  0  0  0
   -2.6911   54.7540   16.4088 C   0  0  0  0  0  0
    0.8306   51.9925   17.3806 H   0  0  0  0  0  0
    2.5017   51.7868   17.8236 H   0  0  0  0  0  0
    1.4359   50.3918   17.8313 H   0  0  0  0  0  0
    1.9439   53.9757   25.6530 H   0  0  0  0  0  0
    5.0570   54.7918   23.7826 H   0  0  0  0  0  0
    7.2119   55.2303   24.8388 H   0  0  0  0  0  0
    7.5079   54.8307   27.2777 H   0  0  0  0  0  0
    5.6789   53.9828   28.6161 H   0  0  0  0  0  0
    2.3507   52.7698   29.4591 H   0  0  0  0  0  0
    4.0544   52.3699   29.2795 H   0  0  0  0  0  0
    3.5536   54.0414   29.6286 H   0  0  0  0  0  0
   -2.8061   51.8584   22.6145 H   0  0  0  0  0  0
   -3.7599   50.0121   23.9176 H   0  0  0  0  0  0
   -0.0371   47.8926   23.6720 H   0  0  0  0  0  0
    0.9208   49.7269   22.3284 H   0  0  0  0  0  0
   -2.9133   46.3142   26.9484 H   0  0  0  0  0  0
   -4.4957   44.2883   27.7386 H   0  0  0  0  0  0
   -6.0808   43.7091   25.5401 H   0  0  0  0  0  0
   -2.2506   50.2814   16.5314 H   0  0  0  0  0  0
   -3.4062   50.8911   17.6503 H   0  0  0  0  0  0
   -1.5068   52.5088   15.8382 H   0  0  0  0  0  0
   -3.2177   52.2714   15.5436 H   0  0  0  0  0  0
   -2.8842   55.5889   17.0823 H   0  0  0  0  0  0
   -1.6989   54.9019   15.9828 H   0  0  0  0  0  0
   -3.4283   54.7937   15.6058 H   0  0  0  0  0  0
  1  2  1  0  0  0
  1 43  1  0  0  0
  1 44  1  0  0  0
  1 45  1  0  0  0
  2 21  1  0  0  0
  2  3  2  0  0  0
  3  4  1  0  0  0
  3 36  1  0  0  0
  4  5  1  0  0  0
  4  6  1  0  0  0
  4 22  1  0  0  0
  6 20  1  0  0  0
  6  7  1  0  0  0
  7  8  2  0  0  0
  7  9  1  0  0  0
  9 10  2  0  0  0
  9 19  1  0  0  0
 10 11  1  0  0  0
 10 46  1  0  0  0
 11 16  2  0  0  0
 11 12  1  0  0  0
 12 13  2  0  0  0
 12 47  1  0  0  0
 13 14  1  0  0  0
 13 48  1  0  0  0
 14 15  2  0  0  0
 14 49  1  0  0  0
 15 16  1  0  0  0
 15 50  1  0  0  0
 16 17  1  0  0  0
 17 18  1  0  0  0
 18 51  1  0  0  0
 18 52  1  0  0  0
 18 53  1  0  0  0
 19 20  1  0  0  0
 20 21  2  0  0  0
 22 27  2  0  0  0
 22 23  1  0  0  0
 23 24  2  0  0  0
 23 54  1  0  0  0
 24 25  1  0  0  0
 24 55  1  0  0  0
 25 26  2  0  0  0
 25 28  1  0  0  0
 26 27  1  0  0  0
 26 56  1  0  0  0
 27 57  1  0  0  0
 28 29  1  0  0  0
 29 30  2  0  0  0
 29 31  1  0  0  0
 31 35  1  0  0  0
 31 32  2  0  0  0
 32 33  1  0  0  0
 32 58  1  0  0  0
 33 34  2  0  0  0
 33 59  1  0  0  0
 34 35  1  0  0  0
 34 60  1  0  0  0
 36 37  2  0  0  0
 36 38  1  0  0  0
 38 39  1  0  0  0
 39 40  1  0  0  0
 39 61  1  0  0  0
 39 62  1  0  0  0
 40 41  1  0  0  0
 40 63  1  0  0  0
 40 64  1  0  0  0
 41 42  1  0  0  0
 42 65  1  0  0  0
 42 66  1  0  0  0
 42 67  1  0  0  0
M  END
> <i_i_glide_confnum>
121

> <i_i_glide_lignum>
5771

> <i_i_glide_posenum>
329

> <i_i_glide_rotatable_bonds>
11

> <i_m_Source_File_Index>
2319

> <b_m_subgroup_collapsed>
0

> <r_i_docking_score>
-3.8578

> <r_i_glide_ecoul>
-3.693

> <r_i_glide_eff_state_penalty>
0

> <r_i_glide_einternal>
2.64111

> <r_i_glide_emodel>
-52.8475

> <r_i_glide_energy>
-47.4492

> <r_i_glide_erotb>
0.47454

> <r_i_glide_esite>
-0.0407828

> <r_i_glide_evdw>
-43.7562

> <r_i_glide_gscore>
-3.8578

> <r_i_glide_hbond>
-0.357261

> <r_i_glide_ligand_efficiency>
-0.0940928

> <r_i_glide_ligand_efficiency_ln>
-0.818446

> <r_i_glide_ligand_efficiency_sa>
-0.324452

> <r_i_glide_lipo>
-2.64936

> <r_i_glide_metal>
0

> <r_i_glide_rewards>
1.45682

> <s_i_glide_gridfile>
wee1_glide-grid

> <s_m_Source_File>
wee1_decoys_glide_SP.sdf

> <s_m_Source_Path>
/Users/zhangxujun/Desktop

> <s_m_entry_id>
2594

> <s_m_entry_name>
wee1_decoys_glide_SP.2319

> <s_m_subgroup_title>
wee1_decoys_glide_SP

> <s_m_subgroupid>
wee1_decoys_glide_SP


$$$$
