ZINC12429020_2447
                    3D
 Schrodinger Suite 2024-2.
 61 64  0  0  1  0            999 V2000
    4.2561   54.0886   24.5665 C   0  0  0  0  0  0
    4.3432   54.1033   23.1743 C   0  0  0  0  0  0
    5.5304   54.4964   22.5596 C   0  0  0  0  0  0
    6.6533   54.7934   23.3394 C   0  0  0  0  0  0
    6.5836   54.7238   24.7244 C   0  0  0  0  0  0
    5.3829   54.3825   25.3572 C   0  0  0  0  0  0
    5.3458   54.3078   26.8668 C   0  0  0  0  0  0
    6.3871   54.2198   27.5229 O   0  0  0  0  0  0
    4.1312   54.3948   27.4436 N   0  0  0  0  0  0
    3.8631   54.3603   28.8860 C   0  0  0  0  0  0
    2.5315   55.0881   29.2040 C   0  0  0  0  0  0
    1.3054   54.3741   28.5890 C   0  0  0  0  0  0
    1.2215   52.9011   29.0408 C   0  0  0  0  0  0
    2.5501   52.1467   28.8319 C   0  0  0  0  0  0
    3.7521   52.9129   29.4281 C   0  0  0  0  0  0
    5.5796   54.5345   21.1566 N   0  0  0  0  0  0
    6.2766   55.4124   20.3996 C   0  0  0  0  0  0
    6.8402   56.4154   20.8564 O   0  0  0  0  0  0
    6.4320   55.0537   18.9053 C   0  0  2  0  0  0
    5.8093   54.1839   18.6963 H   0  0  0  0  0  0
    7.9115   54.7890   18.5431 C   0  0  0  0  0  0
    8.1428   55.5180   17.2367 C   0  0  0  0  0  0
    7.2708   56.7584   17.3720 C   0  0  0  0  0  0
    6.0592   56.2226   18.0479 N   0  0  0  0  0  0
    4.5385   56.1445   17.1467 S   0  0  0  0  0  0
    4.3817   57.3952   16.3985 O   0  0  0  0  0  0
    3.5049   55.6992   18.0820 O   0  0  0  0  0  0
    4.7616   54.8267   15.9571 C   0  0  0  0  0  0
    5.3150   55.1076   14.7059 C   0  0  0  0  0  0
    5.5010   54.0739   13.7908 C   0  0  0  0  0  0
    5.1322   52.7719   14.1283 C   0  0  0  0  0  0
    4.5783   52.4959   15.3763 C   0  0  0  0  0  0
    4.3939   53.5229   16.2966 C   0  0  0  0  0  0
    5.3200   51.7707   13.2422 F   0  0  0  0  0  0
    3.3153   53.8007   25.0130 H   0  0  0  0  0  0
    3.4709   53.8604   22.5808 H   0  0  0  0  0  0
    7.5836   55.0685   22.8721 H   0  0  0  0  0  0
    7.4811   54.9306   25.2879 H   0  0  0  0  0  0
    3.3246   54.2912   26.8488 H   0  0  0  0  0  0
    4.6690   54.8887   29.4023 H   0  0  0  0  0  0
    2.3955   55.1673   30.2826 H   0  0  0  0  0  0
    2.5746   56.1177   28.8430 H   0  0  0  0  0  0
    0.3903   54.8958   28.8670 H   0  0  0  0  0  0
    1.3573   54.4206   27.5000 H   0  0  0  0  0  0
    0.9499   52.8635   30.0971 H   0  0  0  0  0  0
    0.4178   52.3924   28.5049 H   0  0  0  0  0  0
    2.4835   51.1550   29.2784 H   0  0  0  0  0  0
    2.7081   51.9915   27.7632 H   0  0  0  0  0  0
    4.6745   52.3706   29.2155 H   0  0  0  0  0  0
    3.6701   52.9296   30.5140 H   0  0  0  0  0  0
    4.9705   53.8879   20.6729 H   0  0  0  0  0  0
    8.1104   53.7232   18.4309 H   0  0  0  0  0  0
    8.6125   55.1557   19.2984 H   0  0  0  0  0  0
    7.8187   54.9137   16.3890 H   0  0  0  0  0  0
    9.1921   55.7647   17.0727 H   0  0  0  0  0  0
    7.0566   57.3485   16.4796 H   0  0  0  0  0  0
    7.7561   57.4719   18.0423 H   0  0  0  0  0  0
    5.5970   56.1173   14.4438 H   0  0  0  0  0  0
    5.9263   54.2765   12.8204 H   0  0  0  0  0  0
    4.2955   51.4860   15.6343 H   0  0  0  0  0  0
    3.9655   53.2988   17.2628 H   0  0  0  0  0  0
  1  6  2  0  0  0
  1  2  1  0  0  0
  1 35  1  0  0  0
  2  3  2  0  0  0
  2 36  1  0  0  0
  3  4  1  0  0  0
  3 16  1  0  0  0
  4  5  2  0  0  0
  4 37  1  0  0  0
  5  6  1  0  0  0
  5 38  1  0  0  0
  6  7  1  0  0  0
  7  8  2  0  0  0
  7  9  1  0  0  0
  9 10  1  0  0  0
  9 39  1  0  0  0
 10 15  1  0  0  0
 10 11  1  0  0  0
 10 40  1  0  0  0
 11 12  1  0  0  0
 11 41  1  0  0  0
 11 42  1  0  0  0
 12 13  1  0  0  0
 12 43  1  0  0  0
 12 44  1  0  0  0
 13 14  1  0  0  0
 13 45  1  0  0  0
 13 46  1  0  0  0
 14 15  1  0  0  0
 14 47  1  0  0  0
 14 48  1  0  0  0
 15 49  1  0  0  0
 15 50  1  0  0  0
 16 17  1  0  0  0
 16 51  1  0  0  0
 17 18  2  0  0  0
 17 19  1  0  0  0
 19 20  1  0  0  0
 19 24  1  0  0  0
 19 21  1  0  0  0
 21 22  1  0  0  0
 21 52  1  0  0  0
 21 53  1  0  0  0
 22 23  1  0  0  0
 22 54  1  0  0  0
 22 55  1  0  0  0
 23 24  1  0  0  0
 23 56  1  0  0  0
 23 57  1  0  0  0
 24 25  1  0  0  0
 25 26  2  0  0  0
 25 27  2  0  0  0
 25 28  1  0  0  0
 28 33  2  0  0  0
 28 29  1  0  0  0
 29 30  2  0  0  0
 29 58  1  0  0  0
 30 31  1  0  0  0
 30 59  1  0  0  0
 31 32  2  0  0  0
 31 34  1  0  0  0
 32 33  1  0  0  0
 32 60  1  0  0  0
 33 61  1  0  0  0
M  END
> <i_i_glide_confnum>
153

> <i_i_glide_lignum>
2448

> <i_i_glide_posenum>
202

> <i_i_glide_rotatable_bonds>
8

> <i_m_Source_File_Index>
5632

> <b_m_subgroup_collapsed>
0

> <r_i_docking_score>
-6.02223

> <r_i_glide_ecoul>
-2.14816

> <r_i_glide_eff_state_penalty>
0

> <r_i_glide_einternal>
5.11875

> <r_i_glide_emodel>
-66.2542

> <r_i_glide_energy>
-49.6388

> <r_i_glide_erotb>
0.721606

> <r_i_glide_esite>
-0.0161581

> <r_i_glide_evdw>
-47.4907

> <r_i_glide_gscore>
-6.02223

> <r_i_glide_hbond>
-0.214648

> <r_i_glide_ligand_efficiency>
-0.182492

> <r_i_glide_ligand_efficiency_ln>
-1.33931

> <r_i_glide_ligand_efficiency_sa>
-0.585349

> <r_i_glide_lipo>
-2.98399

> <r_i_glide_metal>
0

> <r_i_glide_rewards>
-0.83228

> <s_i_glide_gridfile>
wee1_glide-grid

> <s_m_Source_File>
wee1_decoys_glide_SP.sdf

> <s_m_Source_Path>
/Users/zhangxujun/Desktop

> <s_m_entry_id>
5907

> <s_m_entry_name>
wee1_decoys_glide_SP.5632

> <s_m_subgroup_title>
wee1_decoys_glide_SP

> <s_m_subgroupid>
wee1_decoys_glide_SP


$$$$
