ZINC66558653_1403
                    3D
 Schrodinger Suite 2024-2.
 41 43  0  0  1  0            999 V2000
   -5.8839   47.7850   29.9070 C   0  0  0  0  0  0
   -5.8184   48.8180   28.7972 C   0  0  0  0  0  0
   -6.9433   49.0721   28.0120 C   0  0  0  0  0  0
   -6.8871   50.0280   26.9994 C   0  0  0  0  0  0
   -5.7081   50.7368   26.7699 C   0  0  0  0  0  0
   -4.5641   50.5020   27.5482 C   0  0  0  0  0  0
   -4.6387   49.5303   28.5662 C   0  0  0  0  0  0
   -3.2979   51.2961   27.2918 C   0  0  0  0  0  0
   -3.2938   52.2385   26.4906 O   0  0  0  0  0  0
   -2.2174   50.8968   27.9924 N   0  0  0  0  0  0
   -1.0049   51.5478   27.8025 N   0  0  0  0  0  0
   -0.3884   52.0335   28.9040 C   0  0  0  0  0  0
   -0.8901   52.0965   30.0280 O   0  0  0  0  0  0
    0.9398   52.5349   28.6627 C   0  0  0  0  0  0
    1.4704   52.9246   27.4378 C   0  0  0  0  0  0
    2.7560   53.3397   27.6877 N   0  0  0  0  0  0
    2.9968   53.2613   29.0046 N   0  0  0  0  0  0
    1.8444   52.7788   29.6001 N   0  0  0  0  0  0
    3.7295   53.7595   26.7531 C   0  0  0  0  0  0
    5.0916   53.8270   27.0816 C   0  0  0  0  0  0
    6.0084   54.0967   26.0654 C   0  0  0  0  0  0
    5.5563   54.2938   24.7541 C   0  0  0  0  0  0
    4.1795   54.2488   24.5176 C   0  0  0  0  0  0
    3.2757   53.9889   25.4896 N   0  0  0  0  0  0
    6.5435   54.5081   23.6196 C   0  0  0  0  0  0
    7.1044   55.6964   23.7859 F   0  0  0  0  0  0
    5.9627   54.4757   22.4193 F   0  0  0  0  0  0
    7.4877   53.5701   23.6574 F   0  0  0  0  0  0
   -6.8018   47.9089   30.4841 H   0  0  0  0  0  0
   -5.8835   46.7787   29.4881 H   0  0  0  0  0  0
   -5.0485   47.8825   30.6032 H   0  0  0  0  0  0
   -7.8616   48.5290   28.1845 H   0  0  0  0  0  0
   -7.7592   50.2206   26.3914 H   0  0  0  0  0  0
   -5.6937   51.4737   25.9786 H   0  0  0  0  0  0
   -3.7826   49.3109   29.1924 H   0  0  0  0  0  0
   -2.0805   49.9097   28.2102 H   0  0  0  0  0  0
   -0.4786   51.1588   27.0340 H   0  0  0  0  0  0
    1.0695   52.9175   26.4348 H   0  0  0  0  0  0
    5.4434   53.6277   28.0835 H   0  0  0  0  0  0
    7.0647   54.1134   26.2917 H   0  0  0  0  0  0
    3.7716   54.3990   23.5278 H   0  0  0  0  0  0
  1  2  1  0  0  0
  1 29  1  0  0  0
  1 30  1  0  0  0
  1 31  1  0  0  0
  2  7  2  0  0  0
  2  3  1  0  0  0
  3  4  2  0  0  0
  3 32  1  0  0  0
  4  5  1  0  0  0
  4 33  1  0  0  0
  5  6  2  0  0  0
  5 34  1  0  0  0
  6  7  1  0  0  0
  6  8  1  0  0  0
  7 35  1  0  0  0
  8  9  2  0  0  0
  8 10  1  0  0  0
 10 11  1  0  0  0
 10 36  1  0  0  0
 11 12  1  0  0  0
 11 37  1  0  0  0
 12 13  2  0  0  0
 12 14  1  0  0  0
 14 18  1  0  0  0
 14 15  2  0  0  0
 15 16  1  0  0  0
 15 38  1  0  0  0
 16 17  1  0  0  0
 16 19  1  0  0  0
 17 18  2  0  0  0
 19 24  2  0  0  0
 19 20  1  0  0  0
 20 21  2  0  0  0
 20 39  1  0  0  0
 21 22  1  0  0  0
 21 40  1  0  0  0
 22 23  2  0  0  0
 22 25  1  0  0  0
 23 24  1  0  0  0
 23 41  1  0  0  0
 25 26  1  0  0  0
 25 27  1  0  0  0
 25 28  1  0  0  0
M  END
> <i_i_glide_confnum>
69

> <i_i_glide_lignum>
1404

> <i_i_glide_posenum>
253

> <i_i_glide_rotatable_bonds>
7

> <i_m_Source_File_Index>
5344

> <b_m_subgroup_collapsed>
0

> <r_i_docking_score>
-5.48731

> <r_i_glide_ecoul>
-5.22858

> <r_i_glide_eff_state_penalty>
0

> <r_i_glide_einternal>
8.59517

> <r_i_glide_emodel>
-50.2992

> <r_i_glide_energy>
-38.8941

> <r_i_glide_erotb>
0.768101

> <r_i_glide_esite>
-0.294375

> <r_i_glide_evdw>
-33.6656

> <r_i_glide_gscore>
-5.48731

> <r_i_glide_hbond>
-0.16

> <r_i_glide_ligand_efficiency>
-0.195975

> <r_i_glide_ligand_efficiency_ln>
-1.26663

> <r_i_glide_ligand_efficiency_sa>
-0.595097

> <r_i_glide_lipo>
-1.71539

> <r_i_glide_metal>
0

> <r_i_glide_rewards>
-1.61808

> <s_i_glide_gridfile>
wee1_glide-grid

> <s_m_Source_File>
wee1_decoys_glide_SP.sdf

> <s_m_Source_Path>
/Users/zhangxujun/Desktop

> <s_m_entry_id>
5619

> <s_m_entry_name>
wee1_decoys_glide_SP.5344

> <s_m_subgroup_title>
wee1_decoys_glide_SP

> <s_m_subgroupid>
wee1_decoys_glide_SP


$$$$
