ZINC09124401_988
                    3D
 Schrodinger Suite 2024-2.
 57 62  0  0  1  0            999 V2000
   -2.0980   45.9550   21.7745 C   0  0  0  0  0  0
   -2.9408   46.5924   22.8954 C   0  0  2  0  0  0
   -3.7822   45.9384   23.1281 H   0  0  0  0  0  0
   -3.4112   48.0186   22.5543 C   0  0  0  0  0  0
   -2.4144   48.8604   23.2806 C   0  0  0  0  0  0
   -2.1879   50.2369   23.3066 C   0  0  0  0  0  0
   -1.1925   50.7688   24.1467 C   0  0  0  0  0  0
   -0.5008   49.9028   25.0160 C   0  0  0  0  0  0
   -0.7543   48.5295   25.0095 C   0  0  0  0  0  0
   -1.7046   48.0314   24.1265 C   0  0  0  0  0  0
   -2.0579   46.7081   24.0169 O   0  0  0  0  0  0
   -0.8942   52.2364   24.0996 C   0  0  0  0  0  0
    0.4796   52.6827   24.3177 C   0  0  0  0  0  0
    1.4203   52.9232   23.1766 C   0  0  1  0  0  0
    1.0658   53.7405   22.5459 H   0  0  0  0  0  0
    2.6538   53.3736   23.8391 N   0  0  0  0  0  0
    2.5107   53.3659   25.1984 C   0  0  0  0  0  0
    3.3594   53.6966   26.0338 O   0  0  0  0  0  0
    1.1548   52.8965   25.4498 C   0  0  0  0  0  0
    0.7603   52.7616   26.6694 O   0  5  0  0  0  0
    3.7760   53.7917   23.0971 C   0  0  0  0  0  0
    3.7463   53.8727   21.7935 N   0  0  0  0  0  0
    4.8941   54.3770   21.2777 C   0  0  0  0  0  0
    5.1151   54.6080   19.9132 C   0  0  0  0  0  0
    6.3236   55.1911   19.5258 C   0  0  0  0  0  0
    7.2967   55.5344   20.4644 C   0  0  0  0  0  0
    7.1049   55.2968   21.8251 C   0  0  0  0  0  0
    5.8979   54.7043   22.2262 C   0  0  0  0  0  0
    5.3142   54.2707   23.8296 S   0  0  0  0  0  0
    8.4524   56.0963   20.0489 F   0  0  0  0  0  0
    1.5976   51.6882   22.2795 C   0  0  0  0  0  0
    1.9402   50.4557   22.8408 C   0  0  0  0  0  0
    2.0291   49.3246   22.0426 C   0  0  0  0  0  0
    1.7983   49.4042   20.6754 C   0  0  0  0  0  0
    1.4700   50.6432   20.1036 C   0  0  0  0  0  0
    1.3635   51.7785   20.9053 C   0  0  0  0  0  0
    1.9124   48.2262   19.9681 O   0  0  0  0  0  0
    2.2614   48.3231   18.5951 C   0  0  0  0  0  0
   -1.7191   53.0512   23.6824 O   0  0  0  0  0  0
   -2.6920   45.8089   20.8721 H   0  0  0  0  0  0
   -1.7078   44.9827   22.0758 H   0  0  0  0  0  0
   -1.2450   46.5827   21.5124 H   0  0  0  0  0  0
   -3.4708   48.1997   21.4805 H   0  0  0  0  0  0
   -4.4021   48.1896   22.9763 H   0  0  0  0  0  0
   -2.7590   50.8855   22.6569 H   0  0  0  0  0  0
    0.2457   50.2778   25.7013 H   0  0  0  0  0  0
   -0.2152   47.8817   25.6817 H   0  0  0  0  0  0
    4.3600   54.3560   19.1827 H   0  0  0  0  0  0
    6.5113   55.3836   18.4789 H   0  0  0  0  0  0
    7.8735   55.5612   22.5357 H   0  0  0  0  0  0
    2.1242   50.3665   23.9005 H   0  0  0  0  0  0
    2.3028   48.3810   22.4817 H   0  0  0  0  0  0
    1.2866   50.7352   19.0441 H   0  0  0  0  0  0
    1.1033   52.7270   20.4576 H   0  0  0  0  0  0
    2.5637   47.3465   18.2169 H   0  0  0  0  0  0
    1.4271   48.6773   17.9887 H   0  0  0  0  0  0
    3.1043   49.0025   18.4818 H   0  0  0  0  0  0
  1  2  1  0  0  0
  1 40  1  0  0  0
  1 41  1  0  0  0
  1 42  1  0  0  0
  2  3  1  0  0  0
  2 11  1  0  0  0
  2  4  1  0  0  0
  4  5  1  0  0  0
  4 43  1  0  0  0
  4 44  1  0  0  0
  5 10  2  0  0  0
  5  6  1  0  0  0
  6  7  2  0  0  0
  6 45  1  0  0  0
  7  8  1  0  0  0
  7 12  1  0  0  0
  8  9  2  0  0  0
  8 46  1  0  0  0
  9 10  1  0  0  0
  9 47  1  0  0  0
 10 11  1  0  0  0
 12 13  1  0  0  0
 12 39  2  0  0  0
 13 19  2  0  0  0
 13 14  1  0  0  0
 14 16  1  0  0  0
 14 31  1  0  0  0
 14 15  1  0  0  0
 16 21  1  0  0  0
 16 17  1  0  0  0
 17 18  2  0  0  0
 17 19  1  0  0  0
 19 20  1  0  0  0
 21 29  1  0  0  0
 21 22  2  0  0  0
 22 23  1  0  0  0
 23 28  2  0  0  0
 23 24  1  0  0  0
 24 25  2  0  0  0
 24 48  1  0  0  0
 25 26  1  0  0  0
 25 49  1  0  0  0
 26 27  2  0  0  0
 26 30  1  0  0  0
 27 28  1  0  0  0
 27 50  1  0  0  0
 28 29  1  0  0  0
 31 36  2  0  0  0
 31 32  1  0  0  0
 32 33  2  0  0  0
 32 51  1  0  0  0
 33 34  1  0  0  0
 33 52  1  0  0  0
 34 35  2  0  0  0
 34 37  1  0  0  0
 35 36  1  0  0  0
 35 53  1  0  0  0
 36 54  1  0  0  0
 37 38  1  0  0  0
 38 55  1  0  0  0
 38 56  1  0  0  0
 38 57  1  0  0  0
M  CHG  1  20  -1
M  END
> <i_i_glide_confnum>
38

> <i_i_glide_lignum>
989

> <i_i_glide_posenum>
160

> <i_i_glide_rotatable_bonds>
5

> <i_m_Source_File_Index>
2267

> <b_m_subgroup_collapsed>
0

> <r_i_docking_score>
-5.24189

> <r_i_glide_ecoul>
-4.45549

> <r_i_glide_eff_state_penalty>
0

> <r_i_glide_einternal>
7.86419

> <r_i_glide_emodel>
-58.5062

> <r_i_glide_energy>
-47.5616

> <r_i_glide_erotb>
0.308829

> <r_i_glide_esite>
0

> <r_i_glide_evdw>
-43.1061

> <r_i_glide_gscore>
-5.24189

> <r_i_glide_hbond>
0

> <r_i_glide_ligand_efficiency>
-0.141673

> <r_i_glide_ligand_efficiency_ln>
-1.13684

> <r_i_glide_ligand_efficiency_sa>
-0.472085

> <r_i_glide_lipo>
-1.92709

> <r_i_glide_metal>
0

> <r_i_glide_rewards>
-0.799996

> <s_i_glide_gridfile>
wee1_glide-grid

> <s_m_Source_File>
wee1_decoys_glide_SP.sdf

> <s_m_Source_Path>
/Users/zhangxujun/Desktop

> <s_m_entry_id>
2542

> <s_m_entry_name>
wee1_decoys_glide_SP.2267

> <s_m_subgroup_title>
wee1_decoys_glide_SP

> <s_m_subgroupid>
wee1_decoys_glide_SP


$$$$
