ZINC39600261_5535
                    3D
 Schrodinger Suite 2024-2.
 67 70  0  0  1  0            999 V2000
    6.7952   54.0520   28.2016 C   0  0  0  0  0  0
    6.7319   54.2811   26.7984 O   0  0  0  0  0  0
    5.5077   54.1819   26.1660 C   0  0  0  0  0  0
    5.5140   54.2358   24.7763 C   0  0  0  0  0  0
    4.3310   54.0970   24.0568 C   0  0  0  0  0  0
    3.1046   53.9032   24.7079 C   0  0  0  0  0  0
    3.0728   53.9139   26.1188 C   0  0  0  0  0  0
    4.2808   54.0351   26.8283 C   0  0  0  0  0  0
    1.8438   53.8431   26.7527 O   0  0  0  0  0  0
    1.7618   53.8585   28.1739 C   0  0  0  0  0  0
    1.8609   53.7532   23.8531 C   0  0  0  0  0  0
    1.7274   54.4966   22.8835 O   0  0  0  0  0  0
    0.9511   52.7769   24.1137 N   0  0  0  0  0  0
   -0.2027   52.5427   23.2284 C   0  0  0  0  0  0
   -0.3592   51.0064   23.2384 C   0  0  2  0  0  0
   -1.4024   50.7591   23.0461 H   0  0  0  0  0  0
    0.0899   50.5983   24.6777 C   0  0  0  0  0  0
    1.2345   51.5944   24.9302 C   0  0  0  0  0  0
    0.5447   49.1383   24.9483 C   0  0  0  0  0  0
   -0.5990   48.1340   24.7020 C   0  0  0  0  0  0
   -1.7444   48.4674   25.6817 N   0  3  0  0  0  0
   -2.2227   49.9352   25.6066 C   0  0  0  0  0  0
   -0.9950   50.8609   25.7650 C   0  0  0  0  0  0
    0.4628   50.2900   22.1291 C   0  0  0  0  0  0
    0.1066   49.1739   21.7531 O   0  0  0  0  0  0
    1.5652   50.8978   21.6484 N   0  0  0  0  0  0
    2.5303   50.3218   20.7066 C   0  0  0  0  0  0
    1.9458   49.7949   19.4018 C   0  0  0  0  0  0
    1.5044   50.6833   18.4167 C   0  0  0  0  0  0
    1.0030   50.2080   17.1991 C   0  0  0  0  0  0
    0.9602   48.8248   16.9740 C   0  0  0  0  0  0
    1.4105   47.9352   17.9488 C   0  0  0  0  0  0
    1.9045   48.4195   19.1578 C   0  0  0  0  0  0
    1.3648   46.6036   17.7233 F   0  0  0  0  0  0
    0.5156   51.1946   16.1377 C   0  0  0  0  0  0
    1.5658   51.7096   15.4982 F   0  0  0  0  0  0
   -0.2774   50.6060   15.2376 F   0  0  0  0  0  0
   -0.1721   52.1899   16.7017 F   0  0  0  0  0  0
    7.8314   54.0968   28.5344 H   0  0  0  0  0  0
    6.2347   54.8072   28.7542 H   0  0  0  0  0  0
    6.4095   53.0648   28.4658 H   0  0  0  0  0  0
    6.4482   54.3635   24.2493 H   0  0  0  0  0  0
    4.3809   54.1261   22.9765 H   0  0  0  0  0  0
    4.2673   54.0250   27.9038 H   0  0  0  0  0  0
    0.7169   53.7882   28.4728 H   0  0  0  0  0  0
    2.2872   53.0079   28.6109 H   0  0  0  0  0  0
    2.1616   54.7850   28.5902 H   0  0  0  0  0  0
   -0.0989   52.8967   22.2013 H   0  0  0  0  0  0
   -1.1108   52.9357   23.6839 H   0  0  0  0  0  0
    1.4899   51.7274   25.9796 H   0  0  0  0  0  0
    2.1223   51.1535   24.4784 H   0  0  0  0  0  0
    1.3809   48.8978   24.2923 H   0  0  0  0  0  0
    0.9433   49.0175   25.9582 H   0  0  0  0  0  0
   -1.0337   48.1916   23.7057 H   0  0  0  0  0  0
   -0.3019   47.1030   24.8851 H   0  0  0  0  0  0
   -2.5242   47.8393   25.5434 H   0  0  0  0  0  0
   -2.7495   50.0516   24.6604 H   0  0  0  0  0  0
   -2.9343   50.0527   26.4251 H   0  0  0  0  0  0
   -0.5787   50.7456   26.7687 H   0  0  0  0  0  0
   -1.3316   51.8980   25.7295 H   0  0  0  0  0  0
    1.7987   51.8059   22.0217 H   0  0  0  0  0  0
    3.1008   49.5428   21.2139 H   0  0  0  0  0  0
    3.2583   51.0964   20.4590 H   0  0  0  0  0  0
    1.5571   51.7494   18.5979 H   0  0  0  0  0  0
    0.5904   48.4304   16.0389 H   0  0  0  0  0  0
    2.2553   47.7218   19.9042 H   0  0  0  0  0  0
   -1.4356   48.3067   26.6464 H   0  0  0  0  0  0
  1  2  1  0  0  0
  1 39  1  0  0  0
  1 40  1  0  0  0
  1 41  1  0  0  0
  2  3  1  0  0  0
  3  8  2  0  0  0
  3  4  1  0  0  0
  4  5  2  0  0  0
  4 42  1  0  0  0
  5  6  1  0  0  0
  5 43  1  0  0  0
  6  7  2  0  0  0
  6 11  1  0  0  0
  7  8  1  0  0  0
  7  9  1  0  0  0
  8 44  1  0  0  0
  9 10  1  0  0  0
 10 45  1  0  0  0
 10 46  1  0  0  0
 10 47  1  0  0  0
 11 12  2  0  0  0
 11 13  1  0  0  0
 13 18  1  0  0  0
 13 14  1  0  0  0
 14 15  1  0  0  0
 14 48  1  0  0  0
 14 49  1  0  0  0
 15 16  1  0  0  0
 15 17  1  0  0  0
 15 24  1  0  0  0
 17 23  1  0  0  0
 17 18  1  0  0  0
 17 19  1  0  0  0
 18 50  1  0  0  0
 18 51  1  0  0  0
 19 20  1  0  0  0
 19 52  1  0  0  0
 19 53  1  0  0  0
 20 21  1  0  0  0
 20 54  1  0  0  0
 20 55  1  0  0  0
 21 22  1  0  0  0
 21 56  1  0  0  0
 21 67  1  0  0  0
 22 23  1  0  0  0
 22 57  1  0  0  0
 22 58  1  0  0  0
 23 59  1  0  0  0
 23 60  1  0  0  0
 24 25  2  0  0  0
 24 26  1  0  0  0
 26 27  1  0  0  0
 26 61  1  0  0  0
 27 28  1  0  0  0
 27 62  1  0  0  0
 27 63  1  0  0  0
 28 33  2  0  0  0
 28 29  1  0  0  0
 29 30  2  0  0  0
 29 64  1  0  0  0
 30 31  1  0  0  0
 30 35  1  0  0  0
 31 32  2  0  0  0
 31 65  1  0  0  0
 32 33  1  0  0  0
 32 34  1  0  0  0
 33 66  1  0  0  0
 35 36  1  0  0  0
 35 37  1  0  0  0
 35 38  1  0  0  0
M  CHG  1  21   1
M  END
> <i_i_glide_confnum>
157

> <i_i_glide_lignum>
5536

> <i_i_glide_posenum>
347

> <i_i_glide_rotatable_bonds>
9

> <i_m_Source_File_Index>
4846

> <b_m_subgroup_collapsed>
0

> <r_i_docking_score>
-5.18464

> <r_i_glide_ecoul>
-5.03572

> <r_i_glide_eff_state_penalty>
0

> <r_i_glide_einternal>
5.03951

> <r_i_glide_emodel>
-57.8303

> <r_i_glide_energy>
-43.0297

> <r_i_glide_erotb>
0.448742

> <r_i_glide_esite>
-0.156794

> <r_i_glide_evdw>
-37.994

> <r_i_glide_gscore>
-5.18464

> <r_i_glide_hbond>
-0.2

> <r_i_glide_ligand_efficiency>
-0.140125

> <r_i_glide_ligand_efficiency_ln>
-1.12443

> <r_i_glide_ligand_efficiency_sa>
-0.466929

> <r_i_glide_lipo>
-2.03144

> <r_i_glide_metal>
0

> <r_i_glide_rewards>
-0.590098

> <s_i_glide_gridfile>
wee1_glide-grid

> <s_m_Source_File>
wee1_decoys_glide_SP.sdf

> <s_m_Source_Path>
/Users/zhangxujun/Desktop

> <s_m_entry_id>
5121

> <s_m_entry_name>
wee1_decoys_glide_SP.4846

> <s_m_subgroup_title>
wee1_decoys_glide_SP

> <s_m_subgroupid>
wee1_decoys_glide_SP


$$$$
