ZINC35711991_2880
                    3D
 Schrodinger Suite 2024-2.
 63 65  0  0  1  0            999 V2000
    3.8878   53.3194   27.6960 C   0  0  0  0  0  0
    4.8665   54.4377   27.3158 C   0  0  0  0  0  0
    4.5061   55.2346   26.0348 C   0  0  0  0  0  0
    4.6631   54.4966   24.7530 N   0  0  0  0  0  0
    3.6136   53.9669   24.0026 C   0  0  0  0  0  0
    3.8292   53.3272   22.8148 C   0  0  0  0  0  0
    5.2512   53.2902   22.2031 C   0  0  2  0  0  0
    5.5264   52.2544   21.9924 H   0  0  0  0  0  0
    6.2272   53.7004   23.2368 N   0  0  0  0  0  0
    5.9800   54.4300   24.3482 C   0  0  0  0  0  0
    6.9418   54.9963   24.8756 O   0  0  0  0  0  0
    5.4415   54.0062   20.8491 C   0  0  0  0  0  0
    5.7812   55.3612   20.7799 C   0  0  0  0  0  0
    5.9465   55.9923   19.5465 C   0  0  0  0  0  0
    5.7918   55.2738   18.3615 C   0  0  0  0  0  0
    5.4795   53.9073   18.4068 C   0  0  0  0  0  0
    5.3034   53.2943   19.6498 C   0  0  0  0  0  0
    5.3338   53.0662   17.2882 N   0  0  0  0  0  0
    5.5780   53.2977   15.9842 C   0  0  0  0  0  0
    5.9569   54.3701   15.5154 O   0  0  0  0  0  0
    5.3873   52.1612   15.2818 N   0  0  0  0  0  0
    5.6927   51.8631   13.9393 C   0  0  0  0  0  0
    6.1854   52.7883   13.0048 C   0  0  0  0  0  0
    6.5002   52.3791   11.7101 C   0  0  0  0  0  0
    6.3359   51.0469   11.3355 C   0  0  0  0  0  0
    5.8440   50.1084   12.2498 C   0  0  0  0  0  0
    5.5103   50.5319   13.5442 C   0  0  0  0  0  0
    5.6897   48.6405   11.8469 C   0  0  0  0  0  0
    6.5446   48.3010   10.8768 F   0  0  0  0  0  0
    5.9043   47.8309   12.8837 F   0  0  0  0  0  0
    4.4499   48.4390   11.4022 F   0  0  0  0  0  0
    2.7313   52.7448   21.9901 C   0  0  0  0  0  0
    1.5460   53.0729   22.0821 O   0  0  0  0  0  0
    3.1579   51.7707   21.1456 O   0  0  0  0  0  0
    2.2665   51.0879   20.2662 C   0  0  0  0  0  0
    1.9653   51.9110   19.0044 C   0  0  0  0  0  0
    2.2273   54.0382   24.6737 C   0  0  0  0  0  0
    4.2474   52.7690   28.5658 H   0  0  0  0  0  0
    3.7668   52.6041   26.8848 H   0  0  0  0  0  0
    2.9047   53.7186   27.9461 H   0  0  0  0  0  0
    4.9099   55.1356   28.1527 H   0  0  0  0  0  0
    5.8744   54.0280   27.2325 H   0  0  0  0  0  0
    3.5111   55.6682   26.1146 H   0  0  0  0  0  0
    5.1644   56.0967   26.0169 H   0  0  0  0  0  0
    7.2014   53.6781   22.9743 H   0  0  0  0  0  0
    5.9094   55.9383   21.6813 H   0  0  0  0  0  0
    6.1906   57.0432   19.5045 H   0  0  0  0  0  0
    5.9249   55.7957   17.4272 H   0  0  0  0  0  0
    5.0833   52.2363   19.6798 H   0  0  0  0  0  0
    5.1050   52.1101   17.5351 H   0  0  0  0  0  0
    5.0176   51.3801   15.8061 H   0  0  0  0  0  0
    6.3385   53.8257   13.2548 H   0  0  0  0  0  0
    6.8815   53.0970   10.9990 H   0  0  0  0  0  0
    6.5948   50.7491   10.3299 H   0  0  0  0  0  0
    5.1238   49.8122   14.2549 H   0  0  0  0  0  0
    2.7375   50.1488   19.9737 H   0  0  0  0  0  0
    1.3433   50.8224   20.7841 H   0  0  0  0  0  0
    1.2676   51.3822   18.3553 H   0  0  0  0  0  0
    1.5263   52.8790   19.2493 H   0  0  0  0  0  0
    2.8734   52.0897   18.4299 H   0  0  0  0  0  0
    1.6358   53.1444   24.4832 H   0  0  0  0  0  0
    2.2387   54.0937   25.7568 H   0  0  0  0  0  0
    1.6767   54.8962   24.2906 H   0  0  0  0  0  0
  1  2  1  0  0  0
  1 38  1  0  0  0
  1 39  1  0  0  0
  1 40  1  0  0  0
  2  3  1  0  0  0
  2 41  1  0  0  0
  2 42  1  0  0  0
  3  4  1  0  0  0
  3 43  1  0  0  0
  3 44  1  0  0  0
  4 10  1  0  0  0
  4  5  1  0  0  0
  5  6  2  0  0  0
  5 37  1  0  0  0
  6  7  1  0  0  0
  6 32  1  0  0  0
  7  8  1  0  0  0
  7  9  1  0  0  0
  7 12  1  0  0  0
  9 10  1  0  0  0
  9 45  1  0  0  0
 10 11  2  0  0  0
 12 17  2  0  0  0
 12 13  1  0  0  0
 13 14  2  0  0  0
 13 46  1  0  0  0
 14 15  1  0  0  0
 14 47  1  0  0  0
 15 16  2  0  0  0
 15 48  1  0  0  0
 16 17  1  0  0  0
 16 18  1  0  0  0
 17 49  1  0  0  0
 18 19  1  0  0  0
 18 50  1  0  0  0
 19 20  2  0  0  0
 19 21  1  0  0  0
 21 22  1  0  0  0
 21 51  1  0  0  0
 22 27  2  0  0  0
 22 23  1  0  0  0
 23 24  2  0  0  0
 23 52  1  0  0  0
 24 25  1  0  0  0
 24 53  1  0  0  0
 25 26  2  0  0  0
 25 54  1  0  0  0
 26 27  1  0  0  0
 26 28  1  0  0  0
 27 55  1  0  0  0
 28 29  1  0  0  0
 28 30  1  0  0  0
 28 31  1  0  0  0
 32 33  2  0  0  0
 32 34  1  0  0  0
 34 35  1  0  0  0
 35 36  1  0  0  0
 35 56  1  0  0  0
 35 57  1  0  0  0
 36 58  1  0  0  0
 36 59  1  0  0  0
 36 60  1  0  0  0
 37 61  1  0  0  0
 37 62  1  0  0  0
 37 63  1  0  0  0
M  END
> <i_i_glide_confnum>
5

> <i_i_glide_lignum>
2881

> <i_i_glide_posenum>
266

> <i_i_glide_rotatable_bonds>
11

> <i_m_Source_File_Index>
2242

> <b_m_subgroup_collapsed>
0

> <r_i_docking_score>
-4.89559

> <r_i_glide_ecoul>
-3.0919

> <r_i_glide_eff_state_penalty>
0

> <r_i_glide_einternal>
1.51552

> <r_i_glide_emodel>
-52.1649

> <r_i_glide_energy>
-39.8028

> <r_i_glide_erotb>
0.642682

> <r_i_glide_esite>
-0.229563

> <r_i_glide_evdw>
-36.7109

> <r_i_glide_gscore>
-4.89559

> <r_i_glide_hbond>
-0.308571

> <r_i_glide_ligand_efficiency>
-0.135989

> <r_i_glide_ligand_efficiency_ln>
-1.06809

> <r_i_glide_ligand_efficiency_sa>
-0.449025

> <r_i_glide_lipo>
-1.71166

> <r_i_glide_metal>
0

> <r_i_glide_rewards>
-0.989146

> <s_i_glide_gridfile>
wee1_glide-grid

> <s_m_Source_File>
wee1_decoys_glide_SP.sdf

> <s_m_Source_Path>
/Users/zhangxujun/Desktop

> <s_m_entry_id>
2517

> <s_m_entry_name>
wee1_decoys_glide_SP.2242

> <s_m_subgroup_title>
wee1_decoys_glide_SP

> <s_m_subgroupid>
wee1_decoys_glide_SP


$$$$
