ZINC34899998_2473
                    3D
 Schrodinger Suite 2024-2.
 70 73  0  0  1  0            999 V2000
    6.6332   54.7353   24.4520 C   0  0  0  0  0  0
    5.7387   54.4969   25.6566 C   0  0  0  0  0  0
    6.3064   54.2657   26.9089 C   0  0  0  0  0  0
    5.4868   54.0353   28.0100 C   0  0  0  0  0  0
    4.0925   54.0103   27.8681 C   0  0  0  0  0  0
    3.5299   54.2549   26.6095 C   0  0  0  0  0  0
    4.3505   54.4944   25.5110 C   0  0  0  0  0  0
    3.2240   53.8152   29.0908 C   0  0  0  0  0  0
    3.4919   54.4944   30.0817 O   0  0  0  0  0  0
    2.1915   52.9203   29.0791 N   0  0  0  0  0  0
    1.3254   52.7671   30.2717 C   0  0  0  0  0  0
   -0.1427   52.8846   29.8030 C   0  0  0  0  0  0
   -0.4928   51.8873   28.6835 C   0  0  0  0  0  0
    0.5234   52.0420   27.5273 C   0  0  1  0  0  0
    0.4029   53.0208   27.0601 H   0  0  0  0  0  0
    1.9867   51.9002   28.0282 C   0  0  0  0  0  0
    0.2065   50.9984   26.4376 C   0  0  0  0  0  0
    0.7044   49.8768   26.4816 O   0  0  0  0  0  0
   -0.6525   51.3716   25.4728 N   0  0  0  0  0  0
   -1.1826   50.4937   24.4187 C   0  0  2  0  0  0
   -1.7336   51.1898   23.7837 H   0  0  0  0  0  0
   -2.2318   49.4850   24.9543 C   0  0  0  0  0  0
   -2.8749   48.6274   23.8506 C   0  0  0  0  0  0
   -1.8217   47.9405   22.9710 C   0  0  0  0  0  0
   -0.8351   48.9565   22.3706 C   0  0  0  0  0  0
   -0.1444   49.8424   23.4422 C   0  0  1  0  0  0
    0.4543   49.1585   24.0513 H   0  0  0  0  0  0
    0.8210   50.7990   22.8833 N   0  0  0  0  0  0
    1.9468   50.4911   22.2102 C   0  0  0  0  0  0
    2.3005   49.3337   21.9850 O   0  0  0  0  0  0
    2.7707   51.6575   21.7130 C   0  0  0  0  0  0
    2.7350   52.9031   22.3563 C   0  0  0  0  0  0
    3.5251   53.9520   21.8953 C   0  0  0  0  0  0
    4.3612   53.7883   20.7938 C   0  0  0  0  0  0
    4.3971   52.5458   20.1465 C   0  0  0  0  0  0
    3.6098   51.4918   20.6036 C   0  0  0  0  0  0
    5.1033   54.8914   20.4175 O   0  0  0  0  0  0
    5.9048   54.8185   19.2427 C   0  0  0  0  0  0
    6.9880   55.7656   24.4300 H   0  0  0  0  0  0
    7.5045   54.0791   24.4829 H   0  0  0  0  0  0
    6.1129   54.5183   23.5180 H   0  0  0  0  0  0
    7.3786   54.2645   27.0370 H   0  0  0  0  0  0
    5.9466   53.8786   28.9751 H   0  0  0  0  0  0
    2.4576   54.2755   26.4780 H   0  0  0  0  0  0
    3.9019   54.6849   24.5502 H   0  0  0  0  0  0
    1.5133   53.5093   31.0474 H   0  0  0  0  0  0
    1.4983   51.7778   30.6974 H   0  0  0  0  0  0
   -0.3441   53.9059   29.4765 H   0  0  0  0  0  0
   -0.7996   52.7115   30.6583 H   0  0  0  0  0  0
   -1.5135   52.0963   28.3620 H   0  0  0  0  0  0
   -0.4257   50.8955   29.1353 H   0  0  0  0  0  0
    2.1359   50.9166   28.4790 H   0  0  0  0  0  0
    2.7028   51.9922   27.2173 H   0  0  0  0  0  0
   -1.1837   52.2117   25.6485 H   0  0  0  0  0  0
   -1.7495   48.8161   25.6702 H   0  0  0  0  0  0
   -3.0134   50.0103   25.5053 H   0  0  0  0  0  0
   -3.5297   47.8787   24.2996 H   0  0  0  0  0  0
   -3.5143   49.2554   23.2288 H   0  0  0  0  0  0
   -1.2713   47.2066   23.5626 H   0  0  0  0  0  0
   -2.3126   47.3818   22.1727 H   0  0  0  0  0  0
   -1.3804   49.5990   21.6760 H   0  0  0  0  0  0
   -0.0972   48.4203   21.7739 H   0  0  0  0  0  0
    0.5803   51.7723   22.9669 H   0  0  0  0  0  0
    2.1117   53.0716   23.2226 H   0  0  0  0  0  0
    3.4824   54.9129   22.3818 H   0  0  0  0  0  0
    5.0244   52.3765   19.2838 H   0  0  0  0  0  0
    3.6552   50.5492   20.0753 H   0  0  0  0  0  0
    6.3887   55.7805   19.0767 H   0  0  0  0  0  0
    5.3031   54.5984   18.3597 H   0  0  0  0  0  0
    6.6901   54.0671   19.3349 H   0  0  0  0  0  0
  1  2  1  0  0  0
  1 39  1  0  0  0
  1 40  1  0  0  0
  1 41  1  0  0  0
  2  7  2  0  0  0
  2  3  1  0  0  0
  3  4  2  0  0  0
  3 42  1  0  0  0
  4  5  1  0  0  0
  4 43  1  0  0  0
  5  6  2  0  0  0
  5  8  1  0  0  0
  6  7  1  0  0  0
  6 44  1  0  0  0
  7 45  1  0  0  0
  8  9  2  0  0  0
  8 10  1  0  0  0
 10 16  1  0  0  0
 10 11  1  0  0  0
 11 12  1  0  0  0
 11 46  1  0  0  0
 11 47  1  0  0  0
 12 13  1  0  0  0
 12 48  1  0  0  0
 12 49  1  0  0  0
 13 14  1  0  0  0
 13 50  1  0  0  0
 13 51  1  0  0  0
 14 15  1  0  0  0
 14 16  1  0  0  0
 14 17  1  0  0  0
 16 52  1  0  0  0
 16 53  1  0  0  0
 17 18  2  0  0  0
 17 19  1  0  0  0
 19 20  1  0  0  0
 19 54  1  0  0  0
 20 21  1  0  0  0
 20 26  1  0  0  0
 20 22  1  0  0  0
 22 23  1  0  0  0
 22 55  1  0  0  0
 22 56  1  0  0  0
 23 24  1  0  0  0
 23 57  1  0  0  0
 23 58  1  0  0  0
 24 25  1  0  0  0
 24 59  1  0  0  0
 24 60  1  0  0  0
 25 26  1  0  0  0
 25 61  1  0  0  0
 25 62  1  0  0  0
 26 27  1  0  0  0
 26 28  1  0  0  0
 28 29  1  0  0  0
 28 63  1  0  0  0
 29 30  2  0  0  0
 29 31  1  0  0  0
 31 36  2  0  0  0
 31 32  1  0  0  0
 32 33  2  0  0  0
 32 64  1  0  0  0
 33 34  1  0  0  0
 33 65  1  0  0  0
 34 35  2  0  0  0
 34 37  1  0  0  0
 35 36  1  0  0  0
 35 66  1  0  0  0
 36 67  1  0  0  0
 37 38  1  0  0  0
 38 68  1  0  0  0
 38 69  1  0  0  0
 38 70  1  0  0  0
M  END
> <i_i_glide_confnum>
303

> <i_i_glide_lignum>
2474

> <i_i_glide_posenum>
276

> <i_i_glide_rotatable_bonds>
9

> <i_m_Source_File_Index>
5718

> <b_m_subgroup_collapsed>
0

> <r_i_docking_score>
-5.80284

> <r_i_glide_ecoul>
-0.741404

> <r_i_glide_eff_state_penalty>
0

> <r_i_glide_einternal>
5.35807

> <r_i_glide_emodel>
-66.1264

> <r_i_glide_energy>
-49.911

> <r_i_glide_erotb>
0.710514

> <r_i_glide_esite>
-0.0481856

> <r_i_glide_evdw>
-49.1696

> <r_i_glide_gscore>
-5.80284

> <r_i_glide_hbond>
-0.32

> <r_i_glide_ligand_efficiency>
-0.165796

> <r_i_glide_ligand_efficiency_ln>
-1.27385

> <r_i_glide_ligand_efficiency_sa>
-0.542328

> <r_i_glide_lipo>
-2.68302

> <r_i_glide_metal>
0

> <r_i_glide_rewards>
-0.892463

> <s_i_glide_gridfile>
wee1_glide-grid

> <s_m_Source_File>
wee1_decoys_glide_SP.sdf

> <s_m_Source_Path>
/Users/zhangxujun/Desktop

> <s_m_entry_id>
5993

> <s_m_entry_name>
wee1_decoys_glide_SP.5718

> <s_m_subgroup_title>
wee1_decoys_glide_SP

> <s_m_subgroupid>
wee1_decoys_glide_SP


$$$$
