ZINC22635331_317
                    3D
 Schrodinger Suite 2024-2.
 80 83  0  0  1  0            999 V2000
    9.1131   56.8126   17.3163 C   0  0  0  0  0  0
    8.1506   56.2705   18.3562 C   0  0  0  0  0  0
    8.5614   56.0964   19.6750 C   0  0  0  0  0  0
    7.6758   55.6217   20.6352 C   0  0  0  0  0  0
    6.3545   55.2961   20.2891 C   0  0  0  0  0  0
    5.9315   55.4871   18.9569 C   0  0  0  0  0  0
    6.8346   55.9726   18.0060 C   0  0  0  0  0  0
    4.5085   55.1976   18.4900 C   0  0  0  0  0  0
    5.4270   54.7889   21.2210 N   0  0  0  0  0  0
    5.6097   54.3130   22.4732 C   0  0  0  0  0  0
    6.7037   54.1596   23.0138 O   0  0  0  0  0  0
    4.3620   54.0587   23.1821 C   0  0  0  0  0  0
    4.2149   54.0891   24.5991 C   0  0  0  0  0  0
    2.8957   53.8217   25.0023 C   0  0  0  0  0  0
    1.8294   53.5544   23.6791 S   0  0  0  0  0  0
    3.1542   53.6436   22.5819 C   0  0  0  0  0  0
    2.8573   53.2967   21.2818 N   0  0  0  0  0  0
    3.2425   52.1379   20.7123 C   0  0  0  0  0  0
    3.9679   51.2974   21.2508 O   0  0  0  0  0  0
    2.6593   51.8933   19.3126 C   0  0  0  0  0  0
    2.3045   50.3991   19.0812 N   0  3  0  0  0  0
    1.1978   49.8923   20.0387 C   0  0  0  0  0  0
    0.8814   48.4186   19.7147 C   0  0  0  0  0  0
    0.4279   48.2590   18.3246 N   0  0  0  0  0  0
    1.4324   48.7423   17.3632 C   0  0  0  0  0  0
    1.8347   50.2153   17.6211 C   0  0  0  0  0  0
    0.0277   46.8550   18.1225 C   0  0  0  0  0  0
   -0.4113   46.4407   16.6995 C   0  0  0  0  0  0
    0.6966   46.1627   15.8639 O   0  0  0  0  0  0
    2.4247   53.6349   26.4328 C   0  0  0  0  0  0
    3.4799   54.1795   27.4368 C   0  0  2  0  0  0
    3.4089   55.2647   27.3380 H   0  0  0  0  0  0
    4.8851   53.6961   26.9913 C   0  0  0  0  0  0
    5.3155   54.3024   25.6421 C   0  0  0  0  0  0
    3.0795   53.8431   28.9301 C   0  0  0  0  0  0
    4.3045   53.9420   29.8591 C   0  0  0  0  0  0
    2.5114   52.4112   29.1149 C   0  0  0  0  0  0
    2.0181   54.8562   29.4280 C   0  0  0  0  0  0
    9.9057   57.4018   17.7803 H   0  0  0  0  0  0
    8.5947   57.4775   16.6221 H   0  0  0  0  0  0
    9.5612   55.9966   16.7469 H   0  0  0  0  0  0
    9.5671   56.3507   19.9671 H   0  0  0  0  0  0
    8.0490   55.5242   21.6421 H   0  0  0  0  0  0
    6.5124   56.1165   16.9850 H   0  0  0  0  0  0
    3.7706   55.2959   19.2822 H   0  0  0  0  0  0
    4.2087   55.9185   17.7271 H   0  0  0  0  0  0
    4.4417   54.2018   18.0533 H   0  0  0  0  0  0
    4.4733   54.7824   20.8957 H   0  0  0  0  0  0
    2.1712   53.8752   20.8059 H   0  0  0  0  0  0
    1.7548   52.4748   19.1149 H   0  0  0  0  0  0
    3.4131   52.1248   18.5561 H   0  0  0  0  0  0
    1.5953   49.9622   21.0529 H   0  0  0  0  0  0
    0.3283   50.5442   19.9309 H   0  0  0  0  0  0
    1.7891   47.8261   19.8512 H   0  0  0  0  0  0
    0.1199   48.0602   20.4105 H   0  0  0  0  0  0
    1.0668   48.6806   16.3384 H   0  0  0  0  0  0
    2.3046   48.1046   17.4838 H   0  0  0  0  0  0
    1.0049   50.9018   17.4457 H   0  0  0  0  0  0
    2.6918   50.4977   17.0054 H   0  0  0  0  0  0
    0.7265   46.1242   18.5339 H   0  0  0  0  0  0
   -0.8681   46.7389   18.7355 H   0  0  0  0  0  0
   -1.0146   45.5334   16.7555 H   0  0  0  0  0  0
   -1.0481   47.2032   16.2481 H   0  0  0  0  0  0
    1.1947   46.9716   15.7223 H   0  0  0  0  0  0
    1.4539   54.0972   26.5937 H   0  0  0  0  0  0
    2.2904   52.5612   26.5638 H   0  0  0  0  0  0
    5.6473   54.0175   27.6998 H   0  0  0  0  0  0
    4.9461   52.6073   27.0078 H   0  0  0  0  0  0
    6.2533   53.8287   25.3572 H   0  0  0  0  0  0
    5.5251   55.3679   25.7479 H   0  0  0  0  0  0
    4.8156   54.9014   29.7756 H   0  0  0  0  0  0
    4.0248   53.7965   30.8951 H   0  0  0  0  0  0
    5.0259   53.1543   29.6404 H   0  0  0  0  0  0
    1.5286   52.2950   28.6574 H   0  0  0  0  0  0
    3.1721   51.6640   28.6763 H   0  0  0  0  0  0
    2.3853   52.1558   30.1676 H   0  0  0  0  0  0
    1.1211   54.8429   28.8078 H   0  0  0  0  0  0
    1.7004   54.6444   30.4500 H   0  0  0  0  0  0
    2.4018   55.8774   29.4188 H   0  0  0  0  0  0
    3.1428   49.8423   19.2109 H   0  0  0  0  0  0
  1  2  1  0  0  0
  1 39  1  0  0  0
  1 40  1  0  0  0
  1 41  1  0  0  0
  2  7  2  0  0  0
  2  3  1  0  0  0
  3  4  2  0  0  0
  3 42  1  0  0  0
  4  5  1  0  0  0
  4 43  1  0  0  0
  5  6  2  0  0  0
  5  9  1  0  0  0
  6  7  1  0  0  0
  6  8  1  0  0  0
  7 44  1  0  0  0
  8 45  1  0  0  0
  8 46  1  0  0  0
  8 47  1  0  0  0
  9 10  1  0  0  0
  9 48  1  0  0  0
 10 11  2  0  0  0
 10 12  1  0  0  0
 12 16  2  0  0  0
 12 13  1  0  0  0
 13 34  1  0  0  0
 13 14  2  0  0  0
 14 15  1  0  0  0
 14 30  1  0  0  0
 15 16  1  0  0  0
 16 17  1  0  0  0
 17 18  1  0  0  0
 17 49  1  0  0  0
 18 19  2  0  0  0
 18 20  1  0  0  0
 20 21  1  0  0  0
 20 50  1  0  0  0
 20 51  1  0  0  0
 21 26  1  0  0  0
 21 22  1  0  0  0
 21 80  1  0  0  0
 22 23  1  0  0  0
 22 52  1  0  0  0
 22 53  1  0  0  0
 23 24  1  0  0  0
 23 54  1  0  0  0
 23 55  1  0  0  0
 24 25  1  0  0  0
 24 27  1  0  0  0
 25 26  1  0  0  0
 25 56  1  0  0  0
 25 57  1  0  0  0
 26 58  1  0  0  0
 26 59  1  0  0  0
 27 28  1  0  0  0
 27 60  1  0  0  0
 27 61  1  0  0  0
 28 29  1  0  0  0
 28 62  1  0  0  0
 28 63  1  0  0  0
 29 64  1  0  0  0
 30 31  1  0  0  0
 30 65  1  0  0  0
 30 66  1  0  0  0
 31 32  1  0  0  0
 31 33  1  0  0  0
 31 35  1  0  0  0
 33 34  1  0  0  0
 33 67  1  0  0  0
 33 68  1  0  0  0
 34 69  1  0  0  0
 34 70  1  0  0  0
 35 36  1  0  0  0
 35 37  1  0  0  0
 35 38  1  0  0  0
 36 71  1  0  0  0
 36 72  1  0  0  0
 36 73  1  0  0  0
 37 74  1  0  0  0
 37 75  1  0  0  0
 37 76  1  0  0  0
 38 77  1  0  0  0
 38 78  1  0  0  0
 38 79  1  0  0  0
M  CHG  1  21   1
M  END
> <i_i_glide_confnum>
84

> <i_i_glide_lignum>
318

> <i_i_glide_posenum>
292

> <i_i_glide_rotatable_bonds>
11

> <i_m_Source_File_Index>
904

> <b_m_subgroup_collapsed>
0

> <r_i_docking_score>
-6.72907

> <r_i_glide_ecoul>
-8.89646

> <r_i_glide_eff_state_penalty>
0

> <r_i_glide_einternal>
27.1037

> <r_i_glide_emodel>
-63.7989

> <r_i_glide_energy>
-52.3745

> <r_i_glide_erotb>
0.665587

> <r_i_glide_esite>
-0.10491

> <r_i_glide_evdw>
-43.4781

> <r_i_glide_gscore>
-6.72907

> <r_i_glide_hbond>
-0.32

> <r_i_glide_ligand_efficiency>
-0.181867

> <r_i_glide_ligand_efficiency_ln>
-1.45938

> <r_i_glide_ligand_efficiency_sa>
-0.60602

> <r_i_glide_lipo>
-3.11907

> <r_i_glide_metal>
0

> <r_i_glide_rewards>
-0.342302

> <s_i_glide_gridfile>
wee1_glide-grid

> <s_m_Source_File>
wee1_decoys_glide_SP.sdf

> <s_m_Source_Path>
/Users/zhangxujun/Desktop

> <s_m_entry_id>
1179

> <s_m_entry_name>
wee1_decoys_glide_SP.904

> <s_m_subgroup_title>
wee1_decoys_glide_SP

> <s_m_subgroupid>
wee1_decoys_glide_SP


$$$$
