ZINC40372503_1586
                    3D
 Schrodinger Suite 2024-2.
 40 41  0  0  1  0            999 V2000
    2.3986   53.9298   27.6948 C   0  0  0  0  0  0
    3.1414   54.0169   26.3739 C   0  0  0  0  0  0
    2.7149   53.6713   25.0746 C   0  0  0  0  0  0
    3.9736   54.0967   23.9417 S   0  0  0  0  0  0
    4.9453   54.5862   25.2826 C   0  0  0  0  0  0
    4.3745   54.4886   26.4536 N   0  0  0  0  0  0
    1.4651   53.1459   24.5839 C   0  0  0  0  0  0
    1.1051   53.3327   23.4231 O   0  0  0  0  0  0
    0.7626   52.4500   25.5004 N   0  0  0  0  0  0
   -0.5373   51.7475   25.3831 C   0  0  1  0  0  0
   -1.2436   51.8513   26.7851 C   0  0  0  0  0  0
   -2.6935   51.3213   26.8155 C   0  0  0  0  0  0
   -3.5702   52.1047   25.8209 C   0  0  1  0  0  0
   -2.9863   51.9111   24.4097 C   0  0  0  0  0  0
   -1.5233   52.4107   24.3344 C   0  0  0  0  0  0
   -5.0440   51.6711   25.8924 C   0  0  0  0  0  0
   -0.2206   50.2388   25.0259 C   0  0  0  0  0  0
   -0.4802   49.8274   23.8426 N   0  0  0  0  0  0
   -0.0956   48.4966   23.5818 O   0  0  0  0  0  0
    0.3044   49.5037   26.0817 N   0  0  0  0  0  0
    1.3217   54.0465   27.5729 H   0  0  0  0  0  0
    2.5692   52.9704   28.1852 H   0  0  0  0  0  0
    2.7042   54.7063   28.3984 H   0  0  0  0  0  0
    5.9491   54.9557   25.1379 H   0  0  0  0  0  0
    1.2648   52.2490   26.3509 H   0  0  0  0  0  0
   -0.6652   51.3663   27.5727 H   0  0  0  0  0  0
   -1.2701   52.8998   27.0855 H   0  0  0  0  0  0
   -3.1029   51.4143   27.8226 H   0  0  0  0  0  0
   -2.7298   50.2499   26.6068 H   0  0  0  0  0  0
   -3.5090   53.1654   26.0737 H   0  0  0  0  0  0
   -3.6005   52.4399   23.6794 H   0  0  0  0  0  0
   -3.0550   50.8622   24.1155 H   0  0  0  0  0  0
   -1.5254   53.4900   24.4820 H   0  0  0  0  0  0
   -1.1662   52.2768   23.3124 H   0  0  0  0  0  0
   -5.1620   50.6134   25.6532 H   0  0  0  0  0  0
   -5.4546   51.8322   26.8897 H   0  0  0  0  0  0
   -5.6567   52.2395   25.1919 H   0  0  0  0  0  0
    0.4206   48.2734   24.3596 H   0  0  0  0  0  0
    0.4719   48.5113   26.0071 H   0  0  0  0  0  0
    0.1092   49.8218   27.0199 H   0  0  0  0  0  0
  1  2  1  0  0  0
  1 21  1  0  0  0
  1 22  1  0  0  0
  1 23  1  0  0  0
  2  6  1  0  0  0
  2  3  2  0  0  0
  3  4  1  0  0  0
  3  7  1  0  0  0
  4  5  1  0  0  0
  5  6  2  0  0  0
  5 24  1  0  0  0
  7  8  2  0  0  0
  7  9  1  0  0  0
  9 10  1  0  0  0
  9 25  1  0  0  0
 10 15  1  0  0  0
 10 11  1  0  0  0
 10 17  1  0  0  0
 11 12  1  0  0  0
 11 26  1  0  0  0
 11 27  1  0  0  0
 12 13  1  0  0  0
 12 28  1  0  0  0
 12 29  1  0  0  0
 13 14  1  0  0  0
 13 16  1  0  0  0
 13 30  1  0  0  0
 14 15  1  0  0  0
 14 31  1  0  0  0
 14 32  1  0  0  0
 15 33  1  0  0  0
 15 34  1  0  0  0
 16 35  1  0  0  0
 16 36  1  0  0  0
 16 37  1  0  0  0
 17 18  2  0  0  0
 17 20  1  0  0  0
 18 19  1  0  0  0
 19 38  1  0  0  0
 20 39  1  0  0  0
 20 40  1  0  0  0
M  END
> <i_i_glide_confnum>
35

> <i_i_glide_lignum>
1587

> <i_i_glide_posenum>
364

> <i_i_glide_rotatable_bonds>
5

> <i_m_Source_File_Index>
4905

> <b_m_subgroup_collapsed>
0

> <r_i_docking_score>
-3.97861

> <r_i_glide_ecoul>
-2.69005

> <r_i_glide_eff_state_penalty>
0

> <r_i_glide_einternal>
5.69271

> <r_i_glide_emodel>
-40.7214

> <r_i_glide_energy>
-33.548

> <r_i_glide_erotb>
1.04268

> <r_i_glide_esite>
-0.117788

> <r_i_glide_evdw>
-30.8579

> <r_i_glide_gscore>
-3.97861

> <r_i_glide_hbond>
-0.0394433

> <r_i_glide_ligand_efficiency>
-0.19893

> <r_i_glide_ligand_efficiency_ln>
-0.995714

> <r_i_glide_ligand_efficiency_sa>
-0.53998

> <r_i_glide_lipo>
-1.18894

> <r_i_glide_metal>
0

> <r_i_glide_rewards>
-1.72871

> <s_i_glide_gridfile>
wee1_glide-grid

> <s_m_Source_File>
wee1_decoys_glide_SP.sdf

> <s_m_Source_Path>
/Users/zhangxujun/Desktop

> <s_m_entry_id>
5180

> <s_m_entry_name>
wee1_decoys_glide_SP.4905

> <s_m_subgroup_title>
wee1_decoys_glide_SP

> <s_m_subgroupid>
wee1_decoys_glide_SP


$$$$
