ZINC44161632_4298
                    3D
 Schrodinger Suite 2024-2.
 51 54  0  0  1  0            999 V2000
    5.2151   54.2753   27.8593 C   0  0  0  0  0  0
    4.4845   54.1982   26.5228 C   0  0  0  0  0  0
    5.0023   54.3865   25.2350 C   0  0  0  0  0  0
    3.9614   54.0967   24.3524 C   0  0  0  0  0  0
    2.8531   53.6536   25.0590 C   0  0  0  0  0  0
    3.1286   53.8781   26.4080 N   0  0  0  0  0  0
    2.1508   53.7582   27.5141 C   0  0  0  0  0  0
    2.2986   52.4944   28.3901 C   0  0  0  0  0  0
    2.0172   52.9490   29.8333 C   0  0  0  0  0  0
    1.4040   54.3492   29.7158 C   0  0  0  0  0  0
    2.0831   54.9522   28.4863 C   0  0  0  0  0  0
    1.6530   53.0208   24.4403 C   0  0  0  0  0  0
    0.6283   52.2984   25.0642 C   0  0  0  0  0  0
   -0.4856   51.6761   23.8930 S   0  0  0  0  0  0
    0.5388   52.3279   22.6537 C   0  0  0  0  0  0
    1.5559   53.0096   23.1169 N   0  0  0  0  0  0
    0.3082   52.1898   21.3003 N   0  0  0  0  0  0
   -0.7105   51.5110   20.6083 C   0  0  0  0  0  0
   -1.3324   50.3481   21.0802 C   0  0  0  0  0  0
   -2.3650   49.7535   20.3562 C   0  0  0  0  0  0
   -2.7849   50.3119   19.1503 C   0  0  0  0  0  0
   -2.1559   51.4560   18.6452 C   0  0  0  0  0  0
   -1.1035   52.0272   19.3704 C   0  0  0  0  0  0
   -2.6078   52.0975   17.3342 C   0  0  0  0  0  0
   -3.7823   51.6193   16.9199 F   0  0  0  0  0  0
   -2.7330   53.4172   17.4935 F   0  0  0  0  0  0
   -1.6989   51.8622   16.3889 F   0  0  0  0  0  0
    6.3365   54.8243   24.8848 C   0  0  0  0  0  0
    7.1042   55.3210   25.7011 O   0  0  0  0  0  0
    6.7044   54.6491   23.6149 N   0  0  0  0  0  0
    5.3242   55.2967   28.2102 H   0  0  0  0  0  0
    4.7510   53.7068   28.6610 H   0  0  0  0  0  0
    6.2267   53.8773   27.7747 H   0  0  0  0  0  0
    4.0284   54.1189   23.2740 H   0  0  0  0  0  0
    1.1641   53.7673   27.0624 H   0  0  0  0  0  0
    3.2952   52.0572   28.3284 H   0  0  0  0  0  0
    1.5905   51.7224   28.0873 H   0  0  0  0  0  0
    2.9509   52.9963   30.3962 H   0  0  0  0  0  0
    1.3562   52.2598   30.3620 H   0  0  0  0  0  0
    1.5459   54.9543   30.6114 H   0  0  0  0  0  0
    0.3278   54.2717   29.5489 H   0  0  0  0  0  0
    1.5182   55.7930   28.0823 H   0  0  0  0  0  0
    3.0607   55.3230   28.7845 H   0  0  0  0  0  0
    0.4681   52.0593   26.1021 H   0  0  0  0  0  0
    0.8426   52.7910   20.6876 H   0  0  0  0  0  0
   -1.0141   49.8789   21.9971 H   0  0  0  0  0  0
   -2.8405   48.8591   20.7316 H   0  0  0  0  0  0
   -3.5935   49.8429   18.6077 H   0  0  0  0  0  0
   -0.6026   52.8967   18.9707 H   0  0  0  0  0  0
    6.0830   54.2224   22.9474 H   0  0  0  0  0  0
    7.6501   54.8975   23.3510 H   0  0  0  0  0  0
  1  2  1  0  0  0
  1 31  1  0  0  0
  1 32  1  0  0  0
  1 33  1  0  0  0
  2  6  1  0  0  0
  2  3  2  0  0  0
  3  4  1  0  0  0
  3 28  1  0  0  0
  4  5  2  0  0  0
  4 34  1  0  0  0
  5  6  1  0  0  0
  5 12  1  0  0  0
  6  7  1  0  0  0
  7 11  1  0  0  0
  7  8  1  0  0  0
  7 35  1  0  0  0
  8  9  1  0  0  0
  8 36  1  0  0  0
  8 37  1  0  0  0
  9 10  1  0  0  0
  9 38  1  0  0  0
  9 39  1  0  0  0
 10 11  1  0  0  0
 10 40  1  0  0  0
 10 41  1  0  0  0
 11 42  1  0  0  0
 11 43  1  0  0  0
 12 16  1  0  0  0
 12 13  2  0  0  0
 13 14  1  0  0  0
 13 44  1  0  0  0
 14 15  1  0  0  0
 15 16  2  0  0  0
 15 17  1  0  0  0
 17 18  1  0  0  0
 17 45  1  0  0  0
 18 23  2  0  0  0
 18 19  1  0  0  0
 19 20  2  0  0  0
 19 46  1  0  0  0
 20 21  1  0  0  0
 20 47  1  0  0  0
 21 22  2  0  0  0
 21 48  1  0  0  0
 22 23  1  0  0  0
 22 24  1  0  0  0
 23 49  1  0  0  0
 24 25  1  0  0  0
 24 26  1  0  0  0
 24 27  1  0  0  0
 28 29  2  0  0  0
 28 30  1  0  0  0
 30 50  1  0  0  0
 30 51  1  0  0  0
M  END
> <i_i_glide_confnum>
77

> <i_i_glide_lignum>
4299

> <i_i_glide_posenum>
361

> <i_i_glide_rotatable_bonds>
6

> <i_m_Source_File_Index>
2632

> <b_m_subgroup_collapsed>
0

> <r_i_docking_score>
-7.17374

> <r_i_glide_ecoul>
-6.64257

> <r_i_glide_eff_state_penalty>
0

> <r_i_glide_einternal>
0.725901

> <r_i_glide_emodel>
-70.2154

> <r_i_glide_energy>
-48.1186

> <r_i_glide_erotb>
0.422014

> <r_i_glide_esite>
-0.0331648

> <r_i_glide_evdw>
-41.4761

> <r_i_glide_gscore>
-7.17374

> <r_i_glide_hbond>
-0.590982

> <r_i_glide_ligand_efficiency>
-0.239125

> <r_i_glide_ligand_efficiency_ln>
-1.62995

> <r_i_glide_ligand_efficiency_sa>
-0.743016

> <r_i_glide_lipo>
-2.71305

> <r_i_glide_metal>
0

> <r_i_glide_rewards>
-1.18837

> <s_i_glide_gridfile>
wee1_glide-grid

> <s_m_Source_File>
wee1_decoys_glide_SP.sdf

> <s_m_Source_Path>
/Users/zhangxujun/Desktop

> <s_m_entry_id>
2907

> <s_m_entry_name>
wee1_decoys_glide_SP.2632

> <s_m_subgroup_title>
wee1_decoys_glide_SP

> <s_m_subgroupid>
wee1_decoys_glide_SP


$$$$
