ZINC20499721_4053
                    3D
 Schrodinger Suite 2024-2.
 50 52  0  0  1  0            999 V2000
    7.5916   55.3050   21.5569 C   0  0  0  0  0  0
    6.3032   54.7564   22.1381 C   0  0  0  0  0  0
    6.2090   54.5164   23.5087 C   0  0  0  0  0  0
    4.9986   54.0963   24.0546 C   0  0  0  0  0  0
    3.8830   53.9041   23.2314 C   0  0  0  0  0  0
    4.0031   54.0965   21.8514 C   0  0  0  0  0  0
    5.2123   54.5113   21.3057 C   0  0  0  0  0  0
    2.2745   53.6420   24.0004 S   0  0  0  0  0  0
    2.5176   53.2964   25.4064 O   0  0  0  0  0  0
    1.5043   54.8426   23.6813 O   0  0  0  0  0  0
    1.3997   52.2686   23.2305 N   0  0  0  0  0  0
    1.0548   52.3329   21.8144 C   0  0  0  0  0  0
   -0.4218   52.1235   21.4004 C   0  0  0  0  0  0
   -1.3277   52.0704   22.2378 O   0  0  0  0  0  0
   -0.6405   52.0960   20.0699 N   0  0  0  0  0  0
   -1.8837   52.0478   19.5476 N   0  0  0  0  0  0
   -1.9095   52.1796   18.2832 C   0  0  0  0  0  0
   -3.1518   52.1465   17.5018 C   0  0  0  0  0  0
   -3.1356   52.5820   16.1706 C   0  0  0  0  0  0
   -4.3034   52.5827   15.4112 C   0  0  0  0  0  0
   -5.4961   52.1418   15.9769 C   0  0  0  0  0  0
   -5.5293   51.6953   17.2947 C   0  0  0  0  0  0
   -4.3614   51.6952   18.0527 C   0  0  0  0  0  0
   -7.0934   52.1496   14.9432 Br  0  0  0  0  0  0
    0.8300   51.2709   24.0489 C   0  0  0  0  0  0
    1.0828   49.9228   23.7721 C   0  0  0  0  0  0
    0.4373   48.9233   24.5005 C   0  0  0  0  0  0
   -0.4415   49.2566   25.5255 C   0  0  0  0  0  0
   -0.6933   50.5943   25.8171 C   0  0  0  0  0  0
   -0.0751   51.6005   25.0747 C   0  0  0  0  0  0
   -0.3931   52.8909   25.3346 F   0  0  0  0  0  0
    7.5041   55.5477   20.4973 H   0  0  0  0  0  0
    8.3957   54.5865   21.6872 H   0  0  0  0  0  0
    7.8891   56.2092   22.0868 H   0  0  0  0  0  0
    7.0591   54.6943   24.1518 H   0  0  0  0  0  0
    4.9214   53.9666   25.1247 H   0  0  0  0  0  0
    3.1689   54.0086   21.1806 H   0  0  0  0  0  0
    5.2798   54.6902   20.2419 H   0  0  0  0  0  0
    1.2998   53.2960   21.3824 H   0  0  0  0  0  0
    1.6717   51.6303   21.2516 H   0  0  0  0  0  0
    0.1168   52.1815   19.4075 H   0  0  0  0  0  0
   -1.0093   52.3346   17.6898 H   0  0  0  0  0  0
   -2.2209   52.9321   15.7131 H   0  0  0  0  0  0
   -4.2843   52.9249   14.3874 H   0  0  0  0  0  0
   -6.4566   51.3505   17.7270 H   0  0  0  0  0  0
   -4.4060   51.3411   19.0735 H   0  0  0  0  0  0
    1.7664   49.6442   22.9830 H   0  0  0  0  0  0
    0.6377   47.8851   24.2855 H   0  0  0  0  0  0
   -0.9284   48.4753   26.0907 H   0  0  0  0  0  0
   -1.3825   50.8454   26.6098 H   0  0  0  0  0  0
  1  2  1  0  0  0
  1 32  1  0  0  0
  1 33  1  0  0  0
  1 34  1  0  0  0
  2  7  2  0  0  0
  2  3  1  0  0  0
  3  4  2  0  0  0
  3 35  1  0  0  0
  4  5  1  0  0  0
  4 36  1  0  0  0
  5  6  2  0  0  0
  5  8  1  0  0  0
  6  7  1  0  0  0
  6 37  1  0  0  0
  7 38  1  0  0  0
  8  9  2  0  0  0
  8 10  2  0  0  0
  8 11  1  0  0  0
 11 12  1  0  0  0
 11 25  1  0  0  0
 12 13  1  0  0  0
 12 39  1  0  0  0
 12 40  1  0  0  0
 13 14  2  0  0  0
 13 15  1  0  0  0
 15 16  1  0  0  0
 15 41  1  0  0  0
 16 17  2  0  0  0
 17 18  1  0  0  0
 17 42  1  0  0  0
 18 23  2  0  0  0
 18 19  1  0  0  0
 19 20  2  0  0  0
 19 43  1  0  0  0
 20 21  1  0  0  0
 20 44  1  0  0  0
 21 22  2  0  0  0
 21 24  1  0  0  0
 22 23  1  0  0  0
 22 45  1  0  0  0
 23 46  1  0  0  0
 25 30  2  0  0  0
 25 26  1  0  0  0
 26 27  2  0  0  0
 26 47  1  0  0  0
 27 28  1  0  0  0
 27 48  1  0  0  0
 28 29  2  0  0  0
 28 49  1  0  0  0
 29 30  1  0  0  0
 29 50  1  0  0  0
 30 31  1  0  0  0
M  END
> <i_i_glide_confnum>
174

> <i_i_glide_lignum>
4054

> <i_i_glide_posenum>
364

> <i_i_glide_rotatable_bonds>
8

> <i_m_Source_File_Index>
5646

> <b_m_subgroup_collapsed>
0

> <r_i_docking_score>
-3.14883

> <r_i_glide_ecoul>
-6.50075

> <r_i_glide_eff_state_penalty>
0

> <r_i_glide_einternal>
6.53337

> <r_i_glide_emodel>
-39.6696

> <r_i_glide_energy>
-37.9105

> <r_i_glide_erotb>
0.56261

> <r_i_glide_esite>
-0.041092

> <r_i_glide_evdw>
-31.4098

> <r_i_glide_gscore>
-3.14883

> <r_i_glide_hbond>
-0.155747

> <r_i_glide_ligand_efficiency>
-0.101575

> <r_i_glide_ligand_efficiency_ln>
-0.710158

> <r_i_glide_ligand_efficiency_sa>
-0.319087

> <r_i_glide_lipo>
-1.47754

> <r_i_glide_metal>
0

> <r_i_glide_rewards>
0.508542

> <s_i_glide_gridfile>
wee1_glide-grid

> <s_m_Source_File>
wee1_decoys_glide_SP.sdf

> <s_m_Source_Path>
/Users/zhangxujun/Desktop

> <s_m_entry_id>
5921

> <s_m_entry_name>
wee1_decoys_glide_SP.5646

> <s_m_subgroup_title>
wee1_decoys_glide_SP

> <s_m_subgroupid>
wee1_decoys_glide_SP


$$$$
