ZINC13499749_3213
                    3D
 Schrodinger Suite 2024-2.
 60 64  0  0  1  0            999 V2000
    5.0799   55.3260   19.0313 C   0  0  0  0  0  0
    5.6624   54.1454   19.8243 C   0  0  0  0  0  0
    4.9662   53.9225   21.1645 C   0  0  0  0  0  0
    5.6399   54.3857   22.2581 N   0  0  0  0  0  0
    5.0432   54.2470   23.4470 C   0  0  0  0  0  0
    3.7550   53.7004   23.6541 C   0  0  0  0  0  0
    3.3223   53.6976   25.0144 C   0  0  0  0  0  0
    4.3427   54.1797   25.8409 C   0  0  0  0  0  0
    5.7636   54.7383   24.9635 S   0  0  0  0  0  0
    4.2441   54.2632   27.3610 C   0  0  0  0  0  0
    3.1428   53.2891   27.8483 C   0  0  2  0  0  0
    3.4973   52.2695   27.7054 H   0  0  0  0  0  0
    1.8429   53.5259   27.0485 C   0  0  0  0  0  0
    1.9880   53.1731   25.5505 C   0  0  0  0  0  0
    2.9073   53.4676   29.3606 C   0  0  0  0  0  0
    3.1035   53.2154   22.4890 C   0  0  0  0  0  0
    3.7253   53.3095   21.2412 N   0  0  0  0  0  0
    2.8317   52.6992   20.3678 C   0  0  0  0  0  0
    1.7670   52.2960   21.0414 N   0  0  0  0  0  0
    1.9027   52.6100   22.3831 N   0  0  0  0  0  0
    3.0740   52.4866   18.6269 S   0  0  0  0  0  0
    1.4692   51.8178   18.0398 C   0  0  0  0  0  0
    0.6348   52.8244   17.2350 C   0  0  0  0  0  0
    0.0375   52.4429   16.2248 O   0  0  0  0  0  0
    0.6405   54.0964   17.6812 N   0  0  0  0  0  0
   -0.0056   55.1311   16.9934 N   0  0  0  0  0  0
   -1.3396   55.3172   17.0951 C   0  0  0  0  0  0
   -2.1093   54.5513   17.6823 O   0  0  0  0  0  0
   -1.8752   56.5646   16.4309 C   0  0  0  0  0  0
   -1.0804   57.7135   16.2974 C   0  0  0  0  0  0
   -1.5999   58.8604   15.7005 C   0  0  0  0  0  0
   -2.9146   58.8715   15.2378 C   0  0  0  0  0  0
   -3.7152   57.7401   15.3776 C   0  0  0  0  0  0
   -3.1970   56.5912   15.9702 C   0  0  0  0  0  0
   -3.4852   60.1304   14.6089 C   0  0  0  0  0  0
    5.5588   55.4108   18.0550 H   0  0  0  0  0  0
    4.0075   55.2208   18.8624 H   0  0  0  0  0  0
    5.2419   56.2671   19.5557 H   0  0  0  0  0  0
    6.7196   54.3528   19.9923 H   0  0  0  0  0  0
    5.6451   53.2264   19.2396 H   0  0  0  0  0  0
    5.2019   54.0216   27.8267 H   0  0  0  0  0  0
    3.9959   55.2807   27.6584 H   0  0  0  0  0  0
    1.0362   52.9246   27.4701 H   0  0  0  0  0  0
    1.5022   54.5485   27.1930 H   0  0  0  0  0  0
    1.1515   53.5958   24.9955 H   0  0  0  0  0  0
    1.9273   52.0965   25.4088 H   0  0  0  0  0  0
    2.5543   54.4735   29.5998 H   0  0  0  0  0  0
    2.1601   52.7621   29.7277 H   0  0  0  0  0  0
    3.8246   53.2948   29.9249 H   0  0  0  0  0  0
    0.8638   51.4048   18.8440 H   0  0  0  0  0  0
    1.7053   50.9768   17.3875 H   0  0  0  0  0  0
    1.0760   54.3996   18.5462 H   0  0  0  0  0  0
    0.5618   55.5224   16.2570 H   0  0  0  0  0  0
   -0.0625   57.7447   16.6614 H   0  0  0  0  0  0
   -0.9753   59.7368   15.6079 H   0  0  0  0  0  0
   -4.7345   57.7431   15.0262 H   0  0  0  0  0  0
   -3.8354   55.7239   16.0721 H   0  0  0  0  0  0
   -3.0056   61.0228   15.0105 H   0  0  0  0  0  0
   -3.3478   60.1129   13.5280 H   0  0  0  0  0  0
   -4.5492   60.2234   14.8237 H   0  0  0  0  0  0
  1  2  1  0  0  0
  1 36  1  0  0  0
  1 37  1  0  0  0
  1 38  1  0  0  0
  2  3  1  0  0  0
  2 39  1  0  0  0
  2 40  1  0  0  0
  3 17  1  0  0  0
  3  4  2  0  0  0
  4  5  1  0  0  0
  5  9  1  0  0  0
  5  6  2  0  0  0
  6  7  1  0  0  0
  6 16  1  0  0  0
  7 14  1  0  0  0
  7  8  2  0  0  0
  8  9  1  0  0  0
  8 10  1  0  0  0
 10 11  1  0  0  0
 10 41  1  0  0  0
 10 42  1  0  0  0
 11 12  1  0  0  0
 11 13  1  0  0  0
 11 15  1  0  0  0
 13 14  1  0  0  0
 13 43  1  0  0  0
 13 44  1  0  0  0
 14 45  1  0  0  0
 14 46  1  0  0  0
 15 47  1  0  0  0
 15 48  1  0  0  0
 15 49  1  0  0  0
 16 20  2  0  0  0
 16 17  1  0  0  0
 17 18  1  0  0  0
 18 19  2  0  0  0
 18 21  1  0  0  0
 19 20  1  0  0  0
 21 22  1  0  0  0
 22 23  1  0  0  0
 22 50  1  0  0  0
 22 51  1  0  0  0
 23 24  2  0  0  0
 23 25  1  0  0  0
 25 26  1  0  0  0
 25 52  1  0  0  0
 26 27  1  0  0  0
 26 53  1  0  0  0
 27 28  2  0  0  0
 27 29  1  0  0  0
 29 34  2  0  0  0
 29 30  1  0  0  0
 30 31  2  0  0  0
 30 54  1  0  0  0
 31 32  1  0  0  0
 31 55  1  0  0  0
 32 33  2  0  0  0
 32 35  1  0  0  0
 33 34  1  0  0  0
 33 56  1  0  0  0
 34 57  1  0  0  0
 35 58  1  0  0  0
 35 59  1  0  0  0
 35 60  1  0  0  0
M  END
> <i_i_glide_confnum>
28

> <i_i_glide_lignum>
3214

> <i_i_glide_posenum>
119

> <i_i_glide_rotatable_bonds>
8

> <i_m_Source_File_Index>
1794

> <b_m_subgroup_collapsed>
0

> <r_i_docking_score>
-5.21581

> <r_i_glide_ecoul>
-5.5515

> <r_i_glide_eff_state_penalty>
0

> <r_i_glide_einternal>
6.59806

> <r_i_glide_emodel>
-59.2326

> <r_i_glide_energy>
-45.0742

> <r_i_glide_erotb>
0.583083

> <r_i_glide_esite>
-0.08463

> <r_i_glide_evdw>
-39.5227

> <r_i_glide_gscore>
-5.21581

> <r_i_glide_hbond>
-0.32

> <r_i_glide_ligand_efficiency>
-0.153406

> <r_i_glide_ligand_efficiency_ln>
-1.15232

> <r_i_glide_ligand_efficiency_sa>
-0.496977

> <r_i_glide_lipo>
-2.13742

> <r_i_glide_metal>
0

> <r_i_glide_rewards>
-0.44798

> <s_i_glide_gridfile>
wee1_glide-grid

> <s_m_Source_File>
wee1_decoys_glide_SP.sdf

> <s_m_Source_Path>
/Users/zhangxujun/Desktop

> <s_m_entry_id>
2069

> <s_m_entry_name>
wee1_decoys_glide_SP.1794

> <s_m_subgroup_title>
wee1_decoys_glide_SP

> <s_m_subgroupid>
wee1_decoys_glide_SP


$$$$
