ZINC49509374_4089
                    3D
 Schrodinger Suite 2024-2.
 71 75  0  0  1  0            999 V2000
    2.1024   49.7205   22.3339 C   0  0  0  0  0  0
    1.7045   50.5634   23.3780 C   0  0  0  0  0  0
    1.6211   51.8974   22.9959 C   0  0  0  0  0  0
    1.9820   52.0974   21.3041 S   0  0  0  0  0  0
    2.2979   50.4005   21.1403 C   0  0  0  0  0  0
    1.1853   53.2795   24.0963 S   0  0  0  0  0  0
    0.0382   52.8133   24.8820 O   0  0  0  0  0  0
    1.1053   54.4944   23.2819 O   0  0  0  0  0  0
    2.5846   53.4805   25.2160 N   0  0  0  0  0  0
    2.3493   53.2916   26.6598 C   0  0  0  0  0  0
    3.1598   54.2708   27.5230 C   0  0  0  0  0  0
    4.6512   54.1359   27.2140 C   0  0  0  0  0  0
    4.8831   54.2808   25.7189 C   0  0  0  0  0  0
    3.8673   53.9468   24.7897 C   0  0  0  0  0  0
    4.1451   54.0859   23.4243 C   0  0  0  0  0  0
    5.3875   54.4965   22.9581 C   0  0  0  0  0  0
    6.3864   54.8232   23.8784 C   0  0  0  0  0  0
    6.1238   54.7244   25.2428 C   0  0  0  0  0  0
    5.5338   54.5392   21.5643 N   0  0  0  0  0  0
    6.3748   55.2968   20.8180 C   0  0  0  0  0  0
    7.1045   56.1732   21.2852 O   0  0  0  0  0  0
    6.3725   55.0151   19.3410 C   0  0  0  0  0  0
    7.1161   55.6460   18.5880 O   0  0  0  0  0  0
    5.5285   54.0556   18.8830 N   0  0  0  0  0  0
    5.3505   53.6927   17.4724 C   0  0  0  0  0  0
    4.4995   54.6829   16.6142 C   0  0  2  0  0  0
    5.3962   55.6326   15.7848 C   0  0  0  0  0  0
    4.5876   56.5585   14.8614 C   0  0  0  0  0  0
    3.6036   57.3720   15.7361 N   0  3  2  0  0  0
    2.6399   56.4528   16.5240 C   0  0  0  0  0  0
    3.4880   55.5380   17.4243 C   0  0  0  0  0  0
    2.8472   58.4360   14.9042 C   0  0  0  0  0  0
    1.8832   59.3733   15.6429 C   0  0  0  0  0  0
    1.5364   60.4514   14.6148 C   0  0  0  0  0  0
    2.8140   60.6409   13.7886 C   0  0  0  0  0  0
    3.6911   59.4067   14.0594 C   0  0  0  0  0  0
    2.2467   48.6564   22.4491 H   0  0  0  0  0  0
    1.5036   50.2145   24.3812 H   0  0  0  0  0  0
    2.6055   49.9931   20.1868 H   0  0  0  0  0  0
    1.2905   53.2946   26.9204 H   0  0  0  0  0  0
    2.7000   52.2802   26.8634 H   0  0  0  0  0  0
    2.8265   55.2908   27.3332 H   0  0  0  0  0  0
    2.9677   54.0862   28.5804 H   0  0  0  0  0  0
    5.0043   53.1525   27.5302 H   0  0  0  0  0  0
    5.2256   54.8727   27.7777 H   0  0  0  0  0  0
    3.3902   53.8793   22.6911 H   0  0  0  0  0  0
    7.3654   55.1420   23.5521 H   0  0  0  0  0  0
    6.9052   54.9707   25.9450 H   0  0  0  0  0  0
    4.9023   53.9298   21.0768 H   0  0  0  0  0  0
    4.9479   53.5315   19.5161 H   0  0  0  0  0  0
    4.8571   52.7155   17.4700 H   0  0  0  0  0  0
    6.3202   53.4943   17.0096 H   0  0  0  0  0  0
    3.9181   54.0921   15.9030 H   0  0  0  0  0  0
    6.0938   55.0483   15.1840 H   0  0  0  0  0  0
    6.0338   56.2297   16.4345 H   0  0  0  0  0  0
    4.0080   56.0224   14.1074 H   0  0  0  0  0  0
    5.2649   57.2673   14.3822 H   0  0  0  0  0  0
    2.0102   57.0928   17.1397 H   0  0  0  0  0  0
    2.0246   55.9080   15.8057 H   0  0  0  0  0  0
    4.0031   56.1446   18.1700 H   0  0  0  0  0  0
    2.8360   54.8851   18.0073 H   0  0  0  0  0  0
    2.2393   57.8466   14.2111 H   0  0  0  0  0  0
    2.3970   59.8471   16.4798 H   0  0  0  0  0  0
    0.9960   58.8767   16.0351 H   0  0  0  0  0  0
    1.2123   61.3789   15.0875 H   0  0  0  0  0  0
    0.7198   60.1115   13.9753 H   0  0  0  0  0  0
    3.3376   61.5457   14.1022 H   0  0  0  0  0  0
    2.5853   60.7529   12.7285 H   0  0  0  0  0  0
    4.0577   58.9524   13.1373 H   0  0  0  0  0  0
    4.5600   59.7213   14.6426 H   0  0  0  0  0  0
    4.1547   57.8885   16.4099 H   0  0  0  0  0  0
  1  5  2  0  0  0
  1  2  1  0  0  0
  1 37  1  0  0  0
  2  3  2  0  0  0
  2 38  1  0  0  0
  3  4  1  0  0  0
  3  6  1  0  0  0
  4  5  1  0  0  0
  5 39  1  0  0  0
  6  7  2  0  0  0
  6  8  2  0  0  0
  6  9  1  0  0  0
  9 14  1  0  0  0
  9 10  1  0  0  0
 10 11  1  0  0  0
 10 40  1  0  0  0
 10 41  1  0  0  0
 11 12  1  0  0  0
 11 42  1  0  0  0
 11 43  1  0  0  0
 12 13  1  0  0  0
 12 44  1  0  0  0
 12 45  1  0  0  0
 13 18  2  0  0  0
 13 14  1  0  0  0
 14 15  2  0  0  0
 15 16  1  0  0  0
 15 46  1  0  0  0
 16 17  2  0  0  0
 16 19  1  0  0  0
 17 18  1  0  0  0
 17 47  1  0  0  0
 18 48  1  0  0  0
 19 20  1  0  0  0
 19 49  1  0  0  0
 20 21  2  0  0  0
 20 22  1  0  0  0
 22 23  2  0  0  0
 22 24  1  0  0  0
 24 25  1  0  0  0
 24 50  1  0  0  0
 25 26  1  0  0  0
 25 51  1  0  0  0
 25 52  1  0  0  0
 26 31  1  0  0  0
 26 27  1  0  0  0
 26 53  1  0  0  0
 27 28  1  0  0  0
 27 54  1  0  0  0
 27 55  1  0  0  0
 28 29  1  0  0  0
 28 56  1  0  0  0
 28 57  1  0  0  0
 29 30  1  0  0  0
 29 32  1  0  0  0
 29 71  1  0  0  0
 30 31  1  0  0  0
 30 58  1  0  0  0
 30 59  1  0  0  0
 31 60  1  0  0  0
 31 61  1  0  0  0
 32 36  1  0  0  0
 32 33  1  0  0  0
 32 62  1  0  0  0
 33 34  1  0  0  0
 33 63  1  0  0  0
 33 64  1  0  0  0
 34 35  1  0  0  0
 34 65  1  0  0  0
 34 66  1  0  0  0
 35 36  1  0  0  0
 35 67  1  0  0  0
 35 68  1  0  0  0
 36 69  1  0  0  0
 36 70  1  0  0  0
M  CHG  1  29   1
M  END
> <i_i_glide_confnum>
705

> <i_i_glide_lignum>
4090

> <i_i_glide_posenum>
380

> <i_i_glide_rotatable_bonds>
9

> <i_m_Source_File_Index>
2629

> <b_m_subgroup_collapsed>
0

> <r_i_docking_score>
-5.7928

> <r_i_glide_ecoul>
-6.54854

> <r_i_glide_eff_state_penalty>
0

> <r_i_glide_einternal>
1.38832

> <r_i_glide_emodel>
-67.8453

> <r_i_glide_energy>
-48.4913

> <r_i_glide_erotb>
0.656466

> <r_i_glide_esite>
-0.0303151

> <r_i_glide_evdw>
-41.9427

> <r_i_glide_gscore>
-5.7928

> <r_i_glide_hbond>
-0.108519

> <r_i_glide_ligand_efficiency>
-0.160911

> <r_i_glide_ligand_efficiency_ln>
-1.26383

> <r_i_glide_ligand_efficiency_sa>
-0.531317

> <r_i_glide_lipo>
-2.65961

> <r_i_glide_metal>
0

> <r_i_glide_rewards>
-0.571411

> <s_i_glide_gridfile>
wee1_glide-grid

> <s_m_Source_File>
wee1_decoys_glide_SP.sdf

> <s_m_Source_Path>
/Users/zhangxujun/Desktop

> <s_m_entry_id>
2904

> <s_m_entry_name>
wee1_decoys_glide_SP.2629

> <s_m_subgroup_title>
wee1_decoys_glide_SP

> <s_m_subgroupid>
wee1_decoys_glide_SP


$$$$
