ZINC00759051_1498
                    3D
 Schrodinger Suite 2024-2.
 43 46  0  0  1  0            999 V2000
    2.3041   50.1937   18.4585 C   0  0  0  0  0  0
    2.1676   50.7931   19.7392 O   0  0  0  0  0  0
    1.6957   50.0849   20.7930 C   0  0  0  0  0  0
    1.3688   48.8960   20.7264 O   0  0  0  0  0  0
    1.6125   50.8921   22.0557 C   0  0  0  0  0  0
    1.1669   50.2747   23.2311 C   0  0  0  0  0  0
    1.1034   50.9877   24.4234 C   0  0  0  0  0  0
    1.5041   52.3285   24.4749 C   0  0  0  0  0  0
    1.9145   52.9560   23.2939 C   0  0  0  0  0  0
    1.9708   52.2486   22.0968 C   0  0  0  0  0  0
    1.4964   53.1295   25.7899 C   0  0  1  0  0  0
    1.1044   54.0965   25.4824 H   0  0  0  0  0  0
    0.6235   52.5741   26.9384 C   0  0  0  0  0  0
   -0.6766   52.0096   27.0833 C   0  0  0  0  0  0
   -0.9236   51.6815   28.3445 N   0  0  0  0  0  0
    0.1882   51.9518   29.0264 N   0  0  0  0  0  0
    0.2787   51.7759   30.0161 H   0  0  0  0  0  0
    1.1454   52.4664   28.2135 C   0  0  0  0  0  0
    2.3955   52.8007   28.6615 O   0  0  0  0  0  0
    3.2067   53.2964   27.6859 C   0  0  0  0  0  0
    2.8930   53.4645   26.3734 C   0  0  0  0  0  0
    3.8770   54.0304   25.5056 C   0  0  0  0  0  0
    4.6960   54.4968   24.8352 N   0  0  0  0  0  0
    4.4119   53.5766   28.2719 N   0  0  0  0  0  0
   -1.7259   51.7552   26.0379 C   0  0  0  0  0  0
   -2.6853   50.7447   26.2129 C   0  0  0  0  0  0
   -3.6405   50.5288   25.2171 C   0  0  0  0  0  0
   -3.6900   51.2549   24.0719 N   0  0  0  0  0  0
   -2.7597   52.2277   23.9061 C   0  0  0  0  0  0
   -1.7750   52.5045   24.8552 C   0  0  0  0  0  0
    2.7767   50.8958   17.7710 H   0  0  0  0  0  0
    1.3304   49.9214   18.0490 H   0  0  0  0  0  0
    2.9219   49.2956   18.4975 H   0  0  0  0  0  0
    0.8798   49.2318   23.2405 H   0  0  0  0  0  0
    0.7740   50.4700   25.3124 H   0  0  0  0  0  0
    2.2096   53.9956   23.2994 H   0  0  0  0  0  0
    2.3070   52.7710   21.2110 H   0  0  0  0  0  0
    5.1576   53.9859   27.7277 H   0  0  0  0  0  0
    4.6707   53.1173   29.1316 H   0  0  0  0  0  0
   -2.6812   50.1227   27.0985 H   0  0  0  0  0  0
   -4.3843   49.7533   25.3292 H   0  0  0  0  0  0
   -2.8139   52.7931   22.9879 H   0  0  0  0  0  0
   -1.0673   53.2962   24.6696 H   0  0  0  0  0  0
  1  2  1  0  0  0
  1 31  1  0  0  0
  1 32  1  0  0  0
  1 33  1  0  0  0
  2  3  1  0  0  0
  3  4  2  0  0  0
  3  5  1  0  0  0
  5 10  2  0  0  0
  5  6  1  0  0  0
  6  7  2  0  0  0
  6 34  1  0  0  0
  7  8  1  0  0  0
  7 35  1  0  0  0
  8  9  2  0  0  0
  8 11  1  0  0  0
  9 10  1  0  0  0
  9 36  1  0  0  0
 10 37  1  0  0  0
 11 12  1  0  0  0
 11 21  1  0  0  0
 11 13  1  0  0  0
 13 18  2  0  0  0
 13 14  1  0  0  0
 14 15  2  0  0  0
 14 25  1  0  0  0
 15 16  1  0  0  0
 16 17  1  0  0  0
 16 18  1  0  0  0
 18 19  1  0  0  0
 19 20  1  0  0  0
 20 21  2  0  0  0
 20 24  1  0  0  0
 21 22  1  0  0  0
 22 23  3  0  0  0
 24 38  1  0  0  0
 24 39  1  0  0  0
 25 30  2  0  0  0
 25 26  1  0  0  0
 26 27  2  0  0  0
 26 40  1  0  0  0
 27 28  1  0  0  0
 27 41  1  0  0  0
 28 29  2  0  0  0
 29 30  1  0  0  0
 29 42  1  0  0  0
 30 43  1  0  0  0
M  END
> <i_i_glide_confnum>
6

> <i_i_glide_lignum>
1499

> <i_i_glide_posenum>
251

> <i_i_glide_rotatable_bonds>
5

> <i_m_Source_File_Index>
1895

> <b_m_subgroup_collapsed>
0

> <r_i_docking_score>
-4.12521

> <r_i_glide_ecoul>
-1.75952

> <r_i_glide_eff_state_penalty>
0

> <r_i_glide_einternal>
3.75865

> <r_i_glide_emodel>
-42.3203

> <r_i_glide_energy>
-35.307

> <r_i_glide_erotb>
0.41587

> <r_i_glide_esite>
0

> <r_i_glide_evdw>
-33.5475

> <r_i_glide_gscore>
-4.12521

> <r_i_glide_hbond>
0

> <r_i_glide_ligand_efficiency>
-0.147329

> <r_i_glide_ligand_efficiency_ln>
-0.95222

> <r_i_glide_ligand_efficiency_sa>
-0.447377

> <r_i_glide_lipo>
-1.40253

> <r_i_glide_metal>
0

> <r_i_glide_rewards>
-1.19724

> <s_i_glide_gridfile>
wee1_glide-grid

> <s_m_Source_File>
wee1_decoys_glide_SP.sdf

> <s_m_Source_Path>
/Users/zhangxujun/Desktop

> <s_m_entry_id>
2170

> <s_m_entry_name>
wee1_decoys_glide_SP.1895

> <s_m_subgroup_title>
wee1_decoys_glide_SP

> <s_m_subgroupid>
wee1_decoys_glide_SP


$$$$
