ZINC36063103_5808
                    3D
 Schrodinger Suite 2024-2.
 60 63  0  0  1  0            999 V2000
    1.2777   51.9968   27.3924 C   0  0  0  0  0  0
    1.0116   52.4571   25.9574 C   0  0  0  0  0  0
    2.2294   52.8234   25.3159 O   0  0  0  0  0  0
    2.2293   53.6774   24.2737 C   0  0  0  0  0  0
    1.2148   54.2310   23.8470 O   0  0  0  0  0  0
    3.5446   53.8730   23.6415 C   0  0  0  0  0  0
    4.7212   54.0959   24.3289 C   0  0  0  0  0  0
    5.8780   54.4253   23.6786 N   0  0  0  0  0  0
    5.8896   54.5169   22.4095 C   0  0  0  0  0  0
    4.8544   54.2280   21.5244 N   0  0  0  0  0  0
    3.5132   53.8540   22.0749 C   0  0  1  0  0  0
    2.8659   54.6745   21.7605 H   0  0  0  0  0  0
    2.8897   52.5852   21.4357 C   0  0  0  0  0  0
    1.4973   52.4977   21.2913 C   0  0  0  0  0  0
    0.9044   51.4160   20.6504 C   0  0  0  0  0  0
    1.7075   50.4177   20.1163 C   0  0  0  0  0  0
    3.0895   50.4980   20.2298 C   0  0  0  0  0  0
    3.6841   51.5596   20.9074 C   0  0  0  0  0  0
    0.9900   49.0813   19.2935 Cl  0  0  0  0  0  0
    5.1375   54.5008   20.1870 C   0  0  0  0  0  0
    6.3369   55.0916   20.0374 C   0  0  0  0  0  0
    7.2162   55.2991   21.5401 S   0  0  0  0  0  0
    4.2700   54.1642   19.0650 C   0  0  0  0  0  0
    4.6026   53.9905   17.7710 C   0  0  0  0  0  0
    5.7142   54.1284   17.1463 O   0  5  0  0  0  0
    3.6612   53.6095   16.8600 N   0  0  0  0  0  0
    3.2812   52.2108   16.6970 C   0  0  0  0  0  0
    1.9361   52.0086   15.9695 C   0  0  0  0  0  0
    0.7783   52.1200   16.7997 O   0  0  0  0  0  0
    0.5627   53.3833   17.4139 C   0  0  0  0  0  0
    4.9148   54.2041   25.8192 C   0  0  0  0  0  0
    6.0698   53.7001   26.4430 C   0  0  0  0  0  0
    6.2449   53.7883   27.8215 C   0  0  0  0  0  0
    5.2571   54.3820   28.6008 C   0  0  0  0  0  0
    4.1075   54.8901   28.0142 C   0  0  0  0  0  0
    3.9627   54.8232   26.6336 C   0  0  0  0  0  0
    0.3455   51.7540   27.9003 H   0  0  0  0  0  0
    1.8975   51.1058   27.4135 H   0  0  0  0  0  0
    1.7756   52.7741   27.9686 H   0  0  0  0  0  0
    0.3174   53.2961   25.9839 H   0  0  0  0  0  0
    0.5299   51.6604   25.3865 H   0  0  0  0  0  0
    0.8606   53.2941   21.6401 H   0  0  0  0  0  0
   -0.1688   51.3672   20.5428 H   0  0  0  0  0  0
    3.6863   49.7360   19.7551 H   0  0  0  0  0  0
    4.7606   51.6103   20.9679 H   0  0  0  0  0  0
    6.7861   55.3969   19.1036 H   0  0  0  0  0  0
    3.2276   54.0231   19.2963 H   0  0  0  0  0  0
    3.8118   54.0200   15.9524 H   0  0  0  0  0  0
    3.2483   51.6996   17.6624 H   0  0  0  0  0  0
    4.0805   51.7316   16.1317 H   0  0  0  0  0  0
    1.9145   50.9892   15.5818 H   0  0  0  0  0  0
    1.8522   52.6643   15.1009 H   0  0  0  0  0  0
   -0.4234   53.4055   17.8767 H   0  0  0  0  0  0
    0.6038   54.1988   16.6885 H   0  0  0  0  0  0
    1.2924   53.5684   18.1993 H   0  0  0  0  0  0
    6.8466   53.2451   25.8480 H   0  0  0  0  0  0
    7.1435   53.4054   28.2837 H   0  0  0  0  0  0
    5.3874   54.4793   29.6684 H   0  0  0  0  0  0
    3.3512   55.3680   28.6190 H   0  0  0  0  0  0
    3.1045   55.2777   26.1882 H   0  0  0  0  0  0
  1  2  1  0  0  0
  1 37  1  0  0  0
  1 38  1  0  0  0
  1 39  1  0  0  0
  2  3  1  0  0  0
  2 40  1  0  0  0
  2 41  1  0  0  0
  3  4  1  0  0  0
  4  5  2  0  0  0
  4  6  1  0  0  0
  6 11  1  0  0  0
  6  7  2  0  0  0
  7  8  1  0  0  0
  7 31  1  0  0  0
  8  9  2  0  0  0
  9 22  1  0  0  0
  9 10  1  0  0  0
 10 11  1  0  0  0
 10 20  1  0  0  0
 11 12  1  0  0  0
 11 13  1  0  0  0
 13 18  2  0  0  0
 13 14  1  0  0  0
 14 15  2  0  0  0
 14 42  1  0  0  0
 15 16  1  0  0  0
 15 43  1  0  0  0
 16 17  2  0  0  0
 16 19  1  0  0  0
 17 18  1  0  0  0
 17 44  1  0  0  0
 18 45  1  0  0  0
 20 21  2  0  0  0
 20 23  1  0  0  0
 21 22  1  0  0  0
 21 46  1  0  0  0
 23 24  2  0  0  0
 23 47  1  0  0  0
 24 25  1  0  0  0
 24 26  1  0  0  0
 26 27  1  0  0  0
 26 48  1  0  0  0
 27 28  1  0  0  0
 27 49  1  0  0  0
 27 50  1  0  0  0
 28 29  1  0  0  0
 28 51  1  0  0  0
 28 52  1  0  0  0
 29 30  1  0  0  0
 30 53  1  0  0  0
 30 54  1  0  0  0
 30 55  1  0  0  0
 31 36  2  0  0  0
 31 32  1  0  0  0
 32 33  2  0  0  0
 32 56  1  0  0  0
 33 34  1  0  0  0
 33 57  1  0  0  0
 34 35  2  0  0  0
 34 58  1  0  0  0
 35 36  1  0  0  0
 35 59  1  0  0  0
 36 60  1  0  0  0
M  CHG  1  25  -1
M  END
> <i_i_glide_confnum>
13

> <i_i_glide_lignum>
5809

> <i_i_glide_posenum>
50

> <i_i_glide_rotatable_bonds>
10

> <i_m_Source_File_Index>
1128

> <b_m_subgroup_collapsed>
0

> <r_i_docking_score>
-5.08886

> <r_i_glide_ecoul>
-0.820499

> <r_i_glide_eff_state_penalty>
0

> <r_i_glide_einternal>
7.50486

> <r_i_glide_emodel>
-52.8581

> <r_i_glide_energy>
-43.1823

> <r_i_glide_erotb>
0.627731

> <r_i_glide_esite>
-0.0190675

> <r_i_glide_evdw>
-42.3618

> <r_i_glide_gscore>
-5.08886

> <r_i_glide_hbond>
0

> <r_i_glide_ligand_efficiency>
-0.145396

> <r_i_glide_ligand_efficiency_ln>
-1.11712

> <r_i_glide_ligand_efficiency_sa>
-0.4756

> <r_i_glide_lipo>
-2.60289

> <r_i_glide_metal>
0

> <r_i_glide_rewards>
-0.853466

> <s_i_glide_gridfile>
wee1_glide-grid

> <s_m_Source_File>
wee1_decoys_glide_SP.sdf

> <s_m_Source_Path>
/Users/zhangxujun/Desktop

> <s_m_entry_id>
1403

> <s_m_entry_name>
wee1_decoys_glide_SP.1128

> <s_m_subgroup_title>
wee1_decoys_glide_SP

> <s_m_subgroupid>
wee1_decoys_glide_SP


$$$$
