ZINC39684187_5553
                    3D
 Schrodinger Suite 2024-2.
 80 84  0  0  1  0            999 V2000
    2.2587   45.4978   15.7173 C   0  0  0  0  0  0
    1.2735   45.7408   16.8475 C   0  0  0  0  0  0
    0.3856   44.7234   17.2120 C   0  0  0  0  0  0
   -0.5296   44.8667   18.2522 C   0  0  0  0  0  0
   -0.6025   46.0482   18.9894 C   0  0  0  0  0  0
    0.2580   47.1097   18.6658 C   0  0  0  0  0  0
    0.4559   48.4366   19.1996 C   0  0  0  0  0  0
    1.4897   48.9764   18.4653 C   0  0  0  0  0  0
    1.9044   48.0963   17.5042 N   0  0  0  0  0  0
    1.1831   46.9285   17.5896 C   0  0  0  0  0  0
   -0.2464   49.0791   20.3766 C   0  0  0  0  0  0
   -0.6515   50.5542   20.1268 C   0  0  0  0  0  0
   -0.6875   51.3302   21.3686 N   0  0  0  0  0  0
    0.4130   51.8088   21.9768 C   0  0  0  0  0  0
    1.5322   51.7221   21.4655 O   0  0  0  0  0  0
    0.2085   52.4021   23.3959 C   0  0  2  0  0  0
   -0.5737   53.1600   23.3459 H   0  0  0  0  0  0
    1.5158   53.1105   23.8156 C   0  0  0  0  0  0
    1.5054   53.0484   25.2769 N   0  0  0  0  0  0
    0.4762   52.1446   25.7862 C   0  0  0  0  0  0
   -0.0256   51.3649   24.5367 C   0  0  0  0  0  0
    0.7807   50.0382   24.3231 C   0  0  0  0  0  0
    0.6278   49.0549   25.4977 C   0  0  0  0  0  0
   -0.8717   48.7453   25.6887 N   0  3  0  0  0  0
   -1.7594   50.0014   25.8339 C   0  0  0  0  0  0
   -1.5067   50.9195   24.6234 C   0  0  0  0  0  0
    2.3792   53.7799   26.0097 C   0  0  0  0  0  0
    3.2146   54.4967   25.4467 O   0  0  0  0  0  0
    2.3526   53.7302   27.5684 C   0  0  2  0  0  0
    2.3307   52.6755   27.8273 H   0  0  0  0  0  0
    1.1557   54.4524   28.1933 C   0  0  0  0  0  0
    1.7664   55.1952   29.3460 C   0  0  0  0  0  0
    3.0244   55.1895   29.2818 N   0  0  0  0  0  0
    3.4901   54.4218   28.1915 N   0  0  0  0  0  0
    4.6923   53.6243   28.5371 C   0  0  0  0  0  0
    5.7624   54.5595   29.1378 C   0  0  0  0  0  0
    5.3547   53.0939   27.2554 C   0  0  0  0  0  0
    4.3048   52.4798   29.5199 C   0  0  0  0  0  0
    0.9605   55.9200   30.3928 C   0  0  0  0  0  0
    2.1437   44.5101   15.2697 H   0  0  0  0  0  0
    2.1195   46.2431   14.9318 H   0  0  0  0  0  0
    3.2826   45.5849   16.0842 H   0  0  0  0  0  0
    0.4058   43.7867   16.6738 H   0  0  0  0  0  0
   -1.1938   44.0491   18.4873 H   0  0  0  0  0  0
   -1.3144   46.1416   19.7962 H   0  0  0  0  0  0
    1.9978   49.9285   18.5531 H   0  0  0  0  0  0
    2.6784   48.3293   16.8821 H   0  0  0  0  0  0
    0.4377   49.0132   21.2213 H   0  0  0  0  0  0
   -1.1340   48.5159   20.6695 H   0  0  0  0  0  0
   -1.6187   50.5988   19.6271 H   0  0  0  0  0  0
    0.0484   51.0439   19.4459 H   0  0  0  0  0  0
   -1.5871   51.4490   21.8108 H   0  0  0  0  0  0
    1.5628   54.1294   23.4255 H   0  0  0  0  0  0
    2.3976   52.5384   23.5216 H   0  0  0  0  0  0
    0.7639   51.5043   26.6181 H   0  0  0  0  0  0
   -0.3413   52.7799   26.1359 H   0  0  0  0  0  0
    0.4851   49.5345   23.4061 H   0  0  0  0  0  0
    1.8452   50.2532   24.1852 H   0  0  0  0  0  0
    1.1026   48.0968   25.2938 H   0  0  0  0  0  0
    1.0018   49.4203   26.4537 H   0  0  0  0  0  0
   -1.2092   48.1580   24.9405 H   0  0  0  0  0  0
   -2.7870   49.6418   25.8913 H   0  0  0  0  0  0
   -1.4990   50.4544   26.7909 H   0  0  0  0  0  0
   -2.1405   51.8007   24.7408 H   0  0  0  0  0  0
   -1.8445   50.4454   23.7009 H   0  0  0  0  0  0
    0.3934   53.7424   28.5184 H   0  0  0  0  0  0
    0.7044   55.2084   27.5669 H   0  0  0  0  0  0
    6.7291   54.0722   29.2795 H   0  0  0  0  0  0
    5.4599   54.9884   30.0845 H   0  0  0  0  0  0
    5.9260   55.4096   28.4755 H   0  0  0  0  0  0
    4.6705   52.4976   26.6716 H   0  0  0  0  0  0
    5.6691   53.9017   26.5948 H   0  0  0  0  0  0
    6.2381   52.4968   27.4769 H   0  0  0  0  0  0
    3.7433   51.6875   29.0314 H   0  0  0  0  0  0
    5.1529   52.0014   29.9845 H   0  0  0  0  0  0
    3.6915   52.8447   30.3425 H   0  0  0  0  0  0
    0.6807   56.8987   30.0198 H   0  0  0  0  0  0
    0.0608   55.3635   30.6575 H   0  0  0  0  0  0
    1.5358   56.0872   31.3009 H   0  0  0  0  0  0
   -0.9756   48.2226   26.5609 H   0  0  0  0  0  0
  1 40  1  0  0  0
  1 41  1  0  0  0
  1 42  1  0  0  0
  1  2  1  0  0  0
  2 10  2  0  0  0
  2  3  1  0  0  0
  3 43  1  0  0  0
  3  4  2  0  0  0
  4 44  1  0  0  0
  4  5  1  0  0  0
  5 45  1  0  0  0
  5  6  2  0  0  0
  6 10  1  0  0  0
  6  7  1  0  0  0
  7 11  1  0  0  0
  7  8  2  0  0  0
  8  9  1  0  0  0
  8 46  1  0  0  0
  9 47  1  0  0  0
  9 10  1  0  0  0
 11 12  1  0  0  0
 11 48  1  0  0  0
 11 49  1  0  0  0
 12 13  1  0  0  0
 12 50  1  0  0  0
 12 51  1  0  0  0
 13 14  1  0  0  0
 13 52  1  0  0  0
 14 15  2  0  0  0
 14 16  1  0  0  0
 16 17  1  0  0  0
 16 21  1  0  0  0
 16 18  1  0  0  0
 18 19  1  0  0  0
 18 53  1  0  0  0
 18 54  1  0  0  0
 19 20  1  0  0  0
 19 27  1  0  0  0
 20 21  1  0  0  0
 20 55  1  0  0  0
 20 56  1  0  0  0
 21 26  1  0  0  0
 21 22  1  0  0  0
 22 23  1  0  0  0
 22 57  1  0  0  0
 22 58  1  0  0  0
 23 24  1  0  0  0
 23 59  1  0  0  0
 23 60  1  0  0  0
 24 25  1  0  0  0
 24 61  1  0  0  0
 24 80  1  0  0  0
 25 26  1  0  0  0
 25 62  1  0  0  0
 25 63  1  0  0  0
 26 64  1  0  0  0
 26 65  1  0  0  0
 27 28  2  0  0  0
 27 29  1  0  0  0
 29 30  1  0  0  0
 29 34  1  0  0  0
 29 31  1  0  0  0
 31 32  1  0  0  0
 31 66  1  0  0  0
 31 67  1  0  0  0
 32 33  2  0  0  0
 32 39  1  0  0  0
 33 34  1  0  0  0
 34 35  1  0  0  0
 35 36  1  0  0  0
 35 37  1  0  0  0
 35 38  1  0  0  0
 36 68  1  0  0  0
 36 69  1  0  0  0
 36 70  1  0  0  0
 37 71  1  0  0  0
 37 72  1  0  0  0
 37 73  1  0  0  0
 38 74  1  0  0  0
 38 75  1  0  0  0
 38 76  1  0  0  0
 39 77  1  0  0  0
 39 78  1  0  0  0
 39 79  1  0  0  0
M  CHG  1  24   1
M  END
> <i_i_glide_confnum>
82

> <i_i_glide_lignum>
5554

> <i_i_glide_posenum>
201

> <i_i_glide_rotatable_bonds>
8

> <i_m_Source_File_Index>
5485

> <b_m_subgroup_collapsed>
0

> <r_i_docking_score>
-5.95132

> <r_i_glide_ecoul>
-8.51104

> <r_i_glide_eff_state_penalty>
0

> <r_i_glide_einternal>
5.97888

> <r_i_glide_emodel>
-63.4883

> <r_i_glide_energy>
-46.0842

> <r_i_glide_erotb>
0.555882

> <r_i_glide_esite>
-0.204022

> <r_i_glide_evdw>
-37.5732

> <r_i_glide_gscore>
-5.95132

> <r_i_glide_hbond>
-0.339859

> <r_i_glide_ligand_efficiency>
-0.160846

> <r_i_glide_ligand_efficiency_ln>
-1.2907

> <r_i_glide_ligand_efficiency_sa>
-0.535976

> <r_i_glide_lipo>
-1.45011

> <r_i_glide_metal>
0

> <r_i_glide_rewards>
-1.35789

> <s_i_glide_gridfile>
wee1_glide-grid

> <s_m_Source_File>
wee1_decoys_glide_SP.sdf

> <s_m_Source_Path>
/Users/zhangxujun/Desktop

> <s_m_entry_id>
5760

> <s_m_entry_name>
wee1_decoys_glide_SP.5485

> <s_m_subgroup_title>
wee1_decoys_glide_SP

> <s_m_subgroupid>
wee1_decoys_glide_SP


$$$$
