ZINC19852091_4431
                    3D
 Schrodinger Suite 2024-2.
 54 58  0  0  1  0            999 V2000
    2.8424   52.6596   16.6183 C   0  0  0  0  0  0
    3.1291   53.4724   17.7176 C   0  0  0  0  0  0
    4.4385   53.9520   17.7238 C   0  0  0  0  0  0
    5.3375   53.3171   16.3720 S   0  0  0  0  0  0
    3.9328   52.4967   15.7802 C   0  0  0  0  0  0
    5.1384   54.8569   18.7068 C   0  0  0  0  0  0
    5.5485   56.1532   18.3111 C   0  0  0  0  0  0
    6.2629   56.9394   19.2341 C   0  0  0  0  0  0
    6.5440   56.5175   20.4861 N   0  0  0  0  0  0
    6.1041   55.3009   20.8923 C   0  0  0  0  0  0
    5.4020   54.4283   20.0317 C   0  0  0  0  0  0
    4.9826   53.0994   20.4870 C   0  0  0  0  0  0
    4.6531   52.0533   20.8571 N   0  0  0  0  0  0
    6.5437   54.8967   22.5800 S   0  0  0  0  0  0
    5.0268   54.3544   23.4459 C   0  0  0  0  0  0
    5.0159   54.4967   24.9729 C   0  0  0  0  0  0
    5.9313   55.0592   25.5772 O   0  0  0  0  0  0
    3.9434   53.9420   25.5714 N   0  0  0  0  0  0
    3.6487   53.7904   27.0035 C   0  0  0  0  0  0
    4.7614   53.0114   27.7661 C   0  0  0  0  0  0
    4.3620   52.7587   29.2383 C   0  0  1  0  0  0
    4.2712   54.1463   29.9078 C   0  0  0  0  0  0
    3.1435   54.9680   29.2381 C   0  0  1  0  0  0
    3.4951   55.1344   27.7442 C   0  0  0  0  0  0
    1.7888   54.2273   29.3584 C   0  0  0  0  0  0
    1.8999   52.8527   28.6541 C   0  0  2  0  0  0
    3.0028   52.0220   29.3427 C   0  0  0  0  0  0
    2.2811   53.0562   27.1640 C   0  0  0  0  0  0
    6.7045   58.2342   18.9399 N   0  0  0  0  0  0
    5.2242   56.6882   16.9822 C   0  0  0  0  0  0
    4.9691   57.1104   15.9359 N   0  0  0  0  0  0
    1.8817   52.1961   16.4471 H   0  0  0  0  0  0
    2.4023   53.6967   18.4816 H   0  0  0  0  0  0
    3.9897   51.8991   14.8829 H   0  0  0  0  0  0
    4.1726   54.8946   23.0378 H   0  0  0  0  0  0
    4.8835   53.2966   23.2351 H   0  0  0  0  0  0
    3.2618   53.5115   24.9659 H   0  0  0  0  0  0
    5.0031   52.0967   27.2630 H   0  0  0  0  0  0
    5.7008   53.5672   27.7404 H   0  0  0  0  0  0
    5.1046   52.1445   29.7353 H   0  0  0  0  0  0
    4.1048   54.0106   30.9643 H   0  0  0  0  0  0
    5.2153   54.6874   29.8164 H   0  0  0  0  0  0
    3.0664   55.9597   29.6818 H   0  0  0  0  0  0
    4.4295   55.6805   27.6445 H   0  0  0  0  0  0
    2.7045   55.7034   27.2817 H   0  0  0  0  0  0
    1.5122   54.0998   30.4059 H   0  0  0  0  0  0
    0.9908   54.8192   28.9065 H   0  0  0  0  0  0
    0.9473   52.3252   28.7235 H   0  0  0  0  0  0
    3.0600   51.0369   28.8841 H   0  0  0  0  0  0
    2.7480   51.8554   30.3904 H   0  0  0  0  0  0
    1.4929   53.6231   26.6655 H   0  0  0  0  0  0
    2.3032   52.0967   26.6547 H   0  0  0  0  0  0
    6.4346   58.6568   18.0600 H   0  0  0  0  0  0
    7.0555   58.8199   19.6777 H   0  0  0  0  0  0
  1  5  2  0  0  0
  1  2  1  0  0  0
  1 32  1  0  0  0
  2  3  2  0  0  0
  2 33  1  0  0  0
  3  4  1  0  0  0
  3  6  1  0  0  0
  4  5  1  0  0  0
  5 34  1  0  0  0
  6 11  2  0  0  0
  6  7  1  0  0  0
  7  8  2  0  0  0
  7 30  1  0  0  0
  8  9  1  0  0  0
  8 29  1  0  0  0
  9 10  2  0  0  0
 10 11  1  0  0  0
 10 14  1  0  0  0
 11 12  1  0  0  0
 12 13  3  0  0  0
 14 15  1  0  0  0
 15 16  1  0  0  0
 15 35  1  0  0  0
 15 36  1  0  0  0
 16 17  2  0  0  0
 16 18  1  0  0  0
 18 19  1  0  0  0
 18 37  1  0  0  0
 19 24  1  0  0  0
 19 28  1  0  0  0
 19 20  1  0  0  0
 20 21  1  0  0  0
 20 38  1  0  0  0
 20 39  1  0  0  0
 21 27  1  0  0  0
 21 22  1  0  0  0
 21 40  1  0  0  0
 22 23  1  0  0  0
 22 41  1  0  0  0
 22 42  1  0  0  0
 23 24  1  0  0  0
 23 25  1  0  0  0
 23 43  1  0  0  0
 24 44  1  0  0  0
 24 45  1  0  0  0
 25 26  1  0  0  0
 25 46  1  0  0  0
 25 47  1  0  0  0
 26 27  1  0  0  0
 26 28  1  0  0  0
 26 48  1  0  0  0
 27 49  1  0  0  0
 27 50  1  0  0  0
 28 51  1  0  0  0
 28 52  1  0  0  0
 29 53  1  0  0  0
 29 54  1  0  0  0
 30 31  3  0  0  0
M  END
> <i_i_glide_confnum>
50

> <i_i_glide_lignum>
4432

> <i_i_glide_posenum>
99

> <i_i_glide_rotatable_bonds>
8

> <i_m_Source_File_Index>
3692

> <b_m_subgroup_collapsed>
0

> <r_i_docking_score>
-4.91136

> <r_i_glide_ecoul>
-1.04675

> <r_i_glide_eff_state_penalty>
0

> <r_i_glide_einternal>
12.5359

> <r_i_glide_emodel>
-45.2867

> <r_i_glide_energy>
-35.9799

> <r_i_glide_erotb>
0.495763

> <r_i_glide_esite>
-0.0776553

> <r_i_glide_evdw>
-34.9332

> <r_i_glide_gscore>
-4.91136

> <r_i_glide_hbond>
-0.147252

> <r_i_glide_ligand_efficiency>
-0.158431

> <r_i_glide_ligand_efficiency_ln>
-1.10766

> <r_i_glide_ligand_efficiency_sa>
-0.497692

> <r_i_glide_lipo>
-2.51519

> <r_i_glide_metal>
0

> <r_i_glide_rewards>
-0.76335

> <s_i_glide_gridfile>
wee1_glide-grid

> <s_m_Source_File>
wee1_decoys_glide_SP.sdf

> <s_m_Source_Path>
/Users/zhangxujun/Desktop

> <s_m_entry_id>
3967

> <s_m_entry_name>
wee1_decoys_glide_SP.3692

> <s_m_subgroup_title>
wee1_decoys_glide_SP

> <s_m_subgroupid>
wee1_decoys_glide_SP


$$$$
