ZINC09239323_54
                    3D
 Schrodinger Suite 2024-2.
 52 55  0  0  1  0            999 V2000
    1.3504   49.6714   18.1905 C   0  0  0  0  0  0
    1.6960   48.9283   19.4909 C   0  0  0  0  0  0
    0.9294   49.4610   20.6907 C   0  0  0  0  0  0
   -0.0602   48.8382   21.2805 N   0  0  0  0  0  0
   -0.4784   49.6357   22.3428 N   0  0  0  0  0  0
    0.2543   50.7213   22.3330 C   0  0  0  0  0  0
    1.1596   50.6715   21.3006 N   0  0  0  0  0  0
    2.0881   51.6293   20.9309 N   0  0  0  0  0  0
    2.6882   52.3125   22.0766 C   0  0  2  0  0  0
    3.1031   51.5294   22.7111 H   0  0  0  0  0  0
    1.5788   53.0811   22.8971 C   0  0  1  0  0  0
    1.1728   53.8950   22.2943 H   0  0  0  0  0  0
    0.1460   52.0626   23.4707 S   0  0  0  0  0  0
    2.1945   53.7625   24.1529 C   0  0  0  0  0  0
    2.6447   54.8966   24.0188 O   0  0  0  0  0  0
    2.2408   53.1089   25.3387 N   0  0  0  0  0  0
    2.9505   53.4888   26.5039 C   0  0  0  0  0  0
    4.1808   54.1661   26.4079 C   0  0  0  0  0  0
    4.9095   54.4935   27.5465 C   0  0  0  0  0  0
    4.4272   54.1444   28.8016 C   0  0  0  0  0  0
    3.2221   53.4573   28.9157 C   0  0  0  0  0  0
    2.4667   53.1211   27.7806 C   0  0  0  0  0  0
    1.1513   52.3497   27.9690 C   0  0  0  0  0  0
    0.1289   53.1515   27.6817 F   0  0  0  0  0  0
    1.1014   51.2888   27.1660 F   0  0  0  0  0  0
    0.9913   51.9135   29.2204 F   0  0  0  0  0  0
    3.8783   53.1930   21.6418 C   0  0  0  0  0  0
    3.9043   53.8260   20.3916 C   0  0  0  0  0  0
    4.9609   54.6616   20.0446 C   0  0  0  0  0  0
    5.9934   54.9095   20.9446 C   0  0  0  0  0  0
    5.9672   54.2865   22.2003 C   0  0  0  0  0  0
    4.9426   53.4027   22.5213 C   0  0  0  0  0  0
    6.9961   55.7545   20.5116 O   0  0  0  0  0  0
    8.1887   55.8625   21.2798 C   0  0  0  0  0  0
    1.9027   49.2535   17.3475 H   0  0  0  0  0  0
    0.2854   49.6008   17.9623 H   0  0  0  0  0  0
    1.6062   50.7306   18.2496 H   0  0  0  0  0  0
    2.7713   48.9929   19.6632 H   0  0  0  0  0  0
    1.4936   47.8650   19.3473 H   0  0  0  0  0  0
    2.8105   51.1599   20.4000 H   0  0  0  0  0  0
    1.6862   52.2681   25.4184 H   0  0  0  0  0  0
    4.5976   54.4341   25.4487 H   0  0  0  0  0  0
    5.8510   55.0177   27.4594 H   0  0  0  0  0  0
    4.9962   54.4042   29.6815 H   0  0  0  0  0  0
    2.8755   53.1909   29.9031 H   0  0  0  0  0  0
    3.1031   53.6919   19.6814 H   0  0  0  0  0  0
    4.9688   55.1351   19.0744 H   0  0  0  0  0  0
    6.7563   54.4466   22.9187 H   0  0  0  0  0  0
    4.9625   52.9004   23.4766 H   0  0  0  0  0  0
    8.9028   56.4957   20.7516 H   0  0  0  0  0  0
    7.9915   56.3093   22.2539 H   0  0  0  0  0  0
    8.6674   54.8962   21.4247 H   0  0  0  0  0  0
  1  2  1  0  0  0
  1 35  1  0  0  0
  1 36  1  0  0  0
  1 37  1  0  0  0
  2  3  1  0  0  0
  2 38  1  0  0  0
  2 39  1  0  0  0
  3  7  1  0  0  0
  3  4  2  0  0  0
  4  5  1  0  0  0
  5  6  2  0  0  0
  6 13  1  0  0  0
  6  7  1  0  0  0
  7  8  1  0  0  0
  8  9  1  0  0  0
  8 40  1  0  0  0
  9 10  1  0  0  0
  9 11  1  0  0  0
  9 27  1  0  0  0
 11 12  1  0  0  0
 11 13  1  0  0  0
 11 14  1  0  0  0
 14 15  2  0  0  0
 14 16  1  0  0  0
 16 17  1  0  0  0
 16 41  1  0  0  0
 17 22  2  0  0  0
 17 18  1  0  0  0
 18 19  2  0  0  0
 18 42  1  0  0  0
 19 20  1  0  0  0
 19 43  1  0  0  0
 20 21  2  0  0  0
 20 44  1  0  0  0
 21 22  1  0  0  0
 21 45  1  0  0  0
 22 23  1  0  0  0
 23 24  1  0  0  0
 23 25  1  0  0  0
 23 26  1  0  0  0
 27 32  2  0  0  0
 27 28  1  0  0  0
 28 29  2  0  0  0
 28 46  1  0  0  0
 29 30  1  0  0  0
 29 47  1  0  0  0
 30 31  2  0  0  0
 30 33  1  0  0  0
 31 32  1  0  0  0
 31 48  1  0  0  0
 32 49  1  0  0  0
 33 34  1  0  0  0
 34 50  1  0  0  0
 34 51  1  0  0  0
 34 52  1  0  0  0
M  END
> <i_i_glide_confnum>
19

> <i_i_glide_lignum>
55

> <i_i_glide_posenum>
162

> <i_i_glide_rotatable_bonds>
7

> <i_m_Source_File_Index>
3897

> <b_m_subgroup_collapsed>
0

> <r_i_docking_score>
-5.45835

> <r_i_glide_ecoul>
-1.93245

> <r_i_glide_eff_state_penalty>
0

> <r_i_glide_einternal>
7.6907

> <r_i_glide_emodel>
-49.305

> <r_i_glide_energy>
-39.5406

> <r_i_glide_erotb>
0.375251

> <r_i_glide_esite>
0

> <r_i_glide_evdw>
-37.6082

> <r_i_glide_gscore>
-5.45835

> <r_i_glide_hbond>
0

> <r_i_glide_ligand_efficiency>
-0.170574

> <r_i_glide_ligand_efficiency_ln>
-1.22227

> <r_i_glide_ligand_efficiency_sa>
-0.541537

> <r_i_glide_lipo>
-2.68492

> <r_i_glide_metal>
0

> <r_i_glide_rewards>
-0.978409

> <s_i_glide_gridfile>
wee1_glide-grid

> <s_m_Source_File>
wee1_decoys_glide_SP.sdf

> <s_m_Source_Path>
/Users/zhangxujun/Desktop

> <s_m_entry_id>
4172

> <s_m_entry_name>
wee1_decoys_glide_SP.3897

> <s_m_subgroup_title>
wee1_decoys_glide_SP

> <s_m_subgroupid>
wee1_decoys_glide_SP


$$$$
