ZINC40038601_4149
                    3D
 Schrodinger Suite 2024-2.
 71 74  0  0  1  0            999 V2000
    9.6879   61.4321   17.0938 C   0  0  0  0  0  0
    9.5417   60.1073   17.8573 C   0  0  0  0  0  0
    9.9011   58.8892   16.9793 C   0  0  0  0  0  0
    9.8766   57.5343   17.7196 C   0  0  0  0  0  0
    8.5417   56.7496   17.6719 C   0  0  2  0  0  0
    7.3345   57.5161   18.2691 C   0  0  0  0  0  0
    6.0312   56.6808   18.2915 C   0  0  0  0  0  0
    6.1388   55.2432   18.8785 C   0  0  1  0  0  0
    7.3936   54.5476   18.2827 C   0  0  0  0  0  0
    8.6998   55.3661   18.3456 C   0  0  0  0  0  0
    6.2663   55.3050   20.4268 C   0  0  0  0  0  0
    7.1114   56.0302   20.9554 O   0  0  0  0  0  0
    5.3785   54.5563   21.1197 N   0  0  0  0  0  0
    5.2691   54.4212   22.5060 C   0  0  0  0  0  0
    4.1329   53.9716   23.2044 C   0  0  0  0  0  0
    4.2863   54.0965   24.6096 C   0  0  0  0  0  0
    5.5832   54.4889   24.9741 C   0  0  0  0  0  0
    6.5746   54.8120   23.6003 S   0  0  0  0  0  0
    6.0899   54.6423   26.4024 C   0  0  0  0  0  0
    5.1509   53.8576   27.3478 C   0  0  2  0  0  0
    5.3123   52.7901   27.1845 H   0  0  0  0  0  0
    3.6826   54.2300   27.0636 C   0  0  0  0  0  0
    3.2177   53.7750   25.6657 C   0  0  0  0  0  0
    5.5216   54.1408   28.8127 C   0  0  0  0  0  0
    2.9175   53.4980   22.5820 C   0  0  0  0  0  0
    1.8093   53.9146   22.9177 O   0  0  0  0  0  0
    3.1159   52.5229   21.6742 N   0  0  0  0  0  0
    2.0647   51.8057   20.9495 C   0  0  2  0  0  0
    1.4385   52.4900   20.3711 H   0  0  0  0  0  0
    1.1493   51.0063   21.9179 C   0  0  0  0  0  0
    0.2600   50.0582   21.1051 C   0  0  0  0  0  0
    1.3708   49.4435   19.7327 S   0  0  0  0  0  0
    1.9051   48.1243   20.0834 O   0  0  0  0  0  0
    0.6822   49.6569   18.4571 O   0  0  0  0  0  0
    2.6838   50.7581   20.0027 C   0  0  0  0  0  0
    9.3249   62.2750   17.6839 H   0  0  0  0  0  0
    9.1130   61.4170   16.1637 H   0  0  0  0  0  0
   10.7318   61.6261   16.8353 H   0  0  0  0  0  0
   10.1832   60.1152   18.7409 H   0  0  0  0  0  0
    8.5205   60.0327   18.2328 H   0  0  0  0  0  0
    9.2519   58.8474   16.1013 H   0  0  0  0  0  0
   10.9100   59.0427   16.5878 H   0  0  0  0  0  0
   10.6468   56.9028   17.2726 H   0  0  0  0  0  0
   10.1928   57.6694   18.7559 H   0  0  0  0  0  0
    8.2894   56.5503   16.6276 H   0  0  0  0  0  0
    7.5769   57.8372   19.2803 H   0  0  0  0  0  0
    7.1604   58.4387   17.7151 H   0  0  0  0  0  0
    5.2020   57.2179   18.7550 H   0  0  0  0  0  0
    5.6384   56.5852   17.2772 H   0  0  0  0  0  0
    5.2323   54.6729   18.6668 H   0  0  0  0  0  0
    7.1626   54.2995   17.2453 H   0  0  0  0  0  0
    7.5050   53.5430   18.6900 H   0  0  0  0  0  0
    9.5100   54.8094   17.8709 H   0  0  0  0  0  0
    9.0306   55.4876   19.3786 H   0  0  0  0  0  0
    4.6133   54.1697   20.5867 H   0  0  0  0  0  0
    7.1122   54.2733   26.4963 H   0  0  0  0  0  0
    6.1051   55.6963   26.6725 H   0  0  0  0  0  0
    3.0360   53.7684   27.8113 H   0  0  0  0  0  0
    3.5283   55.2966   27.2056 H   0  0  0  0  0  0
    2.2710   54.2623   25.4351 H   0  0  0  0  0  0
    3.0165   52.7048   25.6751 H   0  0  0  0  0  0
    5.3924   55.1938   29.0695 H   0  0  0  0  0  0
    4.8993   53.5538   29.4888 H   0  0  0  0  0  0
    6.5638   53.8816   29.0022 H   0  0  0  0  0  0
    4.0645   52.2518   21.4663 H   0  0  0  0  0  0
    1.7606   50.4408   22.6246 H   0  0  0  0  0  0
    0.5440   51.6704   22.5367 H   0  0  0  0  0  0
   -0.2129   49.2252   21.6246 H   0  0  0  0  0  0
   -0.5244   50.6497   20.6335 H   0  0  0  0  0  0
    3.1959   51.0667   19.0912 H   0  0  0  0  0  0
    3.4264   50.2136   20.5838 H   0  0  0  0  0  0
  1  2  1  0  0  0
  1 36  1  0  0  0
  1 37  1  0  0  0
  1 38  1  0  0  0
  2  3  1  0  0  0
  2 39  1  0  0  0
  2 40  1  0  0  0
  3  4  1  0  0  0
  3 41  1  0  0  0
  3 42  1  0  0  0
  4  5  1  0  0  0
  4 43  1  0  0  0
  4 44  1  0  0  0
  5 10  1  0  0  0
  5  6  1  0  0  0
  5 45  1  0  0  0
  6  7  1  0  0  0
  6 46  1  0  0  0
  6 47  1  0  0  0
  7  8  1  0  0  0
  7 48  1  0  0  0
  7 49  1  0  0  0
  8  9  1  0  0  0
  8 11  1  0  0  0
  8 50  1  0  0  0
  9 10  1  0  0  0
  9 51  1  0  0  0
  9 52  1  0  0  0
 10 53  1  0  0  0
 10 54  1  0  0  0
 11 12  2  0  0  0
 11 13  1  0  0  0
 13 14  1  0  0  0
 13 55  1  0  0  0
 14 18  1  0  0  0
 14 15  2  0  0  0
 15 16  1  0  0  0
 15 25  1  0  0  0
 16 23  1  0  0  0
 16 17  2  0  0  0
 17 18  1  0  0  0
 17 19  1  0  0  0
 19 20  1  0  0  0
 19 56  1  0  0  0
 19 57  1  0  0  0
 20 21  1  0  0  0
 20 22  1  0  0  0
 20 24  1  0  0  0
 22 23  1  0  0  0
 22 58  1  0  0  0
 22 59  1  0  0  0
 23 60  1  0  0  0
 23 61  1  0  0  0
 24 62  1  0  0  0
 24 63  1  0  0  0
 24 64  1  0  0  0
 25 26  2  0  0  0
 25 27  1  0  0  0
 27 28  1  0  0  0
 27 65  1  0  0  0
 28 29  1  0  0  0
 28 35  1  0  0  0
 28 30  1  0  0  0
 30 31  1  0  0  0
 30 66  1  0  0  0
 30 67  1  0  0  0
 31 32  1  0  0  0
 31 68  1  0  0  0
 31 69  1  0  0  0
 32 33  2  0  0  0
 32 34  2  0  0  0
 32 35  1  0  0  0
 35 70  1  0  0  0
 35 71  1  0  0  0
M  END
> <i_i_glide_confnum>
151

> <i_i_glide_lignum>
4150

> <i_i_glide_posenum>
288

> <i_i_glide_rotatable_bonds>
9

> <i_m_Source_File_Index>
4597

> <b_m_subgroup_collapsed>
0

> <r_i_docking_score>
-5.15824

> <r_i_glide_ecoul>
-2.32121

> <r_i_glide_eff_state_penalty>
0

> <r_i_glide_einternal>
7.22766

> <r_i_glide_emodel>
-56.7082

> <r_i_glide_energy>
-45.3136

> <r_i_glide_erotb>
0.666188

> <r_i_glide_esite>
-0.0894363

> <r_i_glide_evdw>
-42.9923

> <r_i_glide_gscore>
-5.15824

> <r_i_glide_hbond>
-0.0422289

> <r_i_glide_ligand_efficiency>
-0.15631

> <r_i_glide_ligand_efficiency_ln>
-1.14717

> <r_i_glide_ligand_efficiency_sa>
-0.501371

> <r_i_glide_lipo>
-2.7297

> <r_i_glide_metal>
0

> <r_i_glide_rewards>
-0.465264

> <s_i_glide_gridfile>
wee1_glide-grid

> <s_m_Source_File>
wee1_decoys_glide_SP.sdf

> <s_m_Source_Path>
/Users/zhangxujun/Desktop

> <s_m_entry_id>
4872

> <s_m_entry_name>
wee1_decoys_glide_SP.4597

> <s_m_subgroup_title>
wee1_decoys_glide_SP

> <s_m_subgroupid>
wee1_decoys_glide_SP


$$$$
