ZINC50986407_1751
                    3D
 Schrodinger Suite 2024-2.
 37 39  0  0  1  0            999 V2000
    1.0954   50.0374   23.4861 C   0  0  0  0  0  0
    0.7613   50.9743   22.3160 C   0  0  0  0  0  0
    1.8353   51.9396   22.0478 N   0  0  0  0  0  0
    2.8070   51.7367   21.1471 C   0  0  0  0  0  0
    3.6328   52.7752   21.1795 N   0  3  0  0  0  0
    3.2257   53.7471   22.1762 C   0  0  1  0  0  0
    1.9596   53.1281   22.6587 C   0  0  0  0  0  0
    1.1040   53.6915   23.5144 N   0  3  0  0  0  0
    4.3005   54.0245   23.2208 C   0  0  0  0  0  0
    5.5604   54.4966   22.8139 C   0  0  0  0  0  0
    6.5458   54.8054   23.7575 C   0  0  0  0  0  0
    6.2487   54.6181   25.1039 C   0  0  0  0  0  0
    5.0226   54.1460   25.5239 C   0  0  0  0  0  0
    4.0384   53.8470   24.5868 C   0  0  0  0  0  0
    5.0241   54.0925   27.0138 C   0  0  0  0  0  0
    6.4641   54.4956   27.3486 C   0  0  0  0  0  0
    7.1044   54.8976   26.1364 O   0  0  0  0  0  0
    2.9606   50.5582   20.2288 C   0  0  0  0  0  0
    0.2939   49.3156   23.6552 H   0  0  0  0  0  0
    1.2368   50.5864   24.4194 H   0  0  0  0  0  0
    2.0079   49.4637   23.3002 H   0  0  0  0  0  0
    0.5992   50.4055   21.4004 H   0  0  0  0  0  0
   -0.1511   51.5374   22.5045 H   0  0  0  0  0  0
    1.3127   54.6041   23.8974 H   0  0  0  0  0  0
    2.9889   54.6882   21.6786 H   0  0  0  0  0  0
    5.7765   54.6532   21.7649 H   0  0  0  0  0  0
    7.5044   55.1925   23.4414 H   0  0  0  0  0  0
    3.0961   53.4620   24.9371 H   0  0  0  0  0  0
    4.3203   54.8016   27.4543 H   0  0  0  0  0  0
    4.8041   53.0973   27.4082 H   0  0  0  0  0  0
    6.9998   53.6396   27.7616 H   0  0  0  0  0  0
    6.4781   55.2993   28.0815 H   0  0  0  0  0  0
    2.9489   49.6270   20.7986 H   0  0  0  0  0  0
    2.1539   50.5445   19.4966 H   0  0  0  0  0  0
    3.9041   50.6186   19.6823 H   0  0  0  0  0  0
    0.2695   53.2043   23.8118 H   0  0  0  0  0  0
    4.4505   52.8811   20.5925 H   0  0  0  0  0  0
  1  2  1  0  0  0
  1 19  1  0  0  0
  1 20  1  0  0  0
  1 21  1  0  0  0
  2 22  1  0  0  0
  2 23  1  0  0  0
  2  3  1  0  0  0
  3  4  1  0  0  0
  3  7  1  0  0  0
  4  5  2  0  0  0
  4 18  1  0  0  0
  5  6  1  0  0  0
  5 37  1  0  0  0
  6  9  1  0  0  0
  6 25  1  0  0  0
  6  7  1  0  0  0
  7  8  2  0  0  0
  8 24  1  0  0  0
  8 36  1  0  0  0
  9 14  2  0  0  0
  9 10  1  0  0  0
 10 11  2  0  0  0
 10 26  1  0  0  0
 11 12  1  0  0  0
 11 27  1  0  0  0
 12 17  1  0  0  0
 12 13  2  0  0  0
 13 14  1  0  0  0
 13 15  1  0  0  0
 14 28  1  0  0  0
 15 16  1  0  0  0
 15 29  1  0  0  0
 15 30  1  0  0  0
 16 17  1  0  0  0
 16 31  1  0  0  0
 16 32  1  0  0  0
 18 33  1  0  0  0
 18 34  1  0  0  0
 18 35  1  0  0  0
M  CHG  2   5   1   8   1
M  END
> <i_i_glide_confnum>
1

> <i_i_glide_lignum>
1752

> <i_i_glide_posenum>
346

> <i_i_glide_rotatable_bonds>
2

> <i_m_Source_File_Index>
391

> <b_m_subgroup_collapsed>
0

> <r_i_docking_score>
-6.87512

> <r_i_glide_ecoul>
-4.80901

> <r_i_glide_eff_state_penalty>
0

> <r_i_glide_einternal>
2.23892

> <r_i_glide_emodel>
-44.5489

> <r_i_glide_energy>
-29.1965

> <r_i_glide_erotb>
0.289208

> <r_i_glide_esite>
0

> <r_i_glide_evdw>
-24.3874

> <r_i_glide_gscore>
-6.87512

> <r_i_glide_hbond>
-0.32

> <r_i_glide_ligand_efficiency>
-0.381951

> <r_i_glide_ligand_efficiency_ln>
-1.76722

> <r_i_glide_ligand_efficiency_sa>
-1.001

> <r_i_glide_lipo>
-2.30052

> <r_i_glide_metal>
0

> <r_i_glide_rewards>
-2.60309

> <s_i_glide_gridfile>
wee1_glide-grid

> <s_m_Source_File>
wee1_decoys_glide_SP.sdf

> <s_m_Source_Path>
/Users/zhangxujun/Desktop

> <s_m_entry_id>
666

> <s_m_entry_name>
wee1_decoys_glide_SP.391

> <s_m_subgroup_title>
wee1_decoys_glide_SP

> <s_m_subgroupid>
wee1_decoys_glide_SP


$$$$
