ZINC35097933_2317
                    3D
 Schrodinger Suite 2024-2.
 63 64  0  0  1  0            999 V2000
   -2.9817   51.0891   19.6963 C   0  0  0  0  0  0
   -2.3242   50.9538   21.0801 C   0  0  0  0  0  0
   -0.8982   51.5549   21.1704 C   0  0  2  0  0  0
   -0.9454   52.4969   20.6269 H   0  0  0  0  0  0
    0.1009   50.7040   20.3545 C   0  0  0  0  0  0
   -0.5136   51.9504   22.6483 C   0  0  1  0  0  0
   -1.3290   52.6061   22.9509 H   0  0  0  0  0  0
   -0.5043   50.7538   23.6599 C   0  0  0  0  0  0
   -0.3987   49.6035   23.2286 O   0  0  0  0  0  0
   -0.5399   51.0389   24.9935 N   0  0  0  0  0  0
   -0.2160   49.9653   25.9568 C   0  0  0  0  0  0
    0.4435   50.5330   27.2539 C   0  0  0  0  0  0
    0.2249   51.9728   27.4476 N   0  0  0  0  0  0
   -1.1126   52.4438   27.0259 C   0  0  1  0  0  0
   -1.2300   53.4955   27.2818 H   0  0  0  0  0  0
   -1.1250   52.3158   25.4760 C   0  0  0  0  0  0
   -2.2935   51.6967   27.6992 C   0  0  0  0  0  0
    1.0067   52.6010   28.3738 C   0  0  0  0  0  0
    1.8677   52.0135   29.0367 O   0  0  0  0  0  0
    0.8400   53.9351   28.4816 N   0  0  0  0  0  0
    1.4671   54.7852   29.4993 C   0  0  0  0  0  0
    1.6545   56.2250   29.0003 C   0  0  0  0  0  0
    0.7096   54.7202   30.8375 C   0  0  0  0  0  0
    0.7045   52.7710   22.7973 N   0  0  0  0  0  0
    1.9808   52.3596   22.6800 C   0  0  0  0  0  0
    2.3164   51.2497   22.2691 O   0  0  0  0  0  0
    3.0325   53.2965   23.2025 C   0  0  0  0  0  0
    4.2382   53.4410   22.5019 C   0  0  0  0  0  0
    5.3196   54.0745   23.1070 C   0  0  0  0  0  0
    5.1933   54.5586   24.4064 C   0  0  0  0  0  0
    3.9768   54.4932   25.0797 C   0  0  0  0  0  0
    2.8901   53.8689   24.4756 C   0  0  0  0  0  0
    6.7044   55.2990   25.2813 Br  0  0  0  0  0  0
   -4.0645   51.1855   19.7873 H   0  0  0  0  0  0
   -2.6195   51.9603   19.1492 H   0  0  0  0  0  0
   -2.7839   50.2081   19.0845 H   0  0  0  0  0  0
   -2.2971   49.8998   21.3569 H   0  0  0  0  0  0
   -2.9668   51.4328   21.8174 H   0  0  0  0  0  0
    0.3654   49.7721   20.8499 H   0  0  0  0  0  0
   -0.3057   50.4426   19.3776 H   0  0  0  0  0  0
    1.0180   51.2531   20.1544 H   0  0  0  0  0  0
   -1.1193   49.4235   26.2404 H   0  0  0  0  0  0
    0.5004   49.2574   25.5331 H   0  0  0  0  0  0
   -0.0956   50.0966   28.0826 H   0  0  0  0  0  0
    1.5024   50.2694   27.2535 H   0  0  0  0  0  0
   -0.5447   53.1553   25.0937 H   0  0  0  0  0  0
   -2.1590   52.4047   25.1337 H   0  0  0  0  0  0
   -3.2472   52.1489   27.4274 H   0  0  0  0  0  0
   -2.3789   50.6560   27.3932 H   0  0  0  0  0  0
   -2.2090   51.6976   28.7863 H   0  0  0  0  0  0
    0.2254   54.3962   27.8291 H   0  0  0  0  0  0
    2.4788   54.4106   29.6793 H   0  0  0  0  0  0
    2.1480   56.8386   29.7557 H   0  0  0  0  0  0
    2.2754   56.2510   28.1056 H   0  0  0  0  0  0
    0.7056   56.7096   28.7893 H   0  0  0  0  0  0
    1.0930   55.4681   31.5328 H   0  0  0  0  0  0
   -0.3566   54.9037   30.7146 H   0  0  0  0  0  0
    0.8399   53.7494   31.3168 H   0  0  0  0  0  0
    0.5583   53.7253   23.0816 H   0  0  0  0  0  0
    4.3650   52.9974   21.5238 H   0  0  0  0  0  0
    6.2659   54.1439   22.5920 H   0  0  0  0  0  0
    3.8928   54.8792   26.0856 H   0  0  0  0  0  0
    1.9790   53.7528   25.0456 H   0  0  0  0  0  0
  1  2  1  0  0  0
  1 34  1  0  0  0
  1 35  1  0  0  0
  1 36  1  0  0  0
  2  3  1  0  0  0
  2 37  1  0  0  0
  2 38  1  0  0  0
  3  4  1  0  0  0
  3  5  1  0  0  0
  3  6  1  0  0  0
  5 39  1  0  0  0
  5 40  1  0  0  0
  5 41  1  0  0  0
  6  7  1  0  0  0
  6  8  1  0  0  0
  6 24  1  0  0  0
  8  9  2  0  0  0
  8 10  1  0  0  0
 10 16  1  0  0  0
 10 11  1  0  0  0
 11 12  1  0  0  0
 11 42  1  0  0  0
 11 43  1  0  0  0
 12 13  1  0  0  0
 12 44  1  0  0  0
 12 45  1  0  0  0
 13 14  1  0  0  0
 13 18  1  0  0  0
 14 15  1  0  0  0
 14 16  1  0  0  0
 14 17  1  0  0  0
 16 46  1  0  0  0
 16 47  1  0  0  0
 17 48  1  0  0  0
 17 49  1  0  0  0
 17 50  1  0  0  0
 18 19  2  0  0  0
 18 20  1  0  0  0
 20 21  1  0  0  0
 20 51  1  0  0  0
 21 22  1  0  0  0
 21 23  1  0  0  0
 21 52  1  0  0  0
 22 53  1  0  0  0
 22 54  1  0  0  0
 22 55  1  0  0  0
 23 56  1  0  0  0
 23 57  1  0  0  0
 23 58  1  0  0  0
 24 25  1  0  0  0
 24 59  1  0  0  0
 25 26  2  0  0  0
 25 27  1  0  0  0
 27 32  2  0  0  0
 27 28  1  0  0  0
 28 29  2  0  0  0
 28 60  1  0  0  0
 29 30  1  0  0  0
 29 61  1  0  0  0
 30 31  2  0  0  0
 30 33  1  0  0  0
 31 32  1  0  0  0
 31 62  1  0  0  0
 32 63  1  0  0  0
M  END
> <i_i_glide_confnum>
281

> <i_i_glide_lignum>
2318

> <i_i_glide_posenum>
147

> <i_i_glide_rotatable_bonds>
10

> <i_m_Source_File_Index>
3478

> <b_m_subgroup_collapsed>
0

> <r_i_docking_score>
-4.67819

> <r_i_glide_ecoul>
-0.862835

> <r_i_glide_eff_state_penalty>
0

> <r_i_glide_einternal>
34.3412

> <r_i_glide_emodel>
-32.8093

> <r_i_glide_energy>
-43.2485

> <r_i_glide_erotb>
0.612688

> <r_i_glide_esite>
-0.00971709

> <r_i_glide_evdw>
-42.3857

> <r_i_glide_gscore>
-4.67819

> <r_i_glide_hbond>
0

> <r_i_glide_ligand_efficiency>
-0.15594

> <r_i_glide_ligand_efficiency_ln>
-1.06294

> <r_i_glide_ligand_efficiency_sa>
-0.484541

> <r_i_glide_lipo>
-2.51395

> <r_i_glide_metal>
0

> <r_i_glide_rewards>
-0.518496

> <s_i_glide_gridfile>
wee1_glide-grid

> <s_m_Source_File>
wee1_decoys_glide_SP.sdf

> <s_m_Source_Path>
/Users/zhangxujun/Desktop

> <s_m_entry_id>
3753

> <s_m_entry_name>
wee1_decoys_glide_SP.3478

> <s_m_subgroup_title>
wee1_decoys_glide_SP

> <s_m_subgroupid>
wee1_decoys_glide_SP


$$$$
