ZINC21710629_2103
                    3D
 Schrodinger Suite 2024-2.
 67 70  0  0  1  0            999 V2000
    2.7081   59.2698   15.7230 C   0  0  0  0  0  0
    3.0308   57.7633   15.5400 C   0  0  0  0  0  0
    1.8791   56.9545   16.1910 C   0  0  0  0  0  0
    3.0573   57.4825   14.0172 C   0  0  0  0  0  0
    4.3798   57.3460   16.1797 C   0  0  0  0  0  0
    5.1920   58.2514   16.8818 C   0  0  0  0  0  0
    6.3564   57.8244   17.5151 C   0  0  0  0  0  0
    6.7340   56.4849   17.4388 C   0  0  0  0  0  0
    5.9735   55.5857   16.6911 C   0  0  0  0  0  0
    4.8014   56.0130   16.0777 C   0  0  0  0  0  0
    8.1594   55.9028   18.3585 S   0  0  0  0  0  0
    8.3222   54.4669   18.1048 O   0  0  0  0  0  0
    9.2473   56.8537   18.1111 O   0  0  0  0  0  0
    7.7278   56.0983   20.0682 N   0  0  0  0  0  0
    6.8037   55.2966   20.7504 C   0  0  0  0  0  0
    5.8847   54.4793   20.0841 C   0  0  0  0  0  0
    5.0517   53.6213   20.7964 C   0  0  0  0  0  0
    5.1046   53.5969   22.1870 C   0  0  0  0  0  0
    5.9483   54.4735   22.8864 C   0  0  0  0  0  0
    6.8163   55.2962   22.1475 C   0  0  0  0  0  0
    5.9831   54.5257   24.4016 C   0  0  0  0  0  0
    7.0829   54.6435   24.9496 O   0  0  0  0  0  0
    4.8213   54.4966   25.1224 N   0  0  0  0  0  0
    4.8776   54.5961   26.5989 C   0  0  0  0  0  0
    4.0529   53.4359   27.1959 C   0  0  0  0  0  0
    2.6090   53.3793   26.6589 C   0  0  0  0  0  0
    2.6438   53.3984   25.1114 C   0  0  2  0  0  0
    3.1047   52.4805   24.7782 H   0  0  0  0  0  0
    3.4569   54.5965   24.5531 C   0  0  0  0  0  0
    1.2415   53.2655   24.4871 C   0  0  0  0  0  0
    0.8319   54.0968   23.6817 O   0  0  0  0  0  0
    0.5206   52.1857   24.8386 N   0  0  0  0  0  0
   -0.8371   51.9092   24.3821 C   0  0  0  0  0  0
   -1.0847   51.6444   22.9126 C   0  0  0  0  0  0
   -1.1599   50.5108   23.9100 C   0  0  0  0  0  0
    1.7286   59.5291   15.3201 H   0  0  0  0  0  0
    3.4376   59.9001   15.2120 H   0  0  0  0  0  0
    2.7043   59.5614   16.7743 H   0  0  0  0  0  0
    1.9692   55.8851   15.9981 H   0  0  0  0  0  0
    1.8545   57.0828   17.2745 H   0  0  0  0  0  0
    0.9047   57.2625   15.8095 H   0  0  0  0  0  0
    3.1860   56.4227   13.7942 H   0  0  0  0  0  0
    2.1296   57.7946   13.5354 H   0  0  0  0  0  0
    3.8726   58.0194   13.5300 H   0  0  0  0  0  0
    4.9313   59.2965   16.9709 H   0  0  0  0  0  0
    6.9472   58.5351   18.0759 H   0  0  0  0  0  0
    6.2625   54.5473   16.6133 H   0  0  0  0  0  0
    4.2101   55.2904   15.5369 H   0  0  0  0  0  0
    8.3967   56.6201   20.6130 H   0  0  0  0  0  0
    5.8350   54.4434   19.0107 H   0  0  0  0  0  0
    4.3808   52.9596   20.2680 H   0  0  0  0  0  0
    4.4682   52.8982   22.7098 H   0  0  0  0  0  0
    7.5143   55.9387   22.6670 H   0  0  0  0  0  0
    5.8905   54.5795   27.0042 H   0  0  0  0  0  0
    4.4279   55.5440   26.8812 H   0  0  0  0  0  0
    4.5727   52.4971   27.0048 H   0  0  0  0  0  0
    4.0345   53.5339   28.2820 H   0  0  0  0  0  0
    2.1655   52.4632   27.0544 H   0  0  0  0  0  0
    2.1013   54.2643   27.0465 H   0  0  0  0  0  0
    3.0211   55.5309   24.8829 H   0  0  0  0  0  0
    3.4128   54.6649   23.4695 H   0  0  0  0  0  0
    0.8539   51.6165   25.6015 H   0  0  0  0  0  0
   -1.6033   52.4613   24.9321 H   0  0  0  0  0  0
   -2.0031   52.0306   22.4720 H   0  0  0  0  0  0
   -0.2377   51.6974   22.2256 H   0  0  0  0  0  0
   -0.3682   49.7593   23.9225 H   0  0  0  0  0  0
   -2.1323   50.0932   24.1740 H   0  0  0  0  0  0
  1  2  1  0  0  0
  1 36  1  0  0  0
  1 37  1  0  0  0
  1 38  1  0  0  0
  2  3  1  0  0  0
  2  4  1  0  0  0
  2  5  1  0  0  0
  3 39  1  0  0  0
  3 40  1  0  0  0
  3 41  1  0  0  0
  4 42  1  0  0  0
  4 43  1  0  0  0
  4 44  1  0  0  0
  5 10  2  0  0  0
  5  6  1  0  0  0
  6  7  2  0  0  0
  6 45  1  0  0  0
  7  8  1  0  0  0
  7 46  1  0  0  0
  8  9  2  0  0  0
  8 11  1  0  0  0
  9 10  1  0  0  0
  9 47  1  0  0  0
 10 48  1  0  0  0
 11 12  2  0  0  0
 11 13  2  0  0  0
 11 14  1  0  0  0
 14 15  1  0  0  0
 14 49  1  0  0  0
 15 20  2  0  0  0
 15 16  1  0  0  0
 16 17  2  0  0  0
 16 50  1  0  0  0
 17 18  1  0  0  0
 17 51  1  0  0  0
 18 19  2  0  0  0
 18 52  1  0  0  0
 19 20  1  0  0  0
 19 21  1  0  0  0
 20 53  1  0  0  0
 21 22  2  0  0  0
 21 23  1  0  0  0
 23 29  1  0  0  0
 23 24  1  0  0  0
 24 25  1  0  0  0
 24 54  1  0  0  0
 24 55  1  0  0  0
 25 26  1  0  0  0
 25 56  1  0  0  0
 25 57  1  0  0  0
 26 27  1  0  0  0
 26 58  1  0  0  0
 26 59  1  0  0  0
 27 28  1  0  0  0
 27 29  1  0  0  0
 27 30  1  0  0  0
 29 60  1  0  0  0
 29 61  1  0  0  0
 30 31  2  0  0  0
 30 32  1  0  0  0
 32 33  1  0  0  0
 32 62  1  0  0  0
 33 35  1  0  0  0
 33 34  1  0  0  0
 33 63  1  0  0  0
 34 35  1  0  0  0
 34 64  1  0  0  0
 34 65  1  0  0  0
 35 66  1  0  0  0
 35 67  1  0  0  0
M  END
> <i_i_glide_confnum>
339

> <i_i_glide_lignum>
2104

> <i_i_glide_posenum>
89

> <i_i_glide_rotatable_bonds>
9

> <i_m_Source_File_Index>
107

> <b_m_subgroup_collapsed>
0

> <r_i_docking_score>
-4.45202

> <r_i_glide_ecoul>
-1.68521

> <r_i_glide_eff_state_penalty>
0

> <r_i_glide_einternal>
4.3564

> <r_i_glide_emodel>
-50.261

> <r_i_glide_energy>
-40.6054

> <r_i_glide_erotb>
0.694409

> <r_i_glide_esite>
-0.00140906

> <r_i_glide_evdw>
-38.9202

> <r_i_glide_gscore>
-4.45202

> <r_i_glide_hbond>
-0.320613

> <r_i_glide_ligand_efficiency>
-0.130942

> <r_i_glide_ligand_efficiency_ln>
-0.983576

> <r_i_glide_ligand_efficiency_sa>
-0.4242

> <r_i_glide_lipo>
-1.8643

> <r_i_glide_metal>
0

> <r_i_glide_rewards>
-0.761318

> <s_i_glide_gridfile>
wee1_glide-grid

> <s_m_Source_File>
wee1_decoys_glide_SP.sdf

> <s_m_Source_Path>
/Users/zhangxujun/Desktop

> <s_m_entry_id>
382

> <s_m_entry_name>
wee1_decoys_glide_SP.107

> <s_m_subgroup_title>
wee1_decoys_glide_SP

> <s_m_subgroupid>
wee1_decoys_glide_SP


$$$$
