ZINC14357907_4122
                    3D
 Schrodinger Suite 2024-2.
 70 75  0  0  1  0            999 V2000
    0.3172   53.8205   31.5637 C   0  0  0  0  0  0
    0.3043   52.5195   31.0730 C   0  0  0  0  0  0
    0.6046   52.2773   29.7432 C   0  0  0  0  0  0
    0.9328   53.3407   28.9026 C   0  0  0  0  0  0
    0.9625   54.6479   29.4002 C   0  0  0  0  0  0
    0.6963   54.8834   30.7437 C   0  0  0  0  0  0
    1.2405   53.0702   27.5563 N   0  0  0  0  0  0
    2.2228   53.5709   26.7289 C   0  0  0  0  0  0
    2.0810   53.0258   25.5387 N   0  0  0  0  0  0
    1.1046   52.1426   25.7047 C   0  0  0  0  0  0
    0.5331   52.1563   26.8833 N   0  0  0  0  0  0
    0.6556   50.9898   24.4414 S   0  0  0  0  0  0
    0.3095   49.4923   25.4462 C   0  0  0  0  0  0
   -0.6721   48.4968   24.8072 C   0  0  0  0  0  0
   -0.6667   48.3289   23.5834 O   0  0  0  0  0  0
   -1.4700   47.8457   25.6815 N   0  0  0  0  0  0
   -2.3956   46.8966   25.4295 C   0  0  0  0  0  0
   -2.6158   46.3516   24.3424 O   0  0  0  0  0  0
   -3.0967   46.6416   26.5460 N   0  0  0  0  0  0
   -4.4891   46.1847   26.6616 C   0  0  0  0  0  0
   -4.7203   44.7456   26.0943 C   0  0  0  0  0  0
   -6.1884   44.2842   26.2917 C   0  0  1  0  0  0
   -6.5217   44.2697   27.8037 C   0  0  0  0  0  0
   -6.3409   45.6960   28.3852 C   0  0  1  0  0  0
   -4.8726   46.1522   28.1752 C   0  0  0  0  0  0
   -7.2911   46.6788   27.6541 C   0  0  0  0  0  0
   -6.9604   46.6928   26.1410 C   0  0  2  0  0  0
   -7.1397   45.2670   25.5620 C   0  0  0  0  0  0
   -5.4909   47.1485   25.9439 C   0  0  0  0  0  0
    3.2834   54.6175   27.1235 C   0  0  0  0  0  0
    4.0518   54.3286   28.4514 C   0  0  0  0  0  0
    5.0063   53.1340   28.3316 C   0  0  0  0  0  0
    6.0466   53.3818   27.2298 C   0  0  0  0  0  0
    5.3790   53.7539   25.8866 C   0  0  0  0  0  0
    4.3518   54.8924   26.0266 C   0  0  0  0  0  0
    0.0587   53.9949   32.5969 H   0  0  0  0  0  0
    0.0087   51.6969   31.7016 H   0  0  0  0  0  0
    0.5648   51.2653   29.3696 H   0  0  0  0  0  0
    1.1878   55.4857   28.7613 H   0  0  0  0  0  0
    0.7232   55.8887   31.1352 H   0  0  0  0  0  0
   -0.0749   49.7713   26.4272 H   0  0  0  0  0  0
    1.2483   48.9658   25.6209 H   0  0  0  0  0  0
   -1.3624   48.0966   26.6622 H   0  0  0  0  0  0
   -2.6803   46.9550   27.4166 H   0  0  0  0  0  0
   -4.0456   44.0377   26.5787 H   0  0  0  0  0  0
   -4.4962   44.7180   25.0286 H   0  0  0  0  0  0
   -6.3173   43.2807   25.8826 H   0  0  0  0  0  0
   -5.8772   43.5527   28.3143 H   0  0  0  0  0  0
   -7.5439   43.9212   27.9636 H   0  0  0  0  0  0
   -6.5834   45.6976   29.4489 H   0  0  0  0  0  0
   -4.7295   47.1389   28.6183 H   0  0  0  0  0  0
   -4.1908   45.4900   28.7128 H   0  0  0  0  0  0
   -7.1930   47.6809   28.0724 H   0  0  0  0  0  0
   -8.3311   46.3881   27.8109 H   0  0  0  0  0  0
   -7.6284   47.3854   25.6279 H   0  0  0  0  0  0
   -8.1757   44.9439   25.6745 H   0  0  0  0  0  0
   -6.9379   45.2664   24.4897 H   0  0  0  0  0  0
   -5.2687   47.1986   24.8763 H   0  0  0  0  0  0
   -5.3649   48.1658   26.3151 H   0  0  0  0  0  0
    2.7643   55.5643   27.2825 H   0  0  0  0  0  0
    4.6973   55.1858   28.6564 H   0  0  0  0  0  0
    3.4278   54.2648   29.3352 H   0  0  0  0  0  0
    5.5036   52.9496   29.2815 H   0  0  0  0  0  0
    4.4318   52.2320   28.1115 H   0  0  0  0  0  0
    6.7177   54.1866   27.5354 H   0  0  0  0  0  0
    6.6728   52.4968   27.1297 H   0  0  0  0  0  0
    6.1357   54.0062   25.1430 H   0  0  0  0  0  0
    4.8454   52.8968   25.5027 H   0  0  0  0  0  0
    3.9146   55.2275   25.0865 H   0  0  0  0  0  0
    4.9770   55.7118   26.3639 H   0  0  0  0  0  0
  1  6  2  0  0  0
  1  2  1  0  0  0
  1 36  1  0  0  0
  2  3  2  0  0  0
  2 37  1  0  0  0
  3  4  1  0  0  0
  3 38  1  0  0  0
  4  5  2  0  0  0
  4  7  1  0  0  0
  5  6  1  0  0  0
  5 39  1  0  0  0
  6 40  1  0  0  0
  7 11  1  0  0  0
  7  8  1  0  0  0
  8  9  2  0  0  0
  8 30  1  0  0  0
  9 10  1  0  0  0
 10 11  2  0  0  0
 10 12  1  0  0  0
 12 13  1  0  0  0
 13 14  1  0  0  0
 13 41  1  0  0  0
 13 42  1  0  0  0
 14 15  2  0  0  0
 14 16  1  0  0  0
 16 17  1  0  0  0
 16 43  1  0  0  0
 17 18  2  0  0  0
 17 19  1  0  0  0
 19 20  1  0  0  0
 19 44  1  0  0  0
 20 25  1  0  0  0
 20 29  1  0  0  0
 20 21  1  0  0  0
 21 22  1  0  0  0
 21 45  1  0  0  0
 21 46  1  0  0  0
 22 28  1  0  0  0
 22 23  1  0  0  0
 22 47  1  0  0  0
 23 24  1  0  0  0
 23 48  1  0  0  0
 23 49  1  0  0  0
 24 25  1  0  0  0
 24 26  1  0  0  0
 24 50  1  0  0  0
 25 51  1  0  0  0
 25 52  1  0  0  0
 26 27  1  0  0  0
 26 53  1  0  0  0
 26 54  1  0  0  0
 27 28  1  0  0  0
 27 29  1  0  0  0
 27 55  1  0  0  0
 28 56  1  0  0  0
 28 57  1  0  0  0
 29 58  1  0  0  0
 29 59  1  0  0  0
 30 35  1  0  0  0
 30 31  1  0  0  0
 30 60  1  0  0  0
 31 32  1  0  0  0
 31 61  1  0  0  0
 31 62  1  0  0  0
 32 33  1  0  0  0
 32 63  1  0  0  0
 32 64  1  0  0  0
 33 34  1  0  0  0
 33 65  1  0  0  0
 33 66  1  0  0  0
 34 35  1  0  0  0
 34 67  1  0  0  0
 34 68  1  0  0  0
 35 69  1  0  0  0
 35 70  1  0  0  0
M  END
> <i_i_glide_confnum>
130

> <i_i_glide_lignum>
4123

> <i_i_glide_posenum>
385

> <i_i_glide_rotatable_bonds>
9

> <i_m_Source_File_Index>
3113

> <b_m_subgroup_collapsed>
0

> <r_i_docking_score>
-5.98824

> <r_i_glide_ecoul>
-10.1475

> <r_i_glide_eff_state_penalty>
0

> <r_i_glide_einternal>
3.49086

> <r_i_glide_emodel>
-63.6482

> <r_i_glide_energy>
-46.6021

> <r_i_glide_erotb>
0.668778

> <r_i_glide_esite>
-0.352667

> <r_i_glide_evdw>
-36.4546

> <r_i_glide_gscore>
-5.98824

> <r_i_glide_hbond>
-0.301735

> <r_i_glide_ligand_efficiency>
-0.171093

> <r_i_glide_ligand_efficiency_ln>
-1.31455

> <r_i_glide_ligand_efficiency_sa>
-0.559655

> <r_i_glide_lipo>
-2.17663

> <r_i_glide_metal>
0

> <r_i_glide_rewards>
-0.48114

> <s_i_glide_gridfile>
wee1_glide-grid

> <s_m_Source_File>
wee1_decoys_glide_SP.sdf

> <s_m_Source_Path>
/Users/zhangxujun/Desktop

> <s_m_entry_id>
3388

> <s_m_entry_name>
wee1_decoys_glide_SP.3113

> <s_m_subgroup_title>
wee1_decoys_glide_SP

> <s_m_subgroupid>
wee1_decoys_glide_SP


$$$$
