ZINC16606640_3565
                    3D
 Schrodinger Suite 2024-2.
 39 41  0  0  1  0            999 V2000
    4.7252   53.7732   21.2491 C   0  0  0  0  0  0
    3.4382   52.9594   21.2786 C   0  0  0  0  0  0
    2.4189   53.0004   22.1853 C   0  0  0  0  0  0
    1.1043   52.2032   21.9299 C   0  0  1  0  0  0
    0.3823   52.9422   21.5844 H   0  0  0  0  0  0
    1.3070   51.2289   20.7554 C   0  0  0  0  0  0
    2.3839   51.3309   19.9519 C   0  0  0  0  0  0
    3.3975   52.2020   20.1540 O   0  0  0  0  0  0
    2.7043   50.5444   18.8816 N   0  0  0  0  0  0
    0.3261   50.2205   20.5032 C   0  0  0  0  0  0
   -0.4554   49.3910   20.3002 N   0  0  0  0  0  0
    0.5351   51.5042   23.1703 C   0  0  0  0  0  0
   -0.4652   51.9479   24.0393 C   0  0  0  0  0  0
   -0.7485   51.0807   25.0995 C   0  0  0  0  0  0
    0.0245   49.9364   25.0672 C   0  0  0  0  0  0
    1.1040   49.9450   23.7160 S   0  0  0  0  0  0
    2.4653   53.8184   23.3871 C   0  0  0  0  0  0
    1.5044   54.4963   23.7495 O   0  0  0  0  0  0
    3.6136   53.6967   24.0850 N   0  0  0  0  0  0
    3.8846   54.0629   25.4094 C   0  0  0  0  0  0
    5.2250   54.2563   25.7495 C   0  0  0  0  0  0
    5.5785   54.4953   27.0746 C   0  0  0  0  0  0
    4.5887   54.5353   28.0535 C   0  0  0  0  0  0
    3.2507   54.3377   27.7241 C   0  0  0  0  0  0
    2.8966   54.0960   26.4019 C   0  0  0  0  0  0
    5.0175   54.8964   29.6815 Cl  0  0  0  0  0  0
    4.6662   54.6772   21.8542 H   0  0  0  0  0  0
    5.5536   53.1624   21.6028 H   0  0  0  0  0  0
    4.9476   54.0915   20.2294 H   0  0  0  0  0  0
    2.0528   49.8751   18.5018 H   0  0  0  0  0  0
    3.6629   50.4966   18.5314 H   0  0  0  0  0  0
   -0.9693   52.8941   23.9105 H   0  0  0  0  0  0
   -1.4887   51.2804   25.8605 H   0  0  0  0  0  0
    0.0116   49.1041   25.7598 H   0  0  0  0  0  0
    4.3834   53.2688   23.5954 H   0  0  0  0  0  0
    5.9970   54.2051   24.9954 H   0  0  0  0  0  0
    6.6124   54.6507   27.3463 H   0  0  0  0  0  0
    2.4885   54.3704   28.4886 H   0  0  0  0  0  0
    1.8602   53.9068   26.1652 H   0  0  0  0  0  0
  1  2  1  0  0  0
  1 27  1  0  0  0
  1 28  1  0  0  0
  1 29  1  0  0  0
  2  8  1  0  0  0
  2  3  2  0  0  0
  3  4  1  0  0  0
  3 17  1  0  0  0
  4  5  1  0  0  0
  4  6  1  0  0  0
  4 12  1  0  0  0
  6  7  2  0  0  0
  6 10  1  0  0  0
  7  8  1  0  0  0
  7  9  1  0  0  0
  9 30  1  0  0  0
  9 31  1  0  0  0
 10 11  3  0  0  0
 12 16  1  0  0  0
 12 13  2  0  0  0
 13 14  1  0  0  0
 13 32  1  0  0  0
 14 15  2  0  0  0
 14 33  1  0  0  0
 15 16  1  0  0  0
 15 34  1  0  0  0
 17 18  2  0  0  0
 17 19  1  0  0  0
 19 20  1  0  0  0
 19 35  1  0  0  0
 20 25  2  0  0  0
 20 21  1  0  0  0
 21 22  2  0  0  0
 21 36  1  0  0  0
 22 23  1  0  0  0
 22 37  1  0  0  0
 23 24  2  0  0  0
 23 26  1  0  0  0
 24 25  1  0  0  0
 24 38  1  0  0  0
 25 39  1  0  0  0
M  END
> <i_i_glide_confnum>
1

> <i_i_glide_lignum>
3566

> <i_i_glide_posenum>
83

> <i_i_glide_rotatable_bonds>
5

> <i_m_Source_File_Index>
5573

> <b_m_subgroup_collapsed>
0

> <r_i_docking_score>
-5.11398

> <r_i_glide_ecoul>
-3.72297

> <r_i_glide_eff_state_penalty>
0

> <r_i_glide_einternal>
4.21601

> <r_i_glide_emodel>
-49.2723

> <r_i_glide_energy>
-38.0925

> <r_i_glide_erotb>
0.558563

> <r_i_glide_esite>
-0.101423

> <r_i_glide_evdw>
-34.3695

> <r_i_glide_gscore>
-5.11398

> <r_i_glide_hbond>
-0.177708

> <r_i_glide_ligand_efficiency>
-0.204559

> <r_i_glide_ligand_efficiency_ln>
-1.21217

> <r_i_glide_ligand_efficiency_sa>
-0.598135

> <r_i_glide_lipo>
-1.85939

> <r_i_glide_metal>
0

> <r_i_glide_rewards>
-1.2571

> <s_i_glide_gridfile>
wee1_glide-grid

> <s_m_Source_File>
wee1_decoys_glide_SP.sdf

> <s_m_Source_Path>
/Users/zhangxujun/Desktop

> <s_m_entry_id>
5848

> <s_m_entry_name>
wee1_decoys_glide_SP.5573

> <s_m_subgroup_title>
wee1_decoys_glide_SP

> <s_m_subgroupid>
wee1_decoys_glide_SP


$$$$
