ZINC35697282_4629
                    3D
 Schrodinger Suite 2024-2.
 63 67  0  0  1  0            999 V2000
   -5.6989   53.0478   26.0825 C   0  0  0  0  0  0
   -4.2849   52.5149   25.9507 C   0  0  0  0  0  0
   -3.5012   52.8968   24.8622 C   0  0  0  0  0  0
   -2.2021   52.4155   24.7433 C   0  0  0  0  0  0
   -1.6780   51.5517   25.7124 C   0  0  0  0  0  0
   -2.4663   51.1759   26.8034 C   0  0  0  0  0  0
   -3.7667   51.6557   26.9227 C   0  0  0  0  0  0
   -0.2456   51.0136   25.5754 C   0  0  2  0  0  0
   -0.0474   50.3654   26.4319 H   0  0  0  0  0  0
    0.8371   52.1429   25.5472 C   0  0  0  0  0  0
    1.5059   52.4063   24.3778 C   0  0  0  0  0  0
    1.2702   51.7256   23.2169 N   0  0  0  0  0  0
    0.5626   50.6636   23.2607 C   0  0  0  0  0  0
   -0.1082   50.1476   24.3667 N   0  0  0  0  0  0
   -0.7904   48.9541   24.1475 C   0  0  0  0  0  0
   -0.7666   48.5991   22.8492 C   0  0  0  0  0  0
    0.1624   49.6961   21.8313 S   0  0  0  0  0  0
   -1.4550   48.1870   25.1972 C   0  0  0  0  0  0
   -2.0164   46.9612   25.1506 C   0  0  0  0  0  0
   -2.1528   46.1244   24.1779 O   0  5  0  0  0  0
   -2.5407   46.4310   26.3098 N   0  0  0  0  0  0
   -3.6843   45.5416   26.5170 C   0  0  0  0  0  0
   -4.6815   46.0444   27.5616 C   0  0  0  0  0  0
   -4.3064   46.9229   28.6013 C   0  0  0  0  0  0
   -5.2244   47.3354   29.5759 C   0  0  0  0  0  0
   -6.5222   46.8517   29.4790 C   0  0  0  0  0  0
   -6.8977   45.9977   28.4816 C   0  0  0  0  0  0
   -6.0027   45.5673   27.5073 C   0  0  0  0  0  0
   -8.1947   45.6394   28.6617 O   0  0  0  0  0  0
   -8.6774   46.4738   29.6830 C   0  0  0  0  0  0
   -7.5712   47.0559   30.3172 O   0  0  0  0  0  0
    2.5329   53.5118   24.1321 C   0  0  0  0  0  0
    1.1041   52.8820   26.8103 C   0  0  0  0  0  0
    2.0149   53.7026   26.9440 O   0  0  0  0  0  0
    0.2431   52.5738   27.8195 O   0  0  0  0  0  0
    0.2267   53.2980   29.0484 C   0  0  0  0  0  0
    1.3191   52.8591   30.0070 C   0  0  0  0  0  0
    1.1007   52.4968   31.2811 C   0  0  0  0  0  0
   -5.7459   54.0913   25.7698 H   0  0  0  0  0  0
   -6.3816   52.4738   25.4563 H   0  0  0  0  0  0
   -6.0446   53.0096   27.1160 H   0  0  0  0  0  0
   -3.8967   53.5618   24.1081 H   0  0  0  0  0  0
   -1.5994   52.7120   23.8971 H   0  0  0  0  0  0
   -2.0808   50.4976   27.5552 H   0  0  0  0  0  0
   -4.3668   51.3522   27.7683 H   0  0  0  0  0  0
   -1.2301   47.7254   22.4169 H   0  0  0  0  0  0
   -1.4889   48.6719   26.1580 H   0  0  0  0  0  0
   -2.1410   46.7811   27.1735 H   0  0  0  0  0  0
   -4.1963   45.3481   25.5719 H   0  0  0  0  0  0
   -3.3039   44.5874   26.8814 H   0  0  0  0  0  0
   -3.2957   47.2957   28.6742 H   0  0  0  0  0  0
   -4.9159   47.9985   30.3714 H   0  0  0  0  0  0
   -6.3121   44.8756   26.7383 H   0  0  0  0  0  0
   -9.2738   45.9031   30.3959 H   0  0  0  0  0  0
   -9.2921   47.2621   29.2439 H   0  0  0  0  0  0
    3.4690   53.2771   24.6408 H   0  0  0  0  0  0
    2.7555   53.6662   23.0734 H   0  0  0  0  0  0
    2.1682   54.4671   24.5114 H   0  0  0  0  0  0
   -0.7453   53.1478   29.5187 H   0  0  0  0  0  0
    0.3172   54.3708   28.8600 H   0  0  0  0  0  0
    2.3254   52.8443   29.6109 H   0  0  0  0  0  0
    0.1031   52.4957   31.7000 H   0  0  0  0  0  0
    1.9096   52.1902   31.9285 H   0  0  0  0  0  0
  1  2  1  0  0  0
  1 39  1  0  0  0
  1 40  1  0  0  0
  1 41  1  0  0  0
  2  7  2  0  0  0
  2  3  1  0  0  0
  3  4  2  0  0  0
  3 42  1  0  0  0
  4  5  1  0  0  0
  4 43  1  0  0  0
  5  6  2  0  0  0
  5  8  1  0  0  0
  6  7  1  0  0  0
  6 44  1  0  0  0
  7 45  1  0  0  0
  8  9  1  0  0  0
  8 14  1  0  0  0
  8 10  1  0  0  0
 10 11  2  0  0  0
 10 33  1  0  0  0
 11 12  1  0  0  0
 11 32  1  0  0  0
 12 13  2  0  0  0
 13 17  1  0  0  0
 13 14  1  0  0  0
 14 15  1  0  0  0
 15 16  2  0  0  0
 15 18  1  0  0  0
 16 17  1  0  0  0
 16 46  1  0  0  0
 18 19  2  0  0  0
 18 47  1  0  0  0
 19 20  1  0  0  0
 19 21  1  0  0  0
 21 22  1  0  0  0
 21 48  1  0  0  0
 22 23  1  0  0  0
 22 49  1  0  0  0
 22 50  1  0  0  0
 23 28  2  0  0  0
 23 24  1  0  0  0
 24 25  2  0  0  0
 24 51  1  0  0  0
 25 26  1  0  0  0
 25 52  1  0  0  0
 26 31  1  0  0  0
 26 27  2  0  0  0
 27 28  1  0  0  0
 27 29  1  0  0  0
 28 53  1  0  0  0
 29 30  1  0  0  0
 30 31  1  0  0  0
 30 54  1  0  0  0
 30 55  1  0  0  0
 32 56  1  0  0  0
 32 57  1  0  0  0
 32 58  1  0  0  0
 33 34  2  0  0  0
 33 35  1  0  0  0
 35 36  1  0  0  0
 36 37  1  0  0  0
 36 59  1  0  0  0
 36 60  1  0  0  0
 37 38  2  0  0  0
 37 61  1  0  0  0
 38 62  1  0  0  0
 38 63  1  0  0  0
M  CHG  1  20  -1
M  END
> <i_i_glide_confnum>
232

> <i_i_glide_lignum>
4630

> <i_i_glide_posenum>
173

> <i_i_glide_rotatable_bonds>
9

> <i_m_Source_File_Index>
3751

> <b_m_subgroup_collapsed>
0

> <r_i_docking_score>
-3.57474

> <r_i_glide_ecoul>
-4.20282

> <r_i_glide_eff_state_penalty>
0

> <r_i_glide_einternal>
4.00359

> <r_i_glide_emodel>
-53.6507

> <r_i_glide_energy>
-44.749

> <r_i_glide_erotb>
0.61534

> <r_i_glide_esite>
-0.103883

> <r_i_glide_evdw>
-40.5462

> <r_i_glide_gscore>
-3.57474

> <r_i_glide_hbond>
-0.16042

> <r_i_glide_ligand_efficiency>
-0.0966145

> <r_i_glide_ligand_efficiency_ln>
-0.775277

> <r_i_glide_ligand_efficiency_sa>
-0.321941

> <r_i_glide_lipo>
-1.02871

> <r_i_glide_metal>
0

> <r_i_glide_rewards>
-0.239337

> <s_i_glide_gridfile>
wee1_glide-grid

> <s_m_Source_File>
wee1_decoys_glide_SP.sdf

> <s_m_Source_Path>
/Users/zhangxujun/Desktop

> <s_m_entry_id>
4026

> <s_m_entry_name>
wee1_decoys_glide_SP.3751

> <s_m_subgroup_title>
wee1_decoys_glide_SP

> <s_m_subgroupid>
wee1_decoys_glide_SP


$$$$
