ZINC58821561_452
                    3D
 Schrodinger Suite 2024-2.
 61 64  0  0  1  0            999 V2000
    4.9035   54.2845   20.8223 C   0  0  0  0  0  0
    4.0009   54.1039   22.0577 C   0  0  2  0  0  0
    3.3303   54.9671   22.0411 H   0  0  0  0  0  0
    4.7246   54.1741   23.4210 C   0  0  0  0  0  0
    6.1107   54.3635   23.5425 C   0  0  0  0  0  0
    6.7043   54.4613   24.8016 C   0  0  0  0  0  0
    5.9364   54.3382   25.9582 C   0  0  0  0  0  0
    4.5600   54.1303   25.8660 C   0  0  0  0  0  0
    3.9680   54.0967   24.5961 C   0  0  0  0  0  0
    3.8608   53.9334   27.0713 N   0  0  0  0  0  0
    2.6012   53.4764   27.2642 C   0  0  0  0  0  0
    1.7642   53.2963   26.3792 O   0  0  0  0  0  0
    2.2380   53.1610   28.6929 C   0  0  0  0  0  0
    0.8946   53.2301   29.0940 C   0  0  0  0  0  0
    0.5304   52.8976   30.3941 C   0  0  0  0  0  0
    1.5081   52.4966   31.2955 C   0  0  0  0  0  0
    2.8460   52.4181   30.9118 C   0  0  0  0  0  0
    3.2129   52.7481   29.6138 C   0  0  0  0  0  0
    3.1897   52.8945   21.8718 N   0  0  0  0  0  0
    1.9242   52.7117   22.2924 C   0  0  0  0  0  0
    1.2652   53.5660   22.8818 O   0  0  0  0  0  0
    1.3304   51.3607   22.0176 C   0  0  0  0  0  0
    1.4603   50.7540   20.7612 C   0  0  0  0  0  0
    0.8432   49.5311   20.5060 C   0  0  0  0  0  0
    0.1046   48.8967   21.5037 C   0  0  0  0  0  0
    0.0040   49.4677   22.7833 C   0  0  0  0  0  0
    0.6056   50.7068   23.0213 C   0  0  0  0  0  0
   -0.6512   48.8815   23.8823 N   0  0  0  0  0  0
   -1.4150   47.7695   23.9565 C   0  0  0  0  0  0
   -1.7068   47.0470   23.0018 O   0  0  0  0  0  0
   -1.9653   47.4654   25.3659 C   0  0  1  0  0  0
   -1.1739   47.6992   26.0812 H   0  0  0  0  0  0
   -3.2486   48.2526   25.6821 C   0  0  0  0  0  0
   -4.0978   47.2775   26.4812 C   0  0  0  0  0  0
   -3.2326   46.0293   26.6230 C   0  0  0  0  0  0
   -2.3475   46.0969   25.5098 O   0  0  0  0  0  0
    5.4546   55.2255   20.8578 H   0  0  0  0  0  0
    5.6198   53.4694   20.7225 H   0  0  0  0  0  0
    4.3101   54.3043   19.9074 H   0  0  0  0  0  0
    6.7469   54.4487   22.6745 H   0  0  0  0  0  0
    7.7699   54.6071   24.8808 H   0  0  0  0  0  0
    6.4220   54.3784   26.9228 H   0  0  0  0  0  0
    2.9063   54.0041   24.5089 H   0  0  0  0  0  0
    4.4124   54.0593   27.9035 H   0  0  0  0  0  0
    0.1234   53.5255   28.3943 H   0  0  0  0  0  0
   -0.5038   52.9366   30.7036 H   0  0  0  0  0  0
    1.2197   52.2334   32.3046 H   0  0  0  0  0  0
    3.5931   52.0962   31.6243 H   0  0  0  0  0  0
    4.2540   52.6548   29.3351 H   0  0  0  0  0  0
    3.6451   52.1201   21.4168 H   0  0  0  0  0  0
    2.0133   51.2376   19.9647 H   0  0  0  0  0  0
    0.9353   49.0796   19.5310 H   0  0  0  0  0  0
   -0.3530   47.9518   21.2662 H   0  0  0  0  0  0
    0.5185   51.1682   23.9961 H   0  0  0  0  0  0
   -0.5232   49.3757   24.7527 H   0  0  0  0  0  0
   -3.7909   48.5816   24.7932 H   0  0  0  0  0  0
   -3.0158   49.1268   26.2942 H   0  0  0  0  0  0
   -5.0166   47.0408   25.9435 H   0  0  0  0  0  0
   -4.3767   47.6791   27.4563 H   0  0  0  0  0  0
   -3.8125   45.1054   26.6081 H   0  0  0  0  0  0
   -2.6533   46.0039   27.5494 H   0  0  0  0  0  0
  1  2  1  0  0  0
  1 37  1  0  0  0
  1 38  1  0  0  0
  1 39  1  0  0  0
  2  3  1  0  0  0
  2  4  1  0  0  0
  2 19  1  0  0  0
  4  9  2  0  0  0
  4  5  1  0  0  0
  5  6  2  0  0  0
  5 40  1  0  0  0
  6  7  1  0  0  0
  6 41  1  0  0  0
  7  8  2  0  0  0
  7 42  1  0  0  0
  8  9  1  0  0  0
  8 10  1  0  0  0
  9 43  1  0  0  0
 10 11  1  0  0  0
 10 44  1  0  0  0
 11 12  2  0  0  0
 11 13  1  0  0  0
 13 18  2  0  0  0
 13 14  1  0  0  0
 14 15  2  0  0  0
 14 45  1  0  0  0
 15 16  1  0  0  0
 15 46  1  0  0  0
 16 17  2  0  0  0
 16 47  1  0  0  0
 17 18  1  0  0  0
 17 48  1  0  0  0
 18 49  1  0  0  0
 19 20  1  0  0  0
 19 50  1  0  0  0
 20 21  2  0  0  0
 20 22  1  0  0  0
 22 27  2  0  0  0
 22 23  1  0  0  0
 23 24  2  0  0  0
 23 51  1  0  0  0
 24 25  1  0  0  0
 24 52  1  0  0  0
 25 26  2  0  0  0
 25 53  1  0  0  0
 26 27  1  0  0  0
 26 28  1  0  0  0
 27 54  1  0  0  0
 28 29  1  0  0  0
 28 55  1  0  0  0
 29 30  2  0  0  0
 29 31  1  0  0  0
 31 32  1  0  0  0
 31 36  1  0  0  0
 31 33  1  0  0  0
 33 34  1  0  0  0
 33 56  1  0  0  0
 33 57  1  0  0  0
 34 35  1  0  0  0
 34 58  1  0  0  0
 34 59  1  0  0  0
 35 36  1  0  0  0
 35 60  1  0  0  0
 35 61  1  0  0  0
M  END
> <i_i_glide_confnum>
401

> <i_i_glide_lignum>
453

> <i_i_glide_posenum>
372

> <i_i_glide_rotatable_bonds>
10

> <i_m_Source_File_Index>
4204

> <b_m_subgroup_collapsed>
0

> <r_i_docking_score>
-5.63936

> <r_i_glide_ecoul>
-5.14111

> <r_i_glide_eff_state_penalty>
0

> <r_i_glide_einternal>
11.7432

> <r_i_glide_emodel>
-70.0614

> <r_i_glide_energy>
-55.5354

> <r_i_glide_erotb>
0.960492

> <r_i_glide_esite>
-0.0429575

> <r_i_glide_evdw>
-50.3943

> <r_i_glide_gscore>
-5.63936

> <r_i_glide_hbond>
-0.0374587

> <r_i_glide_ligand_efficiency>
-0.165864

> <r_i_glide_ligand_efficiency_ln>
-1.24589

> <r_i_glide_ligand_efficiency_sa>
-0.537334

> <r_i_glide_lipo>
-2.50415

> <r_i_glide_metal>
0

> <r_i_glide_rewards>
-0.724401

> <s_i_glide_gridfile>
wee1_glide-grid

> <s_m_Source_File>
wee1_decoys_glide_SP.sdf

> <s_m_Source_Path>
/Users/zhangxujun/Desktop

> <s_m_entry_id>
4479

> <s_m_entry_name>
wee1_decoys_glide_SP.4204

> <s_m_subgroup_title>
wee1_decoys_glide_SP

> <s_m_subgroupid>
wee1_decoys_glide_SP


$$$$
