ZINC40723052_3944
                    3D
 Schrodinger Suite 2024-2.
 40 43  0  0  1  0            999 V2000
   -9.0178   49.4975   27.0899 C   0  0  0  0  0  0
   -7.5801   49.9746   27.1952 C   0  0  0  0  0  0
   -6.9478   50.5224   26.0748 C   0  0  0  0  0  0
   -5.6235   50.9603   26.1266 C   0  0  0  0  0  0
   -4.9268   50.8340   27.3350 C   0  0  0  0  0  0
   -5.5700   50.2768   28.4698 C   0  0  0  0  0  0
   -6.9001   49.8398   28.4093 C   0  0  0  0  0  0
   -4.4384   50.2676   29.8129 S   0  0  0  0  0  0
   -3.2430   50.9756   28.7449 C   0  0  0  0  0  0
   -3.6424   51.2260   27.5275 N   0  0  0  0  0  0
   -2.0126   51.2967   29.2817 N   0  0  0  0  0  0
   -0.8248   51.7033   28.6411 C   0  0  0  0  0  0
    0.2422   52.2685   29.3850 C   0  0  0  0  0  0
    1.4047   52.6202   28.6588 C   0  0  0  0  0  0
    1.5044   52.4022   27.3208 N   0  0  0  0  0  0
    0.4276   51.8755   26.6999 C   0  0  0  0  0  0
   -0.7339   51.5295   27.2933 N   0  0  0  0  0  0
    2.8154   53.3615   29.4806 S   0  0  0  0  0  0
    3.9967   53.7828   28.2142 C   0  0  0  0  0  0
    3.6209   54.4967   27.0742 C   0  0  0  0  0  0
    4.5767   54.8353   26.1179 C   0  0  0  0  0  0
    5.9126   54.4965   26.3239 C   0  0  0  0  0  0
    6.2950   53.7956   27.4645 C   0  0  0  0  0  0
    5.3331   53.4378   28.4043 C   0  0  0  0  0  0
    7.1044   54.9574   25.1653 Cl  0  0  0  0  0  0
    0.1639   52.4967   30.7754 N   0  0  0  0  0  0
   -9.1763   48.6084   27.7017 H   0  0  0  0  0  0
   -9.7057   50.2738   27.4261 H   0  0  0  0  0  0
   -9.2711   49.2187   26.0662 H   0  0  0  0  0  0
   -7.4921   50.6125   25.1451 H   0  0  0  0  0  0
   -5.1437   51.3826   25.2572 H   0  0  0  0  0  0
   -7.3848   49.4125   29.2757 H   0  0  0  0  0  0
   -1.8797   51.1581   30.2726 H   0  0  0  0  0  0
    0.5020   51.7092   25.6353 H   0  0  0  0  0  0
    2.5925   54.7877   26.9280 H   0  0  0  0  0  0
    4.2839   55.3683   25.2274 H   0  0  0  0  0  0
    7.3295   53.5283   27.6225 H   0  0  0  0  0  0
    5.6286   52.8937   29.2817 H   0  0  0  0  0  0
    0.9698   52.8958   31.2333 H   0  0  0  0  0  0
   -0.5839   52.1110   31.3496 H   0  0  0  0  0  0
  1  2  1  0  0  0
  1 27  1  0  0  0
  1 28  1  0  0  0
  1 29  1  0  0  0
  2  7  2  0  0  0
  2  3  1  0  0  0
  3  4  2  0  0  0
  3 30  1  0  0  0
  4  5  1  0  0  0
  4 31  1  0  0  0
  5 10  1  0  0  0
  5  6  2  0  0  0
  6  7  1  0  0  0
  6  8  1  0  0  0
  7 32  1  0  0  0
  8  9  1  0  0  0
  9 10  2  0  0  0
  9 11  1  0  0  0
 11 12  1  0  0  0
 11 33  1  0  0  0
 12 17  2  0  0  0
 12 13  1  0  0  0
 13 14  2  0  0  0
 13 26  1  0  0  0
 14 15  1  0  0  0
 14 18  1  0  0  0
 15 16  2  0  0  0
 16 17  1  0  0  0
 16 34  1  0  0  0
 18 19  1  0  0  0
 19 24  2  0  0  0
 19 20  1  0  0  0
 20 21  2  0  0  0
 20 35  1  0  0  0
 21 22  1  0  0  0
 21 36  1  0  0  0
 22 23  2  0  0  0
 22 25  1  0  0  0
 23 24  1  0  0  0
 23 37  1  0  0  0
 24 38  1  0  0  0
 26 39  1  0  0  0
 26 40  1  0  0  0
M  END
> <i_i_glide_confnum>
7

> <i_i_glide_lignum>
3945

> <i_i_glide_posenum>
362

> <i_i_glide_rotatable_bonds>
4

> <i_m_Source_File_Index>
586

> <b_m_subgroup_collapsed>
0

> <r_i_docking_score>
-4.90998

> <r_i_glide_ecoul>
-2.97768

> <r_i_glide_eff_state_penalty>
0

> <r_i_glide_einternal>
1.37107

> <r_i_glide_emodel>
-50.7318

> <r_i_glide_energy>
-38.4488

> <r_i_glide_erotb>
0.490172

> <r_i_glide_esite>
-0.170665

> <r_i_glide_evdw>
-35.4711

> <r_i_glide_gscore>
-4.90998

> <r_i_glide_hbond>
-0.142353

> <r_i_glide_ligand_efficiency>
-0.188846

> <r_i_glide_ligand_efficiency_ln>
-1.15309

> <r_i_glide_ligand_efficiency_sa>
-0.559454

> <r_i_glide_lipo>
-1.9907

> <r_i_glide_metal>
0

> <r_i_glide_rewards>
-0.876231

> <s_i_glide_gridfile>
wee1_glide-grid

> <s_m_Source_File>
wee1_decoys_glide_SP.sdf

> <s_m_Source_Path>
/Users/zhangxujun/Desktop

> <s_m_entry_id>
861

> <s_m_entry_name>
wee1_decoys_glide_SP.586

> <s_m_subgroup_title>
wee1_decoys_glide_SP

> <s_m_subgroupid>
wee1_decoys_glide_SP


$$$$
