ZINC34899120_4389
                    3D
 Schrodinger Suite 2024-2.
 56 59  0  0  1  0            999 V2000
    4.0137   54.1277   24.5585 C   0  0  0  0  0  0
    2.8226   53.7911   25.2228 C   0  0  0  0  0  0
    2.8355   53.7747   26.6283 C   0  0  0  0  0  0
    3.9953   54.0713   27.3530 C   0  0  0  0  0  0
    5.1648   54.3892   26.6604 C   0  0  0  0  0  0
    5.1820   54.4257   25.2633 C   0  0  0  0  0  0
    6.4735   54.7794   24.5343 C   0  0  0  0  0  0
    7.2397   53.6969   24.4817 F   0  0  0  0  0  0
    6.2980   55.2073   23.2841 F   0  0  0  0  0  0
    7.1046   55.7309   25.2157 F   0  0  0  0  0  0
    3.9913   54.0422   28.8817 C   0  0  0  0  0  0
    2.7957   54.3687   29.3801 F   0  0  0  0  0  0
    4.3003   52.8140   29.2960 F   0  0  0  0  0  0
    4.8877   54.8951   29.3797 F   0  0  0  0  0  0
    1.5388   53.4582   24.4264 C   0  0  2  0  0  0
    1.0084   54.4119   24.4024 H   0  0  0  0  0  0
    0.5940   52.4442   25.1363 C   0  0  0  0  0  0
   -0.7634   52.3023   24.4114 C   0  0  0  0  0  0
   -0.5239   52.0778   22.9317 C   0  0  0  0  0  0
   -1.4104   51.6213   22.0763 N   0  0  0  0  0  0
   -0.8019   51.5572   20.9002 C   0  0  0  0  0  0
    0.4803   52.0979   21.0090 C   0  0  0  0  0  0
    0.6488   52.4567   22.3183 N   0  0  0  0  0  0
    1.8376   53.0021   22.9616 C   0  0  0  0  0  0
   -1.4273   51.0827   19.6931 C   0  0  0  0  0  0
   -2.6464   51.1328   19.5231 O   0  0  0  0  0  0
   -0.5561   50.5401   18.8269 N   0  0  0  0  0  0
   -0.8456   49.9096   17.5278 C   0  0  2  0  0  0
   -1.4248   50.6347   16.9522 H   0  0  0  0  0  0
   -1.6423   48.5884   17.6797 C   0  0  0  0  0  0
   -1.0125   47.5716   18.6683 C   0  0  0  0  0  0
    0.4703   47.1940   18.4219 C   0  0  0  0  0  0
    1.4985   48.3533   18.5198 C   0  0  0  0  0  0
    1.5044   49.2983   17.3929 N   0  0  0  0  0  0
    0.4304   49.6748   16.6721 C   0  0  0  0  0  0
    0.4104   49.6769   15.4450 O   0  0  0  0  0  0
    4.0556   54.1656   23.4806 H   0  0  0  0  0  0
    1.9441   53.5396   27.1875 H   0  0  0  0  0  0
    6.0701   54.6085   27.2103 H   0  0  0  0  0  0
    1.0859   51.4708   25.2097 H   0  0  0  0  0  0
    0.3386   52.7605   26.1467 H   0  0  0  0  0  0
   -1.3530   53.2107   24.5512 H   0  0  0  0  0  0
   -1.3460   51.4879   24.8458 H   0  0  0  0  0  0
    1.2716   52.2638   20.2898 H   0  0  0  0  0  0
    2.6015   52.2238   22.9436 H   0  0  0  0  0  0
    2.2064   53.8229   22.3442 H   0  0  0  0  0  0
    0.4208   50.7361   18.9799 H   0  0  0  0  0  0
   -1.7572   48.1021   16.7098 H   0  0  0  0  0  0
   -2.6550   48.8157   18.0149 H   0  0  0  0  0  0
   -1.1153   47.9517   19.6863 H   0  0  0  0  0  0
   -1.6104   46.6586   18.6480 H   0  0  0  0  0  0
    0.7415   46.4480   19.1696 H   0  0  0  0  0  0
    0.5760   46.6951   17.4578 H   0  0  0  0  0  0
    1.3758   48.8988   19.4557 H   0  0  0  0  0  0
    2.5033   47.9321   18.5759 H   0  0  0  0  0  0
    2.3852   49.2957   16.8713 H   0  0  0  0  0  0
  1  6  2  0  0  0
  1  2  1  0  0  0
  1 37  1  0  0  0
  2  3  2  0  0  0
  2 15  1  0  0  0
  3  4  1  0  0  0
  3 38  1  0  0  0
  4  5  2  0  0  0
  4 11  1  0  0  0
  5  6  1  0  0  0
  5 39  1  0  0  0
  6  7  1  0  0  0
  7  8  1  0  0  0
  7  9  1  0  0  0
  7 10  1  0  0  0
 11 12  1  0  0  0
 11 13  1  0  0  0
 11 14  1  0  0  0
 15 16  1  0  0  0
 15 24  1  0  0  0
 15 17  1  0  0  0
 17 18  1  0  0  0
 17 40  1  0  0  0
 17 41  1  0  0  0
 18 19  1  0  0  0
 18 42  1  0  0  0
 18 43  1  0  0  0
 19 23  1  0  0  0
 19 20  2  0  0  0
 20 21  1  0  0  0
 21 22  2  0  0  0
 21 25  1  0  0  0
 22 23  1  0  0  0
 22 44  1  0  0  0
 23 24  1  0  0  0
 24 45  1  0  0  0
 24 46  1  0  0  0
 25 26  2  0  0  0
 25 27  1  0  0  0
 27 28  1  0  0  0
 27 47  1  0  0  0
 28 29  1  0  0  0
 28 35  1  0  0  0
 28 30  1  0  0  0
 30 31  1  0  0  0
 30 48  1  0  0  0
 30 49  1  0  0  0
 31 32  1  0  0  0
 31 50  1  0  0  0
 31 51  1  0  0  0
 32 33  1  0  0  0
 32 52  1  0  0  0
 32 53  1  0  0  0
 33 34  1  0  0  0
 33 54  1  0  0  0
 33 55  1  0  0  0
 34 35  1  0  0  0
 34 56  1  0  0  0
 35 36  2  0  0  0
M  END
> <i_i_glide_confnum>
37

> <i_i_glide_lignum>
4390

> <i_i_glide_posenum>
163

> <i_i_glide_rotatable_bonds>
6

> <i_m_Source_File_Index>
3260

> <b_m_subgroup_collapsed>
0

> <r_i_docking_score>
-6.53077

> <r_i_glide_ecoul>
-6.26317

> <r_i_glide_eff_state_penalty>
0

> <r_i_glide_einternal>
5.97537

> <r_i_glide_emodel>
-60.1837

> <r_i_glide_energy>
-44.0448

> <r_i_glide_erotb>
0.340985

> <r_i_glide_esite>
-0.139266

> <r_i_glide_evdw>
-37.7817

> <r_i_glide_gscore>
-6.53077

> <r_i_glide_hbond>
-0.16

> <r_i_glide_ligand_efficiency>
-0.192082

> <r_i_glide_ligand_efficiency_ln>
-1.44283

> <r_i_glide_ligand_efficiency_sa>
-0.62227

> <r_i_glide_lipo>
-2.57598

> <r_i_glide_metal>
0

> <r_i_glide_rewards>
-1.16795

> <s_i_glide_gridfile>
wee1_glide-grid

> <s_m_Source_File>
wee1_decoys_glide_SP.sdf

> <s_m_Source_Path>
/Users/zhangxujun/Desktop

> <s_m_entry_id>
3535

> <s_m_entry_name>
wee1_decoys_glide_SP.3260

> <s_m_subgroup_title>
wee1_decoys_glide_SP

> <s_m_subgroupid>
wee1_decoys_glide_SP


$$$$
