ZINC19328047_2493
                    3D
 Schrodinger Suite 2024-2.
 43 44  0  0  1  0            999 V2000
   -0.2316   52.0968   29.6139 C   0  0  0  0  0  0
    1.1189   52.6735   30.0448 C   0  0  0  0  0  0
    1.8959   52.9661   28.8891 O   0  0  0  0  0  0
    3.1541   53.4430   29.0038 C   0  0  0  0  0  0
    3.7157   53.6510   30.0816 O   0  0  0  0  0  0
    3.7922   53.6919   27.6986 C   0  0  0  0  0  0
    3.2197   53.6375   26.3919 C   0  0  0  0  0  0
    4.2259   53.9983   25.4874 C   0  0  0  0  0  0
    5.3627   54.1964   26.2157 N   0  0  0  0  0  0
    6.2589   54.4222   25.8094 H   0  0  0  0  0  0
    5.1446   53.9963   27.5378 C   0  0  0  0  0  0
    6.3044   54.0966   28.4817 C   0  0  0  0  0  0
    4.2529   54.1016   24.0353 C   0  0  0  0  0  0
    5.3119   54.4840   23.4462 N   0  0  0  0  0  0
    5.1857   54.4972   22.1171 N   0  0  0  0  0  0
    6.1299   55.0154   21.3085 C   0  0  0  0  0  0
    7.2124   55.4782   21.6820 O   0  0  0  0  0  0
    5.7486   55.0229   19.8553 C   0  0  0  0  0  0
    5.2735   53.8777   19.1889 C   0  0  0  0  0  0
    4.9274   54.0015   17.8335 C   0  0  0  0  0  0
    5.0662   55.2415   17.1876 C   0  0  0  0  0  0
    5.5588   56.3268   17.9242 C   0  0  0  0  0  0
    5.9038   56.2179   19.2294 N   0  0  0  0  0  0
    5.7443   57.8858   17.1995 Cl  0  0  0  0  0  0
    4.6397   55.4345   15.5148 Cl  0  0  0  0  0  0
    4.4374   52.8967   17.1335 N   0  0  0  0  0  0
    5.1033   52.3503   20.0147 Cl  0  0  0  0  0  0
    1.7916   53.2973   26.0182 C   0  0  0  0  0  0
   -0.8464   51.8577   30.4827 H   0  0  0  0  0  0
   -0.1033   51.1779   29.0395 H   0  0  0  0  0  0
   -0.7839   52.8038   28.9955 H   0  0  0  0  0  0
    0.9677   53.5804   30.6324 H   0  0  0  0  0  0
    1.6424   51.9564   30.6787 H   0  0  0  0  0  0
    6.5585   53.1211   28.8815 H   0  0  0  0  0  0
    7.2089   54.4977   28.0246 H   0  0  0  0  0  0
    6.0576   54.7398   29.3249 H   0  0  0  0  0  0
    3.3202   53.8226   23.5480 H   0  0  0  0  0  0
    4.3098   54.1537   21.7498 H   0  0  0  0  0  0
    4.4150   52.9783   16.1279 H   0  0  0  0  0  0
    4.7040   51.9831   17.5116 H   0  0  0  0  0  0
    1.5217   53.5820   25.0023 H   0  0  0  0  0  0
    1.5760   52.2377   26.1560 H   0  0  0  0  0  0
    1.1047   53.8281   26.6702 H   0  0  0  0  0  0
  1  2  1  0  0  0
  1 29  1  0  0  0
  1 30  1  0  0  0
  1 31  1  0  0  0
  2  3  1  0  0  0
  2 32  1  0  0  0
  2 33  1  0  0  0
  3  4  1  0  0  0
  4  5  2  0  0  0
  4  6  1  0  0  0
  6 11  2  0  0  0
  6  7  1  0  0  0
  7  8  2  0  0  0
  7 28  1  0  0  0
  8  9  1  0  0  0
  8 13  1  0  0  0
  9 10  1  0  0  0
  9 11  1  0  0  0
 11 12  1  0  0  0
 12 34  1  0  0  0
 12 35  1  0  0  0
 12 36  1  0  0  0
 13 14  2  0  0  0
 13 37  1  0  0  0
 14 15  1  0  0  0
 15 16  1  0  0  0
 15 38  1  0  0  0
 16 17  2  0  0  0
 16 18  1  0  0  0
 18 23  2  0  0  0
 18 19  1  0  0  0
 19 20  2  0  0  0
 19 27  1  0  0  0
 20 21  1  0  0  0
 20 26  1  0  0  0
 21 22  2  0  0  0
 21 25  1  0  0  0
 22 23  1  0  0  0
 22 24  1  0  0  0
 26 39  1  0  0  0
 26 40  1  0  0  0
 28 41  1  0  0  0
 28 42  1  0  0  0
 28 43  1  0  0  0
M  END
> <i_i_glide_confnum>
24

> <i_i_glide_lignum>
2494

> <i_i_glide_posenum>
109

> <i_i_glide_rotatable_bonds>
7

> <i_m_Source_File_Index>
800

> <b_m_subgroup_collapsed>
0

> <r_i_docking_score>
-5.33167

> <r_i_glide_ecoul>
-4.99288

> <r_i_glide_eff_state_penalty>
0

> <r_i_glide_einternal>
1.82273

> <r_i_glide_emodel>
-58.1527

> <r_i_glide_energy>
-43.0995

> <r_i_glide_erotb>
0.637778

> <r_i_glide_esite>
-0.0803067

> <r_i_glide_evdw>
-38.1066

> <r_i_glide_gscore>
-5.33167

> <r_i_glide_hbond>
-0.456

> <r_i_glide_ligand_efficiency>
-0.197469

> <r_i_glide_ligand_efficiency_ln>
-1.24113

> <r_i_glide_ligand_efficiency_sa>
-0.592408

> <r_i_glide_lipo>
-1.48896

> <r_i_glide_metal>
0

> <r_i_glide_rewards>
-1.28992

> <s_i_glide_gridfile>
wee1_glide-grid

> <s_m_Source_File>
wee1_decoys_glide_SP.sdf

> <s_m_Source_Path>
/Users/zhangxujun/Desktop

> <s_m_entry_id>
1075

> <s_m_entry_name>
wee1_decoys_glide_SP.800

> <s_m_subgroup_title>
wee1_decoys_glide_SP

> <s_m_subgroupid>
wee1_decoys_glide_SP


$$$$
