ZINC40930891_4854
                    3D
 Schrodinger Suite 2024-2.
 56 59  0  0  1  0            999 V2000
   -0.0932   48.8973   21.3688 C   0  0  0  0  0  0
   -1.4508   48.9757   21.0810 C   0  0  0  0  0  0
   -1.8715   49.5154   19.8684 C   0  0  0  0  0  0
   -0.9459   49.9971   18.9285 C   0  0  0  0  0  0
    0.4363   49.9157   19.2220 C   0  0  0  0  0  0
    0.8409   49.3500   20.4411 C   0  0  0  0  0  0
    1.5082   50.4792   18.2665 C   0  0  0  0  0  0
    2.7044   51.0695   18.8803 N   0  0  0  0  0  0
    2.7180   52.0329   19.8197 C   0  0  0  0  0  0
    1.6829   52.4967   20.2973 O   0  0  0  0  0  0
    4.0930   52.5142   20.3468 C   0  0  1  0  0  0
    4.3083   54.0184   20.0075 C   0  0  0  0  0  0
    5.5518   54.6175   20.7010 C   0  0  0  0  0  0
    5.4356   54.3314   22.2176 N   0  3  1  0  0  0
    5.4236   52.8094   22.4809 C   0  0  0  0  0  0
    4.1303   52.2477   21.8735 C   0  0  0  0  0  0
    6.5329   55.0203   23.0752 C   0  0  0  0  0  0
    6.1462   54.9600   24.5545 C   0  0  0  0  0  0
    5.0098   54.5996   25.0966 N   0  0  0  0  0  0
    5.3103   54.5213   26.3802 C   0  0  0  0  0  0
    6.5329   54.8970   26.6968 N   0  0  0  0  0  0
    7.1044   55.2199   25.4684 O   0  0  0  0  0  0
    4.3396   53.9943   27.4019 C   0  0  0  0  0  0
    4.7775   53.7057   28.7016 C   0  0  0  0  0  0
    3.9044   53.1646   29.6407 C   0  0  0  0  0  0
    2.5797   52.9191   29.2921 C   0  0  0  0  0  0
    2.1229   53.2128   28.0097 C   0  0  0  0  0  0
    3.0002   53.7469   27.0686 C   0  0  0  0  0  0
    1.5041   52.2408   30.4573 Cl  0  0  0  0  0  0
   -1.4681   50.5931   17.6131 C   0  0  0  0  0  0
   -1.2554   51.9097   17.6053 F   0  0  0  0  0  0
   -0.8480   50.0422   16.5689 F   0  0  0  0  0  0
   -2.7778   50.3951   17.4485 F   0  0  0  0  0  0
    0.2370   48.4968   22.3154 H   0  0  0  0  0  0
   -2.1779   48.6237   21.7990 H   0  0  0  0  0  0
   -2.9324   49.5629   19.6704 H   0  0  0  0  0  0
    1.8912   49.2806   20.6862 H   0  0  0  0  0  0
    1.8387   49.6689   17.6146 H   0  0  0  0  0  0
    1.1020   51.2455   17.6074 H   0  0  0  0  0  0
    3.5980   50.7739   18.4825 H   0  0  0  0  0  0
    4.8559   51.9170   19.8434 H   0  0  0  0  0  0
    4.4279   54.1697   18.9328 H   0  0  0  0  0  0
    3.5043   54.6283   20.4010 H   0  0  0  0  0  0
    6.4892   54.2149   20.3211 H   0  0  0  0  0  0
    5.5492   55.7027   20.5824 H   0  0  0  0  0  0
    6.3044   52.3355   22.0817 H   0  0  0  0  0  0
    5.5037   52.6742   23.5497 H   0  0  0  0  0  0
    3.3171   52.7603   22.3933 H   0  0  0  0  0  0
    4.1116   51.1764   22.0792 H   0  0  0  0  0  0
    7.4643   54.4946   22.8558 H   0  0  0  0  0  0
    6.6289   56.0430   22.7098 H   0  0  0  0  0  0
    5.8068   53.8791   28.9845 H   0  0  0  0  0  0
    4.2590   52.9275   30.6326 H   0  0  0  0  0  0
    1.0938   53.0187   27.7429 H   0  0  0  0  0  0
    2.6323   53.9535   26.0738 H   0  0  0  0  0  0
    4.5581   54.7140   22.5471 H   0  0  0  0  0  0
  1  6  2  0  0  0
  1  2  1  0  0  0
  1 34  1  0  0  0
  2  3  2  0  0  0
  2 35  1  0  0  0
  3  4  1  0  0  0
  3 36  1  0  0  0
  4  5  2  0  0  0
  4 30  1  0  0  0
  5  6  1  0  0  0
  5  7  1  0  0  0
  6 37  1  0  0  0
  7  8  1  0  0  0
  7 38  1  0  0  0
  7 39  1  0  0  0
  8  9  1  0  0  0
  8 40  1  0  0  0
  9 10  2  0  0  0
  9 11  1  0  0  0
 11 16  1  0  0  0
 11 12  1  0  0  0
 11 41  1  0  0  0
 12 13  1  0  0  0
 12 42  1  0  0  0
 12 43  1  0  0  0
 13 14  1  0  0  0
 13 44  1  0  0  0
 13 45  1  0  0  0
 14 15  1  0  0  0
 14 17  1  0  0  0
 14 56  1  0  0  0
 15 16  1  0  0  0
 15 46  1  0  0  0
 15 47  1  0  0  0
 16 48  1  0  0  0
 16 49  1  0  0  0
 17 18  1  0  0  0
 17 50  1  0  0  0
 17 51  1  0  0  0
 18 22  1  0  0  0
 18 19  2  0  0  0
 19 20  1  0  0  0
 20 21  2  0  0  0
 20 23  1  0  0  0
 21 22  1  0  0  0
 23 28  2  0  0  0
 23 24  1  0  0  0
 24 25  2  0  0  0
 24 52  1  0  0  0
 25 26  1  0  0  0
 25 53  1  0  0  0
 26 27  2  0  0  0
 26 29  1  0  0  0
 27 28  1  0  0  0
 27 54  1  0  0  0
 28 55  1  0  0  0
 30 31  1  0  0  0
 30 32  1  0  0  0
 30 33  1  0  0  0
M  CHG  1  14   1
M  END
> <i_i_glide_confnum>
3

> <i_i_glide_lignum>
4855

> <i_i_glide_posenum>
251

> <i_i_glide_rotatable_bonds>
8

> <i_m_Source_File_Index>
4629

> <b_m_subgroup_collapsed>
0

> <r_i_docking_score>
-4.67394

> <r_i_glide_ecoul>
-3.33779

> <r_i_glide_eff_state_penalty>
0

> <r_i_glide_einternal>
2.00375

> <r_i_glide_emodel>
-49.434

> <r_i_glide_energy>
-37.7873

> <r_i_glide_erotb>
0.616249

> <r_i_glide_esite>
-0.13639

> <r_i_glide_evdw>
-34.4495

> <r_i_glide_gscore>
-4.67394

> <r_i_glide_hbond>
-0.16

> <r_i_glide_ligand_efficiency>
-0.141635

> <r_i_glide_ligand_efficiency_ln>
-1.03946

> <r_i_glide_ligand_efficiency_sa>
-0.454298

> <r_i_glide_lipo>
-2.12685

> <r_i_glide_metal>
0

> <r_i_glide_rewards>
-0.643811

> <s_i_glide_gridfile>
wee1_glide-grid

> <s_m_Source_File>
wee1_decoys_glide_SP.sdf

> <s_m_Source_Path>
/Users/zhangxujun/Desktop

> <s_m_entry_id>
4904

> <s_m_entry_name>
wee1_decoys_glide_SP.4629

> <s_m_subgroup_title>
wee1_decoys_glide_SP

> <s_m_subgroupid>
wee1_decoys_glide_SP


$$$$
