ZINC44785405_1690
                    3D
 Schrodinger Suite 2024-2.
 48 49  0  0  1  0            999 V2000
    2.7050   53.6397   25.9821 C   0  0  0  0  0  0
    3.3317   53.3830   27.2924 N   0  0  0  0  0  0
    4.8204   53.3900   27.1525 C   0  0  0  0  0  0
    5.4273   54.1306   25.9132 C   0  0  0  0  0  0
    6.9515   54.0713   25.8494 C   0  0  0  0  0  0
    7.5044   54.5095   27.0756 O   0  0  0  0  0  0
    7.1079   53.7627   28.2089 C   0  0  0  0  0  0
    5.6026   53.9268   28.3803 C   0  0  0  0  0  0
    2.7183   52.8890   28.4285 C   0  0  0  0  0  0
    3.3792   52.2113   29.2257 O   0  0  0  0  0  0
    1.2133   53.1339   28.8751 C   0  0  0  0  0  0
    0.2408   53.5629   27.7413 C   0  0  0  0  0  0
   -0.2394   52.4861   26.7239 C   0  0  0  0  0  0
   -1.5509   51.8088   27.1142 C   0  0  0  0  0  0
   -1.3987   50.9213   28.3362 C   0  0  0  0  0  0
   -0.8067   51.5544   29.6106 C   0  0  0  0  0  0
    0.7146   51.7844   29.5336 C   0  0  0  0  0  0
    1.1719   54.3327   29.9095 C   0  0  0  0  0  0
    1.7393   55.4336   29.5745 N   0  0  0  0  0  0
    1.5155   56.4982   30.4764 O   0  0  0  0  0  0
    0.4443   54.0999   31.0679 N   0  0  0  0  0  0
    1.6590   53.4728   25.8506 H   0  0  0  0  0  0
    2.9032   54.6601   25.6569 H   0  0  0  0  0  0
    3.1385   52.9630   25.2459 H   0  0  0  0  0  0
    5.1041   52.3409   27.1327 H   0  0  0  0  0  0
    5.0778   53.6983   24.9773 H   0  0  0  0  0  0
    5.1171   55.1764   25.9193 H   0  0  0  0  0  0
    7.2581   53.0449   25.6521 H   0  0  0  0  0  0
    7.3346   54.6857   25.0338 H   0  0  0  0  0  0
    7.3603   52.7083   28.0782 H   0  0  0  0  0  0
    7.6501   54.0965   29.0921 H   0  0  0  0  0  0
    5.3650   54.9762   28.5600 H   0  0  0  0  0  0
    5.3576   53.3919   29.2818 H   0  0  0  0  0  0
    0.7044   54.4272   27.2817 H   0  0  0  0  0  0
   -0.6629   54.0072   28.1599 H   0  0  0  0  0  0
    0.5325   51.7266   26.5864 H   0  0  0  0  0  0
   -0.3922   52.9029   25.7307 H   0  0  0  0  0  0
   -1.8935   51.1911   26.2820 H   0  0  0  0  0  0
   -2.3460   52.5300   27.2777 H   0  0  0  0  0  0
   -0.7282   50.1271   28.0030 H   0  0  0  0  0  0
   -2.3742   50.4965   28.5712 H   0  0  0  0  0  0
   -1.0257   50.8973   30.4535 H   0  0  0  0  0  0
   -1.2960   52.4924   29.8469 H   0  0  0  0  0  0
    1.1352   51.6966   30.5375 H   0  0  0  0  0  0
    1.1350   50.9222   29.0096 H   0  0  0  0  0  0
    2.0302   57.2137   30.0901 H   0  0  0  0  0  0
    0.3654   54.8410   31.7484 H   0  0  0  0  0  0
    0.0385   53.1959   31.2684 H   0  0  0  0  0  0
  1  2  1  0  0  0
  1 22  1  0  0  0
  1 23  1  0  0  0
  1 24  1  0  0  0
  2  3  1  0  0  0
  2  9  1  0  0  0
  3  8  1  0  0  0
  3  4  1  0  0  0
  3 25  1  0  0  0
  4  5  1  0  0  0
  4 26  1  0  0  0
  4 27  1  0  0  0
  5  6  1  0  0  0
  5 28  1  0  0  0
  5 29  1  0  0  0
  6  7  1  0  0  0
  7  8  1  0  0  0
  7 30  1  0  0  0
  7 31  1  0  0  0
  8 32  1  0  0  0
  8 33  1  0  0  0
  9 10  2  0  0  0
  9 11  1  0  0  0
 11 17  1  0  0  0
 11 12  1  0  0  0
 11 18  1  0  0  0
 12 13  1  0  0  0
 12 34  1  0  0  0
 12 35  1  0  0  0
 13 14  1  0  0  0
 13 36  1  0  0  0
 13 37  1  0  0  0
 14 15  1  0  0  0
 14 38  1  0  0  0
 14 39  1  0  0  0
 15 16  1  0  0  0
 15 40  1  0  0  0
 15 41  1  0  0  0
 16 17  1  0  0  0
 16 42  1  0  0  0
 16 43  1  0  0  0
 17 44  1  0  0  0
 17 45  1  0  0  0
 18 19  2  0  0  0
 18 21  1  0  0  0
 19 20  1  0  0  0
 20 46  1  0  0  0
 21 47  1  0  0  0
 21 48  1  0  0  0
M  END
> <i_i_glide_confnum>
142

> <i_i_glide_lignum>
1691

> <i_i_glide_posenum>
301

> <i_i_glide_rotatable_bonds>
5

> <i_m_Source_File_Index>
272

> <b_m_subgroup_collapsed>
0

> <r_i_docking_score>
-5.40857

> <r_i_glide_ecoul>
-6.01849

> <r_i_glide_eff_state_penalty>
0

> <r_i_glide_einternal>
7.32914

> <r_i_glide_emodel>
-37.7541

> <r_i_glide_energy>
-32.9139

> <r_i_glide_erotb>
1.03654

> <r_i_glide_esite>
0

> <r_i_glide_evdw>
-26.8954

> <r_i_glide_gscore>
-5.40857

> <r_i_glide_hbond>
-0.303903

> <r_i_glide_ligand_efficiency>
-0.257551

> <r_i_glide_ligand_efficiency_ln>
-1.33726

> <r_i_glide_ligand_efficiency_sa>
-0.710564

> <r_i_glide_lipo>
-1.5331

> <r_i_glide_metal>
0

> <r_i_glide_rewards>
-2.36056

> <s_i_glide_gridfile>
wee1_glide-grid

> <s_m_Source_File>
wee1_decoys_glide_SP.sdf

> <s_m_Source_Path>
/Users/zhangxujun/Desktop

> <s_m_entry_id>
547

> <s_m_entry_name>
wee1_decoys_glide_SP.272

> <s_m_subgroup_title>
wee1_decoys_glide_SP

> <s_m_subgroupid>
wee1_decoys_glide_SP


$$$$
