ZINC63573607_808
                    3D
 Schrodinger Suite 2024-2.
 57 61  0  0  1  0            999 V2000
    9.5003   50.5001   12.8805 C   0  0  0  0  0  0
   10.4095   49.7930   13.7674 C   0  0  0  0  0  0
   10.4133   49.9938   15.1096 C   0  0  0  0  0  0
    9.5179   50.9008   15.6866 C   0  0  0  0  0  0
    9.3780   51.2424   16.9407 N   0  3  0  0  0  0
    8.2814   52.2097   17.0726 C   0  0  0  0  0  0
    7.8420   52.4060   15.6387 C   0  0  0  0  0  0
    8.6058   51.5946   14.8821 C   0  0  0  0  0  0
    8.6268   51.3680   13.4287 C   0  0  0  0  0  0
    6.7328   53.3794   15.2583 C   0  0  0  0  0  0
    5.3719   53.1896   15.9735 C   0  0  0  0  0  0
    5.4085   53.2969   17.4345 N   0  0  0  0  0  0
    5.6716   54.4211   18.1292 C   0  0  0  0  0  0
    5.9264   55.4929   17.5783 O   0  0  0  0  0  0
    5.6813   54.3094   19.6392 C   0  0  0  0  0  0
    6.3145   55.2977   20.4076 C   0  0  0  0  0  0
    6.3169   55.2299   21.7999 C   0  0  0  0  0  0
    5.6717   54.1695   22.4509 C   0  0  0  0  0  0
    5.0566   53.1753   21.6885 C   0  0  0  0  0  0
    5.0573   53.2408   20.2987 C   0  0  0  0  0  0
    5.5348   54.0403   23.8456 N   0  0  0  0  0  0
    5.9444   54.8399   24.8576 C   0  0  0  0  0  0
    6.8168   55.6968   24.7075 O   0  0  0  0  0  0
    5.3255   54.6343   26.0694 N   0  0  0  0  0  0
    6.1371   54.9962   27.2555 C   0  0  0  0  0  0
    6.2872   53.7345   28.1144 C   0  0  0  0  0  0
    4.7042   53.3146   28.8812 S   0  0  0  0  0  0
    3.6529   53.4112   27.4639 C   0  0  0  0  0  0
    4.0328   54.0270   26.2474 C   0  0  0  0  0  0
    3.0252   54.0972   25.2593 C   0  0  0  0  0  0
    1.7799   53.5033   25.4534 C   0  0  0  0  0  0
    1.5216   52.8942   26.6760 C   0  0  0  0  0  0
    2.4304   52.8594   27.6772 N   0  0  0  0  0  0
    9.5469   50.3345   11.8128 H   0  0  0  0  0  0
   11.1093   49.0940   13.3304 H   0  0  0  0  0  0
   11.1179   49.4420   15.7156 H   0  0  0  0  0  0
    7.5060   51.7476   17.6818 H   0  0  0  0  0  0
    8.6667   53.1111   17.5520 H   0  0  0  0  0  0
    7.9589   51.8961   12.7647 H   0  0  0  0  0  0
    7.0967   54.3927   15.4297 H   0  0  0  0  0  0
    6.5707   53.3094   14.1829 H   0  0  0  0  0  0
    4.6374   53.8952   15.5775 H   0  0  0  0  0  0
    4.9882   52.1929   15.7472 H   0  0  0  0  0  0
    5.2512   52.4265   17.9349 H   0  0  0  0  0  0
    6.8070   56.1326   19.9281 H   0  0  0  0  0  0
    6.8075   56.0183   22.3478 H   0  0  0  0  0  0
    4.5453   52.3513   22.1616 H   0  0  0  0  0  0
    4.5499   52.4582   19.7503 H   0  0  0  0  0  0
    4.9152   53.2957   24.1272 H   0  0  0  0  0  0
    7.1067   55.4445   27.0410 H   0  0  0  0  0  0
    5.5727   55.6964   27.8688 H   0  0  0  0  0  0
    6.6278   52.8818   27.5251 H   0  0  0  0  0  0
    7.0180   53.8889   28.9093 H   0  0  0  0  0  0
    3.1766   54.6256   24.3300 H   0  0  0  0  0  0
    1.0217   53.5436   24.6847 H   0  0  0  0  0  0
    0.5654   52.4323   26.8778 H   0  0  0  0  0  0
    9.9268   50.8957   17.7284 H   0  0  0  0  0  0
  1  9  2  0  0  0
  1  2  1  0  0  0
  1 34  1  0  0  0
  2  3  2  0  0  0
  2 35  1  0  0  0
  3  4  1  0  0  0
  3 36  1  0  0  0
  4  8  1  0  0  0
  4  5  2  0  0  0
  5  6  1  0  0  0
  5 57  1  0  0  0
  6  7  1  0  0  0
  6 37  1  0  0  0
  6 38  1  0  0  0
  7  8  2  0  0  0
  7 10  1  0  0  0
  8  9  1  0  0  0
  9 39  1  0  0  0
 10 11  1  0  0  0
 10 40  1  0  0  0
 10 41  1  0  0  0
 11 12  1  0  0  0
 11 42  1  0  0  0
 11 43  1  0  0  0
 12 13  1  0  0  0
 12 44  1  0  0  0
 13 14  2  0  0  0
 13 15  1  0  0  0
 15 20  2  0  0  0
 15 16  1  0  0  0
 16 17  2  0  0  0
 16 45  1  0  0  0
 17 18  1  0  0  0
 17 46  1  0  0  0
 18 19  2  0  0  0
 18 21  1  0  0  0
 19 20  1  0  0  0
 19 47  1  0  0  0
 20 48  1  0  0  0
 21 22  1  0  0  0
 21 49  1  0  0  0
 22 23  2  0  0  0
 22 24  1  0  0  0
 24 29  1  0  0  0
 24 25  1  0  0  0
 25 26  1  0  0  0
 25 50  1  0  0  0
 25 51  1  0  0  0
 26 27  1  0  0  0
 26 52  1  0  0  0
 26 53  1  0  0  0
 27 28  1  0  0  0
 28 33  2  0  0  0
 28 29  1  0  0  0
 29 30  2  0  0  0
 30 31  1  0  0  0
 30 54  1  0  0  0
 31 32  2  0  0  0
 31 55  1  0  0  0
 32 33  1  0  0  0
 32 56  1  0  0  0
M  CHG  1   5   1
M  END
> <i_i_glide_confnum>
164

> <i_i_glide_lignum>
809

> <i_i_glide_posenum>
256

> <i_i_glide_rotatable_bonds>
8

> <i_m_Source_File_Index>
5681

> <b_m_subgroup_collapsed>
0

> <r_i_docking_score>
-7.33141

> <r_i_glide_ecoul>
-7.75022

> <r_i_glide_eff_state_penalty>
0

> <r_i_glide_einternal>
6.77134

> <r_i_glide_emodel>
-78.828

> <r_i_glide_energy>
-54.285

> <r_i_glide_erotb>
0.669583

> <r_i_glide_esite>
-0.104569

> <r_i_glide_evdw>
-46.5348

> <r_i_glide_gscore>
-7.33141

> <r_i_glide_hbond>
-0.240845

> <r_i_glide_ligand_efficiency>
-0.222164

> <r_i_glide_ligand_efficiency_ln>
-1.63047

> <r_i_glide_ligand_efficiency_sa>
-0.712599

> <r_i_glide_lipo>
-2.99467

> <r_i_glide_metal>
0

> <r_i_glide_rewards>
-1.17164

> <s_i_glide_gridfile>
wee1_glide-grid

> <s_m_Source_File>
wee1_decoys_glide_SP.sdf

> <s_m_Source_Path>
/Users/zhangxujun/Desktop

> <s_m_entry_id>
5956

> <s_m_entry_name>
wee1_decoys_glide_SP.5681

> <s_m_subgroup_title>
wee1_decoys_glide_SP

> <s_m_subgroupid>
wee1_decoys_glide_SP


$$$$
