ZINC39510498_1738
                    3D
 Schrodinger Suite 2024-2.
 40 42  0  0  1  0            999 V2000
    0.6153   50.8774   24.2441 C   0  0  0  0  0  0
   -0.3888   49.9179   24.1688 C   0  0  0  0  0  0
   -1.3170   49.8097   25.2000 C   0  0  0  0  0  0
   -1.2381   50.6484   26.3122 C   0  0  0  0  0  0
   -0.2014   51.5967   26.4288 C   0  0  0  0  0  0
    0.7037   51.7116   25.3581 C   0  0  0  0  0  0
   -0.0942   52.4967   27.6819 C   0  0  1  0  0  0
   -0.9964   53.1073   27.6803 H   0  0  0  0  0  0
   -0.1273   51.7768   29.0404 C   0  0  0  0  0  0
    0.5003   52.7369   30.0406 C   0  0  0  0  0  0
    1.6910   53.3605   29.2732 C   0  0  2  0  0  0
    1.1044   53.4756   27.8256 C   0  0  0  0  0  0
    2.9537   52.4013   29.2958 C   0  0  1  0  0  0
    2.7176   51.4690   28.7808 H   0  0  0  0  0  0
    4.2158   53.0007   28.6323 C   0  0  0  0  0  0
    4.4504   54.4504   29.0845 C   0  0  0  0  0  0
    3.1688   55.2967   29.0520 C   0  0  0  0  0  0
    2.0936   54.6752   29.8202 N   0  0  0  0  0  0
    1.1045   55.5961   30.0778 O   0  0  0  0  0  0
    3.2951   52.0250   30.6224 O   0  0  0  0  0  0
   -2.1942   50.4967   27.2811 O   0  0  0  0  0  0
    1.3299   50.9732   23.4397 H   0  0  0  0  0  0
   -0.4531   49.2660   23.3103 H   0  0  0  0  0  0
   -2.1036   49.0723   25.1360 H   0  0  0  0  0  0
    1.4967   52.4390   25.3494 H   0  0  0  0  0  0
   -1.1122   51.4156   29.3367 H   0  0  0  0  0  0
    0.5000   50.8949   28.9759 H   0  0  0  0  0  0
    0.7811   52.2430   30.9714 H   0  0  0  0  0  0
   -0.2486   53.4829   30.3092 H   0  0  0  0  0  0
    0.7289   54.4899   27.6827 H   0  0  0  0  0  0
    1.9160   53.3147   27.1264 H   0  0  0  0  0  0
    4.0655   53.0494   27.5537 H   0  0  0  0  0  0
    5.1056   52.3941   28.8137 H   0  0  0  0  0  0
    5.2004   54.9088   28.4384 H   0  0  0  0  0  0
    4.8833   54.4968   30.0817 H   0  0  0  0  0  0
    2.8481   55.4757   28.0252 H   0  0  0  0  0  0
    3.3785   56.2740   29.4842 H   0  0  0  0  0  0
    1.1088   55.6192   31.0389 H   0  0  0  0  0  0
    3.9828   52.6191   30.9310 H   0  0  0  0  0  0
   -2.0928   49.6111   27.6974 H   0  0  0  0  0  0
  1  6  2  0  0  0
  1  2  1  0  0  0
  1 22  1  0  0  0
  2  3  2  0  0  0
  2 23  1  0  0  0
  3  4  1  0  0  0
  3 24  1  0  0  0
  4  5  2  0  0  0
  4 21  1  0  0  0
  5  6  1  0  0  0
  5  7  1  0  0  0
  6 25  1  0  0  0
  7  8  1  0  0  0
  7 12  1  0  0  0
  7  9  1  0  0  0
  9 10  1  0  0  0
  9 26  1  0  0  0
  9 27  1  0  0  0
 10 11  1  0  0  0
 10 28  1  0  0  0
 10 29  1  0  0  0
 11 18  1  0  0  0
 11 12  1  0  0  0
 11 13  1  0  0  0
 12 30  1  0  0  0
 12 31  1  0  0  0
 13 14  1  0  0  0
 13 15  1  0  0  0
 13 20  1  0  0  0
 15 16  1  0  0  0
 15 32  1  0  0  0
 15 33  1  0  0  0
 16 17  1  0  0  0
 16 34  1  0  0  0
 16 35  1  0  0  0
 17 18  1  0  0  0
 17 36  1  0  0  0
 17 37  1  0  0  0
 18 19  1  0  0  0
 19 38  1  0  0  0
 20 39  1  0  0  0
 21 40  1  0  0  0
M  END
> <i_i_glide_confnum>
16

> <i_i_glide_lignum>
1739

> <i_i_glide_posenum>
57

> <i_i_glide_rotatable_bonds>
4

> <i_m_Source_File_Index>
2987

> <b_m_subgroup_collapsed>
0

> <r_i_docking_score>
-6.30337

> <r_i_glide_ecoul>
-10.1724

> <r_i_glide_eff_state_penalty>
0

> <r_i_glide_einternal>
9.2983

> <r_i_glide_emodel>
-47.3353

> <r_i_glide_energy>
-36.9331

> <r_i_glide_erotb>
0.25607

> <r_i_glide_esite>
0

> <r_i_glide_evdw>
-26.7607

> <r_i_glide_gscore>
-6.30337

> <r_i_glide_hbond>
-0.456

> <r_i_glide_ligand_efficiency>
-0.331756

> <r_i_glide_ligand_efficiency_ln>
-1.59804

> <r_i_glide_ligand_efficiency_sa>
-0.885258

> <r_i_glide_lipo>
-1.54094

> <r_i_glide_metal>
0

> <r_i_glide_rewards>
-1.6986

> <s_i_glide_gridfile>
wee1_glide-grid

> <s_m_Source_File>
wee1_decoys_glide_SP.sdf

> <s_m_Source_Path>
/Users/zhangxujun/Desktop

> <s_m_entry_id>
3262

> <s_m_entry_name>
wee1_decoys_glide_SP.2987

> <s_m_subgroup_title>
wee1_decoys_glide_SP

> <s_m_subgroupid>
wee1_decoys_glide_SP


$$$$
