ZINC33628107_3127
                    3D
 Schrodinger Suite 2024-2.
 64 67  0  0  1  0            999 V2000
   -0.2910   50.2296   16.0187 C   0  0  0  0  0  0
    1.0331   49.8431   16.7048 C   0  0  1  0  0  0
    1.4782   50.7779   17.0483 H   0  0  0  0  0  0
    0.9456   48.8728   17.9444 C   0  0  2  0  0  0
    0.0855   49.4648   19.0972 C   0  0  2  0  0  0
    0.2663   50.5461   19.0808 H   0  0  0  0  0  0
    0.5915   48.7991   20.3063 C   0  0  1  0  0  0
    0.5249   47.7060   20.2886 H   0  0  0  0  0  0
    2.0807   49.1650   20.2448 C   0  0  1  0  0  0
    2.7022   48.4735   20.8163 H   0  0  0  0  0  0
    2.3007   48.8018   18.7403 N   0  3  0  0  0  0
    2.4959   50.6155   20.5790 C   0  0  0  0  0  0
    3.0773   51.4706   19.6296 C   0  0  0  0  0  0
    3.3616   52.7973   19.9389 C   0  0  0  0  0  0
    3.0483   53.2964   21.1979 C   0  0  0  0  0  0
    2.4986   52.4613   22.1732 C   0  0  0  0  0  0
    2.2590   51.1215   21.8646 C   0  0  0  0  0  0
    2.1077   52.9360   23.4070 O   0  0  0  0  0  0
    2.9917   53.5274   24.2874 C   0  0  0  0  0  0
    2.5655   53.6959   25.6063 C   0  0  0  0  0  0
    3.4234   54.2307   26.5689 C   0  0  0  0  0  0
    4.7197   54.6069   26.2176 C   0  0  0  0  0  0
    5.1618   54.4518   24.8987 C   0  0  0  0  0  0
    4.2950   53.9181   23.9499 C   0  0  0  0  0  0
    6.5789   54.8089   24.4755 C   0  0  0  0  0  0
    7.3093   53.6980   24.4863 F   0  0  0  0  0  0
    6.6183   55.3101   23.2400 F   0  0  0  0  0  0
    7.1039   55.6991   25.3122 F   0  0  0  0  0  0
   -0.4227   49.2290   21.3436 C   0  0  0  0  0  0
   -0.2192   49.2386   22.5561 O   0  0  0  0  0  0
   -1.6004   49.4283   20.6575 N   0  0  0  0  0  0
   -1.4181   49.3752   19.2924 C   0  0  0  0  0  0
   -2.2500   49.3846   18.3871 O   0  0  0  0  0  0
   -2.9127   49.6475   21.3729 C   0  0  0  0  0  0
   -3.2697   48.4118   22.2433 C   0  0  0  0  0  0
   -4.1414   49.8832   20.4451 C   0  0  0  0  0  0
   -2.8378   50.9073   22.2815 C   0  0  0  0  0  0
    0.6383   47.3906   17.4930 C   0  0  0  0  0  0
    1.5013   46.4951   17.6736 O   0  0  0  0  0  0
   -0.4887   47.1510   17.0113 O   0  5  0  0  0  0
    1.9038   49.3854   15.6847 O   0  0  0  0  0  0
   -0.9370   50.7926   16.6899 H   0  0  0  0  0  0
   -0.1128   50.8668   15.1516 H   0  0  0  0  0  0
   -0.8450   49.3596   15.6681 H   0  0  0  0  0  0
    2.6045   47.8374   18.6554 H   0  0  0  0  0  0
    3.3046   51.1401   18.6282 H   0  0  0  0  0  0
    3.7827   53.4499   19.1884 H   0  0  0  0  0  0
    3.1918   54.3471   21.4027 H   0  0  0  0  0  0
    1.8488   50.4889   22.6357 H   0  0  0  0  0  0
    1.5680   53.3916   25.8876 H   0  0  0  0  0  0
    3.0847   54.3470   27.5881 H   0  0  0  0  0  0
    5.3784   55.0052   26.9766 H   0  0  0  0  0  0
    4.6870   53.7695   22.9591 H   0  0  0  0  0  0
   -4.2424   48.5222   22.7249 H   0  0  0  0  0  0
   -2.5495   48.2432   23.0442 H   0  0  0  0  0  0
   -3.3067   47.5018   21.6428 H   0  0  0  0  0  0
   -4.0018   50.7490   19.7961 H   0  0  0  0  0  0
   -4.3444   49.0192   19.8102 H   0  0  0  0  0  0
   -5.0538   50.0651   21.0153 H   0  0  0  0  0  0
   -2.5455   51.7909   21.7131 H   0  0  0  0  0  0
   -3.7963   51.1258   22.7543 H   0  0  0  0  0  0
   -2.1218   50.7971   23.0955 H   0  0  0  0  0  0
    2.8221   49.2965   16.0379 H   0  0  0  0  0  0
    3.0439   49.3269   18.2907 H   0  0  0  0  0  0
  1  2  1  0  0  0
  1 42  1  0  0  0
  1 43  1  0  0  0
  1 44  1  0  0  0
  2  3  1  0  0  0
  2  4  1  0  0  0
  2 41  1  0  0  0
  4 11  1  0  0  0
  4  5  1  0  0  0
  4 38  1  0  0  0
  5  6  1  0  0  0
  5 32  1  0  0  0
  5  7  1  0  0  0
  7  8  1  0  0  0
  7  9  1  0  0  0
  7 29  1  0  0  0
  9 10  1  0  0  0
  9 11  1  0  0  0
  9 12  1  0  0  0
 11 45  1  0  0  0
 11 64  1  0  0  0
 12 17  2  0  0  0
 12 13  1  0  0  0
 13 14  2  0  0  0
 13 46  1  0  0  0
 14 15  1  0  0  0
 14 47  1  0  0  0
 15 16  2  0  0  0
 15 48  1  0  0  0
 16 17  1  0  0  0
 16 18  1  0  0  0
 17 49  1  0  0  0
 18 19  1  0  0  0
 19 24  2  0  0  0
 19 20  1  0  0  0
 20 21  2  0  0  0
 20 50  1  0  0  0
 21 22  1  0  0  0
 21 51  1  0  0  0
 22 23  2  0  0  0
 22 52  1  0  0  0
 23 24  1  0  0  0
 23 25  1  0  0  0
 24 53  1  0  0  0
 25 26  1  0  0  0
 25 27  1  0  0  0
 25 28  1  0  0  0
 29 30  2  0  0  0
 29 31  1  0  0  0
 31 32  1  0  0  0
 31 34  1  0  0  0
 32 33  2  0  0  0
 34 35  1  0  0  0
 34 36  1  0  0  0
 34 37  1  0  0  0
 35 54  1  0  0  0
 35 55  1  0  0  0
 35 56  1  0  0  0
 36 57  1  0  0  0
 36 58  1  0  0  0
 36 59  1  0  0  0
 37 60  1  0  0  0
 37 61  1  0  0  0
 37 62  1  0  0  0
 38 39  2  0  0  0
 38 40  1  0  0  0
 41 63  1  0  0  0
M  CHG  2  11   1  40  -1
M  END
> <i_i_glide_confnum>
6

> <i_i_glide_lignum>
3128

> <i_i_glide_posenum>
245

> <i_i_glide_rotatable_bonds>
8

> <i_m_Source_File_Index>
5160

> <b_m_subgroup_collapsed>
0

> <r_i_docking_score>
-5.24725

> <r_i_glide_ecoul>
-10.6078

> <r_i_glide_eff_state_penalty>
0

> <r_i_glide_einternal>
5.37011

> <r_i_glide_emodel>
-48.1439

> <r_i_glide_energy>
-34.8639

> <r_i_glide_erotb>
0.303436

> <r_i_glide_esite>
-0.129144

> <r_i_glide_evdw>
-24.2561

> <r_i_glide_gscore>
-5.24725

> <r_i_glide_hbond>
-0.292302

> <r_i_glide_ligand_efficiency>
-0.141818

> <r_i_glide_ligand_efficiency_ln>
-1.13801

> <r_i_glide_ligand_efficiency_sa>
-0.472568

> <r_i_glide_lipo>
-1.95334

> <r_i_glide_metal>
0

> <r_i_glide_rewards>
-0.371924

> <s_i_glide_gridfile>
wee1_glide-grid

> <s_m_Source_File>
wee1_decoys_glide_SP.sdf

> <s_m_Source_Path>
/Users/zhangxujun/Desktop

> <s_m_entry_id>
5435

> <s_m_entry_name>
wee1_decoys_glide_SP.5160

> <s_m_subgroup_title>
wee1_decoys_glide_SP

> <s_m_subgroupid>
wee1_decoys_glide_SP


$$$$
