ZINC08311915_1372
                    3D
 Schrodinger Suite 2024-2.
 37 40  0  0  1  0            999 V2000
    1.9664   52.3270   23.5205 C   0  0  0  0  0  0
    2.9720   52.9440   22.5743 C   0  0  0  0  0  0
    4.1203   53.7197   22.7168 C   0  0  0  0  0  0
    4.5160   53.9742   21.3768 C   0  0  0  0  0  0
    3.7394   53.3234   20.5314 N   0  0  0  0  0  0
    2.7618   52.6755   21.2698 O   0  0  0  0  0  0
    5.6401   54.7967   20.7942 C   0  0  0  0  0  0
    6.8464   54.9986   21.4732 C   0  0  0  0  0  0
    7.8937   55.6967   20.8816 C   0  0  0  0  0  0
    7.7368   56.2251   19.6048 C   0  0  0  0  0  0
    6.5413   56.0554   18.9154 C   0  0  0  0  0  0
    5.5045   55.3376   19.5042 C   0  0  0  0  0  0
    4.6582   54.1397   24.0226 C   0  0  0  0  0  0
    5.6887   54.8963   24.3114 N   0  0  0  0  0  0
    5.7840   54.9552   25.6972 N   0  0  0  0  0  0
    4.7849   54.2382   26.1383 C   0  0  0  0  0  0
    4.0440   53.6967   25.1438 O   0  0  0  0  0  0
    4.4377   53.8765   27.5552 C   0  0  0  0  0  0
    2.6630   54.0975   27.8864 S   0  0  0  0  0  0
    2.5132   53.1761   29.3762 C   0  0  0  0  0  0
    3.5057   52.7031   30.0958 N   0  0  0  0  0  0
    3.0853   52.0975   31.2703 N   0  0  0  0  0  0
    1.7838   52.1194   31.3873 C   0  0  0  0  0  0
    0.9476   52.8493   30.0580 S   0  0  0  0  0  0
    1.1052   51.6998   32.4819 N   0  0  0  0  0  0
    2.2882   51.3404   23.8518 H   0  0  0  0  0  0
    1.8023   52.9345   24.4096 H   0  0  0  0  0  0
    0.9931   52.2041   23.0456 H   0  0  0  0  0  0
    7.0478   54.5257   22.4167 H   0  0  0  0  0  0
    8.8326   55.8101   21.4044 H   0  0  0  0  0  0
    8.5531   56.7619   19.1430 H   0  0  0  0  0  0
    6.4228   56.4646   17.9225 H   0  0  0  0  0  0
    4.5888   55.2045   18.9450 H   0  0  0  0  0  0
    5.0018   54.4823   28.2653 H   0  0  0  0  0  0
    4.7153   52.8363   27.7271 H   0  0  0  0  0  0
    1.5912   51.5978   33.3693 H   0  0  0  0  0  0
    0.0806   51.7015   32.5405 H   0  0  0  0  0  0
  1  2  1  0  0  0
  1 26  1  0  0  0
  1 27  1  0  0  0
  1 28  1  0  0  0
  2  6  1  0  0  0
  2  3  2  0  0  0
  3  4  1  0  0  0
  3 13  1  0  0  0
  4  5  2  0  0  0
  4  7  1  0  0  0
  5  6  1  0  0  0
  7 12  2  0  0  0
  7  8  1  0  0  0
  8  9  2  0  0  0
  8 29  1  0  0  0
  9 10  1  0  0  0
  9 30  1  0  0  0
 10 11  2  0  0  0
 10 31  1  0  0  0
 11 12  1  0  0  0
 11 32  1  0  0  0
 12 33  1  0  0  0
 13 17  1  0  0  0
 13 14  2  0  0  0
 14 15  1  0  0  0
 15 16  2  0  0  0
 16 17  1  0  0  0
 16 18  1  0  0  0
 18 19  1  0  0  0
 18 34  1  0  0  0
 18 35  1  0  0  0
 19 20  1  0  0  0
 20 24  1  0  0  0
 20 21  2  0  0  0
 21 22  1  0  0  0
 22 23  2  0  0  0
 23 24  1  0  0  0
 23 25  1  0  0  0
 25 36  1  0  0  0
 25 37  1  0  0  0
M  END
> <i_i_glide_confnum>
9

> <i_i_glide_lignum>
1373

> <i_i_glide_posenum>
294

> <i_i_glide_rotatable_bonds>
5

> <i_m_Source_File_Index>
3636

> <b_m_subgroup_collapsed>
0

> <r_i_docking_score>
-6.41755

> <r_i_glide_ecoul>
-10.0589

> <r_i_glide_eff_state_penalty>
0

> <r_i_glide_einternal>
1.85696

> <r_i_glide_emodel>
-63.6954

> <r_i_glide_energy>
-45.9037

> <r_i_glide_erotb>
0.696243

> <r_i_glide_esite>
-0.110314

> <r_i_glide_evdw>
-35.8448

> <r_i_glide_gscore>
-6.41755

> <r_i_glide_hbond>
-0.443919

> <r_i_glide_ligand_efficiency>
-0.256702

> <r_i_glide_ligand_efficiency_ln>
-1.52115

> <r_i_glide_ligand_efficiency_sa>
-0.750601

> <r_i_glide_lipo>
-2.38866

> <r_i_glide_metal>
0

> <r_i_glide_rewards>
-0.869817

> <s_i_glide_gridfile>
wee1_glide-grid

> <s_m_Source_File>
wee1_decoys_glide_SP.sdf

> <s_m_Source_Path>
/Users/zhangxujun/Desktop

> <s_m_entry_id>
3911

> <s_m_entry_name>
wee1_decoys_glide_SP.3636

> <s_m_subgroup_title>
wee1_decoys_glide_SP

> <s_m_subgroupid>
wee1_decoys_glide_SP


$$$$
