ZINC22826119_3972
                    3D
 Schrodinger Suite 2024-2.
 66 69  0  0  1  0            999 V2000
   -0.0957   52.6057   31.1039 C   0  0  0  0  0  0
    1.1405   53.0713   30.3694 C   0  0  0  0  0  0
    2.3756   52.4967   30.6584 C   0  0  0  0  0  0
    3.5030   52.8940   29.9509 C   0  0  0  0  0  0
    3.4035   53.8733   28.9547 C   0  0  0  0  0  0
    2.1685   54.4883   28.7109 C   0  0  0  0  0  0
    1.0350   54.0658   29.3994 C   0  0  0  0  0  0
    4.6524   54.2598   28.1994 C   0  0  0  0  0  0
    5.6535   54.4964   28.8765 O   0  0  0  0  0  0
    4.6609   54.2804   26.8324 N   0  0  0  0  0  0
    5.9805   54.4706   26.1944 C   0  0  0  0  0  0
    5.8556   54.9410   24.7298 C   0  0  0  0  0  0
    4.8440   54.2491   23.9204 N   0  0  0  0  0  0
    3.5535   54.1952   24.6182 C   0  0  0  0  0  0
    3.5922   53.6282   26.0521 C   0  0  0  0  0  0
    4.9349   54.0960   22.5360 C   0  0  0  0  0  0
    4.1905   53.0948   21.8969 C   0  0  0  0  0  0
    4.3153   52.8694   20.5308 C   0  0  0  0  0  0
    5.1726   53.6636   19.7754 C   0  0  0  0  0  0
    5.9038   54.6868   20.3846 C   0  0  0  0  0  0
    5.7914   54.8907   21.7574 C   0  0  0  0  0  0
    5.3646   53.2966   18.4372 N   0  0  0  0  0  0
    5.4002   54.0157   17.2777 C   0  0  0  0  0  0
    5.0762   55.6675   17.1868 S   0  0  0  0  0  0
    5.7407   53.1818   16.2436 N   0  0  0  0  0  0
    5.8038   53.3491   14.9015 C   0  0  0  0  0  0
    5.3490   54.3044   14.2695 O   0  0  0  0  0  0
    6.4191   52.1895   14.1586 C   0  0  0  0  0  0
    5.6918   51.6101   13.1114 C   0  0  0  0  0  0
    6.2245   50.5604   12.3703 C   0  0  0  0  0  0
    7.5035   50.0920   12.6507 C   0  0  0  0  0  0
    8.2553   50.6561   13.6828 C   0  0  0  0  0  0
    7.7080   51.6965   14.4623 C   0  0  0  0  0  0
    8.4485   52.2803   15.4685 O   0  0  0  0  0  0
    8.5746   51.5179   16.6662 C   0  0  0  0  0  0
    9.6730   50.1447   13.9010 C   0  0  0  0  0  0
   -0.8948   52.3754   30.3984 H   0  0  0  0  0  0
    0.0923   51.7007   31.6817 H   0  0  0  0  0  0
   -0.4594   53.3820   31.7767 H   0  0  0  0  0  0
    2.4603   51.7430   31.4280 H   0  0  0  0  0  0
    4.4534   52.4280   30.1717 H   0  0  0  0  0  0
    2.0769   55.2755   27.9758 H   0  0  0  0  0  0
    0.0720   54.4980   29.1779 H   0  0  0  0  0  0
    6.4711   53.4969   26.1421 H   0  0  0  0  0  0
    6.6015   55.2040   26.7130 H   0  0  0  0  0  0
    6.8346   54.8876   24.2518 H   0  0  0  0  0  0
    5.5533   55.9886   24.7463 H   0  0  0  0  0  0
    3.2234   55.2332   24.6772 H   0  0  0  0  0  0
    2.7881   53.6815   24.0381 H   0  0  0  0  0  0
    2.5895   53.7966   26.4321 H   0  0  0  0  0  0
    3.7968   52.5633   25.9604 H   0  0  0  0  0  0
    3.5353   52.4486   22.4598 H   0  0  0  0  0  0
    3.7636   52.0625   20.0680 H   0  0  0  0  0  0
    6.5944   55.2883   19.8117 H   0  0  0  0  0  0
    6.3842   55.6706   22.2101 H   0  0  0  0  0  0
    5.3848   52.2894   18.3143 H   0  0  0  0  0  0
    6.0868   52.2818   16.5400 H   0  0  0  0  0  0
    4.7034   51.9729   12.8648 H   0  0  0  0  0  0
    5.6502   50.1209   11.5683 H   0  0  0  0  0  0
    7.9171   49.2937   12.0543 H   0  0  0  0  0  0
    9.1421   52.0935   17.3972 H   0  0  0  0  0  0
    7.6025   51.2973   17.1069 H   0  0  0  0  0  0
    9.1034   50.5773   16.5140 H   0  0  0  0  0  0
   10.3127   50.9072   14.3464 H   0  0  0  0  0  0
    9.6688   49.2592   14.5373 H   0  0  0  0  0  0
   10.1399   49.8766   12.9515 H   0  0  0  0  0  0
  1  2  1  0  0  0
  1 37  1  0  0  0
  1 38  1  0  0  0
  1 39  1  0  0  0
  2  7  2  0  0  0
  2  3  1  0  0  0
  3  4  2  0  0  0
  3 40  1  0  0  0
  4  5  1  0  0  0
  4 41  1  0  0  0
  5  6  2  0  0  0
  5  8  1  0  0  0
  6  7  1  0  0  0
  6 42  1  0  0  0
  7 43  1  0  0  0
  8  9  2  0  0  0
  8 10  1  0  0  0
 10 15  1  0  0  0
 10 11  1  0  0  0
 11 12  1  0  0  0
 11 44  1  0  0  0
 11 45  1  0  0  0
 12 13  1  0  0  0
 12 46  1  0  0  0
 12 47  1  0  0  0
 13 14  1  0  0  0
 13 16  1  0  0  0
 14 15  1  0  0  0
 14 48  1  0  0  0
 14 49  1  0  0  0
 15 50  1  0  0  0
 15 51  1  0  0  0
 16 21  2  0  0  0
 16 17  1  0  0  0
 17 18  2  0  0  0
 17 52  1  0  0  0
 18 19  1  0  0  0
 18 53  1  0  0  0
 19 20  2  0  0  0
 19 22  1  0  0  0
 20 21  1  0  0  0
 20 54  1  0  0  0
 21 55  1  0  0  0
 22 23  1  0  0  0
 22 56  1  0  0  0
 23 24  2  0  0  0
 23 25  1  0  0  0
 25 26  1  0  0  0
 25 57  1  0  0  0
 26 27  2  0  0  0
 26 28  1  0  0  0
 28 33  2  0  0  0
 28 29  1  0  0  0
 29 30  2  0  0  0
 29 58  1  0  0  0
 30 31  1  0  0  0
 30 59  1  0  0  0
 31 32  2  0  0  0
 31 60  1  0  0  0
 32 33  1  0  0  0
 32 36  1  0  0  0
 33 34  1  0  0  0
 34 35  1  0  0  0
 35 61  1  0  0  0
 35 62  1  0  0  0
 35 63  1  0  0  0
 36 64  1  0  0  0
 36 65  1  0  0  0
 36 66  1  0  0  0
M  END
> <i_i_glide_confnum>
582

> <i_i_glide_lignum>
3973

> <i_i_glide_posenum>
3

> <i_i_glide_rotatable_bonds>
9

> <i_m_Source_File_Index>
2481

> <b_m_subgroup_collapsed>
0

> <r_i_docking_score>
-5.80819

> <r_i_glide_ecoul>
-1.35582

> <r_i_glide_eff_state_penalty>
0

> <r_i_glide_einternal>
11.931

> <r_i_glide_emodel>
-58.0038

> <r_i_glide_energy>
-47.6469

> <r_i_glide_erotb>
0.647081

> <r_i_glide_esite>
-0.145727

> <r_i_glide_evdw>
-46.291

> <r_i_glide_gscore>
-5.80819

> <r_i_glide_hbond>
-0.16

> <r_i_glide_ligand_efficiency>
-0.161339

> <r_i_glide_ligand_efficiency_ln>
-1.26719

> <r_i_glide_ligand_efficiency_sa>
-0.532729

> <r_i_glide_lipo>
-2.89038

> <r_i_glide_metal>
0

> <r_i_glide_rewards>
-0.741246

> <s_i_glide_gridfile>
wee1_glide-grid

> <s_m_Source_File>
wee1_decoys_glide_SP.sdf

> <s_m_Source_Path>
/Users/zhangxujun/Desktop

> <s_m_entry_id>
2756

> <s_m_entry_name>
wee1_decoys_glide_SP.2481

> <s_m_subgroup_title>
wee1_decoys_glide_SP

> <s_m_subgroupid>
wee1_decoys_glide_SP


$$$$
