ZINC63730260_5521
                    3D
 Schrodinger Suite 2024-2.
 66 70  0  0  1  0            999 V2000
    1.7348   58.2655   15.6773 C   0  0  0  0  0  0
    1.1988   56.9260   16.1509 C   0  0  0  0  0  0
    1.8118   55.9470   16.8299 C   0  0  0  0  0  0
    3.2003   55.7803   17.2356 C   0  0  0  0  0  0
    3.7399   54.5385   17.3419 C   0  0  0  0  0  0
    2.8874   53.3931   16.9938 C   0  0  0  0  0  0
    1.5530   53.5120   16.7981 C   0  0  0  0  0  0
    0.8294   54.8394   17.0483 C   0  0  2  0  0  0
    0.4803   54.8198   18.0816 H   0  0  0  0  0  0
   -0.2989   55.1873   16.2583 N   0  0  0  0  0  0
   -0.1033   56.3738   15.8226 C   0  0  0  0  0  0
   -1.1209   57.1405   15.0049 C   0  0  0  0  0  0
    5.1903   54.3050   17.7818 C   0  0  2  0  0  0
    5.7862   54.0054   16.9185 H   0  0  0  0  0  0
    5.3402   53.3010   18.8230 N   0  0  0  0  0  0
    5.5045   53.8954   20.0722 N   0  0  0  0  0  0
    5.8624   55.0806   19.8411 C   0  0  0  0  0  0
    5.8181   55.4100   18.5023 N   0  0  0  0  0  0
    6.7441   56.3198   17.8198 C   0  0  0  0  0  0
    8.1887   55.8297   17.6559 C   0  0  0  0  0  0
    9.1540   56.7730   17.2911 C   0  0  0  0  0  0
   10.4770   56.3881   17.0931 C   0  0  0  0  0  0
   10.8364   55.0510   17.2435 C   0  0  0  0  0  0
    9.8835   54.0972   17.5875 C   0  0  0  0  0  0
    8.5631   54.4854   17.7957 C   0  0  0  0  0  0
    6.3045   56.3467   21.0547 S   0  0  0  0  0  0
    7.1989   55.3662   22.3090 C   0  0  0  0  0  0
    6.3062   54.6851   23.3546 C   0  0  0  0  0  0
    5.6642   53.6866   23.0357 O   0  0  0  0  0  0
    6.3184   55.2027   24.6027 N   0  0  0  0  0  0
    5.5690   54.7533   25.7055 C   0  0  0  0  0  0
    6.1330   54.8920   26.9736 C   0  0  0  0  0  0
    5.4450   54.4471   28.0996 C   0  0  0  0  0  0
    4.1750   53.8671   27.9765 C   0  0  0  0  0  0
    3.5980   53.7601   26.7036 C   0  0  0  0  0  0
    4.2856   54.2029   25.5788 C   0  0  0  0  0  0
    3.4631   53.3767   29.2022 C   0  0  0  0  0  0
    3.9020   53.5063   30.3446 O   0  0  0  0  0  0
    2.1307   52.6477   29.0266 C   0  0  0  0  0  0
    1.1367   59.0820   16.0813 H   0  0  0  0  0  0
    2.7669   58.4136   16.0006 H   0  0  0  0  0  0
    1.7099   58.3283   14.5889 H   0  0  0  0  0  0
    3.8181   56.6432   17.4343 H   0  0  0  0  0  0
    3.3491   52.4277   16.8278 H   0  0  0  0  0  0
    0.9834   52.6418   16.5059 H   0  0  0  0  0  0
   -1.3778   58.0811   15.4939 H   0  0  0  0  0  0
   -0.7257   57.3700   14.0146 H   0  0  0  0  0  0
   -2.0434   56.5719   14.8699 H   0  0  0  0  0  0
    4.7044   52.5146   18.8651 H   0  0  0  0  0  0
    6.3509   56.5222   16.8224 H   0  0  0  0  0  0
    6.7468   57.2822   18.3352 H   0  0  0  0  0  0
    8.8813   57.8111   17.1613 H   0  0  0  0  0  0
   11.2224   57.1211   16.8222 H   0  0  0  0  0  0
   11.8641   54.7513   17.0939 H   0  0  0  0  0  0
   10.1668   53.0596   17.6935 H   0  0  0  0  0  0
    7.8475   53.7254   18.0624 H   0  0  0  0  0  0
    7.9035   56.0429   22.7940 H   0  0  0  0  0  0
    7.8045   54.6062   21.8204 H   0  0  0  0  0  0
    7.0039   55.9151   24.7921 H   0  0  0  0  0  0
    7.1102   55.3254   27.1052 H   0  0  0  0  0  0
    5.9138   54.5597   29.0675 H   0  0  0  0  0  0
    2.6176   53.3293   26.5582 H   0  0  0  0  0  0
    3.8101   54.1107   24.6134 H   0  0  0  0  0  0
    2.2559   51.7851   28.3712 H   0  0  0  0  0  0
    1.3946   53.3093   28.5718 H   0  0  0  0  0  0
    1.7457   52.3006   29.9854 H   0  0  0  0  0  0
  1  2  1  0  0  0
  1 40  1  0  0  0
  1 41  1  0  0  0
  1 42  1  0  0  0
  2 11  1  0  0  0
  2  3  2  0  0  0
  3  8  1  0  0  0
  3  4  1  0  0  0
  4  5  2  0  0  0
  4 43  1  0  0  0
  5  6  1  0  0  0
  5 13  1  0  0  0
  6  7  2  0  0  0
  6 44  1  0  0  0
  7  8  1  0  0  0
  7 45  1  0  0  0
  8  9  1  0  0  0
  8 10  1  0  0  0
 10 11  2  0  0  0
 11 12  1  0  0  0
 12 46  1  0  0  0
 12 47  1  0  0  0
 12 48  1  0  0  0
 13 14  1  0  0  0
 13 18  1  0  0  0
 13 15  1  0  0  0
 15 16  1  0  0  0
 15 49  1  0  0  0
 16 17  2  0  0  0
 17 18  1  0  0  0
 17 26  1  0  0  0
 18 19  1  0  0  0
 19 20  1  0  0  0
 19 50  1  0  0  0
 19 51  1  0  0  0
 20 25  2  0  0  0
 20 21  1  0  0  0
 21 22  2  0  0  0
 21 52  1  0  0  0
 22 23  1  0  0  0
 22 53  1  0  0  0
 23 24  2  0  0  0
 23 54  1  0  0  0
 24 25  1  0  0  0
 24 55  1  0  0  0
 25 56  1  0  0  0
 26 27  1  0  0  0
 27 28  1  0  0  0
 27 57  1  0  0  0
 27 58  1  0  0  0
 28 29  2  0  0  0
 28 30  1  0  0  0
 30 31  1  0  0  0
 30 59  1  0  0  0
 31 36  2  0  0  0
 31 32  1  0  0  0
 32 33  2  0  0  0
 32 60  1  0  0  0
 33 34  1  0  0  0
 33 61  1  0  0  0
 34 35  2  0  0  0
 34 37  1  0  0  0
 35 36  1  0  0  0
 35 62  1  0  0  0
 36 63  1  0  0  0
 37 38  2  0  0  0
 37 39  1  0  0  0
 39 64  1  0  0  0
 39 65  1  0  0  0
 39 66  1  0  0  0
M  END
> <i_i_glide_confnum>
99

> <i_i_glide_lignum>
5522

> <i_i_glide_posenum>
372

> <i_i_glide_rotatable_bonds>
9

> <i_m_Source_File_Index>
1051

> <b_m_subgroup_collapsed>
0

> <r_i_docking_score>
-6.0839

> <r_i_glide_ecoul>
-5.16935

> <r_i_glide_eff_state_penalty>
0

> <r_i_glide_einternal>
8.36813

> <r_i_glide_emodel>
-69.7519

> <r_i_glide_energy>
-52.1797

> <r_i_glide_erotb>
0.626322

> <r_i_glide_esite>
-0.0904586

> <r_i_glide_evdw>
-47.0104

> <r_i_glide_gscore>
-6.0839

> <r_i_glide_hbond>
-0.330405

> <r_i_glide_ligand_efficiency>
-0.16443

> <r_i_glide_ligand_efficiency_ln>
-1.31946

> <r_i_glide_ligand_efficiency_sa>
-0.547916

> <r_i_glide_lipo>
-2.30846

> <r_i_glide_metal>
0

> <r_i_glide_rewards>
-0.85498

> <s_i_glide_gridfile>
wee1_glide-grid

> <s_m_Source_File>
wee1_decoys_glide_SP.sdf

> <s_m_Source_Path>
/Users/zhangxujun/Desktop

> <s_m_entry_id>
1326

> <s_m_entry_name>
wee1_decoys_glide_SP.1051

> <s_m_subgroup_title>
wee1_decoys_glide_SP

> <s_m_subgroupid>
wee1_decoys_glide_SP


$$$$
