ZINC35147460_5685
                    3D
 Schrodinger Suite 2024-2.
 72 76  0  0  1  0            999 V2000
    3.9676   58.4758   16.3777 C   0  0  0  0  0  0
    4.2830   57.1082   16.9602 C   0  0  0  0  0  0
    5.5535   56.8385   17.4703 C   0  0  0  0  0  0
    5.8258   55.5959   18.0376 C   0  0  0  0  0  0
    4.8241   54.6243   18.1171 C   0  0  0  0  0  0
    3.5641   54.8834   17.5682 C   0  0  0  0  0  0
    3.2937   56.1240   16.9951 C   0  0  0  0  0  0
    5.0965   53.2948   18.8226 C   0  0  0  0  0  0
    4.0881   52.9201   19.9450 N   0  3  1  0  0  0
    4.3326   51.5733   20.6642 C   0  0  0  0  0  0
    3.0428   50.7903   20.8361 C   0  0  0  0  0  0
    2.3486   50.8209   22.0493 C   0  0  0  0  0  0
    1.1856   50.0703   22.2011 C   0  0  0  0  0  0
    0.7185   49.2969   21.1407 C   0  0  0  0  0  0
    1.4063   49.2640   19.9303 C   0  0  0  0  0  0
    2.5698   50.0117   19.7765 C   0  0  0  0  0  0
   -0.4111   48.5686   21.2878 F   0  0  0  0  0  0
    3.7828   54.0541   20.9452 C   0  0  0  0  0  0
    4.9528   54.3721   21.8488 C   0  0  0  0  0  0
    4.9440   54.0798   23.1262 N   0  0  0  0  0  0
    5.9044   54.6794   23.8066 C   0  0  0  0  0  0
    6.8431   55.3134   22.9975 C   0  0  0  0  0  0
    6.3302   55.2967   21.3520 S   0  0  0  0  0  0
    5.9974   54.6059   25.2577 C   0  0  0  0  0  0
    7.1044   54.7763   25.7629 O   0  0  0  0  0  0
    4.8957   54.3855   26.0323 N   0  0  0  0  0  0
    3.5374   54.7728   25.6200 C   0  0  0  0  0  0
    2.5152   53.8205   26.2574 C   0  0  0  0  0  0
    2.6190   53.7999   27.7149 N   0  0  0  0  0  0
    3.9804   53.4672   28.1487 C   0  0  0  0  0  0
    5.1065   54.2923   27.4926 C   0  0  0  0  0  0
    1.5594   53.3734   28.4967 C   0  0  0  0  0  0
    0.8738   52.1975   28.1679 C   0  0  0  0  0  0
   -0.1148   51.6967   29.0081 C   0  0  0  0  0  0
   -0.3950   52.3350   30.2109 C   0  0  0  0  0  0
    0.2715   53.5105   30.5501 C   0  0  0  0  0  0
    1.2328   54.0489   29.6899 C   0  0  0  0  0  0
    1.8698   55.3898   30.0400 C   0  0  0  0  0  0
    3.7148   58.3906   15.3206 H   0  0  0  0  0  0
    3.1059   58.9153   16.8827 H   0  0  0  0  0  0
    4.7990   59.1757   16.4797 H   0  0  0  0  0  0
    6.3268   57.5927   17.4357 H   0  0  0  0  0  0
    6.8123   55.4025   18.4332 H   0  0  0  0  0  0
    2.7829   54.1382   17.6105 H   0  0  0  0  0  0
    2.3102   56.3259   16.5960 H   0  0  0  0  0  0
    6.0852   53.2509   19.2803 H   0  0  0  0  0  0
    5.0270   52.4967   18.0881 H   0  0  0  0  0  0
    5.0541   51.0136   20.0817 H   0  0  0  0  0  0
    4.8200   51.7751   21.6180 H   0  0  0  0  0  0
    2.7042   51.4190   22.8753 H   0  0  0  0  0  0
    0.6471   50.0823   23.1374 H   0  0  0  0  0  0
    1.0411   48.6589   19.1138 H   0  0  0  0  0  0
    3.1043   49.9769   18.8356 H   0  0  0  0  0  0
    2.8833   53.7297   21.4728 H   0  0  0  0  0  0
    3.5044   54.8967   20.3263 H   0  0  0  0  0  0
    7.7319   55.8521   23.2899 H   0  0  0  0  0  0
    3.3407   54.8383   24.5566 H   0  0  0  0  0  0
    3.3666   55.7602   26.0354 H   0  0  0  0  0  0
    2.6949   52.8131   25.8785 H   0  0  0  0  0  0
    1.5042   54.0972   25.9619 H   0  0  0  0  0  0
    4.0703   53.5022   29.2348 H   0  0  0  0  0  0
    4.1306   52.4320   27.8420 H   0  0  0  0  0  0
    5.0463   55.2932   27.9235 H   0  0  0  0  0  0
    6.0540   53.8193   27.7597 H   0  0  0  0  0  0
    1.1155   51.6536   27.2665 H   0  0  0  0  0  0
   -0.6422   50.7927   28.7409 H   0  0  0  0  0  0
   -1.1320   51.9142   30.8815 H   0  0  0  0  0  0
    0.0221   54.0044   31.4787 H   0  0  0  0  0  0
    1.6489   56.1158   29.2562 H   0  0  0  0  0  0
    1.5042   55.7972   30.9832 H   0  0  0  0  0  0
    2.9539   55.2977   30.0834 H   0  0  0  0  0  0
    3.2218   52.7728   19.4438 H   0  0  0  0  0  0
  1  2  1  0  0  0
  1 39  1  0  0  0
  1 40  1  0  0  0
  1 41  1  0  0  0
  2  7  2  0  0  0
  2  3  1  0  0  0
  3  4  2  0  0  0
  3 42  1  0  0  0
  4  5  1  0  0  0
  4 43  1  0  0  0
  5  6  2  0  0  0
  5  8  1  0  0  0
  6  7  1  0  0  0
  6 44  1  0  0  0
  7 45  1  0  0  0
  8  9  1  0  0  0
  8 46  1  0  0  0
  8 47  1  0  0  0
  9 10  1  0  0  0
  9 18  1  0  0  0
  9 72  1  0  0  0
 10 11  1  0  0  0
 10 48  1  0  0  0
 10 49  1  0  0  0
 11 16  2  0  0  0
 11 12  1  0  0  0
 12 13  2  0  0  0
 12 50  1  0  0  0
 13 14  1  0  0  0
 13 51  1  0  0  0
 14 15  2  0  0  0
 14 17  1  0  0  0
 15 16  1  0  0  0
 15 52  1  0  0  0
 16 53  1  0  0  0
 18 19  1  0  0  0
 18 54  1  0  0  0
 18 55  1  0  0  0
 19 23  1  0  0  0
 19 20  2  0  0  0
 20 21  1  0  0  0
 21 22  2  0  0  0
 21 24  1  0  0  0
 22 23  1  0  0  0
 22 56  1  0  0  0
 24 25  2  0  0  0
 24 26  1  0  0  0
 26 31  1  0  0  0
 26 27  1  0  0  0
 27 28  1  0  0  0
 27 57  1  0  0  0
 27 58  1  0  0  0
 28 29  1  0  0  0
 28 59  1  0  0  0
 28 60  1  0  0  0
 29 30  1  0  0  0
 29 32  1  0  0  0
 30 31  1  0  0  0
 30 61  1  0  0  0
 30 62  1  0  0  0
 31 63  1  0  0  0
 31 64  1  0  0  0
 32 37  2  0  0  0
 32 33  1  0  0  0
 33 34  2  0  0  0
 33 65  1  0  0  0
 34 35  1  0  0  0
 34 66  1  0  0  0
 35 36  2  0  0  0
 35 67  1  0  0  0
 36 37  1  0  0  0
 36 68  1  0  0  0
 37 38  1  0  0  0
 38 69  1  0  0  0
 38 70  1  0  0  0
 38 71  1  0  0  0
M  CHG  1   9   1
M  END
> <i_i_glide_confnum>
286

> <i_i_glide_lignum>
5686

> <i_i_glide_posenum>
295

> <i_i_glide_rotatable_bonds>
9

> <i_m_Source_File_Index>
4606

> <b_m_subgroup_collapsed>
0

> <r_i_docking_score>
-7.2506

> <r_i_glide_ecoul>
-7.55565

> <r_i_glide_eff_state_penalty>
0

> <r_i_glide_einternal>
8.40875

> <r_i_glide_emodel>
-78.3076

> <r_i_glide_energy>
-57.6912

> <r_i_glide_erotb>
0.58763

> <r_i_glide_esite>
-0.0204304

> <r_i_glide_evdw>
-50.1356

> <r_i_glide_gscore>
-7.2506

> <r_i_glide_hbond>
-0.32

> <r_i_glide_ligand_efficiency>
-0.190805

> <r_i_glide_ligand_efficiency_ln>
-1.56344

> <r_i_glide_ligand_efficiency_sa>
-0.641483

> <r_i_glide_lipo>
-2.89811

> <r_i_glide_metal>
0

> <r_i_glide_rewards>
-0.959559

> <s_i_glide_gridfile>
wee1_glide-grid

> <s_m_Source_File>
wee1_decoys_glide_SP.sdf

> <s_m_Source_Path>
/Users/zhangxujun/Desktop

> <s_m_entry_id>
4881

> <s_m_entry_name>
wee1_decoys_glide_SP.4606

> <s_m_subgroup_title>
wee1_decoys_glide_SP

> <s_m_subgroupid>
wee1_decoys_glide_SP


$$$$
