ZINC63375301_5470
                    3D
 Schrodinger Suite 2024-2.
 64 70  0  0  1  0            999 V2000
   -2.3148   51.5185   26.0360 C   0  0  0  0  0  0
   -1.1447   51.0215   26.6027 C   0  0  0  0  0  0
    0.0694   51.1781   25.9397 C   0  0  0  0  0  0
    0.1128   51.8412   24.7087 C   0  0  0  0  0  0
   -1.0711   52.3371   24.1444 C   0  0  0  0  0  0
   -2.2836   52.1764   24.8093 C   0  0  0  0  0  0
    1.4535   51.9774   23.9789 C   0  0  2  0  0  0
    2.1792   51.2973   24.4229 H   0  0  0  0  0  0
    1.9782   53.4359   24.1106 C   0  0  2  0  0  0
    1.1903   54.1646   23.9088 H   0  0  0  0  0  0
    3.1717   53.6556   23.2027 C   0  0  0  0  0  0
    4.2101   54.0938   23.9340 C   0  0  0  0  0  0
    5.5968   54.4126   23.5703 C   0  0  0  0  0  0
    6.4834   54.7900   24.5147 C   0  0  0  0  0  0
    6.0252   54.8571   25.8971 C   0  0  0  0  0  0
    4.7504   54.5442   26.2498 C   0  0  0  0  0  0
    3.8235   54.1491   25.2773 C   0  0  0  0  0  0
    2.5697   53.7750   25.4194 N   0  3  0  0  0  0
    3.0234   53.2360   21.7448 C   0  0  0  0  0  0
    1.6386   52.5610   21.4985 C   0  0  2  0  0  0
    0.8385   53.2970   21.4373 H   0  0  0  0  0  0
    1.3457   51.6098   22.5470 N   0  0  0  0  0  0
    1.2462   50.3450   22.0951 C   0  0  0  0  0  0
    1.1229   49.3279   22.7792 O   0  0  0  0  0  0
    1.2880   50.4276   20.7358 N   0  0  0  0  0  0
    1.5301   51.6803   20.2818 C   0  0  0  0  0  0
    1.6482   52.0688   19.1192 O   0  0  0  0  0  0
    1.0252   49.3256   19.8841 C   0  0  0  0  0  0
    2.0846   48.8287   19.1131 C   0  0  0  0  0  0
    1.9043   47.7299   18.2798 C   0  0  0  0  0  0
    0.6632   47.1076   18.2016 C   0  0  0  0  0  0
   -0.4050   47.5945   18.9529 C   0  0  0  0  0  0
   -0.2501   48.7043   19.8011 C   0  0  0  0  0  0
   -1.4519   49.2092   20.5711 C   0  0  0  0  0  0
   -1.7203   50.4120   20.6163 O   0  0  0  0  0  0
   -2.1546   48.2631   21.2177 N   0  0  0  0  0  0
   -3.2371   48.5162   22.1721 C   0  0  0  0  0  0
   -2.8660   47.9865   23.5425 C   0  0  0  0  0  0
   -3.4734   47.1161   24.4399 C   0  0  0  0  0  0
   -2.6372   47.0331   25.5540 C   0  0  0  0  0  0
   -1.5468   47.8398   25.2817 C   0  0  0  0  0  0
   -1.6861   48.4218   24.0636 O   0  0  0  0  0  0
   -3.2544   51.3809   26.5494 H   0  0  0  0  0  0
   -1.1839   50.4972   27.5489 H   0  0  0  0  0  0
    0.9652   50.7697   26.3814 H   0  0  0  0  0  0
   -1.0538   52.8381   23.1858 H   0  0  0  0  0  0
   -3.1964   52.5502   24.3698 H   0  0  0  0  0  0
    5.9356   54.3607   22.5466 H   0  0  0  0  0  0
    7.5042   55.0277   24.2495 H   0  0  0  0  0  0
    6.7190   55.1500   26.6734 H   0  0  0  0  0  0
    4.4723   54.6026   27.2934 H   0  0  0  0  0  0
    3.1240   54.0954   21.0823 H   0  0  0  0  0  0
    3.8367   52.5627   21.4704 H   0  0  0  0  0  0
    3.0619   49.2984   19.1419 H   0  0  0  0  0  0
    2.7342   47.3770   17.6834 H   0  0  0  0  0  0
    0.5260   46.2592   17.5488 H   0  0  0  0  0  0
   -1.3644   47.1046   18.8540 H   0  0  0  0  0  0
   -1.8224   47.3138   21.1606 H   0  0  0  0  0  0
   -3.4830   49.5772   22.2492 H   0  0  0  0  0  0
   -4.1406   48.0253   21.8094 H   0  0  0  0  0  0
   -4.4238   46.6209   24.3081 H   0  0  0  0  0  0
   -2.7981   46.4732   26.4634 H   0  0  0  0  0  0
   -0.6599   48.0959   25.8452 H   0  0  0  0  0  0
    2.0649   53.7192   26.2985 H   0  0  0  0  0  0
  1  6  2  0  0  0
  1  2  1  0  0  0
  1 43  1  0  0  0
  2  3  2  0  0  0
  2 44  1  0  0  0
  3  4  1  0  0  0
  3 45  1  0  0  0
  4  5  2  0  0  0
  4  7  1  0  0  0
  5  6  1  0  0  0
  5 46  1  0  0  0
  6 47  1  0  0  0
  7  8  1  0  0  0
  7 22  1  0  0  0
  7  9  1  0  0  0
  9 10  1  0  0  0
  9 18  1  0  0  0
  9 11  1  0  0  0
 11 12  2  0  0  0
 11 19  1  0  0  0
 12 17  1  0  0  0
 12 13  1  0  0  0
 13 14  2  0  0  0
 13 48  1  0  0  0
 14 15  1  0  0  0
 14 49  1  0  0  0
 15 16  2  0  0  0
 15 50  1  0  0  0
 16 17  1  0  0  0
 16 51  1  0  0  0
 17 18  2  0  0  0
 18 64  1  0  0  0
 19 20  1  0  0  0
 19 52  1  0  0  0
 19 53  1  0  0  0
 20 21  1  0  0  0
 20 26  1  0  0  0
 20 22  1  0  0  0
 22 23  1  0  0  0
 23 24  2  0  0  0
 23 25  1  0  0  0
 25 26  1  0  0  0
 25 28  1  0  0  0
 26 27  2  0  0  0
 28 33  2  0  0  0
 28 29  1  0  0  0
 29 30  2  0  0  0
 29 54  1  0  0  0
 30 31  1  0  0  0
 30 55  1  0  0  0
 31 32  2  0  0  0
 31 56  1  0  0  0
 32 33  1  0  0  0
 32 57  1  0  0  0
 33 34  1  0  0  0
 34 35  2  0  0  0
 34 36  1  0  0  0
 36 37  1  0  0  0
 36 58  1  0  0  0
 37 38  1  0  0  0
 37 59  1  0  0  0
 37 60  1  0  0  0
 38 42  1  0  0  0
 38 39  2  0  0  0
 39 40  1  0  0  0
 39 61  1  0  0  0
 40 41  2  0  0  0
 40 62  1  0  0  0
 41 42  1  0  0  0
 41 63  1  0  0  0
M  CHG  1  18   1
M  END
> <i_i_glide_confnum>
148

> <i_i_glide_lignum>
5471

> <i_i_glide_posenum>
1

> <i_i_glide_rotatable_bonds>
6

> <i_m_Source_File_Index>
585

> <b_m_subgroup_collapsed>
0

> <r_i_docking_score>
-4.74805

> <r_i_glide_ecoul>
-1.5404

> <r_i_glide_eff_state_penalty>
0

> <r_i_glide_einternal>
1.49886

> <r_i_glide_emodel>
-58.8185

> <r_i_glide_energy>
-45.052

> <r_i_glide_erotb>
0.38327

> <r_i_glide_esite>
-0.0120421

> <r_i_glide_evdw>
-43.5116

> <r_i_glide_gscore>
-4.74805

> <r_i_glide_hbond>
0

> <r_i_glide_ligand_efficiency>
-0.121745

> <r_i_glide_ligand_efficiency_ln>
-1.01812

> <r_i_glide_ligand_efficiency_sa>
-0.412863

> <r_i_glide_lipo>
-2.38007

> <r_i_glide_metal>
0

> <r_i_glide_rewards>
-0.332571

> <s_i_glide_gridfile>
wee1_glide-grid

> <s_m_Source_File>
wee1_decoys_glide_SP.sdf

> <s_m_Source_Path>
/Users/zhangxujun/Desktop

> <s_m_entry_id>
860

> <s_m_entry_name>
wee1_decoys_glide_SP.585

> <s_m_subgroup_title>
wee1_decoys_glide_SP

> <s_m_subgroupid>
wee1_decoys_glide_SP


$$$$
