ZINC50309955_1700
                    3D
 Schrodinger Suite 2024-2.
 44 45  0  0  1  0            999 V2000
    3.6499   52.1278   31.3982 C   0  0  0  0  0  0
    3.6922   52.1196   29.8601 C   0  0  0  0  0  0
    3.2109   53.4400   29.2070 C   0  0  1  0  0  0
    2.2749   53.7096   29.7011 H   0  0  0  0  0  0
    4.1676   54.6373   29.4251 C   0  0  0  0  0  0
    5.3570   54.5023   28.6621 O   0  0  0  0  0  0
    5.1250   54.4532   27.2614 C   0  0  2  0  0  0
    4.6542   55.3705   26.9149 H   0  0  0  0  0  0
    4.2286   53.2500   26.9224 C   0  0  0  0  0  0
    2.9931   53.3280   27.7434 N   0  0  0  0  0  0
    1.7241   53.1009   27.2804 C   0  0  0  0  0  0
    0.7472   53.0439   28.0324 O   0  0  0  0  0  0
    1.5040   52.8963   25.8570 C   0  0  0  0  0  0
    0.7055   51.8570   25.3055 C   0  0  0  0  0  0
    0.7898   52.0201   23.9261 C   0  0  0  0  0  0
    1.5431   53.1507   23.7632 N   0  0  0  0  0  0
    1.7794   53.5534   22.8670 H   0  0  0  0  0  0
    1.9475   53.6969   24.9087 N   0  0  0  0  0  0
    0.2491   51.2118   22.7566 C   0  0  0  0  0  0
   -0.5355   52.0815   21.7569 C   0  0  0  0  0  0
    1.3793   50.4284   22.0619 C   0  0  0  0  0  0
    0.0302   50.8636   25.9633 N   0  0  0  0  0  0
    6.4932   54.3543   26.5769 C   0  0  0  0  0  0
    3.9796   51.1762   31.8117 H   0  0  0  0  0  0
    4.3039   52.8955   31.8169 H   0  0  0  0  0  0
    2.6380   52.3090   31.7660 H   0  0  0  0  0  0
    3.0675   51.2998   29.4990 H   0  0  0  0  0  0
    4.7052   51.8898   29.5272 H   0  0  0  0  0  0
    4.4280   54.7411   30.4752 H   0  0  0  0  0  0
    3.6583   55.5612   29.1403 H   0  0  0  0  0  0
    4.7834   52.3583   27.2012 H   0  0  0  0  0  0
    4.0772   53.2228   25.8467 H   0  0  0  0  0  0
   -0.4512   50.4717   23.1490 H   0  0  0  0  0  0
   -1.3715   52.5839   22.2460 H   0  0  0  0  0  0
   -0.9461   51.4765   20.9477 H   0  0  0  0  0  0
    0.1019   52.8421   21.3010 H   0  0  0  0  0  0
    1.8795   49.7529   22.7589 H   0  0  0  0  0  0
    0.9953   49.8225   21.2407 H   0  0  0  0  0  0
    2.1357   51.0972   21.6459 H   0  0  0  0  0  0
   -0.0116   50.8271   26.9740 H   0  0  0  0  0  0
   -0.4661   50.1314   25.4764 H   0  0  0  0  0  0
    6.3965   54.3220   25.4905 H   0  0  0  0  0  0
    7.1039   55.2199   26.8314 H   0  0  0  0  0  0
    7.0328   53.4611   26.8943 H   0  0  0  0  0  0
  1  2  1  0  0  0
  1 24  1  0  0  0
  1 25  1  0  0  0
  1 26  1  0  0  0
  2  3  1  0  0  0
  2 27  1  0  0  0
  2 28  1  0  0  0
  3  4  1  0  0  0
  3 10  1  0  0  0
  3  5  1  0  0  0
  5  6  1  0  0  0
  5 29  1  0  0  0
  5 30  1  0  0  0
  6  7  1  0  0  0
  7  8  1  0  0  0
  7  9  1  0  0  0
  7 23  1  0  0  0
  9 10  1  0  0  0
  9 31  1  0  0  0
  9 32  1  0  0  0
 10 11  1  0  0  0
 11 12  2  0  0  0
 11 13  1  0  0  0
 13 18  2  0  0  0
 13 14  1  0  0  0
 14 15  2  0  0  0
 14 22  1  0  0  0
 15 16  1  0  0  0
 15 19  1  0  0  0
 16 17  1  0  0  0
 16 18  1  0  0  0
 19 20  1  0  0  0
 19 21  1  0  0  0
 19 33  1  0  0  0
 20 34  1  0  0  0
 20 35  1  0  0  0
 20 36  1  0  0  0
 21 37  1  0  0  0
 21 38  1  0  0  0
 21 39  1  0  0  0
 22 40  1  0  0  0
 22 41  1  0  0  0
 23 42  1  0  0  0
 23 43  1  0  0  0
 23 44  1  0  0  0
M  END
> <i_i_glide_confnum>
1

> <i_i_glide_lignum>
1701

> <i_i_glide_posenum>
173

> <i_i_glide_rotatable_bonds>
4

> <i_m_Source_File_Index>
3216

> <b_m_subgroup_collapsed>
0

> <r_i_docking_score>
-4.84441

> <r_i_glide_ecoul>
0.780898

> <r_i_glide_eff_state_penalty>
0

> <r_i_glide_einternal>
2.81835

> <r_i_glide_emodel>
-37.876

> <r_i_glide_energy>
-29.3311

> <r_i_glide_erotb>
0.459483

> <r_i_glide_esite>
-0.0287585

> <r_i_glide_evdw>
-30.112

> <r_i_glide_gscore>
-4.84441

> <r_i_glide_hbond>
0

> <r_i_glide_ligand_efficiency>
-0.24222

> <r_i_glide_ligand_efficiency_ln>
-1.21239

> <r_i_glide_ligand_efficiency_sa>
-0.657487

> <r_i_glide_lipo>
-1.90395

> <r_i_glide_metal>
0

> <r_i_glide_rewards>
-1.98272

> <s_i_glide_gridfile>
wee1_glide-grid

> <s_m_Source_File>
wee1_decoys_glide_SP.sdf

> <s_m_Source_Path>
/Users/zhangxujun/Desktop

> <s_m_entry_id>
3491

> <s_m_entry_name>
wee1_decoys_glide_SP.3216

> <s_m_subgroup_title>
wee1_decoys_glide_SP

> <s_m_subgroupid>
wee1_decoys_glide_SP


$$$$
