ZINC35057845_3319
                    3D
 Schrodinger Suite 2024-2.
 62 66  0  0  1  0            999 V2000
   -4.2028   50.9088   28.3403 C   0  0  0  0  0  0
   -3.8664   51.3890   26.9326 C   0  0  0  0  0  0
   -4.3583   52.4268   26.4900 O   0  0  0  0  0  0
   -3.0066   50.6238   26.2532 N   0  0  0  0  0  0
   -2.4954   50.8780   24.9030 C   0  0  2  0  0  0
   -3.2660   51.4157   24.3450 H   0  0  0  0  0  0
   -2.2001   49.5769   24.1002 C   0  0  1  0  0  0
   -3.1451   49.0718   23.8859 H   0  0  0  0  0  0
   -1.5092   49.8679   22.7558 C   0  0  2  0  0  0
   -1.1474   48.9158   22.3609 H   0  0  0  0  0  0
   -0.3328   50.8469   22.9402 C   0  0  1  0  0  0
    0.4644   50.3353   23.4831 H   0  0  0  0  0  0
    0.1796   51.2932   21.5576 C   0  0  0  0  0  0
   -0.8901   51.6448   20.6769 O   0  0  0  0  0  0
   -1.8459   50.6192   20.5770 C   0  0  1  0  0  0
   -1.3809   49.6958   20.2145 H   0  0  0  0  0  0
   -2.4515   50.4184   21.8302 O   0  0  0  0  0  0
   -2.9072   51.0095   19.5307 C   0  0  0  0  0  0
   -2.5447   51.7943   18.4289 C   0  0  0  0  0  0
   -3.4915   52.1289   17.4654 C   0  0  0  0  0  0
   -4.8041   51.6840   17.6035 C   0  0  0  0  0  0
   -5.1751   50.8965   18.6932 C   0  0  0  0  0  0
   -4.2256   50.5562   19.6538 C   0  0  0  0  0  0
   -0.7921   52.0268   23.6077 O   0  0  0  0  0  0
   -1.2601   51.8012   24.9120 C   0  0  2  0  0  0
   -1.5163   52.7959   25.2849 H   0  0  0  0  0  0
   -0.2990   51.2276   25.7572 O   0  0  0  0  0  0
    0.7042   52.0175   26.2671 C   0  0  0  0  0  0
    1.4207   52.9293   25.4880 C   0  0  0  0  0  0
    2.4671   53.6673   26.0293 C   0  0  0  0  0  0
    2.8350   53.4923   27.3845 C   0  0  0  0  0  0
    3.9167   54.2016   27.9591 C   0  0  0  0  0  0
    4.2708   53.9837   29.2869 C   0  0  0  0  0  0
    3.5641   53.0799   30.0720 C   0  0  0  0  0  0
    2.4792   52.3838   29.5446 C   0  0  0  0  0  0
    2.1050   52.5639   28.1898 C   0  0  0  0  0  0
    1.0414   51.8327   27.6058 C   0  0  0  0  0  0
   -1.3722   48.6690   24.8453 O   0  0  0  0  0  0
   -2.0268   47.6537   25.6240 C   0  0  0  0  0  0
   -2.5383   46.4968   24.7442 C   0  0  0  0  0  0
   -3.3408   45.6974   25.2816 O   0  0  0  0  0  0
   -2.1158   46.3751   23.5744 O   0  5  0  0  0  0
   -3.2927   50.6461   28.8879 H   0  0  0  0  0  0
   -4.7300   51.6797   28.9020 H   0  0  0  0  0  0
   -4.8388   50.0223   28.2904 H   0  0  0  0  0  0
   -2.5970   49.8256   26.7271 H   0  0  0  0  0  0
    0.8551   52.1448   21.6571 H   0  0  0  0  0  0
    0.7661   50.5070   21.0840 H   0  0  0  0  0  0
   -1.5273   52.1381   18.3138 H   0  0  0  0  0  0
   -3.2094   52.7313   16.6135 H   0  0  0  0  0  0
   -5.5401   51.9391   16.8531 H   0  0  0  0  0  0
   -6.1932   50.5476   18.7913 H   0  0  0  0  0  0
   -4.5159   49.9397   20.4941 H   0  0  0  0  0  0
    1.1845   53.0593   24.4432 H   0  0  0  0  0  0
    3.0161   54.3659   25.4127 H   0  0  0  0  0  0
    4.4778   54.9003   27.3557 H   0  0  0  0  0  0
    5.1106   54.5210   29.7028 H   0  0  0  0  0  0
    3.8607   52.9043   31.0955 H   0  0  0  0  0  0
    1.9204   51.6948   30.1579 H   0  0  0  0  0  0
    0.4963   51.1139   28.2019 H   0  0  0  0  0  0
   -1.2963   47.2400   26.3120 H   0  0  0  0  0  0
   -2.8403   48.0625   26.2202 H   0  0  0  0  0  0
  1  2  1  0  0  0
  1 43  1  0  0  0
  1 44  1  0  0  0
  1 45  1  0  0  0
  2  3  2  0  0  0
  2  4  1  0  0  0
  4  5  1  0  0  0
  4 46  1  0  0  0
  5  6  1  0  0  0
  5 25  1  0  0  0
  5  7  1  0  0  0
  7  8  1  0  0  0
  7  9  1  0  0  0
  7 38  1  0  0  0
  9 10  1  0  0  0
  9 17  1  0  0  0
  9 11  1  0  0  0
 11 12  1  0  0  0
 11 13  1  0  0  0
 11 24  1  0  0  0
 13 14  1  0  0  0
 13 47  1  0  0  0
 13 48  1  0  0  0
 14 15  1  0  0  0
 15 16  1  0  0  0
 15 17  1  0  0  0
 15 18  1  0  0  0
 18 23  2  0  0  0
 18 19  1  0  0  0
 19 20  2  0  0  0
 19 49  1  0  0  0
 20 21  1  0  0  0
 20 50  1  0  0  0
 21 22  2  0  0  0
 21 51  1  0  0  0
 22 23  1  0  0  0
 22 52  1  0  0  0
 23 53  1  0  0  0
 24 25  1  0  0  0
 25 26  1  0  0  0
 25 27  1  0  0  0
 27 28  1  0  0  0
 28 37  2  0  0  0
 28 29  1  0  0  0
 29 30  2  0  0  0
 29 54  1  0  0  0
 30 31  1  0  0  0
 30 55  1  0  0  0
 31 36  2  0  0  0
 31 32  1  0  0  0
 32 33  2  0  0  0
 32 56  1  0  0  0
 33 34  1  0  0  0
 33 57  1  0  0  0
 34 35  2  0  0  0
 34 58  1  0  0  0
 35 36  1  0  0  0
 35 59  1  0  0  0
 36 37  1  0  0  0
 37 60  1  0  0  0
 38 39  1  0  0  0
 39 40  1  0  0  0
 39 61  1  0  0  0
 39 62  1  0  0  0
 40 41  2  0  0  0
 40 42  1  0  0  0
M  CHG  1  42  -1
M  END
> <i_i_glide_confnum>
17

> <i_i_glide_lignum>
3320

> <i_i_glide_posenum>
241

> <i_i_glide_rotatable_bonds>
8

> <i_m_Source_File_Index>
2320

> <b_m_subgroup_collapsed>
0

> <r_i_docking_score>
-3.65241

> <r_i_glide_ecoul>
-6.58469

> <r_i_glide_eff_state_penalty>
0

> <r_i_glide_einternal>
4.94777

> <r_i_glide_emodel>
-46.4532

> <r_i_glide_energy>
-39.4072

> <r_i_glide_erotb>
0.503764

> <r_i_glide_esite>
-0.16292

> <r_i_glide_evdw>
-32.8226

> <r_i_glide_gscore>
-3.65241

> <r_i_glide_hbond>
-0.18891

> <r_i_glide_ligand_efficiency>
-0.101456

> <r_i_glide_ligand_efficiency_ln>
-0.796858

> <r_i_glide_ligand_efficiency_sa>
-0.335

> <r_i_glide_lipo>
-1.60225

> <r_i_glide_metal>
0

> <r_i_glide_rewards>
0.426733

> <s_i_glide_gridfile>
wee1_glide-grid

> <s_m_Source_File>
wee1_decoys_glide_SP.sdf

> <s_m_Source_Path>
/Users/zhangxujun/Desktop

> <s_m_entry_id>
2595

> <s_m_entry_name>
wee1_decoys_glide_SP.2320

> <s_m_subgroup_title>
wee1_decoys_glide_SP

> <s_m_subgroupid>
wee1_decoys_glide_SP


$$$$
