ZINC49741062_3786
                    3D
 Schrodinger Suite 2024-2.
 44 47  0  0  1  0            999 V2000
    5.6501   54.4991   26.8707 C   0  0  0  0  0  0
    6.5959   54.8969   25.9337 C   0  0  0  0  0  0
    6.3342   54.7225   24.5796 C   0  0  0  0  0  0
    5.1571   54.1484   24.1421 C   0  0  0  0  0  0
    4.1849   53.7776   25.0781 C   0  0  0  0  0  0
    4.4294   53.9472   26.4499 C   0  0  0  0  0  0
    3.4508   53.4702   27.3345 N   0  0  0  0  0  0
    3.3078   53.6948   28.6579 C   0  0  0  0  0  0
    3.9853   54.4890   29.3125 O   0  0  0  0  0  0
    2.2358   52.8791   29.4065 C   0  0  0  0  0  0
    1.1623   53.7906   30.0083 C   0  0  0  0  0  0
    0.0452   52.8065   30.3239 C   0  0  0  0  0  0
    0.0135   51.8737   29.1123 C   0  0  0  0  0  0
    1.4664   51.7879   28.6144 C   0  0  0  0  0  0
    5.2077   54.0414   22.6360 C   0  0  0  0  0  0
    3.9804   54.4928   21.8393 C   0  0  0  0  0  0
    3.9316   53.7292   20.5006 C   0  0  0  0  0  0
    5.0404   52.6845   20.5777 C   0  0  0  0  0  0
    5.3544   52.6196   22.0752 C   0  0  0  0  0  0
    6.4743   54.8961   22.3262 C   0  0  0  0  0  0
    6.8767   55.2628   21.2229 O   0  0  0  0  0  0
    7.1034   55.0880   23.4928 N   0  0  0  0  0  0
    5.8949   54.6240   27.9142 H   0  0  0  0  0  0
    7.5044   55.3391   26.2883 H   0  0  0  0  0  0
    3.2615   53.3266   24.7443 H   0  0  0  0  0  0
    2.7544   52.8768   26.9107 H   0  0  0  0  0  0
    2.7957   52.4229   30.2252 H   0  0  0  0  0  0
    0.8142   54.5376   29.2910 H   0  0  0  0  0  0
    1.5048   54.3221   30.8930 H   0  0  0  0  0  0
   -0.8956   53.3162   30.4839 H   0  0  0  0  0  0
    0.2697   52.2444   31.2326 H   0  0  0  0  0  0
   -0.6243   52.2999   28.3361 H   0  0  0  0  0  0
   -0.4026   50.8967   29.3607 H   0  0  0  0  0  0
    1.8908   50.8036   28.8119 H   0  0  0  0  0  0
    1.4579   51.9272   27.5333 H   0  0  0  0  0  0
    3.0585   54.3145   22.3945 H   0  0  0  0  0  0
    4.0659   55.5465   21.6822 H   0  0  0  0  0  0
    2.9564   53.2596   20.3645 H   0  0  0  0  0  0
    4.0828   54.3993   19.6527 H   0  0  0  0  0  0
    4.7316   51.7200   20.1703 H   0  0  0  0  0  0
    5.9043   53.0155   20.0018 H   0  0  0  0  0  0
    6.2976   52.1375   22.3316 H   0  0  0  0  0  0
    4.5570   52.0164   22.4815 H   0  0  0  0  0  0
    8.0581   55.4410   23.5414 H   0  0  0  0  0  0
  1  6  2  0  0  0
  1  2  1  0  0  0
  1 23  1  0  0  0
  2  3  2  0  0  0
  2 24  1  0  0  0
  3 22  1  0  0  0
  3  4  1  0  0  0
  4  5  2  0  0  0
  4 15  1  0  0  0
  5  6  1  0  0  0
  5 25  1  0  0  0
  6  7  1  0  0  0
  7  8  1  0  0  0
  7 26  1  0  0  0
  8  9  2  0  0  0
  8 10  1  0  0  0
 10 14  1  0  0  0
 10 11  1  0  0  0
 10 27  1  0  0  0
 11 12  1  0  0  0
 11 28  1  0  0  0
 11 29  1  0  0  0
 12 13  1  0  0  0
 12 30  1  0  0  0
 12 31  1  0  0  0
 13 14  1  0  0  0
 13 32  1  0  0  0
 13 33  1  0  0  0
 14 34  1  0  0  0
 14 35  1  0  0  0
 15 19  1  0  0  0
 15 16  1  0  0  0
 15 20  1  0  0  0
 16 17  1  0  0  0
 16 36  1  0  0  0
 16 37  1  0  0  0
 17 18  1  0  0  0
 17 38  1  0  0  0
 17 39  1  0  0  0
 18 19  1  0  0  0
 18 40  1  0  0  0
 18 41  1  0  0  0
 19 42  1  0  0  0
 19 43  1  0  0  0
 20 21  2  0  0  0
 20 22  1  0  0  0
 22 44  1  0  0  0
M  END
> <i_i_glide_confnum>
19

> <i_i_glide_lignum>
3787

> <i_i_glide_posenum>
284

> <i_i_glide_rotatable_bonds>
3

> <i_m_Source_File_Index>
5236

> <b_m_subgroup_collapsed>
0

> <r_i_docking_score>
-6.07259

> <r_i_glide_ecoul>
-1.98985

> <r_i_glide_eff_state_penalty>
0

> <r_i_glide_einternal>
7.10666

> <r_i_glide_emodel>
-41.8067

> <r_i_glide_energy>
-30.2003

> <r_i_glide_erotb>
0.618332

> <r_i_glide_esite>
-0.00790628

> <r_i_glide_evdw>
-28.2105

> <r_i_glide_gscore>
-6.07259

> <r_i_glide_hbond>
-0.318392

> <r_i_glide_ligand_efficiency>
-0.276027

> <r_i_glide_ligand_efficiency_ln>
-1.48436

> <r_i_glide_ligand_efficiency_sa>
-0.773438

> <r_i_glide_lipo>
-2.56784

> <r_i_glide_metal>
0

> <r_i_glide_rewards>
-2.08777

> <s_i_glide_gridfile>
wee1_glide-grid

> <s_m_Source_File>
wee1_decoys_glide_SP.sdf

> <s_m_Source_Path>
/Users/zhangxujun/Desktop

> <s_m_entry_id>
5511

> <s_m_entry_name>
wee1_decoys_glide_SP.5236

> <s_m_subgroup_title>
wee1_decoys_glide_SP

> <s_m_subgroupid>
wee1_decoys_glide_SP


$$$$
