ZINC44813699_187
                    3D
 Schrodinger Suite 2024-2.
 69 72  0  0  1  0            999 V2000
   -4.3951   50.2915   28.8246 C   0  0  0  0  0  0
   -3.9342   50.7750   27.4562 C   0  0  0  0  0  0
   -4.4940   51.7386   26.9350 O   0  0  0  0  0  0
   -2.8955   50.0977   26.9299 N   0  0  0  0  0  0
   -2.2115   50.3004   25.7245 C   0  0  0  0  0  0
   -2.7066   51.0405   24.6443 C   0  0  0  0  0  0
   -1.9440   51.1696   23.4869 C   0  0  0  0  0  0
   -0.6879   50.5516   23.4041 C   0  0  0  0  0  0
   -0.2043   49.8058   24.4826 C   0  0  0  0  0  0
   -0.9646   49.6803   25.6372 C   0  0  0  0  0  0
    0.1698   50.6162   22.2968 N   0  0  0  0  0  0
    0.0543   51.2921   21.1362 C   0  0  0  0  0  0
   -0.9090   51.9854   20.8042 O   0  0  0  0  0  0
    1.2768   51.1810   20.2067 C   0  0  1  0  0  0
    1.9754   50.5022   20.7056 H   0  0  0  0  0  0
    0.9029   50.5917   18.8301 C   0  0  0  0  0  0
    2.2044   50.4883   18.0048 C   0  0  0  0  0  0
    2.9581   51.8362   17.8865 C   0  0  0  0  0  0
    3.2722   52.3370   19.3214 N   0  3  2  0  0  0
    1.9263   52.5671   20.0546 C   0  0  0  0  0  0
    4.1713   53.6048   19.2955 C   0  0  0  0  0  0
    4.7461   53.9335   20.6718 C   0  0  0  0  0  0
    4.3377   53.5491   21.8506 N   0  0  0  0  0  0
    5.1152   54.2251   22.6726 C   0  0  0  0  0  0
    6.0930   54.8966   22.0980 N   0  0  0  0  0  0
    5.8301   54.7439   20.7346 O   0  0  0  0  0  0
    4.8442   54.2694   24.1507 C   0  0  0  0  0  0
    5.8521   54.4970   25.0947 C   0  0  0  0  0  0
    5.5547   54.4949   26.4610 C   0  0  0  0  0  0
    4.2421   54.2699   26.9121 C   0  0  0  0  0  0
    3.2379   54.0816   25.9552 C   0  0  0  0  0  0
    3.5303   54.0920   24.5975 C   0  0  0  0  0  0
    3.8735   54.1712   28.4183 C   0  0  0  0  0  0
    2.6434   55.0559   28.7577 C   0  0  0  0  0  0
    5.0212   54.5856   29.3726 C   0  0  0  0  0  0
    3.5247   52.7013   28.7499 C   0  0  0  0  0  0
   -3.5405   50.0797   29.4728 H   0  0  0  0  0  0
   -5.0169   51.0446   29.3125 H   0  0  0  0  0  0
   -4.9814   49.3774   28.7220 H   0  0  0  0  0  0
   -2.4570   49.3969   27.5358 H   0  0  0  0  0  0
   -3.6761   51.5144   24.6770 H   0  0  0  0  0  0
   -2.3551   51.7453   22.6733 H   0  0  0  0  0  0
    0.7590   49.3149   24.4377 H   0  0  0  0  0  0
   -0.5780   49.0966   26.4622 H   0  0  0  0  0  0
    1.0248   50.0947   22.4168 H   0  0  0  0  0  0
    0.2206   51.2407   18.2768 H   0  0  0  0  0  0
    0.5026   49.5791   18.9151 H   0  0  0  0  0  0
    1.9897   50.0971   17.0082 H   0  0  0  0  0  0
    2.8614   49.7555   18.4813 H   0  0  0  0  0  0
    2.3820   52.6059   17.3698 H   0  0  0  0  0  0
    3.9044   51.6968   17.3628 H   0  0  0  0  0  0
    2.0952   53.0416   21.0200 H   0  0  0  0  0  0
    1.3440   53.2428   19.4233 H   0  0  0  0  0  0
    3.5582   54.4063   18.8784 H   0  0  0  0  0  0
    4.9693   53.3643   18.5896 H   0  0  0  0  0  0
    6.8733   54.6478   24.7742 H   0  0  0  0  0  0
    6.3642   54.6469   27.1582 H   0  0  0  0  0  0
    2.2177   53.8966   26.2550 H   0  0  0  0  0  0
    2.7253   53.9321   23.8952 H   0  0  0  0  0  0
    2.4199   55.0425   29.8255 H   0  0  0  0  0  0
    1.7349   54.7251   28.2531 H   0  0  0  0  0  0
    2.8002   56.0963   28.4819 H   0  0  0  0  0  0
    5.8956   53.9449   29.2678 H   0  0  0  0  0  0
    5.3588   55.6091   29.2367 H   0  0  0  0  0  0
    4.7043   54.4969   30.4124 H   0  0  0  0  0  0
    4.3905   52.0600   28.5872 H   0  0  0  0  0  0
    3.2227   52.5792   29.7921 H   0  0  0  0  0  0
    2.7103   52.3187   28.1329 H   0  0  0  0  0  0
    3.8154   51.6253   19.7937 H   0  0  0  0  0  0
  1  2  1  0  0  0
  1 37  1  0  0  0
  1 38  1  0  0  0
  1 39  1  0  0  0
  2  3  2  0  0  0
  2  4  1  0  0  0
  4  5  1  0  0  0
  4 40  1  0  0  0
  5 10  2  0  0  0
  5  6  1  0  0  0
  6  7  2  0  0  0
  6 41  1  0  0  0
  7  8  1  0  0  0
  7 42  1  0  0  0
  8  9  2  0  0  0
  8 11  1  0  0  0
  9 10  1  0  0  0
  9 43  1  0  0  0
 10 44  1  0  0  0
 11 12  1  0  0  0
 11 45  1  0  0  0
 12 13  2  0  0  0
 12 14  1  0  0  0
 14 15  1  0  0  0
 14 20  1  0  0  0
 14 16  1  0  0  0
 16 17  1  0  0  0
 16 46  1  0  0  0
 16 47  1  0  0  0
 17 18  1  0  0  0
 17 48  1  0  0  0
 17 49  1  0  0  0
 18 19  1  0  0  0
 18 50  1  0  0  0
 18 51  1  0  0  0
 19 20  1  0  0  0
 19 21  1  0  0  0
 19 69  1  0  0  0
 20 52  1  0  0  0
 20 53  1  0  0  0
 21 22  1  0  0  0
 21 54  1  0  0  0
 21 55  1  0  0  0
 22 26  1  0  0  0
 22 23  2  0  0  0
 23 24  1  0  0  0
 24 25  2  0  0  0
 24 27  1  0  0  0
 25 26  1  0  0  0
 27 32  2  0  0  0
 27 28  1  0  0  0
 28 29  2  0  0  0
 28 56  1  0  0  0
 29 30  1  0  0  0
 29 57  1  0  0  0
 30 31  2  0  0  0
 30 33  1  0  0  0
 31 32  1  0  0  0
 31 58  1  0  0  0
 32 59  1  0  0  0
 33 34  1  0  0  0
 33 35  1  0  0  0
 33 36  1  0  0  0
 34 60  1  0  0  0
 34 61  1  0  0  0
 34 62  1  0  0  0
 35 63  1  0  0  0
 35 64  1  0  0  0
 35 65  1  0  0  0
 36 66  1  0  0  0
 36 67  1  0  0  0
 36 68  1  0  0  0
M  CHG  1  19   1
M  END
> <i_i_glide_confnum>
49

> <i_i_glide_lignum>
188

> <i_i_glide_posenum>
349

> <i_i_glide_rotatable_bonds>
9

> <i_m_Source_File_Index>
3960

> <b_m_subgroup_collapsed>
0

> <r_i_docking_score>
-6.23453

> <r_i_glide_ecoul>
-11.4335

> <r_i_glide_eff_state_penalty>
0

> <r_i_glide_einternal>
3.41895

> <r_i_glide_emodel>
-69.322

> <r_i_glide_energy>
-48.7857

> <r_i_glide_erotb>
0.624096

> <r_i_glide_esite>
-0.207467

> <r_i_glide_evdw>
-37.3522

> <r_i_glide_gscore>
-6.23453

> <r_i_glide_hbond>
-0.16

> <r_i_glide_ligand_efficiency>
-0.17813

> <r_i_glide_ligand_efficiency_ln>
-1.36862

> <r_i_glide_ligand_efficiency_sa>
-0.582674

> <r_i_glide_lipo>
-2.39513

> <r_i_glide_metal>
0

> <r_i_glide_rewards>
-0.513397

> <s_i_glide_gridfile>
wee1_glide-grid

> <s_m_Source_File>
wee1_decoys_glide_SP.sdf

> <s_m_Source_Path>
/Users/zhangxujun/Desktop

> <s_m_entry_id>
4235

> <s_m_entry_name>
wee1_decoys_glide_SP.3960

> <s_m_subgroup_title>
wee1_decoys_glide_SP

> <s_m_subgroupid>
wee1_decoys_glide_SP


$$$$
