ZINC21113002_3313
                    3D
 Schrodinger Suite 2024-2.
 49 53  0  0  1  0            999 V2000
    0.0383   51.0553   22.0147 C   0  0  0  0  0  0
    1.2883   51.7630   21.5478 C   0  0  0  0  0  0
    1.7876   51.9122   20.2566 C   0  0  0  0  0  0
    2.9607   52.6413   20.3810 C   0  0  0  0  0  0
    3.1102   52.9013   21.7464 N   0  0  0  0  0  0
    2.0702   52.3490   22.4225 N   0  0  0  0  0  0
    4.1370   53.6105   22.4504 C   0  0  0  0  0  0
    5.1168   54.1126   21.7420 N   0  5  0  0  0  0
    6.1606   54.7892   22.2510 C   0  0  0  0  0  0
    7.0580   55.3000   21.5839 O   0  0  0  0  0  0
    6.1304   54.8971   23.7076 C   0  0  0  0  0  0
    6.9132   55.4956   24.6803 C   0  0  0  0  0  0
    6.4278   55.2964   25.8848 N   0  0  0  0  0  0
    5.2771   54.5876   25.7355 N   0  0  0  0  0  0
    5.0600   54.3427   24.3853 C   0  0  0  0  0  0
    4.0314   53.6991   23.7520 N   0  0  0  0  0  0
    4.5061   54.2437   26.8913 C   0  0  0  0  0  0
    5.0361   54.4552   28.1764 C   0  0  0  0  0  0
    4.2909   54.1496   29.3075 C   0  0  0  0  0  0
    3.0171   53.6117   29.1750 C   0  0  0  0  0  0
    2.4733   53.3922   27.9141 C   0  0  0  0  0  0
    3.2122   53.7091   26.7740 C   0  0  0  0  0  0
    2.3048   53.3026   30.2833 F   0  0  0  0  0  0
    3.8608   53.0949   19.4291 N   0  0  0  0  0  0
    3.6747   53.1874   18.0970 C   0  0  0  0  0  0
    2.6191   52.9077   17.5197 O   0  0  0  0  0  0
    4.8575   53.7403   17.3264 C   0  0  0  0  0  0
    4.6548   54.3641   16.0892 C   0  0  0  0  0  0
    5.7298   54.8989   15.3825 C   0  0  0  0  0  0
    7.0320   54.8136   15.8915 C   0  0  0  0  0  0
    7.2369   54.1774   17.1233 C   0  0  0  0  0  0
    6.1641   53.6435   17.8293 C   0  0  0  0  0  0
    8.1781   55.3834   15.1386 N   0  3  0  0  0  0
    9.2996   55.3187   15.6354 O   0  0  0  0  0  0
    7.9627   55.8965   14.0421 O   0  5  0  0  0  0
   -0.5410   50.6585   21.1804 H   0  0  0  0  0  0
    0.2758   50.2159   22.6695 H   0  0  0  0  0  0
   -0.6157   51.7263   22.5726 H   0  0  0  0  0  0
    1.3482   51.5368   19.3428 H   0  0  0  0  0  0
    7.8086   56.0703   24.4885 H   0  0  0  0  0  0
    6.0268   54.8650   28.3181 H   0  0  0  0  0  0
    4.7039   54.3310   30.2848 H   0  0  0  0  0  0
    1.4818   52.9759   27.8164 H   0  0  0  0  0  0
    2.7537   53.5322   25.8135 H   0  0  0  0  0  0
    4.6777   53.5481   19.8182 H   0  0  0  0  0  0
    3.6623   54.4459   15.6672 H   0  0  0  0  0  0
    5.5422   55.3841   14.4352 H   0  0  0  0  0  0
    8.2277   54.0906   17.5452 H   0  0  0  0  0  0
    6.3684   53.1421   18.7644 H   0  0  0  0  0  0
  1  2  1  0  0  0
  1 36  1  0  0  0
  1 37  1  0  0  0
  1 38  1  0  0  0
  2  6  2  0  0  0
  2  3  1  0  0  0
  3  4  2  0  0  0
  3 39  1  0  0  0
  4  5  1  0  0  0
  4 24  1  0  0  0
  5  6  1  0  0  0
  5  7  1  0  0  0
  7 16  2  0  0  0
  7  8  1  0  0  0
  8  9  1  0  0  0
  9 10  2  0  0  0
  9 11  1  0  0  0
 11 15  2  0  0  0
 11 12  1  0  0  0
 12 13  2  0  0  0
 12 40  1  0  0  0
 13 14  1  0  0  0
 14 15  1  0  0  0
 14 17  1  0  0  0
 15 16  1  0  0  0
 17 22  2  0  0  0
 17 18  1  0  0  0
 18 19  2  0  0  0
 18 41  1  0  0  0
 19 20  1  0  0  0
 19 42  1  0  0  0
 20 21  2  0  0  0
 20 23  1  0  0  0
 21 22  1  0  0  0
 21 43  1  0  0  0
 22 44  1  0  0  0
 24 25  1  0  0  0
 24 45  1  0  0  0
 25 26  2  0  0  0
 25 27  1  0  0  0
 27 32  2  0  0  0
 27 28  1  0  0  0
 28 29  2  0  0  0
 28 46  1  0  0  0
 29 30  1  0  0  0
 29 47  1  0  0  0
 30 31  2  0  0  0
 30 33  1  0  0  0
 31 32  1  0  0  0
 31 48  1  0  0  0
 32 49  1  0  0  0
 33 34  2  0  0  0
 33 35  1  0  0  0
M  CHG  3   8  -1  33   1  35  -1
M  END
> <i_i_glide_confnum>
16

> <i_i_glide_lignum>
3314

> <i_i_glide_posenum>
156

> <i_i_glide_rotatable_bonds>
6

> <i_m_Source_File_Index>
5995

> <b_m_subgroup_collapsed>
0

> <r_i_docking_score>
-5.35847

> <r_i_glide_ecoul>
-2.24497

> <r_i_glide_eff_state_penalty>
0

> <r_i_glide_einternal>
1.07536

> <r_i_glide_emodel>
-62.5619

> <r_i_glide_energy>
-43.5263

> <r_i_glide_erotb>
0.451291

> <r_i_glide_esite>
-0.075368

> <r_i_glide_evdw>
-41.2814

> <r_i_glide_gscore>
-5.35847

> <r_i_glide_hbond>
-0.130865

> <r_i_glide_ligand_efficiency>
-0.153099

> <r_i_glide_ligand_efficiency_ln>
-1.1763

> <r_i_glide_ligand_efficiency_sa>
-0.500797

> <r_i_glide_lipo>
-1.94857

> <r_i_glide_metal>
0

> <r_i_glide_rewards>
-1.25415

> <s_i_glide_gridfile>
wee1_glide-grid

> <s_m_Source_File>
wee1_decoys_glide_SP.sdf

> <s_m_Source_Path>
/Users/zhangxujun/Desktop

> <s_m_entry_id>
6270

> <s_m_entry_name>
wee1_decoys_glide_SP.5995

> <s_m_subgroup_title>
wee1_decoys_glide_SP

> <s_m_subgroupid>
wee1_decoys_glide_SP


$$$$
