ZINC12367990_4266
                    3D
 Schrodinger Suite 2024-2.
 36 37  0  0  1  0            999 V2000
    3.6455   54.6274   27.7866 C   0  0  0  0  0  0
    4.8274   53.9269   28.0335 C   0  0  0  0  0  0
    4.8261   53.0078   29.0735 C   0  0  0  0  0  0
    3.7293   52.8246   29.9087 C   0  0  0  0  0  0
    2.5680   53.5567   29.6767 C   0  0  0  0  0  0
    2.5487   54.4867   28.6376 C   0  0  0  0  0  0
    1.1044   55.6969   28.4816 Br  0  0  0  0  0  0
    1.4782   53.4054   30.4927 O   0  0  0  0  0  0
    3.9043   51.6966   31.4332 Br  0  0  0  0  0  0
    6.1064   54.2105   27.3513 C   0  0  0  0  0  0
    6.3446   54.3967   26.1145 N   0  0  0  0  0  0
    5.3286   54.0969   25.2734 N   0  0  0  0  0  0
    5.2961   54.3404   23.9304 C   0  0  0  0  0  0
    6.6240   54.8967   23.0567 S   0  0  0  0  0  0
    4.0437   54.0701   23.4463 N   0  0  0  0  0  0
    3.4702   54.3189   22.1078 C   0  0  0  0  0  0
    4.2971   54.0635   20.8351 C   0  0  2  0  0  0
    5.0336   54.8493   20.6647 H   0  0  0  0  0  0
    3.5044   53.7153   19.5773 C   0  0  0  0  0  0
    4.4621   52.8570   18.8111 C   0  0  0  0  0  0
    5.1809   52.0967   19.9195 C   0  0  0  0  0  0
    4.9886   52.8492   21.0988 O   0  0  0  0  0  0
    3.6047   55.3526   26.9913 H   0  0  0  0  0  0
    5.7395   52.4967   29.2818 H   0  0  0  0  0  0
    0.7232   53.9259   30.2074 H   0  0  0  0  0  0
    6.9415   54.2764   28.0443 H   0  0  0  0  0  0
    4.5072   53.7290   25.7292 H   0  0  0  0  0  0
    3.3595   53.7716   24.1253 H   0  0  0  0  0  0
    2.5898   53.6791   22.0544 H   0  0  0  0  0  0
    3.0774   55.3212   22.0816 H   0  0  0  0  0  0
    2.5893   53.1758   19.8241 H   0  0  0  0  0  0
    3.1881   54.5951   19.0178 H   0  0  0  0  0  0
    3.9523   52.1937   18.1086 H   0  0  0  0  0  0
    5.1681   53.4698   18.2475 H   0  0  0  0  0  0
    4.7045   51.1297   20.0816 H   0  0  0  0  0  0
    6.2372   51.9869   19.6816 H   0  0  0  0  0  0
  1  6  2  0  0  0
  1  2  1  0  0  0
  1 23  1  0  0  0
  2  3  2  0  0  0
  2 10  1  0  0  0
  3  4  1  0  0  0
  3 24  1  0  0  0
  4  5  2  0  0  0
  4  9  1  0  0  0
  5  6  1  0  0  0
  5  8  1  0  0  0
  6  7  1  0  0  0
  8 25  1  0  0  0
 10 11  2  0  0  0
 10 26  1  0  0  0
 11 12  1  0  0  0
 12 13  1  0  0  0
 12 27  1  0  0  0
 13 14  2  0  0  0
 13 15  1  0  0  0
 15 16  1  0  0  0
 15 28  1  0  0  0
 16 17  1  0  0  0
 16 29  1  0  0  0
 16 30  1  0  0  0
 17 18  1  0  0  0
 17 22  1  0  0  0
 17 19  1  0  0  0
 19 20  1  0  0  0
 19 31  1  0  0  0
 19 32  1  0  0  0
 20 21  1  0  0  0
 20 33  1  0  0  0
 20 34  1  0  0  0
 21 22  1  0  0  0
 21 35  1  0  0  0
 21 36  1  0  0  0
M  END
> <i_i_glide_confnum>
51

> <i_i_glide_lignum>
4267

> <i_i_glide_posenum>
184

> <i_i_glide_rotatable_bonds>
7

> <i_m_Source_File_Index>
5141

> <b_m_subgroup_collapsed>
0

> <r_i_docking_score>
-5.01755

> <r_i_glide_ecoul>
-3.64057

> <r_i_glide_eff_state_penalty>
0

> <r_i_glide_einternal>
10.8777

> <r_i_glide_emodel>
-42.9428

> <r_i_glide_energy>
-36.8768

> <r_i_glide_erotb>
0.521685

> <r_i_glide_esite>
0

> <r_i_glide_evdw>
-33.2362

> <r_i_glide_gscore>
-5.01755

> <r_i_glide_hbond>
-0.0743548

> <r_i_glide_ligand_efficiency>
-0.238931

> <r_i_glide_ligand_efficiency_ln>
-1.24058

> <r_i_glide_ligand_efficiency_sa>
-0.659192

> <r_i_glide_lipo>
-1.63181

> <r_i_glide_metal>
0

> <r_i_glide_rewards>
-1.62517

> <s_i_glide_gridfile>
wee1_glide-grid

> <s_m_Source_File>
wee1_decoys_glide_SP.sdf

> <s_m_Source_Path>
/Users/zhangxujun/Desktop

> <s_m_entry_id>
5416

> <s_m_entry_name>
wee1_decoys_glide_SP.5141

> <s_m_subgroup_title>
wee1_decoys_glide_SP

> <s_m_subgroupid>
wee1_decoys_glide_SP


$$$$
