ZINC49546823_554
                    3D
 Schrodinger Suite 2024-2.
 52 55  0  0  1  0            999 V2000
   -0.9594   47.7388   21.7665 C   0  0  0  0  0  0
   -1.1702   47.8196   23.1712 O   0  0  0  0  0  0
   -0.8096   48.9889   23.8089 C   0  0  0  0  0  0
   -0.0349   48.8677   24.9614 C   0  0  0  0  0  0
    0.3031   49.9832   25.7239 C   0  0  0  0  0  0
   -0.1463   51.2529   25.3516 C   0  0  0  0  0  0
   -0.9341   51.3890   24.1894 C   0  0  0  0  0  0
   -1.2384   50.2646   23.3990 C   0  0  0  0  0  0
   -1.9904   50.4040   22.2530 O   0  0  0  0  0  0
   -1.3233   51.0515   21.1730 C   0  0  0  0  0  0
   -1.3755   52.6406   23.8109 O   0  0  0  0  0  0
   -2.7742   52.8662   23.9481 C   0  0  0  0  0  0
    0.1358   52.4842   26.2304 C   0  0  1  0  0  0
    0.0835   53.2967   25.5253 H   0  0  0  0  0  0
   -0.9785   52.6775   27.3148 C   0  0  0  0  0  0
   -0.6697   51.8329   28.5534 C   0  0  0  0  0  0
    0.4858   51.6967   29.0596 N   0  0  0  0  0  0
    1.5301   52.2108   28.3437 C   0  0  0  0  0  0
    1.4807   52.5976   26.9871 C   0  0  0  0  0  0
    2.6991   53.1341   26.5901 N   0  0  0  0  0  0
    3.5090   52.9682   27.6989 C   0  0  0  0  0  0
    2.8414   52.4179   28.7839 C   0  0  0  0  0  0
    3.4219   52.1025   30.0857 C   0  0  0  0  0  0
    2.7045   52.2317   31.0999 O   0  0  0  0  0  0
    4.6015   51.6982   30.0821 O   0  5  0  0  0  0
    3.1573   53.5682   25.3077 C   0  0  0  0  0  0
    4.3748   54.2644   25.2142 C   0  0  0  0  0  0
    4.9637   54.4967   23.9763 C   0  0  0  0  0  0
    4.3148   54.0969   22.8129 C   0  0  0  0  0  0
    3.0729   53.4752   22.8797 C   0  0  0  0  0  0
    2.5033   53.2011   24.1205 C   0  0  0  0  0  0
    5.0533   54.3947   21.2821 Cl  0  0  0  0  0  0
   -1.7504   51.2967   29.1923 O   0  0  0  0  0  0
   -1.7995   48.1630   21.2176 H   0  0  0  0  0  0
   -0.0413   48.2334   21.4466 H   0  0  0  0  0  0
   -0.8958   46.6901   21.4770 H   0  0  0  0  0  0
    0.2920   47.8896   25.2816 H   0  0  0  0  0  0
    0.8768   49.8462   26.6296 H   0  0  0  0  0  0
   -1.9074   50.9221   20.2623 H   0  0  0  0  0  0
   -1.2180   52.1228   21.3436 H   0  0  0  0  0  0
   -0.3318   50.6333   20.9913 H   0  0  0  0  0  0
   -2.9951   53.9032   23.6948 H   0  0  0  0  0  0
   -3.3625   52.2371   23.2804 H   0  0  0  0  0  0
   -3.1165   52.6940   24.9682 H   0  0  0  0  0  0
   -0.9011   53.7017   27.6793 H   0  0  0  0  0  0
   -1.9831   52.5013   26.9332 H   0  0  0  0  0  0
    4.5582   53.2139   27.6497 H   0  0  0  0  0  0
    4.9116   54.5917   26.0914 H   0  0  0  0  0  0
    5.9208   54.9945   23.9183 H   0  0  0  0  0  0
    2.5693   53.1722   21.9727 H   0  0  0  0  0  0
    1.5886   52.6410   24.1156 H   0  0  0  0  0  0
   -2.4563   51.1261   28.5679 H   0  0  0  0  0  0
  1  2  1  0  0  0
  1 34  1  0  0  0
  1 35  1  0  0  0
  1 36  1  0  0  0
  2  3  1  0  0  0
  3  8  2  0  0  0
  3  4  1  0  0  0
  4  5  2  0  0  0
  4 37  1  0  0  0
  5  6  1  0  0  0
  5 38  1  0  0  0
  6  7  2  0  0  0
  6 13  1  0  0  0
  7  8  1  0  0  0
  7 11  1  0  0  0
  8  9  1  0  0  0
  9 10  1  0  0  0
 10 39  1  0  0  0
 10 40  1  0  0  0
 10 41  1  0  0  0
 11 12  1  0  0  0
 12 42  1  0  0  0
 12 43  1  0  0  0
 12 44  1  0  0  0
 13 14  1  0  0  0
 13 19  1  0  0  0
 13 15  1  0  0  0
 15 16  1  0  0  0
 15 45  1  0  0  0
 15 46  1  0  0  0
 16 17  2  0  0  0
 16 33  1  0  0  0
 17 18  1  0  0  0
 18 22  1  0  0  0
 18 19  2  0  0  0
 19 20  1  0  0  0
 20 21  1  0  0  0
 20 26  1  0  0  0
 21 22  2  0  0  0
 21 47  1  0  0  0
 22 23  1  0  0  0
 23 24  2  0  0  0
 23 25  1  0  0  0
 26 31  2  0  0  0
 26 27  1  0  0  0
 27 28  2  0  0  0
 27 48  1  0  0  0
 28 29  1  0  0  0
 28 49  1  0  0  0
 29 30  2  0  0  0
 29 32  1  0  0  0
 30 31  1  0  0  0
 30 50  1  0  0  0
 31 51  1  0  0  0
 33 52  1  0  0  0
M  CHG  1  25  -1
M  END
> <i_i_glide_confnum>
4

> <i_i_glide_lignum>
555

> <i_i_glide_posenum>
22

> <i_i_glide_rotatable_bonds>
7

> <i_m_Source_File_Index>
2459

> <b_m_subgroup_collapsed>
0

> <r_i_docking_score>
-5.07668

> <r_i_glide_ecoul>
-3.31853

> <r_i_glide_eff_state_penalty>
0

> <r_i_glide_einternal>
9.48762

> <r_i_glide_emodel>
-42.6547

> <r_i_glide_energy>
-37.7353

> <r_i_glide_erotb>
0.193369

> <r_i_glide_esite>
-0.0502075

> <r_i_glide_evdw>
-34.4168

> <r_i_glide_gscore>
-5.07668

> <r_i_glide_hbond>
-0.153996

> <r_i_glide_ligand_efficiency>
-0.158646

> <r_i_glide_ligand_efficiency_ln>
-1.13681

> <r_i_glide_ligand_efficiency_sa>
-0.503671

> <r_i_glide_lipo>
-2.07102

> <r_i_glide_metal>
0

> <r_i_glide_rewards>
-0.776212

> <s_i_glide_gridfile>
wee1_glide-grid

> <s_m_Source_File>
wee1_decoys_glide_SP.sdf

> <s_m_Source_Path>
/Users/zhangxujun/Desktop

> <s_m_entry_id>
2734

> <s_m_entry_name>
wee1_decoys_glide_SP.2459

> <s_m_subgroup_title>
wee1_decoys_glide_SP

> <s_m_subgroupid>
wee1_decoys_glide_SP


$$$$
