ZINC20571416_3220
                    3D
 Schrodinger Suite 2024-2.
 52 56  0  0  1  0            999 V2000
   11.4362   50.5191   13.8978 C   0  0  0  0  0  0
    9.9783   50.8525   13.6430 C   0  0  0  0  0  0
    9.0980   51.0093   14.7136 C   0  0  0  0  0  0
    7.7584   51.2970   14.4700 C   0  0  0  0  0  0
    7.2966   51.4233   13.1581 C   0  0  0  0  0  0
    8.1833   51.2938   12.0871 C   0  0  0  0  0  0
    9.5235   51.0079   12.3325 C   0  0  0  0  0  0
    5.5521   51.7104   12.8627 S   0  0  0  0  0  0
    4.8021   50.7572   13.6844 O   0  0  0  0  0  0
    5.3509   51.7649   11.4106 O   0  0  0  0  0  0
    5.2144   53.3465   13.4605 N   0  0  0  0  0  0
    5.3505   53.7325   14.8011 C   0  0  0  0  0  0
    4.9061   52.9469   15.8687 C   0  0  0  0  0  0
    5.1135   53.3673   17.1815 C   0  0  0  0  0  0
    5.7516   54.5908   17.4469 C   0  0  0  0  0  0
    6.1582   55.3854   16.3660 C   0  0  0  0  0  0
    5.9572   54.9606   15.0568 C   0  0  0  0  0  0
    6.0659   55.0426   18.8577 C   0  0  0  0  0  0
    6.9280   55.9049   19.0390 O   0  0  0  0  0  0
    5.3244   54.4942   19.8468 N   0  0  0  0  0  0
    5.5036   54.6533   21.2144 C   0  0  0  0  0  0
    4.5825   54.2546   22.0475 N   0  0  0  0  0  0
    4.9842   54.3974   23.3412 C   0  0  0  0  0  0
    4.2071   54.0922   24.4693 C   0  0  0  0  0  0
    4.8071   54.1883   25.7258 C   0  0  0  0  0  0
    6.1271   54.6450   25.8753 C   0  0  0  0  0  0
    6.8810   55.0296   24.7734 C   0  0  0  0  0  0
    6.3045   54.8967   23.5080 C   0  0  0  0  0  0
    6.9759   55.2969   21.9408 S   0  0  0  0  0  0
    6.7806   54.6525   27.0907 O   0  0  0  0  0  0
    5.9525   54.3857   28.2295 C   0  0  0  0  0  0
    4.8357   53.3669   27.9187 C   0  0  0  0  0  0
    4.0469   53.8211   26.8150 O   0  0  0  0  0  0
   11.7325   50.7401   14.9235 H   0  0  0  0  0  0
   11.6280   49.4667   13.6860 H   0  0  0  0  0  0
   12.0790   51.1078   13.2427 H   0  0  0  0  0  0
    9.4420   50.8935   15.7317 H   0  0  0  0  0  0
    7.0766   51.3890   15.3032 H   0  0  0  0  0  0
    7.8386   51.3939   11.0682 H   0  0  0  0  0  0
   10.2114   50.8913   11.5062 H   0  0  0  0  0  0
    5.3439   54.0713   12.7731 H   0  0  0  0  0  0
    4.4168   51.9979   15.7057 H   0  0  0  0  0  0
    4.7970   52.7049   17.9762 H   0  0  0  0  0  0
    6.6533   56.3330   16.5311 H   0  0  0  0  0  0
    6.2969   55.5857   14.2433 H   0  0  0  0  0  0
    4.4869   54.0029   19.5746 H   0  0  0  0  0  0
    3.1957   53.7291   24.3701 H   0  0  0  0  0  0
    7.8960   55.3787   24.8813 H   0  0  0  0  0  0
    6.5890   54.0233   29.0355 H   0  0  0  0  0  0
    5.4934   55.3047   28.5771 H   0  0  0  0  0  0
    5.3021   52.4174   27.6681 H   0  0  0  0  0  0
    4.1970   53.2079   28.7873 H   0  0  0  0  0  0
  1  2  1  0  0  0
  1 34  1  0  0  0
  1 35  1  0  0  0
  1 36  1  0  0  0
  2  7  2  0  0  0
  2  3  1  0  0  0
  3  4  2  0  0  0
  3 37  1  0  0  0
  4  5  1  0  0  0
  4 38  1  0  0  0
  5  6  2  0  0  0
  5  8  1  0  0  0
  6  7  1  0  0  0
  6 39  1  0  0  0
  7 40  1  0  0  0
  8  9  2  0  0  0
  8 10  2  0  0  0
  8 11  1  0  0  0
 11 12  1  0  0  0
 11 41  1  0  0  0
 12 17  2  0  0  0
 12 13  1  0  0  0
 13 14  2  0  0  0
 13 42  1  0  0  0
 14 15  1  0  0  0
 14 43  1  0  0  0
 15 16  2  0  0  0
 15 18  1  0  0  0
 16 17  1  0  0  0
 16 44  1  0  0  0
 17 45  1  0  0  0
 18 19  2  0  0  0
 18 20  1  0  0  0
 20 21  1  0  0  0
 20 46  1  0  0  0
 21 29  1  0  0  0
 21 22  2  0  0  0
 22 23  1  0  0  0
 23 28  2  0  0  0
 23 24  1  0  0  0
 24 25  2  0  0  0
 24 47  1  0  0  0
 25 33  1  0  0  0
 25 26  1  0  0  0
 26 27  2  0  0  0
 26 30  1  0  0  0
 27 28  1  0  0  0
 27 48  1  0  0  0
 28 29  1  0  0  0
 30 31  1  0  0  0
 31 32  1  0  0  0
 31 49  1  0  0  0
 31 50  1  0  0  0
 32 33  1  0  0  0
 32 51  1  0  0  0
 32 52  1  0  0  0
M  END
> <i_i_glide_confnum>
116

> <i_i_glide_lignum>
3221

> <i_i_glide_posenum>
197

> <i_i_glide_rotatable_bonds>
6

> <i_m_Source_File_Index>
3640

> <b_m_subgroup_collapsed>
0

> <r_i_docking_score>
-3.81855

> <r_i_glide_ecoul>
-2.59074

> <r_i_glide_eff_state_penalty>
0

> <r_i_glide_einternal>
4.57554

> <r_i_glide_emodel>
-44.2638

> <r_i_glide_energy>
-39.0499

> <r_i_glide_erotb>
0.524923

> <r_i_glide_esite>
-0.0424027

> <r_i_glide_evdw>
-36.4592

> <r_i_glide_gscore>
-3.81855

> <r_i_glide_hbond>
-0.0602465

> <r_i_glide_ligand_efficiency>
-0.115714

> <r_i_glide_ligand_efficiency_ln>
-0.849227

> <r_i_glide_ligand_efficiency_sa>
-0.371156

> <r_i_glide_lipo>
-2.30279

> <r_i_glide_metal>
0

> <r_i_glide_rewards>
0.273538

> <s_i_glide_gridfile>
wee1_glide-grid

> <s_m_Source_File>
wee1_decoys_glide_SP.sdf

> <s_m_Source_Path>
/Users/zhangxujun/Desktop

> <s_m_entry_id>
3915

> <s_m_entry_name>
wee1_decoys_glide_SP.3640

> <s_m_subgroup_title>
wee1_decoys_glide_SP

> <s_m_subgroupid>
wee1_decoys_glide_SP


$$$$
