ZINC29851615_4841
                    3D
 Schrodinger Suite 2024-2.
 55 57  0  0  1  0            999 V2000
    7.1034   54.1349   24.7284 C   0  0  0  0  0  0
    5.6769   54.5697   24.4065 C   0  0  2  0  0  0
    5.7257   55.5717   23.9853 H   0  0  0  0  0  0
    4.8951   54.6306   25.7521 C   0  0  0  0  0  0
    5.3884   55.2927   26.6613 O   0  0  0  0  0  0
    3.7229   53.9617   25.8581 N   0  0  0  0  0  0
    2.8475   53.7894   26.9495 C   0  0  0  0  0  0
    3.2186   54.0674   28.2763 C   0  0  0  0  0  0
    2.3288   53.8343   29.3236 C   0  0  0  0  0  0
    1.0674   53.3085   29.0687 C   0  0  0  0  0  0
    0.6886   53.0256   27.7584 C   0  0  0  0  0  0
    1.5566   53.2751   26.6841 C   0  0  0  0  0  0
    1.0788   52.9718   25.2527 C   0  0  0  0  0  0
    1.0943   54.0691   24.4969 F   0  0  0  0  0  0
    1.8996   52.0970   24.6874 F   0  0  0  0  0  0
   -0.1546   52.4660   25.2101 F   0  0  0  0  0  0
    4.9133   53.7267   23.3378 N   0  3  0  0  0  0
    3.7055   54.4667   22.7266 C   0  0  0  0  0  0
    2.9104   53.4172   21.9405 C   0  0  0  0  0  0
    3.6809   52.9703   20.7745 N   0  0  0  0  0  0
    5.0028   52.4306   21.1431 C   0  0  0  0  0  0
    5.8137   53.2660   22.1722 C   0  0  0  0  0  0
    3.0852   52.5976   19.5743 C   0  0  0  0  0  0
    1.9175   51.8267   19.6148 C   0  0  0  0  0  0
    1.3272   51.3543   18.4477 C   0  0  0  0  0  0
    1.8909   51.6441   17.2048 C   0  0  0  0  0  0
    3.0509   52.4206   17.1530 C   0  0  0  0  0  0
    3.6658   52.9037   18.3189 C   0  0  0  0  0  0
    4.8427   53.8045   18.1739 N   0  3  0  0  0  0
    5.0745   54.6502   19.0358 O   0  0  0  0  0  0
    5.5204   53.7126   17.1533 O   0  5  0  0  0  0
    1.2440   51.1095   15.9282 C   0  0  0  0  0  0
    0.7942   49.8673   16.1099 F   0  0  0  0  0  0
    0.2106   51.8911   15.6150 F   0  0  0  0  0  0
    2.0905   51.1001   14.8957 F   0  0  0  0  0  0
    7.6056   54.9026   25.3116 H   0  0  0  0  0  0
    7.1084   53.2064   25.2971 H   0  0  0  0  0  0
    7.6976   54.0121   23.8257 H   0  0  0  0  0  0
    3.3747   53.5377   25.0149 H   0  0  0  0  0  0
    4.1973   54.4461   28.5287 H   0  0  0  0  0  0
    2.6216   54.0536   30.3377 H   0  0  0  0  0  0
    0.3843   53.1154   29.8853 H   0  0  0  0  0  0
   -0.2970   52.6148   27.5899 H   0  0  0  0  0  0
    3.1009   54.8894   23.5233 H   0  0  0  0  0  0
    4.0524   55.2857   22.0910 H   0  0  0  0  0  0
    2.6972   52.5435   22.5541 H   0  0  0  0  0  0
    1.9313   53.8126   21.6782 H   0  0  0  0  0  0
    5.5982   52.1652   20.2670 H   0  0  0  0  0  0
    4.7454   51.4904   21.6329 H   0  0  0  0  0  0
    6.2852   54.1525   21.7400 H   0  0  0  0  0  0
    6.5385   52.6096   22.6478 H   0  0  0  0  0  0
    1.4740   51.5629   20.5638 H   0  0  0  0  0  0
    0.4333   50.7500   18.5129 H   0  0  0  0  0  0
    3.4847   52.6503   16.1897 H   0  0  0  0  0  0
    4.5787   52.8971   23.8071 H   0  0  0  0  0  0
  1  2  1  0  0  0
  1 36  1  0  0  0
  1 37  1  0  0  0
  1 38  1  0  0  0
  2  3  1  0  0  0
  2  4  1  0  0  0
  2 17  1  0  0  0
  4  5  2  0  0  0
  4  6  1  0  0  0
  6  7  1  0  0  0
  6 39  1  0  0  0
  7 12  2  0  0  0
  7  8  1  0  0  0
  8  9  2  0  0  0
  8 40  1  0  0  0
  9 10  1  0  0  0
  9 41  1  0  0  0
 10 11  2  0  0  0
 10 42  1  0  0  0
 11 12  1  0  0  0
 11 43  1  0  0  0
 12 13  1  0  0  0
 13 14  1  0  0  0
 13 15  1  0  0  0
 13 16  1  0  0  0
 17 22  1  0  0  0
 17 18  1  0  0  0
 17 55  1  0  0  0
 18 19  1  0  0  0
 18 44  1  0  0  0
 18 45  1  0  0  0
 19 20  1  0  0  0
 19 46  1  0  0  0
 19 47  1  0  0  0
 20 21  1  0  0  0
 20 23  1  0  0  0
 21 22  1  0  0  0
 21 48  1  0  0  0
 21 49  1  0  0  0
 22 50  1  0  0  0
 22 51  1  0  0  0
 23 28  2  0  0  0
 23 24  1  0  0  0
 24 25  2  0  0  0
 24 52  1  0  0  0
 25 26  1  0  0  0
 25 53  1  0  0  0
 26 27  2  0  0  0
 26 32  1  0  0  0
 27 28  1  0  0  0
 27 54  1  0  0  0
 28 29  1  0  0  0
 29 30  2  0  0  0
 29 31  1  0  0  0
 32 33  1  0  0  0
 32 34  1  0  0  0
 32 35  1  0  0  0
M  CHG  3  17   1  29   1  31  -1
M  END
> <i_i_glide_confnum>
95

> <i_i_glide_lignum>
4842

> <i_i_glide_posenum>
323

> <i_i_glide_rotatable_bonds>
8

> <i_m_Source_File_Index>
3240

> <b_m_subgroup_collapsed>
0

> <r_i_docking_score>
-3.64354

> <r_i_glide_ecoul>
2.56436

> <r_i_glide_eff_state_penalty>
0

> <r_i_glide_einternal>
12.8534

> <r_i_glide_emodel>
-28.84

> <r_i_glide_energy>
-28.4359

> <r_i_glide_erotb>
0.421511

> <r_i_glide_esite>
-0.167397

> <r_i_glide_evdw>
-31.0003

> <r_i_glide_gscore>
-3.64354

> <r_i_glide_hbond>
0

> <r_i_glide_ligand_efficiency>
-0.107163

> <r_i_glide_ligand_efficiency_ln>
-0.80496

> <r_i_glide_ligand_efficiency_sa>
-0.347166

> <r_i_glide_lipo>
-1.80344

> <r_i_glide_metal>
0

> <r_i_glide_rewards>
-0.928853

> <s_i_glide_gridfile>
wee1_glide-grid

> <s_m_Source_File>
wee1_decoys_glide_SP.sdf

> <s_m_Source_Path>
/Users/zhangxujun/Desktop

> <s_m_entry_id>
3515

> <s_m_entry_name>
wee1_decoys_glide_SP.3240

> <s_m_subgroup_title>
wee1_decoys_glide_SP

> <s_m_subgroupid>
wee1_decoys_glide_SP


$$$$
