ZINC39503378_3941
                    3D
 Schrodinger Suite 2024-2.
 57 61  0  0  1  0            999 V2000
    5.0970   54.0646   21.0937 C   0  0  0  0  0  0
    5.4903   54.0734   19.7582 C   0  0  0  0  0  0
    4.8000   53.2967   18.8305 C   0  0  0  0  0  0
    3.7086   52.5187   19.2293 C   0  0  0  0  0  0
    3.2765   52.5428   20.5639 C   0  0  0  0  0  0
    4.0005   53.3015   21.4947 C   0  0  0  0  0  0
    1.9876   51.8281   20.9867 C   0  0  2  0  0  0
    1.5966   51.2130   20.1759 H   0  0  0  0  0  0
    0.8668   52.8237   21.3014 C   0  0  0  0  0  0
    0.0165   52.1864   22.3827 C   0  0  0  0  0  0
    1.0318   51.4471   23.2681 C   0  0  1  0  0  0
    2.0588   50.9083   22.2237 C   0  0  0  0  0  0
    1.7192   52.4360   24.2425 C   0  0  0  0  0  0
    0.9204   52.4569   25.5220 C   0  0  1  0  0  0
    0.1043   53.1706   25.4241 H   0  0  0  0  0  0
    0.3218   51.0542   25.4779 C   0  0  0  0  0  0
    0.3746   50.4517   24.1348 N   0  0  0  0  0  0
   -0.3388   49.2674   23.7854 C   0  0  0  0  0  0
   -0.6301   48.9432   22.4461 C   0  0  0  0  0  0
   -1.4085   47.8371   22.1054 C   0  0  0  0  0  0
   -1.9050   47.0012   23.0990 C   0  0  0  0  0  0
   -1.5948   47.2574   24.4297 C   0  0  0  0  0  0
   -0.8088   48.3603   24.7649 C   0  0  0  0  0  0
   -0.4986   48.5310   26.0810 O   0  0  0  0  0  0
    1.6178   52.8447   26.8498 C   0  0  0  0  0  0
    1.1128   52.3133   28.0490 C   0  0  0  0  0  0
    1.7386   52.5571   29.2696 C   0  0  0  0  0  0
    2.8729   53.3623   29.3184 C   0  0  0  0  0  0
    3.3697   53.9330   28.1495 C   0  0  0  0  0  0
    2.7525   53.6830   26.9216 C   0  0  0  0  0  0
    3.3090   54.2726   25.8171 O   0  0  0  0  0  0
    3.1042   51.7040   18.3052 O   0  0  0  0  0  0
    5.6362   54.6572   21.8191 H   0  0  0  0  0  0
    6.3388   54.6630   19.4424 H   0  0  0  0  0  0
    5.1272   53.2716   17.8012 H   0  0  0  0  0  0
    3.7006   53.3347   22.5289 H   0  0  0  0  0  0
    1.2946   53.7225   21.7446 H   0  0  0  0  0  0
    0.3087   53.1126   20.4113 H   0  0  0  0  0  0
   -0.5535   52.9182   22.9541 H   0  0  0  0  0  0
   -0.7260   51.5421   21.9229 H   0  0  0  0  0  0
    1.7711   49.9013   21.9333 H   0  0  0  0  0  0
    3.0667   50.8126   22.6217 H   0  0  0  0  0  0
    2.7050   52.0508   24.4822 H   0  0  0  0  0  0
    1.9375   53.4244   23.8443 H   0  0  0  0  0  0
    0.9261   50.4319   26.1389 H   0  0  0  0  0  0
   -0.6898   51.0954   25.8870 H   0  0  0  0  0  0
   -0.2861   49.5487   21.6272 H   0  0  0  0  0  0
   -1.6267   47.6329   21.0668 H   0  0  0  0  0  0
   -2.5130   46.1487   22.8347 H   0  0  0  0  0  0
   -1.9501   46.5947   25.2043 H   0  0  0  0  0  0
   -1.0312   48.1002   26.7691 H   0  0  0  0  0  0
    0.2382   51.6778   28.0430 H   0  0  0  0  0  0
    1.3442   52.1093   30.1714 H   0  0  0  0  0  0
    3.3712   53.5430   30.2580 H   0  0  0  0  0  0
    4.2468   54.5617   28.2049 H   0  0  0  0  0  0
    4.1111   54.7527   26.0309 H   0  0  0  0  0  0
    3.7721   51.1048   17.9308 H   0  0  0  0  0  0
  1  6  2  0  0  0
  1  2  1  0  0  0
  1 33  1  0  0  0
  2  3  2  0  0  0
  2 34  1  0  0  0
  3  4  1  0  0  0
  3 35  1  0  0  0
  4  5  2  0  0  0
  4 32  1  0  0  0
  5  6  1  0  0  0
  5  7  1  0  0  0
  6 36  1  0  0  0
  7  8  1  0  0  0
  7 12  1  0  0  0
  7  9  1  0  0  0
  9 10  1  0  0  0
  9 37  1  0  0  0
  9 38  1  0  0  0
 10 11  1  0  0  0
 10 39  1  0  0  0
 10 40  1  0  0  0
 11 17  1  0  0  0
 11 12  1  0  0  0
 11 13  1  0  0  0
 12 41  1  0  0  0
 12 42  1  0  0  0
 13 14  1  0  0  0
 13 43  1  0  0  0
 13 44  1  0  0  0
 14 15  1  0  0  0
 14 16  1  0  0  0
 14 25  1  0  0  0
 16 17  1  0  0  0
 16 45  1  0  0  0
 16 46  1  0  0  0
 17 18  1  0  0  0
 18 23  2  0  0  0
 18 19  1  0  0  0
 19 20  2  0  0  0
 19 47  1  0  0  0
 20 21  1  0  0  0
 20 48  1  0  0  0
 21 22  2  0  0  0
 21 49  1  0  0  0
 22 23  1  0  0  0
 22 50  1  0  0  0
 23 24  1  0  0  0
 24 51  1  0  0  0
 25 30  2  0  0  0
 25 26  1  0  0  0
 26 27  2  0  0  0
 26 52  1  0  0  0
 27 28  1  0  0  0
 27 53  1  0  0  0
 28 29  2  0  0  0
 28 54  1  0  0  0
 29 30  1  0  0  0
 29 55  1  0  0  0
 30 31  1  0  0  0
 31 56  1  0  0  0
 32 57  1  0  0  0
M  END
> <i_i_glide_confnum>
74

> <i_i_glide_lignum>
3942

> <i_i_glide_posenum>
191

> <i_i_glide_rotatable_bonds>
6

> <i_m_Source_File_Index>
4245

> <b_m_subgroup_collapsed>
0

> <r_i_docking_score>
-4.59837

> <r_i_glide_ecoul>
-5.66778

> <r_i_glide_eff_state_penalty>
0

> <r_i_glide_einternal>
10.8188

> <r_i_glide_emodel>
-40.1034

> <r_i_glide_energy>
-32.6316

> <r_i_glide_erotb>
0.365036

> <r_i_glide_esite>
0

> <r_i_glide_evdw>
-26.9638

> <r_i_glide_gscore>
-4.59837

> <r_i_glide_hbond>
-0.30724

> <r_i_glide_ligand_efficiency>
-0.153279

> <r_i_glide_ligand_efficiency_ln>
-1.0448

> <r_i_glide_ligand_efficiency_sa>
-0.476273

> <r_i_glide_lipo>
-1.73186

> <r_i_glide_metal>
0

> <r_i_glide_rewards>
-0.72595

> <s_i_glide_gridfile>
wee1_glide-grid

> <s_m_Source_File>
wee1_decoys_glide_SP.sdf

> <s_m_Source_Path>
/Users/zhangxujun/Desktop

> <s_m_entry_id>
4520

> <s_m_entry_name>
wee1_decoys_glide_SP.4245

> <s_m_subgroup_title>
wee1_decoys_glide_SP

> <s_m_subgroupid>
wee1_decoys_glide_SP


$$$$
