ZINC39970884_5512
                    3D
 Schrodinger Suite 2024-2.
 65 68  0  0  1  0            999 V2000
    1.9487   53.9669   22.9385 C   0  0  0  0  0  0
    3.3360   54.0926   23.5272 C   0  0  0  0  0  0
    4.5862   53.9382   22.9081 C   0  0  0  0  0  0
    5.5346   54.0968   23.9228 C   0  0  0  0  0  0
    4.7834   54.3404   25.0532 N   0  0  0  0  0  0
    3.4681   54.3752   24.7996 N   0  0  0  0  0  0
    5.2651   54.6204   26.4122 C   0  0  0  0  0  0
    4.4598   54.0326   27.5736 C   0  0  0  0  0  0
    5.0214   53.0266   28.3622 C   0  0  0  0  0  0
    4.3030   52.4930   29.4281 C   0  0  0  0  0  0
    3.0267   52.9663   29.7119 C   0  0  0  0  0  0
    2.4622   53.9788   28.9419 C   0  0  0  0  0  0
    3.1798   54.5123   27.8742 C   0  0  0  0  0  0
    2.3370   52.4429   30.7496 F   0  0  0  0  0  0
    7.0490   54.0127   23.9406 C   0  0  0  0  0  0
    4.7706   53.5774   21.5805 N   0  0  0  0  0  0
    5.5040   54.2341   20.6288 C   0  0  0  0  0  0
    6.3063   55.6964   20.8481 S   0  0  0  0  0  0
    5.4878   53.5208   19.4614 N   0  0  0  0  0  0
    6.1251   53.6842   18.2192 C   0  0  0  0  0  0
    5.3928   53.2997   17.0951 C   0  0  0  0  0  0
    5.9952   53.2794   15.8425 C   0  0  0  0  0  0
    7.3375   53.6362   15.7155 C   0  0  0  0  0  0
    8.0703   54.0478   16.8309 C   0  0  0  0  0  0
    7.4641   54.0749   18.0833 C   0  0  0  0  0  0
    8.1337   53.4732   14.1217 S   0  0  0  0  0  0
    7.1363   53.8868   13.1284 O   0  0  0  0  0  0
    9.4219   54.1716   14.2056 O   0  0  0  0  0  0
    8.4173   51.7093   13.9484 N   0  0  0  0  0  0
    9.1846   51.0754   15.0558 C   0  0  0  0  0  0
   10.6912   51.4226   14.9785 C   0  0  0  0  0  0
   11.2778   51.1782   13.5598 C   0  0  0  0  0  0
   10.3671   51.6738   12.4033 C   0  0  0  0  0  0
    8.9194   51.1872   12.6387 C   0  0  2  0  0  0
    8.9490   50.0977   12.7095 H   0  0  0  0  0  0
    7.9273   51.5211   11.5105 C   0  0  0  0  0  0
    1.9711   53.6966   21.8836 H   0  0  0  0  0  0
    1.3630   53.2021   23.4490 H   0  0  0  0  0  0
    1.3905   54.8971   23.0141 H   0  0  0  0  0  0
    5.3128   55.6968   26.5209 H   0  0  0  0  0  0
    6.2962   54.2765   26.4898 H   0  0  0  0  0  0
    6.0078   52.6438   28.1429 H   0  0  0  0  0  0
    4.7302   51.7055   30.0303 H   0  0  0  0  0  0
    1.4719   54.3443   29.1704 H   0  0  0  0  0  0
    2.7377   55.2987   27.2806 H   0  0  0  0  0  0
    7.4568   53.6998   22.9807 H   0  0  0  0  0  0
    7.5002   54.9761   24.1773 H   0  0  0  0  0  0
    7.4119   53.2966   24.6752 H   0  0  0  0  0  0
    4.1140   52.8927   21.2362 H   0  0  0  0  0  0
    4.8567   52.7318   19.4509 H   0  0  0  0  0  0
    4.3683   52.9680   17.1918 H   0  0  0  0  0  0
    5.4317   52.9464   14.9827 H   0  0  0  0  0  0
    9.1144   54.3110   16.7392 H   0  0  0  0  0  0
    8.0613   54.3374   18.9433 H   0  0  0  0  0  0
    8.6920   51.2497   16.0129 H   0  0  0  0  0  0
    9.1181   49.9949   14.9114 H   0  0  0  0  0  0
   10.8540   52.4572   15.2789 H   0  0  0  0  0  0
   11.2402   50.8268   15.7087 H   0  0  0  0  0  0
   12.2668   51.6322   13.4775 H   0  0  0  0  0  0
   11.4374   50.1060   13.4305 H   0  0  0  0  0  0
   10.4124   52.7615   12.3578 H   0  0  0  0  0  0
   10.7502   51.2945   11.4544 H   0  0  0  0  0  0
    8.1581   50.9367   10.6202 H   0  0  0  0  0  0
    6.8989   51.2921   11.7922 H   0  0  0  0  0  0
    7.9798   52.5684   11.2138 H   0  0  0  0  0  0
  1  2  1  0  0  0
  1 37  1  0  0  0
  1 38  1  0  0  0
  1 39  1  0  0  0
  2  6  2  0  0  0
  2  3  1  0  0  0
  3  4  2  0  0  0
  3 16  1  0  0  0
  4  5  1  0  0  0
  4 15  1  0  0  0
  5  6  1  0  0  0
  5  7  1  0  0  0
  7  8  1  0  0  0
  7 40  1  0  0  0
  7 41  1  0  0  0
  8 13  2  0  0  0
  8  9  1  0  0  0
  9 10  2  0  0  0
  9 42  1  0  0  0
 10 11  1  0  0  0
 10 43  1  0  0  0
 11 12  2  0  0  0
 11 14  1  0  0  0
 12 13  1  0  0  0
 12 44  1  0  0  0
 13 45  1  0  0  0
 15 46  1  0  0  0
 15 47  1  0  0  0
 15 48  1  0  0  0
 16 17  1  0  0  0
 16 49  1  0  0  0
 17 18  2  0  0  0
 17 19  1  0  0  0
 19 20  1  0  0  0
 19 50  1  0  0  0
 20 25  2  0  0  0
 20 21  1  0  0  0
 21 22  2  0  0  0
 21 51  1  0  0  0
 22 23  1  0  0  0
 22 52  1  0  0  0
 23 24  2  0  0  0
 23 26  1  0  0  0
 24 25  1  0  0  0
 24 53  1  0  0  0
 25 54  1  0  0  0
 26 27  2  0  0  0
 26 28  2  0  0  0
 26 29  1  0  0  0
 29 34  1  0  0  0
 29 30  1  0  0  0
 30 31  1  0  0  0
 30 55  1  0  0  0
 30 56  1  0  0  0
 31 32  1  0  0  0
 31 57  1  0  0  0
 31 58  1  0  0  0
 32 33  1  0  0  0
 32 59  1  0  0  0
 32 60  1  0  0  0
 33 34  1  0  0  0
 33 61  1  0  0  0
 33 62  1  0  0  0
 34 35  1  0  0  0
 34 36  1  0  0  0
 36 63  1  0  0  0
 36 64  1  0  0  0
 36 65  1  0  0  0
M  END
> <i_i_glide_confnum>
26

> <i_i_glide_lignum>
5513

> <i_i_glide_posenum>
334

> <i_i_glide_rotatable_bonds>
8

> <i_m_Source_File_Index>
260

> <b_m_subgroup_collapsed>
0

> <r_i_docking_score>
-3.81891

> <r_i_glide_ecoul>
-2.27247

> <r_i_glide_eff_state_penalty>
0

> <r_i_glide_einternal>
6.08028

> <r_i_glide_emodel>
-49.0541

> <r_i_glide_energy>
-46.2283

> <r_i_glide_erotb>
0.61736

> <r_i_glide_esite>
-0.0901218

> <r_i_glide_evdw>
-43.9558

> <r_i_glide_gscore>
-3.81891

> <r_i_glide_hbond>
0

> <r_i_glide_ligand_efficiency>
-0.109112

> <r_i_glide_ligand_efficiency_ln>
-0.838336

> <r_i_glide_ligand_efficiency_sa>
-0.356912

> <r_i_glide_lipo>
-2.7665

> <r_i_glide_metal>
0

> <r_i_glide_rewards>
0.959009

> <s_i_glide_gridfile>
wee1_glide-grid

> <s_m_Source_File>
wee1_decoys_glide_SP.sdf

> <s_m_Source_Path>
/Users/zhangxujun/Desktop

> <s_m_entry_id>
535

> <s_m_entry_name>
wee1_decoys_glide_SP.260

> <s_m_subgroup_title>
wee1_decoys_glide_SP

> <s_m_subgroupid>
wee1_decoys_glide_SP


$$$$
