ZINC13028806_512
                    3D
 Schrodinger Suite 2024-2.
 54 56  0  0  1  0            999 V2000
    1.3459   52.5339   27.4293 C   0  0  0  0  0  0
    2.5495   53.2598   26.8450 C   0  0  0  0  0  0
    3.5967   53.5748   27.7163 C   0  0  0  0  0  0
    4.7649   54.1672   27.2464 C   0  0  0  0  0  0
    4.9093   54.4858   25.8905 C   0  0  0  0  0  0
    3.8346   54.2177   25.0302 C   0  0  0  0  0  0
    2.6677   53.5811   25.4755 C   0  0  0  0  0  0
    1.4169   53.1698   24.2250 S   0  0  0  0  0  0
    0.1345   52.8969   24.8802 O   0  0  0  0  0  0
    1.5037   54.1800   23.1660 O   0  0  0  0  0  0
    1.9038   51.6085   23.5442 N   0  0  0  0  0  0
    2.1849   51.3889   22.1849 C   0  0  0  0  0  0
    1.4813   50.3499   21.5659 C   0  0  0  0  0  0
    1.7344   50.0063   20.2368 C   0  0  0  0  0  0
    2.7044   50.7007   19.5236 C   0  0  0  0  0  0
    3.3940   51.7490   20.1192 C   0  0  0  0  0  0
    3.1525   52.1098   21.4550 C   0  0  0  0  0  0
    3.8585   53.1160   22.0844 O   0  0  0  0  0  0
    4.6549   54.0028   21.3021 C   0  0  0  0  0  0
    0.8741   48.6476   19.4547 S   0  0  0  0  0  0
    1.9050   47.6908   19.0465 O   0  0  0  0  0  0
   -0.2016   48.2402   20.3660 O   0  0  0  0  0  0
    0.1237   49.3092   17.9882 N   0  0  0  0  0  0
    1.0231   49.6139   16.8437 C   0  0  0  0  0  0
    0.2059   49.6738   15.5387 C   0  0  0  0  0  0
   -0.9847   50.6537   15.6548 C   0  0  0  0  0  0
   -1.8262   50.4110   16.9285 C   0  0  0  0  0  0
   -0.9519   50.3088   18.1974 C   0  0  0  0  0  0
    6.1912   55.0695   25.3726 C   0  0  0  0  0  0
    6.2918   55.2964   24.1469 O   0  0  0  0  0  0
    1.5165   52.2088   28.4563 H   0  0  0  0  0  0
    0.4652   53.1761   27.4151 H   0  0  0  0  0  0
    1.1233   51.6356   26.8524 H   0  0  0  0  0  0
    3.5248   53.3313   28.7661 H   0  0  0  0  0  0
    5.5661   54.3652   27.9458 H   0  0  0  0  0  0
    3.9205   54.4868   23.9898 H   0  0  0  0  0  0
    1.5287   50.8173   24.0446 H   0  0  0  0  0  0
    0.7472   49.7923   22.1300 H   0  0  0  0  0  0
    2.9697   50.4173   18.5147 H   0  0  0  0  0  0
    4.1480   52.2424   19.5248 H   0  0  0  0  0  0
    5.0458   54.8010   21.9306 H   0  0  0  0  0  0
    5.5055   53.4886   20.8560 H   0  0  0  0  0  0
    4.0670   54.4748   20.5127 H   0  0  0  0  0  0
    1.4283   50.6165   16.9784 H   0  0  0  0  0  0
    1.8316   48.8819   16.7791 H   0  0  0  0  0  0
    0.8526   49.9690   14.7110 H   0  0  0  0  0  0
   -0.1582   48.6747   15.2936 H   0  0  0  0  0  0
   -1.6172   50.5813   14.7685 H   0  0  0  0  0  0
   -0.6026   51.6760   15.6704 H   0  0  0  0  0  0
   -2.3996   49.4891   16.8145 H   0  0  0  0  0  0
   -2.5615   51.2079   17.0463 H   0  0  0  0  0  0
   -1.5556   50.0368   19.0638 H   0  0  0  0  0  0
   -0.4894   51.2880   18.3337 H   0  0  0  0  0  0
    7.1044   55.2967   26.1968 O   0  5  0  0  0  0
  1  2  1  0  0  0
  1 31  1  0  0  0
  1 32  1  0  0  0
  1 33  1  0  0  0
  2  7  2  0  0  0
  2  3  1  0  0  0
  3  4  2  0  0  0
  3 34  1  0  0  0
  4  5  1  0  0  0
  4 35  1  0  0  0
  5  6  2  0  0  0
  5 29  1  0  0  0
  6  7  1  0  0  0
  6 36  1  0  0  0
  7  8  1  0  0  0
  8  9  2  0  0  0
  8 10  2  0  0  0
  8 11  1  0  0  0
 11 12  1  0  0  0
 11 37  1  0  0  0
 12 17  2  0  0  0
 12 13  1  0  0  0
 13 14  2  0  0  0
 13 38  1  0  0  0
 14 15  1  0  0  0
 14 20  1  0  0  0
 15 16  2  0  0  0
 15 39  1  0  0  0
 16 17  1  0  0  0
 16 40  1  0  0  0
 17 18  1  0  0  0
 18 19  1  0  0  0
 19 41  1  0  0  0
 19 42  1  0  0  0
 19 43  1  0  0  0
 20 21  2  0  0  0
 20 22  2  0  0  0
 20 23  1  0  0  0
 23 28  1  0  0  0
 23 24  1  0  0  0
 24 25  1  0  0  0
 24 44  1  0  0  0
 24 45  1  0  0  0
 25 26  1  0  0  0
 25 46  1  0  0  0
 25 47  1  0  0  0
 26 27  1  0  0  0
 26 48  1  0  0  0
 26 49  1  0  0  0
 27 28  1  0  0  0
 27 50  1  0  0  0
 27 51  1  0  0  0
 28 52  1  0  0  0
 28 53  1  0  0  0
 29 30  2  0  0  0
 29 54  1  0  0  0
M  CHG  1  54  -1
M  END
> <i_i_glide_confnum>
83

> <i_i_glide_lignum>
513

> <i_i_glide_posenum>
190

> <i_i_glide_rotatable_bonds>
7

> <i_m_Source_File_Index>
2576

> <b_m_subgroup_collapsed>
0

> <r_i_docking_score>
-4.23909

> <r_i_glide_ecoul>
-6.45385

> <r_i_glide_eff_state_penalty>
0

> <r_i_glide_einternal>
13.7249

> <r_i_glide_emodel>
-46.1935

> <r_i_glide_energy>
-41.6679

> <r_i_glide_erotb>
0.461662

> <r_i_glide_esite>
-0.0806859

> <r_i_glide_evdw>
-35.214

> <r_i_glide_gscore>
-4.23909

> <r_i_glide_hbond>
-0.16

> <r_i_glide_ligand_efficiency>
-0.136745

> <r_i_glide_ligand_efficiency_ln>
-0.956046

> <r_i_glide_ligand_efficiency_sa>
-0.429568

> <r_i_glide_lipo>
-1.77525

> <r_i_glide_metal>
0

> <r_i_glide_rewards>
0.0439557

> <s_i_glide_gridfile>
wee1_glide-grid

> <s_m_Source_File>
wee1_decoys_glide_SP.sdf

> <s_m_Source_Path>
/Users/zhangxujun/Desktop

> <s_m_entry_id>
2851

> <s_m_entry_name>
wee1_decoys_glide_SP.2576

> <s_m_subgroup_title>
wee1_decoys_glide_SP

> <s_m_subgroupid>
wee1_decoys_glide_SP


$$$$
