ZINC09442708_2291
                    3D
 Schrodinger Suite 2024-2.
 54 58  0  0  1  0            999 V2000
    8.2994   55.6969   20.3499 C   0  0  0  0  0  0
    7.8835   55.3519   21.6658 O   0  0  0  0  0  0
    6.5881   54.9301   21.8841 C   0  0  0  0  0  0
    6.2805   54.5101   23.1767 C   0  0  0  0  0  0
    4.9917   54.0904   23.4968 C   0  0  0  0  0  0
    3.9877   54.0887   22.5175 C   0  0  0  0  0  0
    4.3045   54.4836   21.2184 C   0  0  0  0  0  0
    5.5939   54.8965   20.8970 C   0  0  0  0  0  0
    2.5314   53.7118   22.8483 C   0  0  2  0  0  0
    1.8889   54.1450   22.0812 H   0  0  0  0  0  0
    2.0149   54.1409   24.2182 C   0  0  0  0  0  0
    1.6851   52.8210   24.8637 C   0  0  0  0  0  0
    1.8232   51.8501   24.0610 N   0  0  0  0  0  0
    2.3039   52.2612   22.8618 N   0  0  0  0  0  0
    2.3625   51.4221   21.7919 C   0  0  0  0  0  0
    2.5815   51.8279   20.6519 O   0  0  0  0  0  0
    2.2000   49.9020   21.9962 C   0  0  0  0  0  0
    0.5063   49.3145   21.6603 S   0  0  0  0  0  0
    0.7080   48.5095   20.0982 C   0  0  0  0  0  0
   -0.0603   47.5283   19.6816 N   0  0  0  0  0  0
    0.2988   47.0310   18.4313 N   0  0  0  0  0  0
    1.3092   47.6838   17.9212 C   0  0  0  0  0  0
    1.9055   48.9685   18.9184 S   0  0  0  0  0  0
    1.9057   47.4258   16.7260 N   0  0  0  0  0  0
    1.2343   52.6918   26.2605 C   0  0  0  0  0  0
    0.5277   51.5524   26.6664 C   0  0  0  0  0  0
    0.0703   51.4181   27.9727 C   0  0  0  0  0  0
    0.2985   52.4430   28.9169 C   0  0  0  0  0  0
   -0.1696   52.3461   30.2475 C   0  0  0  0  0  0
    0.0477   53.3859   31.1430 C   0  0  0  0  0  0
    0.7047   54.5449   30.7432 C   0  0  0  0  0  0
    1.2138   54.6567   29.4528 C   0  0  0  0  0  0
    1.0181   53.6086   28.5166 C   0  0  0  0  0  0
    1.5070   53.6963   27.1942 C   0  0  0  0  0  0
    9.3445   56.0077   20.3732 H   0  0  0  0  0  0
    8.2255   54.8452   19.6750 H   0  0  0  0  0  0
    7.7182   56.5266   19.9459 H   0  0  0  0  0  0
    7.0488   54.5125   23.9346 H   0  0  0  0  0  0
    4.7814   53.7646   24.5041 H   0  0  0  0  0  0
    3.5458   54.4810   20.4493 H   0  0  0  0  0  0
    5.7939   55.2042   19.8827 H   0  0  0  0  0  0
    2.7489   54.7067   24.7880 H   0  0  0  0  0  0
    1.1073   54.7352   24.1266 H   0  0  0  0  0  0
    2.4567   49.6240   23.0185 H   0  0  0  0  0  0
    2.9459   49.3751   21.4020 H   0  0  0  0  0  0
    1.5874   46.7008   16.1042 H   0  0  0  0  0  0
    2.7641   47.9301   16.4810 H   0  0  0  0  0  0
    0.3174   50.7536   25.9679 H   0  0  0  0  0  0
   -0.4775   50.5300   28.2612 H   0  0  0  0  0  0
   -0.7104   51.4684   30.5676 H   0  0  0  0  0  0
   -0.3278   53.2974   32.1523 H   0  0  0  0  0  0
    0.8344   55.3553   31.4440 H   0  0  0  0  0  0
    1.7382   55.5500   29.1491 H   0  0  0  0  0  0
    2.0748   54.5702   26.9217 H   0  0  0  0  0  0
  1  2  1  0  0  0
  1 35  1  0  0  0
  1 36  1  0  0  0
  1 37  1  0  0  0
  2  3  1  0  0  0
  3  8  2  0  0  0
  3  4  1  0  0  0
  4  5  2  0  0  0
  4 38  1  0  0  0
  5  6  1  0  0  0
  5 39  1  0  0  0
  6  7  2  0  0  0
  6  9  1  0  0  0
  7  8  1  0  0  0
  7 40  1  0  0  0
  8 41  1  0  0  0
  9 10  1  0  0  0
  9 14  1  0  0  0
  9 11  1  0  0  0
 11 12  1  0  0  0
 11 42  1  0  0  0
 11 43  1  0  0  0
 12 13  2  0  0  0
 12 25  1  0  0  0
 13 14  1  0  0  0
 14 15  1  0  0  0
 15 16  2  0  0  0
 15 17  1  0  0  0
 17 18  1  0  0  0
 17 44  1  0  0  0
 17 45  1  0  0  0
 18 19  1  0  0  0
 19 23  1  0  0  0
 19 20  2  0  0  0
 20 21  1  0  0  0
 21 22  2  0  0  0
 22 23  1  0  0  0
 22 24  1  0  0  0
 24 46  1  0  0  0
 24 47  1  0  0  0
 25 34  2  0  0  0
 25 26  1  0  0  0
 26 27  2  0  0  0
 26 48  1  0  0  0
 27 28  1  0  0  0
 27 49  1  0  0  0
 28 33  2  0  0  0
 28 29  1  0  0  0
 29 30  2  0  0  0
 29 50  1  0  0  0
 30 31  1  0  0  0
 30 51  1  0  0  0
 31 32  2  0  0  0
 31 52  1  0  0  0
 32 33  1  0  0  0
 32 53  1  0  0  0
 33 34  1  0  0  0
 34 54  1  0  0  0
M  END
> <i_i_glide_confnum>
115

> <i_i_glide_lignum>
2292

> <i_i_glide_posenum>
329

> <i_i_glide_rotatable_bonds>
7

> <i_m_Source_File_Index>
30

> <b_m_subgroup_collapsed>
0

> <r_i_docking_score>
-6.58195

> <r_i_glide_ecoul>
-5.50375

> <r_i_glide_eff_state_penalty>
0

> <r_i_glide_einternal>
6.33213

> <r_i_glide_emodel>
-69.2131

> <r_i_glide_energy>
-50.2543

> <r_i_glide_erotb>
0.537001

> <r_i_glide_esite>
-0.11004

> <r_i_glide_evdw>
-44.7505

> <r_i_glide_gscore>
-6.58195

> <r_i_glide_hbond>
-0.16

> <r_i_glide_ligand_efficiency>
-0.199453

> <r_i_glide_ligand_efficiency_ln>
-1.46379

> <r_i_glide_ligand_efficiency_sa>
-0.639753

> <r_i_glide_lipo>
-3.12413

> <r_i_glide_metal>
0

> <r_i_glide_rewards>
-0.661697

> <s_i_glide_gridfile>
wee1_glide-grid

> <s_m_Source_File>
wee1_decoys_glide_SP.sdf

> <s_m_Source_Path>
/Users/zhangxujun/Desktop

> <s_m_entry_id>
305

> <s_m_entry_name>
wee1_decoys_glide_SP.30

> <s_m_subgroup_title>
wee1_decoys_glide_SP

> <s_m_subgroupid>
wee1_decoys_glide_SP


$$$$
