ZINC39684185_5551
                    3D
 Schrodinger Suite 2024-2.
 67 71  0  0  1  0            999 V2000
    1.0206   45.1465   16.2082 C   0  0  0  0  0  0
    0.3909   45.7436   17.4523 C   0  0  0  0  0  0
   -0.7592   45.1530   17.9877 C   0  0  0  0  0  0
   -1.3880   45.6379   19.1314 C   0  0  0  0  0  0
   -0.8929   46.7499   19.8063 C   0  0  0  0  0  0
    0.2608   47.3848   19.3208 C   0  0  0  0  0  0
    1.0313   48.5226   19.7560 C   0  0  0  0  0  0
    2.0885   48.6057   18.8816 C   0  0  0  0  0  0
    1.9714   47.6653   17.8971 N   0  0  0  0  0  0
    0.8805   46.8624   18.1425 C   0  0  0  0  0  0
    0.7802   49.4043   20.9542 C   0  0  0  0  0  0
    1.2816   50.8586   20.7691 C   0  0  0  0  0  0
    1.1620   51.6239   22.0023 N   0  0  0  0  0  0
    0.0041   52.0963   22.4952 C   0  0  0  0  0  0
   -1.0435   52.0967   21.8478 O   0  0  0  0  0  0
   -0.0455   52.5114   23.9862 C   0  0  2  0  0  0
   -0.7879   53.3073   24.0680 H   0  0  0  0  0  0
    1.2868   53.1191   24.4753 C   0  0  0  0  0  0
    1.2644   52.8512   25.9188 N   0  0  0  0  0  0
    0.1845   51.9224   26.2877 C   0  0  0  0  0  0
   -0.3339   51.3346   24.9551 C   0  0  0  0  0  0
   -1.8321   50.9378   24.9618 C   0  0  0  0  0  0
   -2.1329   49.8495   26.0081 C   0  0  0  0  0  0
   -1.2758   48.6054   25.6817 N   0  3  0  0  0  0
    0.2351   48.8975   25.5992 C   0  0  0  0  0  0
    0.4345   50.0249   24.5791 C   0  0  0  0  0  0
    2.1925   53.3992   26.7528 C   0  0  0  0  0  0
    3.0992   54.1234   26.3360 O   0  0  0  0  0  0
    2.1031   53.1115   28.1747 C   0  0  0  0  0  0
    0.9295   53.1673   28.9369 C   0  0  0  0  0  0
    1.1604   52.7155   30.5905 S   0  0  0  0  0  0
    2.8628   52.5656   30.3186 C   0  0  0  0  0  0
    3.2239   52.8859   29.0101 C   0  0  0  0  0  0
    4.5273   52.8958   28.5891 O   0  0  0  0  0  0
    5.1945   54.1200   28.8812 C   0  0  0  0  0  0
    3.8970   52.0964   31.6109 Cl  0  0  0  0  0  0
    0.4381   44.3174   15.8020 H   0  0  0  0  0  0
    1.1145   45.9055   15.4320 H   0  0  0  0  0  0
    2.0168   44.7728   16.4412 H   0  0  0  0  0  0
   -1.1857   44.2879   17.5024 H   0  0  0  0  0  0
   -2.2778   45.1450   19.4960 H   0  0  0  0  0  0
   -1.3913   47.1181   20.6891 H   0  0  0  0  0  0
    2.9234   49.2937   18.8805 H   0  0  0  0  0  0
    2.6442   47.6091   17.1417 H   0  0  0  0  0  0
    1.2720   48.9531   21.8178 H   0  0  0  0  0  0
   -0.2889   49.4258   21.1753 H   0  0  0  0  0  0
    0.7570   51.3498   19.9443 H   0  0  0  0  0  0
    2.3381   50.8624   20.4946 H   0  0  0  0  0  0
    2.0029   51.7226   22.5499 H   0  0  0  0  0  0
    1.3602   54.1822   24.2367 H   0  0  0  0  0  0
    2.1508   52.5728   24.0964 H   0  0  0  0  0  0
    0.4314   51.1693   27.0349 H   0  0  0  0  0  0
   -0.6285   52.5275   26.6883 H   0  0  0  0  0  0
   -2.4362   51.8143   25.2029 H   0  0  0  0  0  0
   -2.1638   50.6291   23.9687 H   0  0  0  0  0  0
   -1.8766   50.1418   27.0274 H   0  0  0  0  0  0
   -3.1724   49.5177   25.9925 H   0  0  0  0  0  0
   -1.4121   47.9486   26.4456 H   0  0  0  0  0  0
    0.5712   49.1229   26.6104 H   0  0  0  0  0  0
    0.7046   47.9668   25.2810 H   0  0  0  0  0  0
    0.1194   49.6530   23.6070 H   0  0  0  0  0  0
    1.5040   50.2194   24.4825 H   0  0  0  0  0  0
   -0.0678   53.4111   28.6050 H   0  0  0  0  0  0
    6.2714   53.9686   28.8130 H   0  0  0  0  0  0
    4.9231   54.8945   28.1621 H   0  0  0  0  0  0
    4.9798   54.5008   29.8819 H   0  0  0  0  0  0
   -1.6010   48.1660   24.8320 H   0  0  0  0  0  0
  1 37  1  0  0  0
  1 38  1  0  0  0
  1 39  1  0  0  0
  1  2  1  0  0  0
  2 10  2  0  0  0
  2  3  1  0  0  0
  3 40  1  0  0  0
  3  4  2  0  0  0
  4 41  1  0  0  0
  4  5  1  0  0  0
  5 42  1  0  0  0
  5  6  2  0  0  0
  6 10  1  0  0  0
  6  7  1  0  0  0
  7 11  1  0  0  0
  7  8  2  0  0  0
  8  9  1  0  0  0
  8 43  1  0  0  0
  9 44  1  0  0  0
  9 10  1  0  0  0
 11 12  1  0  0  0
 11 45  1  0  0  0
 11 46  1  0  0  0
 12 13  1  0  0  0
 12 47  1  0  0  0
 12 48  1  0  0  0
 13 14  1  0  0  0
 13 49  1  0  0  0
 14 15  2  0  0  0
 14 16  1  0  0  0
 16 17  1  0  0  0
 16 21  1  0  0  0
 16 18  1  0  0  0
 18 19  1  0  0  0
 18 50  1  0  0  0
 18 51  1  0  0  0
 19 20  1  0  0  0
 19 27  1  0  0  0
 20 21  1  0  0  0
 20 52  1  0  0  0
 20 53  1  0  0  0
 21 26  1  0  0  0
 21 22  1  0  0  0
 22 23  1  0  0  0
 22 54  1  0  0  0
 22 55  1  0  0  0
 23 24  1  0  0  0
 23 56  1  0  0  0
 23 57  1  0  0  0
 24 25  1  0  0  0
 24 58  1  0  0  0
 24 67  1  0  0  0
 25 26  1  0  0  0
 25 59  1  0  0  0
 25 60  1  0  0  0
 26 61  1  0  0  0
 26 62  1  0  0  0
 27 28  2  0  0  0
 27 29  1  0  0  0
 29 33  1  0  0  0
 29 30  2  0  0  0
 30 31  1  0  0  0
 30 63  1  0  0  0
 31 32  1  0  0  0
 32 33  2  0  0  0
 32 36  1  0  0  0
 33 34  1  0  0  0
 34 35  1  0  0  0
 35 64  1  0  0  0
 35 65  1  0  0  0
 35 66  1  0  0  0
M  CHG  1  24   1
M  END
> <i_i_glide_confnum>
311

> <i_i_glide_lignum>
5552

> <i_i_glide_posenum>
249

> <i_i_glide_rotatable_bonds>
8

> <i_m_Source_File_Index>
3539

> <b_m_subgroup_collapsed>
0

> <r_i_docking_score>
-4.93677

> <r_i_glide_ecoul>
-8.04869

> <r_i_glide_eff_state_penalty>
0

> <r_i_glide_einternal>
10.2372

> <r_i_glide_emodel>
-64.6921

> <r_i_glide_energy>
-51.117

> <r_i_glide_erotb>
0.539407

> <r_i_glide_esite>
-0.191276

> <r_i_glide_evdw>
-43.0683

> <r_i_glide_gscore>
-4.93677

> <r_i_glide_hbond>
-0.155237

> <r_i_glide_ligand_efficiency>
-0.14105

> <r_i_glide_ligand_efficiency_ln>
-1.08373

> <r_i_glide_ligand_efficiency_sa>
-0.461385

> <r_i_glide_lipo>
-1.27396

> <r_i_glide_metal>
0

> <r_i_glide_rewards>
-0.494984

> <s_i_glide_gridfile>
wee1_glide-grid

> <s_m_Source_File>
wee1_decoys_glide_SP.sdf

> <s_m_Source_Path>
/Users/zhangxujun/Desktop

> <s_m_entry_id>
3814

> <s_m_entry_name>
wee1_decoys_glide_SP.3539

> <s_m_subgroup_title>
wee1_decoys_glide_SP

> <s_m_subgroupid>
wee1_decoys_glide_SP


$$$$
