ZINC09080737_3102
                    3D
 Schrodinger Suite 2024-2.
 61 63  0  0  1  0            999 V2000
    3.1210   51.7745   18.9631 C   0  0  0  0  0  0
    3.3570   52.1894   20.3499 N   0  0  0  0  0  0
    4.1515   53.4044   20.5264 C   0  0  0  0  0  0
    2.4455   51.7803   21.3605 C   0  0  0  0  0  0
    1.6124   50.6675   21.1624 C   0  0  0  0  0  0
    0.7023   50.2703   22.1332 C   0  0  0  0  0  0
    0.6055   50.9707   23.3363 C   0  0  0  0  0  0
    1.4500   52.0587   23.5692 C   0  0  0  0  0  0
    2.3512   52.4625   22.5867 C   0  0  0  0  0  0
   -0.4489   50.5342   24.3507 C   0  0  1  0  0  0
   -1.2649   50.1559   23.7371 H   0  0  0  0  0  0
    0.0351   49.4139   25.3132 C   0  0  0  0  0  0
   -1.0343   48.4804   25.6814 N   0  0  0  0  0  0
   -1.6706   47.6894   24.7840 C   0  0  0  0  0  0
   -1.2579   47.5541   23.6288 O   0  0  0  0  0  0
   -2.9550   47.0477   25.1982 C   0  0  0  0  0  0
   -3.6543   46.4701   24.3565 O   0  0  0  0  0  0
   -3.2946   47.1683   26.5101 N   0  0  0  0  0  0
   -4.5158   46.6768   27.0158 N   0  0  0  0  0  0
   -4.8117   45.3525   27.0092 C   0  0  0  0  0  0
   -4.0962   44.4965   26.4817 O   0  0  0  0  0  0
   -6.1249   44.9574   27.6590 C   0  0  0  0  0  0
   -6.5989   43.6443   27.5096 C   0  0  0  0  0  0
   -7.8097   43.2567   28.0784 C   0  0  0  0  0  0
   -8.5556   44.1760   28.8092 C   0  0  0  0  0  0
   -8.1016   45.4813   28.9731 C   0  0  0  0  0  0
   -6.8929   45.8733   28.4016 C   0  0  0  0  0  0
   -1.2817   51.9748   25.2744 S   0  0  0  0  0  0
   -0.3758   52.4665   26.3205 O   0  0  0  0  0  0
   -1.8143   52.8980   24.2667 O   0  0  0  0  0  0
   -2.7023   51.2480   26.0892 C   0  0  0  0  0  0
   -2.6318   50.9005   27.4403 C   0  0  0  0  0  0
   -3.7419   50.3445   28.0691 C   0  0  0  0  0  0
   -4.9098   50.1242   27.3436 C   0  0  0  0  0  0
   -4.9834   50.4688   25.9948 C   0  0  0  0  0  0
   -3.8775   51.0338   25.3645 C   0  0  0  0  0  0
   -5.9756   49.5530   27.9480 F   0  0  0  0  0  0
    3.1044   50.6898   18.8595 H   0  0  0  0  0  0
    3.8942   52.1418   18.2877 H   0  0  0  0  0  0
    2.1629   52.1589   18.6119 H   0  0  0  0  0  0
    3.5050   54.2832   20.5409 H   0  0  0  0  0  0
    4.7019   53.3837   21.4681 H   0  0  0  0  0  0
    4.8801   53.5334   19.7236 H   0  0  0  0  0  0
    1.6491   50.0907   20.2509 H   0  0  0  0  0  0
    0.0679   49.4154   21.9436 H   0  0  0  0  0  0
    1.4043   52.6113   24.4961 H   0  0  0  0  0  0
    2.9675   53.3227   22.7984 H   0  0  0  0  0  0
    0.8439   48.8343   24.8583 H   0  0  0  0  0  0
    0.4620   49.8464   26.2197 H   0  0  0  0  0  0
   -1.3173   48.4968   26.6649 H   0  0  0  0  0  0
   -2.6559   47.4772   27.2387 H   0  0  0  0  0  0
   -4.8367   47.2549   27.7780 H   0  0  0  0  0  0
   -6.0346   42.9103   26.9495 H   0  0  0  0  0  0
   -8.1664   42.2441   27.9600 H   0  0  0  0  0  0
   -9.4913   43.8705   29.2564 H   0  0  0  0  0  0
   -8.6868   46.1889   29.5429 H   0  0  0  0  0  0
   -6.5765   46.8964   28.5473 H   0  0  0  0  0  0
   -1.7210   51.0450   28.0062 H   0  0  0  0  0  0
   -3.6787   50.0516   29.1087 H   0  0  0  0  0  0
   -5.8939   50.2915   25.4425 H   0  0  0  0  0  0
   -3.9333   51.2995   24.3181 H   0  0  0  0  0  0
  1  2  1  0  0  0
  1 38  1  0  0  0
  1 39  1  0  0  0
  1 40  1  0  0  0
  2  3  1  0  0  0
  2  4  1  0  0  0
  3 41  1  0  0  0
  3 42  1  0  0  0
  3 43  1  0  0  0
  4  9  2  0  0  0
  4  5  1  0  0  0
  5  6  2  0  0  0
  5 44  1  0  0  0
  6  7  1  0  0  0
  6 45  1  0  0  0
  7  8  2  0  0  0
  7 10  1  0  0  0
  8  9  1  0  0  0
  8 46  1  0  0  0
  9 47  1  0  0  0
 10 11  1  0  0  0
 10 12  1  0  0  0
 10 28  1  0  0  0
 12 13  1  0  0  0
 12 48  1  0  0  0
 12 49  1  0  0  0
 13 14  1  0  0  0
 13 50  1  0  0  0
 14 15  2  0  0  0
 14 16  1  0  0  0
 16 17  2  0  0  0
 16 18  1  0  0  0
 18 19  1  0  0  0
 18 51  1  0  0  0
 19 20  1  0  0  0
 19 52  1  0  0  0
 20 21  2  0  0  0
 20 22  1  0  0  0
 22 27  2  0  0  0
 22 23  1  0  0  0
 23 24  2  0  0  0
 23 53  1  0  0  0
 24 25  1  0  0  0
 24 54  1  0  0  0
 25 26  2  0  0  0
 25 55  1  0  0  0
 26 27  1  0  0  0
 26 56  1  0  0  0
 27 57  1  0  0  0
 28 29  2  0  0  0
 28 30  2  0  0  0
 28 31  1  0  0  0
 31 36  2  0  0  0
 31 32  1  0  0  0
 32 33  2  0  0  0
 32 58  1  0  0  0
 33 34  1  0  0  0
 33 59  1  0  0  0
 34 35  2  0  0  0
 34 37  1  0  0  0
 35 36  1  0  0  0
 35 60  1  0  0  0
 36 61  1  0  0  0
M  END
> <i_i_glide_confnum>
100

> <i_i_glide_lignum>
3103

> <i_i_glide_posenum>
348

> <i_i_glide_rotatable_bonds>
12

> <i_m_Source_File_Index>
142

> <b_m_subgroup_collapsed>
0

> <r_i_docking_score>
-4.54735

> <r_i_glide_ecoul>
-15.9417

> <r_i_glide_eff_state_penalty>
0

> <r_i_glide_einternal>
10.7307

> <r_i_glide_emodel>
-60.0537

> <r_i_glide_energy>
-48.2235

> <r_i_glide_erotb>
0.780336

> <r_i_glide_esite>
-0.46192

> <r_i_glide_evdw>
-32.2818

> <r_i_glide_gscore>
-4.54735

> <r_i_glide_hbond>
-0.455804

> <r_i_glide_ligand_efficiency>
-0.126315

> <r_i_glide_ligand_efficiency_ln>
-0.99211

> <r_i_glide_ligand_efficiency_sa>
-0.417084

> <r_i_glide_lipo>
-0.413625

> <r_i_glide_metal>
0

> <r_i_glide_rewards>
0.00900894

> <s_i_glide_gridfile>
wee1_glide-grid

> <s_m_Source_File>
wee1_decoys_glide_SP.sdf

> <s_m_Source_Path>
/Users/zhangxujun/Desktop

> <s_m_entry_id>
417

> <s_m_entry_name>
wee1_decoys_glide_SP.142

> <s_m_subgroup_title>
wee1_decoys_glide_SP

> <s_m_subgroupid>
wee1_decoys_glide_SP


$$$$
