ZINC38752825_4074
                    3D
 Schrodinger Suite 2024-2.
 64 67  0  0  1  0            999 V2000
   11.6671   51.9415   16.6639 C   0  0  0  0  0  0
   10.3833   52.7333   16.8722 C   0  0  0  0  0  0
    9.1544   52.0758   16.7572 C   0  0  0  0  0  0
    7.9612   52.7734   16.9219 C   0  0  0  0  0  0
    7.9774   54.1346   17.2207 C   0  0  0  0  0  0
    9.2049   54.7956   17.3486 C   0  0  0  0  0  0
   10.4101   54.1060   17.1708 C   0  0  0  0  0  0
   11.7288   54.8598   17.2871 C   0  0  0  0  0  0
    6.7541   54.8139   17.2577 N   0  0  0  0  0  0
    6.2360   55.8645   18.5890 S   0  0  0  0  0  0
    5.0261   56.5485   18.1182 O   0  0  0  0  0  0
    7.3960   56.6384   19.0425 O   0  0  0  0  0  0
    5.7073   54.8037   19.9443 C   0  0  0  0  0  0
    6.2405   55.0635   21.2132 C   0  0  0  0  0  0
    5.7826   54.3856   22.3506 C   0  0  0  0  0  0
    4.7802   53.4196   22.1845 C   0  0  0  0  0  0
    4.2794   53.1150   20.9246 C   0  0  0  0  0  0
    4.7262   53.8032   19.7951 C   0  0  0  0  0  0
    4.0926   53.4487   18.4574 C   0  0  0  0  0  0
    6.3307   54.7402   23.7158 C   0  0  0  0  0  0
    7.0755   55.6974   23.8742 O   0  0  0  0  0  0
    5.9280   53.9899   24.7456 N   0  0  0  0  0  0
    6.1939   54.2311   26.1618 C   0  0  0  0  0  0
    4.9617   54.1293   27.0606 C   0  0  0  0  0  0
    3.7216   53.6894   26.5737 C   0  0  0  0  0  0
    2.6301   53.5709   27.4234 C   0  0  0  0  0  0
    2.7691   53.9227   28.7642 C   0  0  0  0  0  0
    3.9921   54.3858   29.2579 C   0  0  0  0  0  0
    5.0841   54.4912   28.4044 C   0  0  0  0  0  0
    1.6731   53.7844   29.6262 N   0  0  0  0  0  0
    0.9775   52.6045   29.8578 C   0  0  0  0  0  0
    0.0116   52.8448   30.8184 C   0  0  0  0  0  0
    0.1185   54.1788   31.1647 N   0  3  0  0  0  0
    1.0808   54.7824   30.3863 C   0  0  0  0  0  0
    1.4033   56.2669   30.3688 C   0  0  0  0  0  0
   12.2882   51.9759   17.5585 H   0  0  0  0  0  0
   11.4755   50.8940   16.4305 H   0  0  0  0  0  0
   12.2506   52.3635   15.8459 H   0  0  0  0  0  0
    9.1194   51.0205   16.5310 H   0  0  0  0  0  0
    7.0241   52.2468   16.8182 H   0  0  0  0  0  0
    9.2270   55.8548   17.5509 H   0  0  0  0  0  0
   12.2904   54.7951   16.3536 H   0  0  0  0  0  0
   11.5891   55.9145   17.5280 H   0  0  0  0  0  0
   12.3490   54.4228   18.0695 H   0  0  0  0  0  0
    5.9840   54.3760   16.7742 H   0  0  0  0  0  0
    6.9994   55.8223   21.3258 H   0  0  0  0  0  0
    4.3577   52.9048   23.0315 H   0  0  0  0  0  0
    3.5125   52.3602   20.8320 H   0  0  0  0  0  0
    3.1520   52.9121   18.5910 H   0  0  0  0  0  0
    3.8457   54.3339   17.8754 H   0  0  0  0  0  0
    4.7584   52.8176   17.8691 H   0  0  0  0  0  0
    5.5073   53.1023   24.5294 H   0  0  0  0  0  0
    6.6537   55.2072   26.3238 H   0  0  0  0  0  0
    6.9295   53.4989   26.4958 H   0  0  0  0  0  0
    3.5948   53.4048   25.5418 H   0  0  0  0  0  0
    1.6887   53.2104   27.0357 H   0  0  0  0  0  0
    4.1136   54.6474   30.2960 H   0  0  0  0  0  0
    6.0259   54.8489   28.7925 H   0  0  0  0  0  0
    1.2428   51.6974   29.3340 H   0  0  0  0  0  0
   -0.7247   52.1928   31.2794 H   0  0  0  0  0  0
    1.5781   56.6227   29.3537 H   0  0  0  0  0  0
    0.6054   56.8812   30.7804 H   0  0  0  0  0  0
    2.2953   56.5188   30.9410 H   0  0  0  0  0  0
   -0.4437   54.6464   31.8659 H   0  0  0  0  0  0
  1  2  1  0  0  0
  1 36  1  0  0  0
  1 37  1  0  0  0
  1 38  1  0  0  0
  2  7  2  0  0  0
  2  3  1  0  0  0
  3  4  2  0  0  0
  3 39  1  0  0  0
  4  5  1  0  0  0
  4 40  1  0  0  0
  5  6  2  0  0  0
  5  9  1  0  0  0
  6  7  1  0  0  0
  6 41  1  0  0  0
  7  8  1  0  0  0
  8 42  1  0  0  0
  8 43  1  0  0  0
  8 44  1  0  0  0
  9 10  1  0  0  0
  9 45  1  0  0  0
 10 11  2  0  0  0
 10 12  2  0  0  0
 10 13  1  0  0  0
 13 18  2  0  0  0
 13 14  1  0  0  0
 14 15  2  0  0  0
 14 46  1  0  0  0
 15 16  1  0  0  0
 15 20  1  0  0  0
 16 17  2  0  0  0
 16 47  1  0  0  0
 17 18  1  0  0  0
 17 48  1  0  0  0
 18 19  1  0  0  0
 19 49  1  0  0  0
 19 50  1  0  0  0
 19 51  1  0  0  0
 20 21  2  0  0  0
 20 22  1  0  0  0
 22 23  1  0  0  0
 22 52  1  0  0  0
 23 24  1  0  0  0
 23 53  1  0  0  0
 23 54  1  0  0  0
 24 29  2  0  0  0
 24 25  1  0  0  0
 25 26  2  0  0  0
 25 55  1  0  0  0
 26 27  1  0  0  0
 26 56  1  0  0  0
 27 28  2  0  0  0
 27 30  1  0  0  0
 28 29  1  0  0  0
 28 57  1  0  0  0
 29 58  1  0  0  0
 30 34  1  0  0  0
 30 31  1  0  0  0
 31 32  2  0  0  0
 31 59  1  0  0  0
 32 33  1  0  0  0
 32 60  1  0  0  0
 33 34  2  0  0  0
 33 64  1  0  0  0
 34 35  1  0  0  0
 35 61  1  0  0  0
 35 62  1  0  0  0
 35 63  1  0  0  0
M  CHG  1  33   1
M  END
> <i_i_glide_confnum>
131

> <i_i_glide_lignum>
4075

> <i_i_glide_posenum>
216

> <i_i_glide_rotatable_bonds>
8

> <i_m_Source_File_Index>
772

> <b_m_subgroup_collapsed>
0

> <r_i_docking_score>
-5.27024

> <r_i_glide_ecoul>
-1.00625

> <r_i_glide_eff_state_penalty>
0

> <r_i_glide_einternal>
6.72807

> <r_i_glide_emodel>
-64.4664

> <r_i_glide_energy>
-50.8426

> <r_i_glide_erotb>
0.678955

> <r_i_glide_esite>
-0.00715766

> <r_i_glide_evdw>
-49.8363

> <r_i_glide_gscore>
-5.27024

> <r_i_glide_hbond>
0

> <r_i_glide_ligand_efficiency>
-0.150578

> <r_i_glide_ligand_efficiency_ln>
-1.15694

> <r_i_glide_ligand_efficiency_sa>
-0.492552

> <r_i_glide_lipo>
-2.96223

> <r_i_glide_metal>
0

> <r_i_glide_rewards>
-0.337051

> <s_i_glide_gridfile>
wee1_glide-grid

> <s_m_Source_File>
wee1_decoys_glide_SP.sdf

> <s_m_Source_Path>
/Users/zhangxujun/Desktop

> <s_m_entry_id>
1047

> <s_m_entry_name>
wee1_decoys_glide_SP.772

> <s_m_subgroup_title>
wee1_decoys_glide_SP

> <s_m_subgroupid>
wee1_decoys_glide_SP


$$$$
