ZINC65074691_241
                    3D
 Schrodinger Suite 2024-2.
 55 58  0  0  1  0            999 V2000
   -3.7620   51.6020   26.8011 C   0  0  0  0  0  0
   -3.8386   52.6248   25.8578 C   0  0  0  0  0  0
   -3.0921   52.5379   24.6860 C   0  0  0  0  0  0
   -2.2694   51.4291   24.4664 C   0  0  0  0  0  0
   -2.1868   50.4106   25.4187 C   0  0  0  0  0  0
   -2.9426   50.4967   26.5844 C   0  0  0  0  0  0
   -1.2844   51.3379   22.9740 S   0  0  0  0  0  0
   -1.9307   52.1929   21.9714 O   0  0  0  0  0  0
   -1.0250   49.9213   22.6921 O   0  0  0  0  0  0
    0.2479   52.1090   23.4165 N   0  0  0  0  0  0
    1.5358   51.3818   23.3429 C   0  0  0  0  0  0
    2.5791   52.2167   22.5761 C   0  0  0  0  0  0
    2.7966   53.6408   23.1758 C   0  0  0  0  0  0
    1.4066   54.3257   23.2387 C   0  0  0  0  0  0
    0.2612   53.5104   23.8837 C   0  0  0  0  0  0
    3.5169   53.6663   24.5501 C   0  0  0  0  0  0
    4.8282   53.9191   24.6880 N   0  3  0  0  0  0
    5.7299   54.2973   23.6051 C   0  0  0  0  0  0
    5.0340   54.0508   22.2634 C   0  0  0  0  0  0
    3.6418   54.4832   22.3167 N   0  0  0  0  0  0
    2.7678   53.4374   25.6377 N   0  0  0  0  0  0
    3.1914   53.3947   27.0436 C   0  0  0  0  0  0
    2.0498   53.0916   28.0124 C   0  0  0  0  0  0
    1.1919   52.0054   27.7857 C   0  0  0  0  0  0
    0.1665   51.7126   28.6861 C   0  0  0  0  0  0
   -0.0064   52.4940   29.8279 C   0  0  0  0  0  0
    0.8395   53.5783   30.0605 C   0  0  0  0  0  0
    1.8646   53.8761   29.1603 C   0  0  0  0  0  0
    2.6864   54.9197   29.4196 F   0  0  0  0  0  0
   -4.3454   51.6608   27.7082 H   0  0  0  0  0  0
   -4.4782   53.4773   26.0326 H   0  0  0  0  0  0
   -3.1564   53.3303   23.9543 H   0  0  0  0  0  0
   -1.5490   49.5518   25.2601 H   0  0  0  0  0  0
   -2.8959   49.7012   27.3161 H   0  0  0  0  0  0
    1.3785   50.4199   22.8534 H   0  0  0  0  0  0
    1.8671   51.1598   24.3562 H   0  0  0  0  0  0
    2.2313   52.3143   21.5454 H   0  0  0  0  0  0
    3.5041   51.6587   22.4817 H   0  0  0  0  0  0
    1.5043   55.2964   23.7235 H   0  0  0  0  0  0
    1.1045   54.5209   22.2144 H   0  0  0  0  0  0
   -0.7094   53.9633   23.6821 H   0  0  0  0  0  0
    0.3445   53.4879   24.9662 H   0  0  0  0  0  0
    5.9651   55.3530   23.7374 H   0  0  0  0  0  0
    6.6552   53.7265   23.6902 H   0  0  0  0  0  0
    5.5460   54.5975   21.4696 H   0  0  0  0  0  0
    5.1089   53.0041   21.9675 H   0  0  0  0  0  0
    3.2341   54.4962   21.3867 H   0  0  0  0  0  0
    1.7896   53.2611   25.4661 H   0  0  0  0  0  0
    3.6483   54.3613   27.2610 H   0  0  0  0  0  0
    3.9698   52.6361   27.1350 H   0  0  0  0  0  0
    1.3165   51.3751   26.9173 H   0  0  0  0  0  0
   -0.4889   50.8709   28.5059 H   0  0  0  0  0  0
   -0.7870   52.2513   30.5373 H   0  0  0  0  0  0
    0.7064   54.1827   30.9460 H   0  0  0  0  0  0
    5.1928   53.9063   25.6296 H   0  0  0  0  0  0
  1  6  2  0  0  0
  1  2  1  0  0  0
  1 30  1  0  0  0
  2  3  2  0  0  0
  2 31  1  0  0  0
  3  4  1  0  0  0
  3 32  1  0  0  0
  4  5  2  0  0  0
  4  7  1  0  0  0
  5  6  1  0  0  0
  5 33  1  0  0  0
  6 34  1  0  0  0
  7  8  2  0  0  0
  7  9  2  0  0  0
  7 10  1  0  0  0
 10 15  1  0  0  0
 10 11  1  0  0  0
 11 12  1  0  0  0
 11 35  1  0  0  0
 11 36  1  0  0  0
 12 13  1  0  0  0
 12 37  1  0  0  0
 12 38  1  0  0  0
 13 20  1  0  0  0
 13 14  1  0  0  0
 13 16  1  0  0  0
 14 15  1  0  0  0
 14 39  1  0  0  0
 14 40  1  0  0  0
 15 41  1  0  0  0
 15 42  1  0  0  0
 16 17  2  0  0  0
 16 21  1  0  0  0
 17 18  1  0  0  0
 17 55  1  0  0  0
 18 19  1  0  0  0
 18 43  1  0  0  0
 18 44  1  0  0  0
 19 20  1  0  0  0
 19 45  1  0  0  0
 19 46  1  0  0  0
 20 47  1  0  0  0
 21 22  1  0  0  0
 21 48  1  0  0  0
 22 23  1  0  0  0
 22 49  1  0  0  0
 22 50  1  0  0  0
 23 28  2  0  0  0
 23 24  1  0  0  0
 24 25  2  0  0  0
 24 51  1  0  0  0
 25 26  1  0  0  0
 25 52  1  0  0  0
 26 27  2  0  0  0
 26 53  1  0  0  0
 27 28  1  0  0  0
 27 54  1  0  0  0
 28 29  1  0  0  0
M  CHG  1  17   1
M  END
> <i_i_glide_confnum>
136

> <i_i_glide_lignum>
242

> <i_i_glide_posenum>
119

> <i_i_glide_rotatable_bonds>
5

> <i_m_Source_File_Index>
2773

> <b_m_subgroup_collapsed>
0

> <r_i_docking_score>
-4.76997

> <r_i_glide_ecoul>
-4.57983

> <r_i_glide_eff_state_penalty>
0

> <r_i_glide_einternal>
4.34645

> <r_i_glide_emodel>
-43.0327

> <r_i_glide_energy>
-35.3256

> <r_i_glide_erotb>
0.56693

> <r_i_glide_esite>
-0.0131656

> <r_i_glide_evdw>
-30.7458

> <r_i_glide_gscore>
-4.76997

> <r_i_glide_hbond>
-0.0599406

> <r_i_glide_ligand_efficiency>
-0.164482

> <r_i_glide_ligand_efficiency_ln>
-1.0922

> <r_i_glide_ligand_efficiency_sa>
-0.50534

> <r_i_glide_lipo>
-2.09887

> <r_i_glide_metal>
0

> <r_i_glide_rewards>
-0.940666

> <s_i_glide_gridfile>
wee1_glide-grid

> <s_m_Source_File>
wee1_decoys_glide_SP.sdf

> <s_m_Source_Path>
/Users/zhangxujun/Desktop

> <s_m_entry_id>
3048

> <s_m_entry_name>
wee1_decoys_glide_SP.2773

> <s_m_subgroup_title>
wee1_decoys_glide_SP

> <s_m_subgroupid>
wee1_decoys_glide_SP


$$$$
