ZINC12198175_1118
                    3D
 Schrodinger Suite 2024-2.
 66 70  0  0  1  0            999 V2000
    3.4900   57.0097   16.5413 C   0  0  0  0  0  0
    4.1467   56.1517   17.5959 C   0  0  0  0  0  0
    5.1642   56.4710   18.4818 C   0  0  0  0  0  0
    5.5046   55.4344   19.3586 C   0  0  0  0  0  0
    4.7679   54.2698   19.1790 C   0  0  0  0  0  0
    3.6687   54.4998   17.8466 S   0  0  0  0  0  0
    4.8440   52.9573   19.9323 C   0  0  0  0  0  0
    3.4795   51.1230   21.0234 C   0  0  0  0  0  0
    2.1003   50.7774   21.6192 C   0  0  0  0  0  0
    1.6704   51.7272   22.7821 C   0  0  1  0  0  0
    1.7088   53.1729   22.2176 C   0  0  0  0  0  0
    3.1072   53.5590   21.7088 C   0  0  0  0  0  0
    0.3180   51.3217   23.5056 C   0  0  1  0  0  0
   -0.8202   51.1797   22.4985 C   0  0  0  0  0  0
   -1.3090   52.0945   21.8254 O   0  0  0  0  0  0
   -1.1037   49.8608   22.4420 N   0  0  0  0  0  0
   -0.4701   49.1234   23.3943 C   0  0  0  0  0  0
   -0.7696   48.0017   23.8003 O   0  0  0  0  0  0
    0.3719   49.9678   23.9944 N   0  0  0  0  0  0
   -2.0638   49.3289   21.4470 C   0  0  0  0  0  0
   -1.5689   48.1102   20.6384 C   0  0  0  0  0  0
   -2.8202   47.2959   20.2680 C   0  0  0  0  0  0
   -4.0104   47.9651   20.9729 C   0  0  0  0  0  0
   -3.3979   48.8633   22.0523 C   0  0  0  0  0  0
   -0.1488   52.3207   24.6171 C   0  0  0  0  0  0
    0.7087   52.3588   25.8802 C   0  0  0  0  0  0
    1.7769   53.2592   25.9916 C   0  0  0  0  0  0
    2.5194   53.3176   27.1707 C   0  0  0  0  0  0
    2.1932   52.4805   28.2383 C   0  0  0  0  0  0
    1.1296   51.5869   28.1330 C   0  0  0  0  0  0
    0.3889   51.5216   26.9559 C   0  0  0  0  0  0
    2.9146   52.5350   29.3816 F   0  0  0  0  0  0
    3.9004   58.0197   16.5183 H   0  0  0  0  0  0
    3.6158   56.5888   15.5436 H   0  0  0  0  0  0
    2.4190   57.1086   16.7175 H   0  0  0  0  0  0
    5.6389   57.4414   18.5013 H   0  0  0  0  0  0
    6.2685   55.5367   20.1144 H   0  0  0  0  0  0
    5.5417   52.9737   20.7689 H   0  0  0  0  0  0
    5.1174   52.1291   19.2809 H   0  0  0  0  0  0
    4.2959   51.0056   21.7352 H   0  0  0  0  0  0
    3.6728   50.5107   20.1397 H   0  0  0  0  0  0
    2.1425   49.7505   21.9810 H   0  0  0  0  0  0
    1.3467   50.7561   20.8298 H   0  0  0  0  0  0
    2.4524   51.6684   23.5400 H   0  0  0  0  0  0
    0.9566   53.2968   21.4359 H   0  0  0  0  0  0
    1.4310   53.8969   22.9803 H   0  0  0  0  0  0
    3.8795   53.4836   22.4752 H   0  0  0  0  0  0
    3.1050   54.5667   21.2977 H   0  0  0  0  0  0
    1.1625   49.6412   24.5341 H   0  0  0  0  0  0
   -2.3278   50.0918   20.7091 H   0  0  0  0  0  0
   -0.9051   47.4759   21.2281 H   0  0  0  0  0  0
   -0.9841   48.4185   19.7710 H   0  0  0  0  0  0
   -2.7108   46.2612   20.6024 H   0  0  0  0  0  0
   -2.9732   47.2673   19.1870 H   0  0  0  0  0  0
   -4.7064   47.2362   21.3931 H   0  0  0  0  0  0
   -4.5687   48.5748   20.2593 H   0  0  0  0  0  0
   -4.0380   49.7017   22.3318 H   0  0  0  0  0  0
   -3.2372   48.2893   22.9680 H   0  0  0  0  0  0
   -0.2576   53.3330   24.2283 H   0  0  0  0  0  0
   -1.1599   52.0711   24.9473 H   0  0  0  0  0  0
    2.0283   53.9201   25.1758 H   0  0  0  0  0  0
    3.3444   54.0076   27.2623 H   0  0  0  0  0  0
    0.8798   50.9399   28.9635 H   0  0  0  0  0  0
   -0.4326   50.8214   26.8886 H   0  0  0  0  0  0
    3.4749   52.5976   20.5578 N   0  3  1  0  0  0
    2.7733   52.6983   19.8299 H   0  0  0  0  0  0
  1  2  1  0  0  0
  1 33  1  0  0  0
  1 34  1  0  0  0
  1 35  1  0  0  0
  2  6  1  0  0  0
  2  3  2  0  0  0
  3  4  1  0  0  0
  3 36  1  0  0  0
  4  5  2  0  0  0
  4 37  1  0  0  0
  5  6  1  0  0  0
  5  7  1  0  0  0
  7 38  1  0  0  0
  7 39  1  0  0  0
  7 65  1  0  0  0
  8  9  1  0  0  0
  8 40  1  0  0  0
  8 41  1  0  0  0
  8 65  1  0  0  0
  9 10  1  0  0  0
  9 42  1  0  0  0
  9 43  1  0  0  0
 10 11  1  0  0  0
 10 13  1  0  0  0
 10 44  1  0  0  0
 11 12  1  0  0  0
 11 45  1  0  0  0
 11 46  1  0  0  0
 12 47  1  0  0  0
 12 48  1  0  0  0
 12 65  1  0  0  0
 13 19  1  0  0  0
 13 14  1  0  0  0
 13 25  1  0  0  0
 14 15  2  0  0  0
 14 16  1  0  0  0
 16 17  1  0  0  0
 16 20  1  0  0  0
 17 18  2  0  0  0
 17 19  1  0  0  0
 19 49  1  0  0  0
 20 24  1  0  0  0
 20 21  1  0  0  0
 20 50  1  0  0  0
 21 22  1  0  0  0
 21 51  1  0  0  0
 21 52  1  0  0  0
 22 23  1  0  0  0
 22 53  1  0  0  0
 22 54  1  0  0  0
 23 24  1  0  0  0
 23 55  1  0  0  0
 23 56  1  0  0  0
 24 57  1  0  0  0
 24 58  1  0  0  0
 25 26  1  0  0  0
 25 59  1  0  0  0
 25 60  1  0  0  0
 26 31  2  0  0  0
 26 27  1  0  0  0
 27 28  2  0  0  0
 27 61  1  0  0  0
 28 29  1  0  0  0
 28 62  1  0  0  0
 29 30  2  0  0  0
 29 32  1  0  0  0
 30 31  1  0  0  0
 30 63  1  0  0  0
 31 64  1  0  0  0
 65 66  1  0  0  0
M  CHG  1  65   1
M  END
> <i_i_glide_confnum>
44

> <i_i_glide_lignum>
1119

> <i_i_glide_posenum>
246

> <i_i_glide_rotatable_bonds>
6

> <i_m_Source_File_Index>
4197

> <b_m_subgroup_collapsed>
0

> <r_i_docking_score>
-3.27165

> <r_i_glide_ecoul>
-2.60512

> <r_i_glide_eff_state_penalty>
0

> <r_i_glide_einternal>
2.76933

> <r_i_glide_emodel>
-41.5241

> <r_i_glide_energy>
-34.6452

> <r_i_glide_erotb>
0.547386

> <r_i_glide_esite>
-0.00177989

> <r_i_glide_evdw>
-32.0401

> <r_i_glide_gscore>
-3.27165

> <r_i_glide_hbond>
0

> <r_i_glide_ligand_efficiency>
-0.0991408

> <r_i_glide_ligand_efficiency_ln>
-0.727597

> <r_i_glide_ligand_efficiency_sa>
-0.317998

> <r_i_glide_lipo>
-1.37603

> <r_i_glide_metal>
0

> <r_i_glide_rewards>
-0.448447

> <s_i_glide_gridfile>
wee1_glide-grid

> <s_m_Source_File>
wee1_decoys_glide_SP.sdf

> <s_m_Source_Path>
/Users/zhangxujun/Desktop

> <s_m_entry_id>
4472

> <s_m_entry_name>
wee1_decoys_glide_SP.4197

> <s_m_subgroup_title>
wee1_decoys_glide_SP

> <s_m_subgroupid>
wee1_decoys_glide_SP


$$$$
