ZINC59363683_3647
                    3D
 Schrodinger Suite 2024-2.
 51 53  0  0  1  0            999 V2000
    6.8585   55.2955   23.2642 C   0  0  0  0  0  0
    5.9109   54.1162   23.5443 C   0  0  2  0  0  0
    6.4757   53.1868   23.5059 H   0  0  0  0  0  0
    4.7791   54.0808   22.4963 C   0  0  0  0  0  0
    3.6511   54.4967   22.7763 O   0  0  0  0  0  0
    5.1041   53.5876   21.2918 N   0  0  0  0  0  0
    4.1741   53.4585   20.1660 C   0  0  1  0  0  0
    3.5361   54.3448   20.1311 H   0  0  0  0  0  0
    4.9492   53.4001   18.8176 C   0  0  0  0  0  0
    5.5955   54.7172   18.3074 C   0  0  0  0  0  0
    4.5538   55.8049   17.9839 C   0  0  0  0  0  0
    6.7146   55.2665   19.2138 C   0  0  0  0  0  0
    3.2408   52.2592   20.3719 C   0  0  0  0  0  0
    3.3609   51.0752   19.6819 N   0  0  0  0  0  0
    4.0955   50.8956   18.9883 H   0  0  0  0  0  0
    2.3203   50.2623   20.0598 C   0  0  0  0  0  0
    1.9014   48.9873   19.6735 C   0  0  0  0  0  0
    0.7519   48.4965   20.3005 C   0  0  0  0  0  0
    0.0664   49.2291   21.2722 C   0  0  0  0  0  0
    0.4956   50.5002   21.6582 C   0  0  0  0  0  0
    1.6348   51.0276   21.0343 C   0  0  0  0  0  0
    2.2317   52.2460   21.2136 N   0  0  0  0  0  0
    5.2977   54.2295   24.8666 N   0  0  0  0  0  0
    5.8780   54.2972   26.0718 C   0  0  0  0  0  0
    7.0946   54.3403   26.2537 O   0  0  0  0  0  0
    4.9566   54.2910   27.1804 C   0  0  0  0  0  0
    5.2935   54.3859   28.5246 C   0  0  0  0  0  0
    4.1892   54.3318   29.3756 C   0  0  0  0  0  0
    2.9867   54.1998   28.7007 C   0  0  0  0  0  0
    3.2251   54.0971   26.9896 S   0  0  0  0  0  0
    1.2365   54.1233   29.4411 Br  0  0  0  0  0  0
    7.5036   55.0765   22.4131 H   0  0  0  0  0  0
    6.3054   56.1945   23.0286 H   0  0  0  0  0  0
    7.5037   55.5329   24.1057 H   0  0  0  0  0  0
    6.0258   53.2026   21.1583 H   0  0  0  0  0  0
    5.7205   52.6309   18.8763 H   0  0  0  0  0  0
    4.2675   53.0536   18.0394 H   0  0  0  0  0  0
    6.0741   54.4621   17.3590 H   0  0  0  0  0  0
    4.0575   56.1700   18.8816 H   0  0  0  0  0  0
    5.0203   56.6642   17.5005 H   0  0  0  0  0  0
    3.7847   55.4304   17.3067 H   0  0  0  0  0  0
    6.3210   55.6632   20.1505 H   0  0  0  0  0  0
    7.4509   54.4981   19.4530 H   0  0  0  0  0  0
    7.2502   56.0797   18.7237 H   0  0  0  0  0  0
    2.4333   48.4165   18.9256 H   0  0  0  0  0  0
    0.3837   47.5182   20.0264 H   0  0  0  0  0  0
   -0.8138   48.8033   21.7327 H   0  0  0  0  0  0
   -0.0375   51.0667   22.4069 H   0  0  0  0  0  0
    4.2880   54.2518   24.8211 H   0  0  0  0  0  0
    6.3062   54.4928   28.8816 H   0  0  0  0  0  0
    4.2761   54.3895   30.4471 H   0  0  0  0  0  0
  1  2  1  0  0  0
  1 32  1  0  0  0
  1 33  1  0  0  0
  1 34  1  0  0  0
  2  3  1  0  0  0
  2  4  1  0  0  0
  2 23  1  0  0  0
  4  5  2  0  0  0
  4  6  1  0  0  0
  6  7  1  0  0  0
  6 35  1  0  0  0
  7  8  1  0  0  0
  7  9  1  0  0  0
  7 13  1  0  0  0
  9 10  1  0  0  0
  9 36  1  0  0  0
  9 37  1  0  0  0
 10 11  1  0  0  0
 10 12  1  0  0  0
 10 38  1  0  0  0
 11 39  1  0  0  0
 11 40  1  0  0  0
 11 41  1  0  0  0
 12 42  1  0  0  0
 12 43  1  0  0  0
 12 44  1  0  0  0
 13 22  2  0  0  0
 13 14  1  0  0  0
 14 15  1  0  0  0
 14 16  1  0  0  0
 16 21  2  0  0  0
 16 17  1  0  0  0
 17 18  2  0  0  0
 17 45  1  0  0  0
 18 19  1  0  0  0
 18 46  1  0  0  0
 19 20  2  0  0  0
 19 47  1  0  0  0
 20 21  1  0  0  0
 20 48  1  0  0  0
 21 22  1  0  0  0
 23 24  1  0  0  0
 23 49  1  0  0  0
 24 25  2  0  0  0
 24 26  1  0  0  0
 26 30  1  0  0  0
 26 27  2  0  0  0
 27 28  1  0  0  0
 27 50  1  0  0  0
 28 29  2  0  0  0
 28 51  1  0  0  0
 29 30  1  0  0  0
 29 31  1  0  0  0
M  END
> <i_i_glide_confnum>
110

> <i_i_glide_lignum>
3648

> <i_i_glide_posenum>
43

> <i_i_glide_rotatable_bonds>
9

> <i_m_Source_File_Index>
1645

> <b_m_subgroup_collapsed>
0

> <r_i_docking_score>
-5.58844

> <r_i_glide_ecoul>
-5.50237

> <r_i_glide_eff_state_penalty>
0

> <r_i_glide_einternal>
10.9736

> <r_i_glide_emodel>
-57.3739

> <r_i_glide_energy>
-45.4428

> <r_i_glide_erotb>
0.563064

> <r_i_glide_esite>
-0.119119

> <r_i_glide_evdw>
-39.9404

> <r_i_glide_gscore>
-5.58844

> <r_i_glide_hbond>
-0.389546

> <r_i_glide_ligand_efficiency>
-0.199587

> <r_i_glide_ligand_efficiency_ln>
-1.28998

> <r_i_glide_ligand_efficiency_sa>
-0.606064

> <r_i_glide_lipo>
-1.8801

> <r_i_glide_metal>
0

> <r_i_glide_rewards>
-0.940363

> <s_i_glide_gridfile>
wee1_glide-grid

> <s_m_Source_File>
wee1_decoys_glide_SP.sdf

> <s_m_Source_Path>
/Users/zhangxujun/Desktop

> <s_m_entry_id>
1920

> <s_m_entry_name>
wee1_decoys_glide_SP.1645

> <s_m_subgroup_title>
wee1_decoys_glide_SP

> <s_m_subgroupid>
wee1_decoys_glide_SP


$$$$
