ZINC11695904_5926
                    3D
 Schrodinger Suite 2024-2.
 56 59  0  0  1  0            999 V2000
   10.3424   52.6054   16.5122 C   0  0  0  0  0  0
    9.2762   53.4526   17.1842 C   0  0  0  0  0  0
    9.6486   54.5388   17.9762 C   0  0  0  0  0  0
    8.6767   55.2949   18.6289 C   0  0  0  0  0  0
    7.3296   54.9628   18.4739 C   0  0  0  0  0  0
    6.9541   53.8800   17.6754 C   0  0  0  0  0  0
    7.9279   53.1219   17.0342 C   0  0  0  0  0  0
    6.0563   55.8982   19.3120 S   0  0  0  0  0  0
    5.0916   56.3262   18.2912 O   0  0  0  0  0  0
    6.7043   56.8779   20.1985 O   0  0  0  0  0  0
    5.2379   54.6391   20.3463 C   0  0  0  0  0  0
    5.4913   54.3042   21.6612 C   0  0  0  0  0  0
    4.6893   53.3236   21.9823 N   0  0  0  0  0  0
    4.0256   53.0691   20.8800 C   0  0  0  0  0  0
    4.3164   53.8420   19.8626 N   0  5  0  0  0  0
    3.0344   51.9410   20.7936 C   0  0  0  0  0  0
    2.7049   51.3690   19.5582 C   0  0  0  0  0  0
    1.8269   50.2902   19.4877 C   0  0  0  0  0  0
    1.2647   49.7821   20.6559 C   0  0  0  0  0  0
    1.5688   50.3465   21.8914 C   0  0  0  0  0  0
    2.4490   51.4233   21.9572 C   0  0  0  0  0  0
    6.7044   54.9870   22.7470 S   0  0  0  0  0  0
    6.6880   53.8347   24.1635 C   0  0  0  0  0  0
    6.4848   54.5043   25.5234 C   0  0  0  0  0  0
    6.7045   55.7009   25.6840 O   0  0  0  0  0  0
    6.0990   53.6960   26.5189 N   0  0  0  0  0  0
    5.8511   54.0787   27.9071 C   0  0  0  0  0  0
    4.4159   53.7390   28.3717 C   0  0  1  0  0  0
    4.2749   52.6572   28.3352 H   0  0  0  0  0  0
    4.0095   54.3532   29.7074 C   0  0  0  0  0  0
    2.5173   54.6028   29.6045 C   0  0  0  0  0  0
    2.2163   54.4548   28.1131 C   0  0  0  0  0  0
    3.4890   54.3564   27.4805 O   0  0  0  0  0  0
   11.2478   52.5698   17.1211 H   0  0  0  0  0  0
   10.0058   51.5738   16.3957 H   0  0  0  0  0  0
   10.5927   53.0109   15.5313 H   0  0  0  0  0  0
   10.6919   54.7932   18.0966 H   0  0  0  0  0  0
    8.9742   56.1248   19.2523 H   0  0  0  0  0  0
    5.9103   53.6163   17.5663 H   0  0  0  0  0  0
    7.6332   52.2732   16.4334 H   0  0  0  0  0  0
    3.1595   51.7380   18.6493 H   0  0  0  0  0  0
    1.6012   49.8445   18.5304 H   0  0  0  0  0  0
    0.5882   48.9421   20.6016 H   0  0  0  0  0  0
    1.1334   49.9477   22.7956 H   0  0  0  0  0  0
    2.6907   51.8532   22.9184 H   0  0  0  0  0  0
    7.6365   53.2984   24.1705 H   0  0  0  0  0  0
    5.9064   53.0912   24.0494 H   0  0  0  0  0  0
    5.9592   52.7181   26.3027 H   0  0  0  0  0  0
    6.0646   55.1362   28.0853 H   0  0  0  0  0  0
    6.5651   53.5340   28.5260 H   0  0  0  0  0  0
    4.5405   55.2965   29.8311 H   0  0  0  0  0  0
    4.3043   53.7342   30.5544 H   0  0  0  0  0  0
    2.2564   55.6002   29.9679 H   0  0  0  0  0  0
    1.9453   53.8740   30.1837 H   0  0  0  0  0  0
    1.6515   55.2957   27.7112 H   0  0  0  0  0  0
    1.6361   53.5555   27.9008 H   0  0  0  0  0  0
  1  2  1  0  0  0
  1 34  1  0  0  0
  1 35  1  0  0  0
  1 36  1  0  0  0
  2  7  2  0  0  0
  2  3  1  0  0  0
  3  4  2  0  0  0
  3 37  1  0  0  0
  4  5  1  0  0  0
  4 38  1  0  0  0
  5  6  2  0  0  0
  5  8  1  0  0  0
  6  7  1  0  0  0
  6 39  1  0  0  0
  7 40  1  0  0  0
  8  9  2  0  0  0
  8 10  2  0  0  0
  8 11  1  0  0  0
 11 12  2  0  0  0
 11 15  1  0  0  0
 12 22  1  0  0  0
 12 13  1  0  0  0
 13 14  2  0  0  0
 14 15  1  0  0  0
 14 16  1  0  0  0
 16 21  2  0  0  0
 16 17  1  0  0  0
 17 18  2  0  0  0
 17 41  1  0  0  0
 18 19  1  0  0  0
 18 42  1  0  0  0
 19 20  2  0  0  0
 19 43  1  0  0  0
 20 21  1  0  0  0
 20 44  1  0  0  0
 21 45  1  0  0  0
 22 23  1  0  0  0
 23 24  1  0  0  0
 23 46  1  0  0  0
 23 47  1  0  0  0
 24 25  2  0  0  0
 24 26  1  0  0  0
 26 27  1  0  0  0
 26 48  1  0  0  0
 27 28  1  0  0  0
 27 49  1  0  0  0
 27 50  1  0  0  0
 28 29  1  0  0  0
 28 33  1  0  0  0
 28 30  1  0  0  0
 30 31  1  0  0  0
 30 51  1  0  0  0
 30 52  1  0  0  0
 31 32  1  0  0  0
 31 53  1  0  0  0
 31 54  1  0  0  0
 32 33  1  0  0  0
 32 55  1  0  0  0
 32 56  1  0  0  0
M  CHG  1  15  -1
M  END
> <i_i_glide_confnum>
26

> <i_i_glide_lignum>
5927

> <i_i_glide_posenum>
303

> <i_i_glide_rotatable_bonds>
9

> <i_m_Source_File_Index>
3018

> <b_m_subgroup_collapsed>
0

> <r_i_docking_score>
-6.56385

> <r_i_glide_ecoul>
-9.66985

> <r_i_glide_eff_state_penalty>
0

> <r_i_glide_einternal>
3.08547

> <r_i_glide_emodel>
-77.6841

> <r_i_glide_energy>
-57.487

> <r_i_glide_erotb>
0.729954

> <r_i_glide_esite>
-0.0567068

> <r_i_glide_evdw>
-47.8171

> <r_i_glide_gscore>
-6.56385

> <r_i_glide_hbond>
-0.32

> <r_i_glide_ligand_efficiency>
-0.20512

> <r_i_glide_ligand_efficiency_ln>
-1.46982

> <r_i_glide_ligand_efficiency_sa>
-0.651216

> <r_i_glide_lipo>
-2.26164

> <r_i_glide_metal>
0

> <r_i_glide_rewards>
-0.814126

> <s_i_glide_gridfile>
wee1_glide-grid

> <s_m_Source_File>
wee1_decoys_glide_SP.sdf

> <s_m_Source_Path>
/Users/zhangxujun/Desktop

> <s_m_entry_id>
3293

> <s_m_entry_name>
wee1_decoys_glide_SP.3018

> <s_m_subgroup_title>
wee1_decoys_glide_SP

> <s_m_subgroupid>
wee1_decoys_glide_SP


$$$$
