ZINC39885771_4046
                    3D
 Schrodinger Suite 2024-2.
 53 56  0  0  1  0            999 V2000
   -1.1288   50.2570   26.4816 C   0  0  0  0  0  0
   -0.3063   51.3493   27.1403 C   0  0  0  0  0  0
    0.4791   52.1818   26.3488 C   0  0  0  0  0  0
    1.2222   53.1953   26.9399 C   0  0  0  0  0  0
    1.2091   53.3733   28.3265 C   0  0  0  0  0  0
    0.4125   52.5414   29.1187 C   0  0  0  0  0  0
   -0.3508   51.5385   28.5237 C   0  0  0  0  0  0
    2.0141   54.5005   28.9661 C   0  0  0  0  0  0
    3.6010   53.9277   29.6767 S   0  0  0  0  0  0
    4.7412   54.0534   28.3250 C   0  0  0  0  0  0
    6.0199   53.7691   28.4200 N   0  0  0  0  0  0
    6.7018   53.8349   27.2073 N   0  0  0  0  0  0
    5.9158   54.1500   26.2082 C   0  0  0  0  0  0
    4.2876   54.4967   26.7086 S   0  0  0  0  0  0
    6.3388   54.0968   24.8859 N   0  0  0  0  0  0
    5.5702   54.1812   23.7762 C   0  0  0  0  0  0
    4.3800   54.4966   23.7537 O   0  0  0  0  0  0
    6.3045   53.7922   22.4852 C   0  0  0  0  0  0
    5.4662   53.8884   21.2527 N   0  0  0  0  0  0
    4.6070   52.8844   20.9272 C   0  0  0  0  0  0
    4.4289   51.8770   21.6184 O   0  0  0  0  0  0
    3.9557   53.1615   19.6651 C   0  0  0  0  0  0
    3.0365   52.3082   19.1508 C   0  0  0  0  0  0
    2.2517   52.4504   17.9043 C   0  0  0  0  0  0
    1.7983   53.6907   17.4411 C   0  0  0  0  0  0
    1.0575   53.7795   16.2659 C   0  0  0  0  0  0
    0.7613   52.6243   15.5423 C   0  0  0  0  0  0
    1.2111   51.3835   15.9942 C   0  0  0  0  0  0
    1.9473   51.2989   17.1729 C   0  0  0  0  0  0
   -0.0276   52.7195   14.2494 C   0  0  0  0  0  0
    4.5938   54.6603   18.9904 S   0  0  0  0  0  0
    5.6570   54.8966   20.3480 C   0  0  0  0  0  0
    6.7044   56.1905   20.3603 S   0  0  0  0  0  0
   -2.0697   50.1017   27.0112 H   0  0  0  0  0  0
   -1.3880   50.5157   25.4549 H   0  0  0  0  0  0
   -0.5774   49.3159   26.4805 H   0  0  0  0  0  0
    0.5056   52.0552   25.2762 H   0  0  0  0  0  0
    1.7762   53.8533   26.2927 H   0  0  0  0  0  0
    0.3765   52.6704   30.1912 H   0  0  0  0  0  0
   -0.9679   50.8974   29.1383 H   0  0  0  0  0  0
    1.4290   54.9482   29.7704 H   0  0  0  0  0  0
    2.1640   55.3222   28.2659 H   0  0  0  0  0  0
    7.3069   53.8479   24.7530 H   0  0  0  0  0  0
    6.6096   52.7550   22.6232 H   0  0  0  0  0  0
    7.2282   54.3676   22.4159 H   0  0  0  0  0  0
    2.8068   51.4079   19.7061 H   0  0  0  0  0  0
    2.0003   54.5916   17.9998 H   0  0  0  0  0  0
    0.7154   54.7452   15.9232 H   0  0  0  0  0  0
    1.0000   50.4839   15.4346 H   0  0  0  0  0  0
    2.3043   50.3316   17.5007 H   0  0  0  0  0  0
    0.1268   53.6845   13.7646 H   0  0  0  0  0  0
    0.2984   51.9584   13.5392 H   0  0  0  0  0  0
   -1.0929   52.5855   14.4395 H   0  0  0  0  0  0
  1  2  1  0  0  0
  1 34  1  0  0  0
  1 35  1  0  0  0
  1 36  1  0  0  0
  2  7  2  0  0  0
  2  3  1  0  0  0
  3  4  2  0  0  0
  3 37  1  0  0  0
  4  5  1  0  0  0
  4 38  1  0  0  0
  5  6  2  0  0  0
  5  8  1  0  0  0
  6  7  1  0  0  0
  6 39  1  0  0  0
  7 40  1  0  0  0
  8  9  1  0  0  0
  8 41  1  0  0  0
  8 42  1  0  0  0
  9 10  1  0  0  0
 10 14  1  0  0  0
 10 11  2  0  0  0
 11 12  1  0  0  0
 12 13  2  0  0  0
 13 14  1  0  0  0
 13 15  1  0  0  0
 15 16  1  0  0  0
 15 43  1  0  0  0
 16 17  2  0  0  0
 16 18  1  0  0  0
 18 19  1  0  0  0
 18 44  1  0  0  0
 18 45  1  0  0  0
 19 32  1  0  0  0
 19 20  1  0  0  0
 20 21  2  0  0  0
 20 22  1  0  0  0
 22 23  2  0  0  0
 22 31  1  0  0  0
 23 24  1  0  0  0
 23 46  1  0  0  0
 24 29  2  0  0  0
 24 25  1  0  0  0
 25 26  2  0  0  0
 25 47  1  0  0  0
 26 27  1  0  0  0
 26 48  1  0  0  0
 27 28  2  0  0  0
 27 30  1  0  0  0
 28 29  1  0  0  0
 28 49  1  0  0  0
 29 50  1  0  0  0
 30 51  1  0  0  0
 30 52  1  0  0  0
 30 53  1  0  0  0
 31 32  1  0  0  0
 32 33  2  0  0  0
M  END
> <i_i_glide_confnum>
105

> <i_i_glide_lignum>
4047

> <i_i_glide_posenum>
335

> <i_i_glide_rotatable_bonds>
8

> <i_m_Source_File_Index>
3617

> <b_m_subgroup_collapsed>
0

> <r_i_docking_score>
-5.08844

> <r_i_glide_ecoul>
-3.61511

> <r_i_glide_eff_state_penalty>
0

> <r_i_glide_einternal>
3.19917

> <r_i_glide_emodel>
-69.1241

> <r_i_glide_energy>
-53.4639

> <r_i_glide_erotb>
0.623955

> <r_i_glide_esite>
0

> <r_i_glide_evdw>
-49.8488

> <r_i_glide_gscore>
-5.08844

> <r_i_glide_hbond>
0

> <r_i_glide_ligand_efficiency>
-0.154195

> <r_i_glide_ligand_efficiency_ln>
-1.13164

> <r_i_glide_ligand_efficiency_sa>
-0.494587

> <r_i_glide_lipo>
-1.7989

> <r_i_glide_metal>
0

> <r_i_glide_rewards>
-0.878791

> <s_i_glide_gridfile>
wee1_glide-grid

> <s_m_Source_File>
wee1_decoys_glide_SP.sdf

> <s_m_Source_Path>
/Users/zhangxujun/Desktop

> <s_m_entry_id>
3892

> <s_m_entry_name>
wee1_decoys_glide_SP.3617

> <s_m_subgroup_title>
wee1_decoys_glide_SP

> <s_m_subgroupid>
wee1_decoys_glide_SP


$$$$
