ZINC13124387_3594
                    3D
 Schrodinger Suite 2024-2.
 53 57  0  0  1  0            999 V2000
   -2.9484   48.0420   25.0347 C   0  0  0  0  0  0
   -1.8252   48.8187   24.3731 C   0  0  0  0  0  0
   -0.5291   48.7263   24.8793 C   0  0  0  0  0  0
    0.5020   49.4605   24.2992 C   0  0  0  0  0  0
    0.2424   50.3099   23.2183 C   0  0  0  0  0  0
   -1.0580   50.3994   22.6890 C   0  0  0  0  0  0
   -2.0825   49.6482   23.2775 C   0  0  0  0  0  0
   -1.3799   51.2572   21.4712 C   0  0  0  0  0  0
    1.3126   51.0834   22.7195 N   0  0  0  0  0  0
    2.3003   50.6358   21.8651 C   0  0  0  0  0  0
    3.1819   51.6885   21.6887 C   0  0  0  0  0  0
    2.7756   52.7922   22.4597 C   0  0  0  0  0  0
    1.5575   52.4126   23.0282 C   0  0  0  0  0  0
    0.5829   53.2141   23.8776 C   0  0  0  0  0  0
    3.4746   54.1391   22.6138 C   0  0  2  0  0  0
    2.7449   54.9083   22.8548 H   0  0  0  0  0  0
    4.0840   54.4928   21.3140 N   0  0  0  0  0  0
    5.4715   54.7560   21.1206 C   0  0  0  0  0  0
    6.3046   54.7312   22.0784 N   0  0  0  0  0  0
    5.8879   54.4774   23.3518 C   0  0  0  0  0  0
    4.5539   54.1944   23.6440 N   0  0  0  0  0  0
    4.4844   54.1057   25.0261 C   0  0  0  0  0  0
    3.4470   53.8875   25.9407 C   0  0  0  0  0  0
    3.7854   53.8863   27.2968 C   0  0  0  0  0  0
    5.0932   54.0932   27.7338 C   0  0  0  0  0  0
    6.1295   54.3162   26.8284 C   0  0  0  0  0  0
    5.8206   54.3273   25.4603 C   0  0  0  0  0  0
    6.6590   54.5461   24.4058 N   0  0  0  0  0  0
    5.9417   55.0370   19.8275 N   0  0  0  0  0  0
    2.3085   49.2338   21.2882 C   0  0  0  0  0  0
   -2.8125   48.0341   26.1180 H   0  0  0  0  0  0
   -2.9628   47.0103   24.6848 H   0  0  0  0  0  0
   -3.9194   48.5011   24.8434 H   0  0  0  0  0  0
   -0.3210   48.0972   25.7339 H   0  0  0  0  0  0
    1.5003   49.3725   24.7047 H   0  0  0  0  0  0
   -3.0865   49.7130   22.8852 H   0  0  0  0  0  0
   -0.5379   51.2919   20.7777 H   0  0  0  0  0  0
   -2.2168   50.8376   20.9100 H   0  0  0  0  0  0
   -1.6353   52.2756   21.7643 H   0  0  0  0  0  0
    4.0714   51.6552   21.0754 H   0  0  0  0  0  0
    0.9147   54.2376   24.0470 H   0  0  0  0  0  0
   -0.3929   53.2926   23.4021 H   0  0  0  0  0  0
    0.4223   52.7573   24.8548 H   0  0  0  0  0  0
    3.4447   54.7051   20.5591 H   0  0  0  0  0  0
    2.4317   53.7196   25.6303 H   0  0  0  0  0  0
    3.0108   53.7158   28.0307 H   0  0  0  0  0  0
    5.3077   54.0816   28.7931 H   0  0  0  0  0  0
    7.1382   54.4783   27.1773 H   0  0  0  0  0  0
    6.9418   55.1017   19.7160 H   0  0  0  0  0  0
    5.5396   54.5052   19.0701 H   0  0  0  0  0  0
    2.9223   49.1774   20.3886 H   0  0  0  0  0  0
    2.7041   48.5080   21.9999 H   0  0  0  0  0  0
    1.3118   48.8961   21.0023 H   0  0  0  0  0  0
  1  2  1  0  0  0
  1 31  1  0  0  0
  1 32  1  0  0  0
  1 33  1  0  0  0
  2  7  2  0  0  0
  2  3  1  0  0  0
  3  4  2  0  0  0
  3 34  1  0  0  0
  4  5  1  0  0  0
  4 35  1  0  0  0
  5  6  2  0  0  0
  5  9  1  0  0  0
  6  7  1  0  0  0
  6  8  1  0  0  0
  7 36  1  0  0  0
  8 37  1  0  0  0
  8 38  1  0  0  0
  8 39  1  0  0  0
  9 13  1  0  0  0
  9 10  1  0  0  0
 10 11  2  0  0  0
 10 30  1  0  0  0
 11 12  1  0  0  0
 11 40  1  0  0  0
 12 13  2  0  0  0
 12 15  1  0  0  0
 13 14  1  0  0  0
 14 41  1  0  0  0
 14 42  1  0  0  0
 14 43  1  0  0  0
 15 16  1  0  0  0
 15 21  1  0  0  0
 15 17  1  0  0  0
 17 18  1  0  0  0
 17 44  1  0  0  0
 18 19  2  0  0  0
 18 29  1  0  0  0
 19 20  1  0  0  0
 20 28  2  0  0  0
 20 21  1  0  0  0
 21 22  1  0  0  0
 22 27  2  0  0  0
 22 23  1  0  0  0
 23 24  2  0  0  0
 23 45  1  0  0  0
 24 25  1  0  0  0
 24 46  1  0  0  0
 25 26  2  0  0  0
 25 47  1  0  0  0
 26 27  1  0  0  0
 26 48  1  0  0  0
 27 28  1  0  0  0
 29 49  1  0  0  0
 29 50  1  0  0  0
 30 51  1  0  0  0
 30 52  1  0  0  0
 30 53  1  0  0  0
M  END
> <i_i_glide_confnum>
2

> <i_i_glide_lignum>
3595

> <i_i_glide_posenum>
130

> <i_i_glide_rotatable_bonds>
2

> <i_m_Source_File_Index>
4937

> <b_m_subgroup_collapsed>
0

> <r_i_docking_score>
-6.55947

> <r_i_glide_ecoul>
-2.50802

> <r_i_glide_eff_state_penalty>
0

> <r_i_glide_einternal>
0.684072

> <r_i_glide_emodel>
-58.9718

> <r_i_glide_energy>
-43.7351

> <r_i_glide_erotb>
0.263059

> <r_i_glide_esite>
-0.00383727

> <r_i_glide_evdw>
-41.227

> <r_i_glide_gscore>
-6.55947

> <r_i_glide_hbond>
-0.195987

> <r_i_glide_ligand_efficiency>
-0.226189

> <r_i_glide_ligand_efficiency_ln>
-1.50195

> <r_i_glide_ligand_efficiency_sa>
-0.694923

> <r_i_glide_lipo>
-2.43761

> <r_i_glide_metal>
0

> <r_i_glide_rewards>
-1.74753

> <s_i_glide_gridfile>
wee1_glide-grid

> <s_m_Source_File>
wee1_decoys_glide_SP.sdf

> <s_m_Source_Path>
/Users/zhangxujun/Desktop

> <s_m_entry_id>
5212

> <s_m_entry_name>
wee1_decoys_glide_SP.4937

> <s_m_subgroup_title>
wee1_decoys_glide_SP

> <s_m_subgroupid>
wee1_decoys_glide_SP


$$$$
