ZINC24705305_2761
                    3D
 Schrodinger Suite 2024-2.
 60 62  0  0  1  0            999 V2000
    1.4568   52.1041   30.2901 C   0  0  0  0  0  0
    1.1952   53.2915   29.3402 C   0  0  0  0  0  0
    0.0996   52.8793   28.3491 C   0  0  0  0  0  0
    0.7845   54.5552   30.1198 C   0  0  0  0  0  0
    2.3165   53.5977   28.5005 O   0  0  0  0  0  0
    3.5687   53.8860   28.9467 C   0  0  0  0  0  0
    3.9026   53.7580   30.1258 O   0  0  0  0  0  0
    4.3974   54.3622   27.9178 N   0  0  0  0  0  0
    5.7988   54.6732   28.2464 C   0  0  0  0  0  0
    6.7326   53.9943   27.2407 C   0  0  0  0  0  0
    6.3846   54.3967   25.8025 C   0  0  0  0  0  0
    4.9185   53.9832   25.5621 C   0  0  1  0  0  0
    4.8728   52.9023   25.7147 H   0  0  0  0  0  0
    3.9040   54.6171   26.5429 C   0  0  0  0  0  0
    4.5296   54.0964   24.0741 C   0  0  0  0  0  0
    5.3526   53.7440   23.2242 O   0  0  0  0  0  0
    3.2732   54.4955   23.7601 N   0  0  0  0  0  0
    2.7870   54.2291   22.4736 N   0  0  0  0  0  0
    2.3360   52.9911   22.1572 C   0  0  0  0  0  0
    2.4458   52.5373   21.0210 O   0  0  0  0  0  0
    1.5460   52.2766   23.1260 C   0  0  0  0  0  0
    1.4831   50.9112   23.2859 C   0  0  0  0  0  0
    0.4919   50.4756   24.1726 C   0  0  0  0  0  0
   -0.2446   51.5299   24.7194 C   0  0  0  0  0  0
    0.3246   53.0477   24.0786 S   0  0  0  0  0  0
   -1.4023   51.4019   25.6889 C   0  0  0  0  0  0
   -2.5851   50.5894   25.1348 C   0  0  0  0  0  0
   -2.3406   49.0654   25.0654 C   0  0  0  0  0  0
   -1.2264   48.5790   24.1149 C   0  0  0  0  0  0
    0.2073   49.0249   24.4642 C   0  0  0  0  0  0
    0.5262   51.7023   30.6967 H   0  0  0  0  0  0
    2.0868   52.3683   31.1393 H   0  0  0  0  0  0
    1.9482   51.2947   29.7503 H   0  0  0  0  0  0
   -0.1718   53.6958   27.6854 H   0  0  0  0  0  0
    0.4518   52.0588   27.7236 H   0  0  0  0  0  0
   -0.8059   52.5422   28.8546 H   0  0  0  0  0  0
    0.7264   55.4143   29.4508 H   0  0  0  0  0  0
   -0.1821   54.4315   30.6097 H   0  0  0  0  0  0
    1.5149   54.8133   30.8840 H   0  0  0  0  0  0
    5.9047   55.7469   28.1967 H   0  0  0  0  0  0
    6.0861   54.4059   29.2615 H   0  0  0  0  0  0
    7.7584   54.2771   27.4710 H   0  0  0  0  0  0
    6.6944   52.9099   27.3633 H   0  0  0  0  0  0
    6.5201   55.4751   25.7074 H   0  0  0  0  0  0
    7.0789   53.8484   25.1623 H   0  0  0  0  0  0
    2.9472   54.1234   26.3687 H   0  0  0  0  0  0
    3.7582   55.6905   26.4109 H   0  0  0  0  0  0
    2.5540   54.7564   24.4184 H   0  0  0  0  0  0
    3.2009   54.8398   21.7831 H   0  0  0  0  0  0
    2.1253   50.2284   22.7478 H   0  0  0  0  0  0
   -1.0692   50.8779   26.5857 H   0  0  0  0  0  0
   -1.7438   52.3820   26.0273 H   0  0  0  0  0  0
   -3.4397   50.7528   25.7954 H   0  0  0  0  0  0
   -2.8907   50.9743   24.1586 H   0  0  0  0  0  0
   -2.1355   48.6940   26.0722 H   0  0  0  0  0  0
   -3.2714   48.5852   24.7676 H   0  0  0  0  0  0
   -1.2461   47.4867   24.1104 H   0  0  0  0  0  0
   -1.4619   48.8783   23.0919 H   0  0  0  0  0  0
    0.9037   48.4465   23.8669 H   0  0  0  0  0  0
    0.4275   48.7797   25.5044 H   0  0  0  0  0  0
  1  2  1  0  0  0
  1 31  1  0  0  0
  1 32  1  0  0  0
  1 33  1  0  0  0
  2  3  1  0  0  0
  2  4  1  0  0  0
  2  5  1  0  0  0
  3 34  1  0  0  0
  3 35  1  0  0  0
  3 36  1  0  0  0
  4 37  1  0  0  0
  4 38  1  0  0  0
  4 39  1  0  0  0
  5  6  1  0  0  0
  6  7  2  0  0  0
  6  8  1  0  0  0
  8 14  1  0  0  0
  8  9  1  0  0  0
  9 10  1  0  0  0
  9 40  1  0  0  0
  9 41  1  0  0  0
 10 11  1  0  0  0
 10 42  1  0  0  0
 10 43  1  0  0  0
 11 12  1  0  0  0
 11 44  1  0  0  0
 11 45  1  0  0  0
 12 13  1  0  0  0
 12 14  1  0  0  0
 12 15  1  0  0  0
 14 46  1  0  0  0
 14 47  1  0  0  0
 15 16  2  0  0  0
 15 17  1  0  0  0
 17 18  1  0  0  0
 17 48  1  0  0  0
 18 19  1  0  0  0
 18 49  1  0  0  0
 19 20  2  0  0  0
 19 21  1  0  0  0
 21 25  1  0  0  0
 21 22  2  0  0  0
 22 23  1  0  0  0
 22 50  1  0  0  0
 23 30  1  0  0  0
 23 24  2  0  0  0
 24 25  1  0  0  0
 24 26  1  0  0  0
 26 27  1  0  0  0
 26 51  1  0  0  0
 26 52  1  0  0  0
 27 28  1  0  0  0
 27 53  1  0  0  0
 27 54  1  0  0  0
 28 29  1  0  0  0
 28 55  1  0  0  0
 28 56  1  0  0  0
 29 30  1  0  0  0
 29 57  1  0  0  0
 29 58  1  0  0  0
 30 59  1  0  0  0
 30 60  1  0  0  0
M  END
> <i_i_glide_confnum>
60

> <i_i_glide_lignum>
2762

> <i_i_glide_posenum>
212

> <i_i_glide_rotatable_bonds>
8

> <i_m_Source_File_Index>
3116

> <b_m_subgroup_collapsed>
0

> <r_i_docking_score>
-6.27268

> <r_i_glide_ecoul>
-2.77167

> <r_i_glide_eff_state_penalty>
0

> <r_i_glide_einternal>
12.1238

> <r_i_glide_emodel>
-58.9693

> <r_i_glide_energy>
-48.1806

> <r_i_glide_erotb>
0.668596

> <r_i_glide_esite>
0

> <r_i_glide_evdw>
-45.4089

> <r_i_glide_gscore>
-6.27268

> <r_i_glide_hbond>
-0.32

> <r_i_glide_ligand_efficiency>
-0.216299

> <r_i_glide_ligand_efficiency_ln>
-1.43629

> <r_i_glide_ligand_efficiency_sa>
-0.66454

> <r_i_glide_lipo>
-2.31957

> <r_i_glide_metal>
0

> <r_i_glide_rewards>
-1.61551

> <s_i_glide_gridfile>
wee1_glide-grid

> <s_m_Source_File>
wee1_decoys_glide_SP.sdf

> <s_m_Source_Path>
/Users/zhangxujun/Desktop

> <s_m_entry_id>
3391

> <s_m_entry_name>
wee1_decoys_glide_SP.3116

> <s_m_subgroup_title>
wee1_decoys_glide_SP

> <s_m_subgroupid>
wee1_decoys_glide_SP


$$$$
