ZINC14467181_3564
                    3D
 Schrodinger Suite 2024-2.
 40 43  0  0  1  0            999 V2000
    3.6506   54.0968   26.6458 C   0  0  0  0  0  0
    4.4560   54.3733   25.5332 C   0  0  0  0  0  0
    3.9444   54.0959   24.2597 C   0  0  0  0  0  0
    2.6964   53.4952   24.0988 C   0  0  0  0  0  0
    1.9053   53.1937   25.2205 C   0  0  0  0  0  0
    2.3790   53.5252   26.5110 C   0  0  0  0  0  0
    1.4498   53.2956   27.6909 C   0  0  2  0  0  0
    0.7646   54.1456   27.6821 H   0  0  0  0  0  0
    1.9585   53.1279   29.1056 C   0  0  0  0  0  0
    1.1086   52.3239   29.7758 C   0  0  0  0  0  0
    0.0599   51.7359   28.8385 C   0  0  0  0  0  0
    0.7063   51.9885   27.4787 C   0  0  1  0  0  0
    1.4206   51.1760   27.3062 H   0  0  0  0  0  0
   -0.1693   52.0964   26.2091 C   0  0  1  0  0  0
   -0.8691   52.9109   26.3697 H   0  0  0  0  0  0
    0.6612   52.5139   25.0589 N   0  0  0  0  0  0
   -1.0731   50.8763   25.9739 C   0  0  0  0  0  0
   -2.4223   50.9693   26.3423 C   0  0  0  0  0  0
   -3.2962   49.9043   26.1353 C   0  0  0  0  0  0
   -2.8299   48.7227   25.5650 C   0  0  0  0  0  0
   -1.4897   48.6015   25.2015 C   0  0  0  0  0  0
   -0.6077   49.6704   25.4139 C   0  0  0  0  0  0
    0.7044   49.5248   25.0540 O   0  0  0  0  0  0
   -0.9486   47.1225   24.4824 Cl  0  0  0  0  0  0
   -4.9547   50.0521   26.5886 Cl  0  0  0  0  0  0
    2.2924   53.1942   22.8203 O   0  0  0  0  0  0
    5.8250   54.9259   25.7007 N   0  3  0  0  0  0
    6.3028   54.9883   26.8301 O   0  0  0  0  0  0
    6.4370   55.2974   24.7033 O   0  5  0  0  0  0
    4.0194   54.3349   27.6337 H   0  0  0  0  0  0
    4.5366   54.3029   23.3791 H   0  0  0  0  0  0
    2.7786   53.6949   29.5190 H   0  0  0  0  0  0
    1.1360   52.0972   30.8325 H   0  0  0  0  0  0
   -0.9107   52.2202   28.9435 H   0  0  0  0  0  0
   -0.0948   50.6699   28.9953 H   0  0  0  0  0  0
    0.2437   52.3443   24.1572 H   0  0  0  0  0  0
   -2.8063   51.8735   26.7924 H   0  0  0  0  0  0
   -3.5079   47.8954   25.4157 H   0  0  0  0  0  0
    0.9598   48.6018   24.9546 H   0  0  0  0  0  0
    1.5895   52.5429   22.7806 H   0  0  0  0  0  0
  1  6  2  0  0  0
  1  2  1  0  0  0
  1 30  1  0  0  0
  2  3  2  0  0  0
  2 27  1  0  0  0
  3  4  1  0  0  0
  3 31  1  0  0  0
  4  5  2  0  0  0
  4 26  1  0  0  0
  5 16  1  0  0  0
  5  6  1  0  0  0
  6  7  1  0  0  0
  7  8  1  0  0  0
  7 12  1  0  0  0
  7  9  1  0  0  0
  9 10  2  0  0  0
  9 32  1  0  0  0
 10 11  1  0  0  0
 10 33  1  0  0  0
 11 12  1  0  0  0
 11 34  1  0  0  0
 11 35  1  0  0  0
 12 13  1  0  0  0
 12 14  1  0  0  0
 14 15  1  0  0  0
 14 16  1  0  0  0
 14 17  1  0  0  0
 16 36  1  0  0  0
 17 22  2  0  0  0
 17 18  1  0  0  0
 18 19  2  0  0  0
 18 37  1  0  0  0
 19 20  1  0  0  0
 19 25  1  0  0  0
 20 21  2  0  0  0
 20 38  1  0  0  0
 21 22  1  0  0  0
 21 24  1  0  0  0
 22 23  1  0  0  0
 23 39  1  0  0  0
 26 40  1  0  0  0
 27 28  2  0  0  0
 27 29  1  0  0  0
M  CHG  2  27   1  29  -1
M  END
> <i_i_glide_confnum>
3

> <i_i_glide_lignum>
3565

> <i_i_glide_posenum>
332

> <i_i_glide_rotatable_bonds>
4

> <i_m_Source_File_Index>
5767

> <b_m_subgroup_collapsed>
0

> <r_i_docking_score>
-4.98803

> <r_i_glide_ecoul>
-1.20335

> <r_i_glide_eff_state_penalty>
0

> <r_i_glide_einternal>
1.18131

> <r_i_glide_emodel>
-51.0129

> <r_i_glide_energy>
-39.4366

> <r_i_glide_erotb>
0.126325

> <r_i_glide_esite>
0

> <r_i_glide_evdw>
-38.2332

> <r_i_glide_gscore>
-4.98803

> <r_i_glide_hbond>
-0.0430895

> <r_i_glide_ligand_efficiency>
-0.191847

> <r_i_glide_ligand_efficiency_ln>
-1.17142

> <r_i_glide_ligand_efficiency_sa>
-0.568347

> <r_i_glide_lipo>
-1.75939

> <r_i_glide_metal>
0

> <r_i_glide_rewards>
-1.21971

> <s_i_glide_gridfile>
wee1_glide-grid

> <s_m_Source_File>
wee1_decoys_glide_SP.sdf

> <s_m_Source_Path>
/Users/zhangxujun/Desktop

> <s_m_entry_id>
6042

> <s_m_entry_name>
wee1_decoys_glide_SP.5767

> <s_m_subgroup_title>
wee1_decoys_glide_SP

> <s_m_subgroupid>
wee1_decoys_glide_SP


$$$$
