ZINC39656082_5540
                    3D
 Schrodinger Suite 2024-2.
 67 71  0  0  1  0            999 V2000
    5.8423   54.4966   28.7425 C   0  0  0  0  0  0
    4.5751   54.0120   28.0748 C   0  0  0  0  0  0
    3.5162   53.5166   28.8378 C   0  0  0  0  0  0
    2.3154   53.1050   28.2544 C   0  0  0  0  0  0
    2.2217   53.2138   26.8616 C   0  0  0  0  0  0
    1.2049   52.8971   25.9942 N   0  0  0  0  0  0
    1.5860   53.1779   24.7054 C   0  0  0  0  0  0
    2.8742   53.6837   24.6859 C   0  0  0  0  0  0
    3.2911   53.7094   26.0593 C   0  0  0  0  0  0
    4.4750   54.1057   26.6906 C   0  0  0  0  0  0
    3.7468   54.1149   23.5168 C   0  0  0  0  0  0
    3.0646   54.1227   22.1356 C   0  0  0  0  0  0
    2.5919   52.8105   21.7084 N   0  0  0  0  0  0
    3.3769   51.8131   21.2753 C   0  0  0  0  0  0
    4.5918   51.9271   21.1188 O   0  0  0  0  0  0
    2.6793   50.4762   20.9440 C   0  0  1  0  0  0
    3.5020   49.7642   20.9094 H   0  0  0  0  0  0
    1.7141   50.0005   22.0378 C   0  0  0  0  0  0
    0.3820   50.2955   21.4943 N   0  0  0  0  0  0
    0.4385   50.6707   20.0762 C   0  0  0  0  0  0
    1.8922   50.4314   19.6018 C   0  0  0  0  0  0
    2.0587   49.0046   19.0007 C   0  0  0  0  0  0
    1.1570   48.7591   17.7723 C   0  0  0  0  0  0
    1.5045   49.8292   16.7181 N   0  3  0  0  0  0
    1.4244   51.2833   17.2293 C   0  0  0  0  0  0
    2.3337   51.4053   18.4700 C   0  0  0  0  0  0
   -0.7846   50.4234   22.1842 C   0  0  0  0  0  0
   -1.8523   50.6708   21.6172 O   0  0  0  0  0  0
   -0.7485   50.3438   23.6355 C   0  0  0  0  0  0
    0.0040   49.4290   24.3822 C   0  0  0  0  0  0
   -0.0958   49.6958   26.0815 S   0  0  0  0  0  0
   -1.3154   50.8925   25.8364 C   0  0  0  0  0  0
   -1.5844   51.1086   24.4881 C   0  0  0  0  0  0
   -2.5696   51.9659   24.0742 O   0  0  0  0  0  0
   -2.1072   53.2744   23.7788 C   0  0  0  0  0  0
   -2.0444   51.6604   27.1901 Cl  0  0  0  0  0  0
    6.3053   55.2753   28.1321 H   0  0  0  0  0  0
    5.6230   54.9446   29.7103 H   0  0  0  0  0  0
    6.5546   53.6819   28.8783 H   0  0  0  0  0  0
    3.6247   53.4492   29.9084 H   0  0  0  0  0  0
    1.5024   52.7202   28.8545 H   0  0  0  0  0  0
    0.9030   52.9773   23.8939 H   0  0  0  0  0  0
    0.3021   52.5061   26.2250 H   0  0  0  0  0  0
    5.2983   54.4859   26.1060 H   0  0  0  0  0  0
    4.6421   53.4943   23.4672 H   0  0  0  0  0  0
    4.1180   55.1163   23.7185 H   0  0  0  0  0  0
    3.7293   54.5477   21.3799 H   0  0  0  0  0  0
    2.2018   54.7841   22.1800 H   0  0  0  0  0  0
    1.5969   52.6521   21.7384 H   0  0  0  0  0  0
    1.9592   50.4745   22.9907 H   0  0  0  0  0  0
    1.8489   48.9207   22.1259 H   0  0  0  0  0  0
   -0.3392   50.2466   19.4443 H   0  0  0  0  0  0
    0.2703   51.7500   20.0530 H   0  0  0  0  0  0
    3.1045   48.7976   18.7635 H   0  0  0  0  0  0
    1.7822   48.2580   19.7473 H   0  0  0  0  0  0
    1.3718   47.7971   17.3014 H   0  0  0  0  0  0
    0.0864   48.8228   17.9670 H   0  0  0  0  0  0
    2.4844   49.6630   16.4702 H   0  0  0  0  0  0
    1.7672   51.9145   16.4071 H   0  0  0  0  0  0
    0.3739   51.4998   17.4316 H   0  0  0  0  0  0
    2.2647   52.4367   18.8187 H   0  0  0  0  0  0
    3.3850   51.2743   18.2088 H   0  0  0  0  0  0
    0.6665   48.6507   24.0324 H   0  0  0  0  0  0
   -2.9473   53.9679   23.7960 H   0  0  0  0  0  0
   -1.3567   53.6375   24.4816 H   0  0  0  0  0  0
   -1.6856   53.2957   22.7770 H   0  0  0  0  0  0
    0.9603   49.7050   15.8759 H   0  0  0  0  0  0
  1 37  1  0  0  0
  1 38  1  0  0  0
  1 39  1  0  0  0
  1  2  1  0  0  0
  2  3  2  0  0  0
  2 10  1  0  0  0
  3  4  1  0  0  0
  3 40  1  0  0  0
  4  5  2  0  0  0
  4 41  1  0  0  0
  5  6  1  0  0  0
  5  9  1  0  0  0
  6 43  1  0  0  0
  6  7  1  0  0  0
  7  8  2  0  0  0
  7 42  1  0  0  0
  8  9  1  0  0  0
  8 11  1  0  0  0
  9 10  2  0  0  0
 10 44  1  0  0  0
 11 12  1  0  0  0
 11 45  1  0  0  0
 11 46  1  0  0  0
 12 13  1  0  0  0
 12 47  1  0  0  0
 12 48  1  0  0  0
 13 14  1  0  0  0
 13 49  1  0  0  0
 14 15  2  0  0  0
 14 16  1  0  0  0
 16 17  1  0  0  0
 16 21  1  0  0  0
 16 18  1  0  0  0
 18 19  1  0  0  0
 18 50  1  0  0  0
 18 51  1  0  0  0
 19 20  1  0  0  0
 19 27  1  0  0  0
 20 21  1  0  0  0
 20 52  1  0  0  0
 20 53  1  0  0  0
 21 26  1  0  0  0
 21 22  1  0  0  0
 22 23  1  0  0  0
 22 54  1  0  0  0
 22 55  1  0  0  0
 23 24  1  0  0  0
 23 56  1  0  0  0
 23 57  1  0  0  0
 24 25  1  0  0  0
 24 58  1  0  0  0
 24 67  1  0  0  0
 25 26  1  0  0  0
 25 59  1  0  0  0
 25 60  1  0  0  0
 26 61  1  0  0  0
 26 62  1  0  0  0
 27 28  2  0  0  0
 27 29  1  0  0  0
 29 33  1  0  0  0
 29 30  2  0  0  0
 30 31  1  0  0  0
 30 63  1  0  0  0
 31 32  1  0  0  0
 32 33  2  0  0  0
 32 36  1  0  0  0
 33 34  1  0  0  0
 34 35  1  0  0  0
 35 64  1  0  0  0
 35 65  1  0  0  0
 35 66  1  0  0  0
M  CHG  1  24   1
M  END
> <i_i_glide_confnum>
275

> <i_i_glide_lignum>
5541

> <i_i_glide_posenum>
312

> <i_i_glide_rotatable_bonds>
8

> <i_m_Source_File_Index>
2954

> <b_m_subgroup_collapsed>
0

> <r_i_docking_score>
-5.08132

> <r_i_glide_ecoul>
-6.32714

> <r_i_glide_eff_state_penalty>
0

> <r_i_glide_einternal>
8.86476

> <r_i_glide_emodel>
-61.5457

> <r_i_glide_energy>
-48.0752

> <r_i_glide_erotb>
0.539407

> <r_i_glide_esite>
-0.109231

> <r_i_glide_evdw>
-41.748

> <r_i_glide_gscore>
-5.08132

> <r_i_glide_hbond>
-0.2

> <r_i_glide_ligand_efficiency>
-0.145181

> <r_i_glide_ligand_efficiency_ln>
-1.11546

> <r_i_glide_ligand_efficiency_sa>
-0.474896

> <r_i_glide_lipo>
-2.26264

> <r_i_glide_metal>
0

> <r_i_glide_rewards>
-0.0123896

> <s_i_glide_gridfile>
wee1_glide-grid

> <s_m_Source_File>
wee1_decoys_glide_SP.sdf

> <s_m_Source_Path>
/Users/zhangxujun/Desktop

> <s_m_entry_id>
3229

> <s_m_entry_name>
wee1_decoys_glide_SP.2954

> <s_m_subgroup_title>
wee1_decoys_glide_SP

> <s_m_subgroupid>
wee1_decoys_glide_SP


$$$$
