ZINC59387284_854
                    3D
 Schrodinger Suite 2024-2.
 51 54  0  0  1  0            999 V2000
    0.7038   53.8582   30.6887 C   0  0  0  0  0  0
    1.3783   52.6459   30.5690 C   0  0  0  0  0  0
    2.5596   52.5799   29.8331 C   0  0  0  0  0  0
    3.0545   53.7235   29.2030 C   0  0  0  0  0  0
    2.3737   54.9429   29.3289 C   0  0  0  0  0  0
    1.2012   55.0090   30.0784 C   0  0  0  0  0  0
    4.2640   53.5991   28.5032 N   0  0  0  0  0  0
    4.5880   54.2094   27.3447 C   0  0  0  0  0  0
    3.8035   54.8949   26.6877 O   0  0  0  0  0  0
    6.0147   53.9588   26.8383 C   0  0  0  0  0  0
    6.7010   55.2966   25.8044 S   0  0  0  0  0  0
    6.1183   54.8188   24.2160 C   0  0  0  0  0  0
    5.1477   53.9362   23.7762 C   0  0  0  0  0  0
    5.2011   53.9515   22.3863 C   0  0  0  0  0  0
    6.1524   54.8949   22.0233 C   0  0  0  0  0  0
    6.7045   55.4223   23.1501 O   0  0  0  0  0  0
    6.6686   55.2968   20.7304 C   0  0  0  0  0  0
    7.0475   56.4742   20.4766 N   0  0  0  0  0  0
    7.5411   56.6681   19.2316 N   0  0  0  0  0  0
    6.9784   58.0616   18.3154 S   0  0  0  0  0  0
    6.7062   59.1306   19.2813 O   0  0  0  0  0  0
    7.9289   58.2643   17.2181 O   0  0  0  0  0  0
    5.4079   57.6099   17.5577 C   0  0  0  0  0  0
    4.7467   56.4174   17.8661 C   0  0  0  0  0  0
    3.5220   56.1015   17.2853 C   0  0  0  0  0  0
    2.9174   56.9898   16.3673 C   0  0  0  0  0  0
    1.6682   56.7019   15.7626 C   0  0  0  0  0  0
    1.0993   57.6004   14.8631 C   0  0  0  0  0  0
    1.7451   58.7940   14.5521 C   0  0  0  0  0  0
    2.9748   59.1038   15.1274 C   0  0  0  0  0  0
    3.5871   58.2093   16.0414 C   0  0  0  0  0  0
    4.8352   58.4963   16.6461 C   0  0  0  0  0  0
   -0.2049   53.9037   31.2718 H   0  0  0  0  0  0
    0.9818   51.7655   31.0528 H   0  0  0  0  0  0
    3.0791   51.6384   29.7371 H   0  0  0  0  0  0
    2.7566   55.8444   28.8696 H   0  0  0  0  0  0
    0.6900   55.9539   30.1905 H   0  0  0  0  0  0
    4.9158   52.9188   28.8656 H   0  0  0  0  0  0
    6.6768   53.8659   27.6975 H   0  0  0  0  0  0
    6.0607   53.0037   26.3196 H   0  0  0  0  0  0
    4.4993   53.3271   24.3901 H   0  0  0  0  0  0
    4.6002   53.3536   21.7147 H   0  0  0  0  0  0
    6.6475   54.4923   20.0007 H   0  0  0  0  0  0
    7.6525   55.8275   18.6573 H   0  0  0  0  0  0
    5.1640   55.7086   18.5597 H   0  0  0  0  0  0
    3.0210   55.1808   17.5443 H   0  0  0  0  0  0
    1.1596   55.7796   16.0041 H   0  0  0  0  0  0
    0.1501   57.3705   14.4029 H   0  0  0  0  0  0
    1.2893   59.4853   13.8608 H   0  0  0  0  0  0
    3.4685   60.0359   14.8915 H   0  0  0  0  0  0
    5.3405   59.4258   16.4054 H   0  0  0  0  0  0
  1  6  2  0  0  0
  1  2  1  0  0  0
  1 33  1  0  0  0
  2  3  2  0  0  0
  2 34  1  0  0  0
  3  4  1  0  0  0
  3 35  1  0  0  0
  4  5  2  0  0  0
  4  7  1  0  0  0
  5  6  1  0  0  0
  5 36  1  0  0  0
  6 37  1  0  0  0
  7  8  1  0  0  0
  7 38  1  0  0  0
  8  9  2  0  0  0
  8 10  1  0  0  0
 10 11  1  0  0  0
 10 39  1  0  0  0
 10 40  1  0  0  0
 11 12  1  0  0  0
 12 16  1  0  0  0
 12 13  2  0  0  0
 13 14  1  0  0  0
 13 41  1  0  0  0
 14 15  2  0  0  0
 14 42  1  0  0  0
 15 16  1  0  0  0
 15 17  1  0  0  0
 17 18  2  0  0  0
 17 43  1  0  0  0
 18 19  1  0  0  0
 19 20  1  0  0  0
 19 44  1  0  0  0
 20 21  2  0  0  0
 20 22  2  0  0  0
 20 23  1  0  0  0
 23 32  2  0  0  0
 23 24  1  0  0  0
 24 25  2  0  0  0
 24 45  1  0  0  0
 25 26  1  0  0  0
 25 46  1  0  0  0
 26 31  2  0  0  0
 26 27  1  0  0  0
 27 28  2  0  0  0
 27 47  1  0  0  0
 28 29  1  0  0  0
 28 48  1  0  0  0
 29 30  2  0  0  0
 29 49  1  0  0  0
 30 31  1  0  0  0
 30 50  1  0  0  0
 31 32  1  0  0  0
 32 51  1  0  0  0
M  END
> <i_i_glide_confnum>
3

> <i_i_glide_lignum>
855

> <i_i_glide_posenum>
388

> <i_i_glide_rotatable_bonds>
9

> <i_m_Source_File_Index>
621

> <b_m_subgroup_collapsed>
0

> <r_i_docking_score>
-4.55752

> <r_i_glide_ecoul>
-6.10497

> <r_i_glide_eff_state_penalty>
0

> <r_i_glide_einternal>
10.5501

> <r_i_glide_emodel>
-58.7818

> <r_i_glide_energy>
-53.738

> <r_i_glide_erotb>
0.651377

> <r_i_glide_esite>
-0.174292

> <r_i_glide_evdw>
-47.633

> <r_i_glide_gscore>
-4.55752

> <r_i_glide_hbond>
-0.25962

> <r_i_glide_ligand_efficiency>
-0.142422

> <r_i_glide_ligand_efficiency_ln>
-1.02055

> <r_i_glide_ligand_efficiency_sa>
-0.452163

> <r_i_glide_lipo>
-2.79085

> <r_i_glide_metal>
0

> <r_i_glide_rewards>
1.31326

> <s_i_glide_gridfile>
wee1_glide-grid

> <s_m_Source_File>
wee1_decoys_glide_SP.sdf

> <s_m_Source_Path>
/Users/zhangxujun/Desktop

> <s_m_entry_id>
896

> <s_m_entry_name>
wee1_decoys_glide_SP.621

> <s_m_subgroup_title>
wee1_decoys_glide_SP

> <s_m_subgroupid>
wee1_decoys_glide_SP


$$$$
