ZINC65669324_1502
                    3D
 Schrodinger Suite 2024-2.
 38 40  0  0  1  0            999 V2000
    5.5603   54.0978   22.4830 C   0  0  0  0  0  0
    5.8083   54.1027   23.8473 C   0  0  0  0  0  0
    4.7521   54.1186   24.7742 C   0  0  0  0  0  0
    3.4366   54.0974   24.2886 C   0  0  0  0  0  0
    3.1883   54.0958   22.9152 C   0  0  0  0  0  0
    4.2466   54.0957   22.0031 C   0  0  0  0  0  0
    3.9046   54.0965   20.6369 N   0  0  0  0  0  0
    4.6993   54.0997   19.5452 C   0  0  0  0  0  0
    5.9260   54.0849   19.5419 O   0  0  0  0  0  0
    3.9483   54.0983   18.2411 C   0  0  0  0  0  0
    3.3299   52.8962   17.8611 C   0  0  0  0  0  0
    2.5968   52.8061   16.6833 C   0  0  0  0  0  0
    2.4756   53.9179   15.8583 C   0  0  0  0  0  0
    3.0938   55.1139   16.2125 C   0  0  0  0  0  0
    3.8408   55.2377   17.3955 C   0  0  0  0  0  0
    4.4504   56.5665   17.6940 N   0  3  0  0  0  0
    5.4756   56.6392   18.3630 O   0  0  0  0  0  0
    3.9043   57.5617   17.2264 O   0  5  0  0  0  0
    1.7587   53.8439   14.7129 F   0  0  0  0  0  0
    1.9998   51.6401   16.3458 F   0  0  0  0  0  0
    4.9898   54.1177   26.1779 N   0  0  0  0  0  0
    4.0046   53.6972   27.1708 C   0  0  0  0  0  0
    4.7851   53.6624   28.4587 C   0  0  0  0  0  0
    5.8953   54.5007   28.1012 N   0  0  0  0  0  0
    6.0938   54.6454   26.7841 C   0  0  0  0  0  0
    7.1042   55.1146   26.2727 O   0  0  0  0  0  0
    6.4122   54.1033   21.8279 H   0  0  0  0  0  0
    6.8429   54.0762   24.1560 H   0  0  0  0  0  0
    2.5937   54.0978   24.9635 H   0  0  0  0  0  0
    2.1669   54.0965   22.5639 H   0  0  0  0  0  0
    2.9108   54.1624   20.4487 H   0  0  0  0  0  0
    3.4244   52.0056   18.4710 H   0  0  0  0  0  0
    2.9845   55.9584   15.5451 H   0  0  0  0  0  0
    3.1787   54.4108   27.2183 H   0  0  0  0  0  0
    3.6031   52.7153   26.9177 H   0  0  0  0  0  0
    5.1109   52.6632   28.7588 H   0  0  0  0  0  0
    4.2110   54.1238   29.2646 H   0  0  0  0  0  0
    6.3581   55.0941   28.7797 H   0  0  0  0  0  0
  1  6  2  0  0  0
  1  2  1  0  0  0
  1 27  1  0  0  0
  2  3  2  0  0  0
  2 28  1  0  0  0
  3  4  1  0  0  0
  3 21  1  0  0  0
  4  5  2  0  0  0
  4 29  1  0  0  0
  5  6  1  0  0  0
  5 30  1  0  0  0
  6  7  1  0  0  0
  7  8  1  0  0  0
  7 31  1  0  0  0
  8  9  2  0  0  0
  8 10  1  0  0  0
 10 15  2  0  0  0
 10 11  1  0  0  0
 11 12  2  0  0  0
 11 32  1  0  0  0
 12 13  1  0  0  0
 12 20  1  0  0  0
 13 14  2  0  0  0
 13 19  1  0  0  0
 14 15  1  0  0  0
 14 33  1  0  0  0
 15 16  1  0  0  0
 16 17  2  0  0  0
 16 18  1  0  0  0
 21 25  1  0  0  0
 21 22  1  0  0  0
 22 23  1  0  0  0
 22 34  1  0  0  0
 22 35  1  0  0  0
 23 24  1  0  0  0
 23 36  1  0  0  0
 23 37  1  0  0  0
 24 25  1  0  0  0
 24 38  1  0  0  0
 25 26  2  0  0  0
M  CHG  2  16   1  18  -1
M  END
> <i_i_glide_confnum>
29

> <i_i_glide_lignum>
1503

> <i_i_glide_posenum>
380

> <i_i_glide_rotatable_bonds>
5

> <i_m_Source_File_Index>
5044

> <b_m_subgroup_collapsed>
0

> <r_i_docking_score>
-8.20209

> <r_i_glide_ecoul>
-9.38677

> <r_i_glide_eff_state_penalty>
0

> <r_i_glide_einternal>
2.16894

> <r_i_glide_emodel>
-64.1418

> <r_i_glide_energy>
-43.7392

> <r_i_glide_erotb>
0.409598

> <r_i_glide_esite>
-0.0868764

> <r_i_glide_evdw>
-34.3524

> <r_i_glide_gscore>
-8.20209

> <r_i_glide_hbond>
-0.855894

> <r_i_glide_ligand_efficiency>
-0.315465

> <r_i_glide_ligand_efficiency_ln>
-1.92623

> <r_i_glide_ligand_efficiency_sa>
-0.934564

> <r_i_glide_lipo>
-1.82087

> <r_i_glide_metal>
0

> <r_i_glide_rewards>
-2.72242

> <s_i_glide_gridfile>
wee1_glide-grid

> <s_m_Source_File>
wee1_decoys_glide_SP.sdf

> <s_m_Source_Path>
/Users/zhangxujun/Desktop

> <s_m_entry_id>
5319

> <s_m_entry_name>
wee1_decoys_glide_SP.5044

> <s_m_subgroup_title>
wee1_decoys_glide_SP

> <s_m_subgroupid>
wee1_decoys_glide_SP


$$$$
