ZINC22972597_5639
                    3D
 Schrodinger Suite 2024-2.
 50 54  0  0  1  0            999 V2000
    4.7326   52.3101   20.7472 C   0  0  0  0  0  0
    5.1045   53.6959   20.2586 C   0  0  0  0  0  0
    4.9360   54.1761   18.9180 C   0  0  0  0  0  0
    4.4312   53.6536   17.7167 C   0  0  0  0  0  0
    4.4061   54.4539   16.5695 C   0  0  0  0  0  0
    4.8851   55.7908   16.5770 C   0  0  0  0  0  0
    4.8474   56.6157   15.4254 C   0  0  0  0  0  0
    5.3217   57.9253   15.4827 C   0  0  0  0  0  0
    5.8461   58.4398   16.6652 C   0  0  0  0  0  0
    5.9061   57.6558   17.8156 C   0  0  0  0  0  0
    5.4207   56.3248   17.7833 C   0  0  0  0  0  0
    5.4344   55.4899   18.9244 C   0  0  0  0  0  0
    5.9124   55.8430   20.1501 O   0  0  0  0  0  0
    5.6643   54.7745   20.9651 C   0  0  0  0  0  0
    6.0685   54.8965   22.3378 C   0  0  0  0  0  0
    7.1042   55.4771   22.6566 O   0  0  0  0  0  0
    5.1586   54.3749   23.1850 N   0  0  0  0  0  0
    5.2048   54.3526   24.5688 C   0  0  0  0  0  0
    6.2427   54.4973   25.3561 N   0  0  0  0  0  0
    5.9409   54.2250   26.6182 C   0  0  0  0  0  0
    4.6059   53.8643   26.8815 C   0  0  0  0  0  0
    3.7307   53.9823   25.3757 S   0  0  0  0  0  0
    4.0061   53.3191   28.1209 C   0  0  0  0  0  0
    4.7046   52.5908   28.9579 N   0  0  0  0  0  0
    3.8802   52.2024   30.0028 N   0  0  0  0  0  0
    2.7009   52.7153   29.7729 C   0  0  0  0  0  0
    1.3462   52.4967   30.8814 S   0  5  0  0  0  0
    2.7065   53.4439   28.5922 N   0  0  0  0  0  0
    1.5886   54.1972   28.0158 C   0  0  0  0  0  0
    1.3741   55.5794   28.6042 C   0  0  0  0  0  0
    1.9709   56.1267   29.6732 C   0  0  0  0  0  0
    7.1006   54.2898   27.5876 C   0  0  0  0  0  0
    5.1313   51.5445   20.0825 H   0  0  0  0  0  0
    5.1142   52.0850   21.7424 H   0  0  0  0  0  0
    3.6518   52.1726   20.7719 H   0  0  0  0  0  0
    4.0624   52.6376   17.6753 H   0  0  0  0  0  0
    4.0082   54.0464   15.6514 H   0  0  0  0  0  0
    4.4415   56.2256   14.5033 H   0  0  0  0  0  0
    5.2791   58.5531   14.6045 H   0  0  0  0  0  0
    6.1998   59.4611   16.6890 H   0  0  0  0  0  0
    6.3045   58.0636   18.7331 H   0  0  0  0  0  0
    4.3015   54.0446   22.7672 H   0  0  0  0  0  0
    0.6749   53.6171   28.1496 H   0  0  0  0  0  0
    1.7000   54.2869   26.9442 H   0  0  0  0  0  0
    0.6407   56.1619   28.0817 H   0  0  0  0  0  0
    2.7045   55.5806   30.2410 H   0  0  0  0  0  0
    1.7307   57.1289   29.9981 H   0  0  0  0  0  0
    7.5042   55.2962   27.6715 H   0  0  0  0  0  0
    6.8295   54.0026   28.6018 H   0  0  0  0  0  0
    7.9041   53.6233   27.2820 H   0  0  0  0  0  0
  1  2  1  0  0  0
  1 33  1  0  0  0
  1 34  1  0  0  0
  1 35  1  0  0  0
  2 14  2  0  0  0
  2  3  1  0  0  0
  3 12  2  0  0  0
  3  4  1  0  0  0
  4  5  2  0  0  0
  4 36  1  0  0  0
  5  6  1  0  0  0
  5 37  1  0  0  0
  6 11  2  0  0  0
  6  7  1  0  0  0
  7  8  2  0  0  0
  7 38  1  0  0  0
  8  9  1  0  0  0
  8 39  1  0  0  0
  9 10  2  0  0  0
  9 40  1  0  0  0
 10 11  1  0  0  0
 10 41  1  0  0  0
 11 12  1  0  0  0
 12 13  1  0  0  0
 13 14  1  0  0  0
 14 15  1  0  0  0
 15 16  2  0  0  0
 15 17  1  0  0  0
 17 18  1  0  0  0
 17 42  1  0  0  0
 18 22  1  0  0  0
 18 19  2  0  0  0
 19 20  1  0  0  0
 20 21  2  0  0  0
 20 32  1  0  0  0
 21 22  1  0  0  0
 21 23  1  0  0  0
 23 28  1  0  0  0
 23 24  2  0  0  0
 24 25  1  0  0  0
 25 26  2  0  0  0
 26 27  1  0  0  0
 26 28  1  0  0  0
 28 29  1  0  0  0
 29 30  1  0  0  0
 29 43  1  0  0  0
 29 44  1  0  0  0
 30 31  2  0  0  0
 30 45  1  0  0  0
 31 46  1  0  0  0
 31 47  1  0  0  0
 32 48  1  0  0  0
 32 49  1  0  0  0
 32 50  1  0  0  0
M  CHG  1  27  -1
M  END
> <i_i_glide_confnum>
121

> <i_i_glide_lignum>
5640

> <i_i_glide_posenum>
42

> <i_i_glide_rotatable_bonds>
6

> <i_m_Source_File_Index>
5842

> <b_m_subgroup_collapsed>
0

> <r_i_docking_score>
-5.54704

> <r_i_glide_ecoul>
-1.69732

> <r_i_glide_eff_state_penalty>
0

> <r_i_glide_einternal>
10.0478

> <r_i_glide_emodel>
-58.2964

> <r_i_glide_energy>
-45.277

> <r_i_glide_erotb>
0.569404

> <r_i_glide_esite>
0

> <r_i_glide_evdw>
-43.5796

> <r_i_glide_gscore>
-5.54704

> <r_i_glide_hbond>
0

> <r_i_glide_ligand_efficiency>
-0.173345

> <r_i_glide_ligand_efficiency_ln>
-1.24213

> <r_i_glide_ligand_efficiency_sa>
-0.550336

> <r_i_glide_lipo>
-2.28789

> <r_i_glide_metal>
0

> <r_i_glide_rewards>
-1.39497

> <s_i_glide_gridfile>
wee1_glide-grid

> <s_m_Source_File>
wee1_decoys_glide_SP.sdf

> <s_m_Source_Path>
/Users/zhangxujun/Desktop

> <s_m_entry_id>
6117

> <s_m_entry_name>
wee1_decoys_glide_SP.5842

> <s_m_subgroup_title>
wee1_decoys_glide_SP

> <s_m_subgroupid>
wee1_decoys_glide_SP


$$$$
