ZINC12547053_672
                    3D
 Schrodinger Suite 2024-2.
 57 62  0  0  1  0            999 V2000
    0.3042   50.6107   26.5960 C   0  0  0  0  0  0
   -0.3255   51.6101   25.8527 C   0  0  0  0  0  0
   -0.8921   51.2653   24.6267 C   0  0  0  0  0  0
   -0.8545   49.9767   24.1569 C   0  0  0  0  0  0
   -0.2574   48.9621   24.9003 C   0  0  0  0  0  0
    0.3431   49.2968   26.1104 C   0  0  0  0  0  0
   -0.2508   47.6366   24.4817 N   0  0  0  0  0  0
   -1.5195   49.9513   22.8325 C   0  0  0  0  0  0
   -1.6860   48.9877   22.0830 O   0  0  0  0  0  0
   -1.8922   51.2383   22.6097 N   0  0  0  0  0  0
   -1.5957   52.0934   23.6225 C   0  0  0  0  0  0
   -1.8480   53.2966   23.6818 O   0  0  0  0  0  0
   -2.4929   51.7077   21.3511 C   0  0  0  0  0  0
   -1.5623   51.6967   20.1059 C   0  0  0  0  0  0
   -2.1417   51.7941   19.0231 O   0  0  0  0  0  0
   -0.2041   51.5943   20.1842 N   0  0  0  0  0  0
    0.6768   51.4172   19.0244 C   0  0  1  0  0  0
    0.2203   51.7841   18.1031 H   0  0  0  0  0  0
    1.8538   52.3137   19.3931 C   0  0  2  0  0  0
    1.6817   53.2960   18.9425 H   0  0  0  0  0  0
    3.2802   51.8635   19.0417 C   0  0  0  0  0  0
    4.2795   52.8918   19.5785 C   0  0  0  0  0  0
    4.1746   53.0951   21.1086 C   0  0  0  0  0  0
    2.7662   52.9522   21.7259 C   0  0  0  0  0  0
    2.4925   53.2342   23.0279 C   0  0  0  0  0  0
    3.3408   53.6965   24.1269 C   0  0  0  0  0  0
    4.6721   54.1229   24.1280 C   0  0  0  0  0  0
    5.1374   54.4961   25.3928 C   0  0  0  0  0  0
    4.1875   54.3196   26.3843 C   0  0  0  0  0  0
    2.7047   53.6971   25.7464 S   0  0  0  0  0  0
    1.6811   52.4388   20.8897 C   0  0  0  0  0  0
    0.5052   52.0927   21.2392 N   0  0  0  0  0  0
    1.0015   49.9508   18.7385 C   0  0  0  0  0  0
    1.1046   49.3049   17.5060 C   0  0  0  0  0  0
    1.3852   47.9397   17.5835 C   0  0  0  0  0  0
    1.5004   47.5013   18.8878 C   0  0  0  0  0  0
    1.3002   48.7933   20.0186 S   0  0  0  0  0  0
    0.7598   50.8469   27.5454 H   0  0  0  0  0  0
   -0.3541   52.6236   26.2246 H   0  0  0  0  0  0
    0.8175   48.5258   26.6998 H   0  0  0  0  0  0
   -0.7204   47.3895   23.6230 H   0  0  0  0  0  0
    0.1101   46.9569   25.1440 H   0  0  0  0  0  0
   -3.3282   51.0390   21.1370 H   0  0  0  0  0  0
   -2.8956   52.6990   21.4960 H   0  0  0  0  0  0
    3.5044   50.8764   19.4484 H   0  0  0  0  0  0
    3.3847   51.7698   17.9606 H   0  0  0  0  0  0
    4.0960   53.8445   19.0783 H   0  0  0  0  0  0
    5.2955   52.6003   19.3087 H   0  0  0  0  0  0
    4.5872   54.0782   21.3221 H   0  0  0  0  0  0
    4.8213   52.3695   21.6044 H   0  0  0  0  0  0
    1.4754   53.1002   23.3728 H   0  0  0  0  0  0
    5.3065   54.1850   23.2605 H   0  0  0  0  0  0
    6.1352   54.8662   25.5754 H   0  0  0  0  0  0
    4.2896   54.5130   27.4420 H   0  0  0  0  0  0
    0.9822   49.8178   16.5637 H   0  0  0  0  0  0
    1.5076   47.3060   16.7187 H   0  0  0  0  0  0
    1.7100   46.5010   19.2305 H   0  0  0  0  0  0
  1  6  2  0  0  0
  1  2  1  0  0  0
  1 38  1  0  0  0
  2  3  2  0  0  0
  2 39  1  0  0  0
  3 11  1  0  0  0
  3  4  1  0  0  0
  4  5  2  0  0  0
  4  8  1  0  0  0
  5  6  1  0  0  0
  5  7  1  0  0  0
  6 40  1  0  0  0
  7 41  1  0  0  0
  7 42  1  0  0  0
  8  9  2  0  0  0
  8 10  1  0  0  0
 10 11  1  0  0  0
 10 13  1  0  0  0
 11 12  2  0  0  0
 13 14  1  0  0  0
 13 43  1  0  0  0
 13 44  1  0  0  0
 14 15  2  0  0  0
 14 16  1  0  0  0
 16 32  1  0  0  0
 16 17  1  0  0  0
 17 18  1  0  0  0
 17 19  1  0  0  0
 17 33  1  0  0  0
 19 20  1  0  0  0
 19 31  1  0  0  0
 19 21  1  0  0  0
 21 22  1  0  0  0
 21 45  1  0  0  0
 21 46  1  0  0  0
 22 23  1  0  0  0
 22 47  1  0  0  0
 22 48  1  0  0  0
 23 24  1  0  0  0
 23 49  1  0  0  0
 23 50  1  0  0  0
 24 25  2  0  0  0
 24 31  1  0  0  0
 25 26  1  0  0  0
 25 51  1  0  0  0
 26 30  1  0  0  0
 26 27  2  0  0  0
 27 28  1  0  0  0
 27 52  1  0  0  0
 28 29  2  0  0  0
 28 53  1  0  0  0
 29 30  1  0  0  0
 29 54  1  0  0  0
 31 32  2  0  0  0
 33 37  1  0  0  0
 33 34  2  0  0  0
 34 35  1  0  0  0
 34 55  1  0  0  0
 35 36  2  0  0  0
 35 56  1  0  0  0
 36 37  1  0  0  0
 36 57  1  0  0  0
M  END
> <i_i_glide_confnum>
2

> <i_i_glide_lignum>
673

> <i_i_glide_posenum>
113

> <i_i_glide_rotatable_bonds>
5

> <i_m_Source_File_Index>
4519

> <b_m_subgroup_collapsed>
0

> <r_i_docking_score>
-3.79241

> <r_i_glide_ecoul>
-2.0494

> <r_i_glide_eff_state_penalty>
0

> <r_i_glide_einternal>
1.95846

> <r_i_glide_emodel>
-49.5567

> <r_i_glide_energy>
-39.82

> <r_i_glide_erotb>
0.323563

> <r_i_glide_esite>
-0.130323

> <r_i_glide_evdw>
-37.7706

> <r_i_glide_gscore>
-3.79241

> <r_i_glide_hbond>
-0.32

> <r_i_glide_ligand_efficiency>
-0.108354

> <r_i_glide_ligand_efficiency_ln>
-0.832517

> <r_i_glide_ligand_efficiency_sa>
-0.354435

> <r_i_glide_lipo>
-1.44173

> <r_i_glide_metal>
0

> <r_i_glide_rewards>
-0.0279713

> <s_i_glide_gridfile>
wee1_glide-grid

> <s_m_Source_File>
wee1_decoys_glide_SP.sdf

> <s_m_Source_Path>
/Users/zhangxujun/Desktop

> <s_m_entry_id>
4794

> <s_m_entry_name>
wee1_decoys_glide_SP.4519

> <s_m_subgroup_title>
wee1_decoys_glide_SP

> <s_m_subgroupid>
wee1_decoys_glide_SP


$$$$
