ZINC14457568_3868
                    3D
 Schrodinger Suite 2024-2.
 52 55  0  0  1  0            999 V2000
   -3.9463   50.7082   27.5641 C   0  0  0  0  0  0
   -2.8084   51.3480   26.7840 C   0  0  0  0  0  0
   -1.5189   51.3487   27.2997 C   0  0  0  0  0  0
   -0.4514   51.9121   26.5994 C   0  0  0  0  0  0
   -0.6625   52.4910   25.3109 C   0  0  0  0  0  0
   -1.9911   52.4910   24.8029 C   0  0  0  0  0  0
   -3.0345   51.9202   25.5380 C   0  0  0  0  0  0
   -2.3860   53.1250   23.4723 C   0  0  0  0  0  0
    0.4839   53.1076   24.4438 C   0  0  2  0  0  0
    0.0722   54.0355   24.0506 H   0  0  0  0  0  0
    0.8789   52.2197   23.2210 C   0  0  2  0  0  0
    0.0267   52.2404   22.5449 H   0  0  0  0  0  0
    1.1253   50.7317   23.4914 C   0  0  0  0  0  0
    2.0988   50.3438   22.4001 C   0  0  0  0  0  0
    2.5946   51.4278   21.7742 C   0  0  0  0  0  0
    2.0654   52.7206   22.3765 C   0  0  2  0  0  0
    1.7076   53.3945   21.6007 H   0  0  0  0  0  0
    3.1203   53.4770   23.1847 C   0  0  0  0  0  0
    4.3544   53.8291   22.6126 C   0  0  0  0  0  0
    5.3617   54.4616   23.3618 C   0  0  0  0  0  0
    5.1382   54.7320   24.7122 C   0  0  0  0  0  0
    3.9000   54.4421   25.2802 C   0  0  0  0  0  0
    2.8987   53.8214   24.5286 C   0  0  0  0  0  0
    1.6710   53.5781   25.1606 N   0  0  0  0  0  0
    6.6002   54.8504   22.8189 N   0  0  0  0  0  0
    6.8206   55.3302   21.5783 C   0  0  0  0  0  0
    5.9555   55.4818   20.7189 O   0  0  0  0  0  0
    8.2539   55.7476   21.2771 C   0  0  0  0  0  0
    0.8876   51.8470   27.3298 C   0  0  0  0  0  0
   -4.7183   50.3211   26.8955 H   0  0  0  0  0  0
   -3.5824   49.8567   28.1449 H   0  0  0  0  0  0
   -4.3978   51.4299   28.2471 H   0  0  0  0  0  0
   -1.3535   50.8966   28.2695 H   0  0  0  0  0  0
   -4.0401   51.9162   25.1394 H   0  0  0  0  0  0
   -3.4632   53.3036   23.4163 H   0  0  0  0  0  0
   -1.9231   54.0965   23.3508 H   0  0  0  0  0  0
   -2.1102   52.4853   22.6338 H   0  0  0  0  0  0
    1.5303   50.5449   24.4828 H   0  0  0  0  0  0
    0.1959   50.1613   23.4160 H   0  0  0  0  0  0
    2.3465   49.3119   22.1883 H   0  0  0  0  0  0
    3.3183   51.4247   20.9715 H   0  0  0  0  0  0
    4.5273   53.5940   21.5700 H   0  0  0  0  0  0
    5.8933   55.2167   25.3156 H   0  0  0  0  0  0
    3.7227   54.6950   26.3129 H   0  0  0  0  0  0
    1.4948   53.9071   26.0991 H   0  0  0  0  0  0
    7.3783   54.8877   23.4615 H   0  0  0  0  0  0
    8.9285   54.8993   21.3171 H   0  0  0  0  0  0
    8.5892   56.4923   21.9996 H   0  0  0  0  0  0
    8.3255   56.1823   20.2816 H   0  0  0  0  0  0
    0.9212   51.0071   28.0272 H   0  0  0  0  0  0
    1.7259   51.6954   26.6605 H   0  0  0  0  0  0
    1.0543   52.7676   27.8912 H   0  0  0  0  0  0
  1  2  1  0  0  0
  1 30  1  0  0  0
  1 31  1  0  0  0
  1 32  1  0  0  0
  2  7  2  0  0  0
  2  3  1  0  0  0
  3  4  2  0  0  0
  3 33  1  0  0  0
  4  5  1  0  0  0
  4 29  1  0  0  0
  5  6  2  0  0  0
  5  9  1  0  0  0
  6  7  1  0  0  0
  6  8  1  0  0  0
  7 34  1  0  0  0
  8 35  1  0  0  0
  8 36  1  0  0  0
  8 37  1  0  0  0
  9 10  1  0  0  0
  9 24  1  0  0  0
  9 11  1  0  0  0
 11 12  1  0  0  0
 11 16  1  0  0  0
 11 13  1  0  0  0
 13 14  1  0  0  0
 13 38  1  0  0  0
 13 39  1  0  0  0
 14 15  2  0  0  0
 14 40  1  0  0  0
 15 16  1  0  0  0
 15 41  1  0  0  0
 16 17  1  0  0  0
 16 18  1  0  0  0
 18 23  2  0  0  0
 18 19  1  0  0  0
 19 20  2  0  0  0
 19 42  1  0  0  0
 20 21  1  0  0  0
 20 25  1  0  0  0
 21 22  2  0  0  0
 21 43  1  0  0  0
 22 23  1  0  0  0
 22 44  1  0  0  0
 23 24  1  0  0  0
 24 45  1  0  0  0
 25 26  1  0  0  0
 25 46  1  0  0  0
 26 27  2  0  0  0
 26 28  1  0  0  0
 28 47  1  0  0  0
 28 48  1  0  0  0
 28 49  1  0  0  0
 29 50  1  0  0  0
 29 51  1  0  0  0
 29 52  1  0  0  0
M  END
> <i_i_glide_confnum>
5

> <i_i_glide_lignum>
3869

> <i_i_glide_posenum>
9

> <i_i_glide_rotatable_bonds>
3

> <i_m_Source_File_Index>
3910

> <b_m_subgroup_collapsed>
0

> <r_i_docking_score>
-5.11699

> <r_i_glide_ecoul>
-0.635411

> <r_i_glide_eff_state_penalty>
0

> <r_i_glide_einternal>
2.59829

> <r_i_glide_emodel>
-43.4758

> <r_i_glide_energy>
-34.0345

> <r_i_glide_erotb>
0.316773

> <r_i_glide_esite>
0

> <r_i_glide_evdw>
-33.399

> <r_i_glide_gscore>
-5.11699

> <r_i_glide_hbond>
-0.0906771

> <r_i_glide_ligand_efficiency>
-0.196807

> <r_i_glide_ligand_efficiency_ln>
-1.20171

> <r_i_glide_ligand_efficiency_sa>
-0.583041

> <r_i_glide_lipo>
-2.37937

> <r_i_glide_metal>
0

> <r_i_glide_rewards>
-1.19846

> <s_i_glide_gridfile>
wee1_glide-grid

> <s_m_Source_File>
wee1_decoys_glide_SP.sdf

> <s_m_Source_Path>
/Users/zhangxujun/Desktop

> <s_m_entry_id>
4185

> <s_m_entry_name>
wee1_decoys_glide_SP.3910

> <s_m_subgroup_title>
wee1_decoys_glide_SP

> <s_m_subgroupid>
wee1_decoys_glide_SP


$$$$
