ZINC02240365_4524
                    3D
 Schrodinger Suite 2024-2.
 56 60  0  0  1  0            999 V2000
    1.1410   55.7492   29.3520 C   0  0  0  0  0  0
    0.8016   54.6224   30.3527 C   0  0  0  0  0  0
    1.4062   53.1941   30.1302 C   0  0  2  0  0  0
    2.8207   53.2142   29.4436 C   0  0  0  0  0  0
    2.6903   53.3543   27.9219 C   0  0  0  0  0  0
    1.4789   53.1076   27.2897 C   0  0  0  0  0  0
    1.5044   53.2960   25.5616 S   0  0  0  0  0  0
    3.1825   53.7397   25.6381 C   0  0  0  0  0  0
    3.7052   53.7102   26.9646 C   0  0  0  0  0  0
    5.0811   54.0388   27.0558 C   0  0  0  0  0  0
    5.8254   54.3086   25.9489 N   0  0  0  0  0  0
    5.1918   54.2735   24.7484 C   0  0  0  0  0  0
    3.8738   54.0431   24.5431 N   0  0  0  0  0  0
    6.1841   54.4967   23.2993 S   0  0  0  0  0  0
    5.0758   54.4706   21.8341 C   0  0  0  0  0  0
    4.4413   53.1086   21.5231 C   0  0  0  0  0  0
    5.1043   52.0867   21.6815 O   0  0  0  0  0  0
    3.1688   53.0998   21.0714 N   0  0  0  0  0  0
    2.4526   51.9352   20.7369 C   0  0  0  0  0  0
    2.9629   51.0778   19.7599 C   0  0  0  0  0  0
    2.2915   49.9215   19.3892 C   0  0  0  0  0  0
    1.0844   49.5865   19.9901 C   0  0  0  0  0  0
    0.5192   50.4270   20.9799 C   0  0  0  0  0  0
    1.2034   51.6270   21.3608 C   0  0  0  0  0  0
    0.6080   52.4527   22.3528 C   0  0  0  0  0  0
   -0.6034   52.0984   22.9425 C   0  0  0  0  0  0
   -1.2593   50.9330   22.5690 C   0  0  0  0  0  0
   -0.7133   50.0993   21.5984 C   0  0  0  0  0  0
    5.7467   54.0963   28.2798 N   0  0  0  0  0  0
    0.2143   52.7559   28.0388 C   0  0  0  0  0  0
    0.5401   52.3533   29.3604 O   0  0  0  0  0  0
    1.4664   52.3901   31.4423 C   0  0  0  0  0  0
    0.7049   56.6930   29.6795 H   0  0  0  0  0  0
    2.2149   55.9171   29.2749 H   0  0  0  0  0  0
    0.7614   55.5500   28.3514 H   0  0  0  0  0  0
   -0.2822   54.5286   30.4193 H   0  0  0  0  0  0
    1.1033   54.9827   31.3350 H   0  0  0  0  0  0
    3.3474   52.2796   29.6395 H   0  0  0  0  0  0
    3.4377   53.9950   29.8858 H   0  0  0  0  0  0
    5.6616   54.7654   20.9644 H   0  0  0  0  0  0
    4.3006   55.2244   21.9630 H   0  0  0  0  0  0
    2.6386   53.9610   21.0681 H   0  0  0  0  0  0
    3.9036   51.3081   19.2814 H   0  0  0  0  0  0
    2.7170   49.2852   18.6252 H   0  0  0  0  0  0
    0.5701   48.6826   19.6971 H   0  0  0  0  0  0
    1.1039   53.3625   22.6566 H   0  0  0  0  0  0
   -1.0368   52.7353   23.7001 H   0  0  0  0  0  0
   -2.1964   50.6709   23.0386 H   0  0  0  0  0  0
   -1.2277   49.1929   21.3135 H   0  0  0  0  0  0
    5.2445   53.8952   29.1307 H   0  0  0  0  0  0
    6.7200   54.3670   28.3064 H   0  0  0  0  0  0
   -0.4883   53.5889   28.0561 H   0  0  0  0  0  0
   -0.3017   51.9264   27.5546 H   0  0  0  0  0  0
    2.0469   52.8927   32.2044 H   0  0  0  0  0  0
    0.4670   52.2379   31.8546 H   0  0  0  0  0  0
    1.9048   51.4055   31.3027 H   0  0  0  0  0  0
  1  2  1  0  0  0
  1 33  1  0  0  0
  1 34  1  0  0  0
  1 35  1  0  0  0
  2  3  1  0  0  0
  2 36  1  0  0  0
  2 37  1  0  0  0
  3 31  1  0  0  0
  3  4  1  0  0  0
  3 32  1  0  0  0
  4  5  1  0  0  0
  4 38  1  0  0  0
  4 39  1  0  0  0
  5  9  1  0  0  0
  5  6  2  0  0  0
  6  7  1  0  0  0
  6 30  1  0  0  0
  7  8  1  0  0  0
  8 13  2  0  0  0
  8  9  1  0  0  0
  9 10  2  0  0  0
 10 11  1  0  0  0
 10 29  1  0  0  0
 11 12  2  0  0  0
 12 13  1  0  0  0
 12 14  1  0  0  0
 14 15  1  0  0  0
 15 16  1  0  0  0
 15 40  1  0  0  0
 15 41  1  0  0  0
 16 17  2  0  0  0
 16 18  1  0  0  0
 18 19  1  0  0  0
 18 42  1  0  0  0
 19 24  2  0  0  0
 19 20  1  0  0  0
 20 21  2  0  0  0
 20 43  1  0  0  0
 21 22  1  0  0  0
 21 44  1  0  0  0
 22 23  2  0  0  0
 22 45  1  0  0  0
 23 28  1  0  0  0
 23 24  1  0  0  0
 24 25  1  0  0  0
 25 26  2  0  0  0
 25 46  1  0  0  0
 26 27  1  0  0  0
 26 47  1  0  0  0
 27 28  2  0  0  0
 27 48  1  0  0  0
 28 49  1  0  0  0
 29 50  1  0  0  0
 29 51  1  0  0  0
 30 31  1  0  0  0
 30 52  1  0  0  0
 30 53  1  0  0  0
 32 54  1  0  0  0
 32 55  1  0  0  0
 32 56  1  0  0  0
M  END
> <i_i_glide_confnum>
4

> <i_i_glide_lignum>
4525

> <i_i_glide_posenum>
268

> <i_i_glide_rotatable_bonds>
6

> <i_m_Source_File_Index>
484

> <b_m_subgroup_collapsed>
0

> <r_i_docking_score>
-6.38632

> <r_i_glide_ecoul>
-3.99949

> <r_i_glide_eff_state_penalty>
0

> <r_i_glide_einternal>
14.4543

> <r_i_glide_emodel>
-63.9501

> <r_i_glide_energy>
-51.0272

> <r_i_glide_erotb>
0.373592

> <r_i_glide_esite>
-0.00373218

> <r_i_glide_evdw>
-47.0277

> <r_i_glide_gscore>
-6.38632

> <r_i_glide_hbond>
-0.32

> <r_i_glide_ligand_efficiency>
-0.199572

> <r_i_glide_ligand_efficiency_ln>
-1.43007

> <r_i_glide_ligand_efficiency_sa>
-0.633603

> <r_i_glide_lipo>
-2.68001

> <r_i_glide_metal>
0

> <r_i_glide_rewards>
-0.804859

> <s_i_glide_gridfile>
wee1_glide-grid

> <s_m_Source_File>
wee1_decoys_glide_SP.sdf

> <s_m_Source_Path>
/Users/zhangxujun/Desktop

> <s_m_entry_id>
759

> <s_m_entry_name>
wee1_decoys_glide_SP.484

> <s_m_subgroup_title>
wee1_decoys_glide_SP

> <s_m_subgroupid>
wee1_decoys_glide_SP


$$$$
