ZINC03011885_577
                    3D
 Schrodinger Suite 2024-2.
 45 48  0  0  1  0            999 V2000
    6.0037   53.3792   17.6487 C   0  0  0  0  0  0
    5.5272   53.3471   18.9562 C   0  0  0  0  0  0
    5.6774   54.4567   19.7927 C   0  0  0  0  0  0
    6.2465   55.6445   19.2836 C   0  0  0  0  0  0
    6.7269   55.6641   17.9645 C   0  0  0  0  0  0
    6.6115   54.5313   17.1580 C   0  0  0  0  0  0
    7.4589   57.0808   17.2924 Cl  0  0  0  0  0  0
    6.3128   57.0976   20.2323 Cl  0  0  0  0  0  0
    5.1745   54.3254   21.0960 N   0  0  0  0  0  0
    5.8732   54.5242   22.2360 C   0  0  0  0  0  0
    7.0483   54.8967   22.2725 O   0  0  0  0  0  0
    5.1155   54.3195   23.4523 C   0  0  0  0  0  0
    3.7337   54.0563   23.5498 C   0  0  0  0  0  0
    3.4483   53.9858   24.8936 C   0  0  0  0  0  0
    4.6471   54.1907   25.5410 N   0  0  0  0  0  0
    5.6347   54.4317   24.6609 N   0  0  0  0  0  0
    4.8031   54.3422   26.9903 C   0  0  1  0  0  0
    4.5705   55.3781   27.2075 H   0  0  0  0  0  0
    3.6845   53.5056   27.6519 C   0  0  0  0  0  0
    2.2888   53.8105   27.0575 C   0  0  1  0  0  0
    2.0389   54.8492   27.2814 H   0  0  0  0  0  0
    2.2938   53.6968   25.5886 N   0  0  0  0  0  0
    1.1797   53.0127   27.7468 C   0  0  0  0  0  0
    0.7839   53.3690   29.0416 C   0  0  0  0  0  0
   -0.2641   52.6957   29.6647 C   0  0  0  0  0  0
   -0.9388   51.6900   28.9759 C   0  0  0  0  0  0
   -0.5260   51.2998   27.7066 C   0  0  0  0  0  0
    0.5410   51.9472   27.0985 C   0  0  0  0  0  0
   -2.3034   50.8968   29.6814 Cl  0  0  0  0  0  0
    6.2160   54.1030   27.5609 C   0  0  0  0  0  0
    6.1866   54.2031   28.8814 F   0  0  0  0  0  0
    6.6839   52.8968   27.3013 F   0  0  0  0  0  0
    7.1042   54.9814   27.1019 F   0  0  0  0  0  0
    5.9012   52.5030   17.0232 H   0  0  0  0  0  0
    5.0668   52.4368   19.3147 H   0  0  0  0  0  0
    6.9812   54.5495   16.1431 H   0  0  0  0  0  0
    4.2657   53.8981   21.1802 H   0  0  0  0  0  0
    3.0218   53.9300   22.7471 H   0  0  0  0  0  0
    3.9194   52.4463   27.5745 H   0  0  0  0  0  0
    3.6783   53.6973   28.7258 H   0  0  0  0  0  0
    1.4068   53.9715   25.1928 H   0  0  0  0  0  0
    1.2776   54.1767   29.5621 H   0  0  0  0  0  0
   -0.5689   52.9652   30.6660 H   0  0  0  0  0  0
   -1.0375   50.4942   27.1996 H   0  0  0  0  0  0
    0.8434   51.6300   26.1114 H   0  0  0  0  0  0
  1  6  2  0  0  0
  1  2  1  0  0  0
  1 34  1  0  0  0
  2  3  2  0  0  0
  2 35  1  0  0  0
  3  4  1  0  0  0
  3  9  1  0  0  0
  4  5  2  0  0  0
  4  8  1  0  0  0
  5  6  1  0  0  0
  5  7  1  0  0  0
  6 36  1  0  0  0
  9 10  1  0  0  0
  9 37  1  0  0  0
 10 11  2  0  0  0
 10 12  1  0  0  0
 12 16  2  0  0  0
 12 13  1  0  0  0
 13 14  2  0  0  0
 13 38  1  0  0  0
 14 22  1  0  0  0
 14 15  1  0  0  0
 15 16  1  0  0  0
 15 17  1  0  0  0
 17 18  1  0  0  0
 17 19  1  0  0  0
 17 30  1  0  0  0
 19 20  1  0  0  0
 19 39  1  0  0  0
 19 40  1  0  0  0
 20 21  1  0  0  0
 20 22  1  0  0  0
 20 23  1  0  0  0
 22 41  1  0  0  0
 23 28  2  0  0  0
 23 24  1  0  0  0
 24 25  2  0  0  0
 24 42  1  0  0  0
 25 26  1  0  0  0
 25 43  1  0  0  0
 26 27  2  0  0  0
 26 29  1  0  0  0
 27 28  1  0  0  0
 27 44  1  0  0  0
 28 45  1  0  0  0
 30 31  1  0  0  0
 30 32  1  0  0  0
 30 33  1  0  0  0
M  END
> <i_i_glide_confnum>
2

> <i_i_glide_lignum>
578

> <i_i_glide_posenum>
180

> <i_i_glide_rotatable_bonds>
5

> <i_m_Source_File_Index>
8

> <b_m_subgroup_collapsed>
0

> <r_i_docking_score>
-4.75242

> <r_i_glide_ecoul>
-1.99007

> <r_i_glide_eff_state_penalty>
0

> <r_i_glide_einternal>
6.31265

> <r_i_glide_emodel>
-47.9473

> <r_i_glide_energy>
-40.1602

> <r_i_glide_erotb>
0.339357

> <r_i_glide_esite>
-0.00284154

> <r_i_glide_evdw>
-38.1701

> <r_i_glide_gscore>
-4.75242

> <r_i_glide_hbond>
0

> <r_i_glide_ligand_efficiency>
-0.153304

> <r_i_glide_ligand_efficiency_ln>
-1.07182

> <r_i_glide_ligand_efficiency_sa>
-0.481586

> <r_i_glide_lipo>
-2.14239

> <r_i_glide_metal>
0

> <r_i_glide_rewards>
-0.739534

> <s_i_glide_gridfile>
wee1_glide-grid

> <s_m_Source_File>
wee1_decoys_glide_SP.sdf

> <s_m_Source_Path>
/Users/zhangxujun/Desktop

> <s_m_entry_id>
283

> <s_m_entry_name>
wee1_decoys_glide_SP.8

> <s_m_subgroup_title>
wee1_decoys_glide_SP

> <s_m_subgroupid>
wee1_decoys_glide_SP


$$$$
