ZINC39666173_895
                    3D
 Schrodinger Suite 2024-2.
 73 76  0  0  1  0            999 V2000
    4.0630   53.0166   30.0790 C   0  0  0  0  0  0
    4.3293   53.5727   28.6925 C   0  0  0  0  0  0
    5.6377   53.7704   28.2420 C   0  0  0  0  0  0
    5.8676   54.2377   26.9478 C   0  0  0  0  0  0
    4.7921   54.4949   26.0989 C   0  0  0  0  0  0
    3.4899   54.3271   26.5681 C   0  0  0  0  0  0
    3.2553   53.8625   27.8559 C   0  0  0  0  0  0
    5.0301   54.8943   24.8014 O   0  0  0  0  0  0
    4.5758   53.9949   23.7842 C   0  0  2  0  0  0
    4.3781   53.0192   24.2209 H   0  0  0  0  0  0
    5.7313   53.8015   22.7924 C   0  0  0  0  0  0
    3.2726   54.4954   23.1015 C   0  0  0  0  0  0
    2.3994   53.4203   22.6047 N   0  0  0  0  0  0
    1.6781   52.5992   23.3947 C   0  0  0  0  0  0
    1.6830   52.7161   24.6158 O   0  0  0  0  0  0
    0.8482   51.4792   22.7178 C   0  0  2  0  0  0
    1.5838   50.7824   22.3088 H   0  0  0  0  0  0
    0.0225   52.0548   21.5641 C   0  0  0  0  0  0
   -0.9227   50.9710   21.2827 N   0  0  0  0  0  0
   -1.0379   50.0529   22.4288 C   0  0  0  0  0  0
   -0.1983   50.6912   23.5675 C   0  0  0  0  0  0
   -1.1189   51.5874   24.4696 C   0  0  0  0  0  0
   -2.1910   50.7751   25.2387 C   0  0  0  0  0  0
   -1.4679   49.7010   26.0808 N   0  3  0  0  0  0
   -0.5604   48.7802   25.2433 C   0  0  0  0  0  0
    0.4674   49.6700   24.5240 C   0  0  0  0  0  0
   -1.5918   50.7492   20.1188 C   0  0  0  0  0  0
   -2.4575   49.8775   20.0234 O   0  0  0  0  0  0
   -1.2864   51.5987   18.9036 C   0  0  0  0  0  0
    0.0285   51.8087   18.4738 C   0  0  0  0  0  0
    0.2967   52.6077   17.3687 C   0  0  0  0  0  0
   -0.7458   53.1828   16.6275 C   0  0  0  0  0  0
   -2.0739   52.9127   16.9999 C   0  0  0  0  0  0
   -2.3312   52.1204   18.1299 C   0  0  0  0  0  0
   -3.2310   53.4548   16.1519 C   0  0  0  0  0  0
   -3.2990   54.7780   16.3023 F   0  0  0  0  0  0
   -3.0428   53.1762   14.8604 F   0  0  0  0  0  0
   -4.4091   52.9332   16.4959 F   0  0  0  0  0  0
   -0.5348   54.0021   15.5326 O   0  0  0  0  0  0
    0.7941   54.3167   15.1307 C   0  0  0  0  0  0
    3.0259   52.7013   30.2067 H   0  0  0  0  0  0
    4.3022   53.7652   30.8341 H   0  0  0  0  0  0
    4.6920   52.1422   30.2579 H   0  0  0  0  0  0
    6.4794   53.5542   28.8824 H   0  0  0  0  0  0
    6.8773   54.3694   26.5935 H   0  0  0  0  0  0
    2.6472   54.5113   25.9264 H   0  0  0  0  0  0
    2.2386   53.7136   28.1881 H   0  0  0  0  0  0
    5.4527   53.1213   21.9876 H   0  0  0  0  0  0
    6.0327   54.7485   22.3439 H   0  0  0  0  0  0
    6.6044   53.3817   23.2911 H   0  0  0  0  0  0
    2.7082   55.1292   23.7866 H   0  0  0  0  0  0
    3.5156   55.1496   22.2643 H   0  0  0  0  0  0
    2.3331   53.3257   21.6009 H   0  0  0  0  0  0
   -0.5615   52.8962   21.9285 H   0  0  0  0  0  0
    0.6730   52.3840   20.7581 H   0  0  0  0  0  0
   -0.5358   49.1305   22.1308 H   0  0  0  0  0  0
   -2.0515   49.7782   22.7171 H   0  0  0  0  0  0
   -0.5539   52.1693   25.1953 H   0  0  0  0  0  0
   -1.6305   52.3316   23.8582 H   0  0  0  0  0  0
   -2.7453   51.3902   25.9478 H   0  0  0  0  0  0
   -2.9043   50.2529   24.6003 H   0  0  0  0  0  0
   -0.8931   50.1530   26.7786 H   0  0  0  0  0  0
   -0.0979   48.0991   25.9587 H   0  0  0  0  0  0
   -1.2027   48.2101   24.5719 H   0  0  0  0  0  0
    1.1315   49.0161   23.9581 H   0  0  0  0  0  0
    1.1037   50.1755   25.2485 H   0  0  0  0  0  0
    0.8624   51.3461   18.9810 H   0  0  0  0  0  0
    1.3289   52.7570   17.0951 H   0  0  0  0  0  0
   -3.3538   51.9107   18.4133 H   0  0  0  0  0  0
    0.7612   54.9770   14.2631 H   0  0  0  0  0  0
    1.3376   54.8399   15.9190 H   0  0  0  0  0  0
    1.3497   53.4237   14.8409 H   0  0  0  0  0  0
   -2.1012   49.1333   26.6379 H   0  0  0  0  0  0
  1  2  1  0  0  0
  1 41  1  0  0  0
  1 42  1  0  0  0
  1 43  1  0  0  0
  2  7  2  0  0  0
  2  3  1  0  0  0
  3  4  2  0  0  0
  3 44  1  0  0  0
  4  5  1  0  0  0
  4 45  1  0  0  0
  5  6  2  0  0  0
  5  8  1  0  0  0
  6  7  1  0  0  0
  6 46  1  0  0  0
  7 47  1  0  0  0
  8  9  1  0  0  0
  9 10  1  0  0  0
  9 11  1  0  0  0
  9 12  1  0  0  0
 11 48  1  0  0  0
 11 49  1  0  0  0
 11 50  1  0  0  0
 12 13  1  0  0  0
 12 51  1  0  0  0
 12 52  1  0  0  0
 13 14  1  0  0  0
 13 53  1  0  0  0
 14 15  2  0  0  0
 14 16  1  0  0  0
 16 17  1  0  0  0
 16 21  1  0  0  0
 16 18  1  0  0  0
 18 19  1  0  0  0
 18 54  1  0  0  0
 18 55  1  0  0  0
 19 20  1  0  0  0
 19 27  1  0  0  0
 20 21  1  0  0  0
 20 56  1  0  0  0
 20 57  1  0  0  0
 21 26  1  0  0  0
 21 22  1  0  0  0
 22 23  1  0  0  0
 22 58  1  0  0  0
 22 59  1  0  0  0
 23 24  1  0  0  0
 23 60  1  0  0  0
 23 61  1  0  0  0
 24 25  1  0  0  0
 24 62  1  0  0  0
 24 73  1  0  0  0
 25 26  1  0  0  0
 25 63  1  0  0  0
 25 64  1  0  0  0
 26 65  1  0  0  0
 26 66  1  0  0  0
 27 28  2  0  0  0
 27 29  1  0  0  0
 29 34  2  0  0  0
 29 30  1  0  0  0
 30 31  2  0  0  0
 30 67  1  0  0  0
 31 32  1  0  0  0
 31 68  1  0  0  0
 32 33  2  0  0  0
 32 39  1  0  0  0
 33 34  1  0  0  0
 33 35  1  0  0  0
 34 69  1  0  0  0
 35 36  1  0  0  0
 35 37  1  0  0  0
 35 38  1  0  0  0
 39 40  1  0  0  0
 40 70  1  0  0  0
 40 71  1  0  0  0
 40 72  1  0  0  0
M  CHG  1  24   1
M  END
> <i_i_glide_confnum>
356

> <i_i_glide_lignum>
896

> <i_i_glide_posenum>
143

> <i_i_glide_rotatable_bonds>
10

> <i_m_Source_File_Index>
70

> <b_m_subgroup_collapsed>
0

> <r_i_docking_score>
-3.28626

> <r_i_glide_ecoul>
-3.67834

> <r_i_glide_eff_state_penalty>
0

> <r_i_glide_einternal>
13.4187

> <r_i_glide_emodel>
-39.4557

> <r_i_glide_energy>
-40.0886

> <r_i_glide_erotb>
0.577752

> <r_i_glide_esite>
-0.108604

> <r_i_glide_evdw>
-36.4102

> <r_i_glide_gscore>
-3.28626

> <r_i_glide_hbond>
-0.0806325

> <r_i_glide_ligand_efficiency>
-0.0864805

> <r_i_glide_ligand_efficiency_ln>
-0.708614

> <r_i_glide_ligand_efficiency_sa>
-0.290745

> <r_i_glide_lipo>
-2.38295

> <r_i_glide_metal>
0

> <r_i_glide_rewards>
1.08044

> <s_i_glide_gridfile>
wee1_glide-grid

> <s_m_Source_File>
wee1_decoys_glide_SP.sdf

> <s_m_Source_Path>
/Users/zhangxujun/Desktop

> <s_m_entry_id>
345

> <s_m_entry_name>
wee1_decoys_glide_SP.70

> <s_m_subgroup_title>
wee1_decoys_glide_SP

> <s_m_subgroupid>
wee1_decoys_glide_SP


$$$$
