ZINC49511368_997
                    3D
 Schrodinger Suite 2024-2.
 54 57  0  0  1  0            999 V2000
    3.8432   54.0748   29.3849 C   0  0  0  0  0  0
    3.4223   53.8594   27.9422 C   0  0  0  0  0  0
    2.2901   53.0955   27.6547 C   0  0  0  0  0  0
    1.9036   52.8966   26.3314 C   0  0  0  0  0  0
    2.6477   53.4534   25.2872 C   0  0  0  0  0  0
    3.7638   54.2420   25.5834 C   0  0  0  0  0  0
    4.1587   54.4316   26.9048 C   0  0  0  0  0  0
    2.0577   53.2358   23.5976 S   0  0  0  0  0  0
    1.3900   54.4970   23.2818 O   0  0  0  0  0  0
    1.3007   51.9788   23.5648 O   0  0  0  0  0  0
    3.4459   53.0929   22.4917 N   0  0  0  0  0  0
    3.7052   51.8754   21.6890 C   0  0  0  0  0  0
    3.7606   52.2613   20.1999 C   0  0  0  0  0  0
    4.7953   53.3673   19.9610 C   0  0  0  0  0  0
    5.5104   53.4494   18.7647 C   0  0  0  0  0  0
    6.4030   54.4938   18.5350 C   0  0  0  0  0  0
    6.5989   55.5122   19.4789 C   0  0  0  0  0  0
    5.9263   55.3821   20.6911 C   0  0  0  0  0  0
    5.0404   54.3362   20.9533 C   0  0  0  0  0  0
    4.3920   54.2102   22.3226 C   0  0  0  0  0  0
    7.3727   56.6384   19.3222 N   0  5  0  0  0  0
    8.0929   57.0577   17.9893 S   0  0  0  0  0  0
    8.8847   55.9881   17.3721 O   0  0  0  0  0  0
    8.7131   58.3836   18.0820 O   0  0  0  0  0  0
    6.6728   57.3114   16.9023 C   0  0  0  0  0  0
    6.4501   56.4619   15.8150 C   0  0  0  0  0  0
    5.3120   56.6220   15.0298 C   0  0  0  0  0  0
    4.3918   57.6360   15.3176 C   0  0  0  0  0  0
    4.6327   58.4961   16.3920 C   0  0  0  0  0  0
    5.7732   58.3429   17.1759 C   0  0  0  0  0  0
    3.1265   57.8137   14.4815 C   0  0  0  0  0  0
    3.0087   56.8852   13.5287 F   0  0  0  0  0  0
    3.1412   59.0105   13.8912 F   0  0  0  0  0  0
    2.0525   57.7379   15.2687 F   0  0  0  0  0  0
    3.9305   53.1135   29.8951 H   0  0  0  0  0  0
    4.8044   54.5839   29.4635 H   0  0  0  0  0  0
    3.0886   54.6635   29.9074 H   0  0  0  0  0  0
    1.7065   52.6564   28.4496 H   0  0  0  0  0  0
    1.0178   52.3118   26.1237 H   0  0  0  0  0  0
    4.3311   54.7335   24.8137 H   0  0  0  0  0  0
    5.0284   55.0369   27.1185 H   0  0  0  0  0  0
    4.6594   51.4630   22.0204 H   0  0  0  0  0  0
    2.9380   51.1253   21.8807 H   0  0  0  0  0  0
    2.7975   52.6930   19.9226 H   0  0  0  0  0  0
    3.9045   51.3870   19.5658 H   0  0  0  0  0  0
    5.3620   52.7010   17.9978 H   0  0  0  0  0  0
    6.9243   54.5028   17.5955 H   0  0  0  0  0  0
    6.0858   56.1249   21.4576 H   0  0  0  0  0  0
    5.2219   54.0315   23.0055 H   0  0  0  0  0  0
    3.9005   55.1348   22.6226 H   0  0  0  0  0  0
    7.1452   55.6666   15.5864 H   0  0  0  0  0  0
    5.1482   55.9466   14.2034 H   0  0  0  0  0  0
    3.9390   59.2955   16.6199 H   0  0  0  0  0  0
    5.9482   59.0143   18.0056 H   0  0  0  0  0  0
  1  2  1  0  0  0
  1 35  1  0  0  0
  1 36  1  0  0  0
  1 37  1  0  0  0
  2  7  2  0  0  0
  2  3  1  0  0  0
  3  4  2  0  0  0
  3 38  1  0  0  0
  4  5  1  0  0  0
  4 39  1  0  0  0
  5  6  2  0  0  0
  5  8  1  0  0  0
  6  7  1  0  0  0
  6 40  1  0  0  0
  7 41  1  0  0  0
  8  9  2  0  0  0
  8 10  2  0  0  0
  8 11  1  0  0  0
 11 20  1  0  0  0
 11 12  1  0  0  0
 12 13  1  0  0  0
 12 42  1  0  0  0
 12 43  1  0  0  0
 13 14  1  0  0  0
 13 44  1  0  0  0
 13 45  1  0  0  0
 14 19  2  0  0  0
 14 15  1  0  0  0
 15 16  2  0  0  0
 15 46  1  0  0  0
 16 17  1  0  0  0
 16 47  1  0  0  0
 17 18  2  0  0  0
 17 21  1  0  0  0
 18 19  1  0  0  0
 18 48  1  0  0  0
 19 20  1  0  0  0
 20 49  1  0  0  0
 20 50  1  0  0  0
 21 22  1  0  0  0
 22 23  2  0  0  0
 22 24  2  0  0  0
 22 25  1  0  0  0
 25 30  2  0  0  0
 25 26  1  0  0  0
 26 27  2  0  0  0
 26 51  1  0  0  0
 27 28  1  0  0  0
 27 52  1  0  0  0
 28 29  2  0  0  0
 28 31  1  0  0  0
 29 30  1  0  0  0
 29 53  1  0  0  0
 30 54  1  0  0  0
 31 32  1  0  0  0
 31 33  1  0  0  0
 31 34  1  0  0  0
M  CHG  1  21  -1
M  END
> <i_i_glide_confnum>
107

> <i_i_glide_lignum>
998

> <i_i_glide_posenum>
97

> <i_i_glide_rotatable_bonds>
6

> <i_m_Source_File_Index>
4603

> <b_m_subgroup_collapsed>
0

> <r_i_docking_score>
-2.30712

> <r_i_glide_ecoul>
0.319144

> <r_i_glide_eff_state_penalty>
0

> <r_i_glide_einternal>
5.34576

> <r_i_glide_emodel>
-34.6823

> <r_i_glide_energy>
-34.7168

> <r_i_glide_erotb>
0.394413

> <r_i_glide_esite>
-0.0319846

> <r_i_glide_evdw>
-35.036

> <r_i_glide_gscore>
-2.30712

> <r_i_glide_hbond>
-0.00107185

> <r_i_glide_ligand_efficiency>
-0.0678564

> <r_i_glide_ligand_efficiency_ln>
-0.509707

> <r_i_glide_ligand_efficiency_sa>
-0.219828

> <r_i_glide_lipo>
-1.76446

> <r_i_glide_metal>
0

> <r_i_glide_rewards>
0.79991

> <s_i_glide_gridfile>
wee1_glide-grid

> <s_m_Source_File>
wee1_decoys_glide_SP.sdf

> <s_m_Source_Path>
/Users/zhangxujun/Desktop

> <s_m_entry_id>
4878

> <s_m_entry_name>
wee1_decoys_glide_SP.4603

> <s_m_subgroup_title>
wee1_decoys_glide_SP

> <s_m_subgroupid>
wee1_decoys_glide_SP


$$$$
