ZINC49490837_3397
                    3D
 Schrodinger Suite 2024-2.
 67 71  0  0  1  0            999 V2000
    2.6286   58.7276   15.7450 C   0  0  0  0  0  0
    3.6570   58.1335   14.2820 S   0  0  0  0  0  0
    5.0761   58.1195   14.6497 O   0  0  0  0  0  0
    3.2189   58.8687   13.0906 O   0  0  0  0  0  0
    3.1304   56.4268   14.0800 N   0  0  0  0  0  0
    2.4544   56.0954   12.8114 C   0  0  0  0  0  0
    1.7398   54.7379   12.8512 C   0  0  0  0  0  0
    2.7406   53.6472   13.2242 C   0  0  0  0  0  0
    3.4089   54.0085   14.5407 C   0  0  0  0  0  0
    3.6004   55.3642   14.9092 C   0  0  0  0  0  0
    4.2220   55.6399   16.1398 C   0  0  0  0  0  0
    4.6428   54.6176   16.9957 C   0  0  0  0  0  0
    4.4234   53.2930   16.6312 C   0  0  0  0  0  0
    3.8196   52.9957   15.4134 C   0  0  0  0  0  0
    5.2163   54.8435   18.2586 N   0  0  0  0  0  0
    5.8864   55.9416   18.6927 C   0  0  0  0  0  0
    6.2120   56.8801   17.9596 O   0  0  0  0  0  0
    6.2127   55.9886   20.1589 C   0  0  0  0  0  0
    6.7044   57.0010   20.6651 O   0  0  0  0  0  0
    5.9066   54.8971   20.8946 N   0  0  0  0  0  0
    6.0223   54.7867   22.3521 C   0  0  0  0  0  0
    4.6755   54.4095   23.0460 C   0  0  1  0  0  0
    4.0257   55.2866   22.9682 H   0  0  0  0  0  0
    3.9418   53.2996   22.2901 C   0  0  0  0  0  0
    2.6009   53.0261   22.0541 C   0  0  0  0  0  0
    2.5461   51.8969   21.2363 C   0  0  0  0  0  0
    3.8563   51.5196   21.0118 C   0  0  0  0  0  0
    4.7010   52.3463   21.6812 O   0  0  0  0  0  0
    4.7959   54.0967   24.4894 N   0  0  0  0  0  0
    5.7979   54.8630   25.2487 C   0  0  0  0  0  0
    6.0255   54.2315   26.6405 C   0  0  0  0  0  0
    4.7250   53.9007   27.3651 C   0  0  0  0  0  0
    4.7191   53.6112   28.7330 C   0  0  0  0  0  0
    3.5451   53.2415   29.3869 C   0  0  0  0  0  0
    2.3520   53.1725   28.6732 C   0  0  0  0  0  0
    2.3407   53.4777   27.3122 C   0  0  0  0  0  0
    3.5166   53.8436   26.6466 C   0  0  0  0  0  0
    3.4954   54.2204   25.1690 C   0  0  0  0  0  0
    3.0138   59.6969   16.0622 H   0  0  0  0  0  0
    1.5910   58.8267   15.4292 H   0  0  0  0  0  0
    2.6967   58.0264   16.5729 H   0  0  0  0  0  0
    3.2683   56.0323   12.0901 H   0  0  0  0  0  0
    1.7991   56.8975   12.4734 H   0  0  0  0  0  0
    1.2815   54.5251   11.8846 H   0  0  0  0  0  0
    0.9208   54.7678   13.5729 H   0  0  0  0  0  0
    2.2441   52.6767   13.2876 H   0  0  0  0  0  0
    3.5039   53.5606   12.4489 H   0  0  0  0  0  0
    4.3627   56.6579   16.4568 H   0  0  0  0  0  0
    4.7188   52.4808   17.2818 H   0  0  0  0  0  0
    3.6681   51.9558   15.1516 H   0  0  0  0  0  0
    5.0692   54.0879   18.9032 H   0  0  0  0  0  0
    5.5241   54.0806   20.4465 H   0  0  0  0  0  0
    6.7710   54.0222   22.5635 H   0  0  0  0  0  0
    6.4183   55.7078   22.7813 H   0  0  0  0  0  0
    1.7582   53.5999   22.4093 H   0  0  0  0  0  0
    1.6613   51.4210   20.8375 H   0  0  0  0  0  0
    4.3084   50.7325   20.4269 H   0  0  0  0  0  0
    6.7654   54.8097   24.7498 H   0  0  0  0  0  0
    5.5525   55.9262   25.2940 H   0  0  0  0  0  0
    6.5823   53.3019   26.5168 H   0  0  0  0  0  0
    6.6516   54.8816   27.2517 H   0  0  0  0  0  0
    5.6496   53.6526   29.2808 H   0  0  0  0  0  0
    3.5661   52.9993   30.4403 H   0  0  0  0  0  0
    1.4379   52.8815   29.1708 H   0  0  0  0  0  0
    1.4062   53.4284   26.7701 H   0  0  0  0  0  0
    3.1049   55.2323   25.0618 H   0  0  0  0  0  0
    2.7895   53.5517   24.6767 H   0  0  0  0  0  0
  1  2  1  0  0  0
  1 39  1  0  0  0
  1 40  1  0  0  0
  1 41  1  0  0  0
  2  3  2  0  0  0
  2  4  2  0  0  0
  2  5  1  0  0  0
  5 10  1  0  0  0
  5  6  1  0  0  0
  6  7  1  0  0  0
  6 42  1  0  0  0
  6 43  1  0  0  0
  7  8  1  0  0  0
  7 44  1  0  0  0
  7 45  1  0  0  0
  8  9  1  0  0  0
  8 46  1  0  0  0
  8 47  1  0  0  0
  9 14  2  0  0  0
  9 10  1  0  0  0
 10 11  2  0  0  0
 11 12  1  0  0  0
 11 48  1  0  0  0
 12 13  2  0  0  0
 12 15  1  0  0  0
 13 14  1  0  0  0
 13 49  1  0  0  0
 14 50  1  0  0  0
 15 16  1  0  0  0
 15 51  1  0  0  0
 16 17  2  0  0  0
 16 18  1  0  0  0
 18 19  2  0  0  0
 18 20  1  0  0  0
 20 21  1  0  0  0
 20 52  1  0  0  0
 21 22  1  0  0  0
 21 53  1  0  0  0
 21 54  1  0  0  0
 22 23  1  0  0  0
 22 24  1  0  0  0
 22 29  1  0  0  0
 24 28  1  0  0  0
 24 25  2  0  0  0
 25 26  1  0  0  0
 25 55  1  0  0  0
 26 27  2  0  0  0
 26 56  1  0  0  0
 27 28  1  0  0  0
 27 57  1  0  0  0
 29 38  1  0  0  0
 29 30  1  0  0  0
 30 31  1  0  0  0
 30 58  1  0  0  0
 30 59  1  0  0  0
 31 32  1  0  0  0
 31 60  1  0  0  0
 31 61  1  0  0  0
 32 37  2  0  0  0
 32 33  1  0  0  0
 33 34  2  0  0  0
 33 62  1  0  0  0
 34 35  1  0  0  0
 34 63  1  0  0  0
 35 36  2  0  0  0
 35 64  1  0  0  0
 36 37  1  0  0  0
 36 65  1  0  0  0
 37 38  1  0  0  0
 38 66  1  0  0  0
 38 67  1  0  0  0
M  END
> <i_i_glide_confnum>
697

> <i_i_glide_lignum>
3398

> <i_i_glide_posenum>
134

> <i_i_glide_rotatable_bonds>
9

> <i_m_Source_File_Index>
46

> <b_m_subgroup_collapsed>
0

> <r_i_docking_score>
-5.25302

> <r_i_glide_ecoul>
-4.14285

> <r_i_glide_eff_state_penalty>
0

> <r_i_glide_einternal>
3.91601

> <r_i_glide_emodel>
-58.1774

> <r_i_glide_energy>
-42.8726

> <r_i_glide_erotb>
0.602354

> <r_i_glide_esite>
-0.0248195

> <r_i_glide_evdw>
-38.7298

> <r_i_glide_gscore>
-5.25302

> <r_i_glide_hbond>
-0.32

> <r_i_glide_ligand_efficiency>
-0.141974

> <r_i_glide_ligand_efficiency_ln>
-1.13926

> <r_i_glide_ligand_efficiency_sa>
-0.473088

> <r_i_glide_lipo>
-2.77419

> <r_i_glide_metal>
0

> <r_i_glide_rewards>
-0.178451

> <s_i_glide_gridfile>
wee1_glide-grid

> <s_m_Source_File>
wee1_decoys_glide_SP.sdf

> <s_m_Source_Path>
/Users/zhangxujun/Desktop

> <s_m_entry_id>
321

> <s_m_entry_name>
wee1_decoys_glide_SP.46

> <s_m_subgroup_title>
wee1_decoys_glide_SP

> <s_m_subgroupid>
wee1_decoys_glide_SP


$$$$
