ZINC09325386_2239
                    3D
 Schrodinger Suite 2024-2.
 48 51  0  0  1  0            999 V2000
    2.9880   50.8266   21.4867 C   0  0  0  0  0  0
    3.9543   51.8950   21.2478 N   0  0  0  0  0  0
    3.8667   52.7268   20.1936 C   0  0  0  0  0  0
    2.9702   52.6287   19.3553 O   0  0  0  0  0  0
    4.8929   53.7646   20.1026 C   0  0  0  0  0  0
    5.3411   54.3152   18.8640 C   0  0  0  0  0  0
    6.2717   55.3468   19.0345 C   0  0  0  0  0  0
    6.5894   55.6880   20.6886 S   0  0  0  0  0  0
    5.4954   54.4233   21.2046 C   0  0  0  0  0  0
    5.2360   54.1894   22.5588 N   0  0  0  0  0  0
    5.9037   54.6661   23.6332 C   0  0  0  0  0  0
    6.9359   55.3303   23.5794 O   0  0  0  0  0  0
    5.2882   54.3736   24.9075 C   0  0  0  0  0  0
    3.9553   54.0971   25.2254 C   0  0  0  0  0  0
    3.7547   53.9099   26.6286 C   0  0  0  0  0  0
    2.5855   53.5919   27.3443 C   0  0  0  0  0  0
    2.6394   53.4409   28.7306 C   0  0  0  0  0  0
    3.8308   53.6216   29.4218 C   0  0  0  0  0  0
    5.0040   53.9659   28.7568 C   0  0  0  0  0  0
    4.9603   54.0970   27.3672 C   0  0  0  0  0  0
    6.3079   54.4972   26.3325 S   0  0  0  0  0  0
    2.6228   53.9840   24.1276 Cl  0  0  0  0  0  0
    6.9603   56.1033   17.9071 C   0  0  0  0  0  0
    6.6045   55.4687   16.6251 N   0  0  0  0  0  0
    5.1990   55.0724   16.4426 C   0  0  0  0  0  0
    4.9139   53.9190   17.4407 C   0  0  0  0  0  0
    7.4916   55.3962   15.5371 C   0  0  0  0  0  0
    7.2276   54.8997   14.4393 O   0  0  0  0  0  0
    8.7060   55.9286   15.8345 O   0  0  0  0  0  0
    9.7555   55.9218   14.8766 C   0  0  0  0  0  0
    3.1065   50.3985   22.4828 H   0  0  0  0  0  0
    1.9655   51.1950   21.4057 H   0  0  0  0  0  0
    3.1169   50.0267   20.7570 H   0  0  0  0  0  0
    4.8178   51.8700   21.7722 H   0  0  0  0  0  0
    4.4472   53.5859   22.7544 H   0  0  0  0  0  0
    1.6508   53.4460   26.8254 H   0  0  0  0  0  0
    1.7405   53.1848   29.2765 H   0  0  0  0  0  0
    3.8549   53.4899   30.4920 H   0  0  0  0  0  0
    5.9325   54.1232   29.2814 H   0  0  0  0  0  0
    8.0378   56.1187   18.0760 H   0  0  0  0  0  0
    6.6469   57.1484   17.8922 H   0  0  0  0  0  0
    4.5667   55.9303   16.6875 H   0  0  0  0  0  0
    4.9602   54.7986   15.4121 H   0  0  0  0  0  0
    3.8538   53.6890   17.3688 H   0  0  0  0  0  0
    5.4306   53.0073   17.1258 H   0  0  0  0  0  0
   10.6393   56.3976   15.3024 H   0  0  0  0  0  0
    9.4711   56.4704   13.9778 H   0  0  0  0  0  0
   10.0190   54.9024   14.5910 H   0  0  0  0  0  0
  1  2  1  0  0  0
  1 31  1  0  0  0
  1 32  1  0  0  0
  1 33  1  0  0  0
  2  3  1  0  0  0
  2 34  1  0  0  0
  3  4  2  0  0  0
  3  5  1  0  0  0
  5  9  2  0  0  0
  5  6  1  0  0  0
  6 26  1  0  0  0
  6  7  2  0  0  0
  7  8  1  0  0  0
  7 23  1  0  0  0
  8  9  1  0  0  0
  9 10  1  0  0  0
 10 11  1  0  0  0
 10 35  1  0  0  0
 11 12  2  0  0  0
 11 13  1  0  0  0
 13 21  1  0  0  0
 13 14  2  0  0  0
 14 15  1  0  0  0
 14 22  1  0  0  0
 15 20  2  0  0  0
 15 16  1  0  0  0
 16 17  2  0  0  0
 16 36  1  0  0  0
 17 18  1  0  0  0
 17 37  1  0  0  0
 18 19  2  0  0  0
 18 38  1  0  0  0
 19 20  1  0  0  0
 19 39  1  0  0  0
 20 21  1  0  0  0
 23 24  1  0  0  0
 23 40  1  0  0  0
 23 41  1  0  0  0
 24 25  1  0  0  0
 24 27  1  0  0  0
 25 26  1  0  0  0
 25 42  1  0  0  0
 25 43  1  0  0  0
 26 44  1  0  0  0
 26 45  1  0  0  0
 27 28  2  0  0  0
 27 29  1  0  0  0
 29 30  1  0  0  0
 30 46  1  0  0  0
 30 47  1  0  0  0
 30 48  1  0  0  0
M  END
> <i_i_glide_confnum>
74

> <i_i_glide_lignum>
2240

> <i_i_glide_posenum>
187

> <i_i_glide_rotatable_bonds>
7

> <i_m_Source_File_Index>
3866

> <b_m_subgroup_collapsed>
0

> <r_i_docking_score>
-4.80406

> <r_i_glide_ecoul>
2.86215

> <r_i_glide_eff_state_penalty>
0

> <r_i_glide_einternal>
3.65521

> <r_i_glide_emodel>
-50.4113

> <r_i_glide_energy>
-40.6871

> <r_i_glide_erotb>
0.468175

> <r_i_glide_esite>
-0.0100182

> <r_i_glide_evdw>
-43.5493

> <r_i_glide_gscore>
-4.80406

> <r_i_glide_hbond>
0

> <r_i_glide_ligand_efficiency>
-0.160135

> <r_i_glide_ligand_efficiency_ln>
-1.09153

> <r_i_glide_ligand_efficiency_sa>
-0.497578

> <r_i_glide_lipo>
-2.85132

> <r_i_glide_metal>
0

> <r_i_glide_rewards>
-0.662758

> <s_i_glide_gridfile>
wee1_glide-grid

> <s_m_Source_File>
wee1_decoys_glide_SP.sdf

> <s_m_Source_Path>
/Users/zhangxujun/Desktop

> <s_m_entry_id>
4141

> <s_m_entry_name>
wee1_decoys_glide_SP.3866

> <s_m_subgroup_title>
wee1_decoys_glide_SP

> <s_m_subgroupid>
wee1_decoys_glide_SP


$$$$
