ZINC02261981_2781
                    3D
 Schrodinger Suite 2024-2.
 44 47  0  0  1  0            999 V2000
   -5.4759   44.9264   27.5572 C   0  0  0  0  0  0
   -4.5534   45.6915   26.6477 C   0  0  0  0  0  0
   -3.6920   46.7507   26.8109 C   0  0  0  0  0  0
   -3.1178   46.9641   25.5622 C   0  0  0  0  0  0
   -3.5952   46.1083   24.6745 N   0  0  0  0  0  0
   -4.4943   45.2880   25.3554 O   0  0  0  0  0  0
   -2.2084   47.9771   25.2987 N   0  0  0  0  0  0
   -1.4396   48.0916   24.1931 C   0  0  0  0  0  0
   -1.3502   47.2360   23.3094 O   0  0  0  0  0  0
   -0.7123   49.3352   24.0853 C   0  0  0  0  0  0
   -1.1415   50.5987   24.5373 C   0  0  0  0  0  0
   -0.2273   51.5149   24.0553 C   0  0  0  0  0  0
    0.6730   50.7776   23.3095 N   0  0  0  0  0  0
    0.3956   49.4646   23.3840 N   0  0  0  0  0  0
    1.8851   51.2953   22.6536 C   0  0  2  0  0  0
    2.7041   51.1507   23.3545 H   0  0  0  0  0  0
    1.6685   52.8192   22.4652 C   0  0  0  0  0  0
    1.1125   53.5328   23.7261 C   0  0  1  0  0  0
    0.8735   54.5681   23.4807 H   0  0  0  0  0  0
   -0.1688   52.8976   24.0810 N   0  0  0  0  0  0
    2.1452   53.6373   24.8645 C   0  0  0  0  0  0
    1.9046   53.1207   26.1471 C   0  0  0  0  0  0
    2.8387   53.2968   27.1650 C   0  0  0  0  0  0
    4.0233   53.9831   26.9082 C   0  0  0  0  0  0
    4.2781   54.4961   25.6395 C   0  0  0  0  0  0
    3.3398   54.3278   24.6245 C   0  0  0  0  0  0
    5.1811   54.2019   28.1703 Cl  0  0  0  0  0  0
    2.2901   50.5666   21.3478 C   0  0  0  0  0  0
    3.3985   51.1034   20.8380 F   0  0  0  0  0  0
    2.5369   49.2726   21.5470 F   0  0  0  0  0  0
    1.3391   50.6596   20.4171 F   0  0  0  0  0  0
   -5.7095   45.4980   28.4543 H   0  0  0  0  0  0
   -5.0258   43.9817   27.8645 H   0  0  0  0  0  0
   -6.4229   44.6955   27.0689 H   0  0  0  0  0  0
   -3.4820   47.2983   27.7199 H   0  0  0  0  0  0
   -2.0247   48.6034   26.0694 H   0  0  0  0  0  0
   -2.0332   50.8217   25.1046 H   0  0  0  0  0  0
    2.5955   53.2840   22.1283 H   0  0  0  0  0  0
    0.9891   52.9876   21.6271 H   0  0  0  0  0  0
   -0.6546   53.4017   24.8076 H   0  0  0  0  0  0
    0.9943   52.5861   26.3730 H   0  0  0  0  0  0
    2.6448   52.8971   28.1494 H   0  0  0  0  0  0
    5.1960   55.0299   25.4438 H   0  0  0  0  0  0
    3.5412   54.7524   23.6518 H   0  0  0  0  0  0
  1  2  1  0  0  0
  1 32  1  0  0  0
  1 33  1  0  0  0
  1 34  1  0  0  0
  2  6  1  0  0  0
  2  3  2  0  0  0
  3  4  1  0  0  0
  3 35  1  0  0  0
  4  5  2  0  0  0
  4  7  1  0  0  0
  5  6  1  0  0  0
  7  8  1  0  0  0
  7 36  1  0  0  0
  8  9  2  0  0  0
  8 10  1  0  0  0
 10 14  2  0  0  0
 10 11  1  0  0  0
 11 12  2  0  0  0
 11 37  1  0  0  0
 12 20  1  0  0  0
 12 13  1  0  0  0
 13 14  1  0  0  0
 13 15  1  0  0  0
 15 16  1  0  0  0
 15 17  1  0  0  0
 15 28  1  0  0  0
 17 18  1  0  0  0
 17 38  1  0  0  0
 17 39  1  0  0  0
 18 19  1  0  0  0
 18 20  1  0  0  0
 18 21  1  0  0  0
 20 40  1  0  0  0
 21 26  2  0  0  0
 21 22  1  0  0  0
 22 23  2  0  0  0
 22 41  1  0  0  0
 23 24  1  0  0  0
 23 42  1  0  0  0
 24 25  2  0  0  0
 24 27  1  0  0  0
 25 26  1  0  0  0
 25 43  1  0  0  0
 26 44  1  0  0  0
 28 29  1  0  0  0
 28 30  1  0  0  0
 28 31  1  0  0  0
M  END
> <i_i_glide_confnum>
55

> <i_i_glide_lignum>
2782

> <i_i_glide_posenum>
336

> <i_i_glide_rotatable_bonds>
5

> <i_m_Source_File_Index>
3415

> <b_m_subgroup_collapsed>
0

> <r_i_docking_score>
-4.89849

> <r_i_glide_ecoul>
-3.4799

> <r_i_glide_eff_state_penalty>
0

> <r_i_glide_einternal>
2.60384

> <r_i_glide_emodel>
-49.7398

> <r_i_glide_energy>
-37.6457

> <r_i_glide_erotb>
0.437739

> <r_i_glide_esite>
-0.288071

> <r_i_glide_evdw>
-34.1658

> <r_i_glide_gscore>
-4.89849

> <r_i_glide_hbond>
-0.0132352

> <r_i_glide_ligand_efficiency>
-0.168914

> <r_i_glide_ligand_efficiency_ln>
-1.12163

> <r_i_glide_ligand_efficiency_sa>
-0.518956

> <r_i_glide_lipo>
-2.08025

> <r_i_glide_metal>
0

> <r_i_glide_rewards>
-0.724403

> <s_i_glide_gridfile>
wee1_glide-grid

> <s_m_Source_File>
wee1_decoys_glide_SP.sdf

> <s_m_Source_Path>
/Users/zhangxujun/Desktop

> <s_m_entry_id>
3690

> <s_m_entry_name>
wee1_decoys_glide_SP.3415

> <s_m_subgroup_title>
wee1_decoys_glide_SP

> <s_m_subgroupid>
wee1_decoys_glide_SP


$$$$
