ZINC37419867_1736
                    3D
 Schrodinger Suite 2024-2.
 32 33  0  0  1  0            999 V2000
    6.4805   54.3368   23.8819 C   0  0  0  0  0  0
    5.4448   54.1368   24.7915 C   0  0  0  0  0  0
    4.1067   54.0974   24.3664 C   0  0  0  0  0  0
    3.8328   54.1938   22.9831 C   0  0  0  0  0  0
    4.8862   54.3837   22.0747 C   0  0  0  0  0  0
    6.1997   54.4786   22.5278 C   0  0  0  0  0  0
    4.6457   54.4912   20.7460 F   0  0  0  0  0  0
    2.5249   54.0945   22.4818 N   0  0  0  0  0  0
    3.0271   53.9947   25.2737 N   0  0  0  0  0  0
    3.1533   53.4547   26.6243 C   0  0  0  0  0  0
    3.7187   54.4953   27.6165 C   0  0  0  0  0  0
    4.1822   53.7736   28.8975 C   0  0  0  0  0  0
    2.6589   53.0281   29.7331 S   0  0  0  0  0  0
    1.7504   54.1222   30.0878 O   0  0  0  0  0  0
    3.1054   52.0994   30.7759 O   0  0  0  0  0  0
    1.9062   52.0376   28.3121 C   0  0  0  0  0  0
    1.7660   52.9534   27.0800 C   0  0  0  0  0  0
    7.5035   54.3823   24.2254 H   0  0  0  0  0  0
    5.7130   54.0092   25.8263 H   0  0  0  0  0  0
    7.0021   54.6435   21.8240 H   0  0  0  0  0  0
    1.9048   53.4184   22.8990 H   0  0  0  0  0  0
    2.3868   54.3283   21.5017 H   0  0  0  0  0  0
    2.1956   53.6805   24.7981 H   0  0  0  0  0  0
    3.8384   52.6132   26.5238 H   0  0  0  0  0  0
    4.5526   55.0586   27.2031 H   0  0  0  0  0  0
    2.9650   55.2497   27.8524 H   0  0  0  0  0  0
    4.8689   52.9610   28.6595 H   0  0  0  0  0  0
    4.6625   54.4533   29.6022 H   0  0  0  0  0  0
    2.5749   51.2104   28.0925 H   0  0  0  0  0  0
    0.9461   51.6409   28.6422 H   0  0  0  0  0  0
    1.1042   53.7923   27.3014 H   0  0  0  0  0  0
    1.2819   52.3851   26.2831 H   0  0  0  0  0  0
  1  6  2  0  0  0
  1  2  1  0  0  0
  1 18  1  0  0  0
  2  3  2  0  0  0
  2 19  1  0  0  0
  3  4  1  0  0  0
  3  9  1  0  0  0
  4  5  2  0  0  0
  4  8  1  0  0  0
  5  6  1  0  0  0
  5  7  1  0  0  0
  6 20  1  0  0  0
  8 21  1  0  0  0
  8 22  1  0  0  0
  9 10  1  0  0  0
  9 23  1  0  0  0
 10 17  1  0  0  0
 10 11  1  0  0  0
 10 24  1  0  0  0
 11 12  1  0  0  0
 11 25  1  0  0  0
 11 26  1  0  0  0
 12 13  1  0  0  0
 12 27  1  0  0  0
 12 28  1  0  0  0
 13 14  2  0  0  0
 13 15  2  0  0  0
 13 16  1  0  0  0
 16 17  1  0  0  0
 16 29  1  0  0  0
 16 30  1  0  0  0
 17 31  1  0  0  0
 17 32  1  0  0  0
M  END
> <i_i_glide_confnum>
2

> <i_i_glide_lignum>
1737

> <i_i_glide_posenum>
399

> <i_i_glide_rotatable_bonds>
2

> <i_m_Source_File_Index>
3893

> <b_m_subgroup_collapsed>
0

> <r_i_docking_score>
-6.23363

> <r_i_glide_ecoul>
-5.26687

> <r_i_glide_eff_state_penalty>
0

> <r_i_glide_einternal>
3.57401

> <r_i_glide_emodel>
-44.4657

> <r_i_glide_energy>
-33.6554

> <r_i_glide_erotb>
0.529403

> <r_i_glide_esite>
-0.0028747

> <r_i_glide_evdw>
-28.3885

> <r_i_glide_gscore>
-6.23363

> <r_i_glide_hbond>
-0.316308

> <r_i_glide_ligand_efficiency>
-0.366684

> <r_i_glide_ligand_efficiency_ln>
-1.62621

> <r_i_glide_ligand_efficiency_sa>
-0.942847

> <r_i_glide_lipo>
-2.3637

> <r_i_glide_metal>
0

> <r_i_glide_rewards>
-1.87069

> <s_i_glide_gridfile>
wee1_glide-grid

> <s_m_Source_File>
wee1_decoys_glide_SP.sdf

> <s_m_Source_Path>
/Users/zhangxujun/Desktop

> <s_m_entry_id>
4168

> <s_m_entry_name>
wee1_decoys_glide_SP.3893

> <s_m_subgroup_title>
wee1_decoys_glide_SP

> <s_m_subgroupid>
wee1_decoys_glide_SP


$$$$
