ZINC09325703_3363
                    3D
 Schrodinger Suite 2024-2.
 54 57  0  0  1  0            999 V2000
    0.2115   53.6698   31.6572 C   0  0  0  0  0  0
    1.1411   53.4815   30.5980 O   0  0  0  0  0  0
    0.6971   53.1698   29.3541 C   0  0  0  0  0  0
   -0.4937   52.9789   29.0961 O   0  0  0  0  0  0
    1.7374   53.1294   28.4088 N   0  0  0  0  0  0
    3.1656   53.1544   28.7941 C   0  0  0  0  0  0
    3.8446   54.2893   27.9895 C   0  0  0  0  0  0
    3.5727   54.0919   26.4967 C   0  0  0  0  0  0
    2.4288   53.4021   26.0763 C   0  0  0  0  0  0
    2.3210   53.2970   24.3545 S   0  0  0  0  0  0
    3.8937   54.0447   24.1835 C   0  0  0  0  0  0
    4.4125   54.4489   25.4209 C   0  0  0  0  0  0
    5.6923   55.1364   25.5718 C   0  0  0  0  0  0
    6.7044   55.6850   25.6816 N   0  0  0  0  0  0
    4.5350   54.2081   22.9597 N   0  0  0  0  0  0
    4.2173   53.6952   21.7510 C   0  0  0  0  0  0
    3.3050   52.8936   21.5484 O   0  0  0  0  0  0
    5.1301   54.1284   20.6229 C   0  0  0  0  0  0
    5.9132   55.2939   20.7100 C   0  0  0  0  0  0
    6.7406   55.6765   19.6584 C   0  0  0  0  0  0
    6.8066   54.9046   18.5049 C   0  0  0  0  0  0
    6.0432   53.7390   18.3905 C   0  0  0  0  0  0
    5.2101   53.3633   19.4494 C   0  0  0  0  0  0
    6.0751   52.8968   17.2715 N   0  0  0  0  0  0
    6.9195   53.2070   15.7383 S   0  0  0  0  0  0
    6.3825   52.2299   14.7844 O   0  0  0  0  0  0
    6.8479   54.6461   15.4599 O   0  0  0  0  0  0
    8.6313   52.7651   16.0327 C   0  0  0  0  0  0
    9.5613   53.7380   16.4097 C   0  0  0  0  0  0
   10.8862   53.3761   16.6397 C   0  0  0  0  0  0
   11.2770   52.0454   16.4813 C   0  0  0  0  0  0
   10.3525   51.0731   16.1060 C   0  0  0  0  0  0
    9.0263   51.4319   15.8859 C   0  0  0  0  0  0
    1.4018   52.7875   27.0154 C   0  0  0  0  0  0
    0.7012   53.7059   32.6294 H   0  0  0  0  0  0
   -0.5038   52.8507   31.6812 H   0  0  0  0  0  0
   -0.3413   54.6010   31.5194 H   0  0  0  0  0  0
    3.3373   53.2796   29.8635 H   0  0  0  0  0  0
    3.6106   52.1920   28.5333 H   0  0  0  0  0  0
    3.4928   55.2627   28.3245 H   0  0  0  0  0  0
    4.9143   54.2809   28.2013 H   0  0  0  0  0  0
    5.4158   54.6946   23.0025 H   0  0  0  0  0  0
    5.9014   55.9262   21.5854 H   0  0  0  0  0  0
    7.3382   56.5710   19.7346 H   0  0  0  0  0  0
    7.4570   55.2308   17.7125 H   0  0  0  0  0  0
    4.6252   52.4591   19.3537 H   0  0  0  0  0  0
    5.6471   51.9804   17.3822 H   0  0  0  0  0  0
    9.2660   54.7718   16.5155 H   0  0  0  0  0  0
   11.6083   54.1226   16.9351 H   0  0  0  0  0  0
   12.3024   51.7640   16.6623 H   0  0  0  0  0  0
   10.6590   50.0422   15.9928 H   0  0  0  0  0  0
    8.3079   50.6808   15.5902 H   0  0  0  0  0  0
    1.3816   51.7026   26.9127 H   0  0  0  0  0  0
    0.3934   53.1111   26.7596 H   0  0  0  0  0  0
  1  2  1  0  0  0
  1 35  1  0  0  0
  1 36  1  0  0  0
  1 37  1  0  0  0
  2  3  1  0  0  0
  3  4  2  0  0  0
  3  5  1  0  0  0
  5 34  1  0  0  0
  5  6  1  0  0  0
  6  7  1  0  0  0
  6 38  1  0  0  0
  6 39  1  0  0  0
  7  8  1  0  0  0
  7 40  1  0  0  0
  7 41  1  0  0  0
  8 12  1  0  0  0
  8  9  2  0  0  0
  9 10  1  0  0  0
  9 34  1  0  0  0
 10 11  1  0  0  0
 11 12  2  0  0  0
 11 15  1  0  0  0
 12 13  1  0  0  0
 13 14  3  0  0  0
 15 16  1  0  0  0
 15 42  1  0  0  0
 16 17  2  0  0  0
 16 18  1  0  0  0
 18 23  2  0  0  0
 18 19  1  0  0  0
 19 20  2  0  0  0
 19 43  1  0  0  0
 20 21  1  0  0  0
 20 44  1  0  0  0
 21 22  2  0  0  0
 21 45  1  0  0  0
 22 23  1  0  0  0
 22 24  1  0  0  0
 23 46  1  0  0  0
 24 25  1  0  0  0
 24 47  1  0  0  0
 25 26  2  0  0  0
 25 27  2  0  0  0
 25 28  1  0  0  0
 28 33  2  0  0  0
 28 29  1  0  0  0
 29 30  2  0  0  0
 29 48  1  0  0  0
 30 31  1  0  0  0
 30 49  1  0  0  0
 31 32  2  0  0  0
 31 50  1  0  0  0
 32 33  1  0  0  0
 32 51  1  0  0  0
 33 52  1  0  0  0
 34 53  1  0  0  0
 34 54  1  0  0  0
M  END
> <i_i_glide_confnum>
40

> <i_i_glide_lignum>
3364

> <i_i_glide_posenum>
28

> <i_i_glide_rotatable_bonds>
9

> <i_m_Source_File_Index>
2852

> <b_m_subgroup_collapsed>
0

> <r_i_docking_score>
-6.28062

> <r_i_glide_ecoul>
-4.13013

> <r_i_glide_eff_state_penalty>
0

> <r_i_glide_einternal>
2.37521

> <r_i_glide_emodel>
-68.2385

> <r_i_glide_energy>
-50.2233

> <r_i_glide_erotb>
0.578945

> <r_i_glide_esite>
-0.105381

> <r_i_glide_evdw>
-46.0932

> <r_i_glide_gscore>
-6.28062

> <r_i_glide_hbond>
-0.456273

> <r_i_glide_ligand_efficiency>
-0.184724

> <r_i_glide_ligand_efficiency_ln>
-1.38757

> <r_i_glide_ligand_efficiency_sa>
-0.598434

> <r_i_glide_lipo>
-2.2352

> <r_i_glide_metal>
0

> <r_i_glide_rewards>
-1.13854

> <s_i_glide_gridfile>
wee1_glide-grid

> <s_m_Source_File>
wee1_decoys_glide_SP.sdf

> <s_m_Source_Path>
/Users/zhangxujun/Desktop

> <s_m_entry_id>
3127

> <s_m_entry_name>
wee1_decoys_glide_SP.2852

> <s_m_subgroup_title>
wee1_decoys_glide_SP

> <s_m_subgroupid>
wee1_decoys_glide_SP


$$$$
