ZINC11865478_1926
                    3D
 Schrodinger Suite 2024-2.
 57 60  0  0  1  0            999 V2000
    2.6365   52.7935   20.8096 C   0  0  0  0  0  0
    3.9041   53.6043   20.5304 C   0  0  0  0  0  0
    4.6792   54.0450   21.7205 C   0  0  0  0  0  0
    4.2677   53.8062   23.0460 C   0  0  0  0  0  0
    5.0855   54.2319   24.1062 C   0  0  0  0  0  0
    6.3036   54.8839   23.8036 C   0  0  0  0  0  0
    6.7061   55.1761   22.5002 C   0  0  0  0  0  0
    5.8688   54.7503   21.4736 C   0  0  0  0  0  0
    6.2970   55.0549   20.1958 O   0  0  0  0  0  0
    5.5760   54.7083   19.0743 C   0  0  0  0  0  0
    6.0673   55.0861   18.0119 O   0  0  0  0  0  0
    4.3229   53.9349   19.2765 C   0  0  0  0  0  0
    3.6239   53.5513   17.9608 C   0  0  0  0  0  0
    2.8187   54.7159   17.3231 C   0  0  0  0  0  0
    1.5406   54.2799   16.5915 C   0  0  0  0  0  0
    1.5881   53.3703   15.7636 O   0  0  0  0  0  0
    0.4112   54.9507   16.8814 N   0  0  0  0  0  0
   -0.9192   54.6750   16.3141 C   0  0  2  0  0  0
   -0.9997   53.6169   16.0484 H   0  0  0  0  0  0
   -1.2295   55.5382   15.0408 C   0  0  0  0  0  0
   -0.8933   57.0435   15.1481 C   0  0  0  0  0  0
   -0.5625   54.9566   13.7805 C   0  0  0  0  0  0
   -1.9564   54.9121   17.4611 C   0  0  0  0  0  0
   -2.0959   56.0930   17.8612 O   0  0  0  0  0  0
    6.9996   55.1840   24.9387 O   0  0  0  0  0  0
    6.2276   54.7427   25.9680 C   0  0  0  0  0  0
    5.0183   54.2079   25.5369 C   0  0  0  0  0  0
    3.9518   53.7077   26.5035 C   0  0  0  0  0  0
    4.2435   54.2513   27.9226 C   0  0  0  0  0  0
    5.7289   54.1225   28.3253 C   0  0  0  0  0  0
    6.6926   54.8979   27.3983 C   0  0  0  0  0  0
    1.9797   53.3235   21.4985 H   0  0  0  0  0  0
    2.0299   52.5910   19.9312 H   0  0  0  0  0  0
    2.8977   51.8348   21.2578 H   0  0  0  0  0  0
    3.3432   53.2967   23.2689 H   0  0  0  0  0  0
    7.6279   55.6963   22.2940 H   0  0  0  0  0  0
    3.0024   52.6695   18.1042 H   0  0  0  0  0  0
    4.3644   53.1901   17.2442 H   0  0  0  0  0  0
    3.4472   55.2404   16.6025 H   0  0  0  0  0  0
    2.5644   55.4572   18.0818 H   0  0  0  0  0  0
    0.4216   55.6226   17.6348 H   0  0  0  0  0  0
   -2.3017   55.4684   14.8502 H   0  0  0  0  0  0
    0.1623   57.2050   15.3719 H   0  0  0  0  0  0
   -1.4794   57.5416   15.9194 H   0  0  0  0  0  0
   -1.1110   57.5565   14.2115 H   0  0  0  0  0  0
    0.5238   55.0191   13.8392 H   0  0  0  0  0  0
   -0.8294   53.9089   13.6389 H   0  0  0  0  0  0
   -0.8724   55.4980   12.8868 H   0  0  0  0  0  0
    2.9535   54.0129   26.1855 H   0  0  0  0  0  0
    3.9463   52.6223   26.5333 H   0  0  0  0  0  0
    3.6190   53.7263   28.6451 H   0  0  0  0  0  0
    3.9449   55.2966   27.9808 H   0  0  0  0  0  0
    6.0063   53.0665   28.3451 H   0  0  0  0  0  0
    5.8624   54.4964   29.3395 H   0  0  0  0  0  0
    7.7000   54.5082   27.5344 H   0  0  0  0  0  0
    6.6930   55.9470   27.6811 H   0  0  0  0  0  0
   -2.4956   53.8709   17.9002 O   0  5  0  0  0  0
  1  2  1  0  0  0
  1 32  1  0  0  0
  1 33  1  0  0  0
  1 34  1  0  0  0
  2 12  2  0  0  0
  2  3  1  0  0  0
  3  8  2  0  0  0
  3  4  1  0  0  0
  4  5  2  0  0  0
  4 35  1  0  0  0
  5 27  1  0  0  0
  5  6  1  0  0  0
  6  7  2  0  0  0
  6 25  1  0  0  0
  7  8  1  0  0  0
  7 36  1  0  0  0
  8  9  1  0  0  0
  9 10  1  0  0  0
 10 11  2  0  0  0
 10 12  1  0  0  0
 12 13  1  0  0  0
 13 14  1  0  0  0
 13 37  1  0  0  0
 13 38  1  0  0  0
 14 15  1  0  0  0
 14 39  1  0  0  0
 14 40  1  0  0  0
 15 16  2  0  0  0
 15 17  1  0  0  0
 17 18  1  0  0  0
 17 41  1  0  0  0
 18 19  1  0  0  0
 18 20  1  0  0  0
 18 23  1  0  0  0
 20 21  1  0  0  0
 20 22  1  0  0  0
 20 42  1  0  0  0
 21 43  1  0  0  0
 21 44  1  0  0  0
 21 45  1  0  0  0
 22 46  1  0  0  0
 22 47  1  0  0  0
 22 48  1  0  0  0
 23 24  2  0  0  0
 23 57  1  0  0  0
 25 26  1  0  0  0
 26 31  1  0  0  0
 26 27  2  0  0  0
 27 28  1  0  0  0
 28 29  1  0  0  0
 28 49  1  0  0  0
 28 50  1  0  0  0
 29 30  1  0  0  0
 29 51  1  0  0  0
 29 52  1  0  0  0
 30 31  1  0  0  0
 30 53  1  0  0  0
 30 54  1  0  0  0
 31 55  1  0  0  0
 31 56  1  0  0  0
M  CHG  1  57  -1
M  END
> <i_i_glide_confnum>
36

> <i_i_glide_lignum>
1927

> <i_i_glide_posenum>
221

> <i_i_glide_rotatable_bonds>
7

> <i_m_Source_File_Index>
40

> <b_m_subgroup_collapsed>
0

> <r_i_docking_score>
-6.16408

> <r_i_glide_ecoul>
-4.63719

> <r_i_glide_eff_state_penalty>
0

> <r_i_glide_einternal>
5.19368

> <r_i_glide_emodel>
-56.1658

> <r_i_glide_energy>
-38.3384

> <r_i_glide_erotb>
0.550269

> <r_i_glide_esite>
-0.0474832

> <r_i_glide_evdw>
-33.7012

> <r_i_glide_gscore>
-6.16408

> <r_i_glide_hbond>
-0.429948

> <r_i_glide_ligand_efficiency>
-0.198841

> <r_i_glide_ligand_efficiency_ln>
-1.39019

> <r_i_glide_ligand_efficiency_sa>
-0.624636

> <r_i_glide_lipo>
-2.75797

> <r_i_glide_metal>
0

> <r_i_glide_rewards>
-1.09831

> <s_i_glide_gridfile>
wee1_glide-grid

> <s_m_Source_File>
wee1_decoys_glide_SP.sdf

> <s_m_Source_Path>
/Users/zhangxujun/Desktop

> <s_m_entry_id>
315

> <s_m_entry_name>
wee1_decoys_glide_SP.40

> <s_m_subgroup_title>
wee1_decoys_glide_SP

> <s_m_subgroupid>
wee1_decoys_glide_SP


$$$$
