ZINC52880491_1605
                    3D
 Schrodinger Suite 2024-2.
 42 43  0  0  1  0            999 V2000
    2.2090   55.1296   28.5535 C   0  0  0  0  0  0
    2.8913   53.7882   28.1466 C   0  0  1  0  0  0
    4.1921   54.1429   27.3599 C   0  0  0  0  0  0
    5.4683   54.1780   27.9547 C   0  0  0  0  0  0
    6.6017   54.4809   27.2044 C   0  0  0  0  0  0
    6.4799   54.7640   25.8480 C   0  0  0  0  0  0
    5.2307   54.7605   25.2411 C   0  0  0  0  0  0
    4.0985   54.4606   25.9926 C   0  0  0  0  0  0
    3.2207   52.9513   29.4431 C   0  0  0  0  0  0
    3.5045   53.5897   30.4817 O   0  0  0  0  0  0
    3.2181   51.6972   29.3936 O   0  5  0  0  0  0
    2.0082   52.9789   27.2680 N   0  0  0  0  0  0
    0.7655   52.4941   27.4799 C   0  0  0  0  0  0
    0.0336   52.8818   28.3937 O   0  0  0  0  0  0
    0.4389   51.4842   26.6321 N   0  0  0  0  0  0
    0.7044   51.5568   25.1791 C   0  0  0  0  0  0
   -0.5729   52.0902   24.4928 C   0  0  0  0  0  0
   -1.7915   51.1911   24.7852 C   0  0  0  0  0  0
   -1.9466   50.9019   26.2953 C   0  0  2  0  0  0
   -2.3541   51.7793   26.8052 H   0  0  0  0  0  0
   -0.6226   50.5372   27.0054 C   0  0  0  0  0  0
   -2.8820   49.6971   26.4821 N   0  3  0  0  0  0
    2.8875   55.7752   29.1147 H   0  0  0  0  0  0
    1.8870   55.6952   27.6829 H   0  0  0  0  0  0
    1.3277   54.9766   29.1777 H   0  0  0  0  0  0
    5.6064   53.9730   29.0049 H   0  0  0  0  0  0
    7.5698   54.4959   27.6814 H   0  0  0  0  0  0
    7.3556   54.9891   25.2578 H   0  0  0  0  0  0
    5.1401   54.9879   24.1895 H   0  0  0  0  0  0
    3.1388   54.4762   25.4972 H   0  0  0  0  0  0
    2.5118   52.5404   26.5128 H   0  0  0  0  0  0
    1.6163   52.0996   24.9269 H   0  0  0  0  0  0
    0.9096   50.5373   24.8475 H   0  0  0  0  0  0
   -0.7689   53.1145   24.8142 H   0  0  0  0  0  0
   -0.4092   52.1462   23.4156 H   0  0  0  0  0  0
   -2.7186   51.5703   24.3514 H   0  0  0  0  0  0
   -1.6067   50.2481   24.2659 H   0  0  0  0  0  0
   -0.2860   49.5429   26.7068 H   0  0  0  0  0  0
   -0.7327   50.4880   28.0908 H   0  0  0  0  0  0
   -2.6896   48.9944   25.7858 H   0  0  0  0  0  0
   -2.6707   49.2673   27.3860 H   0  0  0  0  0  0
   -3.8555   49.9586   26.4432 H   0  0  0  0  0  0
  1  2  1  0  0  0
  1 23  1  0  0  0
  1 24  1  0  0  0
  1 25  1  0  0  0
  2  3  1  0  0  0
  2  9  1  0  0  0
  2 12  1  0  0  0
  3  8  2  0  0  0
  3  4  1  0  0  0
  4  5  2  0  0  0
  4 26  1  0  0  0
  5  6  1  0  0  0
  5 27  1  0  0  0
  6  7  2  0  0  0
  6 28  1  0  0  0
  7  8  1  0  0  0
  7 29  1  0  0  0
  8 30  1  0  0  0
  9 10  2  0  0  0
  9 11  1  0  0  0
 12 13  1  0  0  0
 12 31  1  0  0  0
 13 14  2  0  0  0
 13 15  1  0  0  0
 15 21  1  0  0  0
 15 16  1  0  0  0
 16 17  1  0  0  0
 16 32  1  0  0  0
 16 33  1  0  0  0
 17 18  1  0  0  0
 17 34  1  0  0  0
 17 35  1  0  0  0
 18 19  1  0  0  0
 18 36  1  0  0  0
 18 37  1  0  0  0
 19 20  1  0  0  0
 19 21  1  0  0  0
 19 22  1  0  0  0
 21 38  1  0  0  0
 21 39  1  0  0  0
 22 40  1  0  0  0
 22 41  1  0  0  0
 22 42  1  0  0  0
M  CHG  2  11  -1  22   1
M  END
> <i_i_glide_confnum>
6

> <i_i_glide_lignum>
1606

> <i_i_glide_posenum>
119

> <i_i_glide_rotatable_bonds>
5

> <i_m_Source_File_Index>
6076

> <b_m_subgroup_collapsed>
0

> <r_i_docking_score>
-7.03641

> <r_i_glide_ecoul>
-9.31295

> <r_i_glide_eff_state_penalty>
0

> <r_i_glide_einternal>
7.11624

> <r_i_glide_emodel>
-57.6547

> <r_i_glide_energy>
-38.7218

> <r_i_glide_erotb>
0.644642

> <r_i_glide_esite>
-0.105388

> <r_i_glide_evdw>
-29.4088

> <r_i_glide_gscore>
-7.03641

> <r_i_glide_hbond>
-0.461944

> <r_i_glide_ligand_efficiency>
-0.335067

> <r_i_glide_ligand_efficiency_ln>
-1.73974

> <r_i_glide_ligand_efficiency_sa>
-0.924425

> <r_i_glide_lipo>
-2.33107

> <r_i_glide_metal>
0

> <r_i_glide_rewards>
-1.91527

> <s_i_glide_gridfile>
wee1_glide-grid

> <s_m_Source_File>
wee1_decoys_glide_SP.sdf

> <s_m_Source_Path>
/Users/zhangxujun/Desktop

> <s_m_entry_id>
6351

> <s_m_entry_name>
wee1_decoys_glide_SP.6076

> <s_m_subgroup_title>
wee1_decoys_glide_SP

> <s_m_subgroupid>
wee1_decoys_glide_SP


$$$$
