ZINC00907322_3754
                    3D
 Schrodinger Suite 2024-2.
 42 44  0  0  1  0            999 V2000
    6.4721   54.9680   22.7480 C   0  0  0  0  0  0
    5.7524   54.6207   24.0463 C   0  0  0  0  0  0
    6.4657   54.7064   25.2456 C   0  0  0  0  0  0
    5.8435   54.3852   26.4516 C   0  0  0  0  0  0
    4.5522   53.9908   26.5518 N   0  0  0  0  0  0
    3.8836   53.8829   25.4053 C   0  0  0  0  0  0
    4.4019   54.1822   24.1140 C   0  0  0  0  0  0
    3.4002   53.9759   23.1084 C   0  0  0  0  0  0
    2.2713   53.2981   23.5902 C   0  0  0  0  0  0
    2.2388   53.2964   25.3454 S   0  0  0  0  0  0
    1.0893   52.7935   22.9027 C   0  0  0  0  0  0
   -0.0130   52.9361   23.4403 O   0  0  0  0  0  0
    1.2259   52.1867   21.6820 N   0  0  0  0  0  0
   -0.0130   51.8153   20.9534 C   0  0  0  0  0  0
    0.1936   52.1035   19.4525 C   0  0  0  0  0  0
    1.4040   51.3578   18.8895 C   0  0  0  0  0  0
    2.6520   51.6890   19.7165 C   0  0  0  0  0  0
    2.4742   51.4976   21.2480 C   0  0  2  0  0  0
    3.3469   51.9514   21.7067 H   0  0  0  0  0  0
    2.5626   50.0265   21.6650 C   0  0  0  0  0  0
    3.5629   54.3624   21.8040 N   0  0  0  0  0  0
    6.5946   54.4084   27.7661 C   0  0  0  0  0  0
    7.4683   55.3792   22.9119 H   0  0  0  0  0  0
    6.5597   54.0873   22.1134 H   0  0  0  0  0  0
    5.9069   55.6969   22.1733 H   0  0  0  0  0  0
    7.5028   55.0056   25.2313 H   0  0  0  0  0  0
   -0.8803   52.3943   21.2766 H   0  0  0  0  0  0
   -0.2060   50.7530   21.1089 H   0  0  0  0  0  0
    0.3115   53.1756   19.2877 H   0  0  0  0  0  0
   -0.7004   51.8153   18.9023 H   0  0  0  0  0  0
    1.5631   51.6200   17.8431 H   0  0  0  0  0  0
    1.2220   50.2812   18.9067 H   0  0  0  0  0  0
    2.9116   52.7328   19.5317 H   0  0  0  0  0  0
    3.5021   51.1146   19.3463 H   0  0  0  0  0  0
    3.4995   49.6302   21.2839 H   0  0  0  0  0  0
    1.7619   49.4248   21.2402 H   0  0  0  0  0  0
    2.5698   49.9100   22.7486 H   0  0  0  0  0  0
    4.4159   54.7850   21.4710 H   0  0  0  0  0  0
    2.7947   54.3256   21.1391 H   0  0  0  0  0  0
    7.5555   54.9023   27.6782 H   0  0  0  0  0  0
    6.0133   54.9336   28.5239 H   0  0  0  0  0  0
    6.7713   53.3930   28.1145 H   0  0  0  0  0  0
  1  2  1  0  0  0
  1 23  1  0  0  0
  1 24  1  0  0  0
  1 25  1  0  0  0
  2  7  2  0  0  0
  2  3  1  0  0  0
  3  4  2  0  0  0
  3 26  1  0  0  0
  4  5  1  0  0  0
  4 22  1  0  0  0
  5  6  2  0  0  0
  6 10  1  0  0  0
  6  7  1  0  0  0
  7  8  1  0  0  0
  8  9  2  0  0  0
  8 21  1  0  0  0
  9 10  1  0  0  0
  9 11  1  0  0  0
 11 12  2  0  0  0
 11 13  1  0  0  0
 13 18  1  0  0  0
 13 14  1  0  0  0
 14 15  1  0  0  0
 14 27  1  0  0  0
 14 28  1  0  0  0
 15 16  1  0  0  0
 15 29  1  0  0  0
 15 30  1  0  0  0
 16 17  1  0  0  0
 16 31  1  0  0  0
 16 32  1  0  0  0
 17 18  1  0  0  0
 17 33  1  0  0  0
 17 34  1  0  0  0
 18 19  1  0  0  0
 18 20  1  0  0  0
 20 35  1  0  0  0
 20 36  1  0  0  0
 20 37  1  0  0  0
 21 38  1  0  0  0
 21 39  1  0  0  0
 22 40  1  0  0  0
 22 41  1  0  0  0
 22 42  1  0  0  0
M  END
> <i_i_glide_confnum>
2

> <i_i_glide_lignum>
3755

> <i_i_glide_posenum>
295

> <i_i_glide_rotatable_bonds>
2

> <i_m_Source_File_Index>
5679

> <b_m_subgroup_collapsed>
0

> <r_i_docking_score>
-5.91176

> <r_i_glide_ecoul>
-1.71977

> <r_i_glide_eff_state_penalty>
0

> <r_i_glide_einternal>
1.12542

> <r_i_glide_emodel>
-42.1213

> <r_i_glide_energy>
-31.677

> <r_i_glide_erotb>
0.4003

> <r_i_glide_esite>
0

> <r_i_glide_evdw>
-29.9573

> <r_i_glide_gscore>
-5.91176

> <r_i_glide_hbond>
-0.313345

> <r_i_glide_ligand_efficiency>
-0.281512

> <r_i_glide_ligand_efficiency_ln>
-1.46167

> <r_i_glide_ligand_efficiency_sa>
-0.776671

> <r_i_glide_lipo>
-2.76534

> <r_i_glide_metal>
0

> <r_i_glide_rewards>
-1.47755

> <s_i_glide_gridfile>
wee1_glide-grid

> <s_m_Source_File>
wee1_decoys_glide_SP.sdf

> <s_m_Source_Path>
/Users/zhangxujun/Desktop

> <s_m_entry_id>
5954

> <s_m_entry_name>
wee1_decoys_glide_SP.5679

> <s_m_subgroup_title>
wee1_decoys_glide_SP

> <s_m_subgroupid>
wee1_decoys_glide_SP


$$$$
