ZINC13254624_5818
                    3D
 Schrodinger Suite 2024-2.
 53 56  0  0  1  0            999 V2000
   -2.4859   46.6703   24.1169 C   0  0  0  0  0  0
   -2.9362   48.1165   23.8587 C   0  0  0  0  0  0
   -2.8764   49.0217   25.1054 C   0  0  0  0  0  0
   -1.4653   49.2968   25.6804 C   0  0  0  0  0  0
   -0.6350   50.2313   24.8801 N   0  0  0  0  0  0
    0.1863   49.6366   23.9240 C   0  0  0  0  0  0
    0.2764   48.4169   23.7816 O   0  0  0  0  0  0
    0.9029   50.6333   23.1215 C   0  0  0  0  0  0
    1.8435   50.4359   22.0801 C   0  0  0  0  0  0
    2.3454   51.6560   21.5952 C   0  0  0  0  0  0
    1.6137   53.0099   22.4061 S   0  0  0  0  0  0
    0.6277   51.9717   23.3463 C   0  0  0  0  0  0
   -0.2459   52.4586   24.2612 N   0  0  0  0  0  0
   -0.7714   51.6093   25.0731 C   0  0  0  0  0  0
   -1.6267   52.3423   26.4821 S   0  0  0  0  0  0
   -0.5071   51.8731   27.8782 C   0  0  0  0  0  0
    0.9212   52.4354   27.8286 C   0  0  0  0  0  0
    1.6962   52.3197   28.9650 N   0  0  0  0  0  0
    1.2832   51.9135   29.7898 H   0  0  0  0  0  0
    2.9935   52.7188   29.1489 C   0  0  0  0  0  0
    3.5075   52.5648   30.2533 O   0  0  0  0  0  0
    3.5511   53.3102   27.9101 C   0  0  0  0  0  0
    4.8469   53.8261   27.6434 C   0  0  0  0  0  0
    4.9586   54.2901   26.3071 C   0  0  0  0  0  0
    3.4600   54.0967   25.4325 S   0  0  0  0  0  0
    2.7005   53.4113   26.8109 C   0  0  0  0  0  0
    1.4091   52.9933   26.7757 N   0  0  0  0  0  0
    6.0934   54.8932   25.5748 C   0  0  0  0  0  0
    5.9750   55.0642   24.3407 O   0  0  0  0  0  0
    7.1041   55.2188   26.2351 O   0  5  0  0  0  0
    5.9892   53.7699   28.6350 C   0  0  0  0  0  0
    3.3746   51.8966   20.5118 C   0  0  0  0  0  0
    2.2212   49.0892   21.4925 C   0  0  0  0  0  0
   -2.5817   46.0703   23.2139 H   0  0  0  0  0  0
   -1.4404   46.6261   24.4325 H   0  0  0  0  0  0
   -3.0871   46.2005   24.8953 H   0  0  0  0  0  0
   -3.9651   48.0961   23.4945 H   0  0  0  0  0  0
   -2.3485   48.5532   23.0510 H   0  0  0  0  0  0
   -3.4674   48.5495   25.8929 H   0  0  0  0  0  0
   -3.3779   49.9690   24.9015 H   0  0  0  0  0  0
   -0.9368   48.3576   25.8576 H   0  0  0  0  0  0
   -1.6082   49.6963   26.6826 H   0  0  0  0  0  0
   -0.9876   52.2638   28.7733 H   0  0  0  0  0  0
   -0.5039   50.7974   28.0393 H   0  0  0  0  0  0
    6.0144   54.6520   29.2756 H   0  0  0  0  0  0
    5.8936   52.8977   29.2756 H   0  0  0  0  0  0
    6.9689   53.6519   28.1676 H   0  0  0  0  0  0
    4.2486   51.2538   20.6340 H   0  0  0  0  0  0
    2.9721   51.7008   19.5155 H   0  0  0  0  0  0
    3.7395   52.9275   20.5087 H   0  0  0  0  0  0
    2.8391   48.5003   22.1692 H   0  0  0  0  0  0
    2.7201   49.1585   20.5269 H   0  0  0  0  0  0
    1.3275   48.4980   21.3084 H   0  0  0  0  0  0
  1  2  1  0  0  0
  1 34  1  0  0  0
  1 35  1  0  0  0
  1 36  1  0  0  0
  2  3  1  0  0  0
  2 37  1  0  0  0
  2 38  1  0  0  0
  3  4  1  0  0  0
  3 39  1  0  0  0
  3 40  1  0  0  0
  4  5  1  0  0  0
  4 41  1  0  0  0
  4 42  1  0  0  0
  5 14  1  0  0  0
  5  6  1  0  0  0
  6  7  2  0  0  0
  6  8  1  0  0  0
  8 12  2  0  0  0
  8  9  1  0  0  0
  9 10  2  0  0  0
  9 33  1  0  0  0
 10 11  1  0  0  0
 10 32  1  0  0  0
 11 12  1  0  0  0
 12 13  1  0  0  0
 13 14  2  0  0  0
 14 15  1  0  0  0
 15 16  1  0  0  0
 16 17  1  0  0  0
 16 43  1  0  0  0
 16 44  1  0  0  0
 17 27  2  0  0  0
 17 18  1  0  0  0
 18 19  1  0  0  0
 18 20  1  0  0  0
 20 21  2  0  0  0
 20 22  1  0  0  0
 22 26  2  0  0  0
 22 23  1  0  0  0
 23 24  2  0  0  0
 23 31  1  0  0  0
 24 25  1  0  0  0
 24 28  1  0  0  0
 25 26  1  0  0  0
 26 27  1  0  0  0
 28 29  2  0  0  0
 28 30  1  0  0  0
 31 45  1  0  0  0
 31 46  1  0  0  0
 31 47  1  0  0  0
 32 48  1  0  0  0
 32 49  1  0  0  0
 32 50  1  0  0  0
 33 51  1  0  0  0
 33 52  1  0  0  0
 33 53  1  0  0  0
M  CHG  1  30  -1
M  END
> <i_i_glide_confnum>
22

> <i_i_glide_lignum>
5819

> <i_i_glide_posenum>
340

> <i_i_glide_rotatable_bonds>
7

> <i_m_Source_File_Index>
3451

> <b_m_subgroup_collapsed>
0

> <r_i_docking_score>
-6.13062

> <r_i_glide_ecoul>
-8.43036

> <r_i_glide_eff_state_penalty>
0

> <r_i_glide_einternal>
6.51194

> <r_i_glide_emodel>
-76.5814

> <r_i_glide_energy>
-55.3032

> <r_i_glide_erotb>
0.424341

> <r_i_glide_esite>
-0.0245842

> <r_i_glide_evdw>
-46.8728

> <r_i_glide_gscore>
-6.13062

> <r_i_glide_hbond>
-0.16

> <r_i_glide_ligand_efficiency>
-0.191582

> <r_i_glide_ligand_efficiency_ln>
-1.37281

> <r_i_glide_ligand_efficiency_sa>
-0.608235

> <r_i_glide_lipo>
-2.06616

> <r_i_glide_metal>
0

> <r_i_glide_rewards>
-0.696021

> <s_i_glide_gridfile>
wee1_glide-grid

> <s_m_Source_File>
wee1_decoys_glide_SP.sdf

> <s_m_Source_Path>
/Users/zhangxujun/Desktop

> <s_m_entry_id>
3726

> <s_m_entry_name>
wee1_decoys_glide_SP.3451

> <s_m_subgroup_title>
wee1_decoys_glide_SP

> <s_m_subgroupid>
wee1_decoys_glide_SP


$$$$
