ZINC51673307_1331
                    3D
 Schrodinger Suite 2024-2.
 55 57  0  0  1  0            999 V2000
    2.3631   53.8980   23.2299 C   0  0  0  0  0  0
    3.5703   54.0966   24.1386 C   0  0  0  0  0  0
    3.3668   54.1687   25.5188 C   0  0  0  0  0  0
    4.4240   54.3728   26.4122 C   0  0  0  0  0  0
    5.7165   54.4958   25.8832 C   0  0  0  0  0  0
    5.9420   54.4304   24.5063 C   0  0  0  0  0  0
    4.8700   54.2372   23.6219 C   0  0  0  0  0  0
    5.0526   54.1504   22.2288 N   0  0  0  0  0  0
    5.9066   54.8609   21.4651 C   0  0  0  0  0  0
    6.7046   55.7037   21.8788 O   0  0  0  0  0  0
    5.8194   54.4974   20.1752 N   0  0  0  0  0  0
    6.7130   54.9686   19.1135 C   0  0  0  0  0  0
    6.2255   56.2277   18.4079 C   0  0  0  0  0  0
    7.0636   57.3440   18.2897 C   0  0  0  0  0  0
    6.5873   58.4942   17.6596 C   0  0  0  0  0  0
    5.3387   58.4967   17.1590 N   0  3  0  0  0  0
    4.4802   57.4547   17.2287 C   0  0  0  0  0  0
    4.9298   56.2877   17.8695 C   0  0  0  0  0  0
    3.1580   57.5824   16.6654 N   0  0  0  0  0  0
    2.2369   56.4337   16.6584 C   0  0  0  0  0  0
    2.7193   58.8642   16.0828 C   0  0  0  0  0  0
    4.1934   54.4973   27.7818 N   0  0  0  0  0  0
    5.0400   53.8937   28.8169 C   0  0  0  0  0  0
    4.4604   52.5451   29.2942 C   0  0  0  0  0  0
    2.8323   52.6824   30.0837 S   0  0  0  0  0  0
    2.0538   53.6644   28.7714 C   0  0  0  0  0  0
    2.9059   54.8873   28.3756 C   0  0  0  0  0  0
    1.4181   53.9226   23.7773 H   0  0  0  0  0  0
    2.3255   54.6925   22.4814 H   0  0  0  0  0  0
    2.4362   52.9451   22.7013 H   0  0  0  0  0  0
    2.3584   54.0742   25.8942 H   0  0  0  0  0  0
    6.5569   54.6628   26.5366 H   0  0  0  0  0  0
    6.9524   54.5239   24.1367 H   0  0  0  0  0  0
    4.3741   53.5817   21.7464 H   0  0  0  0  0  0
    5.0480   53.9114   19.8873 H   0  0  0  0  0  0
    6.8295   54.1811   18.3663 H   0  0  0  0  0  0
    7.7166   55.1351   19.5146 H   0  0  0  0  0  0
    8.0665   57.3261   18.6948 H   0  0  0  0  0  0
    7.1414   59.4153   17.5425 H   0  0  0  0  0  0
    4.2853   55.4260   17.9603 H   0  0  0  0  0  0
    2.6780   55.6301   16.0661 H   0  0  0  0  0  0
    2.0679   56.0940   17.6815 H   0  0  0  0  0  0
    1.2778   56.7157   16.2182 H   0  0  0  0  0  0
    2.9417   59.6810   16.7729 H   0  0  0  0  0  0
    3.2379   59.0253   15.1385 H   0  0  0  0  0  0
    1.6423   58.8534   15.9074 H   0  0  0  0  0  0
    6.0524   53.7381   28.4434 H   0  0  0  0  0  0
    5.1670   54.5737   29.6593 H   0  0  0  0  0  0
    5.1033   52.0952   30.0463 H   0  0  0  0  0  0
    4.4099   51.8245   28.4817 H   0  0  0  0  0  0
    1.0954   53.9949   29.1709 H   0  0  0  0  0  0
    1.8239   53.0314   27.9141 H   0  0  0  0  0  0
    3.0629   55.5314   29.2459 H   0  0  0  0  0  0
    2.3538   55.5227   27.6819 H   0  0  0  0  0  0
    5.0057   59.3624   16.7491 H   0  0  0  0  0  0
  1  2  1  0  0  0
  1 28  1  0  0  0
  1 29  1  0  0  0
  1 30  1  0  0  0
  2  7  2  0  0  0
  2  3  1  0  0  0
  3  4  2  0  0  0
  3 31  1  0  0  0
  4  5  1  0  0  0
  4 22  1  0  0  0
  5  6  2  0  0  0
  5 32  1  0  0  0
  6  7  1  0  0  0
  6 33  1  0  0  0
  7  8  1  0  0  0
  8  9  1  0  0  0
  8 34  1  0  0  0
  9 10  2  0  0  0
  9 11  1  0  0  0
 11 12  1  0  0  0
 11 35  1  0  0  0
 12 13  1  0  0  0
 12 36  1  0  0  0
 12 37  1  0  0  0
 13 18  2  0  0  0
 13 14  1  0  0  0
 14 15  2  0  0  0
 14 38  1  0  0  0
 15 16  1  0  0  0
 15 39  1  0  0  0
 16 17  2  0  0  0
 16 55  1  0  0  0
 17 18  1  0  0  0
 17 19  1  0  0  0
 18 40  1  0  0  0
 19 20  1  0  0  0
 19 21  1  0  0  0
 20 41  1  0  0  0
 20 42  1  0  0  0
 20 43  1  0  0  0
 21 44  1  0  0  0
 21 45  1  0  0  0
 21 46  1  0  0  0
 22 27  1  0  0  0
 22 23  1  0  0  0
 23 24  1  0  0  0
 23 47  1  0  0  0
 23 48  1  0  0  0
 24 25  1  0  0  0
 24 49  1  0  0  0
 24 50  1  0  0  0
 25 26  1  0  0  0
 26 27  1  0  0  0
 26 51  1  0  0  0
 26 52  1  0  0  0
 27 53  1  0  0  0
 27 54  1  0  0  0
M  CHG  1  16   1
M  END
> <i_i_glide_confnum>
20

> <i_i_glide_lignum>
1332

> <i_i_glide_posenum>
146

> <i_i_glide_rotatable_bonds>
7

> <i_m_Source_File_Index>
2955

> <b_m_subgroup_collapsed>
0

> <r_i_docking_score>
-6.73626

> <r_i_glide_ecoul>
-6.80272

> <r_i_glide_eff_state_penalty>
0

> <r_i_glide_einternal>
2.26613

> <r_i_glide_emodel>
-67.3377

> <r_i_glide_energy>
-45.7617

> <r_i_glide_erotb>
0.781653

> <r_i_glide_esite>
-0.0943851

> <r_i_glide_evdw>
-38.959

> <r_i_glide_gscore>
-6.73626

> <r_i_glide_hbond>
-0.0340857

> <r_i_glide_ligand_efficiency>
-0.249491

> <r_i_glide_ligand_efficiency_ln>
-1.56809

> <r_i_glide_ligand_efficiency_sa>
-0.748474

> <r_i_glide_lipo>
-3.04123

> <r_i_glide_metal>
0

> <r_i_glide_rewards>
-1.37986

> <s_i_glide_gridfile>
wee1_glide-grid

> <s_m_Source_File>
wee1_decoys_glide_SP.sdf

> <s_m_Source_Path>
/Users/zhangxujun/Desktop

> <s_m_entry_id>
3230

> <s_m_entry_name>
wee1_decoys_glide_SP.2955

> <s_m_subgroup_title>
wee1_decoys_glide_SP

> <s_m_subgroupid>
wee1_decoys_glide_SP


$$$$
