ZINC15613361_4674
                    3D
 Schrodinger Suite 2024-2.
 43 44  0  0  1  0            999 V2000
    5.0551   54.0967   23.8377 C   0  0  0  0  0  0
    4.6937   53.6092   22.5843 C   0  0  0  0  0  0
    3.3996   53.1302   22.3809 C   0  0  0  0  0  0
    2.4413   53.2225   23.3887 C   0  0  0  0  0  0
    2.8061   53.7103   24.6388 C   0  0  0  0  0  0
    4.1318   54.1124   24.8942 C   0  0  0  0  0  0
    4.5925   54.4978   26.2849 C   0  0  0  0  0  0
    5.7635   54.8213   26.5022 O   0  0  0  0  0  0
    3.6588   54.4494   27.2537 N   0  0  0  0  0  0
    3.8557   54.6633   28.6877 C   0  0  0  0  0  0
    2.7034   55.4683   29.3460 C   0  0  0  0  0  0
    1.2697   55.2961   28.8095 C   0  0  0  0  0  0
    0.4944   54.0871   29.3456 C   0  0  0  0  0  0
    0.9538   52.7199   28.8209 C   0  0  0  0  0  0
    2.0232   52.0338   29.6805 C   0  0  0  0  0  0
    3.4614   52.1043   29.1570 C   0  0  0  0  0  0
    4.2550   53.3845   29.4477 C   0  0  0  0  0  0
    3.0226   52.2496   20.8769 S   0  0  0  0  0  0
    3.9070   51.0837   20.8773 O   0  0  0  0  0  0
    1.5667   52.1012   20.7834 O   0  0  0  0  0  0
    3.5348   53.2965   19.5856 N   0  0  0  0  0  0
    6.0798   54.4104   23.9920 H   0  0  0  0  0  0
    5.4317   53.5383   21.7982 H   0  0  0  0  0  0
    1.4355   52.8554   23.2303 H   0  0  0  0  0  0
    2.0503   53.7148   25.4097 H   0  0  0  0  0  0
    2.7189   54.2133   26.9859 H   0  0  0  0  0  0
    4.7358   55.2966   28.7986 H   0  0  0  0  0  0
    2.6924   55.3006   30.4229 H   0  0  0  0  0  0
    2.9430   56.5269   29.2479 H   0  0  0  0  0  0
    0.7068   56.1881   29.0949 H   0  0  0  0  0  0
    1.2489   55.2965   27.7196 H   0  0  0  0  0  0
    0.4591   54.1013   30.4360 H   0  0  0  0  0  0
   -0.5381   54.2001   29.0294 H   0  0  0  0  0  0
    0.0758   52.0695   28.8153 H   0  0  0  0  0  0
    1.2554   52.7786   27.7727 H   0  0  0  0  0  0
    1.9647   52.3428   30.7260 H   0  0  0  0  0  0
    1.7559   50.9768   29.6816 H   0  0  0  0  0  0
    4.0166   51.2954   29.6215 H   0  0  0  0  0  0
    3.4722   51.8939   28.0880 H   0  0  0  0  0  0
    5.2928   53.1708   29.1834 H   0  0  0  0  0  0
    4.2805   53.5747   30.5228 H   0  0  0  0  0  0
    3.9444   52.7776   18.8036 H   0  0  0  0  0  0
    2.7836   53.9263   19.2837 H   0  0  0  0  0  0
  1  6  2  0  0  0
  1  2  1  0  0  0
  1 22  1  0  0  0
  2  3  2  0  0  0
  2 23  1  0  0  0
  3  4  1  0  0  0
  3 18  1  0  0  0
  4  5  2  0  0  0
  4 24  1  0  0  0
  5  6  1  0  0  0
  5 25  1  0  0  0
  6  7  1  0  0  0
  7  8  2  0  0  0
  7  9  1  0  0  0
  9 10  1  0  0  0
  9 26  1  0  0  0
 10 17  1  0  0  0
 10 11  1  0  0  0
 10 27  1  0  0  0
 11 12  1  0  0  0
 11 28  1  0  0  0
 11 29  1  0  0  0
 12 13  1  0  0  0
 12 30  1  0  0  0
 12 31  1  0  0  0
 13 14  1  0  0  0
 13 32  1  0  0  0
 13 33  1  0  0  0
 14 15  1  0  0  0
 14 34  1  0  0  0
 14 35  1  0  0  0
 15 16  1  0  0  0
 15 36  1  0  0  0
 15 37  1  0  0  0
 16 17  1  0  0  0
 16 38  1  0  0  0
 16 39  1  0  0  0
 17 40  1  0  0  0
 17 41  1  0  0  0
 18 19  2  0  0  0
 18 20  2  0  0  0
 18 21  1  0  0  0
 21 42  1  0  0  0
 21 43  1  0  0  0
M  END
> <i_i_glide_confnum>
26

> <i_i_glide_lignum>
4675

> <i_i_glide_posenum>
108

> <i_i_glide_rotatable_bonds>
4

> <i_m_Source_File_Index>
1789

> <b_m_subgroup_collapsed>
0

> <r_i_docking_score>
-5.46844

> <r_i_glide_ecoul>
-2.40731

> <r_i_glide_eff_state_penalty>
0

> <r_i_glide_einternal>
1.32111

> <r_i_glide_emodel>
-48.4219

> <r_i_glide_energy>
-36.8419

> <r_i_glide_erotb>
0.576935

> <r_i_glide_esite>
-0.0626568

> <r_i_glide_evdw>
-34.4346

> <r_i_glide_gscore>
-5.46844

> <r_i_glide_hbond>
-0.233009

> <r_i_glide_ligand_efficiency>
-0.260402

> <r_i_glide_ligand_efficiency_ln>
-1.35206

> <r_i_glide_ligand_efficiency_sa>
-0.718429

> <r_i_glide_lipo>
-2.76335

> <r_i_glide_metal>
0

> <r_i_glide_rewards>
-0.903534

> <s_i_glide_gridfile>
wee1_glide-grid

> <s_m_Source_File>
wee1_decoys_glide_SP.sdf

> <s_m_Source_Path>
/Users/zhangxujun/Desktop

> <s_m_entry_id>
2064

> <s_m_entry_name>
wee1_decoys_glide_SP.1789

> <s_m_subgroup_title>
wee1_decoys_glide_SP

> <s_m_subgroupid>
wee1_decoys_glide_SP


$$$$
