ZINC01343007_3559
                    3D
 Schrodinger Suite 2024-2.
 42 45  0  0  1  0            999 V2000
   -2.7409   51.1521   28.3488 C   0  0  0  0  0  0
   -1.3134   51.6669   28.4383 C   0  0  0  0  0  0
   -0.6933   51.8200   29.6777 C   0  0  0  0  0  0
    0.5980   52.3384   29.7786 C   0  0  0  0  0  0
    1.3042   52.7140   28.5974 C   0  0  0  0  0  0
    2.6212   53.2574   28.5842 C   0  0  0  0  0  0
    3.2486   53.6251   27.3823 C   0  0  0  0  0  0
    4.5363   54.1701   27.0939 C   0  0  0  0  0  0
    4.7649   54.3441   25.7247 C   0  0  0  0  0  0
    3.3184   53.9904   24.7725 S   0  0  0  0  0  0
    2.4899   53.4272   26.2032 C   0  0  0  0  0  0
    1.2723   52.8966   26.1703 N   0  0  0  0  0  0
    0.6670   52.5454   27.3318 C   0  0  0  0  0  0
   -0.6413   52.0183   27.2705 C   0  0  0  0  0  0
    5.9473   54.8682   25.0689 C   0  0  0  0  0  0
    6.8654   55.4008   25.6990 O   0  0  0  0  0  0
    6.0013   54.6522   23.7423 N   0  0  0  0  0  0
    7.0735   55.0806   22.8516 C   0  0  0  0  0  0
    6.5939   55.2671   21.4239 C   0  0  0  0  0  0
    7.1100   55.9317   20.3195 C   0  0  0  0  0  0
    6.2314   55.7088   19.2564 C   0  0  0  0  0  0
    5.2245   54.8969   19.7487 C   0  0  0  0  0  0
    5.4387   54.6410   21.0635 O   0  0  0  0  0  0
    5.4514   54.4434   28.0789 N   0  0  0  0  0  0
    1.2370   52.5107   31.1472 C   0  0  0  0  0  0
   -3.3053   51.7231   27.6127 H   0  0  0  0  0  0
   -2.7674   50.1025   28.0467 H   0  0  0  0  0  0
   -3.2665   51.2532   29.2969 H   0  0  0  0  0  0
   -1.2276   51.5351   30.5760 H   0  0  0  0  0  0
    3.1406   53.3921   29.5211 H   0  0  0  0  0  0
   -1.1219   51.8972   26.3101 H   0  0  0  0  0  0
    5.1957   54.2495   23.2895 H   0  0  0  0  0  0
    7.8467   54.3102   22.8796 H   0  0  0  0  0  0
    7.5036   56.0141   23.2164 H   0  0  0  0  0  0
    8.0320   56.4953   20.2803 H   0  0  0  0  0  0
    6.3305   56.0793   18.2445 H   0  0  0  0  0  0
    4.3357   54.4575   19.3148 H   0  0  0  0  0  0
    5.2734   54.2591   29.0538 H   0  0  0  0  0  0
    6.3478   54.8583   27.8533 H   0  0  0  0  0  0
    0.5961   52.1423   31.9496 H   0  0  0  0  0  0
    2.1844   51.9751   31.2071 H   0  0  0  0  0  0
    1.4266   53.5683   31.3261 H   0  0  0  0  0  0
  1  2  1  0  0  0
  1 26  1  0  0  0
  1 27  1  0  0  0
  1 28  1  0  0  0
  2 14  2  0  0  0
  2  3  1  0  0  0
  3  4  2  0  0  0
  3 29  1  0  0  0
  4  5  1  0  0  0
  4 25  1  0  0  0
  5 13  2  0  0  0
  5  6  1  0  0  0
  6  7  2  0  0  0
  6 30  1  0  0  0
  7 11  1  0  0  0
  7  8  1  0  0  0
  8  9  2  0  0  0
  8 24  1  0  0  0
  9 10  1  0  0  0
  9 15  1  0  0  0
 10 11  1  0  0  0
 11 12  2  0  0  0
 12 13  1  0  0  0
 13 14  1  0  0  0
 14 31  1  0  0  0
 15 16  2  0  0  0
 15 17  1  0  0  0
 17 18  1  0  0  0
 17 32  1  0  0  0
 18 19  1  0  0  0
 18 33  1  0  0  0
 18 34  1  0  0  0
 19 23  1  0  0  0
 19 20  2  0  0  0
 20 21  1  0  0  0
 20 35  1  0  0  0
 21 22  2  0  0  0
 21 36  1  0  0  0
 22 23  1  0  0  0
 22 37  1  0  0  0
 24 38  1  0  0  0
 24 39  1  0  0  0
 25 40  1  0  0  0
 25 41  1  0  0  0
 25 42  1  0  0  0
M  END
> <i_i_glide_confnum>
5

> <i_i_glide_lignum>
3560

> <i_i_glide_posenum>
24

> <i_i_glide_rotatable_bonds>
4

> <i_m_Source_File_Index>
1973

> <b_m_subgroup_collapsed>
0

> <r_i_docking_score>
-6.21035

> <r_i_glide_ecoul>
-4.79208

> <r_i_glide_eff_state_penalty>
0

> <r_i_glide_einternal>
6.06928

> <r_i_glide_emodel>
-60.244

> <r_i_glide_energy>
-46.3408

> <r_i_glide_erotb>
0.463311

> <r_i_glide_esite>
0

> <r_i_glide_evdw>
-41.5487

> <r_i_glide_gscore>
-6.21035

> <r_i_glide_hbond>
-0.32

> <r_i_glide_ligand_efficiency>
-0.248414

> <r_i_glide_ligand_efficiency_ln>
-1.47204

> <r_i_glide_ligand_efficiency_sa>
-0.726367

> <r_i_glide_lipo>
-2.0529

> <r_i_glide_metal>
0

> <r_i_glide_rewards>
-1.50452

> <s_i_glide_gridfile>
wee1_glide-grid

> <s_m_Source_File>
wee1_decoys_glide_SP.sdf

> <s_m_Source_Path>
/Users/zhangxujun/Desktop

> <s_m_entry_id>
2248

> <s_m_entry_name>
wee1_decoys_glide_SP.1973

> <s_m_subgroup_title>
wee1_decoys_glide_SP

> <s_m_subgroupid>
wee1_decoys_glide_SP


$$$$
