ZINC21450717_2047
                    3D
 Schrodinger Suite 2024-2.
 64 67  0  0  1  0            999 V2000
   -1.8872   51.3217   28.3663 C   0  0  0  0  0  0
   -0.4980   51.9443   28.3313 C   0  0  0  0  0  0
    0.2061   52.1076   29.5282 C   0  0  0  0  0  0
    1.4953   52.6381   29.5216 C   0  0  0  0  0  0
    2.0960   53.0218   28.3139 C   0  0  0  0  0  0
    1.3782   52.8836   27.1211 C   0  0  0  0  0  0
    0.0919   52.3345   27.1175 C   0  0  0  0  0  0
   -0.6391   52.1667   25.7924 C   0  0  0  0  0  0
    3.4142   53.5123   28.2570 N   0  0  0  0  0  0
    3.7811   54.7434   27.5597 C   0  0  0  0  0  0
    5.3070   54.7476   27.4427 C   0  0  1  0  0  0
    5.7366   55.6966   27.7545 H   0  0  0  0  0  0
    5.7359   53.6739   28.4357 C   0  0  0  0  0  0
    4.4714   52.9359   28.8843 C   0  0  0  0  0  0
    4.4595   51.9753   29.6540 O   0  0  0  0  0  0
    5.8813   54.5192   26.0209 C   0  0  0  0  0  0
    7.0948   54.6472   25.8598 O   0  0  0  0  0  0
    5.0081   54.2376   25.0310 N   0  0  0  0  0  0
    5.1803   54.2622   23.6359 C   0  0  0  0  0  0
    4.0889   53.8176   22.8838 C   0  0  0  0  0  0
    4.1051   53.9059   21.4945 C   0  0  0  0  0  0
    5.2158   54.4511   20.8501 C   0  0  0  0  0  0
    6.3122   54.8967   21.5928 C   0  0  0  0  0  0
    6.3045   54.7899   22.9819 C   0  0  0  0  0  0
    5.2465   54.5932   19.0639 S   0  0  0  0  0  0
    3.9040   54.2985   18.5553 O   0  0  0  0  0  0
    5.8993   55.8741   18.7685 O   0  0  0  0  0  0
    6.3067   53.2967   18.5310 N   0  0  0  0  0  0
    7.1212   53.5330   17.3193 C   0  0  0  0  0  0
    8.4836   54.0850   17.8037 C   0  0  0  0  0  0
    9.4175   54.3277   16.6006 C   0  0  0  0  0  0
    9.6148   53.0338   15.7757 C   0  0  0  0  0  0
    8.2771   52.3522   15.4035 C   0  0  0  0  0  0
    7.3736   52.1712   16.6401 C   0  0  0  0  0  0
   -2.1379   50.9179   29.3493 H   0  0  0  0  0  0
   -2.6433   52.0484   28.0665 H   0  0  0  0  0  0
   -1.9431   50.4968   27.6571 H   0  0  0  0  0  0
   -0.2420   51.8093   30.4675 H   0  0  0  0  0  0
    2.0267   52.7379   30.4560 H   0  0  0  0  0  0
    1.8365   53.1657   26.1849 H   0  0  0  0  0  0
   -0.0871   52.5952   24.9562 H   0  0  0  0  0  0
   -1.6107   52.6589   25.8335 H   0  0  0  0  0  0
   -0.8122   51.1111   25.5867 H   0  0  0  0  0  0
    3.2382   54.9449   26.6374 H   0  0  0  0  0  0
    3.4719   55.5593   28.2153 H   0  0  0  0  0  0
    6.2547   54.1222   29.2811 H   0  0  0  0  0  0
    6.4254   52.9397   28.0144 H   0  0  0  0  0  0
    4.0801   53.9791   25.3274 H   0  0  0  0  0  0
    3.2097   53.4207   23.3702 H   0  0  0  0  0  0
    3.2473   53.5717   20.9260 H   0  0  0  0  0  0
    7.1744   55.3151   21.0915 H   0  0  0  0  0  0
    7.1605   55.1618   23.5243 H   0  0  0  0  0  0
    5.8174   52.3934   18.4615 H   0  0  0  0  0  0
    6.6969   54.3064   16.6747 H   0  0  0  0  0  0
    8.3559   55.0089   18.3703 H   0  0  0  0  0  0
    8.9723   53.3833   18.4795 H   0  0  0  0  0  0
    9.0017   55.1105   15.9630 H   0  0  0  0  0  0
   10.3836   54.6972   16.9484 H   0  0  0  0  0  0
   10.1891   53.2479   14.8732 H   0  0  0  0  0  0
   10.2177   52.3339   16.3578 H   0  0  0  0  0  0
    7.7576   52.9513   14.6521 H   0  0  0  0  0  0
    8.4703   51.3849   14.9398 H   0  0  0  0  0  0
    7.8464   51.4748   17.3357 H   0  0  0  0  0  0
    6.4291   51.7088   16.3490 H   0  0  0  0  0  0
  1  2  1  0  0  0
  1 35  1  0  0  0
  1 36  1  0  0  0
  1 37  1  0  0  0
  2  7  2  0  0  0
  2  3  1  0  0  0
  3  4  2  0  0  0
  3 38  1  0  0  0
  4  5  1  0  0  0
  4 39  1  0  0  0
  5  6  2  0  0  0
  5  9  1  0  0  0
  6  7  1  0  0  0
  6 40  1  0  0  0
  7  8  1  0  0  0
  8 41  1  0  0  0
  8 42  1  0  0  0
  8 43  1  0  0  0
  9 14  1  0  0  0
  9 10  1  0  0  0
 10 11  1  0  0  0
 10 44  1  0  0  0
 10 45  1  0  0  0
 11 12  1  0  0  0
 11 13  1  0  0  0
 11 16  1  0  0  0
 13 14  1  0  0  0
 13 46  1  0  0  0
 13 47  1  0  0  0
 14 15  2  0  0  0
 16 17  2  0  0  0
 16 18  1  0  0  0
 18 19  1  0  0  0
 18 48  1  0  0  0
 19 24  2  0  0  0
 19 20  1  0  0  0
 20 21  2  0  0  0
 20 49  1  0  0  0
 21 22  1  0  0  0
 21 50  1  0  0  0
 22 23  2  0  0  0
 22 25  1  0  0  0
 23 24  1  0  0  0
 23 51  1  0  0  0
 24 52  1  0  0  0
 25 26  2  0  0  0
 25 27  2  0  0  0
 25 28  1  0  0  0
 28 29  1  0  0  0
 28 53  1  0  0  0
 29 34  1  0  0  0
 29 30  1  0  0  0
 29 54  1  0  0  0
 30 31  1  0  0  0
 30 55  1  0  0  0
 30 56  1  0  0  0
 31 32  1  0  0  0
 31 57  1  0  0  0
 31 58  1  0  0  0
 32 33  1  0  0  0
 32 59  1  0  0  0
 32 60  1  0  0  0
 33 34  1  0  0  0
 33 61  1  0  0  0
 33 62  1  0  0  0
 34 63  1  0  0  0
 34 64  1  0  0  0
M  END
> <i_i_glide_confnum>
198

> <i_i_glide_lignum>
2048

> <i_i_glide_posenum>
120

> <i_i_glide_rotatable_bonds>
7

> <i_m_Source_File_Index>
4487

> <b_m_subgroup_collapsed>
0

> <r_i_docking_score>
-5.71727

> <r_i_glide_ecoul>
-6.84682

> <r_i_glide_eff_state_penalty>
0

> <r_i_glide_einternal>
14.059

> <r_i_glide_emodel>
-58.9101

> <r_i_glide_energy>
-52.9802

> <r_i_glide_erotb>
0.641166

> <r_i_glide_esite>
-0.0727341

> <r_i_glide_evdw>
-46.1334

> <r_i_glide_gscore>
-5.71727

> <r_i_glide_hbond>
-0.440992

> <r_i_glide_ligand_efficiency>
-0.173251

> <r_i_glide_ligand_efficiency_ln>
-1.27149

> <r_i_glide_ligand_efficiency_sa>
-0.555707

> <r_i_glide_lipo>
-2.62925

> <r_i_glide_metal>
0

> <r_i_glide_rewards>
0.118237

> <s_i_glide_gridfile>
wee1_glide-grid

> <s_m_Source_File>
wee1_decoys_glide_SP.sdf

> <s_m_Source_Path>
/Users/zhangxujun/Desktop

> <s_m_entry_id>
4762

> <s_m_entry_name>
wee1_decoys_glide_SP.4487

> <s_m_subgroup_title>
wee1_decoys_glide_SP

> <s_m_subgroupid>
wee1_decoys_glide_SP


$$$$
