ZINC66066905_2576
                    3D
 Schrodinger Suite 2024-2.
 44 45  0  0  1  0            999 V2000
    5.9579   54.5801   28.3030 C   0  0  0  0  0  0
    4.8683   54.1432   27.2974 C   0  0  2  0  0  0
    4.8361   53.0504   27.3291 H   0  0  0  0  0  0
    5.2044   54.4927   25.8295 C   0  0  0  0  0  0
    6.3042   55.2963   25.4932 C   0  0  0  0  0  0
    6.7042   55.4444   24.1674 C   0  0  0  0  0  0
    6.0176   54.7932   23.1472 C   0  0  0  0  0  0
    4.8788   54.0461   23.4469 C   0  0  0  0  0  0
    4.4653   53.9178   24.7826 C   0  0  0  0  0  0
    4.0145   53.1867   22.1260 S   0  0  0  0  0  0
    4.8974   52.1038   21.6817 O   0  0  0  0  0  0
    2.6513   52.9249   22.5981 O   0  0  0  0  0  0
    3.9045   54.3015   20.8000 N   0  0  0  0  0  0
    3.5446   54.6401   27.6883 N   0  0  0  0  0  0
    2.9337   54.4821   28.8824 C   0  0  0  0  0  0
    3.4560   53.9275   29.8514 O   0  0  0  0  0  0
    1.5060   55.0399   29.0132 C   0  0  2  0  0  0
    1.2114   55.5216   28.0814 H   0  0  0  0  0  0
    1.4314   56.1236   30.1115 C   0  0  0  0  0  0
    0.3053   53.6992   29.3200 S   0  0  0  0  0  0
    0.0796   52.6894   27.8792 C   0  0  0  0  0  0
    0.8008   52.8964   26.6991 C   0  0  0  0  0  0
    0.5647   52.0964   25.5850 C   0  0  0  0  0  0
   -0.3970   51.0926   25.6511 C   0  0  0  0  0  0
   -1.1234   50.8907   26.8220 C   0  0  0  0  0  0
   -0.8785   51.6812   27.9395 C   0  0  0  0  0  0
   -0.6884   50.0941   24.2739 Cl  0  0  0  0  0  0
    6.9618   54.3102   27.9748 H   0  0  0  0  0  0
    5.9045   55.6588   28.4527 H   0  0  0  0  0  0
    5.8341   54.1194   29.2813 H   0  0  0  0  0  0
    6.8791   55.7979   26.2542 H   0  0  0  0  0  0
    7.5546   56.0641   23.9274 H   0  0  0  0  0  0
    6.3551   54.8919   22.1254 H   0  0  0  0  0  0
    3.6139   53.2939   25.0146 H   0  0  0  0  0  0
    4.4233   53.9925   19.9754 H   0  0  0  0  0  0
    2.9412   54.5914   20.5763 H   0  0  0  0  0  0
    3.0170   55.0692   26.9444 H   0  0  0  0  0  0
    2.2139   56.8772   30.0040 H   0  0  0  0  0  0
    0.4819   56.6532   30.0819 H   0  0  0  0  0  0
    1.5053   55.6962   31.1105 H   0  0  0  0  0  0
    1.5186   53.6872   26.6050 H   0  0  0  0  0  0
    1.1193   52.2575   24.6720 H   0  0  0  0  0  0
   -1.8558   50.0975   26.8807 H   0  0  0  0  0  0
   -1.4332   51.5012   28.8495 H   0  0  0  0  0  0
  1  2  1  0  0  0
  1 28  1  0  0  0
  1 29  1  0  0  0
  1 30  1  0  0  0
  2  3  1  0  0  0
  2  4  1  0  0  0
  2 14  1  0  0  0
  4  9  2  0  0  0
  4  5  1  0  0  0
  5  6  2  0  0  0
  5 31  1  0  0  0
  6  7  1  0  0  0
  6 32  1  0  0  0
  7  8  2  0  0  0
  7 33  1  0  0  0
  8  9  1  0  0  0
  8 10  1  0  0  0
  9 34  1  0  0  0
 10 11  2  0  0  0
 10 12  2  0  0  0
 10 13  1  0  0  0
 13 35  1  0  0  0
 13 36  1  0  0  0
 14 15  1  0  0  0
 14 37  1  0  0  0
 15 16  2  0  0  0
 15 17  1  0  0  0
 17 18  1  0  0  0
 17 19  1  0  0  0
 17 20  1  0  0  0
 19 38  1  0  0  0
 19 39  1  0  0  0
 19 40  1  0  0  0
 20 21  1  0  0  0
 21 26  2  0  0  0
 21 22  1  0  0  0
 22 23  2  0  0  0
 22 41  1  0  0  0
 23 24  1  0  0  0
 23 42  1  0  0  0
 24 25  2  0  0  0
 24 27  1  0  0  0
 25 26  1  0  0  0
 25 43  1  0  0  0
 26 44  1  0  0  0
M  END
> <i_i_glide_confnum>
38

> <i_i_glide_lignum>
2577

> <i_i_glide_posenum>
213

> <i_i_glide_rotatable_bonds>
7

> <i_m_Source_File_Index>
5815

> <b_m_subgroup_collapsed>
0

> <r_i_docking_score>
-6.87482

> <r_i_glide_ecoul>
-7.90292

> <r_i_glide_eff_state_penalty>
0

> <r_i_glide_einternal>
4.49546

> <r_i_glide_emodel>
-61.9602

> <r_i_glide_energy>
-46.0541

> <r_i_glide_erotb>
0.615463

> <r_i_glide_esite>
-0.0166599

> <r_i_glide_evdw>
-38.1512

> <r_i_glide_gscore>
-6.87482

> <r_i_glide_hbond>
-0.581139

> <r_i_glide_ligand_efficiency>
-0.274993

> <r_i_glide_ligand_efficiency_ln>
-1.62954

> <r_i_glide_ligand_efficiency_sa>
-0.804084

> <r_i_glide_lipo>
-2.98729

> <r_i_glide_metal>
0

> <r_i_glide_rewards>
-0.812199

> <s_i_glide_gridfile>
wee1_glide-grid

> <s_m_Source_File>
wee1_decoys_glide_SP.sdf

> <s_m_Source_Path>
/Users/zhangxujun/Desktop

> <s_m_entry_id>
6090

> <s_m_entry_name>
wee1_decoys_glide_SP.5815

> <s_m_subgroup_title>
wee1_decoys_glide_SP

> <s_m_subgroupid>
wee1_decoys_glide_SP


$$$$
