ZINC67610236_1515
                    3D
 Schrodinger Suite 2024-2.
 46 48  0  0  1  0            999 V2000
    6.2470   54.8003   23.2912 C   0  0  0  0  0  0
    6.0077   54.6552   24.7713 C   0  0  0  0  0  0
    4.8962   54.5995   25.5802 C   0  0  0  0  0  0
    5.3894   54.4370   26.8786 C   0  0  0  0  0  0
    6.7045   54.4180   26.8822 N   0  0  0  0  0  0
    7.1044   54.5555   25.5546 O   0  0  0  0  0  0
    4.6486   54.3220   28.1961 C   0  0  0  0  0  0
    3.2975   53.7814   28.0338 N   0  0  0  0  0  0
    2.6757   53.0151   28.9483 C   0  0  0  0  0  0
    3.0792   52.9826   30.1162 O   0  0  0  0  0  0
    1.5344   52.3928   28.5340 N   0  0  0  0  0  0
    1.2149   52.1300   27.1063 C   0  0  0  0  0  0
   -0.3141   52.2697   26.9096 C   0  0  0  0  0  0
   -1.0594   51.3042   27.8486 C   0  0  0  0  0  0
   -0.6788   51.6271   29.3130 C   0  0  0  0  0  0
    0.8479   51.5116   29.4991 C   0  0  0  0  0  0
   -2.6009   51.3370   27.6801 C   0  0  0  0  0  0
   -3.1116   52.0709   26.8296 O   0  0  0  0  0  0
   -3.2954   50.4967   28.4757 N   0  0  0  0  0  0
   -4.6677   50.3887   28.6424 C   0  0  0  0  0  0
   -5.1621   49.4899   29.4556 N   0  0  0  0  0  0
   -6.4803   49.5453   29.5293 C   0  0  0  0  0  0
   -7.0816   50.5241   28.7415 C   0  0  0  0  0  0
   -5.8607   51.4051   27.8748 S   0  0  0  0  0  0
   -7.1473   48.5510   30.4511 C   0  0  0  0  0  0
    5.3144   54.8767   22.7323 H   0  0  0  0  0  0
    6.8361   55.6901   23.0698 H   0  0  0  0  0  0
    6.7949   53.9461   22.8928 H   0  0  0  0  0  0
    3.8657   54.6608   25.2678 H   0  0  0  0  0  0
    4.5456   55.2969   28.6608 H   0  0  0  0  0  0
    5.2325   53.7172   28.8947 H   0  0  0  0  0  0
    2.8723   53.8884   27.1259 H   0  0  0  0  0  0
    1.5068   51.1048   26.8816 H   0  0  0  0  0  0
    1.7045   52.8164   26.4158 H   0  0  0  0  0  0
   -0.5102   52.0302   25.8632 H   0  0  0  0  0  0
   -0.5840   53.2967   27.1388 H   0  0  0  0  0  0
   -0.7887   50.2681   27.6484 H   0  0  0  0  0  0
   -0.9402   52.6493   29.5928 H   0  0  0  0  0  0
   -1.1114   50.9132   30.0179 H   0  0  0  0  0  0
    1.1730   50.4971   29.2789 H   0  0  0  0  0  0
    1.0687   51.7608   30.5391 H   0  0  0  0  0  0
   -2.7406   49.8086   28.9792 H   0  0  0  0  0  0
   -8.1304   50.7567   28.6335 H   0  0  0  0  0  0
   -8.2309   48.6726   30.4666 H   0  0  0  0  0  0
   -6.8020   48.6583   31.4802 H   0  0  0  0  0  0
   -6.9485   47.5219   30.1497 H   0  0  0  0  0  0
  1  2  1  0  0  0
  1 26  1  0  0  0
  1 27  1  0  0  0
  1 28  1  0  0  0
  2  6  1  0  0  0
  2  3  2  0  0  0
  3  4  1  0  0  0
  3 29  1  0  0  0
  4  5  2  0  0  0
  4  7  1  0  0  0
  5  6  1  0  0  0
  7  8  1  0  0  0
  7 30  1  0  0  0
  7 31  1  0  0  0
  8  9  1  0  0  0
  8 32  1  0  0  0
  9 10  2  0  0  0
  9 11  1  0  0  0
 11 16  1  0  0  0
 11 12  1  0  0  0
 12 13  1  0  0  0
 12 33  1  0  0  0
 12 34  1  0  0  0
 13 14  1  0  0  0
 13 35  1  0  0  0
 13 36  1  0  0  0
 14 15  1  0  0  0
 14 17  1  0  0  0
 14 37  1  0  0  0
 15 16  1  0  0  0
 15 38  1  0  0  0
 15 39  1  0  0  0
 16 40  1  0  0  0
 16 41  1  0  0  0
 17 18  2  0  0  0
 17 19  1  0  0  0
 19 20  1  0  0  0
 19 42  1  0  0  0
 20 24  1  0  0  0
 20 21  2  0  0  0
 21 22  1  0  0  0
 22 23  2  0  0  0
 22 25  1  0  0  0
 23 24  1  0  0  0
 23 43  1  0  0  0
 25 44  1  0  0  0
 25 45  1  0  0  0
 25 46  1  0  0  0
M  END
> <i_i_glide_confnum>
221

> <i_i_glide_lignum>
1516

> <i_i_glide_posenum>
256

> <i_i_glide_rotatable_bonds>
7

> <i_m_Source_File_Index>
4384

> <b_m_subgroup_collapsed>
0

> <r_i_docking_score>
-5.3072

> <r_i_glide_ecoul>
-7.21128

> <r_i_glide_eff_state_penalty>
0

> <r_i_glide_einternal>
8.11686

> <r_i_glide_emodel>
-49.6183

> <r_i_glide_energy>
-40.3446

> <r_i_glide_erotb>
1.01823

> <r_i_glide_esite>
-0.178298

> <r_i_glide_evdw>
-33.1333

> <r_i_glide_gscore>
-5.3072

> <r_i_glide_hbond>
-0.306673

> <r_i_glide_ligand_efficiency>
-0.212288

> <r_i_glide_ligand_efficiency_ln>
-1.25797

> <r_i_glide_ligand_efficiency_sa>
-0.620734

> <r_i_glide_lipo>
-1.60155

> <r_i_glide_metal>
0

> <r_i_glide_rewards>
-1.50056

> <s_i_glide_gridfile>
wee1_glide-grid

> <s_m_Source_File>
wee1_decoys_glide_SP.sdf

> <s_m_Source_Path>
/Users/zhangxujun/Desktop

> <s_m_entry_id>
4659

> <s_m_entry_name>
wee1_decoys_glide_SP.4384

> <s_m_subgroup_title>
wee1_decoys_glide_SP

> <s_m_subgroupid>
wee1_decoys_glide_SP


$$$$
