ZINC39596545_625
                    3D
 Schrodinger Suite 2024-2.
 69 72  0  0  1  0            999 V2000
    6.3247   58.1342   16.1509 C   0  0  0  0  0  0
    6.0961   56.9471   17.0696 C   0  0  0  0  0  0
    6.0826   55.6476   16.5576 C   0  0  0  0  0  0
    5.8642   54.5669   17.4099 C   0  0  0  0  0  0
    5.6656   54.7823   18.7774 C   0  0  0  0  0  0
    5.6840   56.0836   19.2837 C   0  0  0  0  0  0
    5.9033   57.1639   18.4336 C   0  0  0  0  0  0
    5.3937   53.6034   19.7107 C   0  0  0  0  0  0
    3.9152   53.1594   19.7032 C   0  0  0  0  0  0
    3.3764   52.9366   18.6173 O   0  0  0  0  0  0
    3.2429   53.0046   20.8715 N   0  0  0  0  0  0
    3.7930   53.1796   22.2202 C   0  0  0  0  0  0
    2.6687   52.6695   23.1487 C   0  0  2  0  0  0
    3.1003   52.0970   23.9436 H   0  0  0  0  0  0
    1.7869   51.7443   22.2626 C   0  0  0  0  0  0
    1.8790   52.4664   20.8989 C   0  0  0  0  0  0
    0.3414   51.4515   22.7500 C   0  0  0  0  0  0
   -0.4349   50.6147   21.7106 C   0  0  0  0  0  0
    0.3084   49.2755   21.4925 N   0  3  0  0  0  0
    1.8125   49.4106   21.1568 C   0  0  0  0  0  0
    2.4569   50.3344   22.2078 C   0  0  0  0  0  0
    1.9454   53.8307   23.8685 C   0  0  0  0  0  0
    1.1051   54.4965   23.2817 O   0  0  0  0  0  0
    2.1585   54.0956   25.1645 N   0  0  0  0  0  0
    3.0382   53.4832   26.1632 C   0  0  0  0  0  0
    2.2684   52.6481   27.2260 C   0  0  1  0  0  0
    1.9049   51.7503   26.7228 H   0  0  0  0  0  0
    3.1834   52.2237   28.4058 C   0  0  0  0  0  0
    1.0360   53.2368   27.6683 O   0  0  0  0  0  0
    1.0867   54.2010   28.6430 C   0  0  0  0  0  0
    1.8041   55.3828   28.4601 C   0  0  0  0  0  0
    1.8971   56.3136   29.4704 C   0  0  0  0  0  0
    1.2825   56.0475   30.6753 C   0  0  0  0  0  0
    0.5399   54.8854   30.8815 C   0  0  0  0  0  0
    0.4311   53.9598   29.8492 C   0  0  0  0  0  0
    1.5044   56.8967   31.6818 F   0  0  0  0  0  0
    5.3918   58.6770   15.9871 H   0  0  0  0  0  0
    7.0328   58.8309   16.6030 H   0  0  0  0  0  0
    6.7388   57.8320   15.1878 H   0  0  0  0  0  0
    6.2311   55.4719   15.5024 H   0  0  0  0  0  0
    5.8372   53.5633   17.0089 H   0  0  0  0  0  0
    5.5128   56.2598   20.3357 H   0  0  0  0  0  0
    5.9058   58.1697   18.8289 H   0  0  0  0  0  0
    5.9824   52.7475   19.3759 H   0  0  0  0  0  0
    5.7424   53.8525   20.7117 H   0  0  0  0  0  0
    4.6574   52.5268   22.3512 H   0  0  0  0  0  0
    4.1002   54.2000   22.4592 H   0  0  0  0  0  0
    1.1742   53.2967   20.9277 H   0  0  0  0  0  0
    1.6047   51.8436   20.0487 H   0  0  0  0  0  0
    0.3390   50.9829   23.7363 H   0  0  0  0  0  0
   -0.2133   52.3813   22.8736 H   0  0  0  0  0  0
   -1.4381   50.3556   22.0527 H   0  0  0  0  0  0
   -0.5088   51.0994   20.7355 H   0  0  0  0  0  0
    0.2254   48.7367   22.3438 H   0  0  0  0  0  0
    2.2360   48.4053   21.1865 H   0  0  0  0  0  0
    1.8910   49.7774   20.1321 H   0  0  0  0  0  0
    3.5021   50.4412   21.9128 H   0  0  0  0  0  0
    2.4883   49.8605   23.1915 H   0  0  0  0  0  0
    1.5903   54.8520   25.5154 H   0  0  0  0  0  0
    3.8399   52.8967   25.7228 H   0  0  0  0  0  0
    3.5969   54.2817   26.6466 H   0  0  0  0  0  0
    4.2149   52.0967   28.0818 H   0  0  0  0  0  0
    3.2383   52.9702   29.1967 H   0  0  0  0  0  0
    2.8361   51.2964   28.8624 H   0  0  0  0  0  0
    2.3050   55.6061   27.5424 H   0  0  0  0  0  0
    2.4652   57.2206   29.3390 H   0  0  0  0  0  0
    0.0833   54.6896   31.8408 H   0  0  0  0  0  0
   -0.1199   53.0416   29.9956 H   0  0  0  0  0  0
   -0.1542   48.7420   20.7682 H   0  0  0  0  0  0
  1  2  1  0  0  0
  1 37  1  0  0  0
  1 38  1  0  0  0
  1 39  1  0  0  0
  2  7  2  0  0  0
  2  3  1  0  0  0
  3  4  2  0  0  0
  3 40  1  0  0  0
  4  5  1  0  0  0
  4 41  1  0  0  0
  5  6  2  0  0  0
  5  8  1  0  0  0
  6  7  1  0  0  0
  6 42  1  0  0  0
  7 43  1  0  0  0
  8  9  1  0  0  0
  8 44  1  0  0  0
  8 45  1  0  0  0
  9 10  2  0  0  0
  9 11  1  0  0  0
 11 16  1  0  0  0
 11 12  1  0  0  0
 12 13  1  0  0  0
 12 46  1  0  0  0
 12 47  1  0  0  0
 13 14  1  0  0  0
 13 15  1  0  0  0
 13 22  1  0  0  0
 15 21  1  0  0  0
 15 16  1  0  0  0
 15 17  1  0  0  0
 16 48  1  0  0  0
 16 49  1  0  0  0
 17 18  1  0  0  0
 17 50  1  0  0  0
 17 51  1  0  0  0
 18 19  1  0  0  0
 18 52  1  0  0  0
 18 53  1  0  0  0
 19 20  1  0  0  0
 19 54  1  0  0  0
 19 69  1  0  0  0
 20 21  1  0  0  0
 20 55  1  0  0  0
 20 56  1  0  0  0
 21 57  1  0  0  0
 21 58  1  0  0  0
 22 23  2  0  0  0
 22 24  1  0  0  0
 24 25  1  0  0  0
 24 59  1  0  0  0
 25 26  1  0  0  0
 25 60  1  0  0  0
 25 61  1  0  0  0
 26 27  1  0  0  0
 26 28  1  0  0  0
 26 29  1  0  0  0
 28 62  1  0  0  0
 28 63  1  0  0  0
 28 64  1  0  0  0
 29 30  1  0  0  0
 30 35  2  0  0  0
 30 31  1  0  0  0
 31 32  2  0  0  0
 31 65  1  0  0  0
 32 33  1  0  0  0
 32 66  1  0  0  0
 33 34  2  0  0  0
 33 36  1  0  0  0
 34 35  1  0  0  0
 34 67  1  0  0  0
 35 68  1  0  0  0
M  CHG  1  19   1
M  END
> <i_i_glide_confnum>
147

> <i_i_glide_lignum>
626

> <i_i_glide_posenum>
148

> <i_i_glide_rotatable_bonds>
9

> <i_m_Source_File_Index>
2330

> <b_m_subgroup_collapsed>
0

> <r_i_docking_score>
-1.41295

> <r_i_glide_ecoul>
2.12246

> <r_i_glide_eff_state_penalty>
0

> <r_i_glide_einternal>
19.434

> <r_i_glide_emodel>
-13.0372

> <r_i_glide_energy>
-26.2718

> <r_i_glide_erotb>
0.735656

> <r_i_glide_esite>
-0.0208746

> <r_i_glide_evdw>
-28.3943

> <r_i_glide_gscore>
-1.41295

> <r_i_glide_hbond>
0

> <r_i_glide_ligand_efficiency>
-0.0415575

> <r_i_glide_ligand_efficiency_ln>
-0.312161

> <r_i_glide_ligand_efficiency_sa>
-0.13463

> <r_i_glide_lipo>
-2.72716

> <r_i_glide_metal>
0

> <r_i_glide_rewards>
1.70077

> <s_i_glide_gridfile>
wee1_glide-grid

> <s_m_Source_File>
wee1_decoys_glide_SP.sdf

> <s_m_Source_Path>
/Users/zhangxujun/Desktop

> <s_m_entry_id>
2605

> <s_m_entry_name>
wee1_decoys_glide_SP.2330

> <s_m_subgroup_title>
wee1_decoys_glide_SP

> <s_m_subgroupid>
wee1_decoys_glide_SP


$$$$
