ZINC18110115_2074
                    3D
 Schrodinger Suite 2024-2.
 59 62  0  0  1  0            999 V2000
   10.9471   52.9996   16.8762 C   0  0  0  0  0  0
    9.6116   53.6391   17.2222 C   0  0  0  0  0  0
    9.5980   54.8850   17.8583 C   0  0  0  0  0  0
    8.3939   55.4891   18.2074 C   0  0  0  0  0  0
    7.1848   54.8516   17.9205 C   0  0  0  0  0  0
    7.1879   53.6069   17.2857 C   0  0  0  0  0  0
    8.3945   52.9954   16.9329 C   0  0  0  0  0  0
    8.3583   51.6331   16.2556 C   0  0  0  0  0  0
    5.6282   55.6059   18.3722 S   0  0  0  0  0  0
    4.7528   55.5150   17.1994 O   0  0  0  0  0  0
    5.9026   56.8971   19.0146 O   0  0  0  0  0  0
    4.9160   54.5235   19.5846 N   0  0  0  0  0  0
    5.2545   54.5247   20.9421 C   0  0  0  0  0  0
    4.3839   53.9041   21.8344 C   0  0  0  0  0  0
    4.6634   53.8951   23.1974 C   0  0  0  0  0  0
    5.8333   54.4964   23.6906 C   0  0  0  0  0  0
    6.7030   55.1167   22.7830 C   0  0  0  0  0  0
    6.4187   55.1279   21.4237 C   0  0  0  0  0  0
    6.1558   54.5435   25.1705 C   0  0  0  0  0  0
    7.0876   55.2390   25.5753 O   0  0  0  0  0  0
    5.3733   53.7968   25.9774 N   0  0  0  0  0  0
    5.4193   53.5775   27.4348 C   0  0  1  0  0  0
    5.7985   52.5602   27.5424 H   0  0  0  0  0  0
    6.3672   54.4947   28.2210 C   0  0  0  0  0  0
    4.0336   53.6025   28.0877 C   0  0  0  0  0  0
    2.9697   54.3244   27.5239 C   0  0  0  0  0  0
    1.7101   54.3248   28.1207 C   0  0  0  0  0  0
    1.4981   53.5893   29.2824 C   0  0  0  0  0  0
    2.5558   52.8782   29.8707 C   0  0  0  0  0  0
    3.8124   52.8762   29.2671 C   0  0  0  0  0  0
    2.3819   52.0976   30.9987 O   0  0  0  0  0  0
    1.1484   52.3250   31.6995 C   0  0  0  0  0  0
   -0.0259   52.5333   30.7188 C   0  0  0  0  0  0
    0.2414   53.6329   29.8443 O   0  0  0  0  0  0
   11.0592   52.9289   15.7936 H   0  0  0  0  0  0
   11.7917   53.5567   17.2829 H   0  0  0  0  0  0
   11.0008   51.9861   17.2758 H   0  0  0  0  0  0
   10.5276   55.3879   18.0880 H   0  0  0  0  0  0
    8.4111   56.4531   18.6965 H   0  0  0  0  0  0
    6.2486   53.1104   17.0774 H   0  0  0  0  0  0
    8.8535   50.8929   16.8866 H   0  0  0  0  0  0
    7.3383   51.2973   16.0646 H   0  0  0  0  0  0
    8.8870   51.6653   15.3028 H   0  0  0  0  0  0
    4.2232   53.8665   19.2598 H   0  0  0  0  0  0
    3.4742   53.4471   21.4757 H   0  0  0  0  0  0
    3.9464   53.4234   23.8537 H   0  0  0  0  0  0
    7.5891   55.6283   23.1230 H   0  0  0  0  0  0
    7.1171   55.6140   20.7624 H   0  0  0  0  0  0
    4.7043   53.2087   25.5080 H   0  0  0  0  0  0
    6.3310   54.2849   29.2811 H   0  0  0  0  0  0
    7.4070   54.3587   27.9206 H   0  0  0  0  0  0
    6.1072   55.5451   28.0815 H   0  0  0  0  0  0
    3.1172   54.8976   26.6208 H   0  0  0  0  0  0
    0.8983   54.8866   27.6831 H   0  0  0  0  0  0
    4.6145   52.3059   29.7132 H   0  0  0  0  0  0
    0.9482   51.4897   32.3720 H   0  0  0  0  0  0
    1.2259   53.2150   32.3212 H   0  0  0  0  0  0
   -0.1930   51.6264   30.1367 H   0  0  0  0  0  0
   -0.9283   52.7434   31.2816 H   0  0  0  0  0  0
  1  2  1  0  0  0
  1 35  1  0  0  0
  1 36  1  0  0  0
  1 37  1  0  0  0
  2  7  2  0  0  0
  2  3  1  0  0  0
  3  4  2  0  0  0
  3 38  1  0  0  0
  4  5  1  0  0  0
  4 39  1  0  0  0
  5  6  2  0  0  0
  5  9  1  0  0  0
  6  7  1  0  0  0
  6 40  1  0  0  0
  7  8  1  0  0  0
  8 41  1  0  0  0
  8 42  1  0  0  0
  8 43  1  0  0  0
  9 10  2  0  0  0
  9 11  2  0  0  0
  9 12  1  0  0  0
 12 13  1  0  0  0
 12 44  1  0  0  0
 13 18  2  0  0  0
 13 14  1  0  0  0
 14 15  2  0  0  0
 14 45  1  0  0  0
 15 16  1  0  0  0
 15 46  1  0  0  0
 16 17  2  0  0  0
 16 19  1  0  0  0
 17 18  1  0  0  0
 17 47  1  0  0  0
 18 48  1  0  0  0
 19 20  2  0  0  0
 19 21  1  0  0  0
 21 22  1  0  0  0
 21 49  1  0  0  0
 22 23  1  0  0  0
 22 24  1  0  0  0
 22 25  1  0  0  0
 24 50  1  0  0  0
 24 51  1  0  0  0
 24 52  1  0  0  0
 25 30  2  0  0  0
 25 26  1  0  0  0
 26 27  2  0  0  0
 26 53  1  0  0  0
 27 28  1  0  0  0
 27 54  1  0  0  0
 28 34  1  0  0  0
 28 29  2  0  0  0
 29 30  1  0  0  0
 29 31  1  0  0  0
 30 55  1  0  0  0
 31 32  1  0  0  0
 32 33  1  0  0  0
 32 56  1  0  0  0
 32 57  1  0  0  0
 33 34  1  0  0  0
 33 58  1  0  0  0
 33 59  1  0  0  0
M  END
> <i_i_glide_confnum>
114

> <i_i_glide_lignum>
2075

> <i_i_glide_posenum>
313

> <i_i_glide_rotatable_bonds>
7

> <i_m_Source_File_Index>
499

> <b_m_subgroup_collapsed>
0

> <r_i_docking_score>
-7.35635

> <r_i_glide_ecoul>
-9.61378

> <r_i_glide_eff_state_penalty>
0

> <r_i_glide_einternal>
3.07172

> <r_i_glide_emodel>
-79.7479

> <r_i_glide_energy>
-58.5525

> <r_i_glide_erotb>
0.556135

> <r_i_glide_esite>
0

> <r_i_glide_evdw>
-48.9387

> <r_i_glide_gscore>
-7.35635

> <r_i_glide_hbond>
-0.608

> <r_i_glide_ligand_efficiency>
-0.22292

> <r_i_glide_ligand_efficiency_ln>
-1.63602

> <r_i_glide_ligand_efficiency_sa>
-0.715023

> <r_i_glide_lipo>
-3.21229

> <r_i_glide_metal>
0

> <r_i_glide_rewards>
-0.203196

> <s_i_glide_gridfile>
wee1_glide-grid

> <s_m_Source_File>
wee1_decoys_glide_SP.sdf

> <s_m_Source_Path>
/Users/zhangxujun/Desktop

> <s_m_entry_id>
774

> <s_m_entry_name>
wee1_decoys_glide_SP.499

> <s_m_subgroup_title>
wee1_decoys_glide_SP

> <s_m_subgroupid>
wee1_decoys_glide_SP


$$$$
